MNW.pdb
     RDKit          3D

 31 32  0  0  1  0  0  0  0  0999 V2000
    7.8141  -12.1366   21.7053 C   0  0  0  0  0  0  0  0  0  0  0  0
    6.8073  -12.8649   20.3948 S   0  0  0  0  0  0  0  0  0  0  0  0
    7.5318  -14.3553   19.7150 C   0  0  0  0  0  0  0  0  0  0  0  0
    7.8664  -15.3399   20.8242 C   0  0  0  0  0  0  0  0  0  0  0  0
    8.5314  -16.5917   20.2390 C   0  0  2  0  0  0  0  0  0  0  0  0
    7.5752  -17.1427   19.3013 N   0  0  0  0  0  0  0  0  0  0  0  0
    8.7161  -17.5378   21.3695 C   0  0  0  0  0  0  0  0  0  0  0  0
    8.4186  -18.7693   21.2579 O   0  0  0  0  0  0  0  0  0  0  0  0
   13.6182  -18.1066   22.1356 N   0  0  0  0  0  0  0  0  0  0  0  0
   12.9607  -16.8577   22.2153 C   0  0  0  0  0  0  0  0  0  0  0  0
   13.7330  -15.8846   22.5939 O   0  0  0  0  0  0  0  0  0  0  0  0
   11.5497  -16.5854   21.9209 C   0  0  0  0  0  0  0  0  0  0  0  0
   10.6520  -17.2197   22.9407 C   0  0  2  0  0  0  0  0  0  0  0  0
    9.2399  -17.1105   22.6445 N   0  0  0  0  0  0  0  0  0  0  0  0
   10.9851  -16.6880   24.2857 C   0  0  0  0  0  0  0  0  0  0  0  0
   12.1770  -16.6310   24.7074 O   0  0  0  0  0  0  0  0  0  0  0  0
    9.9951  -16.2021   25.2096 N   0  0  0  0  0  0  0  0  0  0  0  0
   10.2484  -16.1975   26.6352 C   0  0  1  0  0  0  0  0  0  0  0  0
    8.9392  -16.0368   27.4109 C   0  0  0  0  0  0  0  0  0  0  0  0
    7.8736  -15.5034   26.5392 C   0  0  0  0  0  0  0  0  0  0  0  0
    6.9280  -16.1756   25.7844 C   0  0  0  0  0  0  0  0  0  0  0  0
    6.1359  -15.3088   25.1261 N   0  0  0  0  0  0  0  0  0  0  0  0
    6.5597  -14.0759   25.4473 C   0  0  0  0  0  0  0  0  0  0  0  0
    6.0959  -12.8286   25.0480 C   0  0  0  0  0  0  0  0  0  0  0  0
    6.7143  -11.6758   25.5285 C   0  0  0  0  0  0  0  0  0  0  0  0
    7.7797  -11.7865   26.3946 C   0  0  0  0  0  0  0  0  0  0  0  0
    8.2410  -13.0438   26.7918 C   0  0  0  0  0  0  0  0  0  0  0  0
    7.6256  -14.1585   26.3133 C   0  0  0  0  0  0  0  0  0  0  0  0
   10.9555  -17.4306   27.0782 C   0  0  0  0  0  0  0  0  0  0  0  0
   11.7555  -17.4347   28.2208 O   0  0  0  0  0  0  0  0  0  0  0  0
   10.8413  -18.4943   26.4238 O   0  0  0  0  0  0  0  0  0  0  0  0
  2  1  1  0
  3  2  1  0
  4  5  1  0
  4  3  1  0
  5  6  1  6
  7  5  1  0
  8  7  2  0
  9 10  1  0
 10 12  1  0
 10 11  2  0
 13 12  1  6
 13 14  1  0
 14  7  1  0
 15 13  1  0
 15 16  2  0
 17 15  1  0
 18 17  1  0
 18 19  1  1
 20 19  1  0
 20 21  2  0
 22 21  1  0
 23 22  1  0
 24 23  2  0
 25 24  1  0
 26 25  2  0
 26 27  1  0
 27 28  2  0
 28 23  1  0
 28 20  1  0
 29 18  1  0
 30 29  1  0
 31 29  2  0
M  END
$$$$
