MNW.pdb
     RDKit          3D

 31 32  0  0  1  0  0  0  0  0999 V2000
    7.7705  -11.6783   21.6000 C   0  0  0  0  0  0  0  0  0  0  0  0
    7.5097  -12.5336   20.0309 S   0  0  0  0  0  0  0  0  0  0  0  0
    6.7396  -14.1374   20.2384 C   0  0  0  0  0  0  0  0  0  0  0  0
    7.4282  -14.9209   21.3447 C   0  0  0  0  0  0  0  0  0  0  0  0
    7.7813  -16.3306   20.8550 C   0  0  2  0  0  0  0  0  0  0  0  0
    6.5162  -17.0106   20.6700 N   0  0  0  0  0  0  0  0  0  0  0  0
    8.5358  -16.9822   21.9566 C   0  0  0  0  0  0  0  0  0  0  0  0
    7.9386  -17.6079   22.8889 O   0  0  0  0  0  0  0  0  0  0  0  0
   11.2654  -19.2251   20.8952 N   0  0  0  0  0  0  0  0  0  0  0  0
   12.2954  -18.6640   21.6844 C   0  0  0  0  0  0  0  0  0  0  0  0
   13.4902  -18.9622   21.2719 O   0  0  0  0  0  0  0  0  0  0  0  0
   12.1329  -17.8165   22.8705 C   0  0  0  0  0  0  0  0  0  0  0  0
   10.6852  -17.5319   23.1380 C   0  0  2  0  0  0  0  0  0  0  0  0
    9.9767  -16.9391   22.0243 N   0  0  0  0  0  0  0  0  0  0  0  0
   10.5654  -16.7198   24.3745 C   0  0  0  0  0  0  0  0  0  0  0  0
   10.9554  -15.5170   24.4265 O   0  0  0  0  0  0  0  0  0  0  0  0
   10.0060  -17.2255   25.5997 N   0  0  0  0  0  0  0  0  0  0  0  0
   10.1271  -16.4799   26.8348 C   0  0  1  0  0  0  0  0  0  0  0  0
    8.7642  -16.3524   27.5189 C   0  0  0  0  0  0  0  0  0  0  0  0
    7.8133  -15.6151   26.6633 C   0  0  0  0  0  0  0  0  0  0  0  0
    6.8227  -16.0943   25.8237 C   0  0  0  0  0  0  0  0  0  0  0  0
    6.1763  -15.0807   25.2181 N   0  0  0  0  0  0  0  0  0  0  0  0
    6.7397  -13.9440   25.6578 C   0  0  0  0  0  0  0  0  0  0  0  0
    6.4560  -12.6185   25.3533 C   0  0  0  0  0  0  0  0  0  0  0  0
    7.1952  -11.5993   25.9509 C   0  0  0  0  0  0  0  0  0  0  0  0
    8.2000  -11.9185   26.8375 C   0  0  0  0  0  0  0  0  0  0  0  0
    8.4800  -13.2534   27.1390 C   0  0  0  0  0  0  0  0  0  0  0  0
    7.7485  -14.2354   26.5467 C   0  0  0  0  0  0  0  0  0  0  0  0
   11.1086  -17.1017   27.7657 C   0  0  0  0  0  0  0  0  0  0  0  0
   11.7824  -18.2755   27.4281 O   0  0  0  0  0  0  0  0  0  0  0  0
   11.3463  -16.5742   28.8785 O   0  0  0  0  0  0  0  0  0  0  0  0
  2  1  1  0
  3  2  1  0
  4  5  1  0
  4  3  1  0
  5  6  1  1
  7  5  1  0
  8  7  2  0
  9 10  1  0
 10 12  1  0
 10 11  2  0
 13 12  1  6
 13 14  1  0
 14  7  1  0
 15 13  1  0
 15 16  2  0
 17 15  1  0
 18 17  1  0
 18 19  1  1
 20 19  1  0
 20 21  2  0
 22 21  1  0
 23 22  1  0
 24 23  2  0
 25 24  1  0
 26 25  2  0
 26 27  1  0
 27 28  2  0
 28 23  1  0
 28 20  1  0
 29 18  1  0
 30 29  1  0
 31 29  2  0
M  END
$$$$
