MNW.pdb
     RDKit          3D

 31 32  0  0  1  0  0  0  0  0999 V2000
    7.5478  -11.9094   20.8836 C   0  0  0  0  0  0  0  0  0  0  0  0
    8.4384  -12.3463   19.3744 S   0  0  0  0  0  0  0  0  0  0  0  0
    8.5005  -14.1147   19.0967 C   0  0  0  0  0  0  0  0  0  0  0  0
    8.1766  -14.8677   20.3774 C   0  0  0  0  0  0  0  0  0  0  0  0
    8.3149  -16.3785   20.1534 C   0  0  2  0  0  0  0  0  0  0  0  0
    7.3596  -16.7111   19.1172 N   0  0  0  0  0  0  0  0  0  0  0  0
    7.9112  -17.0313   21.4255 C   0  0  0  0  0  0  0  0  0  0  0  0
    6.8843  -17.7788   21.4896 O   0  0  0  0  0  0  0  0  0  0  0  0
   12.6134  -19.5651   23.0886 N   0  0  0  0  0  0  0  0  0  0  0  0
   11.2595  -19.5608   22.6818 C   0  0  0  0  0  0  0  0  0  0  0  0
   10.6688  -20.7089   22.8219 O   0  0  0  0  0  0  0  0  0  0  0  0
   10.5063  -18.4238   22.1417 C   0  0  0  0  0  0  0  0  0  0  0  0
    9.5251  -17.8985   23.1464 C   0  0  2  0  0  0  0  0  0  0  0  0
    8.6597  -16.8521   22.6463 N   0  0  0  0  0  0  0  0  0  0  0  0
   10.2521  -17.4859   24.3727 C   0  0  0  0  0  0  0  0  0  0  0  0
   11.1263  -18.2241   24.9137 O   0  0  0  0  0  0  0  0  0  0  0  0
   10.0255  -16.2318   25.0402 N   0  0  0  0  0  0  0  0  0  0  0  0
   10.4522  -16.0313   26.4092 C   0  0  1  0  0  0  0  0  0  0  0  0
    9.2400  -15.9047   27.3345 C   0  0  0  0  0  0  0  0  0  0  0  0
    8.0716  -15.3781   26.6014 C   0  0  0  0  0  0  0  0  0  0  0  0
    7.0512  -16.0565   25.9576 C   0  0  0  0  0  0  0  0  0  0  0  0
    6.1757  -15.1948   25.4073 N   0  0  0  0  0  0  0  0  0  0  0  0
    6.6194  -13.9591   25.6884 C   0  0  0  0  0  0  0  0  0  0  0  0
    6.0958  -12.7147   25.3600 C   0  0  0  0  0  0  0  0  0  0  0  0
    6.7527  -11.5578   25.7753 C   0  0  0  0  0  0  0  0  0  0  0  0
    7.9150  -11.6618   26.5073 C   0  0  0  0  0  0  0  0  0  0  0  0
    8.4359  -12.9161   26.8338 C   0  0  0  0  0  0  0  0  0  0  0  0
    7.7818  -14.0348   26.4205 C   0  0  0  0  0  0  0  0  0  0  0  0
   11.3412  -17.1285   26.8808 C   0  0  0  0  0  0  0  0  0  0  0  0
   11.9411  -17.0831   28.1392 O   0  0  0  0  0  0  0  0  0  0  0  0
   11.5663  -18.1196   26.1460 O   0  0  0  0  0  0  0  0  0  0  0  0
  2  1  1  0
  3  2  1  0
  4  5  1  0
  4  3  1  0
  5  6  1  6
  7  5  1  0
  8  7  2  0
  9 10  1  0
 10 12  1  0
 10 11  2  0
 13 12  1  6
 13 14  1  0
 14  7  1  0
 15 13  1  0
 15 16  2  0
 17 15  1  0
 18 17  1  0
 18 19  1  1
 20 19  1  0
 20 21  2  0
 22 21  1  0
 23 22  1  0
 24 23  2  0
 25 24  1  0
 26 25  2  0
 26 27  1  0
 27 28  2  0
 28 23  1  0
 28 20  1  0
 29 18  1  0
 30 29  1  0
 31 29  2  0
M  END
$$$$
