MNW.pdb
     RDKit          3D

 31 32  0  0  1  0  0  0  0  0999 V2000
    7.8821  -11.6281   20.9967 C   0  0  0  0  0  0  0  0  0  0  0  0
    6.7981  -12.8013   20.1540 S   0  0  0  0  0  0  0  0  0  0  0  0
    7.6616  -14.2753   19.6156 C   0  0  0  0  0  0  0  0  0  0  0  0
    8.1843  -15.0545   20.8120 C   0  0  0  0  0  0  0  0  0  0  0  0
    8.9496  -16.2975   20.3417 C   0  0  2  0  0  0  0  0  0  0  0  0
    7.9732  -17.1292   19.6696 N   0  0  0  0  0  0  0  0  0  0  0  0
    9.4259  -16.9876   21.5682 C   0  0  0  0  0  0  0  0  0  0  0  0
    8.6539  -17.7327   22.2511 O   0  0  0  0  0  0  0  0  0  0  0  0
   12.7985  -19.8940   21.7222 N   0  0  0  0  0  0  0  0  0  0  0  0
   13.0773  -18.5514   22.0662 C   0  0  0  0  0  0  0  0  0  0  0  0
   13.7684  -17.9156   21.1691 O   0  0  0  0  0  0  0  0  0  0  0  0
   12.6708  -17.8540   23.2910 C   0  0  0  0  0  0  0  0  0  0  0  0
   11.2122  -17.5084   23.2582 C   0  0  2  0  0  0  0  0  0  0  0  0
   10.7812  -16.8491   22.0443 N   0  0  0  0  0  0  0  0  0  0  0  0
   10.8655  -16.7288   24.4726 C   0  0  0  0  0  0  0  0  0  0  0  0
   11.3615  -15.5869   24.7000 O   0  0  0  0  0  0  0  0  0  0  0  0
    9.9517  -17.2003   25.4788 N   0  0  0  0  0  0  0  0  0  0  0  0
   10.0193  -16.7008   26.8361 C   0  0  1  0  0  0  0  0  0  0  0  0
    8.6138  -16.5565   27.4239 C   0  0  0  0  0  0  0  0  0  0  0  0
    7.7447  -15.7740   26.5226 C   0  0  0  0  0  0  0  0  0  0  0  0
    6.8292  -16.2072   25.5793 C   0  0  0  0  0  0  0  0  0  0  0  0
    6.2427  -15.1624   24.9658 N   0  0  0  0  0  0  0  0  0  0  0  0
    6.7707  -14.0511   25.5035 C   0  0  0  0  0  0  0  0  0  0  0  0
    6.5207  -12.7110   25.2352 C   0  0  0  0  0  0  0  0  0  0  0  0
    7.2095  -11.7255   25.9401 C   0  0  0  0  0  0  0  0  0  0  0  0
    8.1314  -12.0922   26.8956 C   0  0  0  0  0  0  0  0  0  0  0  0
    8.3780  -13.4415   27.1602 C   0  0  0  0  0  0  0  0  0  0  0  0
    7.6966  -14.3901   26.4629 C   0  0  0  0  0  0  0  0  0  0  0  0
   10.8500  -17.5748   27.7095 C   0  0  0  0  0  0  0  0  0  0  0  0
   11.2028  -17.1817   29.0005 O   0  0  0  0  0  0  0  0  0  0  0  0
   11.2491  -18.6884   27.2930 O   0  0  0  0  0  0  0  0  0  0  0  0
  2  1  1  0
  3  2  1  0
  4  5  1  0
  4  3  1  0
  5  6  1  1
  7  5  1  0
  8  7  2  0
  9 10  1  0
 10 12  1  0
 10 11  2  0
 13 12  1  6
 13 14  1  0
 14  7  1  0
 15 13  1  0
 15 16  2  0
 17 15  1  0
 18 17  1  0
 18 19  1  1
 20 19  1  0
 20 21  2  0
 22 21  1  0
 23 22  1  0
 24 23  2  0
 25 24  1  0
 26 25  2  0
 26 27  1  0
 27 28  2  0
 28 23  1  0
 28 20  1  0
 29 18  1  0
 30 29  1  0
 31 29  2  0
M  END
$$$$
