MNW.pdb
     RDKit          3D

 31 32  0  0  1  0  0  0  0  0999 V2000
    8.2999  -11.7438   19.9779 C   0  0  0  0  0  0  0  0  0  0  0  0
    8.6059  -12.5035   18.3683 S   0  0  0  0  0  0  0  0  0  0  0  0
    7.7425  -14.0594   18.1637 C   0  0  0  0  0  0  0  0  0  0  0  0
    7.6792  -14.8121   19.4834 C   0  0  0  0  0  0  0  0  0  0  0  0
    9.0225  -15.4942   19.7696 C   0  0  2  0  0  0  0  0  0  0  0  0
    9.2738  -16.3587   18.6353 N   0  0  0  0  0  0  0  0  0  0  0  0
    8.8234  -16.3219   20.9871 C   0  0  0  0  0  0  0  0  0  0  0  0
    8.1259  -15.9044   21.9652 O   0  0  0  0  0  0  0  0  0  0  0  0
    8.7355  -21.2712   24.1113 N   0  0  0  0  0  0  0  0  0  0  0  0
    9.7502  -20.4181   23.6205 C   0  0  0  0  0  0  0  0  0  0  0  0
   10.7152  -20.2148   24.4656 O   0  0  0  0  0  0  0  0  0  0  0  0
    9.7992  -19.7763   22.3024 C   0  0  0  0  0  0  0  0  0  0  0  0
    9.3473  -18.3487   22.3785 C   0  0  2  0  0  0  0  0  0  0  0  0
    9.4076  -17.6347   21.1214 N   0  0  0  0  0  0  0  0  0  0  0  0
   10.0972  -17.6535   23.4542 C   0  0  0  0  0  0  0  0  0  0  0  0
   11.2660  -17.2033   23.2729 O   0  0  0  0  0  0  0  0  0  0  0  0
    9.5665  -17.4385   24.7740 N   0  0  0  0  0  0  0  0  0  0  0  0
   10.3160  -16.6932   25.7635 C   0  0  1  0  0  0  0  0  0  0  0  0
    9.8245  -15.2454   25.8284 C   0  0  0  0  0  0  0  0  0  0  0  0
    8.3606  -15.1950   26.0137 C   0  0  0  0  0  0  0  0  0  0  0  0
    7.4349  -16.2238   26.0338 C   0  0  0  0  0  0  0  0  0  0  0  0
    6.1917  -15.7460   26.2291 N   0  0  0  0  0  0  0  0  0  0  0  0
    6.3017  -14.4121   26.3362 C   0  0  0  0  0  0  0  0  0  0  0  0
    5.3314  -13.4393   26.5426 C   0  0  0  0  0  0  0  0  0  0  0  0
    5.7033  -12.0983   26.6184 C   0  0  0  0  0  0  0  0  0  0  0  0
    7.0303  -11.7525   26.4873 C   0  0  0  0  0  0  0  0  0  0  0  0
    8.0006  -12.7358   26.2799 C   0  0  0  0  0  0  0  0  0  0  0  0
    7.6200  -14.0397   26.2087 C   0  0  0  0  0  0  0  0  0  0  0  0
   10.2342  -17.3202   27.1114 C   0  0  0  0  0  0  0  0  0  0  0  0
    9.4493  -18.4511   27.3366 O   0  0  0  0  0  0  0  0  0  0  0  0
   10.8760  -16.8359   28.0739 O   0  0  0  0  0  0  0  0  0  0  0  0
  2  1  1  0
  3  2  1  0
  4  5  1  0
  4  3  1  0
  5  6  1  6
  7  5  1  0
  8  7  2  0
  9 10  1  0
 10 12  1  0
 10 11  2  0
 13 12  1  6
 13 14  1  0
 14  7  1  0
 15 13  1  0
 15 16  2  0
 17 15  1  0
 18 17  1  0
 18 19  1  1
 20 19  1  0
 20 21  2  0
 22 21  1  0
 23 22  1  0
 24 23  2  0
 25 24  1  0
 26 25  2  0
 26 27  1  0
 27 28  2  0
 28 23  1  0
 28 20  1  0
 29 18  1  0
 30 29  1  0
 31 29  2  0
M  END
$$$$
