MNW.pdb
     RDKit          3D

 31 32  0  0  1  0  0  0  0  0999 V2000
    8.7234  -12.4249   18.7430 C   0  0  0  0  0  0  0  0  0  0  0  0
    7.0984  -13.0393   19.2366 S   0  0  0  0  0  0  0  0  0  0  0  0
    6.8837  -14.7826   18.8858 C   0  0  0  0  0  0  0  0  0  0  0  0
    8.1508  -15.5541   19.2192 C   0  0  0  0  0  0  0  0  0  0  0  0
    8.0486  -16.1593   20.6246 C   0  0  2  0  0  0  0  0  0  0  0  0
    7.5086  -15.1112   21.4654 N   0  0  0  0  0  0  0  0  0  0  0  0
    9.4375  -16.4688   21.0517 C   0  0  0  0  0  0  0  0  0  0  0  0
    9.9909  -17.5748   20.7548 O   0  0  0  0  0  0  0  0  0  0  0  0
   13.1618  -16.1990   19.6826 N   0  0  0  0  0  0  0  0  0  0  0  0
   12.8082  -15.0891   20.4836 C   0  0  0  0  0  0  0  0  0  0  0  0
   12.6103  -13.9988   19.8064 O   0  0  0  0  0  0  0  0  0  0  0  0
   12.6550  -15.0696   21.9422 C   0  0  0  0  0  0  0  0  0  0  0  0
   11.5030  -15.9253   22.3769 C   0  0  2  0  0  0  0  0  0  0  0  0
   10.2255  -15.5356   21.8203 N   0  0  0  0  0  0  0  0  0  0  0  0
   11.4721  -15.9900   23.8593 C   0  0  0  0  0  0  0  0  0  0  0  0
   12.2020  -15.2466   24.5778 O   0  0  0  0  0  0  0  0  0  0  0  0
   10.6238  -16.8916   24.5923 N   0  0  0  0  0  0  0  0  0  0  0  0
   10.5660  -16.8467   26.0383 C   0  0  1  0  0  0  0  0  0  0  0  0
   10.1606  -15.4501   26.5146 C   0  0  0  0  0  0  0  0  0  0  0  0
    8.7481  -15.1721   26.1864 C   0  0  0  0  0  0  0  0  0  0  0  0
    7.7502  -16.0351   25.7680 C   0  0  0  0  0  0  0  0  0  0  0  0
    6.5944  -15.3729   25.5739 N   0  0  0  0  0  0  0  0  0  0  0  0
    6.8333  -14.0837   25.8632 C   0  0  0  0  0  0  0  0  0  0  0  0
    5.9908  -12.9793   25.8301 C   0  0  0  0  0  0  0  0  0  0  0  0
    6.4839  -11.7240   26.1816 C   0  0  0  0  0  0  0  0  0  0  0  0
    7.8024  -11.5927   26.5580 C   0  0  0  0  0  0  0  0  0  0  0  0
    8.6439  -12.7073   26.5889 C   0  0  0  0  0  0  0  0  0  0  0  0
    8.1461  -13.9249   26.2429 C   0  0  0  0  0  0  0  0  0  0  0  0
    9.6299  -17.8650   26.5892 C   0  0  0  0  0  0  0  0  0  0  0  0
    8.8712  -18.6798   25.7489 O   0  0  0  0  0  0  0  0  0  0  0  0
    9.5083  -18.0064   27.8294 O   0  0  0  0  0  0  0  0  0  0  0  0
  2  1  1  0
  3  2  1  0
  4  5  1  0
  4  3  1  0
  5  6  1  1
  7  5  1  0
  8  7  2  0
  9 10  1  0
 10 12  1  0
 10 11  2  0
 13 12  1  1
 13 14  1  0
 14  7  1  0
 15 13  1  0
 15 16  2  0
 17 15  1  0
 18 17  1  0
 18 19  1  6
 20 19  1  0
 20 21  2  0
 22 21  1  0
 23 22  1  0
 24 23  2  0
 25 24  1  0
 26 25  2  0
 26 27  1  0
 27 28  2  0
 28 23  1  0
 28 20  1  0
 29 18  1  0
 30 29  1  0
 31 29  2  0
M  END
$$$$
