TNL.pdb
     RDKit          3D

 24 23  0  0  1  0  0  0  0  0999 V2000
    8.8035  -12.3551   20.1205 C   0  0  0  0  0  0  0  0  0  0  0  0
    8.0789  -13.1370   19.0737 C   0  0  1  0  0  0  0  0  0  0  0  0
    8.2969  -12.4501   17.8526 O   0  0  0  0  0  0  0  0  0  0  0  0
    8.5912  -14.5491   18.8772 C   0  0  2  0  0  0  0  0  0  0  0  0
    7.7682  -15.1531   17.8233 N   0  0  0  0  0  0  0  0  0  0  0  0
    8.4603  -15.3968   20.0796 C   0  0  0  0  0  0  0  0  0  0  0  0
    7.3315  -15.8994   20.4042 O   0  0  0  0  0  0  0  0  0  0  0  0
   11.6979  -18.5388   20.1912 N   0  0  0  0  0  0  0  0  0  0  0  0
   10.6567  -18.4689   21.1527 C   0  0  0  0  0  0  0  0  0  0  0  0
    9.7385  -19.3189   21.1306 O   0  0  0  0  0  0  0  0  0  0  0  0
   10.6588  -17.4132   22.1583 C   0  0  0  0  0  0  0  0  0  0  0  0
    9.4519  -16.5045   22.1054 C   0  0  2  0  0  0  0  0  0  0  0  0
    9.5688  -15.6826   20.9054 N   0  0  0  0  0  0  0  0  0  0  0  0
    9.4541  -15.5692   23.2873 C   0  0  0  0  0  0  0  0  0  0  0  0
   10.3627  -14.7277   23.4871 O   0  0  0  0  0  0  0  0  0  0  0  0
    7.9854  -11.7614   26.4997 C   0  0  0  0  0  0  0  0  0  0  0  0
    7.1138  -13.0540   26.7325 C   0  0  1  0  0  0  0  0  0  0  0  0
    5.6808  -12.5514   26.8436 C   0  0  0  0  0  0  0  0  0  0  0  0
    7.2671  -13.9283   25.5435 C   0  0  0  0  0  0  0  0  0  0  0  0
    8.4655  -14.7638   25.4751 C   0  0  2  0  0  0  0  0  0  0  0  0
    8.4064  -15.6030   24.2428 N   0  0  0  0  0  0  0  0  0  0  0  0
    8.8387  -15.6487   26.5495 C   0  0  0  0  0  0  0  0  0  0  0  0
    9.8600  -15.2846   27.4550 O   0  0  0  0  0  0  0  0  0  0  0  0
    8.3228  -16.7586   26.7679 O   0  0  0  0  0  0  0  0  0  0  0  0
  2  1  1  1
  2  3  1  0
  4  2  1  0
  4  5  1  6
  6  4  1  0
  6  7  2  0
  9 11  1  0
  9  8  1  0
 10  9  2  0
 12 11  1  1
 12 13  1  0
 12 14  1  0
 13  6  1  0
 14 15  2  0
 14 21  1  0
 17 16  1  6
 18 17  1  0
 19 17  1  0
 20 19  1  1
 21 20  1  0
 22 23  1  0
 22 20  1  0
 24 22  2  0
M  END
$$$$
