TNL.pdb
     RDKit          3D

 24 23  0  0  1  0  0  0  0  0999 V2000
   11.8746  -17.8437   20.5974 C   0  0  0  0  0  0  0  0  0  0  0  0
   10.6604  -17.4106   21.3527 C   0  0  1  0  0  0  0  0  0  0  0  0
   10.6424  -15.9945   21.2840 O   0  0  0  0  0  0  0  0  0  0  0  0
    9.3500  -17.8925   20.7649 C   0  0  2  0  0  0  0  0  0  0  0  0
    9.2963  -17.3904   19.3871 N   0  0  0  0  0  0  0  0  0  0  0  0
    8.1606  -17.3733   21.4703 C   0  0  0  0  0  0  0  0  0  0  0  0
    7.2976  -16.6590   20.8562 O   0  0  0  0  0  0  0  0  0  0  0  0
    6.4795  -19.2096   26.5427 N   0  0  0  0  0  0  0  0  0  0  0  0
    6.9751  -19.0217   25.2265 C   0  0  0  0  0  0  0  0  0  0  0  0
    8.1461  -19.3681   24.9528 O   0  0  0  0  0  0  0  0  0  0  0  0
    6.1241  -18.4289   24.2018 C   0  0  0  0  0  0  0  0  0  0  0  0
    6.7221  -17.2169   23.5246 C   0  0  2  0  0  0  0  0  0  0  0  0
    7.9345  -17.6475   22.8363 N   0  0  0  0  0  0  0  0  0  0  0  0
    7.1338  -16.1968   24.5550 C   0  0  0  0  0  0  0  0  0  0  0  0
    6.3142  -15.6335   25.3196 O   0  0  0  0  0  0  0  0  0  0  0  0
    5.7315  -12.7737   26.5870 C   0  0  0  0  0  0  0  0  0  0  0  0
    6.8761  -13.2596   25.6183 C   0  0  1  0  0  0  0  0  0  0  0  0
    7.6924  -12.0115   25.3115 C   0  0  0  0  0  0  0  0  0  0  0  0
    7.7010  -14.2535   26.3486 C   0  0  0  0  0  0  0  0  0  0  0  0
    8.8947  -14.7609   25.6729 C   0  0  2  0  0  0  0  0  0  0  0  0
    8.4940  -15.8240   24.7058 N   0  0  0  0  0  0  0  0  0  0  0  0
   10.0197  -15.2843   26.4060 C   0  0  0  0  0  0  0  0  0  0  0  0
   10.4389  -16.6199   26.2166 O   0  0  0  0  0  0  0  0  0  0  0  0
   10.6913  -14.6416   27.2315 O   0  0  0  0  0  0  0  0  0  0  0  0
  2  1  1  6
  2  3  1  0
  4  2  1  0
  4  5  1  6
  6  4  1  0
  6  7  2  0
  9 11  1  0
  9  8  1  0
 10  9  2  0
 12 11  1  1
 12 13  1  0
 12 14  1  0
 13  6  1  0
 14 15  2  0
 14 21  1  0
 17 16  1  1
 18 17  1  0
 19 17  1  0
 20 19  1  1
 21 20  1  0
 22 23  1  0
 22 20  1  0
 24 22  2  0
M  END
$$$$
