TNL.pdb
     RDKit          3D

 24 23  0  0  1  0  0  0  0  0999 V2000
    8.7202  -12.5126   20.2830 C   0  0  0  0  0  0  0  0  0  0  0  0
    7.7321  -13.3243   19.5104 C   0  0  1  0  0  0  0  0  0  0  0  0
    7.6351  -12.7113   18.2356 O   0  0  0  0  0  0  0  0  0  0  0  0
    8.1486  -14.7614   19.2728 C   0  0  2  0  0  0  0  0  0  0  0  0
    7.0399  -15.4096   18.5631 N   0  0  0  0  0  0  0  0  0  0  0  0
    8.3805  -15.5220   20.5175 C   0  0  0  0  0  0  0  0  0  0  0  0
    7.4045  -16.0469   21.1531 O   0  0  0  0  0  0  0  0  0  0  0  0
   11.7091  -19.1343   23.3872 N   0  0  0  0  0  0  0  0  0  0  0  0
   11.7974  -17.7186   23.3518 C   0  0  0  0  0  0  0  0  0  0  0  0
   12.2542  -17.1039   24.3416 O   0  0  0  0  0  0  0  0  0  0  0  0
   11.3585  -16.9874   22.1692 C   0  0  0  0  0  0  0  0  0  0  0  0
    9.9300  -16.4977   22.2382 C   0  0  2  0  0  0  0  0  0  0  0  0
    9.6782  -15.6976   21.0443 N   0  0  0  0  0  0  0  0  0  0  0  0
    9.7492  -15.5905   23.4282 C   0  0  0  0  0  0  0  0  0  0  0  0
    9.9504  -14.3534   23.3771 O   0  0  0  0  0  0  0  0  0  0  0  0
    8.1932  -12.1083   26.3393 C   0  0  0  0  0  0  0  0  0  0  0  0
    7.2757  -13.3900   26.3339 C   0  0  1  0  0  0  0  0  0  0  0  0
    5.9087  -12.8972   25.8790 C   0  0  0  0  0  0  0  0  0  0  0  0
    7.8363  -14.3488   25.3500 C   0  0  0  0  0  0  0  0  0  0  0  0
    8.9396  -15.1991   25.7955 C   0  0  2  0  0  0  0  0  0  0  0  0
    9.3352  -16.1096   24.6817 N   0  0  0  0  0  0  0  0  0  0  0  0
    8.8382  -16.0222   26.9740 C   0  0  0  0  0  0  0  0  0  0  0  0
    9.3694  -15.5781   28.2054 O   0  0  0  0  0  0  0  0  0  0  0  0
    8.3013  -17.1429   27.0143 O   0  0  0  0  0  0  0  0  0  0  0  0
  2  1  1  1
  2  3  1  0
  4  2  1  0
  4  5  1  1
  6  4  1  0
  6  7  2  0
  9 11  1  0
  9  8  1  0
 10  9  2  0
 12 11  1  6
 12 13  1  0
 12 14  1  0
 13  6  1  0
 14 15  2  0
 14 21  1  0
 17 16  1  6
 18 17  1  0
 19 17  1  0
 20 19  1  6
 21 20  1  0
 22 23  1  0
 22 20  1  0
 24 22  2  0
M  END
$$$$
