TNL.pdb
     RDKit          3D

 24 23  0  0  1  0  0  0  0  0999 V2000
    8.5425  -12.3218   20.5678 C   0  0  0  0  0  0  0  0  0  0  0  0
    8.0312  -13.1333   19.4222 C   0  0  1  0  0  0  0  0  0  0  0  0
    8.4645  -12.4671   18.2479 O   0  0  0  0  0  0  0  0  0  0  0  0
    8.5845  -14.5419   19.3538 C   0  0  2  0  0  0  0  0  0  0  0  0
    7.9671  -15.1809   18.1860 N   0  0  0  0  0  0  0  0  0  0  0  0
    8.2513  -15.3646   20.5344 C   0  0  0  0  0  0  0  0  0  0  0  0
    7.0548  -15.7649   20.7344 O   0  0  0  0  0  0  0  0  0  0  0  0
    8.1836  -18.6246   20.9762 N   0  0  0  0  0  0  0  0  0  0  0  0
    9.3668  -18.7934   21.7411 C   0  0  0  0  0  0  0  0  0  0  0  0
   10.0331  -19.8461   21.6227 O   0  0  0  0  0  0  0  0  0  0  0  0
    9.8012  -17.7461   22.6578 C   0  0  0  0  0  0  0  0  0  0  0  0
    8.9153  -16.5213   22.6639 C   0  0  2  0  0  0  0  0  0  0  0  0
    9.2351  -15.7377   21.4753 N   0  0  0  0  0  0  0  0  0  0  0  0
    9.2275  -15.6609   23.8615 C   0  0  0  0  0  0  0  0  0  0  0  0
   10.3152  -15.0505   23.9954 O   0  0  0  0  0  0  0  0  0  0  0  0
    5.6059  -12.5002   26.4873 C   0  0  0  0  0  0  0  0  0  0  0  0
    6.8783  -13.0906   25.7683 C   0  0  1  0  0  0  0  0  0  0  0  0
    7.8023  -11.8992   25.5557 C   0  0  0  0  0  0  0  0  0  0  0  0
    7.5039  -14.0765   26.6838 C   0  0  0  0  0  0  0  0  0  0  0  0
    8.6586  -14.8201   26.1814 C   0  0  2  0  0  0  0  0  0  0  0  0
    8.2840  -15.5029   24.9087 N   0  0  0  0  0  0  0  0  0  0  0  0
    9.3373  -15.8057   26.9844 C   0  0  0  0  0  0  0  0  0  0  0  0
   10.1017  -15.4127   28.1056 O   0  0  0  0  0  0  0  0  0  0  0  0
    9.3146  -17.0310   26.7754 O   0  0  0  0  0  0  0  0  0  0  0  0
  2  1  1  1
  2  3  1  0
  4  2  1  0
  4  5  1  6
  6  4  1  0
  6  7  2  0
  9 11  1  0
  9  8  1  0
 10  9  2  0
 12 11  1  1
 12 13  1  0
 12 14  1  0
 13  6  1  0
 14 15  2  0
 14 21  1  0
 17 16  1  1
 18 17  1  0
 19 17  1  0
 20 19  1  1
 21 20  1  0
 22 23  1  0
 22 20  1  0
 24 22  2  0
M  END
$$$$
