TNL.pdb
     RDKit          3D

 24 23  0  0  1  0  0  0  0  0999 V2000
    7.0580  -13.1130   17.7768 C   0  0  0  0  0  0  0  0  0  0  0  0
    7.3599  -14.2450   18.7041 C   0  0  1  0  0  0  0  0  0  0  0  0
    8.4042  -14.9832   18.0918 O   0  0  0  0  0  0  0  0  0  0  0  0
    7.8663  -13.8219   20.0678 C   0  0  2  0  0  0  0  0  0  0  0  0
    9.1519  -13.1490   19.8497 N   0  0  0  0  0  0  0  0  0  0  0  0
    8.1110  -14.9545   20.9837 C   0  0  0  0  0  0  0  0  0  0  0  0
    7.1504  -15.7066   21.3629 O   0  0  0  0  0  0  0  0  0  0  0  0
   12.2815  -17.3000   19.9525 N   0  0  0  0  0  0  0  0  0  0  0  0
   11.1937  -17.5826   20.8187 C   0  0  0  0  0  0  0  0  0  0  0  0
   10.3514  -18.4476   20.4894 O   0  0  0  0  0  0  0  0  0  0  0  0
   11.0603  -16.8688   22.0829 C   0  0  0  0  0  0  0  0  0  0  0  0
    9.6631  -16.3661   22.3664 C   0  0  2  0  0  0  0  0  0  0  0  0
    9.4045  -15.2465   21.4672 N   0  0  0  0  0  0  0  0  0  0  0  0
    9.5783  -15.8349   23.7744 C   0  0  0  0  0  0  0  0  0  0  0  0
   10.4139  -16.1275   24.6632 O   0  0  0  0  0  0  0  0  0  0  0  0
    8.2803  -11.7712   27.3737 C   0  0  0  0  0  0  0  0  0  0  0  0
    7.1779  -12.8294   26.9871 C   0  0  1  0  0  0  0  0  0  0  0  0
    5.8737  -12.0450   26.9420 C   0  0  0  0  0  0  0  0  0  0  0  0
    7.5095  -13.3641   25.6434 C   0  0  0  0  0  0  0  0  0  0  0  0
    8.3544  -14.5564   25.5854 C   0  0  2  0  0  0  0  0  0  0  0  0
    8.5277  -14.9638   24.1606 N   0  0  0  0  0  0  0  0  0  0  0  0
    8.0273  -15.7571   26.3123 C   0  0  0  0  0  0  0  0  0  0  0  0
    8.6572  -16.0423   27.5442 O   0  0  0  0  0  0  0  0  0  0  0  0
    7.2025  -16.6101   25.9413 O   0  0  0  0  0  0  0  0  0  0  0  0
  2  1  1  6
  2  3  1  0
  4  2  1  0
  4  5  1  6
  6  4  1  0
  6  7  2  0
  9 11  1  0
  9  8  1  0
 10  9  2  0
 12 11  1  6
 12 13  1  0
 12 14  1  0
 13  6  1  0
 14 15  2  0
 14 21  1  0
 17 16  1  6
 18 17  1  0
 19 17  1  0
 20 19  1  6
 21 20  1  0
 22 23  1  0
 22 20  1  0
 24 22  2  0
M  END
$$$$
