TNL.pdb
     RDKit          3D

 24 23  0  0  1  0  0  0  0  0999 V2000
    7.4218  -12.6092   18.2126 C   0  0  0  0  0  0  0  0  0  0  0  0
    7.3378  -13.6992   19.2310 C   0  0  1  0  0  0  0  0  0  0  0  0
    7.9567  -14.8313   18.6431 O   0  0  0  0  0  0  0  0  0  0  0  0
    8.0831  -13.4144   20.5189 C   0  0  2  0  0  0  0  0  0  0  0  0
    9.4923  -13.2241   20.1569 N   0  0  0  0  0  0  0  0  0  0  0  0
    8.0236  -14.5234   21.4926 C   0  0  0  0  0  0  0  0  0  0  0  0
    6.9050  -14.9114   21.9724 O   0  0  0  0  0  0  0  0  0  0  0  0
   10.7219  -18.1354   20.1989 N   0  0  0  0  0  0  0  0  0  0  0  0
    9.8927  -18.1247   21.3503 C   0  0  0  0  0  0  0  0  0  0  0  0
    8.8711  -18.8469   21.3817 O   0  0  0  0  0  0  0  0  0  0  0  0
   10.2305  -17.2772   22.4876 C   0  0  0  0  0  0  0  0  0  0  0  0
    9.1464  -16.2970   22.8737 C   0  0  2  0  0  0  0  0  0  0  0  0
    9.1904  -15.1911   21.9229 N   0  0  0  0  0  0  0  0  0  0  0  0
    9.4282  -15.7223   24.2382 C   0  0  0  0  0  0  0  0  0  0  0  0
   10.5569  -15.2902   24.5744 O   0  0  0  0  0  0  0  0  0  0  0  0
    5.7951  -12.6735   26.6049 C   0  0  0  0  0  0  0  0  0  0  0  0
    7.1792  -13.2280   26.0939 C   0  0  1  0  0  0  0  0  0  0  0  0
    8.1237  -12.0343   26.1334 C   0  0  0  0  0  0  0  0  0  0  0  0
    7.6286  -14.2777   27.0413 C   0  0  0  0  0  0  0  0  0  0  0  0
    8.7051  -15.1637   26.5999 C   0  0  2  0  0  0  0  0  0  0  0  0
    8.4069  -15.6448   25.2194 N   0  0  0  0  0  0  0  0  0  0  0  0
    9.0933  -16.3261   27.3582 C   0  0  0  0  0  0  0  0  0  0  0  0
    8.7849  -17.6226   26.8895 O   0  0  0  0  0  0  0  0  0  0  0  0
    9.7045  -16.2972   28.4405 O   0  0  0  0  0  0  0  0  0  0  0  0
  2  1  1  6
  2  3  1  0
  4  2  1  0
  4  5  1  6
  6  4  1  0
  6  7  2  0
  9 11  1  0
  9  8  1  0
 10  9  2  0
 12 11  1  6
 12 13  1  0
 12 14  1  0
 13  6  1  0
 14 15  2  0
 14 21  1  0
 17 16  1  1
 18 17  1  0
 19 17  1  0
 20 19  1  1
 21 20  1  0
 22 23  1  0
 22 20  1  0
 24 22  2  0
M  END
$$$$
