TNL.pdb
     RDKit          3D

 24 23  0  0  1  0  0  0  0  0999 V2000
    6.9047  -14.3427   22.1437 C   0  0  0  0  0  0  0  0  0  0  0  0
    6.5918  -15.7102   21.6298 C   0  0  1  0  0  0  0  0  0  0  0  0
    5.5781  -15.5378   20.6535 O   0  0  0  0  0  0  0  0  0  0  0  0
    7.7493  -16.4018   20.9392 C   0  0  2  0  0  0  0  0  0  0  0  0
    7.1988  -17.5957   20.2876 N   0  0  0  0  0  0  0  0  0  0  0  0
    8.8056  -16.8534   21.8676 C   0  0  0  0  0  0  0  0  0  0  0  0
    8.8920  -18.0810   22.2106 O   0  0  0  0  0  0  0  0  0  0  0  0
   12.6478  -17.2961   21.3582 N   0  0  0  0  0  0  0  0  0  0  0  0
   12.9178  -16.0403   21.9611 C   0  0  0  0  0  0  0  0  0  0  0  0
   13.9180  -15.3828   21.5958 O   0  0  0  0  0  0  0  0  0  0  0  0
   12.0347  -15.5218   22.9989 C   0  0  0  0  0  0  0  0  0  0  0  0
   10.8316  -16.3926   23.2807 C   0  0  2  0  0  0  0  0  0  0  0  0
    9.7518  -15.9533   22.4031 N   0  0  0  0  0  0  0  0  0  0  0  0
   10.3637  -16.1881   24.6988 C   0  0  0  0  0  0  0  0  0  0  0  0
   11.1051  -16.3751   25.6933 O   0  0  0  0  0  0  0  0  0  0  0  0
    5.7983  -13.0114   25.6888 C   0  0  0  0  0  0  0  0  0  0  0  0
    7.2869  -13.5291   25.7115 C   0  0  1  0  0  0  0  0  0  0  0  0
    8.0473  -12.5133   26.5531 C   0  0  0  0  0  0  0  0  0  0  0  0
    7.2977  -14.8598   26.3678 C   0  0  0  0  0  0  0  0  0  0  0  0
    8.5629  -15.5932   26.3769 C   0  0  2  0  0  0  0  0  0  0  0  0
    9.0373  -15.7667   24.9730 N   0  0  0  0  0  0  0  0  0  0  0  0
    8.6911  -16.8819   27.0092 C   0  0  0  0  0  0  0  0  0  0  0  0
    8.4252  -18.0648   26.2842 O   0  0  0  0  0  0  0  0  0  0  0  0
    9.0301  -17.0629   28.1916 O   0  0  0  0  0  0  0  0  0  0  0  0
  2  1  1  6
  2  3  1  0
  4  2  1  0
  4  5  1  1
  6  4  1  0
  6  7  2  0
  9 11  1  0
  9  8  1  0
 10  9  2  0
 12 11  1  6
 12 13  1  0
 12 14  1  0
 13  6  1  0
 14 15  2  0
 14 21  1  0
 17 16  1  1
 18 17  1  0
 19 17  1  0
 20 19  1  6
 21 20  1  0
 22 23  1  0
 22 20  1  0
 24 22  2  0
M  END
$$$$
