TNL.pdb
     RDKit          3D

 24 23  0  0  1  0  0  0  0  0999 V2000
    8.0729  -12.5197   21.0705 C   0  0  0  0  0  0  0  0  0  0  0  0
    7.1624  -13.5899   20.5627 C   0  0  1  0  0  0  0  0  0  0  0  0
    6.5345  -13.0537   19.4100 O   0  0  0  0  0  0  0  0  0  0  0  0
    7.8662  -14.8582   20.1257 C   0  0  2  0  0  0  0  0  0  0  0  0
    6.8538  -15.7001   19.4779 N   0  0  0  0  0  0  0  0  0  0  0  0
    8.4337  -15.6344   21.2469 C   0  0  0  0  0  0  0  0  0  0  0  0
    7.8861  -16.7230   21.6303 O   0  0  0  0  0  0  0  0  0  0  0  0
   12.7001  -17.9465   23.2027 N   0  0  0  0  0  0  0  0  0  0  0  0
   12.8547  -16.5367   23.1562 C   0  0  0  0  0  0  0  0  0  0  0  0
   13.8334  -16.0043   23.7259 O   0  0  0  0  0  0  0  0  0  0  0  0
   11.8787  -15.7165   22.4489 C   0  0  0  0  0  0  0  0  0  0  0  0
   10.4423  -16.1312   22.6726 C   0  0  2  0  0  0  0  0  0  0  0  0
    9.5936  -15.2067   21.9281 N   0  0  0  0  0  0  0  0  0  0  0  0
   10.0824  -15.9908   24.1295 C   0  0  0  0  0  0  0  0  0  0  0  0
   10.7886  -16.4622   25.0529 O   0  0  0  0  0  0  0  0  0  0  0  0
    5.9098  -12.4096   25.7267 C   0  0  0  0  0  0  0  0  0  0  0  0
    7.3392  -13.0506   25.5519 C   0  0  1  0  0  0  0  0  0  0  0  0
    8.2656  -12.1920   26.4022 C   0  0  0  0  0  0  0  0  0  0  0  0
    7.2857  -14.4365   26.0791 C   0  0  0  0  0  0  0  0  0  0  0  0
    8.4967  -15.2475   25.9585 C   0  0  2  0  0  0  0  0  0  0  0  0
    8.9052  -15.3053   24.5246 N   0  0  0  0  0  0  0  0  0  0  0  0
    8.5591  -16.6002   26.4516 C   0  0  0  0  0  0  0  0  0  0  0  0
    8.4525  -17.6923   25.5617 O   0  0  0  0  0  0  0  0  0  0  0  0
    8.7048  -16.9156   27.6452 O   0  0  0  0  0  0  0  0  0  0  0  0
  2  1  1  6
  2  3  1  0
  4  2  1  0
  4  5  1  1
  6  4  1  0
  6  7  2  0
  9 11  1  0
  9  8  1  0
 10  9  2  0
 12 11  1  1
 12 13  1  0
 12 14  1  0
 13  6  1  0
 14 15  2  0
 14 21  1  0
 17 16  1  1
 18 17  1  0
 19 17  1  0
 20 19  1  6
 21 20  1  0
 22 23  1  0
 22 20  1  0
 24 22  2  0
M  END
$$$$
