TNL.pdb
     RDKit          3D

 24 23  0  0  1  0  0  0  0  0999 V2000
    9.1073  -12.3226   20.6221 C   0  0  0  0  0  0  0  0  0  0  0  0
    8.4022  -12.7184   19.3657 C   0  0  1  0  0  0  0  0  0  0  0  0
    8.9701  -11.9286   18.3341 O   0  0  0  0  0  0  0  0  0  0  0  0
    8.5983  -14.1661   18.9648 C   0  0  2  0  0  0  0  0  0  0  0  0
    7.8336  -14.3683   17.7289 N   0  0  0  0  0  0  0  0  0  0  0  0
    8.0879  -15.1288   19.9619 C   0  0  0  0  0  0  0  0  0  0  0  0
    6.8923  -15.5727   19.8882 O   0  0  0  0  0  0  0  0  0  0  0  0
    8.0538  -19.5239   22.8879 N   0  0  0  0  0  0  0  0  0  0  0  0
    9.2302  -18.7378   22.9952 C   0  0  0  0  0  0  0  0  0  0  0  0
   10.0329  -18.9530   23.9309 O   0  0  0  0  0  0  0  0  0  0  0  0
    9.4998  -17.6873   22.0208 C   0  0  0  0  0  0  0  0  0  0  0  0
    8.4390  -16.6119   21.9596 C   0  0  2  0  0  0  0  0  0  0  0  0
    8.8966  -15.5917   21.0221 N   0  0  0  0  0  0  0  0  0  0  0  0
    8.2950  -15.9477   23.3049 C   0  0  0  0  0  0  0  0  0  0  0  0
    7.7676  -16.5161   24.2910 O   0  0  0  0  0  0  0  0  0  0  0  0
    5.8135  -11.5229   25.8263 C   0  0  0  0  0  0  0  0  0  0  0  0
    7.0680  -12.4353   26.1059 C   0  0  1  0  0  0  0  0  0  0  0  0
    6.6030  -13.4394   27.1519 C   0  0  0  0  0  0  0  0  0  0  0  0
    7.4201  -13.1274   24.8416 C   0  0  0  0  0  0  0  0  0  0  0  0
    8.6188  -13.9652   24.8467 C   0  0  2  0  0  0  0  0  0  0  0  0
    8.7600  -14.6243   23.5156 N   0  0  0  0  0  0  0  0  0  0  0  0
    8.8223  -14.9967   25.8323 C   0  0  0  0  0  0  0  0  0  0  0  0
    9.7380  -14.8051   26.8908 O   0  0  0  0  0  0  0  0  0  0  0  0
    8.2405  -16.0954   25.8418 O   0  0  0  0  0  0  0  0  0  0  0  0
  2  1  1  1
  2  3  1  0
  4  2  1  0
  4  5  1  6
  6  4  1  0
  6  7  2  0
  9 11  1  0
  9  8  1  0
 10  9  2  0
 12 11  1  1
 12 13  1  0
 12 14  1  0
 13  6  1  0
 14 15  2  0
 14 21  1  0
 17 16  1  6
 18 17  1  0
 19 17  1  0
 20 19  1  6
 21 20  1  0
 22 23  1  0
 22 20  1  0
 24 22  2  0
M  END
$$$$
