TNL.pdb
     RDKit          3D

 24 23  0  0  1  0  0  0  0  0999 V2000
    7.0158  -12.8455   18.0409 C   0  0  0  0  0  0  0  0  0  0  0  0
    7.0120  -13.9064   19.0930 C   0  0  1  0  0  0  0  0  0  0  0  0
    7.7819  -14.9765   18.5709 O   0  0  0  0  0  0  0  0  0  0  0  0
    7.6621  -13.4981   20.3990 C   0  0  2  0  0  0  0  0  0  0  0  0
    9.0342  -13.0894   20.0770 N   0  0  0  0  0  0  0  0  0  0  0  0
    7.7483  -14.5956   21.3836 C   0  0  0  0  0  0  0  0  0  0  0  0
    6.6903  -15.1120   21.8797 O   0  0  0  0  0  0  0  0  0  0  0  0
   10.7525  -18.0361   20.0539 N   0  0  0  0  0  0  0  0  0  0  0  0
    9.9858  -18.0346   21.2479 C   0  0  0  0  0  0  0  0  0  0  0  0
    9.0581  -18.8630   21.3864 O   0  0  0  0  0  0  0  0  0  0  0  0
   10.2788  -17.0736   22.3045 C   0  0  0  0  0  0  0  0  0  0  0  0
    9.0925  -16.2381   22.7286 C   0  0  2  0  0  0  0  0  0  0  0  0
    8.9921  -15.1116   21.8067 N   0  0  0  0  0  0  0  0  0  0  0  0
    9.3246  -15.6680   24.1044 C   0  0  0  0  0  0  0  0  0  0  0  0
    9.7933  -14.5201   24.2948 O   0  0  0  0  0  0  0  0  0  0  0  0
    6.3445  -12.8958   26.3288 C   0  0  0  0  0  0  0  0  0  0  0  0
    7.7689  -13.5532   26.1758 C   0  0  1  0  0  0  0  0  0  0  0  0
    8.6755  -12.7558   27.1035 C   0  0  0  0  0  0  0  0  0  0  0  0
    7.6723  -14.9628   26.6289 C   0  0  0  0  0  0  0  0  0  0  0  0
    8.8962  -15.7628   26.5984 C   0  0  2  0  0  0  0  0  0  0  0  0
    9.0158  -16.4222   25.2654 N   0  0  0  0  0  0  0  0  0  0  0  0
    9.1628  -16.7838   27.5800 C   0  0  0  0  0  0  0  0  0  0  0  0
    9.1655  -18.1476   27.2118 O   0  0  0  0  0  0  0  0  0  0  0  0
    9.4026  -16.5698   28.7809 O   0  0  0  0  0  0  0  0  0  0  0  0
  2  1  1  6
  2  3  1  0
  4  2  1  0
  4  5  1  6
  6  4  1  0
  6  7  2  0
  9 11  1  0
  9  8  1  0
 10  9  2  0
 12 11  1  6
 12 13  1  0
 12 14  1  0
 13  6  1  0
 14 15  2  0
 14 21  1  0
 17 16  1  1
 18 17  1  0
 19 17  1  0
 20 19  1  1
 21 20  1  0
 22 23  1  0
 22 20  1  0
 24 22  2  0
M  END
$$$$
