TNL.pdb
     RDKit          3D

 24 23  0  0  1  0  0  0  0  0999 V2000
    8.6109  -12.3991   20.2562 C   0  0  0  0  0  0  0  0  0  0  0  0
    8.1837  -13.1679   19.0485 C   0  0  1  0  0  0  0  0  0  0  0  0
    8.6624  -12.4376   17.9314 O   0  0  0  0  0  0  0  0  0  0  0  0
    8.7764  -14.5584   18.9470 C   0  0  2  0  0  0  0  0  0  0  0  0
    8.2979  -15.1291   17.6827 N   0  0  0  0  0  0  0  0  0  0  0  0
    8.3452  -15.4642   20.0310 C   0  0  0  0  0  0  0  0  0  0  0  0
    7.6596  -16.5108   19.7732 O   0  0  0  0  0  0  0  0  0  0  0  0
   10.2869  -19.1890   23.4969 N   0  0  0  0  0  0  0  0  0  0  0  0
    9.1293  -18.5434   22.9902 C   0  0  0  0  0  0  0  0  0  0  0  0
    7.9970  -18.9303   23.3566 O   0  0  0  0  0  0  0  0  0  0  0  0
    9.2609  -17.4374   22.0495 C   0  0  0  0  0  0  0  0  0  0  0  0
    8.4733  -16.2041   22.4289 C   0  0  2  0  0  0  0  0  0  0  0  0
    8.6746  -15.2101   21.3798 N   0  0  0  0  0  0  0  0  0  0  0  0
    9.0130  -15.6168   23.7079 C   0  0  0  0  0  0  0  0  0  0  0  0
   10.2128  -15.2784   23.8478 O   0  0  0  0  0  0  0  0  0  0  0  0
    6.6057  -13.1400   24.6400 C   0  0  0  0  0  0  0  0  0  0  0  0
    7.3711  -12.7294   25.9553 C   0  0  1  0  0  0  0  0  0  0  0  0
    6.3787  -11.8870   26.7451 C   0  0  0  0  0  0  0  0  0  0  0  0
    7.7043  -13.9710   26.6963 C   0  0  0  0  0  0  0  0  0  0  0  0
    8.7051  -14.8578   26.1040 C   0  0  2  0  0  0  0  0  0  0  0  0
    8.1681  -15.4186   24.8299 N   0  0  0  0  0  0  0  0  0  0  0  0
    9.2629  -15.9695   26.8319 C   0  0  0  0  0  0  0  0  0  0  0  0
   10.1597  -15.7480   27.9006 O   0  0  0  0  0  0  0  0  0  0  0  0
    9.0191  -17.1661   26.5983 O   0  0  0  0  0  0  0  0  0  0  0  0
  2  1  1  1
  2  3  1  0
  4  2  1  0
  4  5  1  6
  6  4  1  0
  6  7  2  0
  9 11  1  0
  9  8  1  0
 10  9  2  0
 12 11  1  6
 12 13  1  0
 12 14  1  0
 13  6  1  0
 14 15  2  0
 14 21  1  0
 17 16  1  6
 18 17  1  0
 19 17  1  0
 20 19  1  1
 21 20  1  0
 22 23  1  0
 22 20  1  0
 24 22  2  0
M  END
$$$$
