TNL.pdb
     RDKit          3D

 24 23  0  0  1  0  0  0  0  0999 V2000
    7.3869  -12.4271   19.2819 C   0  0  0  0  0  0  0  0  0  0  0  0
    8.1037  -13.6247   18.7487 C   0  0  1  0  0  0  0  0  0  0  0  0
    8.7413  -13.1990   17.5560 O   0  0  0  0  0  0  0  0  0  0  0  0
    9.1909  -14.1619   19.6567 C   0  0  2  0  0  0  0  0  0  0  0  0
    9.8919  -15.2070   18.9021 N   0  0  0  0  0  0  0  0  0  0  0  0
    8.6737  -14.7822   20.8934 C   0  0  0  0  0  0  0  0  0  0  0  0
    7.6352  -14.3156   21.4728 O   0  0  0  0  0  0  0  0  0  0  0  0
    9.8741  -19.2178   20.5420 N   0  0  0  0  0  0  0  0  0  0  0  0
    8.9195  -18.8343   21.5192 C   0  0  0  0  0  0  0  0  0  0  0  0
    7.7337  -19.2182   21.4073 O   0  0  0  0  0  0  0  0  0  0  0  0
    9.3198  -17.9986   22.6449 C   0  0  0  0  0  0  0  0  0  0  0  0
    8.7338  -16.6053   22.6215 C   0  0  2  0  0  0  0  0  0  0  0  0
    9.3011  -15.9056   21.4737 N   0  0  0  0  0  0  0  0  0  0  0  0
    9.1499  -15.8465   23.8556 C   0  0  0  0  0  0  0  0  0  0  0  0
   10.3239  -15.4470   24.0447 O   0  0  0  0  0  0  0  0  0  0  0  0
    5.7471  -12.2568   26.1415 C   0  0  0  0  0  0  0  0  0  0  0  0
    7.0178  -12.9575   25.5260 C   0  0  1  0  0  0  0  0  0  0  0  0
    8.0230  -11.8348   25.3076 C   0  0  0  0  0  0  0  0  0  0  0  0
    7.5319  -13.9285   26.5232 C   0  0  0  0  0  0  0  0  0  0  0  0
    8.6235  -14.8066   26.1037 C   0  0  2  0  0  0  0  0  0  0  0  0
    8.2109  -15.5466   24.8756 N   0  0  0  0  0  0  0  0  0  0  0  0
    9.1971  -15.7856   26.9922 C   0  0  0  0  0  0  0  0  0  0  0  0
    9.0361  -17.1657   26.7368 O   0  0  0  0  0  0  0  0  0  0  0  0
    9.8531  -15.5200   28.0143 O   0  0  0  0  0  0  0  0  0  0  0  0
  2  1  1  1
  2  3  1  0
  4  2  1  0
  4  5  1  6
  6  4  1  0
  6  7  2  0
  9 11  1  0
  9  8  1  0
 10  9  2  0
 12 11  1  1
 12 13  1  0
 12 14  1  0
 13  6  1  0
 14 15  2  0
 14 21  1  0
 17 16  1  1
 18 17  1  0
 19 17  1  0
 20 19  1  1
 21 20  1  0
 22 23  1  0
 22 20  1  0
 24 22  2  0
M  END
$$$$
