TNL.pdb
     RDKit          3D

 24 23  0  0  1  0  0  0  0  0999 V2000
    7.9360  -12.4913   17.6833 C   0  0  0  0  0  0  0  0  0  0  0  0
    7.6734  -13.5841   18.6677 C   0  0  1  0  0  0  0  0  0  0  0  0
    8.2259  -14.7607   18.1013 O   0  0  0  0  0  0  0  0  0  0  0  0
    8.3428  -13.3919   20.0130 C   0  0  2  0  0  0  0  0  0  0  0  0
    9.7894  -13.3898   19.7674 N   0  0  0  0  0  0  0  0  0  0  0  0
    8.0599  -14.4779   20.9733 C   0  0  0  0  0  0  0  0  0  0  0  0
    6.8620  -14.7316   21.3376 O   0  0  0  0  0  0  0  0  0  0  0  0
    8.5875  -19.6408   22.5941 N   0  0  0  0  0  0  0  0  0  0  0  0
    9.6089  -18.7007   22.8877 C   0  0  0  0  0  0  0  0  0  0  0  0
   10.3743  -18.9039   23.8568 O   0  0  0  0  0  0  0  0  0  0  0  0
    9.7637  -17.5073   22.0648 C   0  0  0  0  0  0  0  0  0  0  0  0
    8.8260  -16.3784   22.4277 C   0  0  2  0  0  0  0  0  0  0  0  0
    9.0938  -15.2703   21.5168 N   0  0  0  0  0  0  0  0  0  0  0  0
    9.1189  -15.8886   23.8227 C   0  0  0  0  0  0  0  0  0  0  0  0
   10.2250  -15.3976   24.1529 O   0  0  0  0  0  0  0  0  0  0  0  0
    5.8076  -12.6599   26.4072 C   0  0  0  0  0  0  0  0  0  0  0  0
    7.1764  -13.2977   25.9553 C   0  0  1  0  0  0  0  0  0  0  0  0
    8.2440  -12.3179   26.4227 C   0  0  0  0  0  0  0  0  0  0  0  0
    7.3254  -14.5996   26.6514 C   0  0  0  0  0  0  0  0  0  0  0  0
    8.4187  -15.4698   26.2199 C   0  0  2  0  0  0  0  0  0  0  0  0
    8.1346  -15.9644   24.8412 N   0  0  0  0  0  0  0  0  0  0  0  0
    8.8234  -16.6208   26.9870 C   0  0  0  0  0  0  0  0  0  0  0  0
    9.6944  -16.4761   28.0898 O   0  0  0  0  0  0  0  0  0  0  0  0
    8.4620  -17.7886   26.7607 O   0  0  0  0  0  0  0  0  0  0  0  0
  2  1  1  6
  2  3  1  0
  4  2  1  0
  4  5  1  6
  6  4  1  0
  6  7  2  0
  9 11  1  0
  9  8  1  0
 10  9  2  0
 12 11  1  6
 12 13  1  0
 12 14  1  0
 13  6  1  0
 14 15  2  0
 14 21  1  0
 17 16  1  1
 18 17  1  0
 19 17  1  0
 20 19  1  1
 21 20  1  0
 22 23  1  0
 22 20  1  0
 24 22  2  0
M  END
$$$$
