TNL.pdb
     RDKit          3D

 24 23  0  0  1  0  0  0  0  0999 V2000
    8.6651  -11.7696   18.9659 C   0  0  0  0  0  0  0  0  0  0  0  0
    8.4715  -12.8937   19.9309 C   0  0  1  0  0  0  0  0  0  0  0  0
    7.0711  -13.0069   20.1223 O   0  0  0  0  0  0  0  0  0  0  0  0
    8.9537  -14.2402   19.4317 C   0  0  2  0  0  0  0  0  0  0  0  0
    8.1410  -14.5691   18.2550 N   0  0  0  0  0  0  0  0  0  0  0  0
    8.7741  -15.3313   20.4108 C   0  0  0  0  0  0  0  0  0  0  0  0
    7.8258  -16.1772   20.2789 O   0  0  0  0  0  0  0  0  0  0  0  0
    9.8188  -19.8673   22.9969 N   0  0  0  0  0  0  0  0  0  0  0  0
   10.4933  -18.6518   23.2814 C   0  0  0  0  0  0  0  0  0  0  0  0
   11.0761  -18.5121   24.3801 O   0  0  0  0  0  0  0  0  0  0  0  0
   10.5060  -17.5746   22.2990 C   0  0  0  0  0  0  0  0  0  0  0  0
    9.4438  -16.5219   22.5198 C   0  0  2  0  0  0  0  0  0  0  0  0
    9.6380  -15.4798   21.5171 N   0  0  0  0  0  0  0  0  0  0  0  0
    9.6236  -15.8786   23.8710 C   0  0  0  0  0  0  0  0  0  0  0  0
   10.6765  -15.2851   24.2070 O   0  0  0  0  0  0  0  0  0  0  0  0
    5.7191  -12.9203   26.1038 C   0  0  0  0  0  0  0  0  0  0  0  0
    7.1155  -13.4555   25.6056 C   0  0  1  0  0  0  0  0  0  0  0  0
    8.0610  -12.2680   25.7250 C   0  0  0  0  0  0  0  0  0  0  0  0
    7.5367  -14.5488   26.5161 C   0  0  0  0  0  0  0  0  0  0  0  0
    8.7597  -15.2737   26.1732 C   0  0  2  0  0  0  0  0  0  0  0  0
    8.5875  -15.9187   24.8388 N   0  0  0  0  0  0  0  0  0  0  0  0
    9.3157  -16.2814   27.0406 C   0  0  0  0  0  0  0  0  0  0  0  0
    8.8874  -17.6242   26.9449 O   0  0  0  0  0  0  0  0  0  0  0  0
   10.1798  -16.0729   27.9098 O   0  0  0  0  0  0  0  0  0  0  0  0
  2  1  1  6
  2  3  1  0
  4  2  1  0
  4  5  1  6
  6  4  1  0
  6  7  2  0
  9 11  1  0
  9  8  1  0
 10  9  2  0
 12 11  1  6
 12 13  1  0
 12 14  1  0
 13  6  1  0
 14 15  2  0
 14 21  1  0
 17 16  1  1
 18 17  1  0
 19 17  1  0
 20 19  1  1
 21 20  1  0
 22 23  1  0
 22 20  1  0
 24 22  2  0
M  END
$$$$
