TNL.pdb
     RDKit          3D

 24 23  0  0  1  0  0  0  0  0999 V2000
    8.5525  -12.4047   20.3269 C   0  0  0  0  0  0  0  0  0  0  0  0
    8.1481  -13.2107   19.1357 C   0  0  1  0  0  0  0  0  0  0  0  0
    8.7673  -12.5944   18.0189 O   0  0  0  0  0  0  0  0  0  0  0  0
    8.6237  -14.6488   19.1595 C   0  0  2  0  0  0  0  0  0  0  0  0
    8.1165  -15.2807   17.9361 N   0  0  0  0  0  0  0  0  0  0  0  0
    8.1035  -15.4235   20.3044 C   0  0  0  0  0  0  0  0  0  0  0  0
    6.9983  -16.0580   20.2149 O   0  0  0  0  0  0  0  0  0  0  0  0
   10.9344  -16.6001   21.9574 N   0  0  0  0  0  0  0  0  0  0  0  0
   10.1691  -17.7525   22.2732 C   0  0  0  0  0  0  0  0  0  0  0  0
   10.7101  -18.8805   22.2400 O   0  0  0  0  0  0  0  0  0  0  0  0
    8.7625  -17.6208   22.6334 C   0  0  0  0  0  0  0  0  0  0  0  0
    8.2685  -16.1932   22.6906 C   0  0  2  0  0  0  0  0  0  0  0  0
    8.8038  -15.4927   21.5279 N   0  0  0  0  0  0  0  0  0  0  0  0
    8.8135  -15.5041   23.9153 C   0  0  0  0  0  0  0  0  0  0  0  0
    9.9807  -15.0486   23.9766 O   0  0  0  0  0  0  0  0  0  0  0  0
    5.5909  -12.1908   26.5310 C   0  0  0  0  0  0  0  0  0  0  0  0
    6.8123  -12.8692   25.8013 C   0  0  1  0  0  0  0  0  0  0  0  0
    7.7035  -11.7149   25.3633 C   0  0  0  0  0  0  0  0  0  0  0  0
    7.5167  -13.7239   26.7886 C   0  0  0  0  0  0  0  0  0  0  0  0
    8.5407  -14.6346   26.2779 C   0  0  2  0  0  0  0  0  0  0  0  0
    8.0117  -15.3388   25.0736 N   0  0  0  0  0  0  0  0  0  0  0  0
    9.1403  -15.6484   27.1084 C   0  0  0  0  0  0  0  0  0  0  0  0
    9.9435  -15.2866   28.2127 O   0  0  0  0  0  0  0  0  0  0  0  0
    9.0129  -16.8733   26.9384 O   0  0  0  0  0  0  0  0  0  0  0  0
  2  1  1  1
  2  3  1  0
  4  2  1  0
  4  5  1  6
  6  4  1  0
  6  7  2  0
  9 11  1  0
  9  8  1  0
 10  9  2  0
 12 11  1  6
 12 13  1  0
 12 14  1  0
 13  6  1  0
 14 15  2  0
 14 21  1  0
 17 16  1  1
 18 17  1  0
 19 17  1  0
 20 19  1  1
 21 20  1  0
 22 23  1  0
 22 20  1  0
 24 22  2  0
M  END
$$$$
