NMC.pdb
     RDKit          3D

 23 22  0  0  1  0  0  0  0  0999 V2000
   19.2271  -15.0722  -20.5698 N   0  0  0  0  0  0  0  0  0  0  0  0
   20.5710  -14.7770  -20.2517 C   0  0  0  0  0  0  0  0  0  0  0  0
   21.4528  -15.2644  -21.0365 O   0  0  0  0  0  0  0  0  0  0  0  0
   20.9679  -13.9520  -19.0815 C   0  0  0  0  0  0  0  0  0  0  0  0
   21.7088  -12.7227  -19.5364 C   0  0  2  0  0  0  0  0  0  0  0  0
   22.9821  -13.1394  -20.0935 N   0  0  0  0  0  0  0  0  0  0  0  0
   21.9437  -11.7504  -18.4642 C   0  0  0  0  0  0  0  0  0  0  0  0
   20.9608  -11.2421  -17.8202 O   0  0  0  0  0  0  0  0  0  0  0  0
   27.4434  -11.6733  -15.8418 C   0  0  0  0  0  0  0  0  0  0  0  0
   27.0747  -10.0560  -15.1443 S   0  0  0  0  0  0  0  0  0  0  0  0
   25.3485   -9.5606  -15.5155 C   0  0  0  0  0  0  0  0  0  0  0  0
   24.8403  -10.5203  -16.5289 C   0  0  0  0  0  0  0  0  0  0  0  0
   23.4343  -10.3092  -16.9939 C   0  0  2  0  0  0  0  0  0  0  0  0
   23.2202  -11.2933  -18.0481 N   0  0  0  0  0  0  0  0  0  0  0  0
   23.1048   -8.9483  -17.4206 C   0  0  0  0  0  0  0  0  0  0  0  0
   23.6911   -8.4906  -18.4333 O   0  0  0  0  0  0  0  0  0  0  0  0
   22.1578   -8.1170  -16.7515 N   0  0  0  0  0  0  0  0  0  0  0  0
   22.0272   -6.7522  -17.1864 C   0  0  1  0  0  0  0  0  0  0  0  0
   20.8044   -6.6301  -18.0675 C   0  0  0  0  0  0  0  0  0  0  0  0
   19.3925   -7.2733  -17.0920 S   0  0  0  0  0  0  0  0  0  0  0  0
   21.8084   -5.8242  -16.0297 C   0  0  0  0  0  0  0  0  0  0  0  0
   21.8221   -4.4642  -16.2943 O   0  0  0  0  0  0  0  0  0  0  0  0
   21.6187   -6.2050  -14.8661 O   0  0  0  0  0  0  0  0  0  0  0  0
  1  2  1  0
  2  3  2  0
  4  5  1  0
  4  2  1  0
  5  6  1  1
  7  5  1  0
  8  7  2  0
  9 10  1  0
 11 10  1  0
 11 12  1  0
 13 12  1  6
 13 15  1  0
 13 14  1  0
 14  7  1  0
 15 17  1  0
 16 15  2  0
 17 18  1  0
 18 21  1  0
 18 19  1  6
 20 19  1  0
 21 23  2  0
 21 22  1  0
M  END
$$$$
