NMC.pdb
     RDKit          3D

 23 22  0  0  1  0  0  0  0  0999 V2000
   17.9251  -13.6907  -15.8354 N   0  0  0  0  0  0  0  0  0  0  0  0
   18.9250  -12.8982  -15.2299 C   0  0  0  0  0  0  0  0  0  0  0  0
   20.1103  -13.3728  -15.2590 O   0  0  0  0  0  0  0  0  0  0  0  0
   18.6469  -11.5869  -14.5892 C   0  0  0  0  0  0  0  0  0  0  0  0
   17.1650  -11.3215  -14.5645 C   0  0  2  0  0  0  0  0  0  0  0  0
   16.7033  -11.1932  -15.9340 N   0  0  0  0  0  0  0  0  0  0  0  0
   16.7985  -10.1162  -13.8144 C   0  0  0  0  0  0  0  0  0  0  0  0
   16.8640   -8.9622  -14.3652 O   0  0  0  0  0  0  0  0  0  0  0  0
   13.0579  -10.7453   -8.7845 C   0  0  0  0  0  0  0  0  0  0  0  0
   12.7263   -9.0325   -9.2250 S   0  0  0  0  0  0  0  0  0  0  0  0
   14.1810   -8.2732  -10.0437 C   0  0  0  0  0  0  0  0  0  0  0  0
   14.7385   -9.3025  -10.9580 C   0  0  0  0  0  0  0  0  0  0  0  0
   15.9388   -8.8998  -11.7547 C   0  0  2  0  0  0  0  0  0  0  0  0
   16.3552  -10.1018  -12.4673 N   0  0  0  0  0  0  0  0  0  0  0  0
   17.0310   -8.2917  -10.9931 C   0  0  0  0  0  0  0  0  0  0  0  0
   17.7410   -9.0436  -10.2793 O   0  0  0  0  0  0  0  0  0  0  0  0
   17.3316   -6.8973  -11.0173 N   0  0  0  0  0  0  0  0  0  0  0  0
   18.3981   -6.4189  -10.1791 C   0  0  1  0  0  0  0  0  0  0  0  0
   19.6295   -6.1944  -11.0274 C   0  0  0  0  0  0  0  0  0  0  0  0
   20.8557   -5.3549   -9.9549 S   0  0  0  0  0  0  0  0  0  0  0  0
   18.0626   -5.0941   -9.5632 C   0  0  0  0  0  0  0  0  0  0  0  0
   18.6558   -4.7891   -8.3488 O   0  0  0  0  0  0  0  0  0  0  0  0
   17.2933   -4.2697  -10.0765 O   0  0  0  0  0  0  0  0  0  0  0  0
  1  2  1  0
  2  3  2  0
  4  5  1  0
  4  2  1  0
  5  6  1  6
  7  5  1  0
  8  7  2  0
  9 10  1  0
 11 10  1  0
 11 12  1  0
 13 12  1  1
 13 15  1  0
 13 14  1  0
 14  7  1  0
 15 17  1  0
 16 15  2  0
 17 18  1  0
 18 21  1  0
 18 19  1  6
 20 19  1  0
 21 23  2  0
 21 22  1  0
M  END
$$$$
