NMC.pdb
     RDKit          3D

 23 22  0  0  1  0  0  0  0  0999 V2000
   28.2892  -19.7977  -18.2257 N   0  0  0  0  0  0  0  0  0  0  0  0
   27.3324  -20.8349  -18.2823 C   0  0  0  0  0  0  0  0  0  0  0  0
   27.3692  -21.5751  -19.3225 O   0  0  0  0  0  0  0  0  0  0  0  0
   26.3300  -21.0767  -17.2126 C   0  0  0  0  0  0  0  0  0  0  0  0
   26.9771  -20.9716  -15.8572 C   0  0  2  0  0  0  0  0  0  0  0  0
   28.0216  -21.9751  -15.7729 N   0  0  0  0  0  0  0  0  0  0  0  0
   26.0391  -21.1534  -14.7449 C   0  0  0  0  0  0  0  0  0  0  0  0
   24.8631  -21.6141  -14.9545 O   0  0  0  0  0  0  0  0  0  0  0  0
   25.1839  -21.1189   -7.0825 C   0  0  0  0  0  0  0  0  0  0  0  0
   26.1034  -21.0426   -8.6273 S   0  0  0  0  0  0  0  0  0  0  0  0
   25.1540  -20.1406   -9.9110 C   0  0  0  0  0  0  0  0  0  0  0  0
   25.9603  -20.2025  -11.1569 C   0  0  0  0  0  0  0  0  0  0  0  0
   25.3386  -20.9204  -12.3127 C   0  0  2  0  0  0  0  0  0  0  0  0
   26.3212  -20.8534  -13.3878 N   0  0  0  0  0  0  0  0  0  0  0  0
   24.0204  -20.4361  -12.7255 C   0  0  0  0  0  0  0  0  0  0  0  0
   23.9668  -19.3763  -13.3986 O   0  0  0  0  0  0  0  0  0  0  0  0
   22.7983  -21.0995  -12.4065 N   0  0  0  0  0  0  0  0  0  0  0  0
   21.5647  -20.4785  -12.8084 C   0  0  1  0  0  0  0  0  0  0  0  0
   21.3519  -20.7153  -14.2865 C   0  0  0  0  0  0  0  0  0  0  0  0
   21.7176  -22.4855  -14.5890 S   0  0  0  0  0  0  0  0  0  0  0  0
   20.3876  -21.0889  -12.1092 C   0  0  0  0  0  0  0  0  0  0  0  0
   20.6406  -22.1250  -11.2249 O   0  0  0  0  0  0  0  0  0  0  0  0
   19.2170  -20.7200  -12.2789 O   0  0  0  0  0  0  0  0  0  0  0  0
  1  2  1  0
  2  3  2  0
  4  5  1  0
  4  2  1  0
  5  6  1  6
  7  5  1  0
  8  7  2  0
  9 10  1  0
 11 10  1  0
 11 12  1  0
 13 12  1  1
 13 15  1  0
 13 14  1  0
 14  7  1  0
 15 17  1  0
 16 15  2  0
 17 18  1  0
 18 21  1  0
 18 19  1  6
 20 19  1  0
 21 23  2  0
 21 22  1  0
M  END
$$$$
