NMC.pdb
     RDKit          3D

 23 22  0  0  1  0  0  0  0  0999 V2000
   29.3903  -21.8802  -17.9435 N   0  0  0  0  0  0  0  0  0  0  0  0
   28.3741  -22.8546  -18.0553 C   0  0  0  0  0  0  0  0  0  0  0  0
   28.4489  -23.6286  -19.0683 O   0  0  0  0  0  0  0  0  0  0  0  0
   27.2708  -22.9963  -17.0703 C   0  0  0  0  0  0  0  0  0  0  0  0
   27.3832  -21.9387  -16.0045 C   0  0  2  0  0  0  0  0  0  0  0  0
   28.6556  -22.1084  -15.3281 N   0  0  0  0  0  0  0  0  0  0  0  0
   26.2996  -21.9845  -15.0178 C   0  0  0  0  0  0  0  0  0  0  0  0
   25.2962  -22.7610  -15.1891 O   0  0  0  0  0  0  0  0  0  0  0  0
   26.4569  -21.2020   -8.0483 C   0  0  0  0  0  0  0  0  0  0  0  0
   25.7672  -19.8775   -9.0522 S   0  0  0  0  0  0  0  0  0  0  0  0
   24.7954  -20.5547  -10.4522 C   0  0  0  0  0  0  0  0  0  0  0  0
   25.7270  -20.6581  -11.6045 C   0  0  0  0  0  0  0  0  0  0  0  0
   25.1793  -21.2922  -12.8436 C   0  0  2  0  0  0  0  0  0  0  0  0
   26.2509  -21.2123  -13.8291 N   0  0  0  0  0  0  0  0  0  0  0  0
   23.9192  -20.7350  -13.3378 C   0  0  0  0  0  0  0  0  0  0  0  0
   23.9187  -19.5435  -13.7370 O   0  0  0  0  0  0  0  0  0  0  0  0
   22.6966  -21.4684  -13.3904 N   0  0  0  0  0  0  0  0  0  0  0  0
   21.5143  -20.7843  -13.8410 C   0  0  1  0  0  0  0  0  0  0  0  0
   20.8064  -21.6440  -14.8637 C   0  0  0  0  0  0  0  0  0  0  0  0
   21.9607  -21.8331  -16.2746 S   0  0  0  0  0  0  0  0  0  0  0  0
   20.5405  -20.5720  -12.7213 C   0  0  0  0  0  0  0  0  0  0  0  0
   19.3989  -19.8388  -13.0021 O   0  0  0  0  0  0  0  0  0  0  0  0
   20.7014  -21.0119  -11.5743 O   0  0  0  0  0  0  0  0  0  0  0  0
  1  2  1  0
  2  3  2  0
  4  5  1  0
  4  2  1  0
  5  6  1  1
  7  5  1  0
  8  7  2  0
  9 10  1  0
 11 10  1  0
 11 12  1  0
 13 12  1  1
 13 15  1  0
 13 14  1  0
 14  7  1  0
 15 17  1  0
 16 15  2  0
 17 18  1  0
 18 21  1  0
 18 19  1  6
 20 19  1  0
 21 23  2  0
 21 22  1  0
M  END
$$$$
