NMC.pdb
     RDKit          3D

 23 22  0  0  1  0  0  0  0  0999 V2000
   14.5977  -13.0029  -16.7797 N   0  0  0  0  0  0  0  0  0  0  0  0
   14.9847  -11.6949  -17.1455 C   0  0  0  0  0  0  0  0  0  0  0  0
   14.4494  -11.2285  -18.2071 O   0  0  0  0  0  0  0  0  0  0  0  0
   15.9538  -10.8844  -16.3637 C   0  0  0  0  0  0  0  0  0  0  0  0
   16.8086  -10.0580  -17.2876 C   0  0  2  0  0  0  0  0  0  0  0  0
   17.6005  -10.9601  -18.1026 N   0  0  0  0  0  0  0  0  0  0  0  0
   17.7003   -9.1293  -16.5859 C   0  0  0  0  0  0  0  0  0  0  0  0
   17.2276   -8.2715  -15.7612 O   0  0  0  0  0  0  0  0  0  0  0  0
   23.4546  -10.3931  -14.1055 C   0  0  0  0  0  0  0  0  0  0  0  0
   23.8553   -9.0348  -15.2156 S   0  0  0  0  0  0  0  0  0  0  0  0
   22.4128   -7.9251  -15.4403 C   0  0  0  0  0  0  0  0  0  0  0  0
   21.3077   -8.7670  -15.9659 C   0  0  0  0  0  0  0  0  0  0  0  0
   19.9732   -8.1034  -16.0939 C   0  0  2  0  0  0  0  0  0  0  0  0
   19.1096   -9.0851  -16.7389 N   0  0  0  0  0  0  0  0  0  0  0  0
   19.9701   -6.8127  -16.7844 C   0  0  0  0  0  0  0  0  0  0  0  0
   20.3313   -6.7879  -17.9877 O   0  0  0  0  0  0  0  0  0  0  0  0
   19.5807   -5.5866  -16.1678 N   0  0  0  0  0  0  0  0  0  0  0  0
   19.7141   -4.3729  -16.9281 C   0  0  1  0  0  0  0  0  0  0  0  0
   18.4476   -3.5594  -16.7850 C   0  0  0  0  0  0  0  0  0  0  0  0
   17.1216   -4.5071  -17.6230 S   0  0  0  0  0  0  0  0  0  0  0  0
   20.8276   -3.5157  -16.4063 C   0  0  0  0  0  0  0  0  0  0  0  0
   21.1139   -2.3523  -17.1021 O   0  0  0  0  0  0  0  0  0  0  0  0
   21.4955   -3.7899  -15.3994 O   0  0  0  0  0  0  0  0  0  0  0  0
  1  2  1  0
  2  3  2  0
  4  5  1  0
  4  2  1  0
  5  6  1  1
  7  5  1  0
  8  7  2  0
  9 10  1  0
 11 10  1  0
 11 12  1  0
 13 12  1  6
 13 15  1  0
 13 14  1  0
 14  7  1  0
 15 17  1  0
 16 15  2  0
 17 18  1  0
 18 21  1  0
 18 19  1  1
 20 19  1  0
 21 23  2  0
 21 22  1  0
M  END
$$$$
