NMC.pdb
     RDKit          3D

 23 22  0  0  1  0  0  0  0  0999 V2000
   19.2128  -11.3683  -21.0767 N   0  0  0  0  0  0  0  0  0  0  0  0
   18.7531  -11.8804  -19.8434 C   0  0  0  0  0  0  0  0  0  0  0  0
   18.1435  -13.0015  -19.8945 O   0  0  0  0  0  0  0  0  0  0  0  0
   18.9509  -11.1811  -18.5475 C   0  0  0  0  0  0  0  0  0  0  0  0
   19.6441   -9.8625  -18.7661 C   0  0  2  0  0  0  0  0  0  0  0  0
   20.5881  -10.0204  -19.8566 N   0  0  0  0  0  0  0  0  0  0  0  0
   20.3515   -9.3693  -17.5802 C   0  0  0  0  0  0  0  0  0  0  0  0
   19.7426   -9.2567  -16.4595 O   0  0  0  0  0  0  0  0  0  0  0  0
   23.4860  -12.5178  -14.0534 C   0  0  0  0  0  0  0  0  0  0  0  0
   23.2758  -10.7892  -14.5070 S   0  0  0  0  0  0  0  0  0  0  0  0
   23.9262  -10.4702  -16.1917 C   0  0  0  0  0  0  0  0  0  0  0  0
   23.7846   -9.0113  -16.4319 C   0  0  0  0  0  0  0  0  0  0  0  0
   22.3946   -8.4622  -16.3703 C   0  0  2  0  0  0  0  0  0  0  0  0
   21.7161   -8.9843  -17.5505 N   0  0  0  0  0  0  0  0  0  0  0  0
   22.2919   -7.0060  -16.2615 C   0  0  0  0  0  0  0  0  0  0  0  0
   22.7214   -6.3125  -17.2173 O   0  0  0  0  0  0  0  0  0  0  0  0
   21.7328   -6.3345  -15.1338 N   0  0  0  0  0  0  0  0  0  0  0  0
   21.7818   -4.8972  -15.1076 C   0  0  1  0  0  0  0  0  0  0  0  0
   20.4006   -4.3513  -15.3911 C   0  0  0  0  0  0  0  0  0  0  0  0
   19.2523   -5.2260  -14.2620 S   0  0  0  0  0  0  0  0  0  0  0  0
   22.1689   -4.3840  -13.7534 C   0  0  0  0  0  0  0  0  0  0  0  0
   22.3127   -3.0134  -13.6102 O   0  0  0  0  0  0  0  0  0  0  0  0
   22.3641   -5.1115  -12.7698 O   0  0  0  0  0  0  0  0  0  0  0  0
  1  2  1  0
  2  3  2  0
  4  5  1  0
  4  2  1  0
  5  6  1  6
  7  5  1  0
  8  7  2  0
  9 10  1  0
 11 10  1  0
 11 12  1  0
 13 12  1  6
 13 15  1  0
 13 14  1  0
 14  7  1  0
 15 17  1  0
 16 15  2  0
 17 18  1  0
 18 21  1  0
 18 19  1  1
 20 19  1  0
 21 23  2  0
 21 22  1  0
M  END
$$$$
