NMC.pdb
     RDKit          3D

 23 22  0  0  1  0  0  0  0  0999 V2000
   15.2046  -29.2388  -11.3924 N   0  0  0  0  0  0  0  0  0  0  0  0
   15.8477  -30.3552  -10.8139 C   0  0  0  0  0  0  0  0  0  0  0  0
   15.6608  -31.4749  -11.3990 O   0  0  0  0  0  0  0  0  0  0  0  0
   16.6972  -30.2653   -9.5982 C   0  0  0  0  0  0  0  0  0  0  0  0
   16.7644  -28.8418   -9.1123 C   0  0  2  0  0  0  0  0  0  0  0  0
   17.9289  -28.2128   -9.7069 N   0  0  0  0  0  0  0  0  0  0  0  0
   16.8423  -28.7246   -7.6527 C   0  0  0  0  0  0  0  0  0  0  0  0
   17.4507  -29.6132   -6.9603 O   0  0  0  0  0  0  0  0  0  0  0  0
   18.9587  -26.9423   -1.3879 C   0  0  0  0  0  0  0  0  0  0  0  0
   18.7495  -27.2713   -3.1446 S   0  0  0  0  0  0  0  0  0  0  0  0
   17.7928  -25.9316   -3.9526 C   0  0  0  0  0  0  0  0  0  0  0  0
   17.4958  -26.3950   -5.3322 C   0  0  0  0  0  0  0  0  0  0  0  0
   16.4854  -27.4906   -5.4594 C   0  0  2  0  0  0  0  0  0  0  0  0
   16.2803  -27.6677   -6.8920 N   0  0  0  0  0  0  0  0  0  0  0  0
   15.2310  -27.2841   -4.7337 C   0  0  0  0  0  0  0  0  0  0  0  0
   14.5169  -26.3029   -5.0597 O   0  0  0  0  0  0  0  0  0  0  0  0
   14.7772  -28.1332   -3.6808 N   0  0  0  0  0  0  0  0  0  0  0  0
   13.5326  -27.8088   -3.0369 C   0  0  1  0  0  0  0  0  0  0  0  0
   13.0775  -28.9951   -2.2172 C   0  0  0  0  0  0  0  0  0  0  0  0
   14.5871  -29.7341   -1.4866 S   0  0  0  0  0  0  0  0  0  0  0  0
   13.6901  -26.6680   -2.0773 C   0  0  0  0  0  0  0  0  0  0  0  0
   14.9625  -26.1440   -1.9160 O   0  0  0  0  0  0  0  0  0  0  0  0
   12.7547  -26.1766   -1.4303 O   0  0  0  0  0  0  0  0  0  0  0  0
  1  2  1  0
  2  3  2  0
  4  5  1  0
  4  2  1  0
  5  6  1  6
  7  5  1  0
  8  7  2  0
  9 10  1  0
 11 10  1  0
 11 12  1  0
 13 12  1  6
 13 15  1  0
 13 14  1  0
 14  7  1  0
 15 17  1  0
 16 15  2  0
 17 18  1  0
 18 21  1  0
 18 19  1  1
 20 19  1  0
 21 23  2  0
 21 22  1  0
M  END
$$$$
