NMC.pdb
     RDKit          3D

 23 22  0  0  1  0  0  0  0  0999 V2000
   20.9282  -25.0572  -15.0084 N   0  0  0  0  0  0  0  0  0  0  0  0
   20.4113  -23.7576  -15.2045 C   0  0  0  0  0  0  0  0  0  0  0  0
   19.1584  -23.6826  -15.4405 O   0  0  0  0  0  0  0  0  0  0  0  0
   21.2484  -22.5315  -15.1462 C   0  0  0  0  0  0  0  0  0  0  0  0
   21.2513  -21.9672  -13.7503 C   0  0  2  0  0  0  0  0  0  0  0  0
   20.0944  -21.1035  -13.6067 N   0  0  0  0  0  0  0  0  0  0  0  0
   22.4647  -21.2099  -13.4275 C   0  0  0  0  0  0  0  0  0  0  0  0
   22.4833  -19.9342  -13.5351 O   0  0  0  0  0  0  0  0  0  0  0  0
   25.6101  -20.4884   -8.5934 C   0  0  0  0  0  0  0  0  0  0  0  0
   26.4214  -19.8249  -10.0561 S   0  0  0  0  0  0  0  0  0  0  0  0
   26.9097  -21.1710  -11.2018 C   0  0  0  0  0  0  0  0  0  0  0  0
   25.6507  -21.7866  -11.6940 C   0  0  0  0  0  0  0  0  0  0  0  0
   24.9047  -21.0214  -12.7407 C   0  0  2  0  0  0  0  0  0  0  0  0
   23.6847  -21.7816  -12.9844 N   0  0  0  0  0  0  0  0  0  0  0  0
   25.6467  -20.7406  -13.9708 C   0  0  0  0  0  0  0  0  0  0  0  0
   25.9609  -21.7118  -14.7036 O   0  0  0  0  0  0  0  0  0  0  0  0
   26.0308  -19.4293  -14.3811 N   0  0  0  0  0  0  0  0  0  0  0  0
   26.7277  -19.2868  -15.6312 C   0  0  1  0  0  0  0  0  0  0  0  0
   26.2769  -18.0103  -16.3047 C   0  0  0  0  0  0  0  0  0  0  0  0
   24.6435  -18.3659  -17.0560 S   0  0  0  0  0  0  0  0  0  0  0  0
   28.2068  -19.1559  -15.4253 C   0  0  0  0  0  0  0  0  0  0  0  0
   29.0285  -19.4826  -16.4920 O   0  0  0  0  0  0  0  0  0  0  0  0
   28.7249  -18.7762  -14.3659 O   0  0  0  0  0  0  0  0  0  0  0  0
  1  2  1  0
  2  3  2  0
  4  5  1  0
  4  2  1  0
  5  6  1  6
  7  5  1  0
  8  7  2  0
  9 10  1  0
 11 10  1  0
 11 12  1  0
 13 12  1  1
 13 15  1  0
 13 14  1  0
 14  7  1  0
 15 17  1  0
 16 15  2  0
 17 18  1  0
 18 21  1  0
 18 19  1  1
 20 19  1  0
 21 23  2  0
 21 22  1  0
M  END
$$$$
