NMC.pdb
     RDKit          3D

 23 22  0  0  1  0  0  0  0  0999 V2000
   28.2095  -22.5107  -18.5155 N   0  0  0  0  0  0  0  0  0  0  0  0
   28.7806  -22.0339  -17.3151 C   0  0  0  0  0  0  0  0  0  0  0  0
   29.8273  -21.3128  -17.4403 O   0  0  0  0  0  0  0  0  0  0  0  0
   28.2215  -22.3353  -15.9720 C   0  0  0  0  0  0  0  0  0  0  0  0
   27.1341  -21.3528  -15.6265 C   0  0  2  0  0  0  0  0  0  0  0  0
   27.7403  -20.0461  -15.4527 N   0  0  0  0  0  0  0  0  0  0  0  0
   26.3889  -21.7067  -14.4143 C   0  0  0  0  0  0  0  0  0  0  0  0
   25.6777  -22.7706  -14.3752 O   0  0  0  0  0  0  0  0  0  0  0  0
   27.5161  -21.1817   -8.5226 C   0  0  0  0  0  0  0  0  0  0  0  0
   26.0853  -20.1052   -8.3442 S   0  0  0  0  0  0  0  0  0  0  0  0
   25.0082  -20.1964   -9.8256 C   0  0  0  0  0  0  0  0  0  0  0  0
   25.9103  -20.3200  -10.9991 C   0  0  0  0  0  0  0  0  0  0  0  0
   25.3750  -21.0849  -12.1679 C   0  0  2  0  0  0  0  0  0  0  0  0
   26.3779  -20.9463  -13.2172 N   0  0  0  0  0  0  0  0  0  0  0  0
   24.0355  -20.7018  -12.6170 C   0  0  0  0  0  0  0  0  0  0  0  0
   23.8531  -19.5118  -12.9771 O   0  0  0  0  0  0  0  0  0  0  0  0
   22.9305  -21.6028  -12.6679 N   0  0  0  0  0  0  0  0  0  0  0  0
   21.6973  -21.1316  -13.2390 C   0  0  1  0  0  0  0  0  0  0  0  0
   21.0691  -22.2464  -14.0446 C   0  0  0  0  0  0  0  0  0  0  0  0
   20.2267  -23.3462  -12.8448 S   0  0  0  0  0  0  0  0  0  0  0  0
   20.7035  -20.7658  -12.1780 C   0  0  0  0  0  0  0  0  0  0  0  0
   21.0441  -21.0451  -10.8644 O   0  0  0  0  0  0  0  0  0  0  0  0
   19.6090  -20.2342  -12.4118 O   0  0  0  0  0  0  0  0  0  0  0  0
  1  2  1  0
  2  3  2  0
  4  5  1  0
  4  2  1  0
  5  6  1  1
  7  5  1  0
  8  7  2  0
  9 10  1  0
 11 10  1  0
 11 12  1  0
 13 12  1  1
 13 15  1  0
 13 14  1  0
 14  7  1  0
 15 17  1  0
 16 15  2  0
 17 18  1  0
 18 21  1  0
 18 19  1  6
 20 19  1  0
 21 23  2  0
 21 22  1  0
M  END
$$$$
