NMC.pdb
     RDKit          3D

 23 22  0  0  1  0  0  0  0  0999 V2000
   27.9745  -16.9577  -17.8979 N   0  0  0  0  0  0  0  0  0  0  0  0
   27.9058  -17.2761  -16.5237 C   0  0  0  0  0  0  0  0  0  0  0  0
   28.7632  -16.7012  -15.7717 O   0  0  0  0  0  0  0  0  0  0  0  0
   26.9080  -18.2192  -15.9558 C   0  0  0  0  0  0  0  0  0  0  0  0
   27.6036  -19.3538  -15.2517 C   0  0  2  0  0  0  0  0  0  0  0  0
   28.3033  -20.1454  -16.2462 N   0  0  0  0  0  0  0  0  0  0  0  0
   26.6931  -20.2197  -14.4958 C   0  0  0  0  0  0  0  0  0  0  0  0
   26.0040  -21.1183  -15.0932 O   0  0  0  0  0  0  0  0  0  0  0  0
   25.9518  -19.5501   -7.9452 C   0  0  0  0  0  0  0  0  0  0  0  0
   25.8271  -21.3114   -8.2916 S   0  0  0  0  0  0  0  0  0  0  0  0
   25.0921  -21.6032   -9.9462 C   0  0  0  0  0  0  0  0  0  0  0  0
   25.9478  -20.8828  -10.9235 C   0  0  0  0  0  0  0  0  0  0  0  0
   25.5565  -21.0049  -12.3621 C   0  0  2  0  0  0  0  0  0  0  0  0
   26.4897  -20.1565  -13.0936 N   0  0  0  0  0  0  0  0  0  0  0  0
   24.1587  -20.6962  -12.6679 C   0  0  0  0  0  0  0  0  0  0  0  0
   23.8325  -19.4875  -12.7747 O   0  0  0  0  0  0  0  0  0  0  0  0
   23.1509  -21.6894  -12.8502 N   0  0  0  0  0  0  0  0  0  0  0  0
   21.8157  -21.2520  -13.1584 C   0  0  1  0  0  0  0  0  0  0  0  0
   21.3172  -22.0056  -14.3708 C   0  0  0  0  0  0  0  0  0  0  0  0
   19.5450  -21.5781  -14.5582 S   0  0  0  0  0  0  0  0  0  0  0  0
   20.8626  -21.5660  -12.0448 C   0  0  0  0  0  0  0  0  0  0  0  0
   19.5947  -21.0124  -12.1182 O   0  0  0  0  0  0  0  0  0  0  0  0
   21.1460  -22.2847  -11.0762 O   0  0  0  0  0  0  0  0  0  0  0  0
  1  2  1  0
  2  3  2  0
  4  5  1  0
  4  2  1  0
  5  6  1  6
  7  5  1  0
  8  7  2  0
  9 10  1  0
 11 10  1  0
 11 12  1  0
 13 12  1  1
 13 15  1  0
 13 14  1  0
 14  7  1  0
 15 17  1  0
 16 15  2  0
 17 18  1  0
 18 21  1  0
 18 19  1  6
 20 19  1  0
 21 23  2  0
 21 22  1  0
M  END
$$$$
