NMC.pdb
     RDKit          3D

 23 22  0  0  1  0  0  0  0  0999 V2000
   12.9103  -10.9870   -8.9787 N   0  0  0  0  0  0  0  0  0  0  0  0
   14.2274  -11.1141   -9.4721 C   0  0  0  0  0  0  0  0  0  0  0  0
   14.7345  -12.2851   -9.4208 O   0  0  0  0  0  0  0  0  0  0  0  0
   15.0032   -9.9734  -10.0241 C   0  0  0  0  0  0  0  0  0  0  0  0
   14.2818   -8.6774   -9.7653 C   0  0  2  0  0  0  0  0  0  0  0  0
   12.9977   -8.7295  -10.4388 N   0  0  0  0  0  0  0  0  0  0  0  0
   15.0204   -7.4953  -10.2205 C   0  0  0  0  0  0  0  0  0  0  0  0
   14.9588   -7.1208  -11.4432 O   0  0  0  0  0  0  0  0  0  0  0  0
   17.1805   -0.3744   -8.0181 C   0  0  0  0  0  0  0  0  0  0  0  0
   16.5297   -2.0302   -7.7490 S   0  0  0  0  0  0  0  0  0  0  0  0
   17.0773   -3.1728   -9.0746 C   0  0  0  0  0  0  0  0  0  0  0  0
   16.3609   -4.4549   -8.8524 C   0  0  0  0  0  0  0  0  0  0  0  0
   16.5891   -5.5259   -9.8714 C   0  0  2  0  0  0  0  0  0  0  0  0
   15.8398   -6.6828   -9.3959 N   0  0  0  0  0  0  0  0  0  0  0  0
   17.9895   -5.8423  -10.1567 C   0  0  0  0  0  0  0  0  0  0  0  0
   18.7077   -6.2436   -9.2069 O   0  0  0  0  0  0  0  0  0  0  0  0
   18.5806   -5.7201  -11.4494 N   0  0  0  0  0  0  0  0  0  0  0  0
   19.9713   -6.0579  -11.5938 C   0  0  1  0  0  0  0  0  0  0  0  0
   20.0854   -7.3738  -12.3297 C   0  0  0  0  0  0  0  0  0  0  0  0
   21.8647   -7.6127  -12.6981 S   0  0  0  0  0  0  0  0  0  0  0  0
   20.7006   -5.0452  -12.4241 C   0  0  0  0  0  0  0  0  0  0  0  0
   19.9345   -4.1645  -13.1706 O   0  0  0  0  0  0  0  0  0  0  0  0
   21.9352   -4.9562  -12.4766 O   0  0  0  0  0  0  0  0  0  0  0  0
  1  2  1  0
  2  3  2  0
  4  5  1  0
  4  2  1  0
  5  6  1  6
  7  5  1  0
  8  7  2  0
  9 10  1  0
 11 10  1  0
 11 12  1  0
 13 12  1  1
 13 15  1  0
 13 14  1  0
 14  7  1  0
 15 17  1  0
 16 15  2  0
 17 18  1  0
 18 21  1  0
 18 19  1  6
 20 19  1  0
 21 23  2  0
 21 22  1  0
M  END
$$$$
