NMC.pdb
     RDKit          3D

 23 22  0  0  1  0  0  0  0  0999 V2000
   18.9454  -23.1115  -15.8835 N   0  0  0  0  0  0  0  0  0  0  0  0
   18.6771  -22.1518  -14.8829 C   0  0  0  0  0  0  0  0  0  0  0  0
   17.4444  -21.9465  -14.6194 O   0  0  0  0  0  0  0  0  0  0  0  0
   19.7424  -21.4086  -14.1615 C   0  0  0  0  0  0  0  0  0  0  0  0
   21.0894  -21.7134  -14.7613 C   0  0  2  0  0  0  0  0  0  0  0  0
   21.3296  -23.1391  -14.6388 N   0  0  0  0  0  0  0  0  0  0  0  0
   22.1909  -20.9801  -14.1297 C   0  0  0  0  0  0  0  0  0  0  0  0
   22.1183  -19.7126  -13.9644 O   0  0  0  0  0  0  0  0  0  0  0  0
   26.7845  -19.9877   -8.6837 C   0  0  0  0  0  0  0  0  0  0  0  0
   25.5872  -20.8162   -9.7410 S   0  0  0  0  0  0  0  0  0  0  0  0
   26.3222  -21.2200  -11.3719 C   0  0  0  0  0  0  0  0  0  0  0  0
   25.2273  -21.7825  -12.2031 C   0  0  0  0  0  0  0  0  0  0  0  0
   24.5024  -20.8159  -13.0851 C   0  0  2  0  0  0  0  0  0  0  0  0
   23.3927  -21.5678  -13.6588 N   0  0  0  0  0  0  0  0  0  0  0  0
   25.3175  -20.1523  -14.1038 C   0  0  0  0  0  0  0  0  0  0  0  0
   25.5555  -20.7783  -15.1671 O   0  0  0  0  0  0  0  0  0  0  0  0
   25.8540  -18.8387  -13.9556 N   0  0  0  0  0  0  0  0  0  0  0  0
   26.4962  -18.2362  -15.0929 C   0  0  1  0  0  0  0  0  0  0  0  0
   26.5959  -16.7440  -14.8699 C   0  0  0  0  0  0  0  0  0  0  0  0
   27.4747  -16.0570  -16.3241 S   0  0  0  0  0  0  0  0  0  0  0  0
   27.9006  -18.7329  -15.2594 C   0  0  0  0  0  0  0  0  0  0  0  0
   28.3106  -19.0623  -16.5413 O   0  0  0  0  0  0  0  0  0  0  0  0
   28.7021  -18.8624  -14.3236 O   0  0  0  0  0  0  0  0  0  0  0  0
  1  2  1  0
  2  3  2  0
  4  5  1  0
  4  2  1  0
  5  6  1  1
  7  5  1  0
  8  7  2  0
  9 10  1  0
 11 10  1  0
 11 12  1  0
 13 12  1  6
 13 15  1  0
 13 14  1  0
 14  7  1  0
 15 17  1  0
 16 15  2  0
 17 18  1  0
 18 21  1  0
 18 19  1  1
 20 19  1  0
 21 23  2  0
 21 22  1  0
M  END
$$$$
