NMC.pdb
     RDKit          3D

 23 22  0  0  1  0  0  0  0  0999 V2000
   17.5580  -13.5954  -14.9426 N   0  0  0  0  0  0  0  0  0  0  0  0
   18.5198  -12.7103  -15.4775 C   0  0  0  0  0  0  0  0  0  0  0  0
   19.4791  -13.2499  -16.1252 O   0  0  0  0  0  0  0  0  0  0  0  0
   18.4481  -11.2352  -15.3139 C   0  0  0  0  0  0  0  0  0  0  0  0
   17.2489  -10.8594  -14.4847 C   0  0  2  0  0  0  0  0  0  0  0  0
   16.0685  -10.9552  -15.3229 N   0  0  0  0  0  0  0  0  0  0  0  0
   17.3307   -9.5110  -13.9147 C   0  0  0  0  0  0  0  0  0  0  0  0
   16.8916   -8.5010  -14.5676 O   0  0  0  0  0  0  0  0  0  0  0  0
   13.8387   -7.7195   -8.5555 C   0  0  0  0  0  0  0  0  0  0  0  0
   15.6153   -7.7968   -8.8301 S   0  0  0  0  0  0  0  0  0  0  0  0
   15.9982   -7.8846  -10.6214 C   0  0  0  0  0  0  0  0  0  0  0  0
   17.4788   -7.8772  -10.7396 C   0  0  0  0  0  0  0  0  0  0  0  0
   18.0317   -7.8432  -12.1291 C   0  0  2  0  0  0  0  0  0  0  0  0
   17.8771   -9.1986  -12.6437 N   0  0  0  0  0  0  0  0  0  0  0  0
   19.4035   -7.3480  -12.2542 C   0  0  0  0  0  0  0  0  0  0  0  0
   20.2127   -7.6162  -11.3310 O   0  0  0  0  0  0  0  0  0  0  0  0
   19.8695   -6.5806  -13.3629 N   0  0  0  0  0  0  0  0  0  0  0  0
   21.2415   -6.1487  -13.3598 C   0  0  1  0  0  0  0  0  0  0  0  0
   21.8952   -6.5730  -14.6555 C   0  0  0  0  0  0  0  0  0  0  0  0
   21.6845   -8.3896  -14.7754 S   0  0  0  0  0  0  0  0  0  0  0  0
   21.3484   -4.6546  -13.3025 C   0  0  0  0  0  0  0  0  0  0  0  0
   22.5956   -4.1164  -13.0294 O   0  0  0  0  0  0  0  0  0  0  0  0
   20.3928   -3.8871  -13.4842 O   0  0  0  0  0  0  0  0  0  0  0  0
  1  2  1  0
  2  3  2  0
  4  5  1  0
  4  2  1  0
  5  6  1  6
  7  5  1  0
  8  7  2  0
  9 10  1  0
 11 10  1  0
 11 12  1  0
 13 12  1  1
 13 15  1  0
 13 14  1  0
 14  7  1  0
 15 17  1  0
 16 15  2  0
 17 18  1  0
 18 21  1  0
 18 19  1  6
 20 19  1  0
 21 23  2  0
 21 22  1  0
M  END
$$$$
