NMC.pdb
     RDKit          3D

 23 22  0  0  1  0  0  0  0  0999 V2000
   24.6074  -12.6783  -15.3175 N   0  0  0  0  0  0  0  0  0  0  0  0
   24.8809  -11.3354  -14.9768 C   0  0  0  0  0  0  0  0  0  0  0  0
   25.9532  -11.1328  -14.3135 O   0  0  0  0  0  0  0  0  0  0  0  0
   23.9943  -10.2038  -15.3525 C   0  0  0  0  0  0  0  0  0  0  0  0
   22.7154  -10.7205  -15.9561 C   0  0  2  0  0  0  0  0  0  0  0  0
   23.0320  -11.3444  -17.2271 N   0  0  0  0  0  0  0  0  0  0  0  0
   21.7044   -9.6794  -16.1656 C   0  0  0  0  0  0  0  0  0  0  0  0
   21.8158   -8.8501  -17.1347 O   0  0  0  0  0  0  0  0  0  0  0  0
   15.8590  -10.9499  -16.1363 C   0  0  0  0  0  0  0  0  0  0  0  0
   15.5734   -9.3420  -15.3807 S   0  0  0  0  0  0  0  0  0  0  0  0
   17.0357   -8.2541  -15.5828 C   0  0  0  0  0  0  0  0  0  0  0  0
   18.2330   -9.1181  -15.4198 C   0  0  0  0  0  0  0  0  0  0  0  0
   19.5603   -8.4468  -15.5787 C   0  0  2  0  0  0  0  0  0  0  0  0
   20.5542   -9.4903  -15.3576 N   0  0  0  0  0  0  0  0  0  0  0  0
   19.7821   -7.2718  -14.7344 C   0  0  0  0  0  0  0  0  0  0  0  0
   19.7081   -7.4195  -13.4887 O   0  0  0  0  0  0  0  0  0  0  0  0
   20.0766   -5.9734  -15.2471 N   0  0  0  0  0  0  0  0  0  0  0  0
   20.1421   -4.8766  -14.3189 C   0  0  1  0  0  0  0  0  0  0  0  0
   21.4817   -4.1898  -14.4606 C   0  0  0  0  0  0  0  0  0  0  0  0
   22.7263   -5.3180  -13.7279 S   0  0  0  0  0  0  0  0  0  0  0  0
   19.1021   -3.8393  -14.6178 C   0  0  0  0  0  0  0  0  0  0  0  0
   18.9344   -2.8220  -13.6923 O   0  0  0  0  0  0  0  0  0  0  0  0
   18.3949   -3.8446  -15.6351 O   0  0  0  0  0  0  0  0  0  0  0  0
  1  2  1  0
  2  3  2  0
  4  5  1  0
  4  2  1  0
  5  6  1  6
  7  5  1  0
  8  7  2  0
  9 10  1  0
 11 10  1  0
 11 12  1  0
 13 12  1  1
 13 15  1  0
 13 14  1  0
 14  7  1  0
 15 17  1  0
 16 15  2  0
 17 18  1  0
 18 21  1  0
 18 19  1  6
 20 19  1  0
 21 23  2  0
 21 22  1  0
M  END
$$$$
