NMC.pdb
     RDKit          3D

 23 22  0  0  1  0  0  0  0  0999 V2000
   19.3103  -17.6378  -15.8737 N   0  0  0  0  0  0  0  0  0  0  0  0
   18.8765  -16.4781  -16.5528 C   0  0  0  0  0  0  0  0  0  0  0  0
   17.7930  -16.5913  -17.2193 O   0  0  0  0  0  0  0  0  0  0  0  0
   19.6138  -15.1887  -16.5139 C   0  0  0  0  0  0  0  0  0  0  0  0
   19.8888  -14.7021  -17.9120 C   0  0  2  0  0  0  0  0  0  0  0  0
   20.8231  -15.6194  -18.5371 N   0  0  0  0  0  0  0  0  0  0  0  0
   20.4370  -13.3431  -17.9616 C   0  0  0  0  0  0  0  0  0  0  0  0
   21.6902  -13.1534  -18.1424 O   0  0  0  0  0  0  0  0  0  0  0  0
   17.4509   -9.4563  -21.0927 C   0  0  0  0  0  0  0  0  0  0  0  0
   18.3605   -8.0810  -20.3722 S   0  0  0  0  0  0  0  0  0  0  0  0
   19.6341   -8.6816  -19.1975 C   0  0  0  0  0  0  0  0  0  0  0  0
   19.3055  -10.1002  -18.9042 C   0  0  0  0  0  0  0  0  0  0  0  0
   20.2223  -10.8103  -17.9593 C   0  0  2  0  0  0  0  0  0  0  0  0
   19.6754  -12.1549  -17.8217 N   0  0  0  0  0  0  0  0  0  0  0  0
   20.4338  -10.1550  -16.6676 C   0  0  0  0  0  0  0  0  0  0  0  0
   19.4838  -10.1546  -15.8451 O   0  0  0  0  0  0  0  0  0  0  0  0
   21.6550   -9.5194  -16.2936 N   0  0  0  0  0  0  0  0  0  0  0  0
   21.7240   -8.8898  -15.0022 C   0  0  1  0  0  0  0  0  0  0  0  0
   23.1703   -8.8119  -14.5680 C   0  0  0  0  0  0  0  0  0  0  0  0
   23.6590  -10.5080  -14.0752 S   0  0  0  0  0  0  0  0  0  0  0  0
   21.2208   -7.4786  -15.0499 C   0  0  0  0  0  0  0  0  0  0  0  0
   20.8714   -6.9699  -16.2903 O   0  0  0  0  0  0  0  0  0  0  0  0
   21.1030   -6.7541  -14.0518 O   0  0  0  0  0  0  0  0  0  0  0  0
  1  2  1  0
  2  3  2  0
  4  5  1  0
  4  2  1  0
  5  6  1  1
  7  5  1  0
  8  7  2  0
  9 10  1  0
 11 10  1  0
 11 12  1  0
 13 12  1  6
 13 15  1  0
 13 14  1  0
 14  7  1  0
 15 17  1  0
 16 15  2  0
 17 18  1  0
 18 21  1  0
 18 19  1  6
 20 19  1  0
 21 23  2  0
 21 22  1  0
M  END
$$$$
