NMC.pdb
     RDKit          3D

 23 22  0  0  1  0  0  0  0  0999 V2000
   17.5565  -12.5605  -18.3907 N   0  0  0  0  0  0  0  0  0  0  0  0
   17.2314  -11.2748  -17.9052 C   0  0  0  0  0  0  0  0  0  0  0  0
   16.0523  -10.8591  -18.1657 O   0  0  0  0  0  0  0  0  0  0  0  0
   18.1817  -10.4318  -17.1346 C   0  0  0  0  0  0  0  0  0  0  0  0
   19.4689  -11.1768  -16.9001 C   0  0  2  0  0  0  0  0  0  0  0  0
   19.2014  -12.2693  -15.9836 N   0  0  0  0  0  0  0  0  0  0  0  0
   20.5401  -10.3373  -16.3543 C   0  0  0  0  0  0  0  0  0  0  0  0
   20.5252   -9.9816  -15.1244 O   0  0  0  0  0  0  0  0  0  0  0  0
   27.3447  -10.3709  -14.8755 C   0  0  0  0  0  0  0  0  0  0  0  0
   25.8108  -10.6855  -15.7620 S   0  0  0  0  0  0  0  0  0  0  0  0
   25.2937   -9.2101  -16.7205 C   0  0  0  0  0  0  0  0  0  0  0  0
   23.9691   -9.5308  -17.3112 C   0  0  0  0  0  0  0  0  0  0  0  0
   22.7720   -9.1307  -16.5084 C   0  0  2  0  0  0  0  0  0  0  0  0
   21.6500   -9.8547  -17.0938 N   0  0  0  0  0  0  0  0  0  0  0  0
   22.5237   -7.6912  -16.4138 C   0  0  0  0  0  0  0  0  0  0  0  0
   22.0686   -7.1045  -17.4275 O   0  0  0  0  0  0  0  0  0  0  0  0
   22.7694   -6.9217  -15.2379 N   0  0  0  0  0  0  0  0  0  0  0  0
   22.4989   -5.5097  -15.2828 C   0  0  1  0  0  0  0  0  0  0  0  0
   21.9279   -5.0742  -13.9522 C   0  0  0  0  0  0  0  0  0  0  0  0
   20.2162   -5.7252  -13.8810 S   0  0  0  0  0  0  0  0  0  0  0  0
   23.7537   -4.7147  -15.4842 C   0  0  0  0  0  0  0  0  0  0  0  0
   23.6230   -3.3409  -15.6074 O   0  0  0  0  0  0  0  0  0  0  0  0
   24.8853   -5.2155  -15.5454 O   0  0  0  0  0  0  0  0  0  0  0  0
  1  2  1  0
  2  3  2  0
  4  5  1  0
  4  2  1  0
  5  6  1  1
  7  5  1  0
  8  7  2  0
  9 10  1  0
 11 10  1  0
 11 12  1  0
 13 12  1  6
 13 15  1  0
 13 14  1  0
 14  7  1  0
 15 17  1  0
 16 15  2  0
 17 18  1  0
 18 21  1  0
 18 19  1  1
 20 19  1  0
 21 23  2  0
 21 22  1  0
M  END
$$$$
