LQA.pdb
     RDKit          3D

 23 22  0  0  1  0  0  0  0  0999 V2000
    6.5489  -11.9713   26.8485 C   0  0  0  0  0  0  0  0  0  0  0  0
    6.9914  -12.8627   25.7081 C   0  0  2  0  0  0  0  0  0  0  0  0
    6.8048  -12.1108   24.4323 C   0  0  0  0  0  0  0  0  0  0  0  0
    6.2905  -14.1991   25.7451 C   0  0  0  0  0  0  0  0  0  0  0  0
    6.7438  -15.0716   24.6069 C   0  0  2  0  0  0  0  0  0  0  0  0
    6.0735  -16.3479   24.7431 N   0  0  0  0  0  0  0  0  0  0  0  0
    8.1855  -15.2837   24.6492 C   0  0  0  0  0  0  0  0  0  0  0  0
    8.9676  -14.3138   24.5023 O   0  0  0  0  0  0  0  0  0  0  0  0
   13.4519  -14.5282   22.1318 N   0  0  0  0  0  0  0  0  0  0  0  0
   12.6204  -15.6668   22.0434 C   0  0  0  0  0  0  0  0  0  0  0  0
   12.2411  -16.0067   20.8837 O   0  0  0  0  0  0  0  0  0  0  0  0
   12.2203  -16.4181   23.2674 C   0  0  0  0  0  0  0  0  0  0  0  0
   10.7525  -16.1496   23.4954 C   0  0  0  0  0  0  0  0  0  0  0  0
   10.2273  -16.7704   24.7480 C   0  0  2  0  0  0  0  0  0  0  0  0
    8.8002  -16.5611   24.8532 N   0  0  0  0  0  0  0  0  0  0  0  0
   10.8824  -16.3429   25.9761 C   0  0  0  0  0  0  0  0  0  0  0  0
   12.1147  -16.5495   26.0905 O   0  0  0  0  0  0  0  0  0  0  0  0
   10.3285  -14.0634   28.8954 C   0  0  0  0  0  0  0  0  0  0  0  0
   10.8796  -15.3119   28.2833 C   0  0  2  0  0  0  0  0  0  0  0  0
   10.2360  -15.7052   27.0665 N   0  0  0  0  0  0  0  0  0  0  0  0
   10.7733  -16.4226   29.2476 C   0  0  0  0  0  0  0  0  0  0  0  0
   10.0912  -17.5949   28.9478 O   0  0  0  0  0  0  0  0  0  0  0  0
   11.3042  -16.3398   30.3851 O   0  0  0  0  0  0  0  0  0  0  0  0
  2  1  1  1
  3  2  1  0
  4  2  1  0
  5  4  1  0
  5  6  1  1
  7  5  1  0
  8  7  2  0
  9 10  1  0
 10 12  1  0
 11 10  2  0
 12 13  1  0
 14 13  1  6
 14 16  1  0
 14 15  1  0
 15  7  1  0
 16 17  2  0
 19 18  1  1
 20 19  1  0
 20 16  1  0
 21 19  1  0
 22 21  1  0
 23 21  2  0
M  END
$$$$
