LQA.pdb
     RDKit          3D

 23 22  0  0  1  0  0  0  0  0999 V2000
    9.2478  -12.7278   18.8818 C   0  0  0  0  0  0  0  0  0  0  0  0
    7.9166  -13.3397   19.2616 C   0  0  2  0  0  0  0  0  0  0  0  0
    7.0285  -12.2475   19.7577 C   0  0  0  0  0  0  0  0  0  0  0  0
    8.0890  -14.4835   20.2315 C   0  0  0  0  0  0  0  0  0  0  0  0
    9.0144  -15.5267   19.6679 C   0  0  2  0  0  0  0  0  0  0  0  0
    8.2467  -16.3368   18.7452 N   0  0  0  0  0  0  0  0  0  0  0  0
    9.5475  -16.3811   20.7220 C   0  0  0  0  0  0  0  0  0  0  0  0
    8.8046  -17.2201   21.2861 O   0  0  0  0  0  0  0  0  0  0  0  0
   14.3444  -19.4135   20.7974 N   0  0  0  0  0  0  0  0  0  0  0  0
   14.2098  -19.5153   22.2000 C   0  0  0  0  0  0  0  0  0  0  0  0
   14.7977  -20.4876   22.7597 O   0  0  0  0  0  0  0  0  0  0  0  0
   13.4103  -18.5167   22.9658 C   0  0  0  0  0  0  0  0  0  0  0  0
   12.8414  -17.5397   21.9657 C   0  0  0  0  0  0  0  0  0  0  0  0
   11.4098  -17.2006   22.2218 C   0  0  2  0  0  0  0  0  0  0  0  0
   10.9037  -16.3346   21.1799 N   0  0  0  0  0  0  0  0  0  0  0  0
   11.1321  -16.6191   23.5275 C   0  0  0  0  0  0  0  0  0  0  0  0
   11.6500  -15.5096   23.8017 O   0  0  0  0  0  0  0  0  0  0  0  0
    8.6265  -16.3016   26.0671 C   0  0  0  0  0  0  0  0  0  0  0  0
   10.0613  -16.6419   25.8163 C   0  0  2  0  0  0  0  0  0  0  0  0
   10.3155  -17.2091   24.5267 N   0  0  0  0  0  0  0  0  0  0  0  0
   10.5302  -17.5901   26.8439 C   0  0  0  0  0  0  0  0  0  0  0  0
   10.6295  -17.2346   28.1830 O   0  0  0  0  0  0  0  0  0  0  0  0
   10.8584  -18.7643   26.5337 O   0  0  0  0  0  0  0  0  0  0  0  0
  2  1  1  1
  3  2  1  0
  4  2  1  0
  5  4  1  0
  5  6  1  6
  7  5  1  0
  8  7  2  0
  9 10  1  0
 10 12  1  0
 11 10  2  0
 12 13  1  0
 14 13  1  6
 14 16  1  0
 14 15  1  0
 15  7  1  0
 16 17  2  0
 19 18  1  1
 20 19  1  0
 20 16  1  0
 21 19  1  0
 22 21  1  0
 23 21  2  0
M  END
$$$$
