LQA.pdb
     RDKit          3D

 23 22  0  0  1  0  0  0  0  0999 V2000
    8.6175  -13.5771   21.4416 C   0  0  0  0  0  0  0  0  0  0  0  0
    8.0115  -13.6921   20.0595 C   0  0  2  0  0  0  0  0  0  0  0  0
    7.6101  -12.3253   19.6136 C   0  0  0  0  0  0  0  0  0  0  0  0
    6.8928  -14.7051   20.0274 C   0  0  0  0  0  0  0  0  0  0  0  0
    7.3661  -16.0396   20.5350 C   0  0  2  0  0  0  0  0  0  0  0  0
    6.5175  -17.0549   19.9467 N   0  0  0  0  0  0  0  0  0  0  0  0
    7.2637  -16.1159   21.9872 C   0  0  0  0  0  0  0  0  0  0  0  0
    6.1855  -15.8213   22.5570 O   0  0  0  0  0  0  0  0  0  0  0  0
    6.5975  -19.5827   25.4347 N   0  0  0  0  0  0  0  0  0  0  0  0
    7.4109  -19.0795   26.4744 C   0  0  0  0  0  0  0  0  0  0  0  0
    7.0533  -19.3497   27.6591 O   0  0  0  0  0  0  0  0  0  0  0  0
    8.6267  -18.2718   26.1710 C   0  0  0  0  0  0  0  0  0  0  0  0
    8.6559  -18.0537   24.6777 C   0  0  0  0  0  0  0  0  0  0  0  0
    8.1780  -16.6987   24.2705 C   0  0  2  0  0  0  0  0  0  0  0  0
    8.3386  -16.5160   22.8448 N   0  0  0  0  0  0  0  0  0  0  0  0
    8.7854  -15.5843   24.9841 C   0  0  0  0  0  0  0  0  0  0  0  0
    9.9534  -15.2495   24.6714 O   0  0  0  0  0  0  0  0  0  0  0  0
    7.8248  -12.7093   27.2025 C   0  0  0  0  0  0  0  0  0  0  0  0
    8.7755  -13.7680   26.7410 C   0  0  2  0  0  0  0  0  0  0  0  0
    8.1593  -14.8372   26.0153 N   0  0  0  0  0  0  0  0  0  0  0  0
    9.4805  -14.3386   27.9038 C   0  0  0  0  0  0  0  0  0  0  0  0
   10.3209  -13.5741   28.7030 O   0  0  0  0  0  0  0  0  0  0  0  0
    9.3396  -15.5506   28.2101 O   0  0  0  0  0  0  0  0  0  0  0  0
  2  1  1  1
  3  2  1  0
  4  2  1  0
  5  4  1  0
  5  6  1  6
  7  5  1  0
  8  7  2  0
  9 10  1  0
 10 12  1  0
 11 10  2  0
 12 13  1  0
 14 13  1  1
 14 16  1  0
 14 15  1  0
 15  7  1  0
 16 17  2  0
 19 18  1  1
 20 19  1  0
 20 16  1  0
 21 19  1  0
 22 21  1  0
 23 21  2  0
M  END
$$$$
