LQA.pdb
     RDKit          3D

 23 22  0  0  1  0  0  0  0  0999 V2000
    9.2170  -12.7177   18.6943 C   0  0  0  0  0  0  0  0  0  0  0  0
    8.0117  -13.2842   19.4134 C   0  0  2  0  0  0  0  0  0  0  0  0
    7.3629  -12.1765   20.1749 C   0  0  0  0  0  0  0  0  0  0  0  0
    8.3813  -14.4797   20.2576 C   0  0  0  0  0  0  0  0  0  0  0  0
    9.0219  -15.5497   19.4167 C   0  0  2  0  0  0  0  0  0  0  0  0
    7.9661  -16.2193   18.6859 N   0  0  0  0  0  0  0  0  0  0  0  0
    9.7184  -16.5244   20.2474 C   0  0  0  0  0  0  0  0  0  0  0  0
    9.0644  -17.3482   20.9312 O   0  0  0  0  0  0  0  0  0  0  0  0
   15.3813  -18.7282   18.3625 N   0  0  0  0  0  0  0  0  0  0  0  0
   14.0641  -18.2208   18.3056 C   0  0  0  0  0  0  0  0  0  0  0  0
   13.8382  -17.3174   17.4470 O   0  0  0  0  0  0  0  0  0  0  0  0
   13.0059  -18.7368   19.2202 C   0  0  0  0  0  0  0  0  0  0  0  0
   13.1302  -17.9776   20.5189 C   0  0  0  0  0  0  0  0  0  0  0  0
   11.8113  -17.6340   21.1294 C   0  0  2  0  0  0  0  0  0  0  0  0
   11.1441  -16.6173   20.3465 N   0  0  0  0  0  0  0  0  0  0  0  0
   11.8591  -17.2304   22.5275 C   0  0  0  0  0  0  0  0  0  0  0  0
   12.5610  -16.2357   22.8311 O   0  0  0  0  0  0  0  0  0  0  0  0
   10.0254  -17.6418   25.7514 C   0  0  0  0  0  0  0  0  0  0  0  0
   11.2981  -17.5372   24.9724 C   0  0  2  0  0  0  0  0  0  0  0  0
   11.1704  -17.8756   23.5872 N   0  0  0  0  0  0  0  0  0  0  0  0
   12.3188  -18.4146   25.5749 C   0  0  0  0  0  0  0  0  0  0  0  0
   12.7436  -18.2560   26.8878 O   0  0  0  0  0  0  0  0  0  0  0  0
   12.8416  -19.3449   24.9087 O   0  0  0  0  0  0  0  0  0  0  0  0
  2  1  1  1
  3  2  1  0
  4  2  1  0
  5  4  1  0
  5  6  1  1
  7  5  1  0
  8  7  2  0
  9 10  1  0
 10 12  1  0
 11 10  2  0
 12 13  1  0
 14 13  1  6
 14 16  1  0
 14 15  1  0
 15  7  1  0
 16 17  2  0
 19 18  1  1
 20 19  1  0
 20 16  1  0
 21 19  1  0
 22 21  1  0
 23 21  2  0
M  END
$$$$
