LQA.pdb
     RDKit          3D

 23 22  0  0  1  0  0  0  0  0999 V2000
    8.0889  -12.0839   18.9067 C   0  0  0  0  0  0  0  0  0  0  0  0
    7.5547  -13.3946   19.4430 C   0  0  2  0  0  0  0  0  0  0  0  0
    6.7481  -13.1019   20.6643 C   0  0  0  0  0  0  0  0  0  0  0  0
    8.6621  -14.3970   19.6602 C   0  0  0  0  0  0  0  0  0  0  0  0
    9.4805  -14.5680   18.4098 C   0  0  2  0  0  0  0  0  0  0  0  0
    8.7366  -15.4325   17.5175 N   0  0  0  0  0  0  0  0  0  0  0  0
   10.7688  -15.1833   18.7050 C   0  0  0  0  0  0  0  0  0  0  0  0
   10.8552  -16.4282   18.8339 O   0  0  0  0  0  0  0  0  0  0  0  0
   15.4478  -15.5372   16.8169 N   0  0  0  0  0  0  0  0  0  0  0  0
   16.2051  -15.5354   18.0095 C   0  0  0  0  0  0  0  0  0  0  0  0
   17.2936  -16.1828   17.9941 O   0  0  0  0  0  0  0  0  0  0  0  0
   15.7288  -14.8011   19.2164 C   0  0  0  0  0  0  0  0  0  0  0  0
   14.3883  -14.1990   18.8717 C   0  0  0  0  0  0  0  0  0  0  0  0
   13.2362  -15.0741   19.2421 C   0  0  2  0  0  0  0  0  0  0  0  0
   11.9879  -14.4489   18.8649 N   0  0  0  0  0  0  0  0  0  0  0  0
   13.1856  -15.4774   20.6402 C   0  0  0  0  0  0  0  0  0  0  0  0
   13.4566  -14.6174   21.5128 O   0  0  0  0  0  0  0  0  0  0  0  0
   11.9588  -18.4100   22.7106 C   0  0  0  0  0  0  0  0  0  0  0  0
   12.7275  -17.1477   22.4804 C   0  0  2  0  0  0  0  0  0  0  0  0
   12.8516  -16.7764   21.1033 N   0  0  0  0  0  0  0  0  0  0  0  0
   14.0806  -17.2831   23.0510 C   0  0  0  0  0  0  0  0  0  0  0  0
   15.2235  -17.1738   22.2692 O   0  0  0  0  0  0  0  0  0  0  0  0
   14.2416  -17.5045   24.2789 O   0  0  0  0  0  0  0  0  0  0  0  0
  2  1  1  1
  3  2  1  0
  4  2  1  0
  5  4  1  0
  5  6  1  6
  7  5  1  0
  8  7  2  0
  9 10  1  0
 10 12  1  0
 11 10  2  0
 12 13  1  0
 14 13  1  1
 14 16  1  0
 14 15  1  0
 15  7  1  0
 16 17  2  0
 19 18  1  6
 20 19  1  0
 20 16  1  0
 21 19  1  0
 22 21  1  0
 23 21  2  0
M  END
$$$$
