LQA.pdb
     RDKit          3D

 23 22  0  0  1  0  0  0  0  0999 V2000
    6.5980  -11.6527   24.3819 C   0  0  0  0  0  0  0  0  0  0  0  0
    6.0161  -12.3509   25.5922 C   0  0  2  0  0  0  0  0  0  0  0  0
    5.8423  -11.3371   26.6738 C   0  0  0  0  0  0  0  0  0  0  0  0
    6.8454  -13.5465   25.9942 C   0  0  0  0  0  0  0  0  0  0  0  0
    6.6357  -14.6879   25.0373 C   0  0  2  0  0  0  0  0  0  0  0  0
    5.2819  -15.1676   25.2220 N   0  0  0  0  0  0  0  0  0  0  0  0
    7.5676  -15.7765   25.3056 C   0  0  0  0  0  0  0  0  0  0  0  0
    7.3870  -16.5286   26.2934 O   0  0  0  0  0  0  0  0  0  0  0  0
    9.5852  -19.9501   23.3320 N   0  0  0  0  0  0  0  0  0  0  0  0
   10.9003  -19.8540   23.8390 C   0  0  0  0  0  0  0  0  0  0  0  0
   11.4943  -20.9436   24.0926 O   0  0  0  0  0  0  0  0  0  0  0  0
   11.5400  -18.5252   24.0577 C   0  0  0  0  0  0  0  0  0  0  0  0
   10.5116  -17.4739   23.7179 C   0  0  0  0  0  0  0  0  0  0  0  0
    9.7494  -16.9889   24.9069 C   0  0  2  0  0  0  0  0  0  0  0  0
    8.7154  -16.0638   24.4986 N   0  0  0  0  0  0  0  0  0  0  0  0
   10.5564  -16.3948   25.9632 C   0  0  0  0  0  0  0  0  0  0  0  0
   11.4459  -15.5730   25.6351 O   0  0  0  0  0  0  0  0  0  0  0  0
   10.5744  -14.9895   29.1366 C   0  0  0  0  0  0  0  0  0  0  0  0
   11.2307  -16.1011   28.3809 C   0  0  2  0  0  0  0  0  0  0  0  0
   10.4192  -16.6710   27.3483 N   0  0  0  0  0  0  0  0  0  0  0  0
   11.6162  -17.1736   29.3169 C   0  0  0  0  0  0  0  0  0  0  0  0
   12.4565  -16.9403   30.3979 O   0  0  0  0  0  0  0  0  0  0  0  0
   11.1895  -18.3468   29.1616 O   0  0  0  0  0  0  0  0  0  0  0  0
  2  1  1  6
  3  2  1  0
  4  2  1  0
  5  4  1  0
  5  6  1  1
  7  5  1  0
  8  7  2  0
  9 10  1  0
 10 12  1  0
 11 10  2  0
 12 13  1  0
 14 13  1  6
 14 16  1  0
 14 15  1  0
 15  7  1  0
 16 17  2  0
 19 18  1  1
 20 19  1  0
 20 16  1  0
 21 19  1  0
 22 21  1  0
 23 21  2  0
M  END
$$$$
