LQA.pdb
     RDKit          3D

 23 22  0  0  1  0  0  0  0  0999 V2000
    6.2112  -11.5344   24.3404 C   0  0  0  0  0  0  0  0  0  0  0  0
    5.8743  -12.1923   25.6613 C   0  0  2  0  0  0  0  0  0  0  0  0
    5.8591  -11.1357   26.7154 C   0  0  0  0  0  0  0  0  0  0  0  0
    6.8006  -13.3467   25.9577 C   0  0  0  0  0  0  0  0  0  0  0  0
    6.5449  -14.4918   25.0165 C   0  0  2  0  0  0  0  0  0  0  0  0
    5.2892  -15.1008   25.4030 N   0  0  0  0  0  0  0  0  0  0  0  0
    7.6045  -15.4894   25.1025 C   0  0  0  0  0  0  0  0  0  0  0  0
    7.6118  -16.3181   26.0444 O   0  0  0  0  0  0  0  0  0  0  0  0
   11.3957  -20.1502   23.7564 N   0  0  0  0  0  0  0  0  0  0  0  0
   11.0397  -19.0721   22.9159 C   0  0  0  0  0  0  0  0  0  0  0  0
   10.2091  -19.3198   21.9923 O   0  0  0  0  0  0  0  0  0  0  0  0
   11.6243  -17.7163   23.1226 C   0  0  0  0  0  0  0  0  0  0  0  0
   10.4909  -16.7235   23.0319 C   0  0  0  0  0  0  0  0  0  0  0  0
    9.7767  -16.5243   24.3282 C   0  0  2  0  0  0  0  0  0  0  0  0
    8.6771  -15.6001   24.1599 N   0  0  0  0  0  0  0  0  0  0  0  0
   10.6142  -16.1003   25.4412 C   0  0  0  0  0  0  0  0  0  0  0  0
   11.6973  -15.5239   25.1788 O   0  0  0  0  0  0  0  0  0  0  0  0
   10.6687  -14.6799   28.6394 C   0  0  0  0  0  0  0  0  0  0  0  0
   11.1441  -15.8922   27.9033 C   0  0  2  0  0  0  0  0  0  0  0  0
   10.3040  -16.2866   26.8132 N   0  0  0  0  0  0  0  0  0  0  0  0
   11.2560  -17.0257   28.8400 C   0  0  0  0  0  0  0  0  0  0  0  0
   10.6419  -18.2471   28.5943 O   0  0  0  0  0  0  0  0  0  0  0  0
   11.9197  -16.9183   29.9033 O   0  0  0  0  0  0  0  0  0  0  0  0
  2  1  1  6
  3  2  1  0
  4  2  1  0
  5  4  1  0
  5  6  1  1
  7  5  1  0
  8  7  2  0
  9 10  1  0
 10 12  1  0
 11 10  2  0
 12 13  1  0
 14 13  1  6
 14 16  1  0
 14 15  1  0
 15  7  1  0
 16 17  2  0
 19 18  1  1
 20 19  1  0
 20 16  1  0
 21 19  1  0
 22 21  1  0
 23 21  2  0
M  END
$$$$
