LQA.pdb
     RDKit          3D

 23 22  0  0  1  0  0  0  0  0999 V2000
    6.5619  -11.8725   24.0928 C   0  0  0  0  0  0  0  0  0  0  0  0
    5.9500  -12.5347   25.3085 C   0  0  2  0  0  0  0  0  0  0  0  0
    5.7043  -11.4808   26.3365 C   0  0  0  0  0  0  0  0  0  0  0  0
    6.7943  -13.6872   25.7957 C   0  0  0  0  0  0  0  0  0  0  0  0
    6.7366  -14.8377   24.8285 C   0  0  2  0  0  0  0  0  0  0  0  0
    5.4869  -15.5336   25.0539 N   0  0  0  0  0  0  0  0  0  0  0  0
    7.8426  -15.7625   25.0452 C   0  0  0  0  0  0  0  0  0  0  0  0
    7.7939  -16.5899   25.9870 O   0  0  0  0  0  0  0  0  0  0  0  0
   14.0763  -17.9335   21.9049 N   0  0  0  0  0  0  0  0  0  0  0  0
   12.6872  -18.0939   22.1053 C   0  0  0  0  0  0  0  0  0  0  0  0
   12.0012  -18.4320   21.0956 O   0  0  0  0  0  0  0  0  0  0  0  0
   12.0777  -17.8713   23.4475 C   0  0  0  0  0  0  0  0  0  0  0  0
   10.9497  -16.8847   23.2669 C   0  0  0  0  0  0  0  0  0  0  0  0
   10.1254  -16.6997   24.4984 C   0  0  2  0  0  0  0  0  0  0  0  0
    9.0236  -15.8005   24.2359 N   0  0  0  0  0  0  0  0  0  0  0  0
   10.8575  -16.2555   25.6760 C   0  0  0  0  0  0  0  0  0  0  0  0
   11.8776  -15.5456   25.5039 O   0  0  0  0  0  0  0  0  0  0  0  0
   10.5460  -14.9126   28.8411 C   0  0  0  0  0  0  0  0  0  0  0  0
   11.2019  -16.0794   28.1733 C   0  0  2  0  0  0  0  0  0  0  0  0
   10.5094  -16.5621   27.0170 N   0  0  0  0  0  0  0  0  0  0  0  0
   11.3330  -17.1890   29.1358 C   0  0  0  0  0  0  0  0  0  0  0  0
   10.8073  -18.4494   28.8821 O   0  0  0  0  0  0  0  0  0  0  0  0
   11.9327  -17.0243   30.2294 O   0  0  0  0  0  0  0  0  0  0  0  0
  2  1  1  6
  3  2  1  0
  4  2  1  0
  5  4  1  0
  5  6  1  1
  7  5  1  0
  8  7  2  0
  9 10  1  0
 10 12  1  0
 11 10  2  0
 12 13  1  0
 14 13  1  6
 14 16  1  0
 14 15  1  0
 15  7  1  0
 16 17  2  0
 19 18  1  1
 20 19  1  0
 20 16  1  0
 21 19  1  0
 22 21  1  0
 23 21  2  0
M  END
$$$$
