LQA.pdb
     RDKit          3D

 23 22  0  0  1  0  0  0  0  0999 V2000
    8.9707  -13.3170   19.2729 C   0  0  0  0  0  0  0  0  0  0  0  0
    7.6092  -13.2559   19.9311 C   0  0  2  0  0  0  0  0  0  0  0  0
    7.1819  -11.8266   19.9815 C   0  0  0  0  0  0  0  0  0  0  0  0
    7.6108  -13.9472   21.2730 C   0  0  0  0  0  0  0  0  0  0  0  0
    8.0048  -15.3917   21.1290 C   0  0  2  0  0  0  0  0  0  0  0  0
    6.8635  -16.1026   20.5912 N   0  0  0  0  0  0  0  0  0  0  0  0
    8.3618  -15.9702   22.4186 C   0  0  0  0  0  0  0  0  0  0  0  0
    7.4678  -16.2292   23.2598 O   0  0  0  0  0  0  0  0  0  0  0  0
   12.8976  -20.3801   26.0338 N   0  0  0  0  0  0  0  0  0  0  0  0
   12.6331  -19.3633   25.0894 C   0  0  0  0  0  0  0  0  0  0  0  0
   13.3157  -19.3848   24.0227 O   0  0  0  0  0  0  0  0  0  0  0  0
   11.5968  -18.3248   25.3543 C   0  0  0  0  0  0  0  0  0  0  0  0
   11.1280  -17.8108   24.0147 C   0  0  0  0  0  0  0  0  0  0  0  0
   10.0371  -16.7966   24.1214 C   0  0  2  0  0  0  0  0  0  0  0  0
    9.7039  -16.2767   22.8136 N   0  0  0  0  0  0  0  0  0  0  0  0
   10.2974  -15.6972   25.0398 C   0  0  0  0  0  0  0  0  0  0  0  0
   11.1519  -14.8405   24.7080 O   0  0  0  0  0  0  0  0  0  0  0  0
    8.8984  -13.4416   27.3820 C   0  0  0  0  0  0  0  0  0  0  0  0
    9.9712  -14.4722   27.2259 C   0  0  2  0  0  0  0  0  0  0  0  0
    9.6579  -15.5119   26.2929 N   0  0  0  0  0  0  0  0  0  0  0  0
   10.2562  -15.0897   28.5345 C   0  0  0  0  0  0  0  0  0  0  0  0
   10.1697  -16.4613   28.7356 O   0  0  0  0  0  0  0  0  0  0  0  0
   10.5904  -14.3829   29.5200 O   0  0  0  0  0  0  0  0  0  0  0  0
  2  1  1  1
  3  2  1  0
  4  2  1  0
  5  4  1  0
  5  6  1  1
  7  5  1  0
  8  7  2  0
  9 10  1  0
 10 12  1  0
 11 10  2  0
 12 13  1  0
 14 13  1  6
 14 16  1  0
 14 15  1  0
 15  7  1  0
 16 17  2  0
 19 18  1  1
 20 19  1  0
 20 16  1  0
 21 19  1  0
 22 21  1  0
 23 21  2  0
M  END
$$$$
