LQA.pdb
     RDKit          3D

 23 22  0  0  1  0  0  0  0  0999 V2000
    6.2932  -12.1180   24.1004 C   0  0  0  0  0  0  0  0  0  0  0  0
    5.6928  -12.6684   25.3761 C   0  0  2  0  0  0  0  0  0  0  0  0
    5.4522  -11.5261   26.3062 C   0  0  0  0  0  0  0  0  0  0  0  0
    6.5442  -13.7701   25.9590 C   0  0  0  0  0  0  0  0  0  0  0  0
    6.6537  -14.9242   25.0005 C   0  0  2  0  0  0  0  0  0  0  0  0
    5.4858  -15.7593   25.1896 N   0  0  0  0  0  0  0  0  0  0  0  0
    7.8511  -15.7134   25.2627 C   0  0  0  0  0  0  0  0  0  0  0  0
    7.8960  -16.4741   26.2594 O   0  0  0  0  0  0  0  0  0  0  0  0
   12.3723  -16.9162   21.1620 N   0  0  0  0  0  0  0  0  0  0  0  0
   12.8795  -17.6193   22.2774 C   0  0  0  0  0  0  0  0  0  0  0  0
   13.9412  -18.2859   22.0961 O   0  0  0  0  0  0  0  0  0  0  0  0
   12.1841  -17.5665   23.5951 C   0  0  0  0  0  0  0  0  0  0  0  0
   10.9685  -16.6884   23.4228 C   0  0  0  0  0  0  0  0  0  0  0  0
   10.1650  -16.5421   24.6731 C   0  0  2  0  0  0  0  0  0  0  0  0
    9.0229  -15.6860   24.4399 N   0  0  0  0  0  0  0  0  0  0  0  0
   10.9048  -16.0748   25.8369 C   0  0  0  0  0  0  0  0  0  0  0  0
   11.8199  -15.2355   25.6567 O   0  0  0  0  0  0  0  0  0  0  0  0
   10.9848  -14.8655   28.9893 C   0  0  0  0  0  0  0  0  0  0  0  0
   11.4645  -16.1039   28.3010 C   0  0  2  0  0  0  0  0  0  0  0  0
   10.6745  -16.4943   27.1727 N   0  0  0  0  0  0  0  0  0  0  0  0
   11.4917  -17.2228   29.2613 C   0  0  0  0  0  0  0  0  0  0  0  0
   12.2550  -17.1792   30.4209 O   0  0  0  0  0  0  0  0  0  0  0  0
   10.8154  -18.2635   29.0556 O   0  0  0  0  0  0  0  0  0  0  0  0
  2  1  1  6
  3  2  1  0
  4  2  1  0
  5  4  1  0
  5  6  1  1
  7  5  1  0
  8  7  2  0
  9 10  1  0
 10 12  1  0
 11 10  2  0
 12 13  1  0
 14 13  1  6
 14 16  1  0
 14 15  1  0
 15  7  1  0
 16 17  2  0
 19 18  1  1
 20 19  1  0
 20 16  1  0
 21 19  1  0
 22 21  1  0
 23 21  2  0
M  END
$$$$
