LQA.pdb
     RDKit          3D

 23 22  0  0  1  0  0  0  0  0999 V2000
    7.6195  -12.7246   27.5885 C   0  0  0  0  0  0  0  0  0  0  0  0
    6.7042  -12.2950   26.4622 C   0  0  2  0  0  0  0  0  0  0  0  0
    5.6141  -11.4576   27.0439 C   0  0  0  0  0  0  0  0  0  0  0  0
    6.2140  -13.4789   25.6643 C   0  0  0  0  0  0  0  0  0  0  0  0
    7.2745  -14.5423   25.5803 C   0  0  2  0  0  0  0  0  0  0  0  0
    8.5270  -13.9411   25.9886 N   0  0  0  0  0  0  0  0  0  0  0  0
    7.4087  -15.0442   24.2182 C   0  0  0  0  0  0  0  0  0  0  0  0
    6.4895  -15.7287   23.7077 O   0  0  0  0  0  0  0  0  0  0  0  0
    9.2126  -13.7522   18.4798 N   0  0  0  0  0  0  0  0  0  0  0  0
    7.9700  -13.4863   19.0971 C   0  0  0  0  0  0  0  0  0  0  0  0
    7.0905  -12.9170   18.3853 O   0  0  0  0  0  0  0  0  0  0  0  0
    7.7257  -13.8652   20.5181 C   0  0  0  0  0  0  0  0  0  0  0  0
    8.9957  -14.4956   21.0360 C   0  0  0  0  0  0  0  0  0  0  0  0
    8.7591  -15.4867   22.1279 C   0  0  2  0  0  0  0  0  0  0  0  0
    8.5511  -14.8073   23.3876 N   0  0  0  0  0  0  0  0  0  0  0  0
    9.7895  -16.5044   22.2782 C   0  0  0  0  0  0  0  0  0  0  0  0
   10.0664  -17.2156   21.2824 O   0  0  0  0  0  0  0  0  0  0  0  0
   12.7456  -17.2687   24.3731 C   0  0  0  0  0  0  0  0  0  0  0  0
   11.5528  -17.7386   23.6025 C   0  0  2  0  0  0  0  0  0  0  0  0
   10.5145  -16.7617   23.4705 N   0  0  0  0  0  0  0  0  0  0  0  0
   10.9870  -18.9361   24.2510 C   0  0  0  0  0  0  0  0  0  0  0  0
    9.6844  -18.9664   24.7325 O   0  0  0  0  0  0  0  0  0  0  0  0
   11.6766  -19.9792   24.3890 O   0  0  0  0  0  0  0  0  0  0  0  0
  2  1  1  1
  3  2  1  0
  4  2  1  0
  5  4  1  0
  5  6  1  6
  7  5  1  0
  8  7  2  0
  9 10  1  0
 10 12  1  0
 11 10  2  0
 12 13  1  0
 14 13  1  6
 14 16  1  0
 14 15  1  0
 15  7  1  0
 16 17  2  0
 19 18  1  1
 20 19  1  0
 20 16  1  0
 21 19  1  0
 22 21  1  0
 23 21  2  0
M  END
$$$$
