KVF.pdb
     RDKit          3D

 28 28  0  0  1  0  0  0  0  0999 V2000
   22.4023  -22.1621  -14.5129 N   0  0  0  0  0  0  0  0  0  0  0  0
   22.8552  -21.1413  -13.6370 C   0  0  1  0  0  0  0  0  0  0  0  0
   21.7860  -20.4811  -12.8194 C   0  0  0  0  0  0  0  0  0  0  0  0
   20.6916  -19.8216  -13.5691 C   0  0  0  0  0  0  0  0  0  0  0  0
   21.0111  -18.5094  -14.1973 C   0  0  0  0  0  0  0  0  0  0  0  0
   19.8094  -17.9069  -14.8939 C   0  0  0  0  0  0  0  0  0  0  0  0
   18.6847  -17.7432  -13.9982 N   0  0  0  0  0  0  0  0  0  0  0  0
   24.0428  -21.4980  -12.8084 C   0  0  0  0  0  0  0  0  0  0  0  0
   24.0078  -22.5236  -12.0497 O   0  0  0  0  0  0  0  0  0  0  0  0
   27.7728  -19.1929  -12.4692 C   0  0  0  0  0  0  0  0  0  0  0  0
   27.7051  -20.7191  -12.5178 C   0  0  1  0  0  0  0  0  0  0  0  0
   28.8821  -21.2369  -11.7405 C   0  0  0  0  0  0  0  0  0  0  0  0
   26.3905  -21.1787  -11.9702 C   0  0  2  0  0  0  0  0  0  0  0  0
   25.2520  -20.7806  -12.7790 N   0  0  0  0  0  0  0  0  0  0  0  0
   26.2497  -20.6503  -10.5726 C   0  0  0  0  0  0  0  0  0  0  0  0
   25.6819  -19.5515  -10.3541 O   0  0  0  0  0  0  0  0  0  0  0  0
   26.7453  -21.3595   -9.4465 N   0  0  0  0  0  0  0  0  0  0  0  0
   26.8702  -20.7184   -8.1324 C   0  0  1  0  0  0  0  0  0  0  0  0
   27.7561  -21.5704   -7.2273 C   0  0  0  0  0  0  0  0  0  0  0  0
   28.1065  -20.8189   -5.9901 C   0  0  0  0  0  0  0  0  0  0  0  0
   29.2261  -20.0237   -5.9535 C   0  0  0  0  0  0  0  0  0  0  0  0
   29.5581  -19.3175   -4.8062 C   0  0  0  0  0  0  0  0  0  0  0  0
   28.7618  -19.4077   -3.6837 C   0  0  0  0  0  0  0  0  0  0  0  0
   27.6218  -20.2140   -3.7117 C   0  0  0  0  0  0  0  0  0  0  0  0
   27.3113  -20.9080   -4.8660 C   0  0  0  0  0  0  0  0  0  0  0  0
   27.3820  -19.3457   -8.2493 C   0  0  0  0  0  0  0  0  0  0  0  0
   28.4382  -19.1235   -8.8873 O   0  0  0  0  0  0  0  0  0  0  0  0
   26.7285  -18.2733   -7.6711 O   0  0  0  0  0  0  0  0  0  0  0  0
  2  1  1  1
  2  3  1  0
  4  3  1  0
  4  5  1  0
  6  5  1  0
  6  7  1  0
  8  2  1  0
  9  8  2  0
 11 10  1  1
 11 12  1  0
 11 13  1  0
 13 14  1  6
 14  8  1  0
 15 13  1  0
 15 16  2  0
 17 15  1  0
 18 17  1  0
 18 19  1  1
 20 19  1  0
 20 21  2  0
 22 21  1  0
 23 22  2  0
 24 25  2  0
 24 23  1  0
 25 20  1  0
 26 18  1  0
 27 26  2  0
 28 26  1  0
M  END
$$$$
