KVF.pdb
     RDKit          3D

 28 28  0  0  1  0  0  0  0  0999 V2000
   22.4772  -22.6426  -15.1125 N   0  0  0  0  0  0  0  0  0  0  0  0
   22.6553  -21.8285  -13.9636 C   0  0  1  0  0  0  0  0  0  0  0  0
   21.6249  -22.0067  -12.8894 C   0  0  0  0  0  0  0  0  0  0  0  0
   20.2565  -21.5307  -13.1988 C   0  0  0  0  0  0  0  0  0  0  0  0
   19.2216  -22.5784  -13.4224 C   0  0  0  0  0  0  0  0  0  0  0  0
   18.9658  -23.3977  -12.1752 C   0  0  0  0  0  0  0  0  0  0  0  0
   17.9309  -24.3890  -12.3762 N   0  0  0  0  0  0  0  0  0  0  0  0
   24.0381  -21.8137  -13.4055 C   0  0  0  0  0  0  0  0  0  0  0  0
   24.6962  -22.9020  -13.2996 O   0  0  0  0  0  0  0  0  0  0  0  0
   28.2995  -19.7901  -12.0746 C   0  0  0  0  0  0  0  0  0  0  0  0
   26.9696  -19.6655  -12.8177 C   0  0  1  0  0  0  0  0  0  0  0  0
   27.2719  -19.7875  -14.2844 C   0  0  0  0  0  0  0  0  0  0  0  0
   26.0212  -20.7123  -12.3236 C   0  0  2  0  0  0  0  0  0  0  0  0
   24.7181  -20.6651  -12.9625 N   0  0  0  0  0  0  0  0  0  0  0  0
   25.8810  -20.5596  -10.8372 C   0  0  0  0  0  0  0  0  0  0  0  0
   24.9231  -19.9141  -10.3440 O   0  0  0  0  0  0  0  0  0  0  0  0
   26.8130  -21.1311   -9.9308 N   0  0  0  0  0  0  0  0  0  0  0  0
   26.7745  -20.8216   -8.4969 C   0  0  1  0  0  0  0  0  0  0  0  0
   28.0592  -21.3086   -7.8316 C   0  0  0  0  0  0  0  0  0  0  0  0
   28.1365  -20.8117   -6.4298 C   0  0  0  0  0  0  0  0  0  0  0  0
   27.6177  -21.5567   -5.3986 C   0  0  0  0  0  0  0  0  0  0  0  0
   27.6884  -21.1028   -4.0893 C   0  0  0  0  0  0  0  0  0  0  0  0
   28.2843  -19.8911   -3.8085 C   0  0  0  0  0  0  0  0  0  0  0  0
   28.8140  -19.1269   -4.8505 C   0  0  0  0  0  0  0  0  0  0  0  0
   28.7320  -19.5996   -6.1467 C   0  0  0  0  0  0  0  0  0  0  0  0
   26.5564  -19.3874   -8.2612 C   0  0  0  0  0  0  0  0  0  0  0  0
   27.1520  -18.5393   -8.9666 O   0  0  0  0  0  0  0  0  0  0  0  0
   25.7030  -18.9336   -7.2726 O   0  0  0  0  0  0  0  0  0  0  0  0
  2  1  1  6
  2  3  1  0
  4  3  1  0
  4  5  1  0
  6  5  1  0
  6  7  1  0
  8  2  1  0
  9  8  2  0
 11 10  1  1
 11 12  1  0
 11 13  1  0
 13 14  1  6
 14  8  1  0
 15 13  1  0
 15 16  2  0
 17 15  1  0
 18 17  1  0
 18 19  1  6
 20 19  1  0
 20 21  2  0
 22 21  1  0
 23 22  2  0
 24 25  2  0
 24 23  1  0
 25 20  1  0
 26 18  1  0
 27 26  2  0
 28 26  1  0
M  END
$$$$
