KVF.pdb
     RDKit          3D

 28 28  0  0  1  0  0  0  0  0999 V2000
   26.0207  -18.8424  -15.8068 N   0  0  0  0  0  0  0  0  0  0  0  0
   26.8801  -19.0261  -14.6923 C   0  0  1  0  0  0  0  0  0  0  0  0
   28.0818  -18.1305  -14.6586 C   0  0  0  0  0  0  0  0  0  0  0  0
   29.1177  -18.3732  -15.6895 C   0  0  0  0  0  0  0  0  0  0  0  0
   29.0836  -17.4905  -16.8887 C   0  0  0  0  0  0  0  0  0  0  0  0
   30.3240  -16.6287  -16.9935 C   0  0  0  0  0  0  0  0  0  0  0  0
   30.3081  -15.7905  -18.1730 N   0  0  0  0  0  0  0  0  0  0  0  0
   26.1970  -19.0837  -13.3679 C   0  0  0  0  0  0  0  0  0  0  0  0
   25.5467  -18.0725  -12.9398 O   0  0  0  0  0  0  0  0  0  0  0  0
   23.5933  -21.1861   -9.9365 C   0  0  0  0  0  0  0  0  0  0  0  0
   24.3022  -21.1987  -11.2907 C   0  0  1  0  0  0  0  0  0  0  0  0
   23.2713  -20.8611  -12.3303 C   0  0  0  0  0  0  0  0  0  0  0  0
   25.4477  -20.2361  -11.2639 C   0  0  2  0  0  0  0  0  0  0  0  0
   26.2013  -20.1938  -12.5044 N   0  0  0  0  0  0  0  0  0  0  0  0
   26.3457  -20.6015  -10.1183 C   0  0  0  0  0  0  0  0  0  0  0  0
   27.0568  -21.6358  -10.1625 O   0  0  0  0  0  0  0  0  0  0  0  0
   26.4323  -19.8045   -8.9461 N   0  0  0  0  0  0  0  0  0  0  0  0
   27.1608  -20.2660   -7.7589 C   0  0  1  0  0  0  0  0  0  0  0  0
   28.0126  -19.1272   -7.2040 C   0  0  0  0  0  0  0  0  0  0  0  0
   28.5810  -19.5038   -5.8799 C   0  0  0  0  0  0  0  0  0  0  0  0
   29.6576  -20.3536   -5.8020 C   0  0  0  0  0  0  0  0  0  0  0  0
   30.1956  -20.7071   -4.5728 C   0  0  0  0  0  0  0  0  0  0  0  0
   29.6508  -20.2053   -3.4093 C   0  0  0  0  0  0  0  0  0  0  0  0
   28.5559  -19.3411   -3.4789 C   0  0  0  0  0  0  0  0  0  0  0  0
   28.0373  -19.0032   -4.7147 C   0  0  0  0  0  0  0  0  0  0  0  0
   26.2465  -20.8004   -6.7398 C   0  0  0  0  0  0  0  0  0  0  0  0
   26.6816  -21.5676   -5.8489 O   0  0  0  0  0  0  0  0  0  0  0  0
   24.9014  -20.4810   -6.7292 O   0  0  0  0  0  0  0  0  0  0  0  0
  2  1  1  6
  2  3  1  0
  4  3  1  0
  4  5  1  0
  6  5  1  0
  6  7  1  0
  8  2  1  0
  9  8  2  0
 11 10  1  1
 11 12  1  0
 11 13  1  0
 13 14  1  6
 14  8  1  0
 15 13  1  0
 15 16  2  0
 17 15  1  0
 18 17  1  0
 18 19  1  1
 20 19  1  0
 20 21  2  0
 22 21  1  0
 23 22  2  0
 24 25  2  0
 24 23  1  0
 25 20  1  0
 26 18  1  0
 27 26  2  0
 28 26  1  0
M  END
$$$$
