KVF.pdb
     RDKit          3D

 28 28  0  0  1  0  0  0  0  0999 V2000
   25.7278  -18.3199  -16.0449 N   0  0  0  0  0  0  0  0  0  0  0  0
   26.6174  -18.7693  -15.0343 C   0  0  1  0  0  0  0  0  0  0  0  0
   27.9242  -18.0381  -14.9633 C   0  0  0  0  0  0  0  0  0  0  0  0
   28.7357  -18.0104  -16.2023 C   0  0  0  0  0  0  0  0  0  0  0  0
   28.5253  -19.1304  -17.1615 C   0  0  0  0  0  0  0  0  0  0  0  0
   29.4382  -19.0251  -18.3647 C   0  0  0  0  0  0  0  0  0  0  0  0
   30.6497  -19.7993  -18.2000 N   0  0  0  0  0  0  0  0  0  0  0  0
   26.0075  -18.9428  -13.6845 C   0  0  0  0  0  0  0  0  0  0  0  0
   25.2678  -18.0253  -13.1948 O   0  0  0  0  0  0  0  0  0  0  0  0
   23.5065  -21.3673  -10.5075 C   0  0  0  0  0  0  0  0  0  0  0  0
   24.3597  -21.3379  -11.7753 C   0  0  1  0  0  0  0  0  0  0  0  0
   23.4266  -21.0989  -12.9285 C   0  0  0  0  0  0  0  0  0  0  0  0
   25.4140  -20.2841  -11.6438 C   0  0  2  0  0  0  0  0  0  0  0  0
   26.1773  -20.0695  -12.8603 N   0  0  0  0  0  0  0  0  0  0  0  0
   26.3257  -20.6658  -10.5144 C   0  0  0  0  0  0  0  0  0  0  0  0
   27.5504  -20.8607  -10.7137 O   0  0  0  0  0  0  0  0  0  0  0  0
   25.8521  -20.8219   -9.1848 N   0  0  0  0  0  0  0  0  0  0  0  0
   26.7751  -20.8812   -8.0455 C   0  0  1  0  0  0  0  0  0  0  0  0
   27.6130  -19.6061   -7.9963 C   0  0  0  0  0  0  0  0  0  0  0  0
   28.4135  -19.5610   -6.7413 C   0  0  0  0  0  0  0  0  0  0  0  0
   28.0540  -18.7184   -5.7175 C   0  0  0  0  0  0  0  0  0  0  0  0
   28.7922  -18.6724   -4.5435 C   0  0  0  0  0  0  0  0  0  0  0  0
   29.9016  -19.4777   -4.3920 C   0  0  0  0  0  0  0  0  0  0  0  0
   30.2746  -20.3372   -5.4277 C   0  0  0  0  0  0  0  0  0  0  0  0
   29.5238  -20.3657   -6.5878 C   0  0  0  0  0  0  0  0  0  0  0  0
   26.0577  -21.1031   -6.7821 C   0  0  0  0  0  0  0  0  0  0  0  0
   24.9072  -20.6308   -6.6241 O   0  0  0  0  0  0  0  0  0  0  0  0
   26.6166  -21.8266   -5.7449 O   0  0  0  0  0  0  0  0  0  0  0  0
  2  1  1  6
  2  3  1  0
  4  3  1  0
  4  5  1  0
  6  5  1  0
  6  7  1  0
  8  2  1  0
  9  8  2  0
 11 10  1  1
 11 12  1  0
 11 13  1  0
 13 14  1  6
 14  8  1  0
 15 13  1  0
 15 16  2  0
 17 15  1  0
 18 17  1  0
 18 19  1  1
 20 19  1  0
 20 21  2  0
 22 21  1  0
 23 22  2  0
 24 25  2  0
 24 23  1  0
 25 20  1  0
 26 18  1  0
 27 26  2  0
 28 26  1  0
M  END
$$$$
