KVF.pdb
     RDKit          3D

 28 28  0  0  1  0  0  0  0  0999 V2000
   25.6643  -23.7737  -16.6712 N   0  0  0  0  0  0  0  0  0  0  0  0
   25.0854  -23.7174  -15.3766 C   0  0  1  0  0  0  0  0  0  0  0  0
   24.9125  -25.0423  -14.6967 C   0  0  0  0  0  0  0  0  0  0  0  0
   24.0588  -26.0355  -15.3891 C   0  0  0  0  0  0  0  0  0  0  0  0
   23.8254  -27.3237  -14.6786 C   0  0  0  0  0  0  0  0  0  0  0  0
   22.9679  -28.2713  -15.4903 C   0  0  0  0  0  0  0  0  0  0  0  0
   22.6701  -29.4906  -14.7701 N   0  0  0  0  0  0  0  0  0  0  0  0
   25.6777  -22.7000  -14.4611 C   0  0  0  0  0  0  0  0  0  0  0  0
   26.8684  -22.2830  -14.6539 O   0  0  0  0  0  0  0  0  0  0  0  0
   25.1289  -18.5613  -12.0788 C   0  0  0  0  0  0  0  0  0  0  0  0
   24.5727  -19.7571  -12.8516 C   0  0  1  0  0  0  0  0  0  0  0  0
   24.4167  -19.3230  -14.2816 C   0  0  0  0  0  0  0  0  0  0  0  0
   25.4906  -20.9277  -12.6891 C   0  0  2  0  0  0  0  0  0  0  0  0
   25.0229  -22.1307  -13.3543 N   0  0  0  0  0  0  0  0  0  0  0  0
   25.6789  -21.1808  -11.2218 C   0  0  0  0  0  0  0  0  0  0  0  0
   24.8257  -21.8279  -10.5656 O   0  0  0  0  0  0  0  0  0  0  0  0
   26.8165  -20.7065  -10.5163 N   0  0  0  0  0  0  0  0  0  0  0  0
   26.9213  -20.8349   -9.0582 C   0  0  1  0  0  0  0  0  0  0  0  0
   28.2311  -20.2132   -8.5806 C   0  0  0  0  0  0  0  0  0  0  0  0
   28.2980  -20.2266   -7.0929 C   0  0  0  0  0  0  0  0  0  0  0  0
   28.9002  -21.2706   -6.4335 C   0  0  0  0  0  0  0  0  0  0  0  0
   28.9699  -21.2895   -5.0479 C   0  0  0  0  0  0  0  0  0  0  0  0
   28.4317  -20.2531   -4.3140 C   0  0  0  0  0  0  0  0  0  0  0  0
   27.8173  -19.1878   -4.9759 C   0  0  0  0  0  0  0  0  0  0  0  0
   27.7599  -19.1909   -6.3568 C   0  0  0  0  0  0  0  0  0  0  0  0
   25.7627  -20.2367   -8.3802 C   0  0  0  0  0  0  0  0  0  0  0  0
   25.3474  -19.1066   -8.7298 O   0  0  0  0  0  0  0  0  0  0  0  0
   25.1037  -20.8877   -7.3538 O   0  0  0  0  0  0  0  0  0  0  0  0
  2  1  1  6
  2  3  1  0
  4  3  1  0
  4  5  1  0
  6  5  1  0
  6  7  1  0
  8  2  1  0
  9  8  2  0
 11 10  1  1
 11 12  1  0
 11 13  1  0
 13 14  1  6
 14  8  1  0
 15 13  1  0
 15 16  2  0
 17 15  1  0
 18 17  1  0
 18 19  1  1
 20 19  1  0
 20 21  2  0
 22 21  1  0
 23 22  2  0
 24 25  2  0
 24 23  1  0
 25 20  1  0
 26 18  1  0
 27 26  2  0
 28 26  1  0
M  END
$$$$
