KVF.pdb
     RDKit          3D

 28 28  0  0  1  0  0  0  0  0999 V2000
   21.9809  -20.5719  -14.9705 N   0  0  0  0  0  0  0  0  0  0  0  0
   22.6443  -19.7596  -14.0142 C   0  0  1  0  0  0  0  0  0  0  0  0
   21.7509  -19.1028  -13.0053 C   0  0  0  0  0  0  0  0  0  0  0  0
   21.0702  -17.8587  -13.4339 C   0  0  0  0  0  0  0  0  0  0  0  0
   20.7774  -17.7269  -14.8884 C   0  0  0  0  0  0  0  0  0  0  0  0
   20.0592  -16.4327  -15.2069 C   0  0  0  0  0  0  0  0  0  0  0  0
   20.9802  -15.3511  -15.4827 N   0  0  0  0  0  0  0  0  0  0  0  0
   23.8378  -20.3823  -13.3725 C   0  0  0  0  0  0  0  0  0  0  0  0
   23.7275  -21.5006  -12.7676 O   0  0  0  0  0  0  0  0  0  0  0  0
   28.6711  -21.0098  -12.6873 C   0  0  0  0  0  0  0  0  0  0  0  0
   27.5596  -20.2680  -13.4293 C   0  0  1  0  0  0  0  0  0  0  0  0
   27.5433  -20.7932  -14.8369 C   0  0  0  0  0  0  0  0  0  0  0  0
   26.2613  -20.4667  -12.7123 C   0  0  2  0  0  0  0  0  0  0  0  0
   25.1317  -19.8312  -13.3671 N   0  0  0  0  0  0  0  0  0  0  0  0
   26.4113  -19.9514  -11.3108 C   0  0  0  0  0  0  0  0  0  0  0  0
   26.6275  -18.7335  -11.0926 O   0  0  0  0  0  0  0  0  0  0  0  0
   26.3166  -20.8060  -10.1806 N   0  0  0  0  0  0  0  0  0  0  0  0
   26.9931  -20.4841   -8.9188 C   0  0  1  0  0  0  0  0  0  0  0  0
   26.1059  -19.5684   -8.0794 C   0  0  0  0  0  0  0  0  0  0  0  0
   26.8059  -19.1784   -6.8240 C   0  0  0  0  0  0  0  0  0  0  0  0
   27.5735  -18.0398   -6.7811 C   0  0  0  0  0  0  0  0  0  0  0  0
   28.2263  -17.6672   -5.6148 C   0  0  0  0  0  0  0  0  0  0  0  0
   28.1102  -18.4417   -4.4794 C   0  0  0  0  0  0  0  0  0  0  0  0
   27.3322  -19.6011   -4.5139 C   0  0  0  0  0  0  0  0  0  0  0  0
   26.6912  -19.9519   -5.6871 C   0  0  0  0  0  0  0  0  0  0  0  0
   27.3631  -21.6998   -8.1806 C   0  0  0  0  0  0  0  0  0  0  0  0
   26.6083  -22.7006   -8.2039 O   0  0  0  0  0  0  0  0  0  0  0  0
   28.5339  -21.7798   -7.4496 O   0  0  0  0  0  0  0  0  0  0  0  0
  2  1  1  1
  2  3  1  0
  4  3  1  0
  4  5  1  0
  6  5  1  0
  6  7  1  0
  8  2  1  0
  9  8  2  0
 11 10  1  1
 11 12  1  0
 11 13  1  0
 13 14  1  6
 14  8  1  0
 15 13  1  0
 15 16  2  0
 17 15  1  0
 18 17  1  0
 18 19  1  1
 20 19  1  0
 20 21  2  0
 22 21  1  0
 23 22  2  0
 24 25  2  0
 24 23  1  0
 25 20  1  0
 26 18  1  0
 27 26  2  0
 28 26  1  0
M  END
$$$$
