KVF.pdb
     RDKit          3D

 28 28  0  0  1  0  0  0  0  0999 V2000
   16.0345  -14.2207  -17.3194 N   0  0  0  0  0  0  0  0  0  0  0  0
   17.1744  -13.5778  -16.7701 C   0  0  1  0  0  0  0  0  0  0  0  0
   18.4946  -14.1478  -17.1938 C   0  0  0  0  0  0  0  0  0  0  0  0
   18.6922  -15.5987  -16.9690 C   0  0  0  0  0  0  0  0  0  0  0  0
   18.7168  -16.0559  -15.5516 C   0  0  0  0  0  0  0  0  0  0  0  0
   19.0255  -17.5337  -15.4380 C   0  0  0  0  0  0  0  0  0  0  0  0
   20.4012  -17.7765  -15.0604 N   0  0  0  0  0  0  0  0  0  0  0  0
   17.1636  -12.0888  -16.8528 C   0  0  0  0  0  0  0  0  0  0  0  0
   17.0256  -11.5126  -17.9831 O   0  0  0  0  0  0  0  0  0  0  0  0
   16.2351   -7.6547  -15.0404 C   0  0  0  0  0  0  0  0  0  0  0  0
   16.1330   -9.1792  -14.9995 C   0  0  1  0  0  0  0  0  0  0  0  0
   14.7396   -9.5388  -15.4316 C   0  0  0  0  0  0  0  0  0  0  0  0
   17.1918   -9.7746  -15.8733 C   0  0  2  0  0  0  0  0  0  0  0  0
   17.2988  -11.2180  -15.7568 N   0  0  0  0  0  0  0  0  0  0  0  0
   18.5022   -9.1241  -15.5384 C   0  0  0  0  0  0  0  0  0  0  0  0
   19.0896   -9.3787  -14.4579 O   0  0  0  0  0  0  0  0  0  0  0  0
   19.1310   -8.2023  -16.4169 N   0  0  0  0  0  0  0  0  0  0  0  0
   20.3911   -7.5412  -16.0585 C   0  0  1  0  0  0  0  0  0  0  0  0
   21.0690   -7.0099  -17.3188 C   0  0  0  0  0  0  0  0  0  0  0  0
   22.3433   -6.3223  -16.9703 C   0  0  0  0  0  0  0  0  0  0  0  0
   23.5227   -7.0254  -16.9250 C   0  0  0  0  0  0  0  0  0  0  0  0
   24.7149   -6.3921  -16.6045 C   0  0  0  0  0  0  0  0  0  0  0  0
   24.7276   -5.0413  -16.3263 C   0  0  0  0  0  0  0  0  0  0  0  0
   23.5334   -4.3186  -16.3696 C   0  0  0  0  0  0  0  0  0  0  0  0
   22.3582   -4.9710  -16.6914 C   0  0  0  0  0  0  0  0  0  0  0  0
   20.1775   -6.4737  -15.0712 C   0  0  0  0  0  0  0  0  0  0  0  0
   19.2116   -5.6851  -15.2010 O   0  0  0  0  0  0  0  0  0  0  0  0
   21.0182   -6.3063  -13.9865 O   0  0  0  0  0  0  0  0  0  0  0  0
  2  1  1  6
  2  3  1  0
  4  3  1  0
  4  5  1  0
  6  5  1  0
  6  7  1  0
  8  2  1  0
  9  8  2  0
 11 10  1  6
 11 12  1  0
 11 13  1  0
 13 14  1  1
 14  8  1  0
 15 13  1  0
 15 16  2  0
 17 15  1  0
 18 17  1  0
 18 19  1  6
 20 19  1  0
 20 21  2  0
 22 21  1  0
 23 22  2  0
 24 25  2  0
 24 23  1  0
 25 20  1  0
 26 18  1  0
 27 26  2  0
 28 26  1  0
M  END
$$$$
