KVF.pdb
     RDKit          3D

 28 28  0  0  1  0  0  0  0  0999 V2000
   16.0664  -13.5986  -18.0761 N   0  0  0  0  0  0  0  0  0  0  0  0
   17.1335  -13.3381  -17.1773 C   0  0  1  0  0  0  0  0  0  0  0  0
   18.2487  -14.3395  -17.2035 C   0  0  0  0  0  0  0  0  0  0  0  0
   17.8745  -15.7537  -16.9691 C   0  0  0  0  0  0  0  0  0  0  0  0
   18.2138  -16.3199  -15.6339 C   0  0  0  0  0  0  0  0  0  0  0  0
   17.9469  -17.8086  -15.5652 C   0  0  0  0  0  0  0  0  0  0  0  0
   18.3410  -18.3756  -14.2934 N   0  0  0  0  0  0  0  0  0  0  0  0
   17.6478  -11.9383  -17.1927 C   0  0  0  0  0  0  0  0  0  0  0  0
   17.8785  -11.3545  -18.3038 O   0  0  0  0  0  0  0  0  0  0  0  0
   18.3010   -7.4576  -15.3709 C   0  0  0  0  0  0  0  0  0  0  0  0
   17.5812   -8.8056  -15.4073 C   0  0  1  0  0  0  0  0  0  0  0  0
   16.2570   -8.5794  -16.0802 C   0  0  0  0  0  0  0  0  0  0  0  0
   18.4363   -9.8096  -16.1143 C   0  0  2  0  0  0  0  0  0  0  0  0
   17.9173  -11.1643  -16.0499 N   0  0  0  0  0  0  0  0  0  0  0  0
   19.8172   -9.7501  -15.5295 C   0  0  0  0  0  0  0  0  0  0  0  0
   20.1112  -10.4132  -14.5042 O   0  0  0  0  0  0  0  0  0  0  0  0
   20.8428   -8.9514  -16.1014 N   0  0  0  0  0  0  0  0  0  0  0  0
   22.2252   -9.0162  -15.6134 C   0  0  1  0  0  0  0  0  0  0  0  0
   23.0169  -10.0223  -16.4448 C   0  0  0  0  0  0  0  0  0  0  0  0
   24.4220  -10.1041  -15.9579 C   0  0  0  0  0  0  0  0  0  0  0  0
   24.7142  -10.7568  -14.7849 C   0  0  0  0  0  0  0  0  0  0  0  0
   26.0209  -10.8407  -14.3256 C   0  0  0  0  0  0  0  0  0  0  0  0
   27.0460  -10.2657  -15.0473 C   0  0  0  0  0  0  0  0  0  0  0  0
   26.7582   -9.5999  -16.2408 C   0  0  0  0  0  0  0  0  0  0  0  0
   25.4490   -9.5294  -16.6783 C   0  0  0  0  0  0  0  0  0  0  0  0
   22.8619   -7.6916  -15.6215 C   0  0  0  0  0  0  0  0  0  0  0  0
   22.7204   -6.9350  -16.6111 O   0  0  0  0  0  0  0  0  0  0  0  0
   23.6235   -7.2434  -14.5583 O   0  0  0  0  0  0  0  0  0  0  0  0
  2  1  1  6
  2  3  1  0
  4  3  1  0
  4  5  1  0
  6  5  1  0
  6  7  1  0
  8  2  1  0
  9  8  2  0
 11 10  1  6
 11 12  1  0
 11 13  1  0
 13 14  1  1
 14  8  1  0
 15 13  1  0
 15 16  2  0
 17 15  1  0
 18 17  1  0
 18 19  1  6
 20 19  1  0
 20 21  2  0
 22 21  1  0
 23 22  2  0
 24 25  2  0
 24 23  1  0
 25 20  1  0
 26 18  1  0
 27 26  2  0
 28 26  1  0
M  END
$$$$
