KVF.pdb
     RDKit          3D

 28 28  0  0  1  0  0  0  0  0999 V2000
   22.3202  -21.9650  -15.2334 N   0  0  0  0  0  0  0  0  0  0  0  0
   22.5820  -21.1275  -14.1178 C   0  0  1  0  0  0  0  0  0  0  0  0
   21.4162  -20.9000  -13.2032 C   0  0  0  0  0  0  0  0  0  0  0  0
   20.3280  -20.0374  -13.7194 C   0  0  0  0  0  0  0  0  0  0  0  0
   19.3425  -20.6824  -14.6312 C   0  0  0  0  0  0  0  0  0  0  0  0
   18.4353  -19.6677  -15.2942 C   0  0  0  0  0  0  0  0  0  0  0  0
   17.7157  -18.8656  -14.3283 N   0  0  0  0  0  0  0  0  0  0  0  0
   23.8241  -21.4523  -13.3590 C   0  0  0  0  0  0  0  0  0  0  0  0
   23.9676  -22.6056  -12.8317 O   0  0  0  0  0  0  0  0  0  0  0  0
   28.5313  -20.8004  -12.0864 C   0  0  0  0  0  0  0  0  0  0  0  0
   27.3590  -20.4257  -12.9929 C   0  0  1  0  0  0  0  0  0  0  0  0
   27.6438  -21.0131  -14.3462 C   0  0  0  0  0  0  0  0  0  0  0  0
   26.0830  -20.9253  -12.3916 C   0  0  2  0  0  0  0  0  0  0  0  0
   24.9010  -20.5707  -13.1571 N   0  0  0  0  0  0  0  0  0  0  0  0
   25.9793  -20.3929  -10.9923 C   0  0  0  0  0  0  0  0  0  0  0  0
   25.4928  -19.2564  -10.7705 O   0  0  0  0  0  0  0  0  0  0  0  0
   26.4206  -21.1401   -9.8682 N   0  0  0  0  0  0  0  0  0  0  0  0
   26.5427  -20.5261   -8.5410 C   0  0  1  0  0  0  0  0  0  0  0  0
   27.2537  -21.4885   -7.5932 C   0  0  0  0  0  0  0  0  0  0  0  0
   27.6562  -20.7827   -6.3450 C   0  0  0  0  0  0  0  0  0  0  0  0
   28.8492  -20.1042   -6.2840 C   0  0  0  0  0  0  0  0  0  0  0  0
   29.2305  -19.4412   -5.1263 C   0  0  0  0  0  0  0  0  0  0  0  0
   28.4098  -19.4569   -4.0180 C   0  0  0  0  0  0  0  0  0  0  0  0
   27.1952  -20.1443   -4.0708 C   0  0  0  0  0  0  0  0  0  0  0  0
   26.8367  -20.7974   -5.2350 C   0  0  0  0  0  0  0  0  0  0  0  0
   27.2316  -19.2297   -8.6086 C   0  0  0  0  0  0  0  0  0  0  0  0
   28.3155  -19.1283   -9.2303 O   0  0  0  0  0  0  0  0  0  0  0  0
   26.7173  -18.0994   -8.0007 O   0  0  0  0  0  0  0  0  0  0  0  0
  2  1  1  6
  2  3  1  0
  4  3  1  0
  4  5  1  0
  6  5  1  0
  6  7  1  0
  8  2  1  0
  9  8  2  0
 11 10  1  1
 11 12  1  0
 11 13  1  0
 13 14  1  6
 14  8  1  0
 15 13  1  0
 15 16  2  0
 17 15  1  0
 18 17  1  0
 18 19  1  1
 20 19  1  0
 20 21  2  0
 22 21  1  0
 23 22  2  0
 24 25  2  0
 24 23  1  0
 25 20  1  0
 26 18  1  0
 27 26  2  0
 28 26  1  0
M  END
$$$$
