KVF.pdb
     RDKit          3D

 28 28  0  0  1  0  0  0  0  0999 V2000
   18.5943  -13.8355  -18.8401 N   0  0  0  0  0  0  0  0  0  0  0  0
   18.4728  -13.0446  -17.6679 C   0  0  1  0  0  0  0  0  0  0  0  0
   19.0424  -13.6564  -16.4235 C   0  0  0  0  0  0  0  0  0  0  0  0
   18.3341  -14.8403  -15.8836 C   0  0  0  0  0  0  0  0  0  0  0  0
   19.0084  -16.1569  -16.0585 C   0  0  0  0  0  0  0  0  0  0  0  0
   18.2283  -17.2832  -15.4141 C   0  0  0  0  0  0  0  0  0  0  0  0
   18.5183  -17.4097  -14.0020 N   0  0  0  0  0  0  0  0  0  0  0  0
   18.8829  -11.6188  -17.8199 C   0  0  0  0  0  0  0  0  0  0  0  0
   19.2999  -11.1906  -18.9475 O   0  0  0  0  0  0  0  0  0  0  0  0
   17.6869   -7.2275  -17.8980 C   0  0  0  0  0  0  0  0  0  0  0  0
   17.6956   -8.7554  -17.8572 C   0  0  1  0  0  0  0  0  0  0  0  0
   17.7321   -9.2335  -19.2812 C   0  0  0  0  0  0  0  0  0  0  0  0
   18.8629   -9.2270  -17.0484 C   0  0  2  0  0  0  0  0  0  0  0  0
   18.8554  -10.6567  -16.7945 N   0  0  0  0  0  0  0  0  0  0  0  0
   18.8804   -8.4660  -15.7551 C   0  0  0  0  0  0  0  0  0  0  0  0
   17.9257   -8.5538  -14.9437 O   0  0  0  0  0  0  0  0  0  0  0  0
   19.9637   -7.6222  -15.3930 N   0  0  0  0  0  0  0  0  0  0  0  0
   20.0264   -6.9799  -14.0750 C   0  0  1  0  0  0  0  0  0  0  0  0
   21.3842   -7.2545  -13.4338 C   0  0  0  0  0  0  0  0  0  0  0  0
   22.4822   -6.8159  -14.3392 C   0  0  0  0  0  0  0  0  0  0  0  0
   22.8973   -5.5063  -14.3447 C   0  0  0  0  0  0  0  0  0  0  0  0
   23.9219   -5.0897  -15.1826 C   0  0  0  0  0  0  0  0  0  0  0  0
   24.5377   -5.9926  -16.0239 C   0  0  0  0  0  0  0  0  0  0  0  0
   24.1220   -7.3259  -16.0254 C   0  0  0  0  0  0  0  0  0  0  0  0
   23.0995   -7.7175  -15.1819 C   0  0  0  0  0  0  0  0  0  0  0  0
   19.7550   -5.5383  -14.1649 C   0  0  0  0  0  0  0  0  0  0  0  0
   19.7071   -4.9790  -15.2858 O   0  0  0  0  0  0  0  0  0  0  0  0
   19.5470   -4.7650  -13.0378 O   0  0  0  0  0  0  0  0  0  0  0  0
  2  1  1  6
  2  3  1  0
  4  3  1  0
  4  5  1  0
  6  5  1  0
  6  7  1  0
  8  2  1  0
  9  8  2  0
 11 10  1  6
 11 12  1  0
 11 13  1  0
 13 14  1  1
 14  8  1  0
 15 13  1  0
 15 16  2  0
 17 15  1  0
 18 17  1  0
 18 19  1  6
 20 19  1  0
 20 21  2  0
 22 21  1  0
 23 22  2  0
 24 25  2  0
 24 23  1  0
 25 20  1  0
 26 18  1  0
 27 26  2  0
 28 26  1  0
M  END
$$$$
