KVF.pdb
     RDKit          3D

 28 28  0  0  1  0  0  0  0  0999 V2000
   29.5457  -22.7362  -19.0448 N   0  0  0  0  0  0  0  0  0  0  0  0
   29.1320  -23.1865  -17.7640 C   0  0  1  0  0  0  0  0  0  0  0  0
   29.9698  -24.2788  -17.1704 C   0  0  0  0  0  0  0  0  0  0  0  0
   29.5648  -25.6688  -17.4841 C   0  0  0  0  0  0  0  0  0  0  0  0
   28.2071  -26.0846  -17.0342 C   0  0  0  0  0  0  0  0  0  0  0  0
   27.9251  -27.5379  -17.3518 C   0  0  0  0  0  0  0  0  0  0  0  0
   26.5638  -27.9118  -17.0339 N   0  0  0  0  0  0  0  0  0  0  0  0
   28.8486  -22.1079  -16.7739 C   0  0  0  0  0  0  0  0  0  0  0  0
   29.6096  -21.9542  -15.7610 O   0  0  0  0  0  0  0  0  0  0  0  0
   26.8168  -17.8159  -15.4489 C   0  0  0  0  0  0  0  0  0  0  0  0
   27.1513  -18.8363  -16.5367 C   0  0  1  0  0  0  0  0  0  0  0  0
   28.2139  -18.2228  -17.4040 C   0  0  0  0  0  0  0  0  0  0  0  0
   27.5802  -20.1214  -15.9014 C   0  0  2  0  0  0  0  0  0  0  0  0
   27.7745  -21.2033  -16.8502 N   0  0  0  0  0  0  0  0  0  0  0  0
   26.5569  -20.5050  -14.8728 C   0  0  0  0  0  0  0  0  0  0  0  0
   25.4764  -21.0485  -15.2113 O   0  0  0  0  0  0  0  0  0  0  0  0
   26.7605  -20.2746  -13.4863 N   0  0  0  0  0  0  0  0  0  0  0  0
   25.6988  -20.5252  -12.5048 C   0  0  1  0  0  0  0  0  0  0  0  0
   26.1279  -19.9981  -11.1380 C   0  0  0  0  0  0  0  0  0  0  0  0
   25.0497  -20.2217  -10.1353 C   0  0  0  0  0  0  0  0  0  0  0  0
   25.2673  -21.0360   -9.0505 C   0  0  0  0  0  0  0  0  0  0  0  0
   24.2695  -21.2472   -8.1097 C   0  0  0  0  0  0  0  0  0  0  0  0
   23.0410  -20.6374   -8.2557 C   0  0  0  0  0  0  0  0  0  0  0  0
   22.8107  -19.8082   -9.3556 C   0  0  0  0  0  0  0  0  0  0  0  0
   23.8199  -19.6128  -10.2795 C   0  0  0  0  0  0  0  0  0  0  0  0
   24.4211  -19.9377  -12.9316 C   0  0  0  0  0  0  0  0  0  0  0  0
   23.3587  -20.5918  -12.8075 O   0  0  0  0  0  0  0  0  0  0  0  0
   24.3486  -18.6679  -13.4737 O   0  0  0  0  0  0  0  0  0  0  0  0
  2  1  1  6
  2  3  1  0
  4  3  1  0
  4  5  1  0
  6  5  1  0
  6  7  1  0
  8  2  1  0
  9  8  2  0
 11 10  1  1
 11 12  1  0
 11 13  1  0
 13 14  1  6
 14  8  1  0
 15 13  1  0
 15 16  2  0
 17 15  1  0
 18 17  1  0
 18 19  1  1
 20 19  1  0
 20 21  2  0
 22 21  1  0
 23 22  2  0
 24 25  2  0
 24 23  1  0
 25 20  1  0
 26 18  1  0
 27 26  2  0
 28 26  1  0
M  END
$$$$
