GEF.pdb
     RDKit          3D

 25 25  0  0  1  0  0  0  0  0999 V2000
   20.0283   -4.8853  -22.5708 N   0  0  0  0  0  0  0  0  0  0  0  0
   19.2829   -5.2337  -21.3840 C   0  0  0  0  0  0  0  0  0  0  0  0
   20.0463   -4.8351  -20.1439 C   0  0  0  0  0  0  0  0  0  0  0  0
   21.2815   -5.0580  -20.0995 O   0  0  0  0  0  0  0  0  0  0  0  0
   19.3684   -4.2250  -19.0655 N   0  0  0  0  0  0  0  0  0  0  0  0
   19.8975   -3.8855  -17.7877 C   0  0  1  0  0  0  0  0  0  0  0  0
   19.0631   -2.8721  -17.0036 C   0  0  0  0  0  0  0  0  0  0  0  0
   19.6498   -2.4386  -15.7115 C   0  0  0  0  0  0  0  0  0  0  0  0
   18.7930   -1.4351  -14.9938 C   0  0  0  0  0  0  0  0  0  0  0  0
   17.7790   -1.7012  -14.3340 O   0  0  0  0  0  0  0  0  0  0  0  0
   20.2673   -4.9942  -16.9156 C   0  0  0  0  0  0  0  0  0  0  0  0
   19.4155   -5.8630  -16.5969 O   0  0  0  0  0  0  0  0  0  0  0  0
   19.2062   -0.1028  -15.1030 O   0  0  0  0  0  0  0  0  0  0  0  0
   21.5748   -5.1824  -16.3699 N   0  0  0  0  0  0  0  0  0  0  0  0
   21.9251   -6.3679  -15.5814 C   0  0  1  0  0  0  0  0  0  0  0  0
   22.9744   -7.1017  -16.3723 C   0  0  0  0  0  0  0  0  0  0  0  0
   23.5163   -8.3035  -15.7242 C   0  0  0  0  0  0  0  0  0  0  0  0
   22.7287   -9.4064  -15.4614 C   0  0  0  0  0  0  0  0  0  0  0  0
   23.3197  -10.5026  -14.8580 C   0  0  0  0  0  0  0  0  0  0  0  0
   24.6591  -10.5104  -14.5212 C   0  0  0  0  0  0  0  0  0  0  0  0
   25.4418   -9.4142  -14.7825 C   0  0  0  0  0  0  0  0  0  0  0  0
   24.8540   -8.3079  -15.3894 C   0  0  0  0  0  0  0  0  0  0  0  0
   22.5128   -5.9647  -14.2869 C   0  0  0  0  0  0  0  0  0  0  0  0
   22.3752   -6.8203  -13.2048 O   0  0  0  0  0  0  0  0  0  0  0  0
   23.1330   -4.8901  -14.1018 O   0  0  0  0  0  0  0  0  0  0  0  0
  1  2  1  0
  3  2  1  0
  3  4  2  0
  5  3  1  0
  6  5  1  0
  6 11  1  0
  6  7  1  1
  8  7  1  0
  9  8  1  0
 10  9  2  0
 11 14  1  0
 11 12  2  0
 13  9  1  0
 14 15  1  0
 15 16  1  6
 17 16  1  0
 18 17  2  0
 19 20  2  0
 19 18  1  0
 20 21  1  0
 21 22  2  0
 22 17  1  0
 23 15  1  0
 23 24  1  0
 25 23  2  0
M  END
$$$$
