GEF.pdb
     RDKit          3D

 25 25  0  0  1  0  0  0  0  0999 V2000
   27.3063  -21.2395  -15.5520 N   0  0  0  0  0  0  0  0  0  0  0  0
   28.0154  -20.2654  -14.7558 C   0  0  0  0  0  0  0  0  0  0  0  0
   27.2286  -19.9241  -13.5131 C   0  0  0  0  0  0  0  0  0  0  0  0
   27.5173  -18.8743  -12.8872 O   0  0  0  0  0  0  0  0  0  0  0  0
   26.1927  -20.7799  -13.0787 N   0  0  0  0  0  0  0  0  0  0  0  0
   25.3825  -20.6418  -11.9157 C   0  0  1  0  0  0  0  0  0  0  0  0
   23.9928  -21.2690  -12.0315 C   0  0  0  0  0  0  0  0  0  0  0  0
   23.1417  -20.7185  -13.1150 C   0  0  0  0  0  0  0  0  0  0  0  0
   21.6750  -20.8163  -12.8061 C   0  0  0  0  0  0  0  0  0  0  0  0
   20.8745  -21.5773  -13.3670 O   0  0  0  0  0  0  0  0  0  0  0  0
   25.9880  -21.0248  -10.6456 C   0  0  0  0  0  0  0  0  0  0  0  0
   26.3737  -22.2070  -10.4568 O   0  0  0  0  0  0  0  0  0  0  0  0
   21.2137  -19.9632  -11.7976 O   0  0  0  0  0  0  0  0  0  0  0  0
   26.1875  -20.1282   -9.5506 N   0  0  0  0  0  0  0  0  0  0  0  0
   26.7526  -20.5742   -8.2733 C   0  0  1  0  0  0  0  0  0  0  0  0
   27.5076  -19.3976   -7.7158 C   0  0  0  0  0  0  0  0  0  0  0  0
   28.1001  -19.6095   -6.3884 C   0  0  0  0  0  0  0  0  0  0  0  0
   27.6062  -18.9819   -5.2624 C   0  0  0  0  0  0  0  0  0  0  0  0
   28.2149  -19.2446   -4.0477 C   0  0  0  0  0  0  0  0  0  0  0  0
   29.2880  -20.1081   -3.9463 C   0  0  0  0  0  0  0  0  0  0  0  0
   29.7788  -20.7320   -5.0655 C   0  0  0  0  0  0  0  0  0  0  0  0
   29.1712  -20.4725   -6.2908 C   0  0  0  0  0  0  0  0  0  0  0  0
   25.6699  -20.9238   -7.3303 C   0  0  0  0  0  0  0  0  0  0  0  0
   25.9714  -21.7450   -6.2548 O   0  0  0  0  0  0  0  0  0  0  0  0
   24.4865  -20.5228   -7.4404 O   0  0  0  0  0  0  0  0  0  0  0  0
  1  2  1  0
  3  2  1  0
  3  4  2  0
  5  3  1  0
  6  5  1  0
  6 11  1  0
  6  7  1  6
  8  7  1  0
  9  8  1  0
 10  9  2  0
 11 14  1  0
 11 12  2  0
 13  9  1  0
 14 15  1  0
 15 16  1  1
 17 16  1  0
 18 17  2  0
 19 20  2  0
 19 18  1  0
 20 21  1  0
 21 22  2  0
 22 17  1  0
 23 15  1  0
 23 24  1  0
 25 23  2  0
M  END
$$$$
