GEF.pdb
     RDKit          3D

 25 25  0  0  1  0  0  0  0  0999 V2000
   20.3019  -13.3990  -17.0730 N   0  0  0  0  0  0  0  0  0  0  0  0
   19.6867  -12.3474  -16.2976 C   0  0  0  0  0  0  0  0  0  0  0  0
   20.3292  -11.0166  -16.6073 C   0  0  0  0  0  0  0  0  0  0  0  0
   21.4985  -11.0047  -17.0653 O   0  0  0  0  0  0  0  0  0  0  0  0
   19.6144   -9.8200  -16.3802 N   0  0  0  0  0  0  0  0  0  0  0  0
   20.0280   -8.4909  -16.6811 C   0  0  1  0  0  0  0  0  0  0  0  0
   18.8821   -7.5124  -16.9406 C   0  0  0  0  0  0  0  0  0  0  0  0
   18.0945   -7.7767  -18.1700 C   0  0  0  0  0  0  0  0  0  0  0  0
   16.9900   -6.7799  -18.3760 C   0  0  0  0  0  0  0  0  0  0  0  0
   16.7463   -5.8179  -17.6346 O   0  0  0  0  0  0  0  0  0  0  0  0
   20.9941   -7.8836  -15.7731 C   0  0  0  0  0  0  0  0  0  0  0  0
   20.8263   -7.9527  -14.5284 O   0  0  0  0  0  0  0  0  0  0  0  0
   16.1938   -6.9885  -19.5075 O   0  0  0  0  0  0  0  0  0  0  0  0
   22.1662   -7.1862  -16.2001 N   0  0  0  0  0  0  0  0  0  0  0  0
   23.0855   -6.5547  -15.2482 C   0  0  1  0  0  0  0  0  0  0  0  0
   24.4664   -6.7309  -15.8201 C   0  0  0  0  0  0  0  0  0  0  0  0
   24.9429   -8.1192  -15.8819 C   0  0  0  0  0  0  0  0  0  0  0  0
   25.4939   -8.7490  -14.7840 C   0  0  0  0  0  0  0  0  0  0  0  0
   25.9080  -10.0620  -14.9232 C   0  0  0  0  0  0  0  0  0  0  0  0
   25.7808  -10.7392  -16.1202 C   0  0  0  0  0  0  0  0  0  0  0  0
   25.2330  -10.1132  -17.2114 C   0  0  0  0  0  0  0  0  0  0  0  0
   24.8142   -8.7923  -17.0784 C   0  0  0  0  0  0  0  0  0  0  0  0
   22.8024   -5.1078  -15.1482 C   0  0  0  0  0  0  0  0  0  0  0  0
   23.3372   -4.4032  -14.0808 O   0  0  0  0  0  0  0  0  0  0  0  0
   22.1042   -4.4705  -15.9728 O   0  0  0  0  0  0  0  0  0  0  0  0
  1  2  1  0
  3  2  1  0
  3  4  2  0
  5  3  1  0
  6  5  1  0
  6 11  1  0
  6  7  1  1
  8  7  1  0
  9  8  1  0
 10  9  2  0
 11 14  1  0
 11 12  2  0
 13  9  1  0
 14 15  1  0
 15 16  1  6
 17 16  1  0
 18 17  2  0
 19 20  2  0
 19 18  1  0
 20 21  1  0
 21 22  2  0
 22 17  1  0
 23 15  1  0
 23 24  1  0
 25 23  2  0
M  END
$$$$
