GEF.pdb
     RDKit          3D

 25 25  0  0  1  0  0  0  0  0999 V2000
   27.8797  -26.7721  -16.6522 N   0  0  0  0  0  0  0  0  0  0  0  0
   26.7319  -26.2326  -17.3430 C   0  0  0  0  0  0  0  0  0  0  0  0
   26.1686  -25.0512  -16.5903 C   0  0  0  0  0  0  0  0  0  0  0  0
   26.3458  -24.9883  -15.3486 O   0  0  0  0  0  0  0  0  0  0  0  0
   25.4595  -24.0468  -17.2853 N   0  0  0  0  0  0  0  0  0  0  0  0
   24.9729  -22.8121  -16.7690 C   0  0  1  0  0  0  0  0  0  0  0  0
   24.8824  -21.6848  -17.7982 C   0  0  0  0  0  0  0  0  0  0  0  0
   24.4162  -20.3811  -17.2648 C   0  0  0  0  0  0  0  0  0  0  0  0
   25.5409  -19.4114  -17.0399 C   0  0  0  0  0  0  0  0  0  0  0  0
   25.7334  -18.7668  -15.9997 O   0  0  0  0  0  0  0  0  0  0  0  0
   23.7393  -22.8666  -15.9932 C   0  0  0  0  0  0  0  0  0  0  0  0
   22.6955  -23.3583  -16.4937 O   0  0  0  0  0  0  0  0  0  0  0  0
   26.4213  -19.2502  -18.1154 O   0  0  0  0  0  0  0  0  0  0  0  0
   23.6141  -22.3862  -14.6529 N   0  0  0  0  0  0  0  0  0  0  0  0
   22.3437  -22.4406  -13.9228 C   0  0  1  0  0  0  0  0  0  0  0  0
   22.6723  -22.9605  -12.5492 C   0  0  0  0  0  0  0  0  0  0  0  0
   23.6615  -22.1704  -11.8039 C   0  0  0  0  0  0  0  0  0  0  0  0
   25.0165  -22.4108  -11.9132 C   0  0  0  0  0  0  0  0  0  0  0  0
   25.8824  -21.6134  -11.1855 C   0  0  0  0  0  0  0  0  0  0  0  0
   25.4211  -20.6006  -10.3677 C   0  0  0  0  0  0  0  0  0  0  0  0
   24.0743  -20.3616  -10.2593 C   0  0  0  0  0  0  0  0  0  0  0  0
   23.1975  -21.1598  -10.9885 C   0  0  0  0  0  0  0  0  0  0  0  0
   21.7754  -21.0835  -13.7850 C   0  0  0  0  0  0  0  0  0  0  0  0
   20.4730  -20.9571  -13.3274 O   0  0  0  0  0  0  0  0  0  0  0  0
   22.3996  -20.0301  -14.0575 O   0  0  0  0  0  0  0  0  0  0  0  0
  1  2  1  0
  3  2  1  0
  3  4  2  0
  5  3  1  0
  6  5  1  0
  6 11  1  0
  6  7  1  6
  8  7  1  0
  9  8  1  0
 10  9  2  0
 11 14  1  0
 11 12  2  0
 13  9  1  0
 14 15  1  0
 15 16  1  1
 17 16  1  0
 18 17  2  0
 19 20  2  0
 19 18  1  0
 20 21  1  0
 21 22  2  0
 22 17  1  0
 23 15  1  0
 23 24  1  0
 25 23  2  0
M  END
$$$$
