GEF.pdb
     RDKit          3D

 25 25  0  0  1  0  0  0  0  0999 V2000
   28.3520  -18.6253  -15.8149 N   0  0  0  0  0  0  0  0  0  0  0  0
   28.4938  -19.7009  -14.8617 C   0  0  0  0  0  0  0  0  0  0  0  0
   27.6546  -19.4348  -13.6351 C   0  0  0  0  0  0  0  0  0  0  0  0
   27.8099  -18.3490  -13.0233 O   0  0  0  0  0  0  0  0  0  0  0  0
   26.7190  -20.3988  -13.1994 N   0  0  0  0  0  0  0  0  0  0  0  0
   25.8094  -20.2952  -12.1086 C   0  0  1  0  0  0  0  0  0  0  0  0
   24.4067  -20.8308  -12.3982 C   0  0  0  0  0  0  0  0  0  0  0  0
   23.3833  -20.5014  -11.3756 C   0  0  0  0  0  0  0  0  0  0  0  0
   22.0157  -21.0029  -11.7421 C   0  0  0  0  0  0  0  0  0  0  0  0
   21.7389  -21.6452  -12.7644 O   0  0  0  0  0  0  0  0  0  0  0  0
   26.2699  -20.8006  -10.8206 C   0  0  0  0  0  0  0  0  0  0  0  0
   26.6556  -21.9924  -10.7071 O   0  0  0  0  0  0  0  0  0  0  0  0
   20.9988  -20.7000  -10.8300 O   0  0  0  0  0  0  0  0  0  0  0  0
   26.3210  -20.0188   -9.6253 N   0  0  0  0  0  0  0  0  0  0  0  0
   26.8919  -20.5396   -8.3792 C   0  0  1  0  0  0  0  0  0  0  0  0
   27.3708  -19.3411   -7.6050 C   0  0  0  0  0  0  0  0  0  0  0  0
   27.9772  -19.6428   -6.3014 C   0  0  0  0  0  0  0  0  0  0  0  0
   27.3292  -19.3626   -5.1151 C   0  0  0  0  0  0  0  0  0  0  0  0
   27.9653  -19.6887   -3.9302 C   0  0  0  0  0  0  0  0  0  0  0  0
   29.2140  -20.2787   -3.9162 C   0  0  0  0  0  0  0  0  0  0  0  0
   29.8578  -20.5574   -5.0953 C   0  0  0  0  0  0  0  0  0  0  0  0
   29.2238  -20.2321   -6.2911 C   0  0  0  0  0  0  0  0  0  0  0  0
   25.8488  -21.2220   -7.5856 C   0  0  0  0  0  0  0  0  0  0  0  0
   26.2449  -22.1450   -6.6301 O   0  0  0  0  0  0  0  0  0  0  0  0
   24.6184  -21.0189   -7.7213 O   0  0  0  0  0  0  0  0  0  0  0  0
  1  2  1  0
  3  2  1  0
  3  4  2  0
  5  3  1  0
  6  5  1  0
  6 11  1  0
  6  7  1  6
  8  7  1  0
  9  8  1  0
 10  9  2  0
 11 14  1  0
 11 12  2  0
 13  9  1  0
 14 15  1  0
 15 16  1  1
 17 16  1  0
 18 17  2  0
 19 20  2  0
 19 18  1  0
 20 21  1  0
 21 22  2  0
 22 17  1  0
 23 15  1  0
 23 24  1  0
 25 23  2  0
M  END
$$$$
