GEF.pdb
     RDKit          3D

 25 25  0  0  1  0  0  0  0  0999 V2000
   11.1204  -11.3805    6.6184 N   0  0  0  0  0  0  0  0  0  0  0  0
   12.2531  -11.7911    7.4146 C   0  0  0  0  0  0  0  0  0  0  0  0
   13.5029  -11.8437    6.5691 C   0  0  0  0  0  0  0  0  0  0  0  0
   13.4420  -11.4462    5.3793 O   0  0  0  0  0  0  0  0  0  0  0  0
   14.7068  -12.3330    7.1219 N   0  0  0  0  0  0  0  0  0  0  0  0
   15.9923  -12.3678    6.5101 C   0  0  1  0  0  0  0  0  0  0  0  0
   17.1419  -11.9393    7.4226 C   0  0  0  0  0  0  0  0  0  0  0  0
   18.4621  -11.8160    6.7567 C   0  0  0  0  0  0  0  0  0  0  0  0
   19.5053  -11.2037    7.6473 C   0  0  0  0  0  0  0  0  0  0  0  0
   19.3610  -10.9536    8.8519 O   0  0  0  0  0  0  0  0  0  0  0  0
   16.3532  -13.5963    5.8122 C   0  0  0  0  0  0  0  0  0  0  0  0
   16.2480  -14.7089    6.3894 O   0  0  0  0  0  0  0  0  0  0  0  0
   20.7250  -10.9060    7.0297 O   0  0  0  0  0  0  0  0  0  0  0  0
   16.8375  -13.6415    4.4683 N   0  0  0  0  0  0  0  0  0  0  0  0
   17.1852  -14.9042    3.8090 C   0  0  1  0  0  0  0  0  0  0  0  0
   18.3012  -14.5832    2.8517 C   0  0  0  0  0  0  0  0  0  0  0  0
   18.7861  -15.7191    2.0562 C   0  0  0  0  0  0  0  0  0  0  0  0
   17.9507  -16.7498    1.6751 C   0  0  0  0  0  0  0  0  0  0  0  0
   18.4842  -17.7771    0.9167 C   0  0  0  0  0  0  0  0  0  0  0  0
   19.8136  -17.7869    0.5424 C   0  0  0  0  0  0  0  0  0  0  0  0
   20.6438  -16.7623    0.9212 C   0  0  0  0  0  0  0  0  0  0  0  0
   20.1138  -15.7256    1.6841 C   0  0  0  0  0  0  0  0  0  0  0  0
   17.6866  -15.8773    4.8016 C   0  0  0  0  0  0  0  0  0  0  0  0
   18.6219  -15.4492    5.7310 O   0  0  0  0  0  0  0  0  0  0  0  0
   17.3183  -17.0751    4.8584 O   0  0  0  0  0  0  0  0  0  0  0  0
  1  2  1  0
  3  2  1  0
  3  4  2  0
  5  3  1  0
  6  5  1  0
  6 11  1  0
  6  7  1  1
  8  7  1  0
  9  8  1  0
 10  9  2  0
 11 14  1  0
 11 12  2  0
 13  9  1  0
 14 15  1  0
 15 16  1  6
 17 16  1  0
 18 17  2  0
 19 20  2  0
 19 18  1  0
 20 21  1  0
 21 22  2  0
 22 17  1  0
 23 15  1  0
 23 24  1  0
 25 23  2  0
M  END
$$$$
