GEF.pdb
     RDKit          3D

 25 25  0  0  1  0  0  0  0  0999 V2000
   19.2561  -11.7292  -15.4891 N   0  0  0  0  0  0  0  0  0  0  0  0
   18.7714  -11.1658  -16.7274 C   0  0  0  0  0  0  0  0  0  0  0  0
   19.4911   -9.8757  -17.0391 C   0  0  0  0  0  0  0  0  0  0  0  0
   20.7364   -9.9044  -17.1990 O   0  0  0  0  0  0  0  0  0  0  0  0
   18.7621   -8.6707  -17.1450 N   0  0  0  0  0  0  0  0  0  0  0  0
   19.2668   -7.3743  -17.4491 C   0  0  1  0  0  0  0  0  0  0  0  0
   18.4674   -6.6135  -18.5075 C   0  0  0  0  0  0  0  0  0  0  0  0
   19.0399   -5.3050  -18.9092 C   0  0  0  0  0  0  0  0  0  0  0  0
   18.1751   -4.5721  -19.8946 C   0  0  0  0  0  0  0  0  0  0  0  0
   17.2223   -3.8364  -19.6026 O   0  0  0  0  0  0  0  0  0  0  0  0
   19.5414   -6.4958  -16.3180 C   0  0  0  0  0  0  0  0  0  0  0  0
   18.6409   -6.2428  -15.4771 O   0  0  0  0  0  0  0  0  0  0  0  0
   18.5038   -4.7610  -21.2415 O   0  0  0  0  0  0  0  0  0  0  0  0
   20.8043   -5.8719  -16.0764 N   0  0  0  0  0  0  0  0  0  0  0  0
   21.0653   -5.0876  -14.8653 C   0  0  1  0  0  0  0  0  0  0  0  0
   22.4126   -5.5308  -14.3619 C   0  0  0  0  0  0  0  0  0  0  0  0
   22.5009   -6.9470  -13.9816 C   0  0  0  0  0  0  0  0  0  0  0  0
   21.8310   -7.4488  -12.8838 C   0  0  0  0  0  0  0  0  0  0  0  0
   21.9583   -8.7974  -12.6008 C   0  0  0  0  0  0  0  0  0  0  0  0
   22.7300   -9.6329  -13.3843 C   0  0  0  0  0  0  0  0  0  0  0  0
   23.3956   -9.1341  -14.4755 C   0  0  0  0  0  0  0  0  0  0  0  0
   23.2721   -7.7784  -14.7661 C   0  0  0  0  0  0  0  0  0  0  0  0
   21.1397   -3.6490  -15.1947 C   0  0  0  0  0  0  0  0  0  0  0  0
   21.3072   -2.7429  -14.1590 O   0  0  0  0  0  0  0  0  0  0  0  0
   21.0606   -3.1906  -16.3597 O   0  0  0  0  0  0  0  0  0  0  0  0
  1  2  1  0
  3  2  1  0
  3  4  2  0
  5  3  1  0
  6  5  1  0
  6 11  1  0
  6  7  1  6
  8  7  1  0
  9  8  1  0
 10  9  2  0
 11 14  1  0
 11 12  2  0
 13  9  1  0
 14 15  1  0
 15 16  1  6
 17 16  1  0
 18 17  2  0
 19 20  2  0
 19 18  1  0
 20 21  1  0
 21 22  2  0
 22 17  1  0
 23 15  1  0
 23 24  1  0
 25 23  2  0
M  END
$$$$
