GEF.pdb
     RDKit          3D

 25 25  0  0  1  0  0  0  0  0999 V2000
   32.4074  -22.0705  -11.2951 N   0  0  0  0  0  0  0  0  0  0  0  0
   31.2135  -22.3809  -12.0460 C   0  0  0  0  0  0  0  0  0  0  0  0
   30.1405  -21.3516  -11.7829 C   0  0  0  0  0  0  0  0  0  0  0  0
   30.2111  -20.6627  -10.7352 O   0  0  0  0  0  0  0  0  0  0  0  0
   29.0866  -21.1812  -12.7074 N   0  0  0  0  0  0  0  0  0  0  0  0
   27.9574  -20.3218  -12.5882 C   0  0  1  0  0  0  0  0  0  0  0  0
   27.4227  -19.7874  -13.9174 C   0  0  0  0  0  0  0  0  0  0  0  0
   28.4398  -19.1667  -14.8015 C   0  0  0  0  0  0  0  0  0  0  0  0
   27.8623  -18.6896  -16.1034 C   0  0  0  0  0  0  0  0  0  0  0  0
   27.5897  -19.4110  -17.0728 O   0  0  0  0  0  0  0  0  0  0  0  0
   26.8487  -20.8051  -11.7735 C   0  0  0  0  0  0  0  0  0  0  0  0
   26.3587  -21.9450  -11.9799 O   0  0  0  0  0  0  0  0  0  0  0  0
   27.6274  -17.3130  -16.1897 O   0  0  0  0  0  0  0  0  0  0  0  0
   26.2475  -20.0574  -10.7143 N   0  0  0  0  0  0  0  0  0  0  0  0
   25.2202  -20.6338   -9.8412 C   0  0  1  0  0  0  0  0  0  0  0  0
   25.1990  -19.7819   -8.6006 C   0  0  0  0  0  0  0  0  0  0  0  0
   26.3871  -19.8980   -7.7446 C   0  0  0  0  0  0  0  0  0  0  0  0
   27.0874  -21.0820   -7.6283 C   0  0  0  0  0  0  0  0  0  0  0  0
   28.2027  -21.1038   -6.8093 C   0  0  0  0  0  0  0  0  0  0  0  0
   28.6181  -19.9815   -6.1199 C   0  0  0  0  0  0  0  0  0  0  0  0
   27.9220  -18.8047   -6.2357 C   0  0  0  0  0  0  0  0  0  0  0  0
   26.7992  -18.7754   -7.0579 C   0  0  0  0  0  0  0  0  0  0  0  0
   23.8943  -20.5498  -10.4883 C   0  0  0  0  0  0  0  0  0  0  0  0
   22.8214  -21.1812   -9.8784 O   0  0  0  0  0  0  0  0  0  0  0  0
   23.6747  -19.9396  -11.5620 O   0  0  0  0  0  0  0  0  0  0  0  0
  1  2  1  0
  3  2  1  0
  3  4  2  0
  5  3  1  0
  6  5  1  0
  6 11  1  0
  6  7  1  6
  8  7  1  0
  9  8  1  0
 10  9  2  0
 11 14  1  0
 11 12  2  0
 13  9  1  0
 14 15  1  0
 15 16  1  1
 17 16  1  0
 18 17  2  0
 19 20  2  0
 19 18  1  0
 20 21  1  0
 21 22  2  0
 22 17  1  0
 23 15  1  0
 23 24  1  0
 25 23  2  0
M  END
$$$$
