GEF.pdb
     RDKit          3D

 25 25  0  0  1  0  0  0  0  0999 V2000
   28.0270  -20.8290  -16.4978 N   0  0  0  0  0  0  0  0  0  0  0  0
   28.2532  -21.3400  -15.1661 C   0  0  0  0  0  0  0  0  0  0  0  0
   27.3786  -20.6203  -14.1677 C   0  0  0  0  0  0  0  0  0  0  0  0
   27.0698  -19.4235  -14.3904 O   0  0  0  0  0  0  0  0  0  0  0  0
   26.9264  -21.2953  -13.0126 N   0  0  0  0  0  0  0  0  0  0  0  0
   25.8758  -20.9049  -12.1340 C   0  0  1  0  0  0  0  0  0  0  0  0
   24.4764  -21.3110  -12.5974 C   0  0  0  0  0  0  0  0  0  0  0  0
   24.0324  -20.6967  -13.8730 C   0  0  0  0  0  0  0  0  0  0  0  0
   23.1787  -19.4788  -13.6633 C   0  0  0  0  0  0  0  0  0  0  0  0
   22.3363  -19.3409  -12.7656 O   0  0  0  0  0  0  0  0  0  0  0  0
   26.0412  -21.2404  -10.7245 C   0  0  0  0  0  0  0  0  0  0  0  0
   26.2398  -22.4320  -10.3744 O   0  0  0  0  0  0  0  0  0  0  0  0
   23.3802  -18.4376  -14.5760 O   0  0  0  0  0  0  0  0  0  0  0  0
   25.9939  -20.2848   -9.6628 N   0  0  0  0  0  0  0  0  0  0  0  0
   26.1576  -20.6737   -8.2586 C   0  0  1  0  0  0  0  0  0  0  0  0
   26.4826  -19.4097   -7.5092 C   0  0  0  0  0  0  0  0  0  0  0  0
   27.6234  -19.5068   -6.5887 C   0  0  0  0  0  0  0  0  0  0  0  0
   28.3712  -20.6617   -6.4759 C   0  0  0  0  0  0  0  0  0  0  0  0
   29.4369  -20.6665   -5.5931 C   0  0  0  0  0  0  0  0  0  0  0  0
   29.7578  -19.5556   -4.8379 C   0  0  0  0  0  0  0  0  0  0  0  0
   29.0146  -18.4078   -4.9502 C   0  0  0  0  0  0  0  0  0  0  0  0
   27.9412  -18.3957   -5.8364 C   0  0  0  0  0  0  0  0  0  0  0  0
   24.8902  -21.2182   -7.7285 C   0  0  0  0  0  0  0  0  0  0  0  0
   24.9352  -21.9986   -6.5836 O   0  0  0  0  0  0  0  0  0  0  0  0
   23.7675  -21.0188   -8.2512 O   0  0  0  0  0  0  0  0  0  0  0  0
  1  2  1  0
  3  2  1  0
  3  4  2  0
  5  3  1  0
  6  5  1  0
  6 11  1  0
  6  7  1  6
  8  7  1  0
  9  8  1  0
 10  9  2  0
 11 14  1  0
 11 12  2  0
 13  9  1  0
 14 15  1  0
 15 16  1  1
 17 16  1  0
 18 17  2  0
 19 20  2  0
 19 18  1  0
 20 21  1  0
 21 22  2  0
 22 17  1  0
 23 15  1  0
 23 24  1  0
 25 23  2  0
M  END
$$$$
