GEF.pdb
     RDKit          3D

 25 25  0  0  1  0  0  0  0  0999 V2000
   19.6968  -18.7540  -14.7159 N   0  0  0  0  0  0  0  0  0  0  0  0
   21.1186  -18.5163  -14.6289 C   0  0  0  0  0  0  0  0  0  0  0  0
   21.7787  -19.5662  -13.7677 C   0  0  0  0  0  0  0  0  0  0  0  0
   21.1063  -20.1056  -12.8543 O   0  0  0  0  0  0  0  0  0  0  0  0
   23.1257  -19.9217  -13.9993 N   0  0  0  0  0  0  0  0  0  0  0  0
   23.8816  -20.9348  -13.3433 C   0  0  1  0  0  0  0  0  0  0  0  0
   24.2989  -22.0988  -14.2427 C   0  0  0  0  0  0  0  0  0  0  0  0
   24.8414  -23.2819  -13.5303 C   0  0  0  0  0  0  0  0  0  0  0  0
   25.1500  -24.4241  -14.4556 C   0  0  0  0  0  0  0  0  0  0  0  0
   25.5633  -25.5380  -14.1050 O   0  0  0  0  0  0  0  0  0  0  0  0
   25.0249  -20.4920  -12.5538 C   0  0  0  0  0  0  0  0  0  0  0  0
   25.9054  -19.7560  -13.0687 O   0  0  0  0  0  0  0  0  0  0  0  0
   24.9414  -24.1707  -15.8158 O   0  0  0  0  0  0  0  0  0  0  0  0
   25.2360  -20.8410  -11.1841 N   0  0  0  0  0  0  0  0  0  0  0  0
   26.4285  -20.4115  -10.4469 C   0  0  1  0  0  0  0  0  0  0  0  0
   26.2437  -20.8947   -9.0336 C   0  0  0  0  0  0  0  0  0  0  0  0
   27.2350  -20.3974   -8.0703 C   0  0  0  0  0  0  0  0  0  0  0  0
   27.0771  -19.1889   -7.4220 C   0  0  0  0  0  0  0  0  0  0  0  0
   28.0520  -18.7985   -6.5207 C   0  0  0  0  0  0  0  0  0  0  0  0
   29.1588  -19.5839   -6.2646 C   0  0  0  0  0  0  0  0  0  0  0  0
   29.3156  -20.7851   -6.9089 C   0  0  0  0  0  0  0  0  0  0  0  0
   28.3388  -21.1841   -7.8168 C   0  0  0  0  0  0  0  0  0  0  0  0
   27.6346  -21.0558  -11.0069 C   0  0  0  0  0  0  0  0  0  0  0  0
   27.5334  -22.3605  -11.4646 O   0  0  0  0  0  0  0  0  0  0  0  0
   28.7531  -20.4948  -11.0959 O   0  0  0  0  0  0  0  0  0  0  0  0
  1  2  1  0
  3  2  1  0
  3  4  2  0
  5  3  1  0
  6  5  1  0
  6 11  1  0
  6  7  1  6
  8  7  1  0
  9  8  1  0
 10  9  2  0
 11 14  1  0
 11 12  2  0
 13  9  1  0
 14 15  1  0
 15 16  1  1
 17 16  1  0
 18 17  2  0
 19 20  2  0
 19 18  1  0
 20 21  1  0
 21 22  2  0
 22 17  1  0
 23 15  1  0
 23 24  1  0
 25 23  2  0
M  END
$$$$
