GEF.pdb
     RDKit          3D

 25 25  0  0  1  0  0  0  0  0999 V2000
   16.2069  -13.0882  -17.7783 N   0  0  0  0  0  0  0  0  0  0  0  0
   16.3105  -12.1150  -16.7164 C   0  0  0  0  0  0  0  0  0  0  0  0
   17.4403  -11.1515  -16.9904 C   0  0  0  0  0  0  0  0  0  0  0  0
   18.3721  -11.5164  -17.7491 O   0  0  0  0  0  0  0  0  0  0  0  0
   17.4324   -9.8701  -16.3965 N   0  0  0  0  0  0  0  0  0  0  0  0
   18.4399   -8.8673  -16.4817 C   0  0  1  0  0  0  0  0  0  0  0  0
   17.9591   -7.4541  -16.1504 C   0  0  0  0  0  0  0  0  0  0  0  0
   18.9717   -6.3852  -16.3340 C   0  0  0  0  0  0  0  0  0  0  0  0
   18.4242   -5.0145  -16.0556 C   0  0  0  0  0  0  0  0  0  0  0  0
   18.6126   -4.0120  -16.7586 O   0  0  0  0  0  0  0  0  0  0  0  0
   19.6917   -9.1347  -15.7833 C   0  0  0  0  0  0  0  0  0  0  0  0
   19.6841   -9.4595  -14.5681 O   0  0  0  0  0  0  0  0  0  0  0  0
   17.6435   -4.9010  -14.9001 O   0  0  0  0  0  0  0  0  0  0  0  0
   20.9820   -9.0544  -16.3927 N   0  0  0  0  0  0  0  0  0  0  0  0
   22.2102   -9.3740  -15.6583 C   0  0  1  0  0  0  0  0  0  0  0  0
   23.2450   -9.7084  -16.6986 C   0  0  0  0  0  0  0  0  0  0  0  0
   24.5638  -10.0801  -16.1688 C   0  0  0  0  0  0  0  0  0  0  0  0
   24.7950  -11.3122  -15.5908 C   0  0  0  0  0  0  0  0  0  0  0  0
   26.0692  -11.5876  -15.1265 C   0  0  0  0  0  0  0  0  0  0  0  0
   27.0934  -10.6669  -15.2305 C   0  0  0  0  0  0  0  0  0  0  0  0
   26.8636   -9.4423  -15.8052 C   0  0  0  0  0  0  0  0  0  0  0  0
   25.5842   -9.1586  -16.2745 C   0  0  0  0  0  0  0  0  0  0  0  0
   22.6740   -8.1931  -14.9007 C   0  0  0  0  0  0  0  0  0  0  0  0
   23.1334   -8.3787  -13.6059 O   0  0  0  0  0  0  0  0  0  0  0  0
   22.6792   -7.0244  -15.3564 O   0  0  0  0  0  0  0  0  0  0  0  0
  1  2  1  0
  3  2  1  0
  3  4  2  0
  5  3  1  0
  6  5  1  0
  6 11  1  0
  6  7  1  1
  8  7  1  0
  9  8  1  0
 10  9  2  0
 11 14  1  0
 11 12  2  0
 13  9  1  0
 14 15  1  0
 15 16  1  6
 17 16  1  0
 18 17  2  0
 19 20  2  0
 19 18  1  0
 20 21  1  0
 21 22  2  0
 22 17  1  0
 23 15  1  0
 23 24  1  0
 25 23  2  0
M  END
$$$$
