GEF.pdb
     RDKit          3D

 25 25  0  0  1  0  0  0  0  0999 V2000
   14.8328  -22.8276   -1.2648 N   0  0  0  0  0  0  0  0  0  0  0  0
   14.9116  -23.0689    0.1568 C   0  0  0  0  0  0  0  0  0  0  0  0
   14.7373  -21.7794    0.9227 C   0  0  0  0  0  0  0  0  0  0  0  0
   14.4399  -20.7375    0.2877 O   0  0  0  0  0  0  0  0  0  0  0  0
   14.9093  -21.7644    2.3244 N   0  0  0  0  0  0  0  0  0  0  0  0
   14.7105  -20.6686    3.2120 C   0  0  1  0  0  0  0  0  0  0  0  0
   14.1812  -21.0576    4.5928 C   0  0  0  0  0  0  0  0  0  0  0  0
   12.7542  -21.4624    4.6292 C   0  0  0  0  0  0  0  0  0  0  0  0
   12.2804  -21.7912    6.0161 C   0  0  0  0  0  0  0  0  0  0  0  0
   12.9760  -21.7452    7.0400 O   0  0  0  0  0  0  0  0  0  0  0  0
   15.8202  -19.7340    3.3586 C   0  0  0  0  0  0  0  0  0  0  0  0
   17.0039  -20.1565    3.4084 O   0  0  0  0  0  0  0  0  0  0  0  0
   10.9392  -22.1765    6.1188 O   0  0  0  0  0  0  0  0  0  0  0  0
   15.6663  -18.3164    3.4547 N   0  0  0  0  0  0  0  0  0  0  0  0
   16.8175  -17.4145    3.5601 C   0  0  1  0  0  0  0  0  0  0  0  0
   16.4338  -16.1583    2.8254 C   0  0  0  0  0  0  0  0  0  0  0  0
   17.4908  -15.1420    2.7345 C   0  0  0  0  0  0  0  0  0  0  0  0
   18.6470  -15.3573    2.0116 C   0  0  0  0  0  0  0  0  0  0  0  0
   19.5883  -14.3439    1.9675 C   0  0  0  0  0  0  0  0  0  0  0  0
   19.3928  -13.1438    2.6225 C   0  0  0  0  0  0  0  0  0  0  0  0
   18.2435  -12.9299    3.3409 C   0  0  0  0  0  0  0  0  0  0  0  0
   17.2922  -13.9450    3.3895 C   0  0  0  0  0  0  0  0  0  0  0  0
   17.0684  -17.0700    4.9750 C   0  0  0  0  0  0  0  0  0  0  0  0
   18.3808  -16.9142    5.3933 O   0  0  0  0  0  0  0  0  0  0  0  0
   16.1640  -16.9082    5.8291 O   0  0  0  0  0  0  0  0  0  0  0  0
  1  2  1  0
  3  2  1  0
  3  4  2  0
  5  3  1  0
  6  5  1  0
  6 11  1  0
  6  7  1  1
  8  7  1  0
  9  8  1  0
 10  9  2  0
 11 14  1  0
 11 12  2  0
 13  9  1  0
 14 15  1  0
 15 16  1  6
 17 16  1  0
 18 17  2  0
 19 20  2  0
 19 18  1  0
 20 21  1  0
 21 22  2  0
 22 17  1  0
 23 15  1  0
 23 24  1  0
 25 23  2  0
M  END
$$$$
