GEF.pdb
     RDKit          3D

 25 25  0  0  1  0  0  0  0  0999 V2000
   28.1653  -19.5293  -15.7672 N   0  0  0  0  0  0  0  0  0  0  0  0
   27.6518  -20.6198  -14.9718 C   0  0  0  0  0  0  0  0  0  0  0  0
   27.0195  -20.0978  -13.7039 C   0  0  0  0  0  0  0  0  0  0  0  0
   27.3301  -18.9481  -13.3053 O   0  0  0  0  0  0  0  0  0  0  0  0
   26.0995  -20.9004  -12.9940 N   0  0  0  0  0  0  0  0  0  0  0  0
   25.4027  -20.5705  -11.7966 C   0  0  1  0  0  0  0  0  0  0  0  0
   23.9236  -20.9583  -11.7950 C   0  0  0  0  0  0  0  0  0  0  0  0
   23.0767  -20.2150  -12.7603 C   0  0  0  0  0  0  0  0  0  0  0  0
   21.6204  -20.5628  -12.6409 C   0  0  0  0  0  0  0  0  0  0  0  0
   20.7063  -19.7542  -12.4285 O   0  0  0  0  0  0  0  0  0  0  0  0
   26.0195  -20.9882  -10.5429 C   0  0  0  0  0  0  0  0  0  0  0  0
   26.3436  -22.1903  -10.3641 O   0  0  0  0  0  0  0  0  0  0  0  0
   21.3112  -21.9195  -12.7873 O   0  0  0  0  0  0  0  0  0  0  0  0
   26.2977  -20.1053   -9.4540 N   0  0  0  0  0  0  0  0  0  0  0  0
   26.8970  -20.5790   -8.2024 C   0  0  1  0  0  0  0  0  0  0  0  0
   27.6139  -19.3968   -7.6078 C   0  0  0  0  0  0  0  0  0  0  0  0
   28.2324  -19.6376   -6.2972 C   0  0  0  0  0  0  0  0  0  0  0  0
   29.2823  -20.5198   -6.1391 C   0  0  0  0  0  0  0  0  0  0  0  0
   29.8156  -20.6807   -4.8723 C   0  0  0  0  0  0  0  0  0  0  0  0
   29.3234  -19.9860   -3.7849 C   0  0  0  0  0  0  0  0  0  0  0  0
   28.2799  -19.1090   -3.9422 C   0  0  0  0  0  0  0  0  0  0  0  0
   27.7386  -18.9421   -5.2137 C   0  0  0  0  0  0  0  0  0  0  0  0
   25.8417  -21.0073   -7.2609 C   0  0  0  0  0  0  0  0  0  0  0  0
   26.2058  -21.7791   -6.1685 O   0  0  0  0  0  0  0  0  0  0  0  0
   24.6281  -20.7157   -7.3868 O   0  0  0  0  0  0  0  0  0  0  0  0
  1  2  1  0
  3  2  1  0
  3  4  2  0
  5  3  1  0
  6  5  1  0
  6 11  1  0
  6  7  1  6
  8  7  1  0
  9  8  1  0
 10  9  2  0
 11 14  1  0
 11 12  2  0
 13  9  1  0
 14 15  1  0
 15 16  1  1
 17 16  1  0
 18 17  2  0
 19 20  2  0
 19 18  1  0
 20 21  1  0
 21 22  2  0
 22 17  1  0
 23 15  1  0
 23 24  1  0
 25 23  2  0
M  END
$$$$
