RDS.pdb
     RDKit          3D

 26 25  0  0  1  0  0  0  0  0999 V2000
   17.7652  -16.9606  -15.0868 N   0  0  0  0  0  0  0  0  0  0  0  0
   19.1007  -16.8916  -15.5910 C   0  0  0  0  0  0  0  0  0  0  0  0
   19.8083  -17.9860  -15.6922 N   0  0  0  0  0  0  0  0  0  0  0  0
   19.6325  -15.6309  -15.9718 N   0  0  0  0  0  0  0  0  0  0  0  0
   18.7930  -14.5016  -16.1904 C   0  0  0  0  0  0  0  0  0  0  0  0
   19.4538  -13.3726  -16.9188 C   0  0  0  0  0  0  0  0  0  0  0  0
   19.3634  -12.0484  -16.2511 C   0  0  0  0  0  0  0  0  0  0  0  0
   18.1807  -11.2286  -16.7000 C   0  0  2  0  0  0  0  0  0  0  0  0
   17.6009  -11.7379  -17.9241 N   0  0  0  0  0  0  0  0  0  0  0  0
   18.5346   -9.8146  -16.9489 C   0  0  0  0  0  0  0  0  0  0  0  0
   19.1499   -9.5587  -18.0143 O   0  0  0  0  0  0  0  0  0  0  0  0
   20.7485  -17.9342  -16.1322 N   0  0  0  0  0  0  0  0  0  0  0  0
   18.2245   -8.7463  -16.0685 C   0  0  2  0  0  0  0  0  0  0  0  0
   18.6557   -7.4091  -16.3228 C   0  0  0  0  0  0  0  0  0  0  0  0
   17.5933   -6.3756  -16.0668 C   0  0  0  0  0  0  0  0  0  0  0  0
   18.0086   -5.0077  -16.3814 O   0  0  0  0  0  0  0  0  0  0  0  0
   18.2644   -4.1865  -15.4683 C   0  0  0  0  0  0  0  0  0  0  0  0
   19.8600   -7.0380  -15.5223 O   0  0  0  0  0  0  0  0  0  0  0  0
   19.9470   -7.5083  -14.3619 O   0  0  0  0  0  0  0  0  0  0  0  0
   18.1296   -4.5864  -17.6944 O   0  0  0  0  0  0  0  0  0  0  0  0
   24.2502   -4.9225  -15.5324 C   0  0  0  0  0  0  0  0  0  0  0  0
   23.0450   -5.1510  -16.1994 C   0  0  2  0  0  0  0  0  0  0  0  0
   22.1241   -5.9430  -15.3036 N   0  0  0  0  0  0  0  0  0  0  0  0
   20.8905   -6.1941  -16.0038 C   0  0  0  0  0  0  0  0  0  0  0  0
   21.9298   -5.1844  -14.0544 O   0  0  0  0  0  0  0  0  0  0  0  0
   22.4874   -5.6740  -12.8886 O   0  0  0  0  0  0  0  0  0  0  0  0
  2  1  1  0
  3  2  2  0
  4  2  1  0
  5  4  1  0
  6  5  1  0
  6  7  1  0
  8  7  1  0
  8  9  1  6
 10  8  1  0
 10 12  1  0
 11 10  2  0
 12 13  1  0
 13 14  1  1
 15 16  2  0
 15 14  1  0
 17 18  2  0
 17 13  1  0
 19 15  1  0
 21 20  1  0
 22 21  1  6
 22 23  1  0
 23 17  1  0
 24 22  1  0
 24 25  1  0
 26 24  2  0
M  END
$$$$
