RDS.pdb
     RDKit          3D

 26 25  0  0  1  0  0  0  0  0999 V2000
   29.7699  -25.2352  -15.9830 N   0  0  0  0  0  0  0  0  0  0  0  0
   28.5491  -24.9451  -16.6672 C   0  0  0  0  0  0  0  0  0  0  0  0
   27.8690  -25.9192  -17.2122 N   0  0  0  0  0  0  0  0  0  0  0  0
   28.0999  -23.5997  -16.7411 N   0  0  0  0  0  0  0  0  0  0  0  0
   28.7076  -22.5662  -15.9726 C   0  0  0  0  0  0  0  0  0  0  0  0
   28.1217  -21.2062  -16.1938 C   0  0  0  0  0  0  0  0  0  0  0  0
   26.6716  -21.1855  -16.5164 C   0  0  0  0  0  0  0  0  0  0  0  0
   26.1017  -19.7950  -16.6331 C   0  0  2  0  0  0  0  0  0  0  0  0
   27.0993  -18.7770  -16.3827 N   0  0  0  0  0  0  0  0  0  0  0  0
   24.9960  -19.5552  -15.6809 C   0  0  0  0  0  0  0  0  0  0  0  0
   25.2932  -19.5062  -14.4609 O   0  0  0  0  0  0  0  0  0  0  0  0
   27.0009  -25.6906  -17.7360 N   0  0  0  0  0  0  0  0  0  0  0  0
   23.6399  -19.3798  -16.0588 C   0  0  1  0  0  0  0  0  0  0  0  0
   22.6186  -19.1047  -15.0998 C   0  0  0  0  0  0  0  0  0  0  0  0
   21.8228  -17.8659  -15.4071 C   0  0  0  0  0  0  0  0  0  0  0  0
   20.8382  -17.5234  -14.3794 O   0  0  0  0  0  0  0  0  0  0  0  0
   20.8375  -18.1066  -13.2688 C   0  0  0  0  0  0  0  0  0  0  0  0
   21.6609  -20.2399  -14.9474 O   0  0  0  0  0  0  0  0  0  0  0  0
   21.2352  -20.7786  -15.9979 O   0  0  0  0  0  0  0  0  0  0  0  0
   19.8837  -16.5473  -14.6076 O   0  0  0  0  0  0  0  0  0  0  0  0
   19.3567  -23.2508  -11.8822 C   0  0  0  0  0  0  0  0  0  0  0  0
   20.0861  -22.0732  -12.0576 C   0  0  2  0  0  0  0  0  0  0  0  0
   20.3629  -21.8750  -13.5279 N   0  0  0  0  0  0  0  0  0  0  0  0
   21.2183  -20.7278  -13.6936 C   0  0  0  0  0  0  0  0  0  0  0  0
   19.0721  -21.7328  -14.2260 O   0  0  0  0  0  0  0  0  0  0  0  0
   18.4921  -22.8573  -14.7816 O   0  0  0  0  0  0  0  0  0  0  0  0
  2  1  1  0
  3  2  2  0
  4  2  1  0
  5  4  1  0
  6  5  1  0
  6  7  1  0
  8  7  1  0
  8  9  1  1
 10  8  1  0
 10 12  1  0
 11 10  2  0
 12 13  1  0
 13 14  1  6
 15 16  2  0
 15 14  1  0
 17 18  2  0
 17 13  1  0
 19 15  1  0
 21 20  1  0
 22 21  1  1
 22 23  1  0
 23 17  1  0
 24 22  1  0
 24 25  1  0
 26 24  2  0
M  END
$$$$
