RDS.pdb
     RDKit          3D

 26 25  0  0  1  0  0  0  0  0999 V2000
   20.5529  -23.6947   -9.3407 N   0  0  0  0  0  0  0  0  0  0  0  0
   19.9824  -23.0580   -8.1954 C   0  0  0  0  0  0  0  0  0  0  0  0
   18.7309  -23.2807   -7.8913 N   0  0  0  0  0  0  0  0  0  0  0  0
   20.7903  -22.1933   -7.4100 N   0  0  0  0  0  0  0  0  0  0  0  0
   21.9885  -21.6200   -7.9233 C   0  0  0  0  0  0  0  0  0  0  0  0
   21.7733  -20.4518   -8.8347 C   0  0  0  0  0  0  0  0  0  0  0  0
   22.9913  -19.9523   -9.5233 C   0  0  0  0  0  0  0  0  0  0  0  0
   23.7769  -21.0360  -10.2164 C   0  0  2  0  0  0  0  0  0  0  0  0
   25.1022  -21.1885   -9.6556 N   0  0  0  0  0  0  0  0  0  0  0  0
   23.9503  -20.7729  -11.6612 C   0  0  0  0  0  0  0  0  0  0  0  0
   24.7997  -19.9057  -11.9860 O   0  0  0  0  0  0  0  0  0  0  0  0
   18.3002  -22.7367   -7.1174 N   0  0  0  0  0  0  0  0  0  0  0  0
   23.2245  -21.4325  -12.6863 C   0  0  2  0  0  0  0  0  0  0  0  0
   23.4737  -21.1805  -14.0694 C   0  0  0  0  0  0  0  0  0  0  0  0
   23.4996  -22.4258  -14.9126 C   0  0  0  0  0  0  0  0  0  0  0  0
   24.6390  -23.3032  -14.6396 O   0  0  0  0  0  0  0  0  0  0  0  0
   25.8116  -22.8579  -14.6513 C   0  0  0  0  0  0  0  0  0  0  0  0
   22.4762  -20.2429  -14.6653 O   0  0  0  0  0  0  0  0  0  0  0  0
   21.2628  -20.4815  -14.4513 O   0  0  0  0  0  0  0  0  0  0  0  0
   24.4507  -24.6460  -14.3615 O   0  0  0  0  0  0  0  0  0  0  0  0
   23.8276  -16.9703  -16.5658 C   0  0  0  0  0  0  0  0  0  0  0  0
   22.5027  -16.8416  -16.1443 C   0  0  1  0  0  0  0  0  0  0  0  0
   21.8792  -18.2121  -16.0410 N   0  0  0  0  0  0  0  0  0  0  0  0
   22.8304  -19.1166  -15.4474 C   0  0  0  0  0  0  0  0  0  0  0  0
   21.4558  -18.6300  -17.3900 O   0  0  0  0  0  0  0  0  0  0  0  0
   20.5209  -17.8626  -18.0582 O   0  0  0  0  0  0  0  0  0  0  0  0
  2  1  1  0
  3  2  2  0
  4  2  1  0
  5  4  1  0
  6  5  1  0
  6  7  1  0
  8  7  1  0
  8  9  1  1
 10  8  1  0
 10 12  1  0
 11 10  2  0
 12 13  1  0
 13 14  1  1
 15 16  2  0
 15 14  1  0
 17 18  2  0
 17 13  1  0
 19 15  1  0
 21 20  1  0
 22 21  1  1
 22 23  1  0
 23 17  1  0
 24 22  1  0
 24 25  1  0
 26 24  2  0
M  END
$$$$
