RDS.pdb
     RDKit          3D

 26 25  0  0  1  0  0  0  0  0999 V2000
   30.5562  -21.3364   -9.1516 N   0  0  0  0  0  0  0  0  0  0  0  0
   30.8962  -22.1353  -10.2869 C   0  0  0  0  0  0  0  0  0  0  0  0
   32.1537  -22.3673  -10.5579 N   0  0  0  0  0  0  0  0  0  0  0  0
   29.8568  -22.6610  -11.0995 N   0  0  0  0  0  0  0  0  0  0  0  0
   28.4894  -22.3421  -10.8621 C   0  0  0  0  0  0  0  0  0  0  0  0
   28.0656  -21.0073  -11.3917 C   0  0  0  0  0  0  0  0  0  0  0  0
   26.6641  -20.6202  -11.0862 C   0  0  0  0  0  0  0  0  0  0  0  0
   25.6397  -21.4203  -11.8495 C   0  0  2  0  0  0  0  0  0  0  0  0
   26.2497  -22.2665  -12.8525 N   0  0  0  0  0  0  0  0  0  0  0  0
   24.6598  -20.5628  -12.5502 C   0  0  0  0  0  0  0  0  0  0  0  0
   24.1038  -19.6608  -11.8745 O   0  0  0  0  0  0  0  0  0  0  0  0
   32.3886  -22.9137  -11.4102 N   0  0  0  0  0  0  0  0  0  0  0  0
   24.3160  -20.6970  -13.9200 C   0  0  2  0  0  0  0  0  0  0  0  0
   23.2834  -19.9139  -14.5193 C   0  0  0  0  0  0  0  0  0  0  0  0
   23.5968  -19.4796  -15.9249 C   0  0  0  0  0  0  0  0  0  0  0  0
   22.7019  -18.4412  -16.4382 O   0  0  0  0  0  0  0  0  0  0  0  0
   21.8623  -17.8870  -15.6889 C   0  0  0  0  0  0  0  0  0  0  0  0
   21.9704  -20.6241  -14.5399 O   0  0  0  0  0  0  0  0  0  0  0  0
   21.8698  -21.6261  -15.2890 O   0  0  0  0  0  0  0  0  0  0  0  0
   22.7601  -18.0449  -17.7632 O   0  0  0  0  0  0  0  0  0  0  0  0
   19.3624  -22.5116  -12.0898 C   0  0  0  0  0  0  0  0  0  0  0  0
   19.1294  -21.1665  -12.3832 C   0  0  2  0  0  0  0  0  0  0  0  0
   19.5713  -20.8832  -13.7982 N   0  0  0  0  0  0  0  0  0  0  0  0
   20.8527  -20.2258  -13.7667 C   0  0  0  0  0  0  0  0  0  0  0  0
   18.5282  -20.0741  -14.4547 O   0  0  0  0  0  0  0  0  0  0  0  0
   18.8820  -18.8563  -15.0036 O   0  0  0  0  0  0  0  0  0  0  0  0
  2  1  1  0
  3  2  2  0
  4  2  1  0
  5  4  1  0
  6  5  1  0
  6  7  1  0
  8  7  1  0
  8  9  1  6
 10  8  1  0
 10 12  1  0
 11 10  2  0
 12 13  1  0
 13 14  1  1
 15 16  2  0
 15 14  1  0
 17 18  2  0
 17 13  1  0
 19 15  1  0
 21 20  1  0
 22 21  1  6
 22 23  1  0
 23 17  1  0
 24 22  1  0
 24 25  1  0
 26 24  2  0
M  END
$$$$
