RDS.pdb
     RDKit          3D

 26 25  0  0  1  0  0  0  0  0999 V2000
   25.4526  -23.9313  -17.1859 N   0  0  0  0  0  0  0  0  0  0  0  0
   26.4491  -23.3005  -16.3785 C   0  0  0  0  0  0  0  0  0  0  0  0
   27.7061  -23.6202  -16.5398 N   0  0  0  0  0  0  0  0  0  0  0  0
   26.0504  -22.3369  -15.4142 N   0  0  0  0  0  0  0  0  0  0  0  0
   24.7289  -22.3133  -14.8841 C   0  0  0  0  0  0  0  0  0  0  0  0
   24.4873  -21.2340  -13.8749 C   0  0  0  0  0  0  0  0  0  0  0  0
   23.1163  -21.1957  -13.3038 C   0  0  0  0  0  0  0  0  0  0  0  0
   22.7799  -22.4035  -12.4670 C   0  0  2  0  0  0  0  0  0  0  0  0
   23.6840  -23.5054  -12.7169 N   0  0  0  0  0  0  0  0  0  0  0  0
   21.4122  -22.9047  -12.7216 C   0  0  0  0  0  0  0  0  0  0  0  0
   21.2474  -23.6236  -13.7390 O   0  0  0  0  0  0  0  0  0  0  0  0
   28.4150  -23.1934  -15.9110 N   0  0  0  0  0  0  0  0  0  0  0  0
   20.2923  -22.6254  -11.8967 C   0  0  1  0  0  0  0  0  0  0  0  0
   19.0049  -23.1852  -12.1569 C   0  0  0  0  0  0  0  0  0  0  0  0
   18.3687  -23.8175  -10.9496 C   0  0  0  0  0  0  0  0  0  0  0  0
   19.1272  -24.9425  -10.4003 O   0  0  0  0  0  0  0  0  0  0  0  0
   19.4939  -25.8913  -11.1345 C   0  0  0  0  0  0  0  0  0  0  0  0
   18.0481  -22.1795  -12.7066 O   0  0  0  0  0  0  0  0  0  0  0  0
   18.1028  -21.0167  -12.2374 O   0  0  0  0  0  0  0  0  0  0  0  0
   19.4588  -24.9873   -9.0572 O   0  0  0  0  0  0  0  0  0  0  0  0
   14.4442  -21.2609  -15.8592 C   0  0  0  0  0  0  0  0  0  0  0  0
   15.2671  -22.2083  -15.2471 C   0  0  2  0  0  0  0  0  0  0  0  0
   16.1548  -21.5185  -14.2401 N   0  0  0  0  0  0  0  0  0  0  0  0
   17.0981  -22.4724  -13.7154 C   0  0  0  0  0  0  0  0  0  0  0  0
   15.2973  -20.9271  -13.1968 O   0  0  0  0  0  0  0  0  0  0  0  0
   14.8790  -19.6186  -13.3462 O   0  0  0  0  0  0  0  0  0  0  0  0
  2  1  1  0
  3  2  2  0
  4  2  1  0
  5  4  1  0
  6  5  1  0
  6  7  1  0
  8  7  1  0
  8  9  1  6
 10  8  1  0
 10 12  1  0
 11 10  2  0
 12 13  1  0
 13 14  1  6
 15 16  2  0
 15 14  1  0
 17 18  2  0
 17 13  1  0
 19 15  1  0
 21 20  1  0
 22 21  1  6
 22 23  1  0
 23 17  1  0
 24 22  1  0
 24 25  1  0
 26 24  2  0
M  END
$$$$
