RDS.pdb
     RDKit          3D

 26 25  0  0  1  0  0  0  0  0999 V2000
   26.8949  -21.0106   -9.8897 N   0  0  0  0  0  0  0  0  0  0  0  0
   25.4881  -21.0294  -10.1410 C   0  0  0  0  0  0  0  0  0  0  0  0
   24.6663  -20.5615   -9.2387 N   0  0  0  0  0  0  0  0  0  0  0  0
   25.0115  -21.5587  -11.3698 N   0  0  0  0  0  0  0  0  0  0  0  0
   25.9032  -21.9879  -12.3939 C   0  0  0  0  0  0  0  0  0  0  0  0
   27.0444  -21.0533  -12.6507 C   0  0  0  0  0  0  0  0  0  0  0  0
   27.4118  -20.8793  -14.0797 C   0  0  0  0  0  0  0  0  0  0  0  0
   27.1403  -19.4929  -14.6055 C   0  0  2  0  0  0  0  0  0  0  0  0
   26.6668  -18.6024  -13.5678 N   0  0  0  0  0  0  0  0  0  0  0  0
   26.1208  -19.4839  -15.6765 C   0  0  0  0  0  0  0  0  0  0  0  0
   26.3862  -20.1265  -16.7233 O   0  0  0  0  0  0  0  0  0  0  0  0
   23.6474  -20.5594   -9.4439 N   0  0  0  0  0  0  0  0  0  0  0  0
   24.8795  -18.8023  -15.5925 C   0  0  2  0  0  0  0  0  0  0  0  0
   23.9224  -18.8437  -16.6512 C   0  0  0  0  0  0  0  0  0  0  0  0
   22.5098  -19.0496  -16.1773 C   0  0  0  0  0  0  0  0  0  0  0  0
   22.2742  -20.3587  -15.5661 O   0  0  0  0  0  0  0  0  0  0  0  0
   22.8740  -21.3797  -15.9800 C   0  0  0  0  0  0  0  0  0  0  0  0
   23.9498  -17.6099  -17.4913 O   0  0  0  0  0  0  0  0  0  0  0  0
   24.0331  -16.5090  -16.8943 O   0  0  0  0  0  0  0  0  0  0  0  0
   21.3836  -20.5024  -14.5162 O   0  0  0  0  0  0  0  0  0  0  0  0
   24.6428  -15.5987  -21.8127 C   0  0  0  0  0  0  0  0  0  0  0  0
   24.5769  -16.7580  -21.0373 C   0  0  2  0  0  0  0  0  0  0  0  0
   23.8946  -16.4420  -19.7287 N   0  0  0  0  0  0  0  0  0  0  0  0
   23.8871  -17.6245  -18.9061 C   0  0  0  0  0  0  0  0  0  0  0  0
   22.5398  -15.9404  -20.0234 O   0  0  0  0  0  0  0  0  0  0  0  0
   22.3223  -14.5758  -20.0145 O   0  0  0  0  0  0  0  0  0  0  0  0
  2  1  1  0
  3  2  2  0
  4  2  1  0
  5  4  1  0
  6  5  1  0
  6  7  1  0
  8  7  1  0
  8  9  1  1
 10  8  1  0
 10 12  1  0
 11 10  2  0
 12 13  1  0
 13 14  1  6
 15 16  2  0
 15 14  1  0
 17 18  2  0
 17 13  1  0
 19 15  1  0
 21 20  1  0
 22 21  1  1
 22 23  1  0
 23 17  1  0
 24 22  1  0
 24 25  1  0
 26 24  2  0
M  END
$$$$
