RDS.pdb
     RDKit          3D

 26 25  0  0  1  0  0  0  0  0999 V2000
   19.2460  -16.9904  -17.1381 N   0  0  0  0  0  0  0  0  0  0  0  0
   18.9612  -15.9469  -18.0723 C   0  0  0  0  0  0  0  0  0  0  0  0
   19.3632  -16.0635  -19.3105 N   0  0  0  0  0  0  0  0  0  0  0  0
   18.2456  -14.8013  -17.6333 N   0  0  0  0  0  0  0  0  0  0  0  0
   17.8028  -14.6682  -16.2864 C   0  0  0  0  0  0  0  0  0  0  0  0
   16.9847  -13.4420  -16.0235 C   0  0  0  0  0  0  0  0  0  0  0  0
   16.4658  -13.3115  -14.6375 C   0  0  0  0  0  0  0  0  0  0  0  0
   15.6945  -12.0380  -14.4021 C   0  0  2  0  0  0  0  0  0  0  0  0
   15.2740  -11.4213  -15.6419 N   0  0  0  0  0  0  0  0  0  0  0  0
   16.4836  -11.0267  -13.6663 C   0  0  0  0  0  0  0  0  0  0  0  0
   16.8946  -11.3445  -12.5221 O   0  0  0  0  0  0  0  0  0  0  0  0
   19.2296  -15.2608  -19.9570 N   0  0  0  0  0  0  0  0  0  0  0  0
   16.7989   -9.7382  -14.1693 C   0  0  1  0  0  0  0  0  0  0  0  0
   17.4532   -8.7543  -13.3677 C   0  0  0  0  0  0  0  0  0  0  0  0
   18.3308   -7.8220  -14.1571 C   0  0  0  0  0  0  0  0  0  0  0  0
   19.1230   -6.9106  -13.3298 O   0  0  0  0  0  0  0  0  0  0  0  0
   19.1210   -7.0100  -12.0793 C   0  0  0  0  0  0  0  0  0  0  0  0
   16.4891   -7.9255  -12.5851 O   0  0  0  0  0  0  0  0  0  0  0  0
   15.5126   -7.4390  -13.2055 O   0  0  0  0  0  0  0  0  0  0  0  0
   19.8942   -5.9165  -13.9069 O   0  0  0  0  0  0  0  0  0  0  0  0
   15.4986   -8.7066   -8.8667 C   0  0  0  0  0  0  0  0  0  0  0  0
   15.7829   -7.3437   -8.9728 C   0  0  2  0  0  0  0  0  0  0  0  0
   15.6689   -6.9237  -10.4179 N   0  0  0  0  0  0  0  0  0  0  0  0
   16.6239   -7.6673  -11.1991 C   0  0  0  0  0  0  0  0  0  0  0  0
   15.8777   -5.4662  -10.4933 O   0  0  0  0  0  0  0  0  0  0  0  0
   15.0071   -4.6363   -9.8129 O   0  0  0  0  0  0  0  0  0  0  0  0
  2  1  1  0
  3  2  2  0
  4  2  1  0
  5  4  1  0
  6  5  1  0
  6  7  1  0
  8  7  1  0
  8  9  1  6
 10  8  1  0
 10 12  1  0
 11 10  2  0
 12 13  1  0
 13 14  1  1
 15 16  2  0
 15 14  1  0
 17 18  2  0
 17 13  1  0
 19 15  1  0
 21 20  1  0
 22 21  1  6
 22 23  1  0
 23 17  1  0
 24 22  1  0
 24 25  1  0
 26 24  2  0
M  END
$$$$
