RDS.pdb
     RDKit          3D

 26 25  0  0  1  0  0  0  0  0999 V2000
   19.0585  -15.6958  -15.1683 N   0  0  0  0  0  0  0  0  0  0  0  0
   18.4095  -15.7740  -16.4392 C   0  0  0  0  0  0  0  0  0  0  0  0
   17.4594  -16.6524  -16.6243 N   0  0  0  0  0  0  0  0  0  0  0  0
   18.8127  -14.8930  -17.4777 N   0  0  0  0  0  0  0  0  0  0  0  0
   19.9569  -14.0558  -17.3444 C   0  0  0  0  0  0  0  0  0  0  0  0
   19.7561  -12.8733  -16.4482 C   0  0  0  0  0  0  0  0  0  0  0  0
   20.0969  -11.5578  -17.0487 C   0  0  0  0  0  0  0  0  0  0  0  0
   21.5415  -11.4426  -17.4634 C   0  0  2  0  0  0  0  0  0  0  0  0
   22.3707  -12.4414  -16.8238 N   0  0  0  0  0  0  0  0  0  0  0  0
   22.1226  -10.1246  -17.1289 C   0  0  0  0  0  0  0  0  0  0  0  0
   22.2516   -9.8500  -15.9094 O   0  0  0  0  0  0  0  0  0  0  0  0
   17.0009  -16.7039  -17.5556 N   0  0  0  0  0  0  0  0  0  0  0  0
   22.5366   -9.1667  -18.0899 C   0  0  1  0  0  0  0  0  0  0  0  0
   23.1157   -7.9181  -17.7102 C   0  0  0  0  0  0  0  0  0  0  0  0
   23.6406   -7.1203  -18.8722 C   0  0  0  0  0  0  0  0  0  0  0  0
   24.4131   -5.9402  -18.4806 O   0  0  0  0  0  0  0  0  0  0  0  0
   24.5718   -5.6469  -17.2714 C   0  0  0  0  0  0  0  0  0  0  0  0
   22.1608   -7.0548  -16.9542 O   0  0  0  0  0  0  0  0  0  0  0  0
   20.9447   -7.1446  -17.2513 O   0  0  0  0  0  0  0  0  0  0  0  0
   24.9878   -5.1188  -19.4351 O   0  0  0  0  0  0  0  0  0  0  0  0
   20.0580   -5.6610  -13.3613 C   0  0  0  0  0  0  0  0  0  0  0  0
   20.8702   -6.3798  -14.2405 C   0  0  1  0  0  0  0  0  0  0  0  0
   21.6398   -5.4137  -15.1079 N   0  0  0  0  0  0  0  0  0  0  0  0
   22.5573   -6.1547  -15.9351 C   0  0  0  0  0  0  0  0  0  0  0  0
   22.3167   -4.4423  -14.2293 O   0  0  0  0  0  0  0  0  0  0  0  0
   21.5448   -3.5509  -13.5087 O   0  0  0  0  0  0  0  0  0  0  0  0
  2  1  1  0
  3  2  2  0
  4  2  1  0
  5  4  1  0
  6  5  1  0
  6  7  1  0
  8  7  1  0
  8  9  1  1
 10  8  1  0
 10 12  1  0
 11 10  2  0
 12 13  1  0
 13 14  1  6
 15 16  2  0
 15 14  1  0
 17 18  2  0
 17 13  1  0
 19 15  1  0
 21 20  1  0
 22 21  1  6
 22 23  1  0
 23 17  1  0
 24 22  1  0
 24 25  1  0
 26 24  2  0
M  END
$$$$
