RDS.pdb
     RDKit          3D

 26 25  0  0  1  0  0  0  0  0999 V2000
   27.5474  -21.6869  -14.7088 N   0  0  0  0  0  0  0  0  0  0  0  0
   27.8900  -20.9231  -15.8672 C   0  0  0  0  0  0  0  0  0  0  0  0
   28.8794  -21.3138  -16.6268 N   0  0  0  0  0  0  0  0  0  0  0  0
   27.1461  -19.7514  -16.1686 N   0  0  0  0  0  0  0  0  0  0  0  0
   26.0473  -19.3367  -15.3633 C   0  0  0  0  0  0  0  0  0  0  0  0
   24.7623  -20.0459  -15.6592 C   0  0  0  0  0  0  0  0  0  0  0  0
   24.4806  -21.2293  -14.8063 C   0  0  0  0  0  0  0  0  0  0  0  0
   23.1456  -21.8697  -15.0890 C   0  0  2  0  0  0  0  0  0  0  0  0
   23.0841  -22.4299  -16.4219 N   0  0  0  0  0  0  0  0  0  0  0  0
   22.0238  -20.9133  -14.9736 C   0  0  0  0  0  0  0  0  0  0  0  0
   21.6276  -20.3667  -16.0335 O   0  0  0  0  0  0  0  0  0  0  0  0
   29.0896  -20.7748  -17.4902 N   0  0  0  0  0  0  0  0  0  0  0  0
   21.3784  -20.5819  -13.7545 C   0  0  1  0  0  0  0  0  0  0  0  0
   20.2532  -19.7041  -13.7103 C   0  0  0  0  0  0  0  0  0  0  0  0
   19.4478  -19.8217  -12.4454 C   0  0  0  0  0  0  0  0  0  0  0  0
   18.1737  -19.1022  -12.4847 O   0  0  0  0  0  0  0  0  0  0  0  0
   17.8214  -18.4724  -13.5107 C   0  0  0  0  0  0  0  0  0  0  0  0
   20.6421  -18.2723  -13.8759 O   0  0  0  0  0  0  0  0  0  0  0  0
   21.7184  -17.9034  -13.3461 O   0  0  0  0  0  0  0  0  0  0  0  0
   17.3259  -19.0991  -11.3905 O   0  0  0  0  0  0  0  0  0  0  0  0
   22.0623  -15.0543  -16.3543 C   0  0  0  0  0  0  0  0  0  0  0  0
   21.4837  -16.2815  -16.0244 C   0  0  2  0  0  0  0  0  0  0  0  0
   20.3588  -16.0527  -15.0447 N   0  0  0  0  0  0  0  0  0  0  0  0
   19.8657  -17.3278  -14.5906 C   0  0  0  0  0  0  0  0  0  0  0  0
   19.3232  -15.2422  -15.7114 O   0  0  0  0  0  0  0  0  0  0  0  0
   19.4891  -13.8715  -15.7674 O   0  0  0  0  0  0  0  0  0  0  0  0
  2  1  1  0
  3  2  2  0
  4  2  1  0
  5  4  1  0
  6  5  1  0
  6  7  1  0
  8  7  1  0
  8  9  1  6
 10  8  1  0
 10 12  1  0
 11 10  2  0
 12 13  1  0
 13 14  1  1
 15 16  2  0
 15 14  1  0
 17 18  2  0
 17 13  1  0
 19 15  1  0
 21 20  1  0
 22 21  1  1
 22 23  1  0
 23 17  1  0
 24 22  1  0
 24 25  1  0
 26 24  2  0
M  END
$$$$
