RDS.pdb
     RDKit          3D

 26 25  0  0  1  0  0  0  0  0999 V2000
   18.5381  -14.5135  -15.5038 N   0  0  0  0  0  0  0  0  0  0  0  0
   18.2374  -14.3034  -16.8852 C   0  0  0  0  0  0  0  0  0  0  0  0
   19.1834  -14.4349  -17.7775 N   0  0  0  0  0  0  0  0  0  0  0  0
   16.9126  -13.9544  -17.2598 N   0  0  0  0  0  0  0  0  0  0  0  0
   16.3627  -12.6765  -16.9559 C   0  0  0  0  0  0  0  0  0  0  0  0
   16.9480  -12.0252  -15.7414 C   0  0  0  0  0  0  0  0  0  0  0  0
   16.3431  -10.7207  -15.3680 C   0  0  0  0  0  0  0  0  0  0  0  0
   16.9007   -9.5554  -16.1446 C   0  0  2  0  0  0  0  0  0  0  0  0
   17.2055   -9.9119  -17.5136 N   0  0  0  0  0  0  0  0  0  0  0  0
   18.1475   -9.0254  -15.5518 C   0  0  0  0  0  0  0  0  0  0  0  0
   18.1299   -8.7646  -14.3227 O   0  0  0  0  0  0  0  0  0  0  0  0
   18.9583  -14.2506  -18.7753 N   0  0  0  0  0  0  0  0  0  0  0  0
   19.3443   -8.7978  -16.2789 C   0  0  2  0  0  0  0  0  0  0  0  0
   20.5360   -8.3330  -15.6447 C   0  0  0  0  0  0  0  0  0  0  0  0
   21.7920   -8.9440  -16.2027 C   0  0  0  0  0  0  0  0  0  0  0  0
   21.9967  -10.3398  -15.8120 O   0  0  0  0  0  0  0  0  0  0  0  0
   21.6360  -10.7519  -14.6835 C   0  0  0  0  0  0  0  0  0  0  0  0
   20.6763   -6.8483  -15.7163 O   0  0  0  0  0  0  0  0  0  0  0  0
   20.5330   -6.3104  -16.8412 O   0  0  0  0  0  0  0  0  0  0  0  0
   22.5933  -11.2396  -16.6783 O   0  0  0  0  0  0  0  0  0  0  0  0
   19.8716   -2.5984  -14.2133 C   0  0  0  0  0  0  0  0  0  0  0  0
   19.7739   -3.9901  -14.1588 C   0  0  2  0  0  0  0  0  0  0  0  0
   21.0683   -4.5980  -14.6414 N   0  0  0  0  0  0  0  0  0  0  0  0
   20.9590   -6.0336  -14.5929 C   0  0  0  0  0  0  0  0  0  0  0  0
   22.1638   -4.0780  -13.8029 O   0  0  0  0  0  0  0  0  0  0  0  0
   22.5878   -2.7775  -13.9987 O   0  0  0  0  0  0  0  0  0  0  0  0
  2  1  1  0
  3  2  2  0
  4  2  1  0
  5  4  1  0
  6  5  1  0
  6  7  1  0
  8  7  1  0
  8  9  1  6
 10  8  1  0
 10 12  1  0
 11 10  2  0
 12 13  1  0
 13 14  1  1
 15 16  2  0
 15 14  1  0
 17 18  2  0
 17 13  1  0
 19 15  1  0
 21 20  1  0
 22 21  1  6
 22 23  1  0
 23 17  1  0
 24 22  1  0
 24 25  1  0
 26 24  2  0
M  END
$$$$
