RDS.pdb
     RDKit          3D

 26 25  0  0  1  0  0  0  0  0999 V2000
   16.8116  -12.4110  -21.1713 N   0  0  0  0  0  0  0  0  0  0  0  0
   15.7409  -12.9589  -20.3993 C   0  0  0  0  0  0  0  0  0  0  0  0
   15.0828  -13.9929  -20.8536 N   0  0  0  0  0  0  0  0  0  0  0  0
   15.4133  -12.3656  -19.1512 N   0  0  0  0  0  0  0  0  0  0  0  0
   16.1840  -11.2996  -18.6058 C   0  0  0  0  0  0  0  0  0  0  0  0
   17.4907  -11.7238  -18.0104 C   0  0  0  0  0  0  0  0  0  0  0  0
   18.3389  -10.6198  -17.4916 C   0  0  0  0  0  0  0  0  0  0  0  0
   18.4524  -10.6046  -15.9886 C   0  0  2  0  0  0  0  0  0  0  0  0
   17.3448  -11.2861  -15.3540 N   0  0  0  0  0  0  0  0  0  0  0  0
   18.4842   -9.2326  -15.4378 C   0  0  0  0  0  0  0  0  0  0  0  0
   17.4092   -8.7796  -14.9705 O   0  0  0  0  0  0  0  0  0  0  0  0
   14.3501  -14.4216  -20.2540 N   0  0  0  0  0  0  0  0  0  0  0  0
   19.6400   -8.4106  -15.4065 C   0  0  1  0  0  0  0  0  0  0  0  0
   19.5899   -7.0544  -14.9631 C   0  0  0  0  0  0  0  0  0  0  0  0
   20.8698   -6.5806  -14.3308 C   0  0  0  0  0  0  0  0  0  0  0  0
   21.0974   -7.1092  -12.9848 O   0  0  0  0  0  0  0  0  0  0  0  0
   22.2115   -6.9810  -12.4228 C   0  0  0  0  0  0  0  0  0  0  0  0
   19.2442   -6.1082  -16.0650 O   0  0  0  0  0  0  0  0  0  0  0  0
   19.6347   -6.4035  -17.2207 O   0  0  0  0  0  0  0  0  0  0  0  0
   20.0888   -7.7635  -12.2988 O   0  0  0  0  0  0  0  0  0  0  0  0
   16.6580   -4.1440  -18.8873 C   0  0  0  0  0  0  0  0  0  0  0  0
   17.1369   -4.9341  -17.8405 C   0  0  2  0  0  0  0  0  0  0  0  0
   18.0036   -4.0903  -16.9379 N   0  0  0  0  0  0  0  0  0  0  0  0
   18.5090   -4.9136  -15.8694 C   0  0  0  0  0  0  0  0  0  0  0  0
   17.1981   -2.9542  -16.4541 O   0  0  0  0  0  0  0  0  0  0  0  0
   16.8134   -1.9824  -17.3581 O   0  0  0  0  0  0  0  0  0  0  0  0
  2  1  1  0
  3  2  2  0
  4  2  1  0
  5  4  1  0
  6  5  1  0
  6  7  1  0
  8  7  1  0
  8  9  1  1
 10  8  1  0
 10 12  1  0
 11 10  2  0
 12 13  1  0
 13 14  1  1
 15 16  2  0
 15 14  1  0
 17 18  2  0
 17 13  1  0
 19 15  1  0
 21 20  1  0
 22 21  1  6
 22 23  1  0
 23 17  1  0
 24 22  1  0
 24 25  1  0
 26 24  2  0
M  END
$$$$
