RDS.pdb
     RDKit          3D

 26 25  0  0  1  0  0  0  0  0999 V2000
   33.4449  -25.8012  -15.5643 N   0  0  0  0  0  0  0  0  0  0  0  0
   33.3365  -25.5486  -16.9668 C   0  0  0  0  0  0  0  0  0  0  0  0
   34.2196  -26.0601  -17.7835 N   0  0  0  0  0  0  0  0  0  0  0  0
   32.2684  -24.7436  -17.4447 N   0  0  0  0  0  0  0  0  0  0  0  0
   30.9968  -24.7328  -16.8036 C   0  0  0  0  0  0  0  0  0  0  0  0
   29.9782  -25.6291  -17.4368 C   0  0  0  0  0  0  0  0  0  0  0  0
   28.6249  -25.0370  -17.5964 C   0  0  0  0  0  0  0  0  0  0  0  0
   28.0128  -24.5780  -16.2977 C   0  0  2  0  0  0  0  0  0  0  0  0
   28.1697  -25.5605  -15.2468 N   0  0  0  0  0  0  0  0  0  0  0  0
   26.5640  -24.3081  -16.4195 C   0  0  0  0  0  0  0  0  0  0  0  0
   26.2184  -23.3850  -17.1990 O   0  0  0  0  0  0  0  0  0  0  0  0
   34.0850  -25.9360  -18.8066 N   0  0  0  0  0  0  0  0  0  0  0  0
   25.5568  -25.0198  -15.7183 C   0  0  1  0  0  0  0  0  0  0  0  0
   24.1685  -24.7438  -15.9052 C   0  0  0  0  0  0  0  0  0  0  0  0
   23.2791  -25.9280  -15.6426 C   0  0  0  0  0  0  0  0  0  0  0  0
   21.8622  -25.6766  -15.9110 O   0  0  0  0  0  0  0  0  0  0  0  0
   21.4862  -24.5956  -16.4242 C   0  0  0  0  0  0  0  0  0  0  0  0
   23.6934  -23.6144  -15.0522 O   0  0  0  0  0  0  0  0  0  0  0  0
   23.7702  -23.7610  -13.8081 O   0  0  0  0  0  0  0  0  0  0  0  0
   20.9022  -26.6257  -15.6051 O   0  0  0  0  0  0  0  0  0  0  0  0
   22.1347  -19.0237  -14.7993 C   0  0  0  0  0  0  0  0  0  0  0  0
   22.5319  -20.0909  -15.6072 C   0  0  2  0  0  0  0  0  0  0  0  0
   22.6399  -21.3383  -14.7645 N   0  0  0  0  0  0  0  0  0  0  0  0
   23.1689  -22.4064  -15.5734 C   0  0  0  0  0  0  0  0  0  0  0  0
   21.3056  -21.6420  -14.2156 O   0  0  0  0  0  0  0  0  0  0  0  0
   20.8296  -20.8753  -13.1691 O   0  0  0  0  0  0  0  0  0  0  0  0
  2  1  1  0
  3  2  2  0
  4  2  1  0
  5  4  1  0
  6  5  1  0
  6  7  1  0
  8  7  1  0
  8  9  1  1
 10  8  1  0
 10 12  1  0
 11 10  2  0
 12 13  1  0
 13 14  1  6
 15 16  2  0
 15 14  1  0
 17 18  2  0
 17 13  1  0
 19 15  1  0
 21 20  1  0
 22 21  1  1
 22 23  1  0
 23 17  1  0
 24 22  1  0
 24 25  1  0
 26 24  2  0
M  END
$$$$
