HAT.pdb
     RDKit          3D

 23 23  0  0  1  0  0  0  0  0999 V2000
   10.0082  -14.7426   20.8397 N   0  0  0  0  0  0  0  0  0  0  0  0
    8.7565  -14.3199   21.4152 C   0  0  1  0  0  0  0  0  0  0  0  0
    7.6329  -15.0404   20.7352 C   0  0  0  0  0  0  0  0  0  0  0  0
    7.4783  -14.4560   19.3769 C   0  0  0  0  0  0  0  0  0  0  0  0
    8.2334  -13.4470   18.7816 C   0  0  0  0  0  0  0  0  0  0  0  0
    7.7647  -13.2109   17.5373 N   0  0  0  0  0  0  0  0  0  0  0  0
    6.7362  -14.0431   17.3339 C   0  0  0  0  0  0  0  0  0  0  0  0
    6.5640  -14.7826   18.4229 N   0  0  0  0  0  0  0  0  0  0  0  0
    8.7913  -14.5673   22.8801 C   0  0  0  0  0  0  0  0  0  0  0  0
    9.6586  -15.3206   23.4036 O   0  0  0  0  0  0  0  0  0  0  0  0
    6.8033  -13.3984   25.9200 C   0  0  0  0  0  0  0  0  0  0  0  0
    7.8566  -14.1825   25.1895 C   0  0  2  0  0  0  0  0  0  0  0  0
    7.8552  -13.9744   23.7780 N   0  0  0  0  0  0  0  0  0  0  0  0
    7.7270  -15.6481   25.5262 C   0  0  0  0  0  0  0  0  0  0  0  0
    6.6603  -16.2633   25.3177 O   0  0  0  0  0  0  0  0  0  0  0  0
    9.2497  -20.0644   25.9223 C   0  0  0  0  0  0  0  0  0  0  0  0
    9.4997  -18.6269   25.4842 C   0  0  1  0  0  0  0  0  0  0  0  0
    8.8087  -18.5246   24.2460 O   0  0  0  0  0  0  0  0  0  0  0  0
    8.8776  -17.7112   26.4692 C   0  0  2  0  0  0  0  0  0  0  0  0
    8.8208  -16.3427   26.0850 N   0  0  0  0  0  0  0  0  0  0  0  0
    9.4422  -17.9575   27.8306 C   0  0  0  0  0  0  0  0  0  0  0  0
   10.0659  -17.0661   28.4620 O   0  0  0  0  0  0  0  0  0  0  0  0
    9.3194  -19.1730   28.4767 O   0  0  0  0  0  0  0  0  0  0  0  0
  2  1  1  6
  2  3  1  0
  3  4  1  0
  4  8  1  0
  4  5  2  0
  5  6  1  0
  7  6  1  0
  8  7  2  0
  9  2  1  0
  9 13  1  0
 10  9  2  0
 12 11  1  1
 12 13  1  0
 12 14  1  0
 14 20  1  0
 15 14  2  0
 17 18  1  0
 17 16  1  1
 19 17  1  0
 19 20  1  6
 21 19  1  0
 21 23  1  0
 22 21  2  0
M  END
$$$$
