HAT.pdb
     RDKit          3D

 23 23  0  0  1  0  0  0  0  0999 V2000
   10.7637  -15.4846   16.0206 N   0  0  0  0  0  0  0  0  0  0  0  0
    9.7000  -15.7683   16.9505 C   0  0  1  0  0  0  0  0  0  0  0  0
    9.9196  -17.1225   17.5525 C   0  0  0  0  0  0  0  0  0  0  0  0
    9.6392  -18.1350   16.5007 C   0  0  0  0  0  0  0  0  0  0  0  0
    9.2276  -17.9213   15.1863 C   0  0  0  0  0  0  0  0  0  0  0  0
    9.0854  -19.1103   14.5619 N   0  0  0  0  0  0  0  0  0  0  0  0
    9.3960  -20.0653   15.4470 C   0  0  0  0  0  0  0  0  0  0  0  0
    9.7248  -19.4901   16.5975 N   0  0  0  0  0  0  0  0  0  0  0  0
    9.6513  -14.6896   17.9714 C   0  0  0  0  0  0  0  0  0  0  0  0
   10.7033  -14.1543   18.4192 O   0  0  0  0  0  0  0  0  0  0  0  0
    6.9778  -12.5516   19.6137 C   0  0  0  0  0  0  0  0  0  0  0  0
    8.3349  -13.1885   19.5105 C   0  0  2  0  0  0  0  0  0  0  0  0
    8.4239  -14.1961   18.5042 N   0  0  0  0  0  0  0  0  0  0  0  0
    8.7511  -13.7241   20.8588 C   0  0  0  0  0  0  0  0  0  0  0  0
    8.8123  -12.9754   21.8566 O   0  0  0  0  0  0  0  0  0  0  0  0
    7.3266  -16.4064   22.9195 C   0  0  0  0  0  0  0  0  0  0  0  0
    8.7431  -16.8928   22.6402 C   0  0  1  0  0  0  0  0  0  0  0  0
    8.5793  -17.8211   21.5759 O   0  0  0  0  0  0  0  0  0  0  0  0
    9.5584  -15.7482   22.1705 C   0  0  2  0  0  0  0  0  0  0  0  0
    9.0779  -15.0890   21.0051 N   0  0  0  0  0  0  0  0  0  0  0  0
   11.0030  -16.1280   22.1256 C   0  0  0  0  0  0  0  0  0  0  0  0
   11.5827  -16.6523   23.1111 O   0  0  0  0  0  0  0  0  0  0  0  0
   11.7896  -15.9254   21.0075 O   0  0  0  0  0  0  0  0  0  0  0  0
  2  1  1  6
  2  3  1  0
  3  4  1  0
  4  8  1  0
  4  5  2  0
  5  6  1  0
  7  6  1  0
  8  7  2  0
  9  2  1  0
  9 13  1  0
 10  9  2  0
 12 11  1  1
 12 13  1  0
 12 14  1  0
 14 20  1  0
 15 14  2  0
 17 18  1  0
 17 16  1  6
 19 17  1  0
 19 20  1  6
 21 19  1  0
 21 23  1  0
 22 21  2  0
M  END
$$$$
