HAT.pdb
     RDKit          3D

 23 23  0  0  1  0  0  0  0  0999 V2000
   10.4294  -14.9578   17.9866 N   0  0  0  0  0  0  0  0  0  0  0  0
    9.2178  -14.4513   18.5800 C   0  0  1  0  0  0  0  0  0  0  0  0
    8.0385  -15.1060   17.9284 C   0  0  0  0  0  0  0  0  0  0  0  0
    7.9889  -14.6442   16.5161 C   0  0  0  0  0  0  0  0  0  0  0  0
    8.0233  -13.3364   16.0352 C   0  0  0  0  0  0  0  0  0  0  0  0
    7.9555  -13.3526   14.6865 N   0  0  0  0  0  0  0  0  0  0  0  0
    7.8794  -14.6338   14.3063 C   0  0  0  0  0  0  0  0  0  0  0  0
    7.8990  -15.4019   15.3889 N   0  0  0  0  0  0  0  0  0  0  0  0
    9.2644  -14.6860   20.0467 C   0  0  0  0  0  0  0  0  0  0  0  0
    9.9225  -15.6422   20.5431 O   0  0  0  0  0  0  0  0  0  0  0  0
    7.6865  -13.1279   23.1470 C   0  0  0  0  0  0  0  0  0  0  0  0
    8.6491  -14.0017   22.3936 C   0  0  2  0  0  0  0  0  0  0  0  0
    8.5747  -13.8532   20.9764 N   0  0  0  0  0  0  0  0  0  0  0  0
    8.4591  -15.4419   22.8032 C   0  0  0  0  0  0  0  0  0  0  0  0
    7.4029  -16.0521   22.5348 O   0  0  0  0  0  0  0  0  0  0  0  0
    8.5035  -18.1013   21.7177 C   0  0  0  0  0  0  0  0  0  0  0  0
    9.6052  -18.4429   22.7129 C   0  0  1  0  0  0  0  0  0  0  0  0
   10.8040  -18.2125   21.9843 O   0  0  0  0  0  0  0  0  0  0  0  0
    9.5336  -17.4957   23.8502 C   0  0  2  0  0  0  0  0  0  0  0  0
    9.4832  -16.1180   23.4996 N   0  0  0  0  0  0  0  0  0  0  0  0
   10.5615  -17.8444   24.8772 C   0  0  0  0  0  0  0  0  0  0  0  0
   11.3971  -17.0012   25.2932 O   0  0  0  0  0  0  0  0  0  0  0  0
   10.6614  -19.1076   25.4288 O   0  0  0  0  0  0  0  0  0  0  0  0
  2  1  1  6
  2  3  1  0
  3  4  1  0
  4  8  1  0
  4  5  2  0
  5  6  1  0
  7  6  1  0
  8  7  2  0
  9  2  1  0
  9 13  1  0
 10  9  2  0
 12 11  1  1
 12 13  1  0
 12 14  1  0
 14 20  1  0
 15 14  2  0
 17 18  1  0
 17 16  1  6
 19 17  1  0
 19 20  1  6
 21 19  1  0
 21 23  1  0
 22 21  2  0
M  END
$$$$
