HAT.pdb
     RDKit          3D

 23 23  0  0  1  0  0  0  0  0999 V2000
    8.5496  -17.0834   17.9424 N   0  0  0  0  0  0  0  0  0  0  0  0
    8.7382  -16.0895   18.9686 C   0  0  1  0  0  0  0  0  0  0  0  0
    7.5890  -15.1287   18.9416 C   0  0  0  0  0  0  0  0  0  0  0  0
    7.6639  -14.3711   17.6646 C   0  0  0  0  0  0  0  0  0  0  0  0
    8.2706  -13.1387   17.4278 C   0  0  0  0  0  0  0  0  0  0  0  0
    8.1111  -12.8024   16.1297 N   0  0  0  0  0  0  0  0  0  0  0  0
    7.4213  -13.7887   15.5440 C   0  0  0  0  0  0  0  0  0  0  0  0
    7.1547  -14.7202   16.4516 N   0  0  0  0  0  0  0  0  0  0  0  0
    8.8822  -16.7722   20.2807 C   0  0  0  0  0  0  0  0  0  0  0  0
    7.8897  -17.2746   20.8776 O   0  0  0  0  0  0  0  0  0  0  0  0
   11.6134  -18.3197   22.2985 C   0  0  0  0  0  0  0  0  0  0  0  0
   10.3222  -17.5582   22.1947 C   0  0  2  0  0  0  0  0  0  0  0  0
   10.1394  -16.9012   20.9414 N   0  0  0  0  0  0  0  0  0  0  0  0
   10.2095  -16.5856   23.3434 C   0  0  0  0  0  0  0  0  0  0  0  0
   11.0162  -15.6400   23.4660 O   0  0  0  0  0  0  0  0  0  0  0  0
    7.3857  -14.4534   24.3426 C   0  0  0  0  0  0  0  0  0  0  0  0
    7.6140  -15.3326   25.5656 C   0  0  1  0  0  0  0  0  0  0  0  0
    6.6180  -16.3403   25.4498 O   0  0  0  0  0  0  0  0  0  0  0  0
    8.9548  -15.9552   25.4641 C   0  0  2  0  0  0  0  0  0  0  0  0
    9.1817  -16.7379   24.2981 N   0  0  0  0  0  0  0  0  0  0  0  0
    9.3096  -16.6283   26.7502 C   0  0  0  0  0  0  0  0  0  0  0  0
    9.6983  -17.8240   26.7886 O   0  0  0  0  0  0  0  0  0  0  0  0
    9.2300  -15.9859   27.9711 O   0  0  0  0  0  0  0  0  0  0  0  0
  2  1  1  6
  2  3  1  0
  3  4  1  0
  4  8  1  0
  4  5  2  0
  5  6  1  0
  7  6  1  0
  8  7  2  0
  9  2  1  0
  9 13  1  0
 10  9  2  0
 12 11  1  6
 12 13  1  0
 12 14  1  0
 14 20  1  0
 15 14  2  0
 17 18  1  0
 17 16  1  6
 19 17  1  0
 19 20  1  6
 21 19  1  0
 21 23  1  0
 22 21  2  0
M  END
$$$$
