HAT.pdb
     RDKit          3D

 23 23  0  0  1  0  0  0  0  0999 V2000
   10.0862  -17.1410   16.9121 N   0  0  0  0  0  0  0  0  0  0  0  0
    9.2548  -16.9909   18.0795 C   0  0  1  0  0  0  0  0  0  0  0  0
    9.6178  -18.0433   19.0820 C   0  0  0  0  0  0  0  0  0  0  0  0
    9.2004  -19.3580   18.5276 C   0  0  0  0  0  0  0  0  0  0  0  0
   10.0006  -20.4568   18.2192 C   0  0  0  0  0  0  0  0  0  0  0  0
    9.2274  -21.4536   17.7373 N   0  0  0  0  0  0  0  0  0  0  0  0
    7.9637  -21.0122   17.7341 C   0  0  0  0  0  0  0  0  0  0  0  0
    7.9445  -19.7700   18.2021 N   0  0  0  0  0  0  0  0  0  0  0  0
    9.4163  -15.6132   18.6127 C   0  0  0  0  0  0  0  0  0  0  0  0
   10.5569  -15.1090   18.8087 O   0  0  0  0  0  0  0  0  0  0  0  0
    7.1559  -12.6562   19.3715 C   0  0  0  0  0  0  0  0  0  0  0  0
    8.4138  -13.4704   19.4836 C   0  0  2  0  0  0  0  0  0  0  0  0
    8.3025  -14.7821   18.9333 N   0  0  0  0  0  0  0  0  0  0  0  0
    8.8643  -13.5180   20.9234 C   0  0  0  0  0  0  0  0  0  0  0  0
    9.1256  -12.4696   21.5498 O   0  0  0  0  0  0  0  0  0  0  0  0
    7.1947  -14.3013   23.8319 C   0  0  0  0  0  0  0  0  0  0  0  0
    8.2560  -15.3943   23.8368 C   0  0  1  0  0  0  0  0  0  0  0  0
    7.5857  -16.5203   23.2853 O   0  0  0  0  0  0  0  0  0  0  0  0
    9.3613  -14.9925   22.9354 C   0  0  2  0  0  0  0  0  0  0  0  0
    8.9952  -14.7598   21.5806 N   0  0  0  0  0  0  0  0  0  0  0  0
   10.5340  -15.8997   23.1213 C   0  0  0  0  0  0  0  0  0  0  0  0
   11.0407  -16.5351   22.1612 O   0  0  0  0  0  0  0  0  0  0  0  0
   11.1301  -16.1001   24.3518 O   0  0  0  0  0  0  0  0  0  0  0  0
  2  1  1  6
  2  3  1  0
  3  4  1  0
  4  8  1  0
  4  5  2  0
  5  6  1  0
  7  6  1  0
  8  7  2  0
  9  2  1  0
  9 13  1  0
 10  9  2  0
 12 11  1  1
 12 13  1  0
 12 14  1  0
 14 20  1  0
 15 14  2  0
 17 18  1  0
 17 16  1  6
 19 17  1  0
 19 20  1  6
 21 19  1  0
 21 23  1  0
 22 21  2  0
M  END
$$$$
