HAT.pdb
     RDKit          3D

 23 23  0  0  1  0  0  0  0  0999 V2000
   10.4630  -14.7326   21.3346 N   0  0  0  0  0  0  0  0  0  0  0  0
    9.1222  -14.2821   21.6106 C   0  0  1  0  0  0  0  0  0  0  0  0
    8.1493  -15.1448   20.8666 C   0  0  0  0  0  0  0  0  0  0  0  0
    8.0297  -14.6041   19.4869 C   0  0  0  0  0  0  0  0  0  0  0  0
    8.7409  -13.5545   18.9078 C   0  0  0  0  0  0  0  0  0  0  0  0
    8.3278  -13.3821   17.6336 N   0  0  0  0  0  0  0  0  0  0  0  0
    7.3770  -14.2938   17.3958 C   0  0  0  0  0  0  0  0  0  0  0  0
    7.1981  -15.0198   18.4928 N   0  0  0  0  0  0  0  0  0  0  0  0
    8.8989  -14.3038   23.0796 C   0  0  0  0  0  0  0  0  0  0  0  0
    9.7552  -14.7862   23.8720 O   0  0  0  0  0  0  0  0  0  0  0  0
    6.2834  -12.8998   25.4680 C   0  0  0  0  0  0  0  0  0  0  0  0
    7.5092  -13.6818   25.0887 C   0  0  2  0  0  0  0  0  0  0  0  0
    7.7139  -13.7857   23.6804 N   0  0  0  0  0  0  0  0  0  0  0  0
    7.4663  -15.0441   25.7370 C   0  0  0  0  0  0  0  0  0  0  0  0
    7.2270  -15.1680   26.9565 O   0  0  0  0  0  0  0  0  0  0  0  0
    5.6375  -18.0804   24.2422 C   0  0  0  0  0  0  0  0  0  0  0  0
    7.0687  -18.5317   24.5047 C   0  0  1  0  0  0  0  0  0  0  0  0
    7.6827  -18.4743   23.2237 O   0  0  0  0  0  0  0  0  0  0  0  0
    7.7218  -17.5528   25.4052 C   0  0  2  0  0  0  0  0  0  0  0  0
    7.6985  -16.2009   24.9631 N   0  0  0  0  0  0  0  0  0  0  0  0
    9.0666  -18.0532   25.8223 C   0  0  0  0  0  0  0  0  0  0  0  0
    9.2214  -19.1899   26.3383 O   0  0  0  0  0  0  0  0  0  0  0  0
   10.2174  -17.3028   25.6724 O   0  0  0  0  0  0  0  0  0  0  0  0
  2  1  1  1
  2  3  1  0
  3  4  1  0
  4  8  1  0
  4  5  2  0
  5  6  1  0
  7  6  1  0
  8  7  2  0
  9  2  1  0
  9 13  1  0
 10  9  2  0
 12 11  1  6
 12 13  1  0
 12 14  1  0
 14 20  1  0
 15 14  2  0
 17 18  1  0
 17 16  1  6
 19 17  1  0
 19 20  1  6
 21 19  1  0
 21 23  1  0
 22 21  2  0
M  END
$$$$
