HAT.pdb
     RDKit          3D

 23 23  0  0  1  0  0  0  0  0999 V2000
    8.4048  -17.0788   14.7112 N   0  0  0  0  0  0  0  0  0  0  0  0
    8.9827  -15.9155   15.3352 C   0  0  1  0  0  0  0  0  0  0  0  0
    8.0250  -14.7689   15.2234 C   0  0  0  0  0  0  0  0  0  0  0  0
    7.9167  -14.4098   13.7848 C   0  0  0  0  0  0  0  0  0  0  0  0
    8.5504  -15.0079   12.6969 C   0  0  0  0  0  0  0  0  0  0  0  0
    8.1803  -14.3786   11.5608 N   0  0  0  0  0  0  0  0  0  0  0  0
    7.3319  -13.4019   11.9040 C   0  0  0  0  0  0  0  0  0  0  0  0
    7.1736  -13.4179   13.2220 N   0  0  0  0  0  0  0  0  0  0  0  0
    9.3216  -16.2424   16.7447 C   0  0  0  0  0  0  0  0  0  0  0  0
    9.8647  -15.3962   17.5080 O   0  0  0  0  0  0  0  0  0  0  0  0
    8.5099  -18.9102   19.2666 C   0  0  0  0  0  0  0  0  0  0  0  0
    9.4286  -17.8980   18.6427 C   0  0  2  0  0  0  0  0  0  0  0  0
    9.0566  -17.5212   17.3177 N   0  0  0  0  0  0  0  0  0  0  0  0
   10.8504  -18.4025   18.6888 C   0  0  0  0  0  0  0  0  0  0  0  0
   11.3876  -18.7117   19.7731 O   0  0  0  0  0  0  0  0  0  0  0  0
   12.2551  -21.1114   16.3497 C   0  0  0  0  0  0  0  0  0  0  0  0
   13.1747  -19.9047   16.2120 C   0  0  1  0  0  0  0  0  0  0  0  0
   12.7436  -19.2856   15.0069 O   0  0  0  0  0  0  0  0  0  0  0  0
   12.9321  -18.9856   17.3487 C   0  0  2  0  0  0  0  0  0  0  0  0
   11.5923  -18.5306   17.4954 N   0  0  0  0  0  0  0  0  0  0  0  0
   13.9665  -17.9075   17.3701 C   0  0  0  0  0  0  0  0  0  0  0  0
   13.6581  -16.6936   17.4860 O   0  0  0  0  0  0  0  0  0  0  0  0
   15.3183  -18.1732   17.2607 O   0  0  0  0  0  0  0  0  0  0  0  0
  2  1  1  1
  2  3  1  0
  3  4  1  0
  4  8  1  0
  4  5  2  0
  5  6  1  0
  7  6  1  0
  8  7  2  0
  9  2  1  0
  9 13  1  0
 10  9  2  0
 12 11  1  6
 12 13  1  0
 12 14  1  0
 14 20  1  0
 15 14  2  0
 17 18  1  0
 17 16  1  1
 19 17  1  0
 19 20  1  6
 21 19  1  0
 21 23  1  0
 22 21  2  0
M  END
$$$$
