HAT.pdb
     RDKit          3D

 23 23  0  0  1  0  0  0  0  0999 V2000
    9.4609  -17.7813   19.4072 N   0  0  0  0  0  0  0  0  0  0  0  0
   10.2232  -16.5666   19.2654 C   0  0  1  0  0  0  0  0  0  0  0  0
   10.1961  -16.1321   17.8319 C   0  0  0  0  0  0  0  0  0  0  0  0
   10.8467  -17.1977   17.0248 C   0  0  0  0  0  0  0  0  0  0  0  0
   12.1716  -17.6279   17.0729 C   0  0  0  0  0  0  0  0  0  0  0  0
   12.3543  -18.6188   16.1738 N   0  0  0  0  0  0  0  0  0  0  0  0
   11.1815  -18.8235   15.5619 C   0  0  0  0  0  0  0  0  0  0  0  0
   10.2856  -17.9824   16.0644 N   0  0  0  0  0  0  0  0  0  0  0  0
    9.6690  -15.5392   20.1850 C   0  0  0  0  0  0  0  0  0  0  0  0
   10.2433  -14.4286   20.3595 O   0  0  0  0  0  0  0  0  0  0  0  0
    6.4255  -14.7556   21.8675 C   0  0  0  0  0  0  0  0  0  0  0  0
    7.9273  -14.8043   21.8527 C   0  0  2  0  0  0  0  0  0  0  0  0
    8.4645  -15.7421   20.9212 N   0  0  0  0  0  0  0  0  0  0  0  0
    8.4432  -15.0622   23.2474 C   0  0  0  0  0  0  0  0  0  0  0  0
    7.9872  -14.4361   24.2272 O   0  0  0  0  0  0  0  0  0  0  0  0
    8.3072  -17.6339   25.5763 C   0  0  0  0  0  0  0  0  0  0  0  0
    9.8074  -17.5950   25.3139 C   0  0  1  0  0  0  0  0  0  0  0  0
   10.0172  -18.6531   24.3878 O   0  0  0  0  0  0  0  0  0  0  0  0
   10.1473  -16.3051   24.6689 C   0  0  2  0  0  0  0  0  0  0  0  0
    9.4554  -16.0224   23.4585 N   0  0  0  0  0  0  0  0  0  0  0  0
   11.6307  -16.1398   24.5966 C   0  0  0  0  0  0  0  0  0  0  0  0
   12.2228  -15.9276   23.5073 O   0  0  0  0  0  0  0  0  0  0  0  0
   12.4413  -16.2127   25.7135 O   0  0  0  0  0  0  0  0  0  0  0  0
  2  1  1  6
  2  3  1  0
  3  4  1  0
  4  8  1  0
  4  5  2  0
  5  6  1  0
  7  6  1  0
  8  7  2  0
  9  2  1  0
  9 13  1  0
 10  9  2  0
 12 11  1  1
 12 13  1  0
 12 14  1  0
 14 20  1  0
 15 14  2  0
 17 18  1  0
 17 16  1  6
 19 17  1  0
 19 20  1  6
 21 19  1  0
 21 23  1  0
 22 21  2  0
M  END
$$$$
