HAT.pdb
     RDKit          3D

 23 23  0  0  1  0  0  0  0  0999 V2000
    8.8301  -16.8513   19.2057 N   0  0  0  0  0  0  0  0  0  0  0  0
    8.2887  -15.6964   19.8763 C   0  0  1  0  0  0  0  0  0  0  0  0
    7.0499  -15.2479   19.1633 C   0  0  0  0  0  0  0  0  0  0  0  0
    7.4720  -14.5495   17.9206 C   0  0  0  0  0  0  0  0  0  0  0  0
    8.7666  -14.2677   17.4875 C   0  0  0  0  0  0  0  0  0  0  0  0
    8.7123  -13.6182   16.3047 N   0  0  0  0  0  0  0  0  0  0  0  0
    7.4202  -13.4840   15.9822 C   0  0  0  0  0  0  0  0  0  0  0  0
    6.6823  -14.0351   16.9384 N   0  0  0  0  0  0  0  0  0  0  0  0
    8.0366  -16.0395   21.3001 C   0  0  0  0  0  0  0  0  0  0  0  0
    6.8701  -16.2539   21.7325 O   0  0  0  0  0  0  0  0  0  0  0  0
    9.7345  -17.5533   24.1635 C   0  0  0  0  0  0  0  0  0  0  0  0
    8.8844  -16.4293   23.6419 C   0  0  2  0  0  0  0  0  0  0  0  0
    9.0876  -16.1470   22.2581 N   0  0  0  0  0  0  0  0  0  0  0  0
    9.0930  -15.1968   24.4877 C   0  0  0  0  0  0  0  0  0  0  0  0
   10.0704  -14.4434   24.2954 O   0  0  0  0  0  0  0  0  0  0  0  0
    6.9448  -12.2396   25.1114 C   0  0  0  0  0  0  0  0  0  0  0  0
    7.0833  -12.9027   26.4759 C   0  0  1  0  0  0  0  0  0  0  0  0
    5.8928  -13.6695   26.6028 O   0  0  0  0  0  0  0  0  0  0  0  0
    8.2518  -13.8134   26.4493 C   0  0  2  0  0  0  0  0  0  0  0  0
    8.1765  -14.8820   25.5134 N   0  0  0  0  0  0  0  0  0  0  0  0
    8.6193  -14.2216   27.8390 C   0  0  0  0  0  0  0  0  0  0  0  0
    8.7487  -15.4299   28.1638 O   0  0  0  0  0  0  0  0  0  0  0  0
    8.8351  -13.3043   28.8499 O   0  0  0  0  0  0  0  0  0  0  0  0
  2  1  1  6
  2  3  1  0
  3  4  1  0
  4  8  1  0
  4  5  2  0
  5  6  1  0
  7  6  1  0
  8  7  2  0
  9  2  1  0
  9 13  1  0
 10  9  2  0
 12 11  1  1
 12 13  1  0
 12 14  1  0
 14 20  1  0
 15 14  2  0
 17 18  1  0
 17 16  1  6
 19 17  1  0
 19 20  1  6
 21 19  1  0
 21 23  1  0
 22 21  2  0
M  END
$$$$
