HAT.pdb
     RDKit          3D

 23 23  0  0  1  0  0  0  0  0999 V2000
   10.7750  -16.6837   12.6330 N   0  0  0  0  0  0  0  0  0  0  0  0
   11.1399  -15.4707   13.3201 C   0  0  1  0  0  0  0  0  0  0  0  0
   10.1056  -14.4210   13.0504 C   0  0  0  0  0  0  0  0  0  0  0  0
   10.2254  -14.0257   11.6223 C   0  0  0  0  0  0  0  0  0  0  0  0
   11.1861  -14.4254   10.6948 C   0  0  0  0  0  0  0  0  0  0  0  0
   10.9348  -13.8355    9.5063 N   0  0  0  0  0  0  0  0  0  0  0  0
    9.8432  -13.0763    9.6606 C   0  0  0  0  0  0  0  0  0  0  0  0
    9.4203  -13.1871   10.9142 N   0  0  0  0  0  0  0  0  0  0  0  0
   11.2926  -15.7643   14.7689 C   0  0  0  0  0  0  0  0  0  0  0  0
   11.5909  -14.8613   15.5992 O   0  0  0  0  0  0  0  0  0  0  0  0
   11.0633  -18.8578   16.9914 C   0  0  0  0  0  0  0  0  0  0  0  0
   11.3033  -17.4074   16.6807 C   0  0  2  0  0  0  0  0  0  0  0  0
   11.1132  -17.0729   15.3067 N   0  0  0  0  0  0  0  0  0  0  0  0
   12.6778  -17.0043   17.1565 C   0  0  0  0  0  0  0  0  0  0  0  0
   13.6833  -17.1769   16.4361 O   0  0  0  0  0  0  0  0  0  0  0  0
   13.0847  -13.6627   18.7503 C   0  0  0  0  0  0  0  0  0  0  0  0
   13.9046  -14.5753   19.6535 C   0  0  1  0  0  0  0  0  0  0  0  0
   13.1069  -14.7003   20.8236 O   0  0  0  0  0  0  0  0  0  0  0  0
   14.0332  -15.9012   19.0046 C   0  0  2  0  0  0  0  0  0  0  0  0
   12.8401  -16.4231   18.4320 N   0  0  0  0  0  0  0  0  0  0  0  0
   14.7634  -16.8463   19.9027 C   0  0  0  0  0  0  0  0  0  0  0  0
   15.9629  -16.6573   20.2311 O   0  0  0  0  0  0  0  0  0  0  0  0
   14.1729  -17.9823   20.4229 O   0  0  0  0  0  0  0  0  0  0  0  0
  2  1  1  6
  2  3  1  0
  3  4  1  0
  4  8  1  0
  4  5  2  0
  5  6  1  0
  7  6  1  0
  8  7  2  0
  9  2  1  0
  9 13  1  0
 10  9  2  0
 12 11  1  6
 12 13  1  0
 12 14  1  0
 14 20  1  0
 15 14  2  0
 17 18  1  0
 17 16  1  6
 19 17  1  0
 19 20  1  1
 21 19  1  0
 21 23  1  0
 22 21  2  0
M  END
$$$$
