HAT.pdb
     RDKit          3D

 23 23  0  0  1  0  0  0  0  0999 V2000
   11.3194  -17.3503   15.0810 N   0  0  0  0  0  0  0  0  0  0  0  0
   11.9358  -17.1342   16.3655 C   0  0  1  0  0  0  0  0  0  0  0  0
   12.7565  -15.8820   16.3143 C   0  0  0  0  0  0  0  0  0  0  0  0
   13.9958  -16.1853   15.5512 C   0  0  0  0  0  0  0  0  0  0  0  0
   15.0507  -17.0199   15.9167 C   0  0  0  0  0  0  0  0  0  0  0  0
   15.9827  -17.0189   14.9394 N   0  0  0  0  0  0  0  0  0  0  0  0
   15.5433  -16.2073   13.9700 C   0  0  0  0  0  0  0  0  0  0  0  0
   14.3655  -15.7115   14.3298 N   0  0  0  0  0  0  0  0  0  0  0  0
   10.8762  -17.0815   17.4061 C   0  0  0  0  0  0  0  0  0  0  0  0
    9.8440  -16.3688   17.2638 O   0  0  0  0  0  0  0  0  0  0  0  0
    9.9077  -19.0929   20.4409 C   0  0  0  0  0  0  0  0  0  0  0  0
    9.9488  -17.8302   19.6274 C   0  0  2  0  0  0  0  0  0  0  0  0
   10.9588  -17.8261   18.6196 N   0  0  0  0  0  0  0  0  0  0  0  0
   10.0849  -16.6378   20.5427 C   0  0  0  0  0  0  0  0  0  0  0  0
   11.2093  -16.2200   20.8908 O   0  0  0  0  0  0  0  0  0  0  0  0
    7.6613  -13.4721   20.2052 C   0  0  0  0  0  0  0  0  0  0  0  0
    7.6820  -13.9583   21.6488 C   0  0  1  0  0  0  0  0  0  0  0  0
    6.5035  -14.7458   21.7584 O   0  0  0  0  0  0  0  0  0  0  0  0
    8.8690  -14.8231   21.8458 C   0  0  2  0  0  0  0  0  0  0  0  0
    8.9315  -15.9782   21.0178 N   0  0  0  0  0  0  0  0  0  0  0  0
    9.0819  -15.0829   23.3018 C   0  0  0  0  0  0  0  0  0  0  0  0
    9.1186  -16.2500   23.7696 O   0  0  0  0  0  0  0  0  0  0  0  0
    9.2469  -14.0647   24.2215 O   0  0  0  0  0  0  0  0  0  0  0  0
  2  1  1  6
  2  3  1  0
  3  4  1  0
  4  8  1  0
  4  5  2  0
  5  6  1  0
  7  6  1  0
  8  7  2  0
  9  2  1  0
  9 13  1  0
 10  9  2  0
 12 11  1  1
 12 13  1  0
 12 14  1  0
 14 20  1  0
 15 14  2  0
 17 18  1  0
 17 16  1  6
 19 17  1  0
 19 20  1  6
 21 19  1  0
 21 23  1  0
 22 21  2  0
M  END
$$$$
