HAT.pdb
     RDKit          3D

 23 23  0  0  1  0  0  0  0  0999 V2000
    7.1645  -15.5238   19.3289 N   0  0  0  0  0  0  0  0  0  0  0  0
    8.4407  -14.8555   19.2920 C   0  0  1  0  0  0  0  0  0  0  0  0
    8.3292  -13.6264   18.4428 C   0  0  0  0  0  0  0  0  0  0  0  0
    8.0032  -14.0616   17.0592 C   0  0  0  0  0  0  0  0  0  0  0  0
    7.8952  -15.3613   16.5672 C   0  0  0  0  0  0  0  0  0  0  0  0
    7.5826  -15.3192   15.2541 N   0  0  0  0  0  0  0  0  0  0  0  0
    7.4911  -14.0297   14.9069 C   0  0  0  0  0  0  0  0  0  0  0  0
    7.7399  -13.2817   15.9751 N   0  0  0  0  0  0  0  0  0  0  0  0
    8.8671  -14.5529   20.6830 C   0  0  0  0  0  0  0  0  0  0  0  0
   10.0431  -14.1779   20.9478 O   0  0  0  0  0  0  0  0  0  0  0  0
    7.4320  -13.7373   24.0003 C   0  0  0  0  0  0  0  0  0  0  0  0
    8.3867  -14.5351   23.1576 C   0  0  2  0  0  0  0  0  0  0  0  0
    7.9822  -14.6664   21.7956 N   0  0  0  0  0  0  0  0  0  0  0  0
    8.6210  -15.8849   23.7910 C   0  0  0  0  0  0  0  0  0  0  0  0
    7.6716  -16.6677   24.0050 O   0  0  0  0  0  0  0  0  0  0  0  0
   10.2614  -18.6565   22.5719 C   0  0  0  0  0  0  0  0  0  0  0  0
   11.0841  -18.4230   23.8327 C   0  0  1  0  0  0  0  0  0  0  0  0
   12.2511  -17.7636   23.3589 O   0  0  0  0  0  0  0  0  0  0  0  0
   10.3366  -17.5110   24.7300 C   0  0  2  0  0  0  0  0  0  0  0  0
    9.9277  -16.2780   24.1504 N   0  0  0  0  0  0  0  0  0  0  0  0
   11.0426  -17.3842   26.0409 C   0  0  0  0  0  0  0  0  0  0  0  0
   11.4363  -16.2724   26.4782 O   0  0  0  0  0  0  0  0  0  0  0  0
   11.3096  -18.4731   26.8489 O   0  0  0  0  0  0  0  0  0  0  0  0
  2  1  1  1
  2  3  1  0
  3  4  1  0
  4  8  1  0
  4  5  2  0
  5  6  1  0
  7  6  1  0
  8  7  2  0
  9  2  1  0
  9 13  1  0
 10  9  2  0
 12 11  1  1
 12 13  1  0
 12 14  1  0
 14 20  1  0
 15 14  2  0
 17 18  1  0
 17 16  1  6
 19 17  1  0
 19 20  1  6
 21 19  1  0
 21 23  1  0
 22 21  2  0
M  END
$$$$
