HAT.pdb
     RDKit          3D

 23 23  0  0  1  0  0  0  0  0999 V2000
    7.4534  -18.2208   16.8652 N   0  0  0  0  0  0  0  0  0  0  0  0
    8.3348  -17.1914   17.3551 C   0  0  1  0  0  0  0  0  0  0  0  0
    7.8143  -15.8528   16.9290 C   0  0  0  0  0  0  0  0  0  0  0  0
    8.1405  -15.6791   15.4889 C   0  0  0  0  0  0  0  0  0  0  0  0
    8.7242  -16.5996   14.6202 C   0  0  0  0  0  0  0  0  0  0  0  0
    8.8479  -16.0444   13.3954 N   0  0  0  0  0  0  0  0  0  0  0  0
    8.3583  -14.8008   13.4699 C   0  0  0  0  0  0  0  0  0  0  0  0
    7.9381  -14.5813   14.7100 N   0  0  0  0  0  0  0  0  0  0  0  0
    8.4496  -17.3169   18.8314 C   0  0  0  0  0  0  0  0  0  0  0  0
    7.4471  -17.1827   19.5868 O   0  0  0  0  0  0  0  0  0  0  0  0
   10.9726  -18.7573   21.2203 C   0  0  0  0  0  0  0  0  0  0  0  0
    9.8199  -17.8564   20.8774 C   0  0  2  0  0  0  0  0  0  0  0  0
    9.6885  -17.5945   19.4810 N   0  0  0  0  0  0  0  0  0  0  0  0
    9.9218  -16.5742   21.6670 C   0  0  0  0  0  0  0  0  0  0  0  0
   10.7029  -15.6646   21.3172 O   0  0  0  0  0  0  0  0  0  0  0  0
    7.5352  -14.0183   22.2784 C   0  0  0  0  0  0  0  0  0  0  0  0
    7.8331  -14.4939   23.6947 C   0  0  1  0  0  0  0  0  0  0  0  0
    6.7541  -15.3704   23.9922 O   0  0  0  0  0  0  0  0  0  0  0  0
    9.1000  -15.2624   23.6852 C   0  0  2  0  0  0  0  0  0  0  0  0
    9.1276  -16.3903   22.8187 N   0  0  0  0  0  0  0  0  0  0  0  0
    9.5482  -15.5353   25.0843 C   0  0  0  0  0  0  0  0  0  0  0  0
    9.8129  -16.6989   25.4817 O   0  0  0  0  0  0  0  0  0  0  0  0
    9.6957  -14.5340   26.0254 O   0  0  0  0  0  0  0  0  0  0  0  0
  2  1  1  1
  2  3  1  0
  3  4  1  0
  4  8  1  0
  4  5  2  0
  5  6  1  0
  7  6  1  0
  8  7  2  0
  9  2  1  0
  9 13  1  0
 10  9  2  0
 12 11  1  6
 12 13  1  0
 12 14  1  0
 14 20  1  0
 15 14  2  0
 17 18  1  0
 17 16  1  6
 19 17  1  0
 19 20  1  6
 21 19  1  0
 21 23  1  0
 22 21  2  0
M  END
$$$$
