HAT.pdb
     RDKit          3D

 23 23  0  0  1  0  0  0  0  0999 V2000
    7.0253  -16.5559   19.7562 N   0  0  0  0  0  0  0  0  0  0  0  0
    7.8634  -15.6257   20.4696 C   0  0  1  0  0  0  0  0  0  0  0  0
    7.4738  -14.2272   20.0998 C   0  0  0  0  0  0  0  0  0  0  0  0
    7.7876  -14.0371   18.6591 C   0  0  0  0  0  0  0  0  0  0  0  0
    7.0298  -13.3802   17.6912 C   0  0  0  0  0  0  0  0  0  0  0  0
    7.6731  -13.4340   16.5050 N   0  0  0  0  0  0  0  0  0  0  0  0
    8.8140  -14.1064   16.7002 C   0  0  0  0  0  0  0  0  0  0  0  0
    8.8847  -14.4652   17.9765 N   0  0  0  0  0  0  0  0  0  0  0  0
    7.7415  -15.8868   21.9274 C   0  0  0  0  0  0  0  0  0  0  0  0
    6.6213  -15.8802   22.5095 O   0  0  0  0  0  0  0  0  0  0  0  0
    9.6883  -17.5431   24.6085 C   0  0  0  0  0  0  0  0  0  0  0  0
    8.7979  -16.4217   24.1529 C   0  0  2  0  0  0  0  0  0  0  0  0
    8.8725  -16.1589   22.7525 N   0  0  0  0  0  0  0  0  0  0  0  0
    9.0894  -15.1792   24.9587 C   0  0  0  0  0  0  0  0  0  0  0  0
   10.1117  -14.4961   24.7392 O   0  0  0  0  0  0  0  0  0  0  0  0
    7.0247  -12.0649   25.6283 C   0  0  0  0  0  0  0  0  0  0  0  0
    7.1991  -12.7625   26.9713 C   0  0  1  0  0  0  0  0  0  0  0  0
    6.0023  -13.5152   27.1205 O   0  0  0  0  0  0  0  0  0  0  0  0
    8.3524  -13.6887   26.8835 C   0  0  2  0  0  0  0  0  0  0  0  0
    8.2004  -14.7745   25.9771 N   0  0  0  0  0  0  0  0  0  0  0  0
    8.8098  -14.0741   28.2528 C   0  0  0  0  0  0  0  0  0  0  0  0
    8.9638  -15.2768   28.5875 O   0  0  0  0  0  0  0  0  0  0  0  0
    9.0871  -13.1405   29.2333 O   0  0  0  0  0  0  0  0  0  0  0  0
  2  1  1  6
  2  3  1  0
  3  4  1  0
  4  8  1  0
  4  5  2  0
  5  6  1  0
  7  6  1  0
  8  7  2  0
  9  2  1  0
  9 13  1  0
 10  9  2  0
 12 11  1  1
 12 13  1  0
 12 14  1  0
 14 20  1  0
 15 14  2  0
 17 18  1  0
 17 16  1  6
 19 17  1  0
 19 20  1  6
 21 19  1  0
 21 23  1  0
 22 21  2  0
M  END
$$$$
