HAT.pdb
     RDKit          3D

 23 23  0  0  1  0  0  0  0  0999 V2000
    8.4354  -16.6468   19.6218 N   0  0  0  0  0  0  0  0  0  0  0  0
    8.3310  -15.4503   20.4181 C   0  0  1  0  0  0  0  0  0  0  0  0
    7.2130  -14.6036   19.8914 C   0  0  0  0  0  0  0  0  0  0  0  0
    7.5784  -14.1791   18.5142 C   0  0  0  0  0  0  0  0  0  0  0  0
    8.2883  -13.0458   18.1213 C   0  0  0  0  0  0  0  0  0  0  0  0
    8.4044  -13.0334   16.7759 N   0  0  0  0  0  0  0  0  0  0  0  0
    7.7875  -14.1271   16.3122 C   0  0  0  0  0  0  0  0  0  0  0  0
    7.2967  -14.8084   17.3406 N   0  0  0  0  0  0  0  0  0  0  0  0
    8.1372  -15.8332   21.8409 C   0  0  0  0  0  0  0  0  0  0  0  0
    6.9853  -15.9408   22.3461 O   0  0  0  0  0  0  0  0  0  0  0  0
    9.9968  -17.5292   24.5599 C   0  0  0  0  0  0  0  0  0  0  0  0
    9.0897  -16.4234   24.0990 C   0  0  2  0  0  0  0  0  0  0  0  0
    9.2308  -16.1005   22.7164 N   0  0  0  0  0  0  0  0  0  0  0  0
    9.2879  -15.2053   24.9679 C   0  0  0  0  0  0  0  0  0  0  0  0
   10.2630  -14.4443   24.7948 O   0  0  0  0  0  0  0  0  0  0  0  0
    7.1409  -12.2842   25.5292 C   0  0  0  0  0  0  0  0  0  0  0  0
    7.2425  -12.9262   26.9070 C   0  0  1  0  0  0  0  0  0  0  0  0
    6.0477  -13.6892   27.0146 O   0  0  0  0  0  0  0  0  0  0  0  0
    8.4096  -13.8389   26.9252 C   0  0  2  0  0  0  0  0  0  0  0  0
    8.3639  -14.9129   25.9935 N   0  0  0  0  0  0  0  0  0  0  0  0
    8.7294  -14.2393   28.3288 C   0  0  0  0  0  0  0  0  0  0  0  0
    8.8106  -15.4465   28.6728 O   0  0  0  0  0  0  0  0  0  0  0  0
    8.9510  -13.3154   29.3324 O   0  0  0  0  0  0  0  0  0  0  0  0
  2  1  1  6
  2  3  1  0
  3  4  1  0
  4  8  1  0
  4  5  2  0
  5  6  1  0
  7  6  1  0
  8  7  2  0
  9  2  1  0
  9 13  1  0
 10  9  2  0
 12 11  1  1
 12 13  1  0
 12 14  1  0
 14 20  1  0
 15 14  2  0
 17 18  1  0
 17 16  1  6
 19 17  1  0
 19 20  1  6
 21 19  1  0
 21 23  1  0
 22 21  2  0
M  END
$$$$
