HAT.pdb
     RDKit          3D

 23 23  0  0  1  0  0  0  0  0999 V2000
   12.4067  -14.1536   19.6957 N   0  0  0  0  0  0  0  0  0  0  0  0
   10.9683  -14.1987   19.7722 C   0  0  1  0  0  0  0  0  0  0  0  0
   10.4679  -15.3597   18.9686 C   0  0  0  0  0  0  0  0  0  0  0  0
    9.6098  -14.8198   17.8812 C   0  0  0  0  0  0  0  0  0  0  0  0
    9.3133  -13.4876   17.5981 C   0  0  0  0  0  0  0  0  0  0  0  0
    8.4956  -13.4284   16.5250 N   0  0  0  0  0  0  0  0  0  0  0  0
    8.2697  -14.6860   16.1258 C   0  0  0  0  0  0  0  0  0  0  0  0
    8.9291  -15.5132   16.9280 N   0  0  0  0  0  0  0  0  0  0  0  0
   10.5634  -14.2743   21.2000 C   0  0  0  0  0  0  0  0  0  0  0  0
   11.4081  -14.4690   22.1179 O   0  0  0  0  0  0  0  0  0  0  0  0
    7.3881  -13.5484   23.1597 C   0  0  0  0  0  0  0  0  0  0  0  0
    8.7947  -14.0465   22.9817 C   0  0  2  0  0  0  0  0  0  0  0  0
    9.2075  -14.1331   21.6186 N   0  0  0  0  0  0  0  0  0  0  0  0
    8.9607  -15.3698   23.6884 C   0  0  0  0  0  0  0  0  0  0  0  0
    8.6919  -15.4881   24.9023 O   0  0  0  0  0  0  0  0  0  0  0  0
    8.1500  -18.8621   21.8706 C   0  0  0  0  0  0  0  0  0  0  0  0
    9.5430  -18.9012   22.4862 C   0  0  1  0  0  0  0  0  0  0  0  0
   10.4064  -18.6342   21.3887 O   0  0  0  0  0  0  0  0  0  0  0  0
    9.6590  -17.8065   23.4781 C   0  0  2  0  0  0  0  0  0  0  0  0
    9.4255  -16.4959   22.9765 N   0  0  0  0  0  0  0  0  0  0  0  0
   10.9163  -17.9599   24.2708 C   0  0  0  0  0  0  0  0  0  0  0  0
   11.7187  -17.0051   24.4345 O   0  0  0  0  0  0  0  0  0  0  0  0
   11.2772  -19.1532   24.8672 O   0  0  0  0  0  0  0  0  0  0  0  0
  2  1  1  1
  2  3  1  0
  3  4  1  0
  4  8  1  0
  4  5  2  0
  5  6  1  0
  7  6  1  0
  8  7  2  0
  9  2  1  0
  9 13  1  0
 10  9  2  0
 12 11  1  6
 12 13  1  0
 12 14  1  0
 14 20  1  0
 15 14  2  0
 17 18  1  0
 17 16  1  6
 19 17  1  0
 19 20  1  6
 21 19  1  0
 21 23  1  0
 22 21  2  0
M  END
$$$$
