IFY.pdb
     RDKit          3D

 32 33  0  0  1  0  0  0  0  0999 V2000
   24.9539  -20.4971  -24.9836 C   0  0  0  0  0  0  0  0  0  0  0  0
   25.8023  -19.7657  -23.9909 C   0  0  0  0  0  0  0  0  0  0  0  0
   25.4375  -20.1584  -22.5481 C   0  0  2  0  0  0  0  0  0  0  0  0
   24.0230  -19.6585  -22.3588 C   0  0  0  0  0  0  0  0  0  0  0  0
   26.3986  -19.3937  -21.6578 C   0  0  2  0  0  0  0  0  0  0  0  0
   27.7504  -19.9519  -21.8833 N   0  0  0  0  0  0  0  0  0  0  0  0
   26.1065  -19.5235  -20.2144 C   0  0  0  0  0  0  0  0  0  0  0  0
   26.4817  -20.5861  -19.5921 O   0  0  0  0  0  0  0  0  0  0  0  0
   25.4378  -18.5635  -19.4319 N   0  0  0  0  0  0  0  0  0  0  0  0
   25.2690  -18.7789  -17.9580 C   0  0  1  0  0  0  0  0  0  0  0  0
   25.9246  -17.6243  -17.2586 C   0  0  0  0  0  0  0  0  0  0  0  0
   27.3807  -17.5666  -17.2725 C   0  0  0  0  0  0  0  0  0  0  0  0
   28.1778  -18.2862  -16.4219 C   0  0  0  0  0  0  0  0  0  0  0  0
   29.5730  -18.1850  -16.4638 C   0  0  0  0  0  0  0  0  0  0  0  0
   30.1705  -17.3561  -17.3662 C   0  0  0  0  0  0  0  0  0  0  0  0
   29.3755  -16.6247  -18.2306 C   0  0  0  0  0  0  0  0  0  0  0  0
   28.0161  -16.7295  -18.1825 C   0  0  0  0  0  0  0  0  0  0  0  0
   23.8160  -18.7810  -17.7273 C   0  0  0  0  0  0  0  0  0  0  0  0
   23.1446  -17.8308  -18.2760 O   0  0  0  0  0  0  0  0  0  0  0  0
   15.3252  -20.3944  -16.8425 O   0  0  0  0  0  0  0  0  0  0  0  0
   16.7116  -20.5253  -16.8770 C   0  0  0  0  0  0  0  0  0  0  0  0
   17.4125  -20.3673  -18.0473 C   0  0  0  0  0  0  0  0  0  0  0  0
   18.7767  -20.5025  -18.0485 C   0  0  0  0  0  0  0  0  0  0  0  0
   19.5251  -20.7985  -16.9080 C   0  0  0  0  0  0  0  0  0  0  0  0
   20.9910  -20.9598  -16.9631 C   0  0  0  0  0  0  0  0  0  0  0  0
   21.6281  -19.5694  -16.9235 C   0  0  2  0  0  0  0  0  0  0  0  0
   23.0705  -19.7037  -16.9838 N   0  0  0  0  0  0  0  0  0  0  0  0
   21.2518  -18.8410  -15.7229 C   0  0  0  0  0  0  0  0  0  0  0  0
   20.1552  -18.0136  -15.7073 O   0  0  0  0  0  0  0  0  0  0  0  0
   18.7937  -20.9553  -15.7293 C   0  0  0  0  0  0  0  0  0  0  0  0
   17.4261  -20.8177  -15.7387 C   0  0  0  0  0  0  0  0  0  0  0  0
   21.9088  -18.9350  -14.6584 O   0  0  0  0  0  0  0  0  0  0  0  0
  1  2  1  0
  3  5  1  0
  3  2  1  0
  3  4  1  1
  5  7  1  0
  5  6  1  1
  7  8  2  0
  9 10  1  0
  9  7  1  0
 11 12  1  0
 10 11  1  1
 12 17  2  0
 13 14  2  0
 13 12  1  0
 14 15  1  0
 15 16  2  0
 17 16  1  0
 18 19  2  0
 18 10  1  0
 20 21  1  0
 21 31  2  0
 21 22  1  0
 22 23  2  0
 23 24  1  0
 24 25  1  0
 26 25  1  1
 26 27  1  0
 26 28  1  0
 27 18  1  0
 28 32  2  0
 28 29  1  0
 30 24  2  0
 31 30  1  0
M  END
$$$$
