IFY.pdb
     RDKit          3D

 32 33  0  0  1  0  0  0  0  0999 V2000
   31.8772  -30.7936  -21.2018 C   0  0  0  0  0  0  0  0  0  0  0  0
   31.9796  -31.6998  -20.0149 C   0  0  0  0  0  0  0  0  0  0  0  0
   30.6763  -31.6967  -19.1961 C   0  0  2  0  0  0  0  0  0  0  0  0
   29.5824  -31.4663  -20.2143 C   0  0  0  0  0  0  0  0  0  0  0  0
   30.7860  -30.5142  -18.2522 C   0  0  2  0  0  0  0  0  0  0  0  0
   31.9093  -30.7877  -17.3286 N   0  0  0  0  0  0  0  0  0  0  0  0
   29.5806  -30.2982  -17.4238 C   0  0  0  0  0  0  0  0  0  0  0  0
   29.2696  -31.1713  -16.5304 O   0  0  0  0  0  0  0  0  0  0  0  0
   28.7156  -29.1923  -17.5220 N   0  0  0  0  0  0  0  0  0  0  0  0
   27.5293  -29.0816  -16.6123 C   0  0  1  0  0  0  0  0  0  0  0  0
   27.7090  -27.8383  -15.7912 C   0  0  0  0  0  0  0  0  0  0  0  0
   28.4273  -26.7262  -16.4004 C   0  0  0  0  0  0  0  0  0  0  0  0
   27.8111  -25.6809  -17.0364 C   0  0  0  0  0  0  0  0  0  0  0  0
   28.5460  -24.6427  -17.6201 C   0  0  0  0  0  0  0  0  0  0  0  0
   29.9080  -24.6548  -17.5637 C   0  0  0  0  0  0  0  0  0  0  0  0
   30.5412  -25.7052  -16.9234 C   0  0  0  0  0  0  0  0  0  0  0  0
   29.8167  -26.7132  -16.3574 C   0  0  0  0  0  0  0  0  0  0  0  0
   26.3640  -28.9636  -17.5024 C   0  0  0  0  0  0  0  0  0  0  0  0
   26.6052  -28.6648  -18.7301 O   0  0  0  0  0  0  0  0  0  0  0  0
   20.6681  -28.8816  -23.6176 O   0  0  0  0  0  0  0  0  0  0  0  0
   21.6367  -28.9892  -22.6223 C   0  0  0  0  0  0  0  0  0  0  0  0
   22.3150  -27.8852  -22.1671 C   0  0  0  0  0  0  0  0  0  0  0  0
   23.2627  -28.0239  -21.1863 C   0  0  0  0  0  0  0  0  0  0  0  0
   23.5959  -29.2465  -20.6008 C   0  0  0  0  0  0  0  0  0  0  0  0
   24.6422  -29.3504  -19.5651 C   0  0  0  0  0  0  0  0  0  0  0  0
   24.0082  -29.0321  -18.2096 C   0  0  2  0  0  0  0  0  0  0  0  0
   25.0157  -29.1467  -17.1731 N   0  0  0  0  0  0  0  0  0  0  0  0
   22.8965  -29.9216  -17.9153 C   0  0  0  0  0  0  0  0  0  0  0  0
   23.0544  -31.0081  -17.0895 O   0  0  0  0  0  0  0  0  0  0  0  0
   22.8951  -30.3557  -21.0776 C   0  0  0  0  0  0  0  0  0  0  0  0
   21.9468  -30.2060  -22.0613 C   0  0  0  0  0  0  0  0  0  0  0  0
   21.7546  -29.7369  -18.4006 O   0  0  0  0  0  0  0  0  0  0  0  0
  1  2  1  0
  3  5  1  0
  3  2  1  0
  3  4  1  6
  5  7  1  0
  5  6  1  1
  7  8  2  0
  9 10  1  0
  9  7  1  0
 11 12  1  0
 10 11  1  1
 12 17  2  0
 13 14  2  0
 13 12  1  0
 14 15  1  0
 15 16  2  0
 17 16  1  0
 18 19  2  0
 18 10  1  0
 20 21  1  0
 21 31  2  0
 21 22  1  0
 22 23  2  0
 23 24  1  0
 24 25  1  0
 26 25  1  6
 26 27  1  0
 26 28  1  0
 27 18  1  0
 28 32  2  0
 28 29  1  0
 30 24  2  0
 31 30  1  0
M  END
$$$$
