IFY.pdb
     RDKit          3D

 32 33  0  0  1  0  0  0  0  0999 V2000
   26.9516  -35.2106  -14.6124 C   0  0  0  0  0  0  0  0  0  0  0  0
   26.3704  -34.3863  -15.7183 C   0  0  0  0  0  0  0  0  0  0  0  0
   25.7300  -33.0961  -15.1757 C   0  0  2  0  0  0  0  0  0  0  0  0
   24.6356  -33.5708  -14.2465 C   0  0  0  0  0  0  0  0  0  0  0  0
   25.1391  -32.3910  -16.3818 C   0  0  2  0  0  0  0  0  0  0  0  0
   26.2640  -31.8239  -17.1581 N   0  0  0  0  0  0  0  0  0  0  0  0
   24.2373  -31.2717  -16.0360 C   0  0  0  0  0  0  0  0  0  0  0  0
   24.7267  -30.0872  -15.9148 O   0  0  0  0  0  0  0  0  0  0  0  0
   22.8506  -31.3827  -15.8224 N   0  0  0  0  0  0  0  0  0  0  0  0
   22.0341  -30.1603  -15.5289 C   0  0  1  0  0  0  0  0  0  0  0  0
   20.8485  -30.1821  -16.4487 C   0  0  0  0  0  0  0  0  0  0  0  0
   19.8589  -29.1229  -16.2980 C   0  0  0  0  0  0  0  0  0  0  0  0
   20.0685  -27.8262  -16.6870 C   0  0  0  0  0  0  0  0  0  0  0  0
   19.0918  -26.8403  -16.5070 C   0  0  0  0  0  0  0  0  0  0  0  0
   17.8971  -27.1596  -15.9332 C   0  0  0  0  0  0  0  0  0  0  0  0
   17.6740  -28.4662  -15.5368 C   0  0  0  0  0  0  0  0  0  0  0  0
   18.6320  -29.4208  -15.7160 C   0  0  0  0  0  0  0  0  0  0  0  0
   21.6167  -30.2970  -14.1248 C   0  0  0  0  0  0  0  0  0  0  0  0
   21.3201  -31.4832  -13.7253 O   0  0  0  0  0  0  0  0  0  0  0  0
   20.1804  -23.4118  -12.1179 O   0  0  0  0  0  0  0  0  0  0  0  0
   20.6243  -24.6957  -11.8100 C   0  0  0  0  0  0  0  0  0  0  0  0
   21.6201  -25.2983  -12.5388 C   0  0  0  0  0  0  0  0  0  0  0  0
   22.0351  -26.5630  -12.2107 C   0  0  0  0  0  0  0  0  0  0  0  0
   21.4993  -27.3028  -11.1552 C   0  0  0  0  0  0  0  0  0  0  0  0
   21.9609  -28.6721  -10.8555 C   0  0  0  0  0  0  0  0  0  0  0  0
   21.2268  -29.6398  -11.7858 C   0  0  2  0  0  0  0  0  0  0  0  0
   21.5107  -29.2854  -13.1629 N   0  0  0  0  0  0  0  0  0  0  0  0
   19.7911  -29.6176  -11.5583 C   0  0  0  0  0  0  0  0  0  0  0  0
   18.9292  -29.1130  -12.5016 O   0  0  0  0  0  0  0  0  0  0  0  0
   20.4884  -26.6724  -10.4274 C   0  0  0  0  0  0  0  0  0  0  0  0
   20.0796  -25.4041  -10.7645 C   0  0  0  0  0  0  0  0  0  0  0  0
   19.2821  -30.0537  -10.4979 O   0  0  0  0  0  0  0  0  0  0  0  0
  1  2  1  0
  3  5  1  0
  3  2  1  0
  3  4  1  1
  5  7  1  0
  5  6  1  6
  7  8  2  0
  9 10  1  0
  9  7  1  0
 11 12  1  0
 10 11  1  6
 12 17  2  0
 13 14  2  0
 13 12  1  0
 14 15  1  0
 15 16  2  0
 17 16  1  0
 18 19  2  0
 18 10  1  0
 20 21  1  0
 21 31  2  0
 21 22  1  0
 22 23  2  0
 23 24  1  0
 24 25  1  0
 26 25  1  1
 26 27  1  0
 26 28  1  0
 27 18  1  0
 28 32  2  0
 28 29  1  0
 30 24  2  0
 31 30  1  0
M  END
$$$$
