IFY.pdb
     RDKit          3D

 32 33  0  0  1  0  0  0  0  0999 V2000
   23.5933   -2.8148  -20.8231 C   0  0  0  0  0  0  0  0  0  0  0  0
   23.8794   -4.2346  -21.2007 C   0  0  0  0  0  0  0  0  0  0  0  0
   22.9588   -5.2096  -20.4450 C   0  0  2  0  0  0  0  0  0  0  0  0
   21.6440   -4.4744  -20.3138 C   0  0  0  0  0  0  0  0  0  0  0  0
   23.5984   -5.4085  -19.0840 C   0  0  2  0  0  0  0  0  0  0  0  0
   24.9477   -5.9736  -19.3072 N   0  0  0  0  0  0  0  0  0  0  0  0
   22.8667   -6.3529  -18.2131 C   0  0  0  0  0  0  0  0  0  0  0  0
   22.1496   -7.2758  -18.7527 O   0  0  0  0  0  0  0  0  0  0  0  0
   22.8828   -6.3385  -16.8058 N   0  0  0  0  0  0  0  0  0  0  0  0
   22.1649   -7.4043  -16.0340 C   0  0  1  0  0  0  0  0  0  0  0  0
   22.9972   -7.7198  -14.8257 C   0  0  0  0  0  0  0  0  0  0  0  0
   23.9693   -8.7995  -14.9400 C   0  0  0  0  0  0  0  0  0  0  0  0
   25.2844   -8.6060  -15.2715 C   0  0  0  0  0  0  0  0  0  0  0  0
   26.1770   -9.6779  -15.3841 C   0  0  0  0  0  0  0  0  0  0  0  0
   25.7455  -10.9518  -15.1616 C   0  0  0  0  0  0  0  0  0  0  0  0
   24.4195  -11.1593  -14.8256 C   0  0  0  0  0  0  0  0  0  0  0  0
   23.5563  -10.1083  -14.7184 C   0  0  0  0  0  0  0  0  0  0  0  0
   20.8772   -6.8069  -15.6478 C   0  0  0  0  0  0  0  0  0  0  0  0
   20.9166   -5.6137  -15.1688 O   0  0  0  0  0  0  0  0  0  0  0  0
   13.7360   -2.2856  -15.7449 O   0  0  0  0  0  0  0  0  0  0  0  0
   14.9100   -3.0221  -15.8850 C   0  0  0  0  0  0  0  0  0  0  0  0
   15.8485   -3.0626  -14.8832 C   0  0  0  0  0  0  0  0  0  0  0  0
   16.9939   -3.7967  -15.0514 C   0  0  0  0  0  0  0  0  0  0  0  0
   17.2809   -4.5279  -16.2053 C   0  0  0  0  0  0  0  0  0  0  0  0
   18.5402   -5.2834  -16.3512 C   0  0  0  0  0  0  0  0  0  0  0  0
   18.4324   -6.5608  -15.5159 C   0  0  2  0  0  0  0  0  0  0  0  0
   19.6047   -7.3822  -15.7471 N   0  0  0  0  0  0  0  0  0  0  0  0
   17.2323   -7.3142  -15.8406 C   0  0  0  0  0  0  0  0  0  0  0  0
   17.3083   -8.5813  -16.3659 O   0  0  0  0  0  0  0  0  0  0  0  0
   16.3144   -4.4733  -17.2112 C   0  0  0  0  0  0  0  0  0  0  0  0
   15.1692   -3.7343  -17.0326 C   0  0  0  0  0  0  0  0  0  0  0  0
   16.0845   -6.8420  -15.6575 O   0  0  0  0  0  0  0  0  0  0  0  0
  1  2  1  0
  3  5  1  0
  3  2  1  0
  3  4  1  1
  5  7  1  0
  5  6  1  6
  7  8  2  0
  9 10  1  0
  9  7  1  0
 11 12  1  0
 10 11  1  1
 12 17  2  0
 13 14  2  0
 13 12  1  0
 14 15  1  0
 15 16  2  0
 17 16  1  0
 18 19  2  0
 18 10  1  0
 20 21  1  0
 21 31  2  0
 21 22  1  0
 22 23  2  0
 23 24  1  0
 24 25  1  0
 26 25  1  6
 26 27  1  0
 26 28  1  0
 27 18  1  0
 28 32  2  0
 28 29  1  0
 30 24  2  0
 31 30  1  0
M  END
$$$$
