IFY.pdb
     RDKit          3D

 32 33  0  0  1  0  0  0  0  0999 V2000
   27.7616  -18.5042  -17.9309 C   0  0  0  0  0  0  0  0  0  0  0  0
   28.2873  -18.9308  -16.5960 C   0  0  0  0  0  0  0  0  0  0  0  0
   27.2415  -19.7516  -15.8205 C   0  0  2  0  0  0  0  0  0  0  0  0
   26.0833  -18.8019  -15.6128 C   0  0  0  0  0  0  0  0  0  0  0  0
   27.8918  -20.0998  -14.4950 C   0  0  2  0  0  0  0  0  0  0  0  0
   28.9752  -21.0683  -14.7743 N   0  0  0  0  0  0  0  0  0  0  0  0
   26.9726  -20.7376  -13.5286 C   0  0  0  0  0  0  0  0  0  0  0  0
   26.6067  -21.9565  -13.7226 O   0  0  0  0  0  0  0  0  0  0  0  0
   26.4453  -20.1188  -12.3797 N   0  0  0  0  0  0  0  0  0  0  0  0
   25.5503  -20.8870  -11.4546 C   0  0  1  0  0  0  0  0  0  0  0  0
   25.5095  -20.1441  -10.1514 C   0  0  0  0  0  0  0  0  0  0  0  0
   26.6684  -20.2561   -9.2750 C   0  0  0  0  0  0  0  0  0  0  0  0
   26.7849  -19.5947   -8.0809 C   0  0  0  0  0  0  0  0  0  0  0  0
   27.9259  -19.7228   -7.2807 C   0  0  0  0  0  0  0  0  0  0  0  0
   28.9555  -20.5206   -7.6827 C   0  0  0  0  0  0  0  0  0  0  0  0
   28.8488  -21.1940   -8.8867 C   0  0  0  0  0  0  0  0  0  0  0  0
   27.7328  -21.0630   -9.6604 C   0  0  0  0  0  0  0  0  0  0  0  0
   24.2296  -20.8911  -12.1026 C   0  0  0  0  0  0  0  0  0  0  0  0
   23.8081  -19.7642  -12.5578 O   0  0  0  0  0  0  0  0  0  0  0  0
   16.5003  -22.2684  -15.9196 O   0  0  0  0  0  0  0  0  0  0  0  0
   17.7398  -22.4677  -15.3161 C   0  0  0  0  0  0  0  0  0  0  0  0
   18.9089  -22.2264  -15.9950 C   0  0  0  0  0  0  0  0  0  0  0  0
   20.1132  -22.4323  -15.3732 C   0  0  0  0  0  0  0  0  0  0  0  0
   20.2369  -22.8838  -14.0582 C   0  0  0  0  0  0  0  0  0  0  0  0
   21.5564  -23.1153  -13.4390 C   0  0  0  0  0  0  0  0  0  0  0  0
   22.0841  -21.7762  -12.9203 C   0  0  2  0  0  0  0  0  0  0  0  0
   23.3743  -21.9832  -12.2917 N   0  0  0  0  0  0  0  0  0  0  0  0
   21.1660  -21.1694  -11.9704 C   0  0  0  0  0  0  0  0  0  0  0  0
   20.2538  -20.2224  -12.3685 O   0  0  0  0  0  0  0  0  0  0  0  0
   19.0369  -23.1231  -13.3861 C   0  0  0  0  0  0  0  0  0  0  0  0
   17.8347  -22.9135  -14.0184 C   0  0  0  0  0  0  0  0  0  0  0  0
   21.1687  -21.4814  -10.7553 O   0  0  0  0  0  0  0  0  0  0  0  0
  1  2  1  0
  3  5  1  0
  3  2  1  0
  3  4  1  1
  5  7  1  0
  5  6  1  6
  7  8  2  0
  9 10  1  0
  9  7  1  0
 11 12  1  0
 10 11  1  1
 12 17  2  0
 13 14  2  0
 13 12  1  0
 14 15  1  0
 15 16  2  0
 17 16  1  0
 18 19  2  0
 18 10  1  0
 20 21  1  0
 21 31  2  0
 21 22  1  0
 22 23  2  0
 23 24  1  0
 24 25  1  0
 26 25  1  1
 26 27  1  0
 26 28  1  0
 27 18  1  0
 28 32  2  0
 28 29  1  0
 30 24  2  0
 31 30  1  0
M  END
$$$$
