IFY.pdb
     RDKit          3D

 32 33  0  0  1  0  0  0  0  0999 V2000
   28.3959  -21.6956  -21.0033 C   0  0  0  0  0  0  0  0  0  0  0  0
   28.3681  -20.8029  -19.8023 C   0  0  0  0  0  0  0  0  0  0  0  0
   27.4680  -21.3827  -18.6965 C   0  0  2  0  0  0  0  0  0  0  0  0
   26.4138  -20.3240  -18.4635 C   0  0  0  0  0  0  0  0  0  0  0  0
   28.3574  -21.5293  -17.4764 C   0  0  2  0  0  0  0  0  0  0  0  0
   29.2503  -22.6848  -17.7157 N   0  0  0  0  0  0  0  0  0  0  0  0
   27.6158  -21.8004  -16.2265 C   0  0  0  0  0  0  0  0  0  0  0  0
   27.1650  -22.9866  -16.0101 O   0  0  0  0  0  0  0  0  0  0  0  0
   27.3500  -20.8545  -15.2188 N   0  0  0  0  0  0  0  0  0  0  0  0
   26.6307  -21.2671  -13.9700 C   0  0  1  0  0  0  0  0  0  0  0  0
   27.0574  -20.3311  -12.8773 C   0  0  0  0  0  0  0  0  0  0  0  0
   26.3537  -20.4161  -11.6040 C   0  0  0  0  0  0  0  0  0  0  0  0
   26.7012  -21.2810  -10.6000 C   0  0  0  0  0  0  0  0  0  0  0  0
   25.9839  -21.3362   -9.3996 C   0  0  0  0  0  0  0  0  0  0  0  0
   24.9115  -20.5169   -9.2069 C   0  0  0  0  0  0  0  0  0  0  0  0
   24.5516  -19.6389  -10.2138 C   0  0  0  0  0  0  0  0  0  0  0  0
   25.2565  -19.5921  -11.3809 C   0  0  0  0  0  0  0  0  0  0  0  0
   25.1998  -21.1090  -14.2729 C   0  0  0  0  0  0  0  0  0  0  0  0
   24.8544  -20.0240  -14.8712 O   0  0  0  0  0  0  0  0  0  0  0  0
   16.6382  -21.1831  -15.6623 O   0  0  0  0  0  0  0  0  0  0  0  0
   17.9597  -21.5824  -15.4765 C   0  0  0  0  0  0  0  0  0  0  0  0
   18.3442  -22.2691  -14.3510 C   0  0  0  0  0  0  0  0  0  0  0  0
   19.6526  -22.6483  -14.1975 C   0  0  0  0  0  0  0  0  0  0  0  0
   20.6511  -22.3765  -15.1343 C   0  0  0  0  0  0  0  0  0  0  0  0
   22.0526  -22.7829  -14.9134 C   0  0  0  0  0  0  0  0  0  0  0  0
   22.7920  -21.6160  -14.2559 C   0  0  2  0  0  0  0  0  0  0  0  0
   24.1632  -22.0075  -13.9934 N   0  0  0  0  0  0  0  0  0  0  0  0
   22.1521  -21.2054  -13.0168 C   0  0  0  0  0  0  0  0  0  0  0  0
   22.2264  -21.9825  -11.8864 O   0  0  0  0  0  0  0  0  0  0  0  0
   20.2395  -21.6778  -16.2707 C   0  0  0  0  0  0  0  0  0  0  0  0
   18.9252  -21.3022  -16.4151 C   0  0  0  0  0  0  0  0  0  0  0  0
   21.5081  -20.1325  -12.9283 O   0  0  0  0  0  0  0  0  0  0  0  0
  1  2  1  0
  3  5  1  0
  3  2  1  0
  3  4  1  1
  5  7  1  0
  5  6  1  6
  7  8  2  0
  9 10  1  0
  9  7  1  0
 11 12  1  0
 10 11  1  1
 12 17  2  0
 13 14  2  0
 13 12  1  0
 14 15  1  0
 15 16  2  0
 17 16  1  0
 18 19  2  0
 18 10  1  0
 20 21  1  0
 21 31  2  0
 21 22  1  0
 22 23  2  0
 23 24  1  0
 24 25  1  0
 26 25  1  1
 26 27  1  0
 26 28  1  0
 27 18  1  0
 28 32  2  0
 28 29  1  0
 30 24  2  0
 31 30  1  0
M  END
$$$$
