IFY.pdb
     RDKit          3D

 32 33  0  0  1  0  0  0  0  0999 V2000
   25.5378  -20.7204  -19.0467 C   0  0  0  0  0  0  0  0  0  0  0  0
   26.5712  -21.1933  -18.0727 C   0  0  0  0  0  0  0  0  0  0  0  0
   25.9821  -21.3332  -16.6576 C   0  0  2  0  0  0  0  0  0  0  0  0
   25.6272  -19.9218  -16.2470 C   0  0  0  0  0  0  0  0  0  0  0  0
   27.1066  -21.8743  -15.7952 C   0  0  2  0  0  0  0  0  0  0  0  0
   27.3655  -23.2657  -16.2272 N   0  0  0  0  0  0  0  0  0  0  0  0
   26.7851  -21.9161  -14.3528 C   0  0  0  0  0  0  0  0  0  0  0  0
   25.9695  -22.8124  -13.9184 O   0  0  0  0  0  0  0  0  0  0  0  0
   27.3048  -21.0424  -13.3795 N   0  0  0  0  0  0  0  0  0  0  0  0
   26.8820  -21.1738  -11.9474 C   0  0  1  0  0  0  0  0  0  0  0  0
   27.9666  -20.5713  -11.1031 C   0  0  0  0  0  0  0  0  0  0  0  0
   27.7042  -20.4171   -9.6779 C   0  0  0  0  0  0  0  0  0  0  0  0
   28.1251  -21.3088   -8.7269 C   0  0  0  0  0  0  0  0  0  0  0  0
   27.8346  -21.1248   -7.3703 C   0  0  0  0  0  0  0  0  0  0  0  0
   27.1173  -20.0379   -6.9672 C   0  0  0  0  0  0  0  0  0  0  0  0
   26.6873  -19.1303   -7.9188 C   0  0  0  0  0  0  0  0  0  0  0  0
   26.9749  -19.3179   -9.2391 C   0  0  0  0  0  0  0  0  0  0  0  0
   25.6346  -20.4018  -11.8357 C   0  0  0  0  0  0  0  0  0  0  0  0
   25.5216  -19.3762  -12.6038 O   0  0  0  0  0  0  0  0  0  0  0  0
   17.6247  -19.9987  -14.4807 O   0  0  0  0  0  0  0  0  0  0  0  0
   18.9193  -20.2756  -14.0476 C   0  0  0  0  0  0  0  0  0  0  0  0
   19.9588  -19.4203  -14.3193 C   0  0  0  0  0  0  0  0  0  0  0  0
   21.2218  -19.7210  -13.8791 C   0  0  0  0  0  0  0  0  0  0  0  0
   21.5336  -20.8709  -13.1520 C   0  0  0  0  0  0  0  0  0  0  0  0
   22.9141  -21.1651  -12.7210 C   0  0  0  0  0  0  0  0  0  0  0  0
   23.2040  -20.3556  -11.4555 C   0  0  2  0  0  0  0  0  0  0  0  0
   24.5453  -20.6560  -10.9939 N   0  0  0  0  0  0  0  0  0  0  0  0
   22.2450  -20.6453  -10.4021 C   0  0  0  0  0  0  0  0  0  0  0  0
   21.1134  -19.8831  -10.2411 O   0  0  0  0  0  0  0  0  0  0  0  0
   20.4631  -21.7268  -12.8866 C   0  0  0  0  0  0  0  0  0  0  0  0
   19.2005  -21.4162  -13.3323 C   0  0  0  0  0  0  0  0  0  0  0  0
   22.4096  -21.5957   -9.6000 O   0  0  0  0  0  0  0  0  0  0  0  0
  1  2  1  0
  3  5  1  0
  3  2  1  0
  3  4  1  1
  5  7  1  0
  5  6  1  6
  7  8  2  0
  9 10  1  0
  9  7  1  0
 11 12  1  0
 10 11  1  1
 12 17  2  0
 13 14  2  0
 13 12  1  0
 14 15  1  0
 15 16  2  0
 17 16  1  0
 18 19  2  0
 18 10  1  0
 20 21  1  0
 21 31  2  0
 21 22  1  0
 22 23  2  0
 23 24  1  0
 24 25  1  0
 26 25  1  6
 26 27  1  0
 26 28  1  0
 27 18  1  0
 28 32  2  0
 28 29  1  0
 30 24  2  0
 31 30  1  0
M  END
$$$$
