IFY.pdb
     RDKit          3D

 32 33  0  0  1  0  0  0  0  0999 V2000
   26.2621  -18.7703  -14.5838 C   0  0  0  0  0  0  0  0  0  0  0  0
   26.9980  -19.9420  -14.0130 C   0  0  0  0  0  0  0  0  0  0  0  0
   28.4753  -19.5990  -13.7498 C   0  0  2  0  0  0  0  0  0  0  0  0
   29.0702  -19.3799  -15.1226 C   0  0  0  0  0  0  0  0  0  0  0  0
   29.0740  -20.8309  -13.0980 C   0  0  2  0  0  0  0  0  0  0  0  0
   28.6940  -21.9981  -13.9244 N   0  0  0  0  0  0  0  0  0  0  0  0
   28.5763  -21.0832  -11.7289 C   0  0  0  0  0  0  0  0  0  0  0  0
   27.7033  -22.0104  -11.5404 O   0  0  0  0  0  0  0  0  0  0  0  0
   28.9814  -20.3845  -10.5762 N   0  0  0  0  0  0  0  0  0  0  0  0
   28.4288  -20.7612   -9.2347 C   0  0  1  0  0  0  0  0  0  0  0  0
   29.2856  -20.0993   -8.1954 C   0  0  0  0  0  0  0  0  0  0  0  0
   28.7764  -20.0545   -6.8307 C   0  0  0  0  0  0  0  0  0  0  0  0
   28.8549  -21.1055   -5.9555 C   0  0  0  0  0  0  0  0  0  0  0  0
   28.3366  -21.0190   -4.6584 C   0  0  0  0  0  0  0  0  0  0  0  0
   27.7364  -19.8693   -4.2383 C   0  0  0  0  0  0  0  0  0  0  0  0
   27.6519  -18.8010   -5.1135 C   0  0  0  0  0  0  0  0  0  0  0  0
   28.1596  -18.8944   -6.3763 C   0  0  0  0  0  0  0  0  0  0  0  0
   27.0594  -20.2242   -9.2113 C   0  0  0  0  0  0  0  0  0  0  0  0
   26.8491  -19.1537   -9.8928 O   0  0  0  0  0  0  0  0  0  0  0  0
   19.1342  -19.8719  -12.1908 O   0  0  0  0  0  0  0  0  0  0  0  0
   20.4414  -20.1007  -11.7671 C   0  0  0  0  0  0  0  0  0  0  0  0
   21.4591  -19.2425  -12.1038 C   0  0  0  0  0  0  0  0  0  0  0  0
   22.7352  -19.4952  -11.6712 C   0  0  0  0  0  0  0  0  0  0  0  0
   23.0819  -20.5979  -10.8886 C   0  0  0  0  0  0  0  0  0  0  0  0
   24.4751  -20.8425  -10.4677 C   0  0  0  0  0  0  0  0  0  0  0  0
   24.6152  -20.4185   -9.0043 C   0  0  2  0  0  0  0  0  0  0  0  0
   25.9485  -20.7466   -8.5383 N   0  0  0  0  0  0  0  0  0  0  0  0
   23.6256  -21.0683   -8.1606 C   0  0  0  0  0  0  0  0  0  0  0  0
   22.3072  -20.6829   -8.1845 O   0  0  0  0  0  0  0  0  0  0  0  0
   22.0330  -21.4576  -10.5576 C   0  0  0  0  0  0  0  0  0  0  0  0
   20.7570  -21.1952  -10.9963 C   0  0  0  0  0  0  0  0  0  0  0  0
   23.9317  -22.0008   -7.3791 O   0  0  0  0  0  0  0  0  0  0  0  0
  1  2  1  0
  3  5  1  0
  3  2  1  0
  3  4  1  6
  5  7  1  0
  5  6  1  6
  7  8  2  0
  9 10  1  0
  9  7  1  0
 11 12  1  0
 10 11  1  1
 12 17  2  0
 13 14  2  0
 13 12  1  0
 14 15  1  0
 15 16  2  0
 17 16  1  0
 18 19  2  0
 18 10  1  0
 20 21  1  0
 21 31  2  0
 21 22  1  0
 22 23  2  0
 23 24  1  0
 24 25  1  0
 26 25  1  6
 26 27  1  0
 26 28  1  0
 27 18  1  0
 28 32  2  0
 28 29  1  0
 30 24  2  0
 31 30  1  0
M  END
$$$$
