IFY.pdb
     RDKit          3D

 32 33  0  0  1  0  0  0  0  0999 V2000
   20.3493  -11.5949  -22.7145 C   0  0  0  0  0  0  0  0  0  0  0  0
   19.2045  -11.9885  -21.8343 C   0  0  0  0  0  0  0  0  0  0  0  0
   18.9879  -10.9622  -20.7079 C   0  0  2  0  0  0  0  0  0  0  0  0
   19.3800   -9.6344  -21.3160 C   0  0  0  0  0  0  0  0  0  0  0  0
   19.9540  -11.3514  -19.6050 C   0  0  2  0  0  0  0  0  0  0  0  0
   19.6176  -12.7307  -19.1881 N   0  0  0  0  0  0  0  0  0  0  0  0
   19.8629  -10.4960  -18.4027 C   0  0  0  0  0  0  0  0  0  0  0  0
   18.7136  -10.3052  -17.8550 O   0  0  0  0  0  0  0  0  0  0  0  0
   20.9487   -9.8525  -17.7800 N   0  0  0  0  0  0  0  0  0  0  0  0
   20.7091   -8.8870  -16.6586 C   0  0  1  0  0  0  0  0  0  0  0  0
   21.9064   -8.9433  -15.7555 C   0  0  0  0  0  0  0  0  0  0  0  0
   21.9800   -7.9711  -14.6724 C   0  0  0  0  0  0  0  0  0  0  0  0
   21.5080   -8.2052  -13.4078 C   0  0  0  0  0  0  0  0  0  0  0  0
   21.5878   -7.2330  -12.4043 C   0  0  0  0  0  0  0  0  0  0  0  0
   22.1458   -6.0186  -12.6733 C   0  0  0  0  0  0  0  0  0  0  0  0
   22.6264   -5.7711  -13.9468 C   0  0  0  0  0  0  0  0  0  0  0  0
   22.5442   -6.7247  -14.9189 C   0  0  0  0  0  0  0  0  0  0  0  0
   20.5904   -7.5673  -17.2977 C   0  0  0  0  0  0  0  0  0  0  0  0
   21.4256   -7.3072  -18.2409 O   0  0  0  0  0  0  0  0  0  0  0  0
   13.6638   -5.3966  -15.9903 O   0  0  0  0  0  0  0  0  0  0  0  0
   14.8784   -5.3534  -16.6709 C   0  0  0  0  0  0  0  0  0  0  0  0
   15.3724   -6.4604  -17.3162 C   0  0  0  0  0  0  0  0  0  0  0  0
   16.5709   -6.3859  -17.9774 C   0  0  0  0  0  0  0  0  0  0  0  0
   17.3473   -5.2276  -18.0420 C   0  0  0  0  0  0  0  0  0  0  0  0
   18.6447   -5.2023  -18.7449 C   0  0  0  0  0  0  0  0  0  0  0  0
   19.7582   -5.2867  -17.6991 C   0  0  2  0  0  0  0  0  0  0  0  0
   19.6663   -6.5570  -17.0060 N   0  0  0  0  0  0  0  0  0  0  0  0
   19.6777   -4.1966  -16.7407 C   0  0  0  0  0  0  0  0  0  0  0  0
   19.4925   -4.4394  -15.4012 O   0  0  0  0  0  0  0  0  0  0  0  0
   16.8275   -4.1141  -17.3796 C   0  0  0  0  0  0  0  0  0  0  0  0
   15.6248   -4.1992  -16.7196 C   0  0  0  0  0  0  0  0  0  0  0  0
   19.7716   -2.9965  -17.0937 O   0  0  0  0  0  0  0  0  0  0  0  0
  1  2  1  0
  3  5  1  0
  3  2  1  0
  3  4  1  6
  5  7  1  0
  5  6  1  1
  7  8  2  0
  9 10  1  0
  9  7  1  0
 11 12  1  0
 10 11  1  1
 12 17  2  0
 13 14  2  0
 13 12  1  0
 14 15  1  0
 15 16  2  0
 17 16  1  0
 18 19  2  0
 18 10  1  0
 20 21  1  0
 21 31  2  0
 21 22  1  0
 22 23  2  0
 23 24  1  0
 24 25  1  0
 26 25  1  6
 26 27  1  0
 26 28  1  0
 27 18  1  0
 28 32  2  0
 28 29  1  0
 30 24  2  0
 31 30  1  0
M  END
$$$$
