IFY.pdb
     RDKit          3D

 32 33  0  0  1  0  0  0  0  0999 V2000
   27.1339  -17.7552  -18.4291 C   0  0  0  0  0  0  0  0  0  0  0  0
   27.5720  -17.6791  -16.9999 C   0  0  0  0  0  0  0  0  0  0  0  0
   26.8010  -18.6841  -16.1254 C   0  0  2  0  0  0  0  0  0  0  0  0
   25.7606  -17.8525  -15.4094 C   0  0  0  0  0  0  0  0  0  0  0  0
   27.8147  -19.2358  -15.1411 C   0  0  2  0  0  0  0  0  0  0  0  0
   28.7875  -20.0412  -15.9121 N   0  0  0  0  0  0  0  0  0  0  0  0
   27.2277  -20.1231  -14.1145 C   0  0  0  0  0  0  0  0  0  0  0  0
   26.9273  -21.3343  -14.4306 O   0  0  0  0  0  0  0  0  0  0  0  0
   26.9602  -19.7572  -12.7820 N   0  0  0  0  0  0  0  0  0  0  0  0
   26.4377  -20.7742  -11.8126 C   0  0  1  0  0  0  0  0  0  0  0  0
   27.1566  -20.5640  -10.5121 C   0  0  0  0  0  0  0  0  0  0  0  0
   28.5445  -21.0008  -10.4308 C   0  0  0  0  0  0  0  0  0  0  0  0
   28.9990  -21.9233   -9.5258 C   0  0  0  0  0  0  0  0  0  0  0  0
   30.3462  -22.2994   -9.4767 C   0  0  0  0  0  0  0  0  0  0  0  0
   31.2415  -21.7454  -10.3426 C   0  0  0  0  0  0  0  0  0  0  0  0
   30.7938  -20.8129  -11.2614 C   0  0  0  0  0  0  0  0  0  0  0  0
   29.4787  -20.4521  -11.3019 C   0  0  0  0  0  0  0  0  0  0  0  0
   25.0022  -20.4828  -11.6763 C   0  0  0  0  0  0  0  0  0  0  0  0
   24.6918  -19.3581  -11.1347 O   0  0  0  0  0  0  0  0  0  0  0  0
   22.2677  -20.7240  -18.3216 O   0  0  0  0  0  0  0  0  0  0  0  0
   22.3104  -20.4233  -16.9621 C   0  0  0  0  0  0  0  0  0  0  0  0
   21.1582  -20.2536  -16.2344 C   0  0  0  0  0  0  0  0  0  0  0  0
   21.2334  -19.9583  -14.8978 C   0  0  0  0  0  0  0  0  0  0  0  0
   22.4364  -19.8138  -14.2046 C   0  0  0  0  0  0  0  0  0  0  0  0
   22.4678  -19.4699  -12.7698 C   0  0  0  0  0  0  0  0  0  0  0  0
   22.5756  -20.7684  -11.9679 C   0  0  2  0  0  0  0  0  0  0  0  0
   23.9262  -21.2848  -12.0755 N   0  0  0  0  0  0  0  0  0  0  0  0
   21.6285  -21.7676  -12.4351 C   0  0  0  0  0  0  0  0  0  0  0  0
   20.2735  -21.5602  -12.3450 O   0  0  0  0  0  0  0  0  0  0  0  0
   23.5954  -19.9901  -14.9626 C   0  0  0  0  0  0  0  0  0  0  0  0
   23.5092  -20.2860  -16.3021 C   0  0  0  0  0  0  0  0  0  0  0  0
   22.0058  -22.8545  -12.9353 O   0  0  0  0  0  0  0  0  0  0  0  0
  1  2  1  0
  3  5  1  0
  3  2  1  0
  3  4  1  1
  5  7  1  0
  5  6  1  6
  7  8  2  0
  9 10  1  0
  9  7  1  0
 11 12  1  0
 10 11  1  1
 12 17  2  0
 13 14  2  0
 13 12  1  0
 14 15  1  0
 15 16  2  0
 17 16  1  0
 18 19  2  0
 18 10  1  0
 20 21  1  0
 21 31  2  0
 21 22  1  0
 22 23  2  0
 23 24  1  0
 24 25  1  0
 26 25  1  6
 26 27  1  0
 26 28  1  0
 27 18  1  0
 28 32  2  0
 28 29  1  0
 30 24  2  0
 31 30  1  0
M  END
$$$$
