IFY.pdb
     RDKit          3D

 32 33  0  0  1  0  0  0  0  0999 V2000
   27.2808  -18.9850  -19.3714 C   0  0  0  0  0  0  0  0  0  0  0  0
   28.0523  -19.7207  -18.3208 C   0  0  0  0  0  0  0  0  0  0  0  0
   27.1631  -20.0627  -17.1119 C   0  0  2  0  0  0  0  0  0  0  0  0
   26.7221  -18.7229  -16.5670 C   0  0  0  0  0  0  0  0  0  0  0  0
   28.0686  -20.7708  -16.1220 C   0  0  2  0  0  0  0  0  0  0  0  0
   28.4960  -22.0433  -16.7448 N   0  0  0  0  0  0  0  0  0  0  0  0
   27.4066  -21.1093  -14.8442 C   0  0  0  0  0  0  0  0  0  0  0  0
   26.5066  -22.0296  -14.8293 O   0  0  0  0  0  0  0  0  0  0  0  0
   27.6778  -20.5025  -13.6036 N   0  0  0  0  0  0  0  0  0  0  0  0
   26.9197  -20.9200  -12.3797 C   0  0  1  0  0  0  0  0  0  0  0  0
   27.7071  -20.4618  -11.1871 C   0  0  0  0  0  0  0  0  0  0  0  0
   27.0278  -20.4422   -9.8979 C   0  0  0  0  0  0  0  0  0  0  0  0
   26.6908  -21.5714   -9.1994 C   0  0  0  0  0  0  0  0  0  0  0  0
   26.0242  -21.5014   -7.9708 C   0  0  0  0  0  0  0  0  0  0  0  0
   25.6950  -20.2892   -7.4410 C   0  0  0  0  0  0  0  0  0  0  0  0
   26.0308  -19.1418   -8.1374 C   0  0  0  0  0  0  0  0  0  0  0  0
   26.6803  -19.2197   -9.3346 C   0  0  0  0  0  0  0  0  0  0  0  0
   25.6286  -20.2195  -12.4619 C   0  0  0  0  0  0  0  0  0  0  0  0
   25.6732  -18.9559  -12.6983 O   0  0  0  0  0  0  0  0  0  0  0  0
   20.3133  -23.1004  -16.9523 O   0  0  0  0  0  0  0  0  0  0  0  0
   20.9565  -22.1672  -16.1424 C   0  0  0  0  0  0  0  0  0  0  0  0
   20.2871  -21.0770  -15.6429 C   0  0  0  0  0  0  0  0  0  0  0  0
   20.9482  -20.1763  -14.8485 C   0  0  0  0  0  0  0  0  0  0  0  0
   22.2951  -20.2943  -14.5019 C   0  0  0  0  0  0  0  0  0  0  0  0
   22.9712  -19.2849  -13.6639 C   0  0  0  0  0  0  0  0  0  0  0  0
   23.1975  -19.8878  -12.2761 C   0  0  2  0  0  0  0  0  0  0  0  0
   24.3485  -20.7685  -12.3206 N   0  0  0  0  0  0  0  0  0  0  0  0
   22.0323  -20.6244  -11.8147 C   0  0  0  0  0  0  0  0  0  0  0  0
   20.8123  -20.0090  -11.6720 O   0  0  0  0  0  0  0  0  0  0  0  0
   22.9570  -21.4090  -15.0198 C   0  0  0  0  0  0  0  0  0  0  0  0
   22.2851  -22.3062  -15.8153 C   0  0  0  0  0  0  0  0  0  0  0  0
   22.0911  -21.8443  -11.5278 O   0  0  0  0  0  0  0  0  0  0  0  0
  1  2  1  0
  3  5  1  0
  3  2  1  0
  3  4  1  1
  5  7  1  0
  5  6  1  6
  7  8  2  0
  9 10  1  0
  9  7  1  0
 11 12  1  0
 10 11  1  1
 12 17  2  0
 13 14  2  0
 13 12  1  0
 14 15  1  0
 15 16  2  0
 17 16  1  0
 18 19  2  0
 18 10  1  0
 20 21  1  0
 21 31  2  0
 21 22  1  0
 22 23  2  0
 23 24  1  0
 24 25  1  0
 26 25  1  6
 26 27  1  0
 26 28  1  0
 27 18  1  0
 28 32  2  0
 28 29  1  0
 30 24  2  0
 31 30  1  0
M  END
$$$$
