IFY.pdb
     RDKit          3D

 32 33  0  0  1  0  0  0  0  0999 V2000
   25.4544  -19.2393  -19.6820 C   0  0  0  0  0  0  0  0  0  0  0  0
   26.6890  -19.2455  -18.8360 C   0  0  0  0  0  0  0  0  0  0  0  0
   26.4791  -20.0616  -17.5479 C   0  0  2  0  0  0  0  0  0  0  0  0
   25.3960  -19.3218  -16.7956 C   0  0  0  0  0  0  0  0  0  0  0  0
   27.7952  -19.9914  -16.7970 C   0  0  2  0  0  0  0  0  0  0  0  0
   28.7767  -20.8066  -17.5466 N   0  0  0  0  0  0  0  0  0  0  0  0
   27.7292  -20.5377  -15.4249 C   0  0  0  0  0  0  0  0  0  0  0  0
   27.6351  -21.8111  -15.2612 O   0  0  0  0  0  0  0  0  0  0  0  0
   27.7627  -19.7726  -14.2440 N   0  0  0  0  0  0  0  0  0  0  0  0
   27.6698  -20.4461  -12.9080 C   0  0  1  0  0  0  0  0  0  0  0  0
   28.3542  -19.5582  -11.9102 C   0  0  0  0  0  0  0  0  0  0  0  0
   28.3076  -19.9571  -10.5094 C   0  0  0  0  0  0  0  0  0  0  0  0
   29.0809  -20.9548   -9.9773 C   0  0  0  0  0  0  0  0  0  0  0  0
   28.9888  -21.3123   -8.6274 C   0  0  0  0  0  0  0  0  0  0  0  0
   28.1147  -20.6628   -7.8073 C   0  0  0  0  0  0  0  0  0  0  0  0
   27.3289  -19.6529   -8.3336 C   0  0  0  0  0  0  0  0  0  0  0  0
   27.4252  -19.3113   -9.6509 C   0  0  0  0  0  0  0  0  0  0  0  0
   26.2305  -20.5511  -12.6225 C   0  0  0  0  0  0  0  0  0  0  0  0
   25.5126  -19.5191  -12.8952 O   0  0  0  0  0  0  0  0  0  0  0  0
   18.4211  -20.0385   -9.4019 O   0  0  0  0  0  0  0  0  0  0  0  0
   19.7724  -20.1437   -9.7236 C   0  0  0  0  0  0  0  0  0  0  0  0
   20.6406  -20.8493   -8.9272 C   0  0  0  0  0  0  0  0  0  0  0  0
   21.9650  -20.9343   -9.2710 C   0  0  0  0  0  0  0  0  0  0  0  0
   22.5082  -20.3353  -10.4087 C   0  0  0  0  0  0  0  0  0  0  0  0
   23.9466  -20.4331  -10.7244 C   0  0  0  0  0  0  0  0  0  0  0  0
   24.1322  -21.5233  -11.7817 C   0  0  2  0  0  0  0  0  0  0  0  0
   25.5425  -21.6498  -12.0938 N   0  0  0  0  0  0  0  0  0  0  0  0
   23.3850  -21.2282  -12.9934 C   0  0  0  0  0  0  0  0  0  0  0  0
   23.8052  -20.2568  -13.8692 O   0  0  0  0  0  0  0  0  0  0  0  0
   21.6091  -19.6230  -11.2043 C   0  0  0  0  0  0  0  0  0  0  0  0
   20.2831  -19.5438  -10.8509 C   0  0  0  0  0  0  0  0  0  0  0  0
   22.3316  -21.8426  -13.2877 O   0  0  0  0  0  0  0  0  0  0  0  0
  1  2  1  0
  3  5  1  0
  3  2  1  0
  3  4  1  1
  5  7  1  0
  5  6  1  6
  7  8  2  0
  9 10  1  0
  9  7  1  0
 11 12  1  0
 10 11  1  1
 12 17  2  0
 13 14  2  0
 13 12  1  0
 14 15  1  0
 15 16  2  0
 17 16  1  0
 18 19  2  0
 18 10  1  0
 20 21  1  0
 21 31  2  0
 21 22  1  0
 22 23  2  0
 23 24  1  0
 24 25  1  0
 26 25  1  1
 26 27  1  0
 26 28  1  0
 27 18  1  0
 28 32  2  0
 28 29  1  0
 30 24  2  0
 31 30  1  0
M  END
$$$$
