IFY.pdb
     RDKit          3D

 32 33  0  0  1  0  0  0  0  0999 V2000
   27.8452  -18.7652  -18.2673 C   0  0  0  0  0  0  0  0  0  0  0  0
   27.3048  -20.1606  -18.3021 C   0  0  0  0  0  0  0  0  0  0  0  0
   26.8763  -20.6284  -16.8997 C   0  0  2  0  0  0  0  0  0  0  0  0
   26.0103  -19.5086  -16.3681 C   0  0  0  0  0  0  0  0  0  0  0  0
   28.1569  -20.7423  -16.0946 C   0  0  2  0  0  0  0  0  0  0  0  0
   28.9498  -21.8471  -16.6780 N   0  0  0  0  0  0  0  0  0  0  0  0
   27.9384  -21.0656  -14.6686 C   0  0  0  0  0  0  0  0  0  0  0  0
   27.4362  -22.2088  -14.3551 O   0  0  0  0  0  0  0  0  0  0  0  0
   28.2392  -20.2155  -13.5881 N   0  0  0  0  0  0  0  0  0  0  0  0
   27.8791  -20.6189  -12.1900 C   0  0  1  0  0  0  0  0  0  0  0  0
   28.7890  -19.8715  -11.2596 C   0  0  0  0  0  0  0  0  0  0  0  0
   28.5038  -19.9472   -9.8325 C   0  0  0  0  0  0  0  0  0  0  0  0
   28.9835  -20.9346   -9.0131 C   0  0  0  0  0  0  0  0  0  0  0  0
   28.6685  -20.9729   -7.6500 C   0  0  0  0  0  0  0  0  0  0  0  0
   27.8671  -20.0129   -7.1074 C   0  0  0  0  0  0  0  0  0  0  0  0
   27.3772  -19.0103   -7.9253 C   0  0  0  0  0  0  0  0  0  0  0  0
   27.6893  -18.9810   -9.2531 C   0  0  0  0  0  0  0  0  0  0  0  0
   26.4801  -20.2007  -12.0107 C   0  0  0  0  0  0  0  0  0  0  0  0
   26.1502  -19.0635  -12.5133 O   0  0  0  0  0  0  0  0  0  0  0  0
   23.6007  -25.4294  -15.0618 O   0  0  0  0  0  0  0  0  0  0  0  0
   23.5937  -24.1615  -14.4851 C   0  0  0  0  0  0  0  0  0  0  0  0
   22.8459  -23.8934  -13.3649 C   0  0  0  0  0  0  0  0  0  0  0  0
   22.8602  -22.6352  -12.8208 C   0  0  0  0  0  0  0  0  0  0  0  0
   23.6047  -21.5759  -13.3424 C   0  0  0  0  0  0  0  0  0  0  0  0
   23.5685  -20.2306  -12.7367 C   0  0  0  0  0  0  0  0  0  0  0  0
   24.1236  -20.3303  -11.3144 C   0  0  2  0  0  0  0  0  0  0  0  0
   25.4560  -20.9003  -11.3612 N   0  0  0  0  0  0  0  0  0  0  0  0
   23.2711  -21.1423  -10.4616 C   0  0  0  0  0  0  0  0  0  0  0  0
   23.7746  -22.2160   -9.7682 O   0  0  0  0  0  0  0  0  0  0  0  0
   24.3575  -21.8694  -14.4809 C   0  0  0  0  0  0  0  0  0  0  0  0
   24.3364  -23.1342  -15.0187 C   0  0  0  0  0  0  0  0  0  0  0  0
   22.0478  -20.8997  -10.3249 O   0  0  0  0  0  0  0  0  0  0  0  0
  1  2  1  0
  3  5  1  0
  3  2  1  0
  3  4  1  1
  5  7  1  0
  5  6  1  6
  7  8  2  0
  9 10  1  0
  9  7  1  0
 11 12  1  0
 10 11  1  1
 12 17  2  0
 13 14  2  0
 13 12  1  0
 14 15  1  0
 15 16  2  0
 17 16  1  0
 18 19  2  0
 18 10  1  0
 20 21  1  0
 21 31  2  0
 21 22  1  0
 22 23  2  0
 23 24  1  0
 24 25  1  0
 26 25  1  6
 26 27  1  0
 26 28  1  0
 27 18  1  0
 28 32  2  0
 28 29  1  0
 30 24  2  0
 31 30  1  0
M  END
$$$$
