IFY.pdb
     RDKit          3D

 32 33  0  0  1  0  0  0  0  0999 V2000
   27.4585  -20.3833  -19.5513 C   0  0  0  0  0  0  0  0  0  0  0  0
   28.2157  -20.5086  -18.2664 C   0  0  0  0  0  0  0  0  0  0  0  0
   27.3017  -20.9871  -17.1241 C   0  0  2  0  0  0  0  0  0  0  0  0
   26.2792  -19.8851  -16.9617 C   0  0  0  0  0  0  0  0  0  0  0  0
   28.1892  -21.0782  -15.8974 C   0  0  2  0  0  0  0  0  0  0  0  0
   29.1085  -22.2200  -16.0998 N   0  0  0  0  0  0  0  0  0  0  0  0
   27.4489  -21.3292  -14.6426 C   0  0  0  0  0  0  0  0  0  0  0  0
   26.9891  -22.5093  -14.4116 O   0  0  0  0  0  0  0  0  0  0  0  0
   27.1935  -20.3699  -13.6448 N   0  0  0  0  0  0  0  0  0  0  0  0
   26.3492  -20.7248  -12.4581 C   0  0  1  0  0  0  0  0  0  0  0  0
   26.6845  -19.7542  -11.3636 C   0  0  0  0  0  0  0  0  0  0  0  0
   27.2689  -20.2918  -10.1416 C   0  0  0  0  0  0  0  0  0  0  0  0
   26.6541  -20.2396   -8.9185 C   0  0  0  0  0  0  0  0  0  0  0  0
   27.2634  -20.7567   -7.7696 C   0  0  0  0  0  0  0  0  0  0  0  0
   28.4975  -21.3301   -7.8506 C   0  0  0  0  0  0  0  0  0  0  0  0
   29.1278  -21.3890   -9.0809 C   0  0  0  0  0  0  0  0  0  0  0  0
   28.5264  -20.8821  -10.1956 C   0  0  0  0  0  0  0  0  0  0  0  0
   24.9575  -20.5579  -12.9046 C   0  0  0  0  0  0  0  0  0  0  0  0
   24.6952  -19.5007  -13.5889 O   0  0  0  0  0  0  0  0  0  0  0  0
   16.6549  -20.6041  -15.3651 O   0  0  0  0  0  0  0  0  0  0  0  0
   17.9586  -20.9761  -15.0452 C   0  0  0  0  0  0  0  0  0  0  0  0
   18.2201  -21.8199  -13.9938 C   0  0  0  0  0  0  0  0  0  0  0  0
   19.5142  -22.1675  -13.7043 C   0  0  0  0  0  0  0  0  0  0  0  0
   20.6176  -21.7093  -14.4261 C   0  0  0  0  0  0  0  0  0  0  0  0
   21.9956  -22.0908  -14.0609 C   0  0  0  0  0  0  0  0  0  0  0  0
   22.5510  -21.0288  -13.1099 C   0  0  2  0  0  0  0  0  0  0  0  0
   23.8788  -21.4215  -12.6795 N   0  0  0  0  0  0  0  0  0  0  0  0
   21.6928  -20.8451  -11.9510 C   0  0  0  0  0  0  0  0  0  0  0  0
   21.6277  -21.7912  -10.9569 O   0  0  0  0  0  0  0  0  0  0  0  0
   20.3300  -20.8529  -15.4905 C   0  0  0  0  0  0  0  0  0  0  0  0
   19.0290  -20.5105  -15.7725 C   0  0  0  0  0  0  0  0  0  0  0  0
   20.9790  -19.8230  -11.8112 O   0  0  0  0  0  0  0  0  0  0  0  0
  1  2  1  0
  3  5  1  0
  3  2  1  0
  3  4  1  1
  5  7  1  0
  5  6  1  6
  7  8  2  0
  9 10  1  0
  9  7  1  0
 11 12  1  0
 10 11  1  1
 12 17  2  0
 13 14  2  0
 13 12  1  0
 14 15  1  0
 15 16  2  0
 17 16  1  0
 18 19  2  0
 18 10  1  0
 20 21  1  0
 21 31  2  0
 21 22  1  0
 22 23  2  0
 23 24  1  0
 24 25  1  0
 26 25  1  6
 26 27  1  0
 26 28  1  0
 27 18  1  0
 28 32  2  0
 28 29  1  0
 30 24  2  0
 31 30  1  0
M  END
$$$$
