IQP.pdb
     RDKit          3D

 25 25  0  0  1  0  0  0  0  0999 V2000
    6.6405  -17.1052   18.4026 C   0  0  0  0  0  0  0  0  0  0  0  0
    6.5589  -18.2152   19.4742 C   0  0  0  0  0  0  0  0  0  0  0  0
    6.4493  -17.5108   20.7799 C   0  0  2  0  0  0  0  0  0  0  0  0
    7.5320  -16.4738   20.9861 C   0  0  0  0  0  0  0  0  0  0  0  0
    6.2922  -18.4507   21.9205 C   0  0  2  0  0  0  0  0  0  0  0  0
    5.0015  -19.1472   21.7068 N   0  0  0  0  0  0  0  0  0  0  0  0
    6.2188  -17.7652   23.2675 C   0  0  0  0  0  0  0  0  0  0  0  0
    5.1546  -17.1606   23.5264 O   0  0  0  0  0  0  0  0  0  0  0  0
    9.1832  -19.8167   28.3217 N   0  0  0  0  0  0  0  0  0  0  0  0
    8.7242  -18.5599   28.7777 C   0  0  0  0  0  0  0  0  0  0  0  0
    8.8137  -18.1969   29.9745 O   0  0  0  0  0  0  0  0  0  0  0  0
    8.1006  -17.6093   27.7977 C   0  0  0  0  0  0  0  0  0  0  0  0
    8.0180  -18.2293   26.4273 C   0  0  0  0  0  0  0  0  0  0  0  0
    7.3850  -17.2298   25.4846 C   0  0  2  0  0  0  0  0  0  0  0  0
    7.2839  -17.8142   24.1725 N   0  0  0  0  0  0  0  0  0  0  0  0
    8.0963  -15.9557   25.4226 C   0  0  0  0  0  0  0  0  0  0  0  0
    9.1421  -15.9257   24.6799 O   0  0  0  0  0  0  0  0  0  0  0  0
    7.7230  -14.7554   26.1167 N   0  0  0  0  0  0  0  0  0  0  0  0
    6.6239  -14.6169   27.0123 C   0  0  0  0  0  0  0  0  0  0  0  0
    6.2045  -13.1633   26.7945 C   0  0  0  0  0  0  0  0  0  0  0  0
    7.4469  -12.4474   26.3869 C   0  0  0  0  0  0  0  0  0  0  0  0
    8.4249  -13.5200   26.0302 C   0  0  1  0  0  0  0  0  0  0  0  0
    9.6174  -13.5030   26.9552 C   0  0  0  0  0  0  0  0  0  0  0  0
    9.7028  -14.3964   27.8347 O   0  0  0  0  0  0  0  0  0  0  0  0
   10.5862  -12.5371   26.8411 O   0  0  0  0  0  0  0  0  0  0  0  0
  1  2  1  0
  3  2  1  0
  3  5  1  0
  3  4  1  1
  5  7  1  0
  5  6  1  6
  7  8  2  0
  9 10  1  0
 10 12  1  0
 11 10  2  0
 12 13  1  0
 14 13  1  1
 14 16  1  0
 15 14  1  0
 15  7  1  0
 16 18  1  0
 17 16  2  0
 18 19  1  0
 18 22  1  0
 20 21  1  0
 20 19  1  0
 21 22  1  0
 22 23  1  1
 23 25  1  0
 24 23  2  0
M  END
$$$$
