IQP.pdb
     RDKit          3D

 25 25  0  0  1  0  0  0  0  0999 V2000
    6.8542  -11.6212   27.9810 C   0  0  0  0  0  0  0  0  0  0  0  0
    5.9569  -12.6373   27.2397 C   0  0  0  0  0  0  0  0  0  0  0  0
    6.8434  -13.3223   26.2609 C   0  0  2  0  0  0  0  0  0  0  0  0
    7.6896  -12.3611   25.4545 C   0  0  0  0  0  0  0  0  0  0  0  0
    6.1135  -14.3192   25.4348 C   0  0  2  0  0  0  0  0  0  0  0  0
    5.5730  -15.3235   26.3814 N   0  0  0  0  0  0  0  0  0  0  0  0
    6.9954  -15.0549   24.4495 C   0  0  0  0  0  0  0  0  0  0  0  0
    7.5412  -16.1010   24.8653 O   0  0  0  0  0  0  0  0  0  0  0  0
    7.9060  -12.8396   18.5355 N   0  0  0  0  0  0  0  0  0  0  0  0
    8.6413  -14.0468   18.5166 C   0  0  0  0  0  0  0  0  0  0  0  0
    9.2674  -14.4457   17.5063 O   0  0  0  0  0  0  0  0  0  0  0  0
    8.6826  -14.8975   19.7526 C   0  0  0  0  0  0  0  0  0  0  0  0
    7.8788  -14.2712   20.8620 C   0  0  0  0  0  0  0  0  0  0  0  0
    7.9513  -15.1712   22.0757 C   0  0  2  0  0  0  0  0  0  0  0  0
    7.1810  -14.5891   23.1440 N   0  0  0  0  0  0  0  0  0  0  0  0
    9.3161  -15.4425   22.5194 C   0  0  0  0  0  0  0  0  0  0  0  0
    9.8992  -14.5012   23.1676 O   0  0  0  0  0  0  0  0  0  0  0  0
   10.0433  -16.6591   22.2900 N   0  0  0  0  0  0  0  0  0  0  0  0
    9.5655  -17.7945   21.5744 C   0  0  0  0  0  0  0  0  0  0  0  0
   10.2635  -18.9508   22.2901 C   0  0  0  0  0  0  0  0  0  0  0  0
   11.5364  -18.3820   22.8177 C   0  0  0  0  0  0  0  0  0  0  0  0
   11.3767  -16.8987   22.7270 C   0  0  1  0  0  0  0  0  0  0  0  0
   12.3805  -16.2974   21.7737 C   0  0  0  0  0  0  0  0  0  0  0  0
   12.0142  -16.0552   20.5964 O   0  0  0  0  0  0  0  0  0  0  0  0
   13.6625  -16.0208   22.1796 O   0  0  0  0  0  0  0  0  0  0  0  0
  1  2  1  0
  3  2  1  0
  3  5  1  0
  3  4  1  6
  5  7  1  0
  5  6  1  1
  7  8  2  0
  9 10  1  0
 10 12  1  0
 11 10  2  0
 12 13  1  0
 14 13  1  6
 14 16  1  0
 15 14  1  0
 15  7  1  0
 16 18  1  0
 17 16  2  0
 18 19  1  0
 18 22  1  0
 20 21  1  0
 20 19  1  0
 21 22  1  0
 22 23  1  6
 23 25  1  0
 24 23  2  0
M  END
$$$$
