IQP.pdb
     RDKit          3D

 25 25  0  0  1  0  0  0  0  0999 V2000
    8.0336  -12.3727   18.2918 C   0  0  0  0  0  0  0  0  0  0  0  0
    8.2326  -13.8572   18.6708 C   0  0  0  0  0  0  0  0  0  0  0  0
    7.7235  -13.9920   20.0622 C   0  0  2  0  0  0  0  0  0  0  0  0
    8.3120  -12.9692   21.0098 C   0  0  0  0  0  0  0  0  0  0  0  0
    7.8014  -15.3894   20.5622 C   0  0  2  0  0  0  0  0  0  0  0  0
    7.0496  -16.2182   19.5903 N   0  0  0  0  0  0  0  0  0  0  0  0
    7.1584  -15.5868   21.9178 C   0  0  0  0  0  0  0  0  0  0  0  0
    5.9240  -15.3939   21.9810 O   0  0  0  0  0  0  0  0  0  0  0  0
    7.3741  -20.1216   25.7437 N   0  0  0  0  0  0  0  0  0  0  0  0
    6.9239  -19.1197   26.6335 C   0  0  0  0  0  0  0  0  0  0  0  0
    6.4658  -19.3773   27.7718 O   0  0  0  0  0  0  0  0  0  0  0  0
    6.9916  -17.6812   26.2100 C   0  0  0  0  0  0  0  0  0  0  0  0
    7.4522  -17.5639   24.7807 C   0  0  0  0  0  0  0  0  0  0  0  0
    7.4890  -16.0988   24.4059 C   0  0  2  0  0  0  0  0  0  0  0  0
    7.9080  -15.9708   23.0342 N   0  0  0  0  0  0  0  0  0  0  0  0
    8.3424  -15.2955   25.2775 C   0  0  0  0  0  0  0  0  0  0  0  0
    9.6077  -15.4449   25.1264 O   0  0  0  0  0  0  0  0  0  0  0  0
    7.8832  -14.3684   26.2731 N   0  0  0  0  0  0  0  0  0  0  0  0
    6.5295  -14.1755   26.6726 C   0  0  0  0  0  0  0  0  0  0  0  0
    6.5031  -12.6910   27.0359 C   0  0  0  0  0  0  0  0  0  0  0  0
    7.8870  -12.3664   27.4849 C   0  0  0  0  0  0  0  0  0  0  0  0
    8.7305  -13.5157   27.0357 C   0  0  1  0  0  0  0  0  0  0  0  0
    9.3277  -14.2488   28.2120 C   0  0  0  0  0  0  0  0  0  0  0  0
    8.8596  -15.3755   28.5128 O   0  0  0  0  0  0  0  0  0  0  0  0
   10.3568  -13.7013   28.9372 O   0  0  0  0  0  0  0  0  0  0  0  0
  1  2  1  0
  3  2  1  0
  3  5  1  0
  3  4  1  1
  5  7  1  0
  5  6  1  6
  7  8  2  0
  9 10  1  0
 10 12  1  0
 11 10  2  0
 12 13  1  0
 14 13  1  1
 14 16  1  0
 15 14  1  0
 15  7  1  0
 16 18  1  0
 17 16  2  0
 18 19  1  0
 18 22  1  0
 20 21  1  0
 20 19  1  0
 21 22  1  0
 22 23  1  1
 23 25  1  0
 24 23  2  0
M  END
$$$$
