IQP.pdb
     RDKit          3D

 25 25  0  0  1  0  0  0  0  0999 V2000
    7.8189  -12.3853   18.3911 C   0  0  0  0  0  0  0  0  0  0  0  0
    7.9212  -13.8788   18.7730 C   0  0  0  0  0  0  0  0  0  0  0  0
    7.5964  -13.9496   20.2230 C   0  0  2  0  0  0  0  0  0  0  0  0
    8.4370  -13.0138   21.0646 C   0  0  0  0  0  0  0  0  0  0  0  0
    7.5623  -15.3464   20.7296 C   0  0  2  0  0  0  0  0  0  0  0  0
    6.6290  -16.0837   19.8451 N   0  0  0  0  0  0  0  0  0  0  0  0
    7.0366  -15.4678   22.1434 C   0  0  0  0  0  0  0  0  0  0  0  0
    5.8905  -15.0113   22.3516 O   0  0  0  0  0  0  0  0  0  0  0  0
    7.4683  -20.1911   25.9361 N   0  0  0  0  0  0  0  0  0  0  0  0
    7.0834  -19.1811   26.8470 C   0  0  0  0  0  0  0  0  0  0  0  0
    6.7049  -19.4286   28.0165 O   0  0  0  0  0  0  0  0  0  0  0  0
    7.1246  -17.7462   26.4085 C   0  0  0  0  0  0  0  0  0  0  0  0
    7.4934  -17.6407   24.9519 C   0  0  0  0  0  0  0  0  0  0  0  0
    7.4962  -16.1794   24.5609 C   0  0  2  0  0  0  0  0  0  0  0  0
    7.7931  -16.0651   23.1566 N   0  0  0  0  0  0  0  0  0  0  0  0
    8.4222  -15.3677   25.3463 C   0  0  0  0  0  0  0  0  0  0  0  0
    9.6690  -15.5129   25.0807 O   0  0  0  0  0  0  0  0  0  0  0  0
    8.0520  -14.4368   26.3750 N   0  0  0  0  0  0  0  0  0  0  0  0
    6.7237  -14.1505   26.8026 C   0  0  0  0  0  0  0  0  0  0  0  0
    6.8193  -12.6796   27.2073 C   0  0  0  0  0  0  0  0  0  0  0  0
    8.2308  -12.4773   27.6416 C   0  0  0  0  0  0  0  0  0  0  0  0
    8.9748  -13.6754   27.1464 C   0  0  1  0  0  0  0  0  0  0  0  0
    9.5299  -14.4868   28.2916 C   0  0  0  0  0  0  0  0  0  0  0  0
    8.9888  -15.5889   28.5592 O   0  0  0  0  0  0  0  0  0  0  0  0
   10.5991  -14.0349   29.0245 O   0  0  0  0  0  0  0  0  0  0  0  0
  1  2  1  0
  3  2  1  0
  3  5  1  0
  3  4  1  1
  5  7  1  0
  5  6  1  6
  7  8  2  0
  9 10  1  0
 10 12  1  0
 11 10  2  0
 12 13  1  0
 14 13  1  1
 14 16  1  0
 15 14  1  0
 15  7  1  0
 16 18  1  0
 17 16  2  0
 18 19  1  0
 18 22  1  0
 20 21  1  0
 20 19  1  0
 21 22  1  0
 22 23  1  1
 23 25  1  0
 24 23  2  0
M  END
$$$$
