IQP.pdb
     RDKit          3D

 25 25  0  0  1  0  0  0  0  0999 V2000
    7.4186  -10.7922   26.7690 C   0  0  0  0  0  0  0  0  0  0  0  0
    6.6675  -12.1345   26.6239 C   0  0  0  0  0  0  0  0  0  0  0  0
    6.9543  -12.6123   25.2446 C   0  0  2  0  0  0  0  0  0  0  0  0
    6.7166  -11.5536   24.1896 C   0  0  0  0  0  0  0  0  0  0  0  0
    6.3014  -13.9141   24.9475 C   0  0  2  0  0  0  0  0  0  0  0  0
    4.8890  -13.7745   25.3747 N   0  0  0  0  0  0  0  0  0  0  0  0
    6.8922  -15.0789   25.7117 C   0  0  0  0  0  0  0  0  0  0  0  0
    6.5262  -15.2065   26.9012 O   0  0  0  0  0  0  0  0  0  0  0  0
    8.3560  -20.1478   22.8680 N   0  0  0  0  0  0  0  0  0  0  0  0
    7.2121  -19.9158   23.6653 C   0  0  0  0  0  0  0  0  0  0  0  0
    6.1555  -20.5807   23.5481 O   0  0  0  0  0  0  0  0  0  0  0  0
    7.2500  -18.8297   24.7006 C   0  0  0  0  0  0  0  0  0  0  0  0
    8.6172  -18.2010   24.7687 C   0  0  0  0  0  0  0  0  0  0  0  0
    8.5588  -17.0243   25.7175 C   0  0  2  0  0  0  0  0  0  0  0  0
    7.7929  -15.9654   25.1129 N   0  0  0  0  0  0  0  0  0  0  0  0
    9.8746  -16.5360   26.1221 C   0  0  0  0  0  0  0  0  0  0  0  0
   10.7066  -16.2974   25.1749 O   0  0  0  0  0  0  0  0  0  0  0  0
   10.3018  -16.3069   27.4736 N   0  0  0  0  0  0  0  0  0  0  0  0
    9.4786  -16.3850   28.6336 C   0  0  0  0  0  0  0  0  0  0  0  0
   10.1064  -15.3371   29.5524 C   0  0  0  0  0  0  0  0  0  0  0  0
   11.5467  -15.2856   29.1716 C   0  0  0  0  0  0  0  0  0  0  0  0
   11.6359  -15.9917   27.8573 C   0  0  1  0  0  0  0  0  0  0  0  0
   12.4832  -17.2364   27.9611 C   0  0  0  0  0  0  0  0  0  0  0  0
   11.9064  -18.3528   27.9558 O   0  0  0  0  0  0  0  0  0  0  0  0
   13.8501  -17.1544   28.0588 O   0  0  0  0  0  0  0  0  0  0  0  0
  1  2  1  0
  3  2  1  0
  3  5  1  0
  3  4  1  6
  5  7  1  0
  5  6  1  1
  7  8  2  0
  9 10  1  0
 10 12  1  0
 11 10  2  0
 12 13  1  0
 14 13  1  6
 14 16  1  0
 15 14  1  0
 15  7  1  0
 16 18  1  0
 17 16  2  0
 18 19  1  0
 18 22  1  0
 20 21  1  0
 20 19  1  0
 21 22  1  0
 22 23  1  1
 23 25  1  0
 24 23  2  0
M  END
$$$$
