IQP.pdb
     RDKit          3D

 25 25  0  0  1  0  0  0  0  0999 V2000
    8.1688  -12.1194   19.9729 C   0  0  0  0  0  0  0  0  0  0  0  0
    7.3069  -13.3634   20.2840 C   0  0  0  0  0  0  0  0  0  0  0  0
    8.2118  -14.5334   20.1250 C   0  0  2  0  0  0  0  0  0  0  0  0
    8.8549  -14.6031   18.7568 C   0  0  0  0  0  0  0  0  0  0  0  0
    7.5754  -15.8057   20.5555 C   0  0  2  0  0  0  0  0  0  0  0  0
    6.4010  -15.9995   19.6723 N   0  0  0  0  0  0  0  0  0  0  0  0
    7.0698  -15.7806   21.9815 C   0  0  0  0  0  0  0  0  0  0  0  0
    5.9260  -15.3053   22.1576 O   0  0  0  0  0  0  0  0  0  0  0  0
    6.9424  -20.1337   26.0267 N   0  0  0  0  0  0  0  0  0  0  0  0
    7.1156  -19.0767   26.9491 C   0  0  0  0  0  0  0  0  0  0  0  0
    6.9291  -19.2126   28.1815 O   0  0  0  0  0  0  0  0  0  0  0  0
    7.5409  -17.7283   26.4452 C   0  0  0  0  0  0  0  0  0  0  0  0
    7.6701  -17.7328   24.9444 C   0  0  0  0  0  0  0  0  0  0  0  0
    7.5286  -16.3119   24.4451 C   0  0  2  0  0  0  0  0  0  0  0  0
    7.8415  -16.2699   23.0402 N   0  0  0  0  0  0  0  0  0  0  0  0
    8.3481  -15.3517   25.1797 C   0  0  0  0  0  0  0  0  0  0  0  0
    9.6161  -15.4365   25.0033 O   0  0  0  0  0  0  0  0  0  0  0  0
    7.8535  -14.3386   26.0689 N   0  0  0  0  0  0  0  0  0  0  0  0
    6.4828  -14.0226   26.2939 C   0  0  0  0  0  0  0  0  0  0  0  0
    6.5352  -12.5223   26.5819 C   0  0  0  0  0  0  0  0  0  0  0  0
    7.8795  -12.2780   27.1778 C   0  0  0  0  0  0  0  0  0  0  0  0
    8.6732  -13.5107   26.8870 C   0  0  1  0  0  0  0  0  0  0  0  0
    9.0687  -14.2199   28.1592 C   0  0  0  0  0  0  0  0  0  0  0  0
    9.8981  -13.6613   28.9203 O   0  0  0  0  0  0  0  0  0  0  0  0
    8.5375  -15.4444   28.4798 O   0  0  0  0  0  0  0  0  0  0  0  0
  1  2  1  0
  3  2  1  0
  3  5  1  0
  3  4  1  6
  5  7  1  0
  5  6  1  6
  7  8  2  0
  9 10  1  0
 10 12  1  0
 11 10  2  0
 12 13  1  0
 14 13  1  1
 14 16  1  0
 15 14  1  0
 15  7  1  0
 16 18  1  0
 17 16  2  0
 18 19  1  0
 18 22  1  0
 20 21  1  0
 20 19  1  0
 21 22  1  0
 22 23  1  1
 23 25  1  0
 24 23  2  0
M  END
$$$$
