IQP.pdb
     RDKit          3D

 25 25  0  0  1  0  0  0  0  0999 V2000
    7.9570  -12.3114   18.2970 C   0  0  0  0  0  0  0  0  0  0  0  0
    8.1218  -13.8077   18.6445 C   0  0  0  0  0  0  0  0  0  0  0  0
    7.6547  -13.9513   20.0496 C   0  0  2  0  0  0  0  0  0  0  0  0
    8.3229  -12.9795   20.9981 C   0  0  0  0  0  0  0  0  0  0  0  0
    7.6834  -15.3622   20.5160 C   0  0  2  0  0  0  0  0  0  0  0  0
    6.8466  -16.1292   19.5628 N   0  0  0  0  0  0  0  0  0  0  0  0
    7.0933  -15.5587   21.8955 C   0  0  0  0  0  0  0  0  0  0  0  0
    5.8541  -15.4185   21.9953 O   0  0  0  0  0  0  0  0  0  0  0  0
    7.6039  -20.0787   25.6701 N   0  0  0  0  0  0  0  0  0  0  0  0
    7.1960  -19.0988   26.6036 C   0  0  0  0  0  0  0  0  0  0  0  0
    6.8694  -19.3765   27.7818 O   0  0  0  0  0  0  0  0  0  0  0  0
    7.1472  -17.6598   26.1793 C   0  0  0  0  0  0  0  0  0  0  0  0
    7.5765  -17.5090   24.7433 C   0  0  0  0  0  0  0  0  0  0  0  0
    7.5173  -16.0430   24.3750 C   0  0  2  0  0  0  0  0  0  0  0  0
    7.8943  -15.8857   22.9942 N   0  0  0  0  0  0  0  0  0  0  0  0
    8.3428  -15.1936   25.2296 C   0  0  0  0  0  0  0  0  0  0  0  0
    9.6093  -15.2510   25.0323 O   0  0  0  0  0  0  0  0  0  0  0  0
    7.8555  -14.3154   26.2557 N   0  0  0  0  0  0  0  0  0  0  0  0
    6.4934  -14.1582   26.6420 C   0  0  0  0  0  0  0  0  0  0  0  0
    6.4400  -12.6907   27.0662 C   0  0  0  0  0  0  0  0  0  0  0  0
    7.8122  -12.3659   27.5495 C   0  0  0  0  0  0  0  0  0  0  0  0
    8.6789  -13.4836   27.0660 C   0  0  1  0  0  0  0  0  0  0  0  0
    9.2693  -14.2569   28.2199 C   0  0  0  0  0  0  0  0  0  0  0  0
    8.8135  -15.4017   28.4661 O   0  0  0  0  0  0  0  0  0  0  0  0
   10.2792  -13.7257   28.9831 O   0  0  0  0  0  0  0  0  0  0  0  0
  1  2  1  0
  3  2  1  0
  3  5  1  0
  3  4  1  1
  5  7  1  0
  5  6  1  6
  7  8  2  0
  9 10  1  0
 10 12  1  0
 11 10  2  0
 12 13  1  0
 14 13  1  1
 14 16  1  0
 15 14  1  0
 15  7  1  0
 16 18  1  0
 17 16  2  0
 18 19  1  0
 18 22  1  0
 20 21  1  0
 20 19  1  0
 21 22  1  0
 22 23  1  1
 23 25  1  0
 24 23  2  0
M  END
$$$$
