IQP.pdb
     RDKit          3D

 25 25  0  0  1  0  0  0  0  0999 V2000
    7.9644  -12.2984   18.3808 C   0  0  0  0  0  0  0  0  0  0  0  0
    8.0526  -13.7978   18.7430 C   0  0  0  0  0  0  0  0  0  0  0  0
    7.6492  -13.8941   20.1716 C   0  0  2  0  0  0  0  0  0  0  0  0
    8.4347  -12.9660   21.0728 C   0  0  0  0  0  0  0  0  0  0  0  0
    7.5983  -15.2991   20.6536 C   0  0  2  0  0  0  0  0  0  0  0  0
    6.6694  -16.0135   19.7460 N   0  0  0  0  0  0  0  0  0  0  0  0
    7.0555  -15.4405   22.0591 C   0  0  0  0  0  0  0  0  0  0  0  0
    5.8510  -15.1448   22.2223 O   0  0  0  0  0  0  0  0  0  0  0  0
    7.5608  -20.0802   25.7905 N   0  0  0  0  0  0  0  0  0  0  0  0
    7.1078  -19.1031   26.7060 C   0  0  0  0  0  0  0  0  0  0  0  0
    6.6909  -19.3881   27.8536 O   0  0  0  0  0  0  0  0  0  0  0  0
    7.1208  -17.6582   26.2997 C   0  0  0  0  0  0  0  0  0  0  0  0
    7.5365  -17.5096   24.8594 C   0  0  0  0  0  0  0  0  0  0  0  0
    7.5260  -16.0390   24.5050 C   0  0  2  0  0  0  0  0  0  0  0  0
    7.8604  -15.8847   23.1130 N   0  0  0  0  0  0  0  0  0  0  0  0
    8.4159  -15.2328   25.3364 C   0  0  0  0  0  0  0  0  0  0  0  0
    9.6722  -15.3541   25.1054 O   0  0  0  0  0  0  0  0  0  0  0  0
    8.0013  -14.3314   26.3743 N   0  0  0  0  0  0  0  0  0  0  0  0
    6.6569  -14.0767   26.7705 C   0  0  0  0  0  0  0  0  0  0  0  0
    6.7160  -12.6139   27.2098 C   0  0  0  0  0  0  0  0  0  0  0  0
    8.1113  -12.3980   27.6880 C   0  0  0  0  0  0  0  0  0  0  0  0
    8.8891  -13.5722   27.1880 C   0  0  1  0  0  0  0  0  0  0  0  0
    9.4260  -14.3998   28.3303 C   0  0  0  0  0  0  0  0  0  0  0  0
    8.8981  -15.5173   28.5569 O   0  0  0  0  0  0  0  0  0  0  0  0
   10.4650  -13.9457   29.1042 O   0  0  0  0  0  0  0  0  0  0  0  0
  1  2  1  0
  3  2  1  0
  3  5  1  0
  3  4  1  1
  5  7  1  0
  5  6  1  6
  7  8  2  0
  9 10  1  0
 10 12  1  0
 11 10  2  0
 12 13  1  0
 14 13  1  1
 14 16  1  0
 15 14  1  0
 15  7  1  0
 16 18  1  0
 17 16  2  0
 18 19  1  0
 18 22  1  0
 20 21  1  0
 20 19  1  0
 21 22  1  0
 22 23  1  1
 23 25  1  0
 24 23  2  0
M  END
$$$$
