IQP.pdb
     RDKit          3D

 25 25  0  0  1  0  0  0  0  0999 V2000
    6.0990  -11.1741   27.8300 C   0  0  0  0  0  0  0  0  0  0  0  0
    6.1029  -12.6998   27.5865 C   0  0  0  0  0  0  0  0  0  0  0  0
    6.9248  -12.9131   26.3650 C   0  0  2  0  0  0  0  0  0  0  0  0
    6.4922  -12.0475   25.2014 C   0  0  0  0  0  0  0  0  0  0  0  0
    7.0696  -14.3521   26.0224 C   0  0  2  0  0  0  0  0  0  0  0  0
    7.3619  -15.0522   27.2957 N   0  0  0  0  0  0  0  0  0  0  0  0
    8.2141  -14.6394   25.0751 C   0  0  0  0  0  0  0  0  0  0  0  0
    9.3582  -14.3289   25.4750 O   0  0  0  0  0  0  0  0  0  0  0  0
   11.3421  -18.8364   23.0353 N   0  0  0  0  0  0  0  0  0  0  0  0
   11.5828  -17.9612   21.9517 C   0  0  0  0  0  0  0  0  0  0  0  0
   12.4922  -18.1547   21.1106 O   0  0  0  0  0  0  0  0  0  0  0  0
   10.7200  -16.7437   21.7892 C   0  0  0  0  0  0  0  0  0  0  0  0
    9.7260  -16.6363   22.9159 C   0  0  0  0  0  0  0  0  0  0  0  0
    8.9150  -15.3740   22.7233 C   0  0  2  0  0  0  0  0  0  0  0  0
    7.9988  -15.2267   23.8243 N   0  0  0  0  0  0  0  0  0  0  0  0
    8.1969  -15.3309   21.4522 C   0  0  0  0  0  0  0  0  0  0  0  0
    7.2471  -16.1815   21.3084 O   0  0  0  0  0  0  0  0  0  0  0  0
    8.4670  -14.4270   20.3698 N   0  0  0  0  0  0  0  0  0  0  0  0
    9.4791  -13.4246   20.3526 C   0  0  0  0  0  0  0  0  0  0  0  0
    8.8461  -12.3343   19.4883 C   0  0  0  0  0  0  0  0  0  0  0  0
    7.9253  -13.0480   18.5584 C   0  0  0  0  0  0  0  0  0  0  0  0
    7.7703  -14.4210   19.1284 C   0  0  1  0  0  0  0  0  0  0  0  0
    8.3175  -15.4684   18.1896 C   0  0  0  0  0  0  0  0  0  0  0  0
    7.7036  -15.6852   17.1147 O   0  0  0  0  0  0  0  0  0  0  0  0
    9.4571  -16.1685   18.4992 O   0  0  0  0  0  0  0  0  0  0  0  0
  1  2  1  0
  3  2  1  0
  3  5  1  0
  3  4  1  6
  5  7  1  0
  5  6  1  1
  7  8  2  0
  9 10  1  0
 10 12  1  0
 11 10  2  0
 12 13  1  0
 14 13  1  1
 14 16  1  0
 15 14  1  0
 15  7  1  0
 16 18  1  0
 17 16  2  0
 18 19  1  0
 18 22  1  0
 20 21  1  0
 20 19  1  0
 21 22  1  0
 22 23  1  6
 23 25  1  0
 24 23  2  0
M  END
$$$$
