IQP.pdb
     RDKit          3D

 25 25  0  0  1  0  0  0  0  0999 V2000
    8.0209  -12.5111   18.2406 C   0  0  0  0  0  0  0  0  0  0  0  0
    8.2065  -13.9823   18.6746 C   0  0  0  0  0  0  0  0  0  0  0  0
    7.6790  -14.0648   20.0631 C   0  0  2  0  0  0  0  0  0  0  0  0
    8.2600  -13.0112   20.9811 C   0  0  0  0  0  0  0  0  0  0  0  0
    7.7438  -15.4437   20.6140 C   0  0  2  0  0  0  0  0  0  0  0  0
    7.0356  -16.3103   19.6421 N   0  0  0  0  0  0  0  0  0  0  0  0
    7.0481  -15.5985   21.9489 C   0  0  0  0  0  0  0  0  0  0  0  0
    5.7974  -15.5798   21.9295 O   0  0  0  0  0  0  0  0  0  0  0  0
    5.4077  -20.1844   23.8935 N   0  0  0  0  0  0  0  0  0  0  0  0
    6.5077  -19.4208   24.3462 C   0  0  0  0  0  0  0  0  0  0  0  0
    7.3847  -19.8813   25.1149 O   0  0  0  0  0  0  0  0  0  0  0  0
    6.6441  -17.9957   23.8949 C   0  0  0  0  0  0  0  0  0  0  0  0
    7.1396  -17.1225   25.0178 C   0  0  0  0  0  0  0  0  0  0  0  0
    7.2992  -15.7118   24.4956 C   0  0  2  0  0  0  0  0  0  0  0  0
    7.7699  -15.7602   23.1357 N   0  0  0  0  0  0  0  0  0  0  0  0
    8.1830  -14.8844   25.3127 C   0  0  0  0  0  0  0  0  0  0  0  0
    9.4308  -14.9239   25.0166 O   0  0  0  0  0  0  0  0  0  0  0  0
    7.7711  -14.0455   26.4028 N   0  0  0  0  0  0  0  0  0  0  0  0
    6.4441  -13.9229   26.9062 C   0  0  0  0  0  0  0  0  0  0  0  0
    6.4056  -12.4698   27.3789 C   0  0  0  0  0  0  0  0  0  0  0  0
    7.8088  -12.1365   27.7559 C   0  0  0  0  0  0  0  0  0  0  0  0
    8.6476  -13.2245   27.1671 C   0  0  1  0  0  0  0  0  0  0  0  0
    9.3438  -14.0219   28.2430 C   0  0  0  0  0  0  0  0  0  0  0  0
    8.9623  -15.2006   28.4530 O   0  0  0  0  0  0  0  0  0  0  0  0
   10.3685  -13.4760   28.9756 O   0  0  0  0  0  0  0  0  0  0  0  0
  1  2  1  0
  3  2  1  0
  3  5  1  0
  3  4  1  1
  5  7  1  0
  5  6  1  6
  7  8  2  0
  9 10  1  0
 10 12  1  0
 11 10  2  0
 12 13  1  0
 14 13  1  1
 14 16  1  0
 15 14  1  0
 15  7  1  0
 16 18  1  0
 17 16  2  0
 18 19  1  0
 18 22  1  0
 20 21  1  0
 20 19  1  0
 21 22  1  0
 22 23  1  1
 23 25  1  0
 24 23  2  0
M  END
$$$$
