IQP.pdb
     RDKit          3D

 25 25  0  0  1  0  0  0  0  0999 V2000
    6.8390  -10.7071   27.3395 C   0  0  0  0  0  0  0  0  0  0  0  0
    7.4031  -12.1392   27.4739 C   0  0  0  0  0  0  0  0  0  0  0  0
    6.6842  -12.9549   26.4586 C   0  0  2  0  0  0  0  0  0  0  0  0
    5.1886  -12.9994   26.6855 C   0  0  0  0  0  0  0  0  0  0  0  0
    7.3026  -14.2923   26.2635 C   0  0  2  0  0  0  0  0  0  0  0  0
    7.9794  -14.6243   27.5396 N   0  0  0  0  0  0  0  0  0  0  0  0
    8.3517  -14.3238   25.1734 C   0  0  0  0  0  0  0  0  0  0  0  0
    9.2905  -13.5041   25.2814 O   0  0  0  0  0  0  0  0  0  0  0  0
   11.4931  -18.9666   21.7185 N   0  0  0  0  0  0  0  0  0  0  0  0
   11.9157  -17.6342   21.9288 C   0  0  0  0  0  0  0  0  0  0  0  0
   13.1019  -17.3319   22.1998 O   0  0  0  0  0  0  0  0  0  0  0  0
   10.9113  -16.5234   21.8263 C   0  0  0  0  0  0  0  0  0  0  0  0
   10.0106  -16.5015   23.0335 C   0  0  0  0  0  0  0  0  0  0  0  0
    9.0907  -15.3055   22.9257 C   0  0  2  0  0  0  0  0  0  0  0  0
    8.2740  -15.2276   24.1090 N   0  0  0  0  0  0  0  0  0  0  0  0
    8.2545  -15.3195   21.7282 C   0  0  0  0  0  0  0  0  0  0  0  0
    7.2578  -16.1273   21.7421 O   0  0  0  0  0  0  0  0  0  0  0  0
    8.4583  -14.5140   20.5571 N   0  0  0  0  0  0  0  0  0  0  0  0
    9.5487  -13.6245   20.3356 C   0  0  0  0  0  0  0  0  0  0  0  0
    8.9093  -12.5277   19.4842 C   0  0  0  0  0  0  0  0  0  0  0  0
    7.8066  -13.1962   18.7365 C   0  0  0  0  0  0  0  0  0  0  0  0
    7.6019  -14.5096   19.4200 C   0  0  1  0  0  0  0  0  0  0  0  0
    7.9140  -15.6618   18.4964 C   0  0  0  0  0  0  0  0  0  0  0  0
    8.9944  -16.2821   18.6606 O   0  0  0  0  0  0  0  0  0  0  0  0
    7.0414  -16.0255   17.5009 O   0  0  0  0  0  0  0  0  0  0  0  0
  1  2  1  0
  3  2  1  0
  3  5  1  0
  3  4  1  1
  5  7  1  0
  5  6  1  1
  7  8  2  0
  9 10  1  0
 10 12  1  0
 11 10  2  0
 12 13  1  0
 14 13  1  1
 14 16  1  0
 15 14  1  0
 15  7  1  0
 16 18  1  0
 17 16  2  0
 18 19  1  0
 18 22  1  0
 20 21  1  0
 20 19  1  0
 21 22  1  0
 22 23  1  6
 23 25  1  0
 24 23  2  0
M  END
$$$$
