IQP.pdb
     RDKit          3D

 25 25  0  0  1  0  0  0  0  0999 V2000
    7.0658  -11.4618   27.6926 C   0  0  0  0  0  0  0  0  0  0  0  0
    6.2464  -12.6726   27.1930 C   0  0  0  0  0  0  0  0  0  0  0  0
    7.1046  -13.3560   26.1882 C   0  0  2  0  0  0  0  0  0  0  0  0
    7.8743  -12.3910   25.3125 C   0  0  0  0  0  0  0  0  0  0  0  0
    6.3683  -14.4002   25.4290 C   0  0  2  0  0  0  0  0  0  0  0  0
    5.9392  -15.4099   26.4257 N   0  0  0  0  0  0  0  0  0  0  0  0
    7.2157  -15.1138   24.3982 C   0  0  0  0  0  0  0  0  0  0  0  0
    7.8892  -16.0851   24.8081 O   0  0  0  0  0  0  0  0  0  0  0  0
    7.4910  -13.1016   18.3363 N   0  0  0  0  0  0  0  0  0  0  0  0
    8.4890  -14.1017   18.3805 C   0  0  0  0  0  0  0  0  0  0  0  0
    9.2720  -14.3235   17.4266 O   0  0  0  0  0  0  0  0  0  0  0  0
    8.6284  -14.9419   19.6165 C   0  0  0  0  0  0  0  0  0  0  0  0
    7.8463  -14.3489   20.7592 C   0  0  0  0  0  0  0  0  0  0  0  0
    7.9734  -15.2655   21.9559 C   0  0  2  0  0  0  0  0  0  0  0  0
    7.2355  -14.7086   23.0599 N   0  0  0  0  0  0  0  0  0  0  0  0
    9.3566  -15.5263   22.3460 C   0  0  0  0  0  0  0  0  0  0  0  0
    9.9491  -14.5905   22.9936 O   0  0  0  0  0  0  0  0  0  0  0  0
   10.0918  -16.7272   22.0652 N   0  0  0  0  0  0  0  0  0  0  0  0
    9.6534  -17.7996   21.2364 C   0  0  0  0  0  0  0  0  0  0  0  0
   10.3038  -19.0136   21.8993 C   0  0  0  0  0  0  0  0  0  0  0  0
   11.5452  -18.4978   22.5436 C   0  0  0  0  0  0  0  0  0  0  0  0
   11.3963  -17.0107   22.5597 C   0  0  1  0  0  0  0  0  0  0  0  0
   12.4568  -16.3452   21.7169 C   0  0  0  0  0  0  0  0  0  0  0  0
   12.1441  -15.9538   20.5644 O   0  0  0  0  0  0  0  0  0  0  0  0
   13.7319  -16.1703   22.1944 O   0  0  0  0  0  0  0  0  0  0  0  0
  1  2  1  0
  3  2  1  0
  3  5  1  0
  3  4  1  6
  5  7  1  0
  5  6  1  1
  7  8  2  0
  9 10  1  0
 10 12  1  0
 11 10  2  0
 12 13  1  0
 14 13  1  6
 14 16  1  0
 15 14  1  0
 15  7  1  0
 16 18  1  0
 17 16  2  0
 18 19  1  0
 18 22  1  0
 20 21  1  0
 20 19  1  0
 21 22  1  0
 22 23  1  6
 23 25  1  0
 24 23  2  0
M  END
$$$$
