IQP.pdb
     RDKit          3D

 25 25  0  0  1  0  0  0  0  0999 V2000
    8.0791  -12.2713   18.5632 C   0  0  0  0  0  0  0  0  0  0  0  0
    8.0981  -13.7904   18.8445 C   0  0  0  0  0  0  0  0  0  0  0  0
    7.6957  -13.9440   20.2684 C   0  0  2  0  0  0  0  0  0  0  0  0
    8.5168  -13.0913   21.2112 C   0  0  0  0  0  0  0  0  0  0  0  0
    7.5956  -15.3688   20.6795 C   0  0  2  0  0  0  0  0  0  0  0  0
    6.6267  -15.9991   19.7516 N   0  0  0  0  0  0  0  0  0  0  0  0
    7.0670  -15.5606   22.0844 C   0  0  0  0  0  0  0  0  0  0  0  0
    5.9104  -15.1383   22.3057 O   0  0  0  0  0  0  0  0  0  0  0  0
    6.8366  -20.1115   25.8915 N   0  0  0  0  0  0  0  0  0  0  0  0
    7.1519  -19.1317   26.8604 C   0  0  0  0  0  0  0  0  0  0  0  0
    6.9851  -19.3129   28.0898 O   0  0  0  0  0  0  0  0  0  0  0  0
    7.7113  -17.8130   26.4120 C   0  0  0  0  0  0  0  0  0  0  0  0
    7.7795  -17.7424   24.9089 C   0  0  0  0  0  0  0  0  0  0  0  0
    7.5621  -16.3068   24.4844 C   0  0  2  0  0  0  0  0  0  0  0  0
    7.8325  -16.1831   23.0755 N   0  0  0  0  0  0  0  0  0  0  0  0
    8.3599  -15.3474   25.2436 C   0  0  0  0  0  0  0  0  0  0  0  0
    9.6211  -15.3463   25.0076 O   0  0  0  0  0  0  0  0  0  0  0  0
    7.8513  -14.4222   26.2168 N   0  0  0  0  0  0  0  0  0  0  0  0
    6.4785  -14.2216   26.5398 C   0  0  0  0  0  0  0  0  0  0  0  0
    6.4419  -12.7389   26.9094 C   0  0  0  0  0  0  0  0  0  0  0  0
    7.8002  -12.4268   27.4381 C   0  0  0  0  0  0  0  0  0  0  0  0
    8.6598  -13.5798   27.0311 C   0  0  1  0  0  0  0  0  0  0  0  0
    9.1841  -14.3235   28.2352 C   0  0  0  0  0  0  0  0  0  0  0  0
    8.6798  -15.4406   28.5125 O   0  0  0  0  0  0  0  0  0  0  0  0
   10.1868  -13.7956   29.0102 O   0  0  0  0  0  0  0  0  0  0  0  0
  1  2  1  0
  3  2  1  0
  3  5  1  0
  3  4  1  1
  5  7  1  0
  5  6  1  6
  7  8  2  0
  9 10  1  0
 10 12  1  0
 11 10  2  0
 12 13  1  0
 14 13  1  1
 14 16  1  0
 15 14  1  0
 15  7  1  0
 16 18  1  0
 17 16  2  0
 18 19  1  0
 18 22  1  0
 20 21  1  0
 20 19  1  0
 21 22  1  0
 22 23  1  1
 23 25  1  0
 24 23  2  0
M  END
$$$$
