IQP.pdb
     RDKit          3D

 25 25  0  0  1  0  0  0  0  0999 V2000
    7.8351  -12.4178   18.2908 C   0  0  0  0  0  0  0  0  0  0  0  0
    7.9313  -13.9125   18.6701 C   0  0  0  0  0  0  0  0  0  0  0  0
    7.5510  -13.9915   20.1061 C   0  0  2  0  0  0  0  0  0  0  0  0
    8.3500  -13.0517   20.9829 C   0  0  0  0  0  0  0  0  0  0  0  0
    7.5094  -15.3905   20.6061 C   0  0  2  0  0  0  0  0  0  0  0  0
    6.5990  -16.1268   19.6973 N   0  0  0  0  0  0  0  0  0  0  0  0
    6.9516  -15.5192   22.0069 C   0  0  0  0  0  0  0  0  0  0  0  0
    5.7893  -15.0917   22.1840 O   0  0  0  0  0  0  0  0  0  0  0  0
    7.6288  -20.1313   25.9573 N   0  0  0  0  0  0  0  0  0  0  0  0
    7.3434  -19.0940   26.8742 C   0  0  0  0  0  0  0  0  0  0  0  0
    7.1434  -19.3012   28.0945 O   0  0  0  0  0  0  0  0  0  0  0  0
    7.2737  -17.6787   26.3790 C   0  0  0  0  0  0  0  0  0  0  0  0
    7.4725  -17.6220   24.8870 C   0  0  0  0  0  0  0  0  0  0  0  0
    7.3835  -16.1782   24.4444 C   0  0  2  0  0  0  0  0  0  0  0  0
    7.6976  -16.0922   23.0417 N   0  0  0  0  0  0  0  0  0  0  0  0
    8.2380  -15.2786   25.2150 C   0  0  0  0  0  0  0  0  0  0  0  0
    9.4957  -15.3423   24.9694 O   0  0  0  0  0  0  0  0  0  0  0  0
    7.7876  -14.3455   26.2091 N   0  0  0  0  0  0  0  0  0  0  0  0
    6.4300  -14.0287   26.5021 C   0  0  0  0  0  0  0  0  0  0  0  0
    6.5196  -12.5634   26.9277 C   0  0  0  0  0  0  0  0  0  0  0  0
    7.8841  -12.3993   27.5049 C   0  0  0  0  0  0  0  0  0  0  0  0
    8.6453  -13.6124   27.0772 C   0  0  1  0  0  0  0  0  0  0  0  0
    9.0611  -14.4449   28.2654 C   0  0  0  0  0  0  0  0  0  0  0  0
    8.4573  -15.5265   28.4766 O   0  0  0  0  0  0  0  0  0  0  0  0
   10.0733  -14.0336   29.0966 O   0  0  0  0  0  0  0  0  0  0  0  0
  1  2  1  0
  3  2  1  0
  3  5  1  0
  3  4  1  1
  5  7  1  0
  5  6  1  6
  7  8  2  0
  9 10  1  0
 10 12  1  0
 11 10  2  0
 12 13  1  0
 14 13  1  1
 14 16  1  0
 15 14  1  0
 15  7  1  0
 16 18  1  0
 17 16  2  0
 18 19  1  0
 18 22  1  0
 20 21  1  0
 20 19  1  0
 21 22  1  0
 22 23  1  1
 23 25  1  0
 24 23  2  0
M  END
$$$$
