IQP.pdb
     RDKit          3D

 25 25  0  0  1  0  0  0  0  0999 V2000
    7.9267  -12.4073   18.2262 C   0  0  0  0  0  0  0  0  0  0  0  0
    7.9831  -13.9022   18.6123 C   0  0  0  0  0  0  0  0  0  0  0  0
    7.5878  -13.9659   20.0451 C   0  0  2  0  0  0  0  0  0  0  0  0
    8.3752  -13.0143   20.9197 C   0  0  0  0  0  0  0  0  0  0  0  0
    7.5441  -15.3593   20.5605 C   0  0  2  0  0  0  0  0  0  0  0  0
    6.6311  -16.1037   19.6610 N   0  0  0  0  0  0  0  0  0  0  0  0
    6.9879  -15.4715   21.9633 C   0  0  0  0  0  0  0  0  0  0  0  0
    5.8252  -15.0435   22.1363 O   0  0  0  0  0  0  0  0  0  0  0  0
    7.6897  -20.1068   25.8623 N   0  0  0  0  0  0  0  0  0  0  0  0
    7.3945  -19.0848   26.7931 C   0  0  0  0  0  0  0  0  0  0  0  0
    7.2454  -19.3037   28.0186 O   0  0  0  0  0  0  0  0  0  0  0  0
    7.2506  -17.6720   26.3070 C   0  0  0  0  0  0  0  0  0  0  0  0
    7.4811  -17.5899   24.8207 C   0  0  0  0  0  0  0  0  0  0  0  0
    7.4039  -16.1385   24.4013 C   0  0  2  0  0  0  0  0  0  0  0  0
    7.7358  -16.0306   23.0043 N   0  0  0  0  0  0  0  0  0  0  0  0
    8.2527  -15.2560   25.1975 C   0  0  0  0  0  0  0  0  0  0  0  0
    9.5109  -15.3052   24.9509 O   0  0  0  0  0  0  0  0  0  0  0  0
    7.7964  -14.3539   26.2172 N   0  0  0  0  0  0  0  0  0  0  0  0
    6.4376  -14.1108   26.5691 C   0  0  0  0  0  0  0  0  0  0  0  0
    6.4683  -12.6454   27.0028 C   0  0  0  0  0  0  0  0  0  0  0  0
    7.8455  -12.4133   27.5241 C   0  0  0  0  0  0  0  0  0  0  0  0
    8.6503  -13.5821   27.0549 C   0  0  1  0  0  0  0  0  0  0  0  0
    9.1587  -14.3988   28.2178 C   0  0  0  0  0  0  0  0  0  0  0  0
    8.6032  -15.4993   28.4619 O   0  0  0  0  0  0  0  0  0  0  0  0
   10.2016  -13.9535   28.9915 O   0  0  0  0  0  0  0  0  0  0  0  0
  1  2  1  0
  3  2  1  0
  3  5  1  0
  3  4  1  1
  5  7  1  0
  5  6  1  6
  7  8  2  0
  9 10  1  0
 10 12  1  0
 11 10  2  0
 12 13  1  0
 14 13  1  1
 14 16  1  0
 15 14  1  0
 15  7  1  0
 16 18  1  0
 17 16  2  0
 18 19  1  0
 18 22  1  0
 20 21  1  0
 20 19  1  0
 21 22  1  0
 22 23  1  1
 23 25  1  0
 24 23  2  0
M  END
$$$$
