CCW.pdb
     RDKit          3D

 27 28  0  0  1  0  0  0  0  0999 V2000
   15.9910  -24.9732    4.0255 N   0  0  0  0  0  0  0  0  0  0  0  0
   16.3506  -23.8954    4.9626 C   0  0  1  0  0  0  0  0  0  0  0  0
   17.7186  -24.2042    5.5053 C   0  0  0  0  0  0  0  0  0  0  0  0
   18.9260  -23.8848    4.1861 S   0  0  0  0  0  0  0  0  0  0  0  0
   16.2357  -22.6079    4.3021 C   0  0  0  0  0  0  0  0  0  0  0  0
   15.7780  -22.5818    3.1127 O   0  0  0  0  0  0  0  0  0  0  0  0
   16.6031  -21.3391    4.8918 N   0  0  0  0  0  0  0  0  0  0  0  0
   16.1246  -20.1344    4.2490 C   0  0  1  0  0  0  0  0  0  0  0  0
   14.5979  -20.1953    4.3420 C   0  0  0  0  0  0  0  0  0  0  0  0
   14.1313  -19.7683    6.0414 S   0  0  0  0  0  0  0  0  0  0  0  0
   16.6573  -18.9010    4.8279 C   0  0  0  0  0  0  0  0  0  0  0  0
   16.8992  -18.8222    6.0765 O   0  0  0  0  0  0  0  0  0  0  0  0
   16.9448  -17.7292    4.0883 N   0  0  0  0  0  0  0  0  0  0  0  0
   17.4420  -16.4784    4.7046 C   0  0  1  0  0  0  0  0  0  0  0  0
   18.1007  -15.7750    3.5213 C   0  0  0  0  0  0  0  0  0  0  0  0
   18.6022  -14.4365    3.8011 C   0  0  0  0  0  0  0  0  0  0  0  0
   19.5854  -13.9345    4.5857 C   0  0  0  0  0  0  0  0  0  0  0  0
   19.6275  -12.5991    4.4495 N   0  0  0  0  0  0  0  0  0  0  0  0
   18.6952  -12.2097    3.5931 C   0  0  0  0  0  0  0  0  0  0  0  0
   18.3429  -10.9542    3.1130 C   0  0  0  0  0  0  0  0  0  0  0  0
   17.3218  -10.7771    2.1939 C   0  0  0  0  0  0  0  0  0  0  0  0
   16.6569  -11.9080    1.7651 C   0  0  0  0  0  0  0  0  0  0  0  0
   17.0100  -13.1565    2.2460 C   0  0  0  0  0  0  0  0  0  0  0  0
   18.0327  -13.3177    3.1652 C   0  0  0  0  0  0  0  0  0  0  0  0
   16.3448  -15.7452    5.3095 C   0  0  0  0  0  0  0  0  0  0  0  0
   15.1599  -15.9722    4.8786 O   0  0  0  0  0  0  0  0  0  0  0  0
   16.4654  -14.8345    6.2987 O   0  0  0  0  0  0  0  0  0  0  0  0
  2  1  1  6
  2  5  1  0
  2  3  1  0
  3  4  1  0
  5  6  2  0
  7  8  1  0
  7  5  1  0
  8  9  1  1
 10  9  1  0
 11 12  2  0
 11  8  1  0
 13 11  1  0
 14 25  1  0
 14 13  1  0
 14 15  1  6
 16 15  1  0
 17 16  2  0
 18 17  1  0
 19 18  1  0
 19 24  2  0
 20 19  1  0
 21 20  2  0
 21 22  1  0
 22 23  2  0
 23 24  1  0
 24 16  1  0
 25 27  1  0
 26 25  2  0
M  END
$$$$
