CCW.pdb
     RDKit          3D

 27 28  0  0  1  0  0  0  0  0999 V2000
   26.8759  -16.2992  -17.3588 N   0  0  0  0  0  0  0  0  0  0  0  0
   26.7684  -16.9534  -16.0435 C   0  0  1  0  0  0  0  0  0  0  0  0
   26.1354  -15.9698  -15.0984 C   0  0  0  0  0  0  0  0  0  0  0  0
   27.4182  -14.7936  -14.5776 S   0  0  0  0  0  0  0  0  0  0  0  0
   26.0583  -18.2127  -16.1749 C   0  0  0  0  0  0  0  0  0  0  0  0
   25.0885  -18.2722  -16.9999 O   0  0  0  0  0  0  0  0  0  0  0  0
   26.3665  -19.4178  -15.4365 N   0  0  0  0  0  0  0  0  0  0  0  0
   25.5065  -20.5649  -15.6312 C   0  0  1  0  0  0  0  0  0  0  0  0
   26.3823  -21.6293  -16.2970 C   0  0  0  0  0  0  0  0  0  0  0  0
   27.8204  -21.9080  -15.2282 S   0  0  0  0  0  0  0  0  0  0  0  0
   24.8884  -21.0591  -14.4007 C   0  0  0  0  0  0  0  0  0  0  0  0
   25.6078  -21.4105  -13.4094 O   0  0  0  0  0  0  0  0  0  0  0  0
   23.4930  -21.1862  -14.2016 N   0  0  0  0  0  0  0  0  0  0  0  0
   22.8849  -21.5383  -12.8987 C   0  0  1  0  0  0  0  0  0  0  0  0
   23.2903  -20.3560  -12.0231 C   0  0  0  0  0  0  0  0  0  0  0  0
   23.0125  -20.5172  -10.6024 C   0  0  0  0  0  0  0  0  0  0  0  0
   21.8940  -20.7392   -9.8717 C   0  0  0  0  0  0  0  0  0  0  0  0
   22.2192  -20.8225   -8.5713 N   0  0  0  0  0  0  0  0  0  0  0  0
   23.5260  -20.6611   -8.4285 C   0  0  0  0  0  0  0  0  0  0  0  0
   24.3446  -20.6709   -7.3055 C   0  0  0  0  0  0  0  0  0  0  0  0
   25.7150  -20.4887   -7.3915 C   0  0  0  0  0  0  0  0  0  0  0  0
   26.2470  -20.2944   -8.6501 C   0  0  0  0  0  0  0  0  0  0  0  0
   25.4287  -20.2845   -9.7659 C   0  0  0  0  0  0  0  0  0  0  0  0
   24.0602  -20.4674   -9.6641 C   0  0  0  0  0  0  0  0  0  0  0  0
   21.4520  -21.7192  -13.0450 C   0  0  0  0  0  0  0  0  0  0  0  0
   20.8566  -21.0737  -13.9776 O   0  0  0  0  0  0  0  0  0  0  0  0
   20.6831  -22.5182  -12.2752 O   0  0  0  0  0  0  0  0  0  0  0  0
  2  1  1  6
  2  5  1  0
  2  3  1  0
  3  4  1  0
  5  6  2  0
  7  8  1  0
  7  5  1  0
  8  9  1  1
 10  9  1  0
 11 12  2  0
 11  8  1  0
 13 11  1  0
 14 25  1  0
 14 13  1  0
 14 15  1  1
 16 15  1  0
 17 16  2  0
 18 17  1  0
 19 18  1  0
 19 24  2  0
 20 19  1  0
 21 20  2  0
 21 22  1  0
 22 23  2  0
 23 24  1  0
 24 16  1  0
 25 27  1  0
 26 25  2  0
M  END
$$$$
