CCW.pdb
     RDKit          3D

 27 28  0  0  1  0  0  0  0  0999 V2000
   25.1765  -17.3452  -20.9258 N   0  0  0  0  0  0  0  0  0  0  0  0
   24.9419  -18.7362  -20.5025 C   0  0  1  0  0  0  0  0  0  0  0  0
   26.2849  -19.3911  -20.3330 C   0  0  0  0  0  0  0  0  0  0  0  0
   26.5970  -20.4104  -21.8040 S   0  0  0  0  0  0  0  0  0  0  0  0
   24.1021  -18.7572  -19.3187 C   0  0  0  0  0  0  0  0  0  0  0  0
   24.2743  -17.8462  -18.4439 O   0  0  0  0  0  0  0  0  0  0  0  0
   23.0751  -19.7397  -19.0495 N   0  0  0  0  0  0  0  0  0  0  0  0
   22.3851  -19.6617  -17.7802 C   0  0  1  0  0  0  0  0  0  0  0  0
   20.9369  -20.0626  -18.0720 C   0  0  0  0  0  0  0  0  0  0  0  0
   20.0192  -19.9915  -16.5097 S   0  0  0  0  0  0  0  0  0  0  0  0
   22.9788  -20.4892  -16.7299 C   0  0  0  0  0  0  0  0  0  0  0  0
   23.3460  -21.6843  -16.9757 O   0  0  0  0  0  0  0  0  0  0  0  0
   23.1951  -20.0592  -15.3990 N   0  0  0  0  0  0  0  0  0  0  0  0
   23.8087  -20.9127  -14.3568 C   0  0  1  0  0  0  0  0  0  0  0  0
   24.3174  -19.8815  -13.3533 C   0  0  0  0  0  0  0  0  0  0  0  0
   25.0082  -20.4355  -12.1969 C   0  0  0  0  0  0  0  0  0  0  0  0
   26.2671  -20.8765  -11.9628 C   0  0  0  0  0  0  0  0  0  0  0  0
   26.3703  -21.2754  -10.6845 N   0  0  0  0  0  0  0  0  0  0  0  0
   25.2087  -21.1069  -10.0709 C   0  0  0  0  0  0  0  0  0  0  0  0
   24.8058  -21.3529   -8.7639 C   0  0  0  0  0  0  0  0  0  0  0  0
   23.5188  -21.0853   -8.3273 C   0  0  0  0  0  0  0  0  0  0  0  0
   22.6375  -20.5579   -9.2493 C   0  0  0  0  0  0  0  0  0  0  0  0
   23.0420  -20.3150  -10.5501 C   0  0  0  0  0  0  0  0  0  0  0  0
   24.3320  -20.5883  -10.9721 C   0  0  0  0  0  0  0  0  0  0  0  0
   22.8275  -21.8410  -13.8251 C   0  0  0  0  0  0  0  0  0  0  0  0
   21.6093  -21.4515  -13.7513 O   0  0  0  0  0  0  0  0  0  0  0  0
   23.0896  -23.0941  -13.3970 O   0  0  0  0  0  0  0  0  0  0  0  0
  2  1  1  1
  2  5  1  0
  2  3  1  0
  3  4  1  0
  5  6  2  0
  7  8  1  0
  7  5  1  0
  8  9  1  6
 10  9  1  0
 11 12  2  0
 11  8  1  0
 13 11  1  0
 14 25  1  0
 14 13  1  0
 14 15  1  1
 16 15  1  0
 17 16  2  0
 18 17  1  0
 19 18  1  0
 19 24  2  0
 20 19  1  0
 21 20  2  0
 21 22  1  0
 22 23  2  0
 23 24  1  0
 24 16  1  0
 25 27  1  0
 26 25  2  0
M  END
$$$$
