CCW.pdb
     RDKit          3D

 27 28  0  0  1  0  0  0  0  0999 V2000
   19.7639  -21.0994  -12.5411 N   0  0  0  0  0  0  0  0  0  0  0  0
   20.8979  -20.1664  -12.4277 C   0  0  1  0  0  0  0  0  0  0  0  0
   20.5722  -19.1880  -11.3332 C   0  0  0  0  0  0  0  0  0  0  0  0
   19.5273  -17.8836  -12.0454 S   0  0  0  0  0  0  0  0  0  0  0  0
   22.1302  -20.9084  -12.2320 C   0  0  0  0  0  0  0  0  0  0  0  0
   22.1939  -21.7189  -11.2503 O   0  0  0  0  0  0  0  0  0  0  0  0
   23.3038  -20.8001  -13.0708 N   0  0  0  0  0  0  0  0  0  0  0  0
   24.5092  -21.4687  -12.6312 C   0  0  1  0  0  0  0  0  0  0  0  0
   25.2659  -21.8384  -13.9094 C   0  0  0  0  0  0  0  0  0  0  0  0
   26.8933  -22.4736  -13.4230 S   0  0  0  0  0  0  0  0  0  0  0  0
   25.3322  -20.6714  -11.7217 C   0  0  0  0  0  0  0  0  0  0  0  0
   25.5573  -19.4403  -11.9613 O   0  0  0  0  0  0  0  0  0  0  0  0
   25.9291  -21.1689  -10.5388 N   0  0  0  0  0  0  0  0  0  0  0  0
   27.0094  -20.4638   -9.8127 C   0  0  1  0  0  0  0  0  0  0  0  0
   26.4955  -20.4782   -8.3758 C   0  0  0  0  0  0  0  0  0  0  0  0
   27.1445  -19.5311   -7.4796 C   0  0  0  0  0  0  0  0  0  0  0  0
   27.2647  -18.1825   -7.4469 C   0  0  0  0  0  0  0  0  0  0  0  0
   27.9708  -17.8232   -6.3625 N   0  0  0  0  0  0  0  0  0  0  0  0
   28.3181  -18.9037   -5.6797 C   0  0  0  0  0  0  0  0  0  0  0  0
   29.0337  -19.0650   -4.4995 C   0  0  0  0  0  0  0  0  0  0  0  0
   29.2740  -20.3129   -3.9486 C   0  0  0  0  0  0  0  0  0  0  0  0
   28.7703  -21.4068   -4.6228 C   0  0  0  0  0  0  0  0  0  0  0  0
   28.0588  -21.2424   -5.7982 C   0  0  0  0  0  0  0  0  0  0  0  0
   27.8271  -19.9884   -6.3371 C   0  0  0  0  0  0  0  0  0  0  0  0
   28.2756  -21.1461  -10.0089 C   0  0  0  0  0  0  0  0  0  0  0  0
   29.3508  -20.4550   -9.9222 O   0  0  0  0  0  0  0  0  0  0  0  0
   28.4208  -22.4611  -10.2775 O   0  0  0  0  0  0  0  0  0  0  0  0
  2  1  1  1
  2  5  1  0
  2  3  1  0
  3  4  1  0
  5  6  2  0
  7  8  1  0
  7  5  1  0
  8  9  1  6
 10  9  1  0
 11 12  2  0
 11  8  1  0
 13 11  1  0
 14 25  1  0
 14 13  1  0
 14 15  1  1
 16 15  1  0
 17 16  2  0
 18 17  1  0
 19 18  1  0
 19 24  2  0
 20 19  1  0
 21 20  2  0
 21 22  1  0
 22 23  2  0
 23 24  1  0
 24 16  1  0
 25 27  1  0
 26 25  2  0
M  END
$$$$
