CCW.pdb
     RDKit          3D

 27 28  0  0  1  0  0  0  0  0999 V2000
   22.7723  -12.1204  -18.6006 N   0  0  0  0  0  0  0  0  0  0  0  0
   21.7517  -11.1200  -18.9567 C   0  0  1  0  0  0  0  0  0  0  0  0
   20.4062  -11.7134  -18.6424 C   0  0  0  0  0  0  0  0  0  0  0  0
   20.0023  -12.9035  -19.9542 S   0  0  0  0  0  0  0  0  0  0  0  0
   22.0342   -9.8652  -18.2839 C   0  0  0  0  0  0  0  0  0  0  0  0
   22.5764   -9.9105  -17.1312 O   0  0  0  0  0  0  0  0  0  0  0  0
   21.7465   -8.5539  -18.8226 N   0  0  0  0  0  0  0  0  0  0  0  0
   22.1268   -7.4032  -18.0322 C   0  0  1  0  0  0  0  0  0  0  0  0
   22.2705   -6.2484  -19.0266 C   0  0  0  0  0  0  0  0  0  0  0  0
   23.7298   -6.5805  -20.0505 S   0  0  0  0  0  0  0  0  0  0  0  0
   21.1863   -7.0839  -16.9580 C   0  0  0  0  0  0  0  0  0  0  0  0
   19.9294   -7.1172  -17.1652 O   0  0  0  0  0  0  0  0  0  0  0  0
   21.5659   -6.7255  -15.6426 N   0  0  0  0  0  0  0  0  0  0  0  0
   20.5944   -6.4730  -14.5546 C   0  0  1  0  0  0  0  0  0  0  0  0
   21.3297   -7.0164  -13.3327 C   0  0  0  0  0  0  0  0  0  0  0  0
   20.5881   -6.9375  -12.0816 C   0  0  0  0  0  0  0  0  0  0  0  0
   20.5923   -6.0891  -11.0259 C   0  0  0  0  0  0  0  0  0  0  0  0
   19.6720   -6.4847  -10.1313 N   0  0  0  0  0  0  0  0  0  0  0  0
   19.0614   -7.5737  -10.5733 C   0  0  0  0  0  0  0  0  0  0  0  0
   18.0442   -8.3509  -10.0326 C   0  0  0  0  0  0  0  0  0  0  0  0
   17.5402   -9.4630  -10.6866 C   0  0  0  0  0  0  0  0  0  0  0  0
   18.0915   -9.7767  -11.9125 C   0  0  0  0  0  0  0  0  0  0  0  0
   19.1046   -9.0008  -12.4474 C   0  0  0  0  0  0  0  0  0  0  0  0
   19.5987   -7.8922  -11.7814 C   0  0  0  0  0  0  0  0  0  0  0  0
   20.2714   -5.0594  -14.4869 C   0  0  0  0  0  0  0  0  0  0  0  0
   21.1933   -4.2175  -14.7740 O   0  0  0  0  0  0  0  0  0  0  0  0
   19.0698   -4.5484  -14.1441 O   0  0  0  0  0  0  0  0  0  0  0  0
  2  1  1  1
  2  5  1  0
  2  3  1  0
  3  4  1  0
  5  6  2  0
  7  8  1  0
  7  5  1  0
  8  9  1  6
 10  9  1  0
 11 12  2  0
 11  8  1  0
 13 11  1  0
 14 25  1  0
 14 13  1  0
 14 15  1  1
 16 15  1  0
 17 16  2  0
 18 17  1  0
 19 18  1  0
 19 24  2  0
 20 19  1  0
 21 20  2  0
 21 22  1  0
 22 23  2  0
 23 24  1  0
 24 16  1  0
 25 27  1  0
 26 25  2  0
M  END
$$$$
