CCW.pdb
     RDKit          3D

 27 28  0  0  1  0  0  0  0  0999 V2000
   11.6244  -25.6275    8.8293 N   0  0  0  0  0  0  0  0  0  0  0  0
   12.8280  -26.4411    8.5870 C   0  0  1  0  0  0  0  0  0  0  0  0
   12.4226  -27.6047    7.7250 C   0  0  0  0  0  0  0  0  0  0  0  0
   11.5871  -26.9431    6.2538 S   0  0  0  0  0  0  0  0  0  0  0  0
   13.8813  -25.6113    8.0311 C   0  0  0  0  0  0  0  0  0  0  0  0
   13.5552  -24.4922    7.5153 O   0  0  0  0  0  0  0  0  0  0  0  0
   15.2859  -25.9566    8.0153 N   0  0  0  0  0  0  0  0  0  0  0  0
   16.2004  -25.0277    7.3874 C   0  0  1  0  0  0  0  0  0  0  0  0
   16.9769  -24.3743    8.5335 C   0  0  0  0  0  0  0  0  0  0  0  0
   18.1108  -23.1587    7.8090 S   0  0  0  0  0  0  0  0  0  0  0  0
   17.0930  -25.6449    6.4063 C   0  0  0  0  0  0  0  0  0  0  0  0
   17.5933  -26.7973    6.6194 O   0  0  0  0  0  0  0  0  0  0  0  0
   17.4678  -25.0482    5.1790 N   0  0  0  0  0  0  0  0  0  0  0  0
   18.4631  -25.6393    4.2563 C   0  0  1  0  0  0  0  0  0  0  0  0
   18.3761  -24.7098    3.0490 C   0  0  0  0  0  0  0  0  0  0  0  0
   18.1261  -25.3736    1.7769 C   0  0  0  0  0  0  0  0  0  0  0  0
   17.0326  -25.9062    1.1813 C   0  0  0  0  0  0  0  0  0  0  0  0
   17.3708  -26.3855   -0.0268 N   0  0  0  0  0  0  0  0  0  0  0  0
   18.6616  -26.1805   -0.2411 C   0  0  0  0  0  0  0  0  0  0  0  0
   19.4807  -26.4772   -1.3238 C   0  0  0  0  0  0  0  0  0  0  0  0
   20.8278  -26.1552   -1.3382 C   0  0  0  0  0  0  0  0  0  0  0  0
   21.3356  -25.5197   -0.2232 C   0  0  0  0  0  0  0  0  0  0  0  0
   20.5172  -25.2265    0.8533 C   0  0  0  0  0  0  0  0  0  0  0  0
   19.1723  -25.5553    0.8534 C   0  0  0  0  0  0  0  0  0  0  0  0
   19.7687  -25.6879    4.8891 C   0  0  0  0  0  0  0  0  0  0  0  0
   20.0935  -24.7276    5.6723 O   0  0  0  0  0  0  0  0  0  0  0  0
   20.6811  -26.6688    4.7228 O   0  0  0  0  0  0  0  0  0  0  0  0
  2  1  1  6
  2  5  1  0
  2  3  1  0
  3  4  1  0
  5  6  2  0
  7  8  1  0
  7  5  1  0
  8  9  1  1
 10  9  1  0
 11 12  2  0
 11  8  1  0
 13 11  1  0
 14 25  1  0
 14 13  1  0
 14 15  1  6
 16 15  1  0
 17 16  2  0
 18 17  1  0
 19 18  1  0
 19 24  2  0
 20 19  1  0
 21 20  2  0
 21 22  1  0
 22 23  2  0
 23 24  1  0
 24 16  1  0
 25 27  1  0
 26 25  2  0
M  END
$$$$
