CCW.pdb
     RDKit          3D

 27 28  0  0  1  0  0  0  0  0999 V2000
   27.1281  -19.2561  -17.3732 N   0  0  0  0  0  0  0  0  0  0  0  0
   27.5479  -18.8242  -16.0292 C   0  0  1  0  0  0  0  0  0  0  0  0
   26.6868  -17.6546  -15.6393 C   0  0  0  0  0  0  0  0  0  0  0  0
   27.6369  -16.1369  -15.9462 S   0  0  0  0  0  0  0  0  0  0  0  0
   27.4981  -19.9477  -15.1114 C   0  0  0  0  0  0  0  0  0  0  0  0
   26.4795  -20.7129  -15.1534 O   0  0  0  0  0  0  0  0  0  0  0  0
   28.5225  -20.2715  -14.1428 N   0  0  0  0  0  0  0  0  0  0  0  0
   28.1579  -21.1351  -13.0406 C   0  0  1  0  0  0  0  0  0  0  0  0
   29.4652  -21.7762  -12.5683 C   0  0  0  0  0  0  0  0  0  0  0  0
   30.5243  -20.4553  -11.9189 S   0  0  0  0  0  0  0  0  0  0  0  0
   27.4636  -20.4472  -11.9521 C   0  0  0  0  0  0  0  0  0  0  0  0
   27.5184  -19.1785  -11.8472 O   0  0  0  0  0  0  0  0  0  0  0  0
   26.6959  -21.0967  -10.9562 N   0  0  0  0  0  0  0  0  0  0  0  0
   26.1591  -20.4060   -9.7620 C   0  0  1  0  0  0  0  0  0  0  0  0
   25.1613  -19.4279  -10.3759 C   0  0  0  0  0  0  0  0  0  0  0  0
   23.9353  -20.0324  -10.8784 C   0  0  0  0  0  0  0  0  0  0  0  0
   22.8282  -20.5574  -10.3012 C   0  0  0  0  0  0  0  0  0  0  0  0
   21.9786  -20.9686  -11.2566 N   0  0  0  0  0  0  0  0  0  0  0  0
   22.4999  -20.7262  -12.4497 C   0  0  0  0  0  0  0  0  0  0  0  0
   22.0206  -20.9513  -13.7345 C   0  0  0  0  0  0  0  0  0  0  0  0
   22.7442  -20.6009  -14.8624 C   0  0  0  0  0  0  0  0  0  0  0  0
   23.9760  -20.0113  -14.6627 C   0  0  0  0  0  0  0  0  0  0  0  0
   24.4504  -19.7894  -13.3819 C   0  0  0  0  0  0  0  0  0  0  0  0
   23.7158  -20.1459  -12.2639 C   0  0  0  0  0  0  0  0  0  0  0  0
   25.5764  -21.3679   -8.8442 C   0  0  0  0  0  0  0  0  0  0  0  0
   25.1854  -20.9463   -7.6994 O   0  0  0  0  0  0  0  0  0  0  0  0
   25.4080  -22.6837   -9.0949 O   0  0  0  0  0  0  0  0  0  0  0  0
  2  1  1  6
  2  5  1  0
  2  3  1  0
  3  4  1  0
  5  6  2  0
  7  8  1  0
  7  5  1  0
  8  9  1  1
 10  9  1  0
 11 12  2  0
 11  8  1  0
 13 11  1  0
 14 25  1  0
 14 13  1  0
 14 15  1  6
 16 15  1  0
 17 16  2  0
 18 17  1  0
 19 18  1  0
 19 24  2  0
 20 19  1  0
 21 20  2  0
 21 22  1  0
 22 23  2  0
 23 24  1  0
 24 16  1  0
 25 27  1  0
 26 25  2  0
M  END
$$$$
