CCW.pdb
     RDKit          3D

 27 28  0  0  1  0  0  0  0  0999 V2000
   26.9294  -15.9014  -18.3038 N   0  0  0  0  0  0  0  0  0  0  0  0
   27.3870  -16.1942  -16.9347 C   0  0  1  0  0  0  0  0  0  0  0  0
   26.7369  -15.1966  -16.0164 C   0  0  0  0  0  0  0  0  0  0  0  0
   27.6514  -13.6331  -16.1558 S   0  0  0  0  0  0  0  0  0  0  0  0
   27.1179  -17.5834  -16.6106 C   0  0  0  0  0  0  0  0  0  0  0  0
   25.9749  -18.0600  -16.9124 O   0  0  0  0  0  0  0  0  0  0  0  0
   28.0528  -18.4791  -15.9656 N   0  0  0  0  0  0  0  0  0  0  0  0
   27.5672  -19.7798  -15.5585 C   0  0  1  0  0  0  0  0  0  0  0  0
   28.6380  -20.7785  -16.0047 C   0  0  0  0  0  0  0  0  0  0  0  0
   28.4589  -21.0171  -17.7933 S   0  0  0  0  0  0  0  0  0  0  0  0
   27.2847  -19.8866  -14.1270 C   0  0  0  0  0  0  0  0  0  0  0  0
   28.1343  -19.4850  -13.2665 O   0  0  0  0  0  0  0  0  0  0  0  0
   26.0914  -20.4206  -13.5848 N   0  0  0  0  0  0  0  0  0  0  0  0
   25.8368  -20.5341  -12.1310 C   0  0  1  0  0  0  0  0  0  0  0  0
   24.4316  -19.9526  -12.0030 C   0  0  0  0  0  0  0  0  0  0  0  0
   23.7388  -20.2817  -10.7648 C   0  0  0  0  0  0  0  0  0  0  0  0
   23.9606  -20.0235   -9.4539 C   0  0  0  0  0  0  0  0  0  0  0  0
   22.9740  -20.5629   -8.7194 N   0  0  0  0  0  0  0  0  0  0  0  0
   22.1072  -21.1698   -9.5159 C   0  0  0  0  0  0  0  0  0  0  0  0
   20.9294  -21.8585   -9.2519 C   0  0  0  0  0  0  0  0  0  0  0  0
   20.1592  -22.4138  -10.2603 C   0  0  0  0  0  0  0  0  0  0  0  0
   20.6088  -22.2566  -11.5557 C   0  0  0  0  0  0  0  0  0  0  0  0
   21.7825  -21.5709  -11.8148 C   0  0  0  0  0  0  0  0  0  0  0  0
   22.5422  -21.0218  -10.7960 C   0  0  0  0  0  0  0  0  0  0  0  0
   25.9602  -21.9165  -11.7053 C   0  0  0  0  0  0  0  0  0  0  0  0
   25.7250  -22.8345  -12.5673 O   0  0  0  0  0  0  0  0  0  0  0  0
   26.3058  -22.3239  -10.4656 O   0  0  0  0  0  0  0  0  0  0  0  0
  2  1  1  6
  2  5  1  0
  2  3  1  0
  3  4  1  0
  5  6  2  0
  7  8  1  0
  7  5  1  0
  8  9  1  1
 10  9  1  0
 11 12  2  0
 11  8  1  0
 13 11  1  0
 14 25  1  0
 14 13  1  0
 14 15  1  6
 16 15  1  0
 17 16  2  0
 18 17  1  0
 19 18  1  0
 19 24  2  0
 20 19  1  0
 21 20  2  0
 21 22  1  0
 22 23  2  0
 23 24  1  0
 24 16  1  0
 25 27  1  0
 26 25  2  0
M  END
$$$$
