CCW.pdb
     RDKit          3D

 27 28  0  0  1  0  0  0  0  0999 V2000
   23.1488   -0.7906  -19.3154 N   0  0  0  0  0  0  0  0  0  0  0  0
   22.1312   -1.8507  -19.2159 C   0  0  1  0  0  0  0  0  0  0  0  0
   21.9657   -2.4502  -20.5850 C   0  0  0  0  0  0  0  0  0  0  0  0
   20.8635   -1.3654  -21.5382 S   0  0  0  0  0  0  0  0  0  0  0  0
   22.5033   -2.7966  -18.1796 C   0  0  0  0  0  0  0  0  0  0  0  0
   23.6812   -3.2830  -18.2051 O   0  0  0  0  0  0  0  0  0  0  0  0
   21.6349   -3.2361  -17.1093 N   0  0  0  0  0  0  0  0  0  0  0  0
   22.1797   -4.1579  -16.1361 C   0  0  1  0  0  0  0  0  0  0  0  0
   21.7546   -3.6146  -14.7697 C   0  0  0  0  0  0  0  0  0  0  0  0
   22.3457   -4.7739  -13.5068 S   0  0  0  0  0  0  0  0  0  0  0  0
   21.7536   -5.5442  -16.3282 C   0  0  0  0  0  0  0  0  0  0  0  0
   20.5403   -5.8173  -16.6059 O   0  0  0  0  0  0  0  0  0  0  0  0
   22.6114   -6.6656  -16.2307 N   0  0  0  0  0  0  0  0  0  0  0  0
   22.1373   -8.0646  -16.3266 C   0  0  1  0  0  0  0  0  0  0  0  0
   23.4468   -8.8452  -16.3971 C   0  0  0  0  0  0  0  0  0  0  0  0
   23.2990  -10.2796  -16.6023 C   0  0  0  0  0  0  0  0  0  0  0  0
   23.2092  -11.0799  -17.6912 C   0  0  0  0  0  0  0  0  0  0  0  0
   23.0998  -12.3593  -17.2975 N   0  0  0  0  0  0  0  0  0  0  0  0
   23.1161  -12.4204  -15.9746 C   0  0  0  0  0  0  0  0  0  0  0  0
   23.0434  -13.4935  -15.0946 C   0  0  0  0  0  0  0  0  0  0  0  0
   23.0914  -13.3239  -13.7208 C   0  0  0  0  0  0  0  0  0  0  0  0
   23.2160  -12.0327  -13.2493 C   0  0  0  0  0  0  0  0  0  0  0  0
   23.2874  -10.9666  -14.1285 C   0  0  0  0  0  0  0  0  0  0  0  0
   23.2374  -11.1518  -15.4996 C   0  0  0  0  0  0  0  0  0  0  0  0
   21.2995   -8.3909  -15.1869 C   0  0  0  0  0  0  0  0  0  0  0  0
   21.5591   -7.8241  -14.0678 O   0  0  0  0  0  0  0  0  0  0  0  0
   20.2579   -9.2495  -15.2037 O   0  0  0  0  0  0  0  0  0  0  0  0
  2  1  1  6
  2  5  1  0
  2  3  1  0
  3  4  1  0
  5  6  2  0
  7  8  1  0
  7  5  1  0
  8  9  1  1
 10  9  1  0
 11 12  2  0
 11  8  1  0
 13 11  1  0
 14 25  1  0
 14 13  1  0
 14 15  1  1
 16 15  1  0
 17 16  2  0
 18 17  1  0
 19 18  1  0
 19 24  2  0
 20 19  1  0
 21 20  2  0
 21 22  1  0
 22 23  2  0
 23 24  1  0
 24 16  1  0
 25 27  1  0
 26 25  2  0
M  END
$$$$
