CCW.pdb
     RDKit          3D

 27 28  0  0  1  0  0  0  0  0999 V2000
   28.7048  -24.4211  -17.5398 N   0  0  0  0  0  0  0  0  0  0  0  0
   27.6808  -23.3732  -17.3888 C   0  0  1  0  0  0  0  0  0  0  0  0
   26.3374  -24.0490  -17.3878 C   0  0  0  0  0  0  0  0  0  0  0  0
   26.1704  -24.9535  -15.8212 S   0  0  0  0  0  0  0  0  0  0  0  0
   27.9604  -22.5759  -16.2085 C   0  0  0  0  0  0  0  0  0  0  0  0
   29.1732  -22.4648  -15.8322 O   0  0  0  0  0  0  0  0  0  0  0  0
   26.9624  -21.8903  -15.4170 N   0  0  0  0  0  0  0  0  0  0  0  0
   27.4251  -20.9997  -14.3748 C   0  0  1  0  0  0  0  0  0  0  0  0
   27.4103  -19.5990  -14.9920 C   0  0  0  0  0  0  0  0  0  0  0  0
   27.6120  -18.4009  -13.6458 S   0  0  0  0  0  0  0  0  0  0  0  0
   26.6338  -21.0624  -13.1459 C   0  0  0  0  0  0  0  0  0  0  0  0
   25.3626  -20.9845  -13.1883 O   0  0  0  0  0  0  0  0  0  0  0  0
   27.1805  -21.2116  -11.8491 N   0  0  0  0  0  0  0  0  0  0  0  0
   26.3762  -21.1164  -10.6100 C   0  0  1  0  0  0  0  0  0  0  0  0
   27.4445  -20.8619   -9.5503 C   0  0  0  0  0  0  0  0  0  0  0  0
   26.9336  -20.5501   -8.2225 C   0  0  0  0  0  0  0  0  0  0  0  0
   25.6976  -20.4636   -7.6757 C   0  0  0  0  0  0  0  0  0  0  0  0
   25.8059  -20.1516   -6.3739 N   0  0  0  0  0  0  0  0  0  0  0  0
   27.0846  -20.0311   -6.0503 C   0  0  0  0  0  0  0  0  0  0  0  0
   27.7129  -19.7348   -4.8468 C   0  0  0  0  0  0  0  0  0  0  0  0
   29.0918  -19.6706   -4.7321 C   0  0  0  0  0  0  0  0  0  0  0  0
   29.8308  -19.9151   -5.8718 C   0  0  0  0  0  0  0  0  0  0  0  0
   29.2017  -20.2091   -7.0687 C   0  0  0  0  0  0  0  0  0  0  0  0
   27.8221  -20.2691   -7.1679 C   0  0  0  0  0  0  0  0  0  0  0  0
   25.3845  -20.0635  -10.7339 C   0  0  0  0  0  0  0  0  0  0  0  0
   25.7503  -18.9510  -11.2531 O   0  0  0  0  0  0  0  0  0  0  0  0
   24.0949  -20.1558  -10.3457 O   0  0  0  0  0  0  0  0  0  0  0  0
  2  1  1  1
  2  5  1  0
  2  3  1  0
  3  4  1  0
  5  6  2  0
  7  8  1  0
  7  5  1  0
  8  9  1  6
 10  9  1  0
 11 12  2  0
 11  8  1  0
 13 11  1  0
 14 25  1  0
 14 13  1  0
 14 15  1  1
 16 15  1  0
 17 16  2  0
 18 17  1  0
 19 18  1  0
 19 24  2  0
 20 19  1  0
 21 20  2  0
 21 22  1  0
 22 23  2  0
 23 24  1  0
 24 16  1  0
 25 27  1  0
 26 25  2  0
M  END
$$$$
