CCW.pdb
     RDKit          3D

 27 28  0  0  1  0  0  0  0  0999 V2000
   22.2071  -19.0639  -16.9182 N   0  0  0  0  0  0  0  0  0  0  0  0
   23.4372  -19.5163  -16.2463 C   0  0  1  0  0  0  0  0  0  0  0  0
   24.5960  -18.8215  -16.9065 C   0  0  0  0  0  0  0  0  0  0  0  0
   24.8869  -19.6249  -18.5096 S   0  0  0  0  0  0  0  0  0  0  0  0
   23.3297  -19.2925  -14.8161 C   0  0  0  0  0  0  0  0  0  0  0  0
   22.6591  -18.2856  -14.4145 O   0  0  0  0  0  0  0  0  0  0  0  0
   23.9290  -20.1294  -13.7998 N   0  0  0  0  0  0  0  0  0  0  0  0
   23.4398  -19.9973  -12.4445 C   0  0  1  0  0  0  0  0  0  0  0  0
   21.9971  -20.5079  -12.4747 C   0  0  0  0  0  0  0  0  0  0  0  0
   21.3362  -20.3940  -10.7899 S   0  0  0  0  0  0  0  0  0  0  0  0
   24.2476  -20.7041  -11.4504 C   0  0  0  0  0  0  0  0  0  0  0  0
   24.4788  -21.9514  -11.5705 O   0  0  0  0  0  0  0  0  0  0  0  0
   24.8265  -20.0959  -10.3111 N   0  0  0  0  0  0  0  0  0  0  0  0
   25.6363  -20.8347   -9.3163 C   0  0  1  0  0  0  0  0  0  0  0  0
   26.7697  -19.8537   -9.0299 C   0  0  0  0  0  0  0  0  0  0  0  0
   27.9101  -20.4191   -8.3220 C   0  0  0  0  0  0  0  0  0  0  0  0
   28.9085  -21.2714   -8.6553 C   0  0  0  0  0  0  0  0  0  0  0  0
   29.7201  -21.4434   -7.5991 N   0  0  0  0  0  0  0  0  0  0  0  0
   29.2799  -20.7239   -6.5781 C   0  0  0  0  0  0  0  0  0  0  0  0
   29.7635  -20.5534   -5.2865 C   0  0  0  0  0  0  0  0  0  0  0  0
   29.1370  -19.7266   -4.3686 C   0  0  0  0  0  0  0  0  0  0  0  0
   27.9987  -19.0682   -4.7879 C   0  0  0  0  0  0  0  0  0  0  0  0
   27.5196  -19.2410   -6.0745 C   0  0  0  0  0  0  0  0  0  0  0  0
   28.1566  -20.0714   -6.9808 C   0  0  0  0  0  0  0  0  0  0  0  0
   24.8255  -21.1758   -8.1614 C   0  0  0  0  0  0  0  0  0  0  0  0
   23.7399  -20.5220   -7.9746 O   0  0  0  0  0  0  0  0  0  0  0  0
   25.1191  -22.1337   -7.2566 O   0  0  0  0  0  0  0  0  0  0  0  0
  2  1  1  6
  2  5  1  0
  2  3  1  0
  3  4  1  0
  5  6  2  0
  7  8  1  0
  7  5  1  0
  8  9  1  6
 10  9  1  0
 11 12  2  0
 11  8  1  0
 13 11  1  0
 14 25  1  0
 14 13  1  0
 14 15  1  1
 16 15  1  0
 17 16  2  0
 18 17  1  0
 19 18  1  0
 19 24  2  0
 20 19  1  0
 21 20  2  0
 21 22  1  0
 22 23  2  0
 23 24  1  0
 24 16  1  0
 25 27  1  0
 26 25  2  0
M  END
$$$$
