CCW.pdb
     RDKit          3D

 27 28  0  0  1  0  0  0  0  0999 V2000
   25.3849  -16.9691  -15.7787 N   0  0  0  0  0  0  0  0  0  0  0  0
   26.3435  -16.9009  -14.6626 C   0  0  1  0  0  0  0  0  0  0  0  0
   25.8048  -15.9159  -13.6620 C   0  0  0  0  0  0  0  0  0  0  0  0
   26.5233  -14.2904  -14.0386 S   0  0  0  0  0  0  0  0  0  0  0  0
   26.5835  -18.2320  -14.1357 C   0  0  0  0  0  0  0  0  0  0  0  0
   25.5832  -19.0073  -13.9838 O   0  0  0  0  0  0  0  0  0  0  0  0
   27.8807  -18.7543  -13.7654 N   0  0  0  0  0  0  0  0  0  0  0  0
   27.9183  -19.9769  -12.9926 C   0  0  1  0  0  0  0  0  0  0  0  0
   29.3151  -20.5627  -13.2143 C   0  0  0  0  0  0  0  0  0  0  0  0
   29.4545  -22.0570  -12.1965 S   0  0  0  0  0  0  0  0  0  0  0  0
   27.6247  -19.7902  -11.5716 C   0  0  0  0  0  0  0  0  0  0  0  0
   28.4821  -19.2526  -10.7973 O   0  0  0  0  0  0  0  0  0  0  0  0
   26.4120  -20.1700  -10.9486 N   0  0  0  0  0  0  0  0  0  0  0  0
   26.2967  -21.3200  -10.0237 C   0  0  1  0  0  0  0  0  0  0  0  0
   25.6513  -20.6834   -8.7960 C   0  0  0  0  0  0  0  0  0  0  0  0
   26.4739  -19.6975   -8.1085 C   0  0  0  0  0  0  0  0  0  0  0  0
   26.8050  -18.4054   -8.3438 C   0  0  0  0  0  0  0  0  0  0  0  0
   27.5990  -17.9609   -7.3560 N   0  0  0  0  0  0  0  0  0  0  0  0
   27.7981  -18.9298   -6.4753 C   0  0  0  0  0  0  0  0  0  0  0  0
   28.5235  -18.9719   -5.2907 C   0  0  0  0  0  0  0  0  0  0  0  0
   28.5859  -20.1112   -4.5055 C   0  0  0  0  0  0  0  0  0  0  0  0
   27.8921  -21.2196   -4.9471 C   0  0  0  0  0  0  0  0  0  0  0  0
   27.1715  -21.1742   -6.1275 C   0  0  0  0  0  0  0  0  0  0  0  0
   27.1190  -20.0280   -6.9023 C   0  0  0  0  0  0  0  0  0  0  0  0
   25.5171  -22.3809  -10.6351 C   0  0  0  0  0  0  0  0  0  0  0  0
   24.9147  -22.1262  -11.7366 O   0  0  0  0  0  0  0  0  0  0  0  0
   25.3702  -23.6276  -10.1386 O   0  0  0  0  0  0  0  0  0  0  0  0
  2  1  1  6
  2  5  1  0
  2  3  1  0
  3  4  1  0
  5  6  2  0
  7  8  1  0
  7  5  1  0
  8  9  1  1
 10  9  1  0
 11 12  2  0
 11  8  1  0
 13 11  1  0
 14 25  1  0
 14 13  1  0
 14 15  1  1
 16 15  1  0
 17 16  2  0
 18 17  1  0
 19 18  1  0
 19 24  2  0
 20 19  1  0
 21 20  2  0
 21 22  1  0
 22 23  2  0
 23 24  1  0
 24 16  1  0
 25 27  1  0
 26 25  2  0
M  END
$$$$
