CCW.pdb
     RDKit          3D

 27 28  0  0  1  0  0  0  0  0999 V2000
   28.4414  -20.6556  -17.4210 N   0  0  0  0  0  0  0  0  0  0  0  0
   27.3585  -21.3457  -16.6995 C   0  0  1  0  0  0  0  0  0  0  0  0
   27.8316  -22.7411  -16.3988 C   0  0  0  0  0  0  0  0  0  0  0  0
   29.0726  -22.6353  -15.0763 S   0  0  0  0  0  0  0  0  0  0  0  0
   26.9699  -20.5718  -15.5345 C   0  0  0  0  0  0  0  0  0  0  0  0
   27.6448  -19.5273  -15.2547 O   0  0  0  0  0  0  0  0  0  0  0  0
   25.8667  -20.8949  -14.6564 N   0  0  0  0  0  0  0  0  0  0  0  0
   25.5675  -19.9712  -13.5836 C   0  0  1  0  0  0  0  0  0  0  0  0
   24.3140  -19.2137  -14.0285 C   0  0  0  0  0  0  0  0  0  0  0  0
   24.8375  -17.5840  -14.6270 S   0  0  0  0  0  0  0  0  0  0  0  0
   25.3836  -20.6129  -12.2818 C   0  0  0  0  0  0  0  0  0  0  0  0
   24.6250  -21.6296  -12.1613 O   0  0  0  0  0  0  0  0  0  0  0  0
   26.0055  -20.1859  -11.0844 N   0  0  0  0  0  0  0  0  0  0  0  0
   25.7220  -20.7849   -9.7608 C   0  0  1  0  0  0  0  0  0  0  0  0
   26.7019  -20.0447   -8.8548 C   0  0  0  0  0  0  0  0  0  0  0  0
   26.7233  -20.4967   -7.4704 C   0  0  0  0  0  0  0  0  0  0  0  0
   26.0275  -21.4159   -6.7596 C   0  0  0  0  0  0  0  0  0  0  0  0
   26.4774  -21.4363   -5.4944 N   0  0  0  0  0  0  0  0  0  0  0  0
   27.4538  -20.5524   -5.3552 C   0  0  0  0  0  0  0  0  0  0  0  0
   28.2404  -20.2032   -4.2642 C   0  0  0  0  0  0  0  0  0  0  0  0
   29.2317  -19.2395   -4.3492 C   0  0  0  0  0  0  0  0  0  0  0  0
   29.4137  -18.6293   -5.5738 C   0  0  0  0  0  0  0  0  0  0  0  0
   28.6281  -18.9791   -6.6578 C   0  0  0  0  0  0  0  0  0  0  0  0
   27.6404  -19.9440   -6.5572 C   0  0  0  0  0  0  0  0  0  0  0  0
   24.3237  -20.6030   -9.4156 C   0  0  0  0  0  0  0  0  0  0  0  0
   23.7362  -19.5412   -9.8259 O   0  0  0  0  0  0  0  0  0  0  0  0
   23.5794  -21.4658   -8.6916 O   0  0  0  0  0  0  0  0  0  0  0  0
  2  1  1  1
  2  5  1  0
  2  3  1  0
  3  4  1  0
  5  6  2  0
  7  8  1  0
  7  5  1  0
  8  9  1  6
 10  9  1  0
 11 12  2  0
 11  8  1  0
 13 11  1  0
 14 25  1  0
 14 13  1  0
 14 15  1  1
 16 15  1  0
 17 16  2  0
 18 17  1  0
 19 18  1  0
 19 24  2  0
 20 19  1  0
 21 20  2  0
 21 22  1  0
 22 23  2  0
 23 24  1  0
 24 16  1  0
 25 27  1  0
 26 25  2  0
M  END
$$$$
