CCW.pdb
     RDKit          3D

 27 28  0  0  1  0  0  0  0  0999 V2000
   28.6170  -19.7184  -15.7569 N   0  0  0  0  0  0  0  0  0  0  0  0
   28.0560  -20.7867  -14.9123 C   0  0  1  0  0  0  0  0  0  0  0  0
   29.1990  -21.4307  -14.1773 C   0  0  0  0  0  0  0  0  0  0  0  0
   29.7070  -22.9007  -15.1161 S   0  0  0  0  0  0  0  0  0  0  0  0
   27.0134  -20.2458  -14.0595 C   0  0  0  0  0  0  0  0  0  0  0  0
   27.2606  -19.1747  -13.4142 O   0  0  0  0  0  0  0  0  0  0  0  0
   25.7027  -20.8315  -13.8814 N   0  0  0  0  0  0  0  0  0  0  0  0
   24.8241  -20.2298  -12.9018 C   0  0  1  0  0  0  0  0  0  0  0  0
   23.4446  -20.1750  -13.5630 C   0  0  0  0  0  0  0  0  0  0  0  0
   23.4743  -18.8419  -14.7919 S   0  0  0  0  0  0  0  0  0  0  0  0
   24.7877  -20.9383  -11.6224 C   0  0  0  0  0  0  0  0  0  0  0  0
   24.7975  -22.2120  -11.5858 O   0  0  0  0  0  0  0  0  0  0  0  0
   24.7428  -20.3043  -10.3579 N   0  0  0  0  0  0  0  0  0  0  0  0
   24.6059  -21.0415   -9.0815 C   0  0  1  0  0  0  0  0  0  0  0  0
   25.4089  -20.1716   -8.1185 C   0  0  0  0  0  0  0  0  0  0  0  0
   26.8288  -20.4864   -8.0413 C   0  0  0  0  0  0  0  0  0  0  0  0
   27.7038  -21.1352   -8.8461 C   0  0  0  0  0  0  0  0  0  0  0  0
   28.9234  -21.1201   -8.2839 N   0  0  0  0  0  0  0  0  0  0  0  0
   28.8723  -20.4759   -7.1279 C   0  0  0  0  0  0  0  0  0  0  0  0
   29.8504  -20.1833   -6.1851 C   0  0  0  0  0  0  0  0  0  0  0  0
   29.5703  -19.4728   -5.0295 C   0  0  0  0  0  0  0  0  0  0  0  0
   28.2665  -19.0594   -4.8445 C   0  0  0  0  0  0  0  0  0  0  0  0
   27.2951  -19.3533   -5.7851 C   0  0  0  0  0  0  0  0  0  0  0  0
   27.5903  -20.0651   -6.9353 C   0  0  0  0  0  0  0  0  0  0  0  0
   23.2041  -21.1917   -8.7354 C   0  0  0  0  0  0  0  0  0  0  0  0
   22.3506  -20.4636   -9.3538 O   0  0  0  0  0  0  0  0  0  0  0  0
   22.7155  -22.0422   -7.8079 O   0  0  0  0  0  0  0  0  0  0  0  0
  2  1  1  1
  2  5  1  0
  2  3  1  0
  3  4  1  0
  5  6  2  0
  7  8  1  0
  7  5  1  0
  8  9  1  6
 10  9  1  0
 11 12  2  0
 11  8  1  0
 13 11  1  0
 14 25  1  0
 14 13  1  0
 14 15  1  1
 16 15  1  0
 17 16  2  0
 18 17  1  0
 19 18  1  0
 19 24  2  0
 20 19  1  0
 21 20  2  0
 21 22  1  0
 22 23  2  0
 23 24  1  0
 24 16  1  0
 25 27  1  0
 26 25  2  0
M  END
$$$$
