CCW.pdb
     RDKit          3D

 27 28  0  0  1  0  0  0  0  0999 V2000
   17.1505  -25.8834  -11.3232 N   0  0  0  0  0  0  0  0  0  0  0  0
   18.2625  -26.3819  -10.4960 C   0  0  1  0  0  0  0  0  0  0  0  0
   19.2588  -25.2644  -10.3549 C   0  0  0  0  0  0  0  0  0  0  0  0
   18.4841  -23.9489   -9.3702 S   0  0  0  0  0  0  0  0  0  0  0  0
   17.7502  -26.9009   -9.2409 C   0  0  0  0  0  0  0  0  0  0  0  0
   16.5687  -26.5727   -8.8927 O   0  0  0  0  0  0  0  0  0  0  0  0
   18.4810  -27.7697   -8.3444 N   0  0  0  0  0  0  0  0  0  0  0  0
   17.8295  -28.1714   -7.1165 C   0  0  1  0  0  0  0  0  0  0  0  0
   18.4318  -29.5315   -6.7553 C   0  0  0  0  0  0  0  0  0  0  0  0
   17.6964  -30.0609   -5.1846 S   0  0  0  0  0  0  0  0  0  0  0  0
   17.9705  -27.2059   -6.0264 C   0  0  0  0  0  0  0  0  0  0  0  0
   19.0695  -26.5865   -5.8467 O   0  0  0  0  0  0  0  0  0  0  0  0
   16.9436  -26.8798   -5.1088 N   0  0  0  0  0  0  0  0  0  0  0  0
   17.1564  -26.0279   -3.9171 C   0  0  1  0  0  0  0  0  0  0  0  0
   15.7269  -25.7356   -3.4697 C   0  0  0  0  0  0  0  0  0  0  0  0
   15.5930  -24.6575   -2.4996 C   0  0  0  0  0  0  0  0  0  0  0  0
   15.7561  -23.3137   -2.5432 C   0  0  0  0  0  0  0  0  0  0  0  0
   15.4788  -22.7907   -1.3376 N   0  0  0  0  0  0  0  0  0  0  0  0
   15.1363  -23.7587   -0.5010 C   0  0  0  0  0  0  0  0  0  0  0  0
   14.7554  -23.7382    0.8353 C   0  0  0  0  0  0  0  0  0  0  0  0
   14.4226  -24.8930    1.5240 C   0  0  0  0  0  0  0  0  0  0  0  0
   14.4831  -26.0823    0.8262 C   0  0  0  0  0  0  0  0  0  0  0  0
   14.8635  -26.0989   -0.5041 C   0  0  0  0  0  0  0  0  0  0  0  0
   15.1940  -24.9362   -1.1791 C   0  0  0  0  0  0  0  0  0  0  0  0
   17.9658  -26.7282   -2.9364 C   0  0  0  0  0  0  0  0  0  0  0  0
   17.8760  -28.0050   -2.8839 O   0  0  0  0  0  0  0  0  0  0  0  0
   18.8154  -26.1444   -2.0647 O   0  0  0  0  0  0  0  0  0  0  0  0
  2  1  1  6
  2  5  1  0
  2  3  1  0
  3  4  1  0
  5  6  2  0
  7  8  1  0
  7  5  1  0
  8  9  1  1
 10  9  1  0
 11 12  2  0
 11  8  1  0
 13 11  1  0
 14 25  1  0
 14 13  1  0
 14 15  1  1
 16 15  1  0
 17 16  2  0
 18 17  1  0
 19 18  1  0
 19 24  2  0
 20 19  1  0
 21 20  2  0
 21 22  1  0
 22 23  2  0
 23 24  1  0
 24 16  1  0
 25 27  1  0
 26 25  2  0
M  END
$$$$
