WYR.pdb
     RDKit          3D

 38 40  0  0  1  0  0  0  0  0999 V2000
    7.8208  -19.9650   25.7915 N   0  0  0  0  0  0  0  0  0  0  0  0
    8.1524  -18.5676   25.7965 C   0  0  1  0  0  0  0  0  0  0  0  0
    9.2824  -18.2799   26.7260 C   0  0  0  0  0  0  0  0  0  0  0  0
    8.9808  -17.3888   27.8438 C   0  0  0  0  0  0  0  0  0  0  0  0
    8.2162  -17.6767   28.9738 C   0  0  0  0  0  0  0  0  0  0  0  0
    8.2068  -16.5723   29.7225 N   0  0  0  0  0  0  0  0  0  0  0  0
    8.9285  -15.5992   29.1201 C   0  0  0  0  0  0  0  0  0  0  0  0
    9.2376  -14.2830   29.4619 C   0  0  0  0  0  0  0  0  0  0  0  0
   10.0166  -13.4801   28.6513 C   0  0  0  0  0  0  0  0  0  0  0  0
   10.5174  -13.9667   27.4627 C   0  0  0  0  0  0  0  0  0  0  0  0
   10.2084  -15.2684   27.1301 C   0  0  0  0  0  0  0  0  0  0  0  0
    9.4301  -16.0879   27.9291 C   0  0  0  0  0  0  0  0  0  0  0  0
    8.2782  -17.9626   24.4642 C   0  0  0  0  0  0  0  0  0  0  0  0
    8.7505  -18.6685   23.5387 O   0  0  0  0  0  0  0  0  0  0  0  0
    7.8350  -12.9059   17.2923 O   0  0  0  0  0  0  0  0  0  0  0  0
    7.7168  -13.3632   18.6125 C   0  0  0  0  0  0  0  0  0  0  0  0
    8.3692  -14.5026   19.0187 C   0  0  0  0  0  0  0  0  0  0  0  0
    8.2755  -14.9801   20.3060 C   0  0  0  0  0  0  0  0  0  0  0  0
    7.4989  -14.3036   21.2488 C   0  0  0  0  0  0  0  0  0  0  0  0
    7.3764  -14.7872   22.6440 C   0  0  0  0  0  0  0  0  0  0  0  0
    8.1125  -16.0754   22.8049 C   0  0  2  0  0  0  0  0  0  0  0  0
    7.9028  -16.6310   24.1498 N   0  0  0  0  0  0  0  0  0  0  0  0
    9.5849  -15.9674   22.6266 C   0  0  0  0  0  0  0  0  0  0  0  0
   10.3284  -15.3102   23.3880 O   0  0  0  0  0  0  0  0  0  0  0  0
    6.8537  -13.1751   20.8438 C   0  0  0  0  0  0  0  0  0  0  0  0
    6.9555  -12.7038   19.5455 C   0  0  0  0  0  0  0  0  0  0  0  0
   10.5864  -22.5846   19.3111 N   0  0  0  0  0  0  0  0  0  0  0  0
    9.6334  -21.7634   19.9601 C   0  0  0  0  0  0  0  0  0  0  0  0
    8.3653  -22.0444   19.9509 N   0  0  0  0  0  0  0  0  0  0  0  0
   10.0803  -20.5959   20.6402 N   0  0  0  0  0  0  0  0  0  0  0  0
   11.5387  -20.4004   20.7079 C   0  0  0  0  0  0  0  0  0  0  0  0
   11.8153  -19.2324   21.5859 C   0  0  0  0  0  0  0  0  0  0  0  0
   12.0981  -17.9997   20.8294 C   0  0  0  0  0  0  0  0  0  0  0  0
   11.6923  -16.6951   21.4202 C   0  0  2  0  0  0  0  0  0  0  0  0
   10.2262  -16.6496   21.5288 N   0  0  0  0  0  0  0  0  0  0  0  0
   12.2098  -15.4843   20.7998 C   0  0  0  0  0  0  0  0  0  0  0  0
   13.4316  -15.2041   20.7793 O   0  0  0  0  0  0  0  0  0  0  0  0
   11.3534  -14.5752   20.1950 O   0  0  0  0  0  0  0  0  0  0  0  0
  2  1  1  6
  2  3  1  0
  3  4  1  0
  4  5  2  0
  4 12  1  0
  5  6  1  0
  6  7  1  0
  7  8  2  0
  9  8  1  0
 10  9  2  0
 11 12  2  0
 11 10  1  0
 12  7  1  0
 13 22  1  0
 13  2  1  0
 14 13  2  0
 16 15  1  0
 17 16  2  0
 18 17  1  0
 19 18  2  0
 19 25  1  0
 21 20  1  1
 20 19  1  0
 21 23  1  0
 21 22  1  0
 23 35  1  0
 24 23  2  0
 25 26  2  0
 26 16  1  0
 27 28  1  0
 28 29  2  0
 30 28  1  0
 31 30  1  0
 32 31  1  0
 34 33  1  6
 33 32  1  0
 34 35  1  0
 36 34  1  0
 37 36  2  0
 38 36  1  0
M  END
$$$$
