WYR.pdb
     RDKit          3D

 38 40  0  0  1  0  0  0  0  0999 V2000
    7.9098  -17.3709   21.1578 N   0  0  0  0  0  0  0  0  0  0  0  0
    7.4032  -16.0721   21.5032 C   0  0  1  0  0  0  0  0  0  0  0  0
    6.2769  -15.6726   20.6112 C   0  0  0  0  0  0  0  0  0  0  0  0
    6.6482  -14.9574   19.3925 C   0  0  0  0  0  0  0  0  0  0  0  0
    6.4727  -15.3806   18.0756 C   0  0  0  0  0  0  0  0  0  0  0  0
    6.9588  -14.4146   17.2939 N   0  0  0  0  0  0  0  0  0  0  0  0
    7.4338  -13.4006   18.0533 C   0  0  0  0  0  0  0  0  0  0  0  0
    8.0324  -12.1770   17.7543 C   0  0  0  0  0  0  0  0  0  0  0  0
    8.4347  -11.2985   18.7416 C   0  0  0  0  0  0  0  0  0  0  0  0
    8.2523  -11.6133   20.0713 C   0  0  0  0  0  0  0  0  0  0  0  0
    7.6603  -12.8242   20.3608 C   0  0  0  0  0  0  0  0  0  0  0  0
    7.2505  -13.7170   19.3857 C   0  0  0  0  0  0  0  0  0  0  0  0
    7.1576  -15.8712   22.9371 C   0  0  0  0  0  0  0  0  0  0  0  0
    6.3904  -14.9368   23.2783 O   0  0  0  0  0  0  0  0  0  0  0  0
   11.4033  -14.4446   30.4724 O   0  0  0  0  0  0  0  0  0  0  0  0
   10.5274  -14.8306   29.4478 C   0  0  0  0  0  0  0  0  0  0  0  0
   10.2753  -16.1602   29.2074 C   0  0  0  0  0  0  0  0  0  0  0  0
    9.4220  -16.5748   28.2105 C   0  0  0  0  0  0  0  0  0  0  0  0
    8.7791  -15.6341   27.4033 C   0  0  0  0  0  0  0  0  0  0  0  0
    7.8524  -16.0437   26.3220 C   0  0  0  0  0  0  0  0  0  0  0  0
    8.5698  -16.0614   25.0136 C   0  0  2  0  0  0  0  0  0  0  0  0
    7.7298  -16.6618   23.9669 N   0  0  0  0  0  0  0  0  0  0  0  0
    9.8394  -16.8356   25.0201 C   0  0  0  0  0  0  0  0  0  0  0  0
    9.9083  -18.0506   25.3089 O   0  0  0  0  0  0  0  0  0  0  0  0
    9.0304  -14.3177   27.6436 C   0  0  0  0  0  0  0  0  0  0  0  0
    9.8912  -13.9122   28.6499 C   0  0  0  0  0  0  0  0  0  0  0  0
   14.3157  -16.6094   18.0426 N   0  0  0  0  0  0  0  0  0  0  0  0
   14.1609  -15.6908   19.1085 C   0  0  0  0  0  0  0  0  0  0  0  0
   14.7169  -14.5172   19.0895 N   0  0  0  0  0  0  0  0  0  0  0  0
   13.3738  -16.0674   20.2328 N   0  0  0  0  0  0  0  0  0  0  0  0
   13.1932  -15.0409   21.2738 C   0  0  0  0  0  0  0  0  0  0  0  0
   12.3166  -15.6002   22.3370 C   0  0  0  0  0  0  0  0  0  0  0  0
   13.0501  -16.4324   23.3072 C   0  0  0  0  0  0  0  0  0  0  0  0
   12.3154  -16.9580   24.4903 C   0  0  2  0  0  0  0  0  0  0  0  0
   11.0789  -16.1830   24.6742 N   0  0  0  0  0  0  0  0  0  0  0  0
   13.0501  -17.0775   25.7412 C   0  0  0  0  0  0  0  0  0  0  0  0
   13.7009  -18.1043   26.0478 O   0  0  0  0  0  0  0  0  0  0  0  0
   13.0587  -16.0384   26.6610 O   0  0  0  0  0  0  0  0  0  0  0  0
  2  1  1  1
  2  3  1  0
  3  4  1  0
  4  5  2  0
  4 12  1  0
  5  6  1  0
  6  7  1  0
  7  8  2  0
  9  8  1  0
 10  9  2  0
 11 12  2  0
 11 10  1  0
 12  7  1  0
 13 22  1  0
 13  2  1  0
 14 13  2  0
 16 15  1  0
 17 16  2  0
 18 17  1  0
 19 18  2  0
 19 25  1  0
 21 20  1  1
 20 19  1  0
 21 23  1  0
 21 22  1  0
 23 35  1  0
 24 23  2  0
 25 26  2  0
 26 16  1  0
 27 28  1  0
 28 29  2  0
 30 28  1  0
 31 30  1  0
 32 31  1  0
 34 33  1  6
 33 32  1  0
 34 35  1  0
 36 34  1  0
 37 36  2  0
 38 36  1  0
M  END
$$$$
