WYR.pdb
     RDKit          3D

 38 40  0  0  1  0  0  0  0  0999 V2000
    6.9306  -18.2320   26.7966 N   0  0  0  0  0  0  0  0  0  0  0  0
    7.9553  -17.3273   26.3558 C   0  0  1  0  0  0  0  0  0  0  0  0
    9.3020  -17.7586   26.8288 C   0  0  0  0  0  0  0  0  0  0  0  0
    9.9194  -16.9201   27.8538 C   0  0  0  0  0  0  0  0  0  0  0  0
   10.2467  -17.2823   29.1599 C   0  0  0  0  0  0  0  0  0  0  0  0
   10.7844  -16.2043   29.7338 N   0  0  0  0  0  0  0  0  0  0  0  0
   10.8126  -15.1773   28.8534 C   0  0  0  0  0  0  0  0  0  0  0  0
   11.2603  -13.8588   28.9313 C   0  0  0  0  0  0  0  0  0  0  0  0
   11.1742  -12.9923   27.8589 C   0  0  0  0  0  0  0  0  0  0  0  0
   10.6342  -13.4146   26.6630 C   0  0  0  0  0  0  0  0  0  0  0  0
   10.1931  -14.7189   26.5919 C   0  0  0  0  0  0  0  0  0  0  0  0
   10.2712  -15.6017   27.6551 C   0  0  0  0  0  0  0  0  0  0  0  0
    7.8853  -16.9676   24.9337 C   0  0  0  0  0  0  0  0  0  0  0  0
    7.6286  -17.8785   24.1075 O   0  0  0  0  0  0  0  0  0  0  0  0
    7.7613  -13.1416   17.0490 O   0  0  0  0  0  0  0  0  0  0  0  0
    7.7466  -13.3572   18.4344 C   0  0  0  0  0  0  0  0  0  0  0  0
    8.8016  -12.9516   19.2164 C   0  0  0  0  0  0  0  0  0  0  0  0
    8.8207  -13.1471   20.5785 C   0  0  0  0  0  0  0  0  0  0  0  0
    7.7459  -13.7755   21.2106 C   0  0  0  0  0  0  0  0  0  0  0  0
    7.7311  -14.0010   22.6750 C   0  0  0  0  0  0  0  0  0  0  0  0
    8.1520  -15.3997   22.9810 C   0  0  2  0  0  0  0  0  0  0  0  0
    8.0893  -15.6582   24.4270 N   0  0  0  0  0  0  0  0  0  0  0  0
    9.5402  -15.7287   22.5616 C   0  0  0  0  0  0  0  0  0  0  0  0
   10.5492  -15.4967   23.2634 O   0  0  0  0  0  0  0  0  0  0  0  0
    6.7020  -14.1763   20.4338 C   0  0  0  0  0  0  0  0  0  0  0  0
    6.6937  -13.9741   19.0637 C   0  0  0  0  0  0  0  0  0  0  0  0
   13.9863  -17.3700   15.2272 N   0  0  0  0  0  0  0  0  0  0  0  0
   12.6275  -17.1066   15.5244 C   0  0  0  0  0  0  0  0  0  0  0  0
   11.8484  -16.4913   14.6869 N   0  0  0  0  0  0  0  0  0  0  0  0
   12.1030  -17.5281   16.7784 N   0  0  0  0  0  0  0  0  0  0  0  0
   10.6911  -17.1972   17.0375 C   0  0  0  0  0  0  0  0  0  0  0  0
   10.6097  -16.4694   18.3318 C   0  0  0  0  0  0  0  0  0  0  0  0
   11.0765  -17.2753   19.4741 C   0  0  0  0  0  0  0  0  0  0  0  0
   11.1400  -16.6347   20.8162 C   0  0  2  0  0  0  0  0  0  0  0  0
    9.7734  -16.3555   21.2831 N   0  0  0  0  0  0  0  0  0  0  0  0
   11.9939  -15.4654   20.9651 C   0  0  0  0  0  0  0  0  0  0  0  0
   13.1976  -15.5460   21.3062 O   0  0  0  0  0  0  0  0  0  0  0  0
   11.4985  -14.1905   20.7302 O   0  0  0  0  0  0  0  0  0  0  0  0
  2  1  1  6
  2  3  1  0
  3  4  1  0
  4  5  2  0
  4 12  1  0
  5  6  1  0
  6  7  1  0
  7  8  2  0
  9  8  1  0
 10  9  2  0
 11 12  2  0
 11 10  1  0
 12  7  1  0
 13 22  1  0
 13  2  1  0
 14 13  2  0
 16 15  1  0
 17 16  2  0
 18 17  1  0
 19 18  2  0
 19 25  1  0
 21 20  1  1
 20 19  1  0
 21 23  1  0
 21 22  1  0
 23 35  1  0
 24 23  2  0
 25 26  2  0
 26 16  1  0
 27 28  1  0
 28 29  2  0
 30 28  1  0
 31 30  1  0
 32 31  1  0
 34 33  1  6
 33 32  1  0
 34 35  1  0
 36 34  1  0
 37 36  2  0
 38 36  1  0
M  END
$$$$
