WYR.pdb
     RDKit          3D

 38 40  0  0  1  0  0  0  0  0999 V2000
    9.3190  -16.7503   20.6607 N   0  0  0  0  0  0  0  0  0  0  0  0
    9.0659  -15.7364   21.6461 C   0  0  1  0  0  0  0  0  0  0  0  0
    7.6472  -15.2792   21.6042 C   0  0  0  0  0  0  0  0  0  0  0  0
    7.3931  -13.9330   22.1121 C   0  0  0  0  0  0  0  0  0  0  0  0
    7.4677  -12.7333   21.4053 C   0  0  0  0  0  0  0  0  0  0  0  0
    7.1593  -11.7612   22.2657 N   0  0  0  0  0  0  0  0  0  0  0  0
    6.8936  -12.2884   23.4832 C   0  0  0  0  0  0  0  0  0  0  0  0
    6.5270  -11.7343   24.7093 C   0  0  0  0  0  0  0  0  0  0  0  0
    6.3074  -12.5140   25.8283 C   0  0  0  0  0  0  0  0  0  0  0  0
    6.4474  -13.8838   25.7617 C   0  0  0  0  0  0  0  0  0  0  0  0
    6.8100  -14.4259   24.5471 C   0  0  0  0  0  0  0  0  0  0  0  0
    7.0340  -13.6612   23.4153 C   0  0  0  0  0  0  0  0  0  0  0  0
    9.5769  -16.0445   22.9880 C   0  0  0  0  0  0  0  0  0  0  0  0
    9.8560  -17.2405   23.2520 O   0  0  0  0  0  0  0  0  0  0  0  0
   11.5939  -16.4441   31.4678 O   0  0  0  0  0  0  0  0  0  0  0  0
   11.1522  -15.9863   30.2183 C   0  0  0  0  0  0  0  0  0  0  0  0
   11.8904  -15.0695   29.5086 C   0  0  0  0  0  0  0  0  0  0  0  0
   11.4872  -14.5986   28.2801 C   0  0  0  0  0  0  0  0  0  0  0  0
   10.2934  -15.0509   27.7144 C   0  0  0  0  0  0  0  0  0  0  0  0
    9.8289  -14.5673   26.3930 C   0  0  0  0  0  0  0  0  0  0  0  0
   10.3475  -15.4563   25.3123 C   0  0  2  0  0  0  0  0  0  0  0  0
    9.7767  -15.0813   24.0103 N   0  0  0  0  0  0  0  0  0  0  0  0
   10.0359  -16.8980   25.5011 C   0  0  0  0  0  0  0  0  0  0  0  0
    8.9219  -17.4053   25.2440 O   0  0  0  0  0  0  0  0  0  0  0  0
    9.5640  -15.9591   28.4193 C   0  0  0  0  0  0  0  0  0  0  0  0
    9.9799  -16.4261   29.6550 C   0  0  0  0  0  0  0  0  0  0  0  0
   10.0682  -22.0730   20.3935 N   0  0  0  0  0  0  0  0  0  0  0  0
   11.4301  -22.0196   20.7758 C   0  0  0  0  0  0  0  0  0  0  0  0
   12.3556  -22.6389   20.1072 N   0  0  0  0  0  0  0  0  0  0  0  0
   11.7928  -21.2658   21.9271 N   0  0  0  0  0  0  0  0  0  0  0  0
   10.6828  -20.6733   22.6932 C   0  0  0  0  0  0  0  0  0  0  0  0
   11.2510  -19.9644   23.8705 C   0  0  0  0  0  0  0  0  0  0  0  0
   10.2939  -19.8430   24.9846 C   0  0  0  0  0  0  0  0  0  0  0  0
   10.7548  -19.2104   26.2508 C   0  0  2  0  0  0  0  0  0  0  0  0
   11.0521  -17.7917   26.0014 N   0  0  0  0  0  0  0  0  0  0  0  0
   11.8439  -19.8560   26.9690 C   0  0  0  0  0  0  0  0  0  0  0  0
   11.8431  -21.0798   27.2408 O   0  0  0  0  0  0  0  0  0  0  0  0
   12.9474  -19.1267   27.3889 O   0  0  0  0  0  0  0  0  0  0  0  0
  2  1  1  6
  2  3  1  0
  3  4  1  0
  4  5  2  0
  4 12  1  0
  5  6  1  0
  6  7  1  0
  7  8  2  0
  9  8  1  0
 10  9  2  0
 11 12  2  0
 11 10  1  0
 12  7  1  0
 13 22  1  0
 13  2  1  0
 14 13  2  0
 16 15  1  0
 17 16  2  0
 18 17  1  0
 19 18  2  0
 19 25  1  0
 21 20  1  1
 20 19  1  0
 21 23  1  0
 21 22  1  0
 23 35  1  0
 24 23  2  0
 25 26  2  0
 26 16  1  0
 27 28  1  0
 28 29  2  0
 30 28  1  0
 31 30  1  0
 32 31  1  0
 34 33  1  6
 33 32  1  0
 34 35  1  0
 36 34  1  0
 37 36  2  0
 38 36  1  0
M  END
$$$$
