WYR.pdb
     RDKit          3D

 38 40  0  0  1  0  0  0  0  0999 V2000
    6.3406  -19.2247   24.6166 N   0  0  0  0  0  0  0  0  0  0  0  0
    6.9481  -18.0141   25.0943 C   0  0  1  0  0  0  0  0  0  0  0  0
    7.2984  -18.1151   26.5402 C   0  0  0  0  0  0  0  0  0  0  0  0
    7.5328  -16.8497   27.2320 C   0  0  0  0  0  0  0  0  0  0  0  0
    6.6013  -15.8485   27.5045 C   0  0  0  0  0  0  0  0  0  0  0  0
    7.2561  -14.8799   28.1475 N   0  0  0  0  0  0  0  0  0  0  0  0
    8.5573  -15.2201   28.2946 C   0  0  0  0  0  0  0  0  0  0  0  0
    9.6541  -14.5878   28.8793 C   0  0  0  0  0  0  0  0  0  0  0  0
   10.9083  -15.1666   28.8979 C   0  0  0  0  0  0  0  0  0  0  0  0
   11.1127  -16.4055   28.3291 C   0  0  0  0  0  0  0  0  0  0  0  0
   10.0249  -17.0258   27.7525 C   0  0  0  0  0  0  0  0  0  0  0  0
    8.7610  -16.4621   27.7244 C   0  0  0  0  0  0  0  0  0  0  0  0
    8.0142  -17.4828   24.2354 C   0  0  0  0  0  0  0  0  0  0  0  0
    8.2547  -18.0803   23.1568 O   0  0  0  0  0  0  0  0  0  0  0  0
    5.1335  -12.1382   26.4297 O   0  0  0  0  0  0  0  0  0  0  0  0
    6.2817  -12.6471   25.8064 C   0  0  0  0  0  0  0  0  0  0  0  0
    6.2230  -13.1326   24.5219 C   0  0  0  0  0  0  0  0  0  0  0  0
    7.3296  -13.6394   23.8797 C   0  0  0  0  0  0  0  0  0  0  0  0
    8.5636  -13.6728   24.5324 C   0  0  0  0  0  0  0  0  0  0  0  0
    9.7765  -14.2094   23.8717 C   0  0  0  0  0  0  0  0  0  0  0  0
    9.5671  -15.6403   23.5032 C   0  0  2  0  0  0  0  0  0  0  0  0
    8.7944  -16.3380   24.5413 N   0  0  0  0  0  0  0  0  0  0  0  0
   10.8218  -16.4189   23.3277 C   0  0  0  0  0  0  0  0  0  0  0  0
   11.0760  -17.4728   23.9514 O   0  0  0  0  0  0  0  0  0  0  0  0
    8.6191  -13.1912   25.8047 C   0  0  0  0  0  0  0  0  0  0  0  0
    7.4986  -12.6834   26.4410 C   0  0  0  0  0  0  0  0  0  0  0  0
    6.9179  -15.5621   17.1377 N   0  0  0  0  0  0  0  0  0  0  0  0
    7.9564  -14.6467   17.4334 C   0  0  0  0  0  0  0  0  0  0  0  0
    7.8395  -13.3754   17.1948 N   0  0  0  0  0  0  0  0  0  0  0  0
    9.1631  -15.1366   18.0073 N   0  0  0  0  0  0  0  0  0  0  0  0
    9.1895  -16.5713   18.3404 C   0  0  0  0  0  0  0  0  0  0  0  0
   10.5053  -16.8852   18.9583 C   0  0  0  0  0  0  0  0  0  0  0  0
   10.6217  -16.3927   20.3425 C   0  0  0  0  0  0  0  0  0  0  0  0
   11.9219  -16.5582   21.0481 C   0  0  2  0  0  0  0  0  0  0  0  0
   11.8214  -15.9663   22.3908 N   0  0  0  0  0  0  0  0  0  0  0  0
   13.1230  -16.1033   20.3631 C   0  0  0  0  0  0  0  0  0  0  0  0
   13.5324  -16.6234   19.2984 O   0  0  0  0  0  0  0  0  0  0  0  0
   13.8763  -15.0551   20.8726 O   0  0  0  0  0  0  0  0  0  0  0  0
  2  1  1  6
  2  3  1  0
  3  4  1  0
  4  5  2  0
  4 12  1  0
  5  6  1  0
  6  7  1  0
  7  8  2  0
  9  8  1  0
 10  9  2  0
 11 12  2  0
 11 10  1  0
 12  7  1  0
 13 22  1  0
 13  2  1  0
 14 13  2  0
 16 15  1  0
 17 16  2  0
 18 17  1  0
 19 18  2  0
 19 25  1  0
 21 20  1  1
 20 19  1  0
 21 23  1  0
 21 22  1  0
 23 35  1  0
 24 23  2  0
 25 26  2  0
 26 16  1  0
 27 28  1  0
 28 29  2  0
 30 28  1  0
 31 30  1  0
 32 31  1  0
 34 33  1  6
 33 32  1  0
 34 35  1  0
 36 34  1  0
 37 36  2  0
 38 36  1  0
M  END
$$$$
