WYR.pdb
     RDKit          3D

 38 40  0  0  1  0  0  0  0  0999 V2000
   10.9130  -15.1803   20.3592 N   0  0  0  0  0  0  0  0  0  0  0  0
    9.8156  -15.2410   21.2837 C   0  0  1  0  0  0  0  0  0  0  0  0
    8.7289  -16.1297   20.7806 C   0  0  0  0  0  0  0  0  0  0  0  0
    7.8583  -15.5590   19.7555 C   0  0  0  0  0  0  0  0  0  0  0  0
    6.9017  -16.2251   18.9903 C   0  0  0  0  0  0  0  0  0  0  0  0
    6.3521  -15.3142   18.1850 N   0  0  0  0  0  0  0  0  0  0  0  0
    6.9154  -14.1036   18.4037 C   0  0  0  0  0  0  0  0  0  0  0  0
    6.7169  -12.8390   17.8504 C   0  0  0  0  0  0  0  0  0  0  0  0
    7.4415  -11.7377   18.2633 C   0  0  0  0  0  0  0  0  0  0  0  0
    8.3965  -11.8615   19.2497 C   0  0  0  0  0  0  0  0  0  0  0  0
    8.5884  -13.1140   19.7928 C   0  0  0  0  0  0  0  0  0  0  0  0
    7.8722  -14.2288   19.3926 C   0  0  0  0  0  0  0  0  0  0  0  0
   10.2035  -15.4691   22.6817 C   0  0  0  0  0  0  0  0  0  0  0  0
   11.3334  -15.9704   22.9053 O   0  0  0  0  0  0  0  0  0  0  0  0
   10.7457  -15.7188   31.4616 O   0  0  0  0  0  0  0  0  0  0  0  0
   10.2928  -15.4866   30.1551 C   0  0  0  0  0  0  0  0  0  0  0  0
   10.6093  -14.3191   29.5025 C   0  0  0  0  0  0  0  0  0  0  0  0
   10.1820  -14.0581   28.2207 C   0  0  0  0  0  0  0  0  0  0  0  0
    9.4004  -14.9933   27.5393 C   0  0  0  0  0  0  0  0  0  0  0  0
    8.9241  -14.7471   26.1579 C   0  0  0  0  0  0  0  0  0  0  0  0
    9.8736  -15.3473   25.1754 C   0  0  2  0  0  0  0  0  0  0  0  0
    9.3868  -15.1622   23.8005 N   0  0  0  0  0  0  0  0  0  0  0  0
   10.0897  -16.8088   25.3446 C   0  0  0  0  0  0  0  0  0  0  0  0
    9.2976  -17.6796   24.9220 O   0  0  0  0  0  0  0  0  0  0  0  0
    9.0885  -16.1491   28.1879 C   0  0  0  0  0  0  0  0  0  0  0  0
    9.5243  -16.4010   29.4781 C   0  0  0  0  0  0  0  0  0  0  0  0
   15.0672  -21.8182   21.5257 N   0  0  0  0  0  0  0  0  0  0  0  0
   14.7462  -22.7247   22.5645 C   0  0  0  0  0  0  0  0  0  0  0  0
   15.0612  -23.9830   22.4993 N   0  0  0  0  0  0  0  0  0  0  0  0
   14.0571  -22.2407   23.7118 N   0  0  0  0  0  0  0  0  0  0  0  0
   13.6436  -20.8273   23.6743 C   0  0  0  0  0  0  0  0  0  0  0  0
   12.8607  -20.5348   24.9044 C   0  0  0  0  0  0  0  0  0  0  0  0
   12.3609  -19.1491   24.9510 C   0  0  0  0  0  0  0  0  0  0  0  0
   11.5537  -18.7246   26.1274 C   0  0  2  0  0  0  0  0  0  0  0  0
   11.2700  -17.2851   26.0242 N   0  0  0  0  0  0  0  0  0  0  0  0
   12.0581  -19.0661   27.4494 C   0  0  0  0  0  0  0  0  0  0  0  0
   12.5035  -18.2066   28.2460 O   0  0  0  0  0  0  0  0  0  0  0  0
   12.0654  -20.3828   27.8876 O   0  0  0  0  0  0  0  0  0  0  0  0
  2  1  1  6
  2  3  1  0
  3  4  1  0
  4  5  2  0
  4 12  1  0
  5  6  1  0
  6  7  1  0
  7  8  2  0
  9  8  1  0
 10  9  2  0
 11 12  2  0
 11 10  1  0
 12  7  1  0
 13 22  1  0
 13  2  1  0
 14 13  2  0
 16 15  1  0
 17 16  2  0
 18 17  1  0
 19 18  2  0
 19 25  1  0
 21 20  1  1
 20 19  1  0
 21 23  1  0
 21 22  1  0
 23 35  1  0
 24 23  2  0
 25 26  2  0
 26 16  1  0
 27 28  1  0
 28 29  2  0
 30 28  1  0
 31 30  1  0
 32 31  1  0
 34 33  1  6
 33 32  1  0
 34 35  1  0
 36 34  1  0
 37 36  2  0
 38 36  1  0
M  END
$$$$
