WYR.pdb
     RDKit          3D

 38 40  0  0  1  0  0  0  0  0999 V2000
    8.0063  -16.4411   21.2810 N   0  0  0  0  0  0  0  0  0  0  0  0
    8.8747  -15.3370   21.5804 C   0  0  1  0  0  0  0  0  0  0  0  0
    8.1480  -14.0371   21.5044 C   0  0  0  0  0  0  0  0  0  0  0  0
    7.3542  -13.8170   20.2977 C   0  0  0  0  0  0  0  0  0  0  0  0
    5.9673  -13.8873   20.1720 C   0  0  0  0  0  0  0  0  0  0  0  0
    5.6834  -13.6182   18.8964 N   0  0  0  0  0  0  0  0  0  0  0  0
    6.8243  -13.3814   18.2087 C   0  0  0  0  0  0  0  0  0  0  0  0
    7.0937  -13.0591   16.8790 C   0  0  0  0  0  0  0  0  0  0  0  0
    8.3817  -12.8620   16.4203 C   0  0  0  0  0  0  0  0  0  0  0  0
    9.4534  -12.9808   17.2792 C   0  0  0  0  0  0  0  0  0  0  0  0
    9.1810  -13.2997   18.5925 C   0  0  0  0  0  0  0  0  0  0  0  0
    7.8977  -13.5006   19.0706 C   0  0  0  0  0  0  0  0  0  0  0  0
    9.7003  -15.5145   22.7819 C   0  0  0  0  0  0  0  0  0  0  0  0
   10.7225  -14.7949   22.9061 O   0  0  0  0  0  0  0  0  0  0  0  0
   11.0779  -15.3993   31.3607 O   0  0  0  0  0  0  0  0  0  0  0  0
   10.5839  -15.4266   30.0487 C   0  0  0  0  0  0  0  0  0  0  0  0
   10.8805  -14.4132   29.1688 C   0  0  0  0  0  0  0  0  0  0  0  0
   10.4128  -14.4075   27.8746 C   0  0  0  0  0  0  0  0  0  0  0  0
    9.6092  -15.4533   27.4160 C   0  0  0  0  0  0  0  0  0  0  0  0
    9.0894  -15.4814   26.0287 C   0  0  0  0  0  0  0  0  0  0  0  0
    9.9947  -16.2894   25.1600 C   0  0  2  0  0  0  0  0  0  0  0  0
    9.4226  -16.4466   23.8148 N   0  0  0  0  0  0  0  0  0  0  0  0
   10.2595  -17.6645   25.6605 C   0  0  0  0  0  0  0  0  0  0  0  0
    9.3586  -18.4664   25.9917 O   0  0  0  0  0  0  0  0  0  0  0  0
    9.3170  -16.4559   28.2896 C   0  0  0  0  0  0  0  0  0  0  0  0
    9.7935  -16.4511   29.5900 C   0  0  0  0  0  0  0  0  0  0  0  0
   14.4143  -17.8991   22.3134 N   0  0  0  0  0  0  0  0  0  0  0  0
   14.1741  -18.9935   21.4482 C   0  0  0  0  0  0  0  0  0  0  0  0
   13.9486  -18.8292   20.1798 N   0  0  0  0  0  0  0  0  0  0  0  0
   14.1791  -20.3107   21.9870 N   0  0  0  0  0  0  0  0  0  0  0  0
   14.3141  -20.4147   23.4502 C   0  0  0  0  0  0  0  0  0  0  0  0
   13.0730  -19.8847   24.0747 C   0  0  0  0  0  0  0  0  0  0  0  0
   13.0433  -20.0659   25.5370 C   0  0  0  0  0  0  0  0  0  0  0  0
   11.9100  -19.4783   26.3025 C   0  0  2  0  0  0  0  0  0  0  0  0
   11.6182  -18.1353   25.7784 N   0  0  0  0  0  0  0  0  0  0  0  0
   12.0132  -19.4634   27.7543 C   0  0  0  0  0  0  0  0  0  0  0  0
   11.4653  -20.3264   28.4801 O   0  0  0  0  0  0  0  0  0  0  0  0
   12.7370  -18.4736   28.4040 O   0  0  0  0  0  0  0  0  0  0  0  0
  2  1  1  1
  2  3  1  0
  3  4  1  0
  4  5  2  0
  4 12  1  0
  5  6  1  0
  6  7  1  0
  7  8  2  0
  9  8  1  0
 10  9  2  0
 11 12  2  0
 11 10  1  0
 12  7  1  0
 13 22  1  0
 13  2  1  0
 14 13  2  0
 16 15  1  0
 17 16  2  0
 18 17  1  0
 19 18  2  0
 19 25  1  0
 21 20  1  1
 20 19  1  0
 21 23  1  0
 21 22  1  0
 23 35  1  0
 24 23  2  0
 25 26  2  0
 26 16  1  0
 27 28  1  0
 28 29  2  0
 30 28  1  0
 31 30  1  0
 32 31  1  0
 34 33  1  6
 33 32  1  0
 34 35  1  0
 36 34  1  0
 37 36  2  0
 38 36  1  0
M  END
$$$$
