WYR.pdb
     RDKit          3D

 38 40  0  0  1  0  0  0  0  0999 V2000
    7.7165  -16.8706   20.1856 N   0  0  0  0  0  0  0  0  0  0  0  0
    8.1861  -16.1526   21.3375 C   0  0  1  0  0  0  0  0  0  0  0  0
    7.0615  -15.7847   22.2450 C   0  0  0  0  0  0  0  0  0  0  0  0
    6.7742  -14.3570   22.3621 C   0  0  0  0  0  0  0  0  0  0  0  0
    6.4598  -13.4695   21.3336 C   0  0  0  0  0  0  0  0  0  0  0  0
    6.2801  -12.2745   21.8994 N   0  0  0  0  0  0  0  0  0  0  0  0
    6.4662  -12.3633   23.2366 C   0  0  0  0  0  0  0  0  0  0  0  0
    6.4009  -11.4380   24.2779 C   0  0  0  0  0  0  0  0  0  0  0  0
    6.6385  -11.7959   25.5908 C   0  0  0  0  0  0  0  0  0  0  0  0
    6.9520  -13.0993   25.9122 C   0  0  0  0  0  0  0  0  0  0  0  0
    7.0152  -14.0095   24.8787 C   0  0  0  0  0  0  0  0  0  0  0  0
    6.7802  -13.6700   23.5576 C   0  0  0  0  0  0  0  0  0  0  0  0
    9.3471  -16.7558   22.0046 C   0  0  0  0  0  0  0  0  0  0  0  0
    9.5416  -17.9872   21.8498 O   0  0  0  0  0  0  0  0  0  0  0  0
   14.6280  -15.2782   17.9657 O   0  0  0  0  0  0  0  0  0  0  0  0
   14.1331  -15.3803   19.2736 C   0  0  0  0  0  0  0  0  0  0  0  0
   14.5184  -16.4185   20.0879 C   0  0  0  0  0  0  0  0  0  0  0  0
   14.0527  -16.5500   21.3761 C   0  0  0  0  0  0  0  0  0  0  0  0
   13.1589  -15.6118   21.8965 C   0  0  0  0  0  0  0  0  0  0  0  0
   12.6382  -15.7203   23.2795 C   0  0  0  0  0  0  0  0  0  0  0  0
   11.4927  -16.6758   23.3208 C   0  0  2  0  0  0  0  0  0  0  0  0
   10.2664  -16.0414   22.8154 N   0  0  0  0  0  0  0  0  0  0  0  0
   11.1659  -17.1839   24.6796 C   0  0  0  0  0  0  0  0  0  0  0  0
   10.5351  -16.5224   25.5334 O   0  0  0  0  0  0  0  0  0  0  0  0
   12.7789  -14.5844   21.0880 C   0  0  0  0  0  0  0  0  0  0  0  0
   13.2544  -14.4621   19.7929 C   0  0  0  0  0  0  0  0  0  0  0  0
   13.7061  -21.9795   23.3676 N   0  0  0  0  0  0  0  0  0  0  0  0
   12.6937  -22.8484   22.8946 C   0  0  0  0  0  0  0  0  0  0  0  0
   12.6815  -23.2870   21.6721 N   0  0  0  0  0  0  0  0  0  0  0  0
   11.6597  -23.2504   23.7861 N   0  0  0  0  0  0  0  0  0  0  0  0
   11.7069  -22.6722   25.1401 C   0  0  0  0  0  0  0  0  0  0  0  0
   11.3143  -21.2405   25.0528 C   0  0  0  0  0  0  0  0  0  0  0  0
   11.3887  -20.5446   26.3498 C   0  0  0  0  0  0  0  0  0  0  0  0
   11.2010  -19.0682   26.3751 C   0  0  2  0  0  0  0  0  0  0  0  0
   11.5788  -18.5109   25.0674 N   0  0  0  0  0  0  0  0  0  0  0  0
   11.8269  -18.3279   27.4610 C   0  0  0  0  0  0  0  0  0  0  0  0
   11.2154  -18.0231   28.5121 O   0  0  0  0  0  0  0  0  0  0  0  0
   13.1513  -17.9231   27.3727 O   0  0  0  0  0  0  0  0  0  0  0  0
  2  1  1  6
  2  3  1  0
  3  4  1  0
  4  5  2  0
  4 12  1  0
  5  6  1  0
  6  7  1  0
  7  8  2  0
  9  8  1  0
 10  9  2  0
 11 12  2  0
 11 10  1  0
 12  7  1  0
 13 22  1  0
 13  2  1  0
 14 13  2  0
 16 15  1  0
 17 16  2  0
 18 17  1  0
 19 18  2  0
 19 25  1  0
 21 20  1  1
 20 19  1  0
 21 23  1  0
 21 22  1  0
 23 35  1  0
 24 23  2  0
 25 26  2  0
 26 16  1  0
 27 28  1  0
 28 29  2  0
 30 28  1  0
 31 30  1  0
 32 31  1  0
 34 33  1  6
 33 32  1  0
 34 35  1  0
 36 34  1  0
 37 36  2  0
 38 36  1  0
M  END
$$$$
