WYR.pdb
     RDKit          3D

 38 40  0  0  1  0  0  0  0  0999 V2000
    8.9192  -17.7172   21.1102 N   0  0  0  0  0  0  0  0  0  0  0  0
    9.5370  -16.6871   21.8976 C   0  0  1  0  0  0  0  0  0  0  0  0
    8.5542  -16.0382   22.8122 C   0  0  0  0  0  0  0  0  0  0  0  0
    7.3970  -15.4172   22.1719 C   0  0  0  0  0  0  0  0  0  0  0  0
    6.0520  -15.7273   22.3698 C   0  0  0  0  0  0  0  0  0  0  0  0
    5.3502  -14.9138   21.5785 N   0  0  0  0  0  0  0  0  0  0  0  0
    6.1867  -14.1042   20.8892 C   0  0  0  0  0  0  0  0  0  0  0  0
    5.9858  -13.0927   19.9504 C   0  0  0  0  0  0  0  0  0  0  0  0
    7.0384  -12.3998   19.3846 C   0  0  0  0  0  0  0  0  0  0  0  0
    8.3377  -12.6950   19.7385 C   0  0  0  0  0  0  0  0  0  0  0  0
    8.5302  -13.6959   20.6668 C   0  0  0  0  0  0  0  0  0  0  0  0
    7.4885  -14.4007   21.2448 C   0  0  0  0  0  0  0  0  0  0  0  0
   10.8057  -17.0747   22.5276 C   0  0  0  0  0  0  0  0  0  0  0  0
   11.1362  -18.2861   22.4902 O   0  0  0  0  0  0  0  0  0  0  0  0
    9.8669  -14.5365   30.5907 O   0  0  0  0  0  0  0  0  0  0  0  0
    9.9382  -14.7987   29.2151 C   0  0  0  0  0  0  0  0  0  0  0  0
   10.8815  -14.1764   28.4327 C   0  0  0  0  0  0  0  0  0  0  0  0
   10.9800  -14.4098   27.0801 C   0  0  0  0  0  0  0  0  0  0  0  0
   10.1052  -15.3030   26.4583 C   0  0  0  0  0  0  0  0  0  0  0  0
   10.1830  -15.5803   25.0048 C   0  0  0  0  0  0  0  0  0  0  0  0
   11.5861  -15.9159   24.6230 C   0  0  2  0  0  0  0  0  0  0  0  0
   11.6859  -16.1725   23.1787 N   0  0  0  0  0  0  0  0  0  0  0  0
   12.1335  -17.1233   25.2966 C   0  0  0  0  0  0  0  0  0  0  0  0
   13.2584  -17.1621   25.8420 O   0  0  0  0  0  0  0  0  0  0  0  0
    9.1718  -15.9182   27.2355 C   0  0  0  0  0  0  0  0  0  0  0  0
    9.0821  -15.6756   28.5961 C   0  0  0  0  0  0  0  0  0  0  0  0
    6.4610  -23.3972   26.7758 N   0  0  0  0  0  0  0  0  0  0  0  0
    6.2689  -22.0332   27.1020 C   0  0  0  0  0  0  0  0  0  0  0  0
    5.3509  -21.6498   27.9370 N   0  0  0  0  0  0  0  0  0  0  0  0
    7.1063  -21.0557   26.4949 N   0  0  0  0  0  0  0  0  0  0  0  0
    8.4907  -21.4711   26.2105 C   0  0  0  0  0  0  0  0  0  0  0  0
    9.3692  -20.2753   26.3104 C   0  0  0  0  0  0  0  0  0  0  0  0
   10.7839  -20.5770   26.0281 C   0  0  0  0  0  0  0  0  0  0  0  0
   11.7831  -19.4815   26.1584 C   0  0  2  0  0  0  0  0  0  0  0  0
   11.3492  -18.3333   25.3480 N   0  0  0  0  0  0  0  0  0  0  0  0
   13.1781  -19.8076   25.9008 C   0  0  0  0  0  0  0  0  0  0  0  0
   14.0403  -19.8556   26.8096 O   0  0  0  0  0  0  0  0  0  0  0  0
   13.6160  -20.0838   24.6132 O   0  0  0  0  0  0  0  0  0  0  0  0
  2  1  1  1
  2  3  1  0
  3  4  1  0
  4  5  2  0
  4 12  1  0
  5  6  1  0
  6  7  1  0
  7  8  2  0
  9  8  1  0
 10  9  2  0
 11 12  2  0
 11 10  1  0
 12  7  1  0
 13 22  1  0
 13  2  1  0
 14 13  2  0
 16 15  1  0
 17 16  2  0
 18 17  1  0
 19 18  2  0
 19 25  1  0
 21 20  1  1
 20 19  1  0
 21 23  1  0
 21 22  1  0
 23 35  1  0
 24 23  2  0
 25 26  2  0
 26 16  1  0
 27 28  1  0
 28 29  2  0
 30 28  1  0
 31 30  1  0
 32 31  1  0
 34 33  1  6
 33 32  1  0
 34 35  1  0
 36 34  1  0
 37 36  2  0
 38 36  1  0
M  END
$$$$
