WYR.pdb
     RDKit          3D

 38 40  0  0  1  0  0  0  0  0999 V2000
    7.3109  -15.3537   21.1130 N   0  0  0  0  0  0  0  0  0  0  0  0
    8.6966  -14.9762   21.1046 C   0  0  1  0  0  0  0  0  0  0  0  0
    8.9199  -13.7439   20.2953 C   0  0  0  0  0  0  0  0  0  0  0  0
    8.1432  -13.6382   19.0623 C   0  0  0  0  0  0  0  0  0  0  0  0
    7.0889  -12.7648   18.7980 C   0  0  0  0  0  0  0  0  0  0  0  0
    6.6802  -13.0219   17.5541 N   0  0  0  0  0  0  0  0  0  0  0  0
    7.4251  -14.0166   17.0189 C   0  0  0  0  0  0  0  0  0  0  0  0
    7.4218  -14.6578   15.7805 C   0  0  0  0  0  0  0  0  0  0  0  0
    8.3130  -15.6689   15.4777 C   0  0  0  0  0  0  0  0  0  0  0  0
    9.2449  -16.0782   16.4073 C   0  0  0  0  0  0  0  0  0  0  0  0
    9.2434  -15.4409   17.6297 C   0  0  0  0  0  0  0  0  0  0  0  0
    8.3589  -14.4259   17.9514 C   0  0  0  0  0  0  0  0  0  0  0  0
    9.3394  -14.9738   22.4251 C   0  0  0  0  0  0  0  0  0  0  0  0
   10.5623  -14.6925   22.4846 O   0  0  0  0  0  0  0  0  0  0  0  0
   11.2477  -15.4581   30.9985 O   0  0  0  0  0  0  0  0  0  0  0  0
   10.5985  -15.2724   29.7697 C   0  0  0  0  0  0  0  0  0  0  0  0
   10.8290  -14.1433   29.0207 C   0  0  0  0  0  0  0  0  0  0  0  0
   10.2094  -13.9284   27.8108 C   0  0  0  0  0  0  0  0  0  0  0  0
    9.3133  -14.8727   27.3058 C   0  0  0  0  0  0  0  0  0  0  0  0
    8.6294  -14.6758   26.0062 C   0  0  0  0  0  0  0  0  0  0  0  0
    9.4027  -15.3395   24.9160 C   0  0  2  0  0  0  0  0  0  0  0  0
    8.6724  -15.2693   23.6419 N   0  0  0  0  0  0  0  0  0  0  0  0
    9.6844  -16.7803   25.1527 C   0  0  0  0  0  0  0  0  0  0  0  0
    8.7955  -17.6576   25.2217 O   0  0  0  0  0  0  0  0  0  0  0  0
    9.0868  -15.9903   28.0496 C   0  0  0  0  0  0  0  0  0  0  0  0
    9.7163  -16.1960   29.2660 C   0  0  0  0  0  0  0  0  0  0  0  0
   13.7520  -17.2286   20.7941 N   0  0  0  0  0  0  0  0  0  0  0  0
   12.7607  -17.9850   20.1238 C   0  0  0  0  0  0  0  0  0  0  0  0
   12.3115  -17.6442   18.9537 N   0  0  0  0  0  0  0  0  0  0  0  0
   12.2422  -19.1513   20.7532 N   0  0  0  0  0  0  0  0  0  0  0  0
   12.7560  -19.4459   22.1019 C   0  0  0  0  0  0  0  0  0  0  0  0
   11.7768  -18.9364   23.0985 C   0  0  0  0  0  0  0  0  0  0  0  0
   12.1918  -19.1856   24.4905 C   0  0  0  0  0  0  0  0  0  0  0  0
   11.3510  -18.6395   25.5907 C   0  0  2  0  0  0  0  0  0  0  0  0
   11.0468  -17.2279   25.3109 N   0  0  0  0  0  0  0  0  0  0  0  0
   11.8301  -18.8122   26.9543 C   0  0  0  0  0  0  0  0  0  0  0  0
   11.5542  -19.8211   27.6454 O   0  0  0  0  0  0  0  0  0  0  0  0
   12.6271  -17.8471   27.5538 O   0  0  0  0  0  0  0  0  0  0  0  0
  2  1  1  1
  2  3  1  0
  3  4  1  0
  4  5  2  0
  4 12  1  0
  5  6  1  0
  6  7  1  0
  7  8  2  0
  9  8  1  0
 10  9  2  0
 11 12  2  0
 11 10  1  0
 12  7  1  0
 13 22  1  0
 13  2  1  0
 14 13  2  0
 16 15  1  0
 17 16  2  0
 18 17  1  0
 19 18  2  0
 19 25  1  0
 21 20  1  1
 20 19  1  0
 21 23  1  0
 21 22  1  0
 23 35  1  0
 24 23  2  0
 25 26  2  0
 26 16  1  0
 27 28  1  0
 28 29  2  0
 30 28  1  0
 31 30  1  0
 32 31  1  0
 34 33  1  6
 33 32  1  0
 34 35  1  0
 36 34  1  0
 37 36  2  0
 38 36  1  0
M  END
$$$$
