WYR.pdb
     RDKit          3D

 38 40  0  0  1  0  0  0  0  0999 V2000
    6.9391  -16.5115   22.8697 N   0  0  0  0  0  0  0  0  0  0  0  0
    7.8671  -15.6144   22.2398 C   0  0  1  0  0  0  0  0  0  0  0  0
    7.7969  -14.2505   22.8383 C   0  0  0  0  0  0  0  0  0  0  0  0
    7.1112  -14.1504   24.1247 C   0  0  0  0  0  0  0  0  0  0  0  0
    6.6258  -15.1960   24.9090 C   0  0  0  0  0  0  0  0  0  0  0  0
    6.0747  -14.6410   25.9901 N   0  0  0  0  0  0  0  0  0  0  0  0
    6.1879  -13.2942   25.9271 C   0  0  0  0  0  0  0  0  0  0  0  0
    5.7939  -12.2577   26.7728 C   0  0  0  0  0  0  0  0  0  0  0  0
    6.0379  -10.9324   26.4688 C   0  0  0  0  0  0  0  0  0  0  0  0
    6.6881  -10.5933   25.3015 C   0  0  0  0  0  0  0  0  0  0  0  0
    7.0750  -11.6221   24.4694 C   0  0  0  0  0  0  0  0  0  0  0  0
    6.8398  -12.9554   24.7569 C   0  0  0  0  0  0  0  0  0  0  0  0
    9.2250  -16.1502   22.0794 C   0  0  0  0  0  0  0  0  0  0  0  0
    9.8825  -15.7965   21.0691 O   0  0  0  0  0  0  0  0  0  0  0  0
   12.7536  -15.7113   30.0885 O   0  0  0  0  0  0  0  0  0  0  0  0
   11.9971  -15.9378   28.9299 C   0  0  0  0  0  0  0  0  0  0  0  0
   11.6654  -17.2165   28.5502 C   0  0  0  0  0  0  0  0  0  0  0  0
   10.9248  -17.4754   27.4197 C   0  0  0  0  0  0  0  0  0  0  0  0
   10.4840  -16.4227   26.6152 C   0  0  0  0  0  0  0  0  0  0  0  0
    9.6832  -16.6636   25.3920 C   0  0  0  0  0  0  0  0  0  0  0  0
   10.5505  -16.5514   24.1829 C   0  0  2  0  0  0  0  0  0  0  0  0
    9.8470  -17.0435   22.9894 N   0  0  0  0  0  0  0  0  0  0  0  0
   11.8188  -17.3235   24.2634 C   0  0  0  0  0  0  0  0  0  0  0  0
   11.8672  -18.5571   24.4645 O   0  0  0  0  0  0  0  0  0  0  0  0
   10.8138  -15.1570   26.9935 C   0  0  0  0  0  0  0  0  0  0  0  0
   11.5597  -14.9084   28.1337 C   0  0  0  0  0  0  0  0  0  0  0  0
   13.9659  -14.2939   18.5637 N   0  0  0  0  0  0  0  0  0  0  0  0
   15.3299  -14.5478   18.8445 C   0  0  0  0  0  0  0  0  0  0  0  0
   16.2806  -13.8123   18.3525 N   0  0  0  0  0  0  0  0  0  0  0  0
   15.6665  -15.6424   19.6896 N   0  0  0  0  0  0  0  0  0  0  0  0
   14.6844  -15.9849   20.7327 C   0  0  0  0  0  0  0  0  0  0  0  0
   15.4215  -16.4700   21.9298 C   0  0  0  0  0  0  0  0  0  0  0  0
   14.7366  -17.5808   22.6148 C   0  0  0  0  0  0  0  0  0  0  0  0
   14.3427  -17.4017   24.0390 C   0  0  2  0  0  0  0  0  0  0  0  0
   13.0823  -16.6461   24.1000 N   0  0  0  0  0  0  0  0  0  0  0  0
   15.3335  -16.8427   24.9470 C   0  0  0  0  0  0  0  0  0  0  0  0
   15.1930  -15.7245   25.4960 O   0  0  0  0  0  0  0  0  0  0  0  0
   16.4952  -17.5404   25.2461 O   0  0  0  0  0  0  0  0  0  0  0  0
  2  1  1  1
  2  3  1  0
  3  4  1  0
  4  5  2  0
  4 12  1  0
  5  6  1  0
  6  7  1  0
  7  8  2  0
  9  8  1  0
 10  9  2  0
 11 12  2  0
 11 10  1  0
 12  7  1  0
 13 22  1  0
 13  2  1  0
 14 13  2  0
 16 15  1  0
 17 16  2  0
 18 17  1  0
 19 18  2  0
 19 25  1  0
 21 20  1  1
 20 19  1  0
 21 23  1  0
 21 22  1  0
 23 35  1  0
 24 23  2  0
 25 26  2  0
 26 16  1  0
 27 28  1  0
 28 29  2  0
 30 28  1  0
 31 30  1  0
 32 31  1  0
 34 33  1  6
 33 32  1  0
 34 35  1  0
 36 34  1  0
 37 36  2  0
 38 36  1  0
M  END
$$$$
