WYR.pdb
     RDKit          3D

 38 40  0  0  1  0  0  0  0  0999 V2000
    8.8439  -16.6472   20.7868 N   0  0  0  0  0  0  0  0  0  0  0  0
    8.3864  -15.3835   21.2931 C   0  0  1  0  0  0  0  0  0  0  0  0
    7.0267  -15.0514   20.7788 C   0  0  0  0  0  0  0  0  0  0  0  0
    6.9181  -14.8577   19.3347 C   0  0  0  0  0  0  0  0  0  0  0  0
    6.3166  -15.7095   18.4090 C   0  0  0  0  0  0  0  0  0  0  0  0
    6.4556  -15.1356   17.2125 N   0  0  0  0  0  0  0  0  0  0  0  0
    7.1166  -13.9616   17.3367 C   0  0  0  0  0  0  0  0  0  0  0  0
    7.5163  -12.9845   16.4255 C   0  0  0  0  0  0  0  0  0  0  0  0
    8.1946  -11.8481   16.8217 C   0  0  0  0  0  0  0  0  0  0  0  0
    8.4998  -11.6463   18.1507 C   0  0  0  0  0  0  0  0  0  0  0  0
    8.1023  -12.6156   19.0469 C   0  0  0  0  0  0  0  0  0  0  0  0
    7.4219  -13.7602   18.6692 C   0  0  0  0  0  0  0  0  0  0  0  0
    8.5613  -15.2030   22.7401 C   0  0  0  0  0  0  0  0  0  0  0  0
    8.2965  -14.0769   23.2297 O   0  0  0  0  0  0  0  0  0  0  0  0
   12.0834  -15.5084   30.7529 O   0  0  0  0  0  0  0  0  0  0  0  0
   11.3018  -15.6270   29.5948 C   0  0  0  0  0  0  0  0  0  0  0  0
   11.0449  -16.8616   29.0481 C   0  0  0  0  0  0  0  0  0  0  0  0
   10.2824  -17.0150   27.9128 C   0  0  0  0  0  0  0  0  0  0  0  0
    9.7408  -15.8961   27.2768 C   0  0  0  0  0  0  0  0  0  0  0  0
    8.9136  -16.0233   26.0541 C   0  0  0  0  0  0  0  0  0  0  0  0
    9.7711  -15.8866   24.8404 C   0  0  2  0  0  0  0  0  0  0  0  0
    9.0112  -16.2160   23.6256 N   0  0  0  0  0  0  0  0  0  0  0  0
   10.9679  -16.7692   24.8319 C   0  0  0  0  0  0  0  0  0  0  0  0
   10.9075  -18.0179   24.7931 O   0  0  0  0  0  0  0  0  0  0  0  0
    9.9966  -14.6743   27.8205 C   0  0  0  0  0  0  0  0  0  0  0  0
   10.7654  -14.5320   28.9637 C   0  0  0  0  0  0  0  0  0  0  0  0
   17.9276  -14.7564   20.5869 N   0  0  0  0  0  0  0  0  0  0  0  0
   16.5888  -14.5301   20.1866 C   0  0  0  0  0  0  0  0  0  0  0  0
   16.2931  -14.0679   19.0093 N   0  0  0  0  0  0  0  0  0  0  0  0
   15.5384  -14.8169   21.1031 N   0  0  0  0  0  0  0  0  0  0  0  0
   15.9327  -14.9856   22.5124 C   0  0  0  0  0  0  0  0  0  0  0  0
   14.6985  -15.0957   23.3347 C   0  0  0  0  0  0  0  0  0  0  0  0
   14.0917  -16.4377   23.2828 C   0  0  0  0  0  0  0  0  0  0  0  0
   13.4745  -16.9863   24.5212 C   0  0  2  0  0  0  0  0  0  0  0  0
   12.2880  -16.1875   24.8640 N   0  0  0  0  0  0  0  0  0  0  0  0
   14.3363  -17.1687   25.6799 C   0  0  0  0  0  0  0  0  0  0  0  0
   14.1828  -16.5253   26.7449 O   0  0  0  0  0  0  0  0  0  0  0  0
   15.3822  -18.0803   25.6497 O   0  0  0  0  0  0  0  0  0  0  0  0
  2  1  1  1
  2  3  1  0
  3  4  1  0
  4  5  2  0
  4 12  1  0
  5  6  1  0
  6  7  1  0
  7  8  2  0
  9  8  1  0
 10  9  2  0
 11 12  2  0
 11 10  1  0
 12  7  1  0
 13 22  1  0
 13  2  1  0
 14 13  2  0
 16 15  1  0
 17 16  2  0
 18 17  1  0
 19 18  2  0
 19 25  1  0
 21 20  1  1
 20 19  1  0
 21 23  1  0
 21 22  1  0
 23 35  1  0
 24 23  2  0
 25 26  2  0
 26 16  1  0
 27 28  1  0
 28 29  2  0
 30 28  1  0
 31 30  1  0
 32 31  1  0
 34 33  1  6
 33 32  1  0
 34 35  1  0
 36 34  1  0
 37 36  2  0
 38 36  1  0
M  END
$$$$
