ADK.pdb
     RDKit          3D

 23 22  0  0  1  0  0  0  0  0999 V2000
    7.1844  -13.4241   18.4957 C   0  0  0  0  0  0  0  0  0  0  0  0
    8.6116  -13.5708   18.9711 C   0  0  2  0  0  0  0  0  0  0  0  0
    9.4009  -14.1151   17.8916 N   0  0  0  0  0  0  0  0  0  0  0  0
    8.6524  -14.4634   20.1720 C   0  0  0  0  0  0  0  0  0  0  0  0
    7.9418  -14.2279   21.1704 O   0  0  0  0  0  0  0  0  0  0  0  0
    9.5002  -15.6069   20.2147 N   0  0  0  0  0  0  0  0  0  0  0  0
    9.5624  -16.5295   21.3269 C   0  0  1  0  0  0  0  0  0  0  0  0
   10.5150  -17.6526   21.1195 C   0  0  0  0  0  0  0  0  0  0  0  0
   10.0602  -18.5522   20.0390 C   0  0  0  0  0  0  0  0  0  0  0  0
    8.8590  -18.8394   19.7997 O   0  0  0  0  0  0  0  0  0  0  0  0
    9.8010  -15.7867   22.6124 C   0  0  0  0  0  0  0  0  0  0  0  0
   10.8593  -15.1619   22.7708 O   0  0  0  0  0  0  0  0  0  0  0  0
   11.0140  -19.1370   19.2132 O   0  0  0  0  0  0  0  0  0  0  0  0
    8.7894  -15.8329   23.6089 N   0  0  0  0  0  0  0  0  0  0  0  0
    8.8549  -14.9998   24.7914 C   0  0  1  0  0  0  0  0  0  0  0  0
    7.5810  -14.2129   24.9935 C   0  0  0  0  0  0  0  0  0  0  0  0
    7.6795  -13.2643   26.1583 C   0  0  0  0  0  0  0  0  0  0  0  0
    6.4229  -12.4559   26.3227 C   0  0  0  0  0  0  0  0  0  0  0  0
    6.5503  -11.3712   27.3724 C   0  0  0  0  0  0  0  0  0  0  0  0
    5.2770  -10.6454   27.5077 N   0  0  0  0  0  0  0  0  0  0  0  0
    9.2019  -15.7954   25.9988 C   0  0  0  0  0  0  0  0  0  0  0  0
    9.3846  -15.2202   27.1010 O   0  0  0  0  0  0  0  0  0  0  0  0
    9.3403  -17.1776   25.9805 O   0  0  0  0  0  0  0  0  0  0  0  0
  2  1  1  6
  2  3  1  0
  4  6  1  0
  4  2  1  0
  5  4  2  0
  7 11  1  0
  7  6  1  0
  7  8  1  6
  9 10  2  0
  9  8  1  0
 11 14  1  0
 12 11  2  0
 13  9  1  0
 14 15  1  0
 15 21  1  0
 15 16  1  1
 17 16  1  0
 18 19  1  0
 18 17  1  0
 20 19  1  0
 21 23  1  0
 22 21  2  0
M  END
$$$$
