ADK.pdb
     RDKit          3D

 23 22  0  0  1  0  0  0  0  0999 V2000
   -2.8634  -26.4217   25.7929 C   0  0  0  0  0  0  0  0  0  0  0  0
   -4.3537  -26.1955   25.6832 C   0  0  2  0  0  0  0  0  0  0  0  0
   -4.5928  -25.1999   24.6652 N   0  0  0  0  0  0  0  0  0  0  0  0
   -4.8941  -25.7532   27.0072 C   0  0  0  0  0  0  0  0  0  0  0  0
   -4.8406  -26.5019   28.0041 O   0  0  0  0  0  0  0  0  0  0  0  0
   -5.4846  -24.4678   27.1726 N   0  0  0  0  0  0  0  0  0  0  0  0
   -6.1257  -24.0202   28.3894 C   0  0  1  0  0  0  0  0  0  0  0  0
   -5.8390  -22.6009   28.7290 C   0  0  0  0  0  0  0  0  0  0  0  0
   -6.3864  -22.2429   30.0540 C   0  0  0  0  0  0  0  0  0  0  0  0
   -5.7833  -22.3969   31.1473 O   0  0  0  0  0  0  0  0  0  0  0  0
   -7.5968  -24.3295   28.3521 C   0  0  0  0  0  0  0  0  0  0  0  0
   -8.2656  -24.0041   27.3610 O   0  0  0  0  0  0  0  0  0  0  0  0
   -7.6622  -21.6939   30.1216 O   0  0  0  0  0  0  0  0  0  0  0  0
   -8.1695  -24.9909   29.4714 N   0  0  0  0  0  0  0  0  0  0  0  0
   -9.5739  -25.3420   29.5047 C   0  0  1  0  0  0  0  0  0  0  0  0
   -9.8260  -26.5635   30.3576 C   0  0  0  0  0  0  0  0  0  0  0  0
  -11.2697  -26.9889   30.3256 C   0  0  0  0  0  0  0  0  0  0  0  0
  -11.4921  -28.2543   31.1059 C   0  0  0  0  0  0  0  0  0  0  0  0
  -12.9206  -28.7527   31.0303 C   0  0  0  0  0  0  0  0  0  0  0  0
  -13.0387  -30.0555   31.7048 N   0  0  0  0  0  0  0  0  0  0  0  0
  -10.4119  -24.1923   29.9373 C   0  0  0  0  0  0  0  0  0  0  0  0
  -11.4439  -23.8859   29.2889 O   0  0  0  0  0  0  0  0  0  0  0  0
  -10.1133  -23.4135   31.0483 O   0  0  0  0  0  0  0  0  0  0  0  0
  2  1  1  1
  2  3  1  0
  4  6  1  0
  4  2  1  0
  5  4  2  0
  7 11  1  0
  7  6  1  0
  7  8  1  6
  9 10  2  0
  9  8  1  0
 11 14  1  0
 12 11  2  0
 13  9  1  0
 14 15  1  0
 15 21  1  0
 15 16  1  1
 17 16  1  0
 18 19  1  0
 18 17  1  0
 20 19  1  0
 21 23  1  0
 22 21  2  0
M  END
$$$$
