ADK.pdb
     RDKit          3D

 23 22  0  0  1  0  0  0  0  0999 V2000
    7.2631  -13.5065   18.2242 C   0  0  0  0  0  0  0  0  0  0  0  0
    8.7024  -13.5964   18.6764 C   0  0  2  0  0  0  0  0  0  0  0  0
    9.4845  -14.1681   17.6059 N   0  0  0  0  0  0  0  0  0  0  0  0
    8.7893  -14.4337   19.9141 C   0  0  0  0  0  0  0  0  0  0  0  0
    8.0889  -14.1748   20.9139 O   0  0  0  0  0  0  0  0  0  0  0  0
    9.6707  -15.5497   19.9914 N   0  0  0  0  0  0  0  0  0  0  0  0
    9.7169  -16.4713   21.1051 C   0  0  1  0  0  0  0  0  0  0  0  0
   10.6768  -17.5912   20.9150 C   0  0  0  0  0  0  0  0  0  0  0  0
   10.2866  -18.4476   19.7757 C   0  0  0  0  0  0  0  0  0  0  0  0
    9.1577  -18.9837   19.6320 O   0  0  0  0  0  0  0  0  0  0  0  0
    9.9308  -15.7268   22.3940 C   0  0  0  0  0  0  0  0  0  0  0  0
   10.9270  -15.0013   22.5235 O   0  0  0  0  0  0  0  0  0  0  0  0
   11.2216  -18.6936   18.7763 O   0  0  0  0  0  0  0  0  0  0  0  0
    8.9690  -15.8884   23.4270 N   0  0  0  0  0  0  0  0  0  0  0  0
    9.0333  -15.1123   24.6477 C   0  0  1  0  0  0  0  0  0  0  0  0
    7.8020  -14.2564   24.8329 C   0  0  0  0  0  0  0  0  0  0  0  0
    7.8382  -13.4832   26.1241 C   0  0  0  0  0  0  0  0  0  0  0  0
    6.5948  -12.6599   26.3123 C   0  0  0  0  0  0  0  0  0  0  0  0
    6.5838  -11.8950   27.6198 C   0  0  0  0  0  0  0  0  0  0  0  0
    5.2784  -11.2435   27.8144 N   0  0  0  0  0  0  0  0  0  0  0  0
    9.2781  -15.9789   25.8310 C   0  0  0  0  0  0  0  0  0  0  0  0
    8.9178  -17.1827   25.8155 O   0  0  0  0  0  0  0  0  0  0  0  0
    9.8999  -15.5238   26.9870 O   0  0  0  0  0  0  0  0  0  0  0  0
  2  1  1  6
  2  3  1  0
  4  6  1  0
  4  2  1  0
  5  4  2  0
  7 11  1  0
  7  6  1  0
  7  8  1  6
  9 10  2  0
  9  8  1  0
 11 14  1  0
 12 11  2  0
 13  9  1  0
 14 15  1  0
 15 21  1  0
 15 16  1  1
 17 16  1  0
 18 19  1  0
 18 17  1  0
 20 19  1  0
 21 23  1  0
 22 21  2  0
M  END
$$$$
