ADK.pdb
     RDKit          3D

 23 22  0  0  1  0  0  0  0  0999 V2000
    8.4598  -12.9510   19.6677 C   0  0  0  0  0  0  0  0  0  0  0  0
    8.5936  -14.3820   19.2000 C   0  0  2  0  0  0  0  0  0  0  0  0
    7.3595  -14.7726   18.5604 N   0  0  0  0  0  0  0  0  0  0  0  0
    8.8987  -15.2666   20.3684 C   0  0  0  0  0  0  0  0  0  0  0  0
    8.0047  -15.5946   21.1749 O   0  0  0  0  0  0  0  0  0  0  0  0
   10.2143  -15.7616   20.5972 N   0  0  0  0  0  0  0  0  0  0  0  0
   10.5924  -16.5614   21.7415 C   0  0  1  0  0  0  0  0  0  0  0  0
   11.8894  -17.2694   21.5737 C   0  0  0  0  0  0  0  0  0  0  0  0
   11.8662  -18.1651   20.3987 C   0  0  0  0  0  0  0  0  0  0  0  0
   12.6714  -18.1073   19.4339 O   0  0  0  0  0  0  0  0  0  0  0  0
   10.5299  -15.7402   22.9997 C   0  0  0  0  0  0  0  0  0  0  0  0
   11.3029  -14.7826   23.1444 O   0  0  0  0  0  0  0  0  0  0  0  0
   10.8894  -19.1526   20.3330 O   0  0  0  0  0  0  0  0  0  0  0  0
    9.5740  -16.1011   23.9868 N   0  0  0  0  0  0  0  0  0  0  0  0
    9.3909  -15.3107   25.1861 C   0  0  1  0  0  0  0  0  0  0  0  0
    8.1264  -14.4858   25.1257 C   0  0  0  0  0  0  0  0  0  0  0  0
    7.9246  -13.6659   26.3720 C   0  0  0  0  0  0  0  0  0  0  0  0
    6.6252  -12.9110   26.3346 C   0  0  0  0  0  0  0  0  0  0  0  0
    6.3998  -12.0596   27.5671 C   0  0  0  0  0  0  0  0  0  0  0  0
    5.0521  -11.4689   27.5349 N   0  0  0  0  0  0  0  0  0  0  0  0
    9.4316  -16.1580   26.4075 C   0  0  0  0  0  0  0  0  0  0  0  0
    9.1537  -17.3814   26.3349 O   0  0  0  0  0  0  0  0  0  0  0  0
    9.7685  -15.6632   27.6611 O   0  0  0  0  0  0  0  0  0  0  0  0
  2  1  1  1
  2  3  1  0
  4  6  1  0
  4  2  1  0
  5  4  2  0
  7 11  1  0
  7  6  1  0
  7  8  1  6
  9 10  2  0
  9  8  1  0
 11 14  1  0
 12 11  2  0
 13  9  1  0
 14 15  1  0
 15 21  1  0
 15 16  1  6
 17 16  1  0
 18 19  1  0
 18 17  1  0
 20 19  1  0
 21 23  1  0
 22 21  2  0
M  END
$$$$
