ADK.pdb
     RDKit          3D

 23 22  0  0  1  0  0  0  0  0999 V2000
    7.1415  -13.3150   18.6486 C   0  0  0  0  0  0  0  0  0  0  0  0
    8.1099  -13.2186   19.8050 C   0  0  2  0  0  0  0  0  0  0  0  0
    9.3548  -12.6744   19.3165 N   0  0  0  0  0  0  0  0  0  0  0  0
    8.3130  -14.5746   20.4053 C   0  0  0  0  0  0  0  0  0  0  0  0
    7.3396  -15.2801   20.7399 O   0  0  0  0  0  0  0  0  0  0  0  0
    9.6191  -15.1029   20.6133 N   0  0  0  0  0  0  0  0  0  0  0  0
    9.8887  -16.3703   21.2560 C   0  0  1  0  0  0  0  0  0  0  0  0
   11.2095  -16.9528   20.8988 C   0  0  0  0  0  0  0  0  0  0  0  0
   11.2256  -17.4353   19.5022 C   0  0  0  0  0  0  0  0  0  0  0  0
   11.8705  -16.9007   18.5637 O   0  0  0  0  0  0  0  0  0  0  0  0
    9.6769  -16.2614   22.7409 C   0  0  0  0  0  0  0  0  0  0  0  0
   10.1289  -15.2836   23.3533 O   0  0  0  0  0  0  0  0  0  0  0  0
   10.4786  -18.5625   19.1781 O   0  0  0  0  0  0  0  0  0  0  0  0
    8.9578  -17.2996   23.3915 N   0  0  0  0  0  0  0  0  0  0  0  0
    8.7909  -17.3167   24.8298 C   0  0  1  0  0  0  0  0  0  0  0  0
    7.8340  -18.4001   25.2698 C   0  0  0  0  0  0  0  0  0  0  0  0
    7.6671  -18.4356   26.7655 C   0  0  0  0  0  0  0  0  0  0  0  0
    7.4182  -19.8323   27.2625 C   0  0  0  0  0  0  0  0  0  0  0  0
    7.2398  -19.9027   28.7651 C   0  0  0  0  0  0  0  0  0  0  0  0
    6.7441  -21.2327   29.1544 N   0  0  0  0  0  0  0  0  0  0  0  0
   10.0991  -17.4280   25.5279 C   0  0  0  0  0  0  0  0  0  0  0  0
   10.3079  -16.7763   26.5819 O   0  0  0  0  0  0  0  0  0  0  0  0
   11.1349  -18.2331   25.0711 O   0  0  0  0  0  0  0  0  0  0  0  0
  2  1  1  6
  2  3  1  0
  4  6  1  0
  4  2  1  0
  5  4  2  0
  7 11  1  0
  7  6  1  0
  7  8  1  1
  9 10  2  0
  9  8  1  0
 11 14  1  0
 12 11  2  0
 13  9  1  0
 14 15  1  0
 15 21  1  0
 15 16  1  6
 17 16  1  0
 18 19  1  0
 18 17  1  0
 20 19  1  0
 21 23  1  0
 22 21  2  0
M  END
$$$$
