ADK.pdb
     RDKit          3D

 23 22  0  0  1  0  0  0  0  0999 V2000
    9.3715  -18.2772   18.6066 C   0  0  0  0  0  0  0  0  0  0  0  0
   10.5474  -19.0519   18.0575 C   0  0  2  0  0  0  0  0  0  0  0  0
   10.0573  -20.2815   17.4808 N   0  0  0  0  0  0  0  0  0  0  0  0
   11.5271  -19.3246   19.1559 C   0  0  0  0  0  0  0  0  0  0  0  0
   11.3787  -20.3000   19.9199 O   0  0  0  0  0  0  0  0  0  0  0  0
   12.6571  -18.4832   19.3644 N   0  0  0  0  0  0  0  0  0  0  0  0
   13.5799  -18.6233   20.4693 C   0  0  1  0  0  0  0  0  0  0  0  0
   14.7982  -17.7801   20.3413 C   0  0  0  0  0  0  0  0  0  0  0  0
   15.5343  -18.0825   19.0962 C   0  0  0  0  0  0  0  0  0  0  0  0
   15.8181  -17.2407   18.2055 O   0  0  0  0  0  0  0  0  0  0  0  0
   12.8653  -18.4281   21.7780 C   0  0  0  0  0  0  0  0  0  0  0  0
   12.0284  -17.5210   21.8889 O   0  0  0  0  0  0  0  0  0  0  0  0
   15.9538  -19.3891   18.8709 O   0  0  0  0  0  0  0  0  0  0  0  0
   13.1839  -19.3034   22.8506 N   0  0  0  0  0  0  0  0  0  0  0  0
   12.4932  -19.2248   24.1208 C   0  0  1  0  0  0  0  0  0  0  0  0
   11.2815  -20.1268   24.1564 C   0  0  0  0  0  0  0  0  0  0  0  0
   10.0440  -19.4335   23.6523 C   0  0  0  0  0  0  0  0  0  0  0  0
    8.8797  -20.3793   23.5546 C   0  0  0  0  0  0  0  0  0  0  0  0
    7.6594  -19.7512   22.9134 C   0  0  0  0  0  0  0  0  0  0  0  0
    6.5721  -20.7387   22.8190 N   0  0  0  0  0  0  0  0  0  0  0  0
   13.4117  -19.5002   25.2574 C   0  0  0  0  0  0  0  0  0  0  0  0
   14.5723  -19.9298   25.0395 O   0  0  0  0  0  0  0  0  0  0  0  0
   13.0527  -19.3050   26.5852 O   0  0  0  0  0  0  0  0  0  0  0  0
  2  1  1  1
  2  3  1  0
  4  6  1  0
  4  2  1  0
  5  4  2  0
  7 11  1  0
  7  6  1  0
  7  8  1  6
  9 10  2  0
  9  8  1  0
 11 14  1  0
 12 11  2  0
 13  9  1  0
 14 15  1  0
 15 21  1  0
 15 16  1  6
 17 16  1  0
 18 19  1  0
 18 17  1  0
 20 19  1  0
 21 23  1  0
 22 21  2  0
M  END
$$$$
