ADK.pdb
     RDKit          3D

 23 22  0  0  1  0  0  0  0  0999 V2000
    8.1791  -12.5695   18.9818 C   0  0  0  0  0  0  0  0  0  0  0  0
    8.5532  -13.9167   18.4077 C   0  0  2  0  0  0  0  0  0  0  0  0
    7.6426  -14.2250   17.3306 N   0  0  0  0  0  0  0  0  0  0  0  0
    8.4890  -14.9567   19.4823 C   0  0  0  0  0  0  0  0  0  0  0  0
    7.3954  -15.4326   19.8495 O   0  0  0  0  0  0  0  0  0  0  0  0
    9.6694  -15.4362   20.1186 N   0  0  0  0  0  0  0  0  0  0  0  0
    9.6735  -16.3718   21.2217 C   0  0  1  0  0  0  0  0  0  0  0  0
   10.6518  -17.4804   21.0618 C   0  0  0  0  0  0  0  0  0  0  0  0
   10.5211  -18.4749   22.1468 C   0  0  0  0  0  0  0  0  0  0  0  0
    9.5305  -18.5749   22.9158 O   0  0  0  0  0  0  0  0  0  0  0  0
    9.8210  -15.6421   22.5283 C   0  0  0  0  0  0  0  0  0  0  0  0
   10.9343  -15.2194   22.8708 O   0  0  0  0  0  0  0  0  0  0  0  0
   11.5590  -19.3773   22.3520 O   0  0  0  0  0  0  0  0  0  0  0  0
    8.6614  -15.4654   23.3298 N   0  0  0  0  0  0  0  0  0  0  0  0
    8.7048  -14.7128   24.5661 C   0  0  1  0  0  0  0  0  0  0  0  0
    7.4126  -13.9706   24.8159 C   0  0  0  0  0  0  0  0  0  0  0  0
    7.4783  -13.1197   26.0560 C   0  0  0  0  0  0  0  0  0  0  0  0
    6.1857  -12.3917   26.2979 C   0  0  0  0  0  0  0  0  0  0  0  0
    6.2306  -11.4957   27.5186 C   0  0  0  0  0  0  0  0  0  0  0  0
    4.9683  -10.7495   27.6457 N   0  0  0  0  0  0  0  0  0  0  0  0
    9.0673  -15.5800   25.7184 C   0  0  0  0  0  0  0  0  0  0  0  0
    9.9589  -15.2152   26.5254 O   0  0  0  0  0  0  0  0  0  0  0  0
    8.4611  -16.8057   25.9635 O   0  0  0  0  0  0  0  0  0  0  0  0
  2  1  1  1
  2  3  1  0
  4  6  1  0
  4  2  1  0
  5  4  2  0
  7 11  1  0
  7  6  1  0
  7  8  1  6
  9 10  2  0
  9  8  1  0
 11 14  1  0
 12 11  2  0
 13  9  1  0
 14 15  1  0
 15 21  1  0
 15 16  1  1
 17 16  1  0
 18 19  1  0
 18 17  1  0
 20 19  1  0
 21 23  1  0
 22 21  2  0
M  END
$$$$
