ADK.pdb
     RDKit          3D

 23 22  0  0  1  0  0  0  0  0999 V2000
   13.1520  -21.7467   17.8167 C   0  0  0  0  0  0  0  0  0  0  0  0
   11.7354  -21.2441   17.6593 C   0  0  2  0  0  0  0  0  0  0  0  0
   11.4936  -20.9850   16.2596 N   0  0  0  0  0  0  0  0  0  0  0  0
   11.5476  -20.0047   18.4772 C   0  0  0  0  0  0  0  0  0  0  0  0
   12.5014  -19.2305   18.6965 O   0  0  0  0  0  0  0  0  0  0  0  0
   10.2787  -19.6689   19.0300 N   0  0  0  0  0  0  0  0  0  0  0  0
   10.0260  -18.4841   19.8202 C   0  0  1  0  0  0  0  0  0  0  0  0
    8.6001  -18.0619   19.8255 C   0  0  0  0  0  0  0  0  0  0  0  0
    8.0680  -17.9437   18.4520 C   0  0  0  0  0  0  0  0  0  0  0  0
    8.5103  -17.1587   17.5742 O   0  0  0  0  0  0  0  0  0  0  0  0
   10.5967  -18.6434   21.2023 C   0  0  0  0  0  0  0  0  0  0  0  0
   10.1143  -19.4882   21.9699 O   0  0  0  0  0  0  0  0  0  0  0  0
    6.9980  -18.7503   18.0803 O   0  0  0  0  0  0  0  0  0  0  0  0
   11.6808  -17.8058   21.5786 N   0  0  0  0  0  0  0  0  0  0  0  0
   12.2513  -17.8599   22.9084 C   0  0  1  0  0  0  0  0  0  0  0  0
   13.5276  -18.6682   22.9379 C   0  0  0  0  0  0  0  0  0  0  0  0
   13.4227  -19.8597   23.8521 C   0  0  0  0  0  0  0  0  0  0  0  0
   14.6770  -20.6878   23.8295 C   0  0  0  0  0  0  0  0  0  0  0  0
   14.6201  -21.8737   24.7704 C   0  0  0  0  0  0  0  0  0  0  0  0
   15.8749  -22.6395   24.6962 N   0  0  0  0  0  0  0  0  0  0  0  0
   12.4554  -16.4976   23.4685 C   0  0  0  0  0  0  0  0  0  0  0  0
   12.6374  -16.3448   24.7025 O   0  0  0  0  0  0  0  0  0  0  0  0
   12.4569  -15.3498   22.6860 O   0  0  0  0  0  0  0  0  0  0  0  0
  2  1  1  6
  2  3  1  0
  4  6  1  0
  4  2  1  0
  5  4  2  0
  7 11  1  0
  7  6  1  0
  7  8  1  1
  9 10  2  0
  9  8  1  0
 11 14  1  0
 12 11  2  0
 13  9  1  0
 14 15  1  0
 15 21  1  0
 15 16  1  6
 17 16  1  0
 18 19  1  0
 18 17  1  0
 20 19  1  0
 21 23  1  0
 22 21  2  0
M  END
$$$$
