ADK.pdb
     RDKit          3D

 23 22  0  0  1  0  0  0  0  0999 V2000
    7.2090  -13.5225   18.3224 C   0  0  0  0  0  0  0  0  0  0  0  0
    8.6567  -13.5204   18.7564 C   0  0  2  0  0  0  0  0  0  0  0  0
    9.4695  -13.9532   17.6443 N   0  0  0  0  0  0  0  0  0  0  0  0
    8.8297  -14.4264   19.9353 C   0  0  0  0  0  0  0  0  0  0  0  0
    8.1247  -14.2920   20.9562 O   0  0  0  0  0  0  0  0  0  0  0  0
    9.8007  -15.4682   19.9309 N   0  0  0  0  0  0  0  0  0  0  0  0
    9.9425  -16.4494   20.9840 C   0  0  1  0  0  0  0  0  0  0  0  0
   10.9758  -17.4817   20.7042 C   0  0  0  0  0  0  0  0  0  0  0  0
   10.5968  -18.3247   19.5512 C   0  0  0  0  0  0  0  0  0  0  0  0
    9.4598  -18.8332   19.3746 O   0  0  0  0  0  0  0  0  0  0  0  0
   10.1351  -15.7703   22.3118 C   0  0  0  0  0  0  0  0  0  0  0  0
   11.1080  -15.0216   22.4807 O   0  0  0  0  0  0  0  0  0  0  0  0
   11.5528  -18.5895   18.5767 O   0  0  0  0  0  0  0  0  0  0  0  0
    9.1810  -16.0189   23.3346 N   0  0  0  0  0  0  0  0  0  0  0  0
    9.1816  -15.2619   24.5689 C   0  0  1  0  0  0  0  0  0  0  0  0
    7.9196  -14.4460   24.7263 C   0  0  0  0  0  0  0  0  0  0  0  0
    7.9259  -13.6310   25.9920 C   0  0  0  0  0  0  0  0  0  0  0  0
    6.6496  -12.8542   26.1574 C   0  0  0  0  0  0  0  0  0  0  0  0
    6.6640  -11.9432   27.3677 C   0  0  0  0  0  0  0  0  0  0  0  0
    5.3472  -11.3085   27.5393 N   0  0  0  0  0  0  0  0  0  0  0  0
    9.4131  -16.1407   25.7459 C   0  0  0  0  0  0  0  0  0  0  0  0
    9.1898  -17.3747   25.6642 O   0  0  0  0  0  0  0  0  0  0  0  0
    9.8752  -15.6650   26.9666 O   0  0  0  0  0  0  0  0  0  0  0  0
  2  1  1  6
  2  3  1  0
  4  6  1  0
  4  2  1  0
  5  4  2  0
  7 11  1  0
  7  6  1  0
  7  8  1  6
  9 10  2  0
  9  8  1  0
 11 14  1  0
 12 11  2  0
 13  9  1  0
 14 15  1  0
 15 21  1  0
 15 16  1  1
 17 16  1  0
 18 19  1  0
 18 17  1  0
 20 19  1  0
 21 23  1  0
 22 21  2  0
M  END
$$$$
