ADK.pdb
     RDKit          3D

 23 22  0  0  1  0  0  0  0  0999 V2000
    8.1180  -15.9302   16.4351 C   0  0  0  0  0  0  0  0  0  0  0  0
    8.5429  -17.3804   16.4125 C   0  0  2  0  0  0  0  0  0  0  0  0
    7.4759  -18.1619   15.8333 N   0  0  0  0  0  0  0  0  0  0  0  0
    8.8503  -17.8362   17.8048 C   0  0  0  0  0  0  0  0  0  0  0  0
    7.9455  -18.2478   18.5592 O   0  0  0  0  0  0  0  0  0  0  0  0
   10.1807  -17.8157   18.3126 N   0  0  0  0  0  0  0  0  0  0  0  0
   10.5348  -18.1537   19.6736 C   0  0  1  0  0  0  0  0  0  0  0  0
   11.8176  -18.8969   19.7906 C   0  0  0  0  0  0  0  0  0  0  0  0
   12.0590  -19.3395   21.1797 C   0  0  0  0  0  0  0  0  0  0  0  0
   11.1704  -19.7550   21.9672 O   0  0  0  0  0  0  0  0  0  0  0  0
   10.4819  -16.9319   20.5487 C   0  0  0  0  0  0  0  0  0  0  0  0
   11.3504  -16.0560   20.4298 O   0  0  0  0  0  0  0  0  0  0  0  0
   13.3579  -19.3016   21.6748 O   0  0  0  0  0  0  0  0  0  0  0  0
    9.4237  -16.8299   21.4911 N   0  0  0  0  0  0  0  0  0  0  0  0
    9.3505  -15.7291   22.4290 C   0  0  1  0  0  0  0  0  0  0  0  0
    7.9314  -15.2446   22.6145 C   0  0  0  0  0  0  0  0  0  0  0  0
    7.7115  -13.8870   22.0022 C   0  0  0  0  0  0  0  0  0  0  0  0
    7.8988  -13.9145   20.5110 C   0  0  0  0  0  0  0  0  0  0  0  0
    7.6856  -12.5620   19.8627 C   0  0  0  0  0  0  0  0  0  0  0  0
    8.0385  -12.6235   18.4351 N   0  0  0  0  0  0  0  0  0  0  0  0
    9.9816  -16.0794   23.7291 C   0  0  0  0  0  0  0  0  0  0  0  0
    9.9204  -17.2576   24.1618 O   0  0  0  0  0  0  0  0  0  0  0  0
   10.6547  -15.1544   24.5174 O   0  0  0  0  0  0  0  0  0  0  0  0
  2  1  1  1
  2  3  1  0
  4  6  1  0
  4  2  1  0
  5  4  2  0
  7 11  1  0
  7  6  1  0
  7  8  1  6
  9 10  2  0
  9  8  1  0
 11 14  1  0
 12 11  2  0
 13  9  1  0
 14 15  1  0
 15 21  1  0
 15 16  1  1
 17 16  1  0
 18 19  1  0
 18 17  1  0
 20 19  1  0
 21 23  1  0
 22 21  2  0
M  END
$$$$
