ADK.pdb
     RDKit          3D

 23 22  0  0  1  0  0  0  0  0999 V2000
    7.8311  -20.6835   18.1120 C   0  0  0  0  0  0  0  0  0  0  0  0
    8.1331  -19.2178   18.3236 C   0  0  2  0  0  0  0  0  0  0  0  0
    8.0688  -18.5473   17.0465 N   0  0  0  0  0  0  0  0  0  0  0  0
    9.4872  -19.0677   18.9436 C   0  0  0  0  0  0  0  0  0  0  0  0
    9.7213  -19.5087   20.0873 O   0  0  0  0  0  0  0  0  0  0  0  0
   10.5496  -18.4193   18.2513 N   0  0  0  0  0  0  0  0  0  0  0  0
   11.8707  -18.2132   18.8028 C   0  0  1  0  0  0  0  0  0  0  0  0
   12.9241  -18.0125   17.7724 C   0  0  0  0  0  0  0  0  0  0  0  0
   13.1576  -19.2462   16.9933 C   0  0  0  0  0  0  0  0  0  0  0  0
   13.0236  -20.4149   17.4390 O   0  0  0  0  0  0  0  0  0  0  0  0
   11.8437  -17.1207   19.8358 C   0  0  0  0  0  0  0  0  0  0  0  0
   10.9816  -16.2334   19.7656 O   0  0  0  0  0  0  0  0  0  0  0  0
   13.5567  -19.1305   15.6662 O   0  0  0  0  0  0  0  0  0  0  0  0
   12.8227  -17.1493   20.8649 N   0  0  0  0  0  0  0  0  0  0  0  0
   12.6820  -16.3502   22.0642 C   0  0  1  0  0  0  0  0  0  0  0  0
   11.4256  -16.7005   22.8267 C   0  0  0  0  0  0  0  0  0  0  0  0
   11.2983  -15.9115   24.1024 C   0  0  0  0  0  0  0  0  0  0  0  0
   10.0551  -16.2822   24.8618 C   0  0  0  0  0  0  0  0  0  0  0  0
    9.8905  -15.4971   26.1469 C   0  0  0  0  0  0  0  0  0  0  0  0
    8.7352  -16.0036   26.9052 N   0  0  0  0  0  0  0  0  0  0  0  0
   13.8889  -16.4475   22.9274 C   0  0  0  0  0  0  0  0  0  0  0  0
   14.4276  -17.5641   23.1334 O   0  0  0  0  0  0  0  0  0  0  0  0
   14.4740  -15.3453   23.5378 O   0  0  0  0  0  0  0  0  0  0  0  0
  2  1  1  6
  2  3  1  0
  4  6  1  0
  4  2  1  0
  5  4  2  0
  7 11  1  0
  7  6  1  0
  7  8  1  6
  9 10  2  0
  9  8  1  0
 11 14  1  0
 12 11  2  0
 13  9  1  0
 14 15  1  0
 15 21  1  0
 15 16  1  1
 17 16  1  0
 18 19  1  0
 18 17  1  0
 20 19  1  0
 21 23  1  0
 22 21  2  0
M  END
$$$$
