ADK.pdb
     RDKit          3D

 23 22  0  0  1  0  0  0  0  0999 V2000
   -6.4210  -26.5062   23.3232 C   0  0  0  0  0  0  0  0  0  0  0  0
   -7.5206  -26.5085   24.3601 C   0  0  2  0  0  0  0  0  0  0  0  0
   -8.7814  -26.7257   23.6910 N   0  0  0  0  0  0  0  0  0  0  0  0
   -7.5191  -25.2059   25.0976 C   0  0  0  0  0  0  0  0  0  0  0  0
   -6.5150  -24.8326   25.7377 O   0  0  0  0  0  0  0  0  0  0  0  0
   -8.6591  -24.3524   25.0930 N   0  0  0  0  0  0  0  0  0  0  0  0
   -8.7723  -23.1457   25.8823 C   0  0  1  0  0  0  0  0  0  0  0  0
   -9.7630  -22.1732   25.3491 C   0  0  0  0  0  0  0  0  0  0  0  0
   -9.3402  -21.6373   24.0385 C   0  0  0  0  0  0  0  0  0  0  0  0
  -10.0140  -21.7130   22.9789 O   0  0  0  0  0  0  0  0  0  0  0  0
   -9.0021  -23.4846   27.3293 C   0  0  0  0  0  0  0  0  0  0  0  0
   -9.9416  -24.2300   27.6415 O   0  0  0  0  0  0  0  0  0  0  0  0
   -8.1087  -20.9982   23.9460 O   0  0  0  0  0  0  0  0  0  0  0  0
   -8.1210  -22.9276   28.2945 N   0  0  0  0  0  0  0  0  0  0  0  0
   -8.2179  -23.2762   29.6965 C   0  0  1  0  0  0  0  0  0  0  0  0
   -7.0648  -24.1470   30.1382 C   0  0  0  0  0  0  0  0  0  0  0  0
   -7.1984  -24.5789   31.5742 C   0  0  0  0  0  0  0  0  0  0  0  0
   -6.0495  -25.4493   32.0005 C   0  0  0  0  0  0  0  0  0  0  0  0
   -6.2126  -26.0001   33.4022 C   0  0  0  0  0  0  0  0  0  0  0  0
   -5.1508  -26.9783   33.6886 N   0  0  0  0  0  0  0  0  0  0  0  0
   -8.3455  -22.0656   30.5505 C   0  0  0  0  0  0  0  0  0  0  0  0
   -7.6323  -21.0562   30.3230 O   0  0  0  0  0  0  0  0  0  0  0  0
   -9.2323  -21.9812   31.6166 O   0  0  0  0  0  0  0  0  0  0  0  0
  2  1  1  6
  2  3  1  0
  4  6  1  0
  4  2  1  0
  5  4  2  0
  7 11  1  0
  7  6  1  0
  7  8  1  6
  9 10  2  0
  9  8  1  0
 11 14  1  0
 12 11  2  0
 13  9  1  0
 14 15  1  0
 15 21  1  0
 15 16  1  1
 17 16  1  0
 18 19  1  0
 18 17  1  0
 20 19  1  0
 21 23  1  0
 22 21  2  0
M  END
$$$$
