NIG.pdb
     RDKit          3D

 21 20  0  0  1  0  0  0  0  0999 V2000
    9.2904  -20.3138   17.0713 N   0  0  0  0  0  0  0  0  0  0  0  0
   10.3919  -20.1961   17.9503 C   0  0  0  0  0  0  0  0  0  0  0  0
   11.3204  -21.0430   17.9313 O   0  0  0  0  0  0  0  0  0  0  0  0
   10.4695  -19.0823   18.9004 C   0  0  0  0  0  0  0  0  0  0  0  0
    9.6259  -17.9091   18.5129 C   0  0  2  0  0  0  0  0  0  0  0  0
    9.8747  -17.4077   17.2054 N   0  0  0  0  0  0  0  0  0  0  0  0
    9.8875  -16.8305   19.5451 C   0  0  0  0  0  0  0  0  0  0  0  0
   11.1001  -16.5723   19.6794 O   0  0  0  0  0  0  0  0  0  0  0  0
    6.8731  -12.3848   19.5734 C   0  0  0  0  0  0  0  0  0  0  0  0
    8.0633  -13.3352   19.7861 C   0  0  0  0  0  0  0  0  0  0  0  0
    7.9036  -14.1175   21.0753 C   0  0  2  0  0  0  0  0  0  0  0  0
    7.9043  -13.1472   22.2331 C   0  0  0  0  0  0  0  0  0  0  0  0
    8.9514  -15.1654   21.2565 C   0  0  2  0  0  0  0  0  0  0  0  0
    8.8580  -16.2179   20.2471 N   0  0  0  0  0  0  0  0  0  0  0  0
    9.0837  -15.7299   22.5870 C   0  0  0  0  0  0  0  0  0  0  0  0
    8.1659  -16.5654   22.9636 O   0  0  0  0  0  0  0  0  0  0  0  0
   10.0874  -15.5038   23.5519 N   0  0  0  0  0  0  0  0  0  0  0  0
   10.0440  -16.2430   24.8162 C   0  0  0  0  0  0  0  0  0  0  0  0
   11.3491  -16.8777   25.0979 C   0  0  0  0  0  0  0  0  0  0  0  0
   11.7928  -17.2283   26.3565 O   0  0  0  0  0  0  0  0  0  0  0  0
   12.0983  -17.1098   24.1185 O   0  0  0  0  0  0  0  0  0  0  0  0
  2  3  2  0
  2  1  1  0
  4  2  1  0
  5  4  1  0
  5  6  1  6
  7 14  1  0
  7  5  1  0
  8  7  2  0
  9 10  1  0
 10 11  1  0
 11 12  1  1
 11 13  1  0
 13 14  1  6
 15 13  1  0
 15 17  1  0
 16 15  2  0
 18 17  1  0
 18 19  1  0
 19 20  1  0
 21 19  2  0
M  END
$$$$
