NIG.pdb
     RDKit          3D

 21 20  0  0  1  0  0  0  0  0999 V2000
   12.7824  -18.1652   14.9583 N   0  0  0  0  0  0  0  0  0  0  0  0
   11.4838  -17.7146   15.2906 C   0  0  0  0  0  0  0  0  0  0  0  0
   10.4817  -18.1171   14.6476 O   0  0  0  0  0  0  0  0  0  0  0  0
   11.2841  -16.7687   16.3927 C   0  0  0  0  0  0  0  0  0  0  0  0
   10.7789  -17.4119   17.6454 C   0  0  2  0  0  0  0  0  0  0  0  0
    9.4788  -17.9783   17.5367 N   0  0  0  0  0  0  0  0  0  0  0  0
   10.7943  -16.3398   18.7167 C   0  0  0  0  0  0  0  0  0  0  0  0
   11.9181  -15.8205   18.8664 O   0  0  0  0  0  0  0  0  0  0  0  0
    6.5028  -12.8838   19.3264 C   0  0  0  0  0  0  0  0  0  0  0  0
    7.9761  -13.3123   19.4298 C   0  0  0  0  0  0  0  0  0  0  0  0
    8.1532  -14.3781   20.4938 C   0  0  2  0  0  0  0  0  0  0  0  0
    7.8445  -13.7713   21.8423 C   0  0  0  0  0  0  0  0  0  0  0  0
    9.5136  -14.9930   20.4842 C   0  0  2  0  0  0  0  0  0  0  0  0
    9.6554  -15.9999   19.4346 N   0  0  0  0  0  0  0  0  0  0  0  0
   10.0120  -15.4900   21.7535 C   0  0  0  0  0  0  0  0  0  0  0  0
   10.0537  -14.6466   22.7379 O   0  0  0  0  0  0  0  0  0  0  0  0
   10.4634  -16.7845   22.0848 N   0  0  0  0  0  0  0  0  0  0  0  0
   10.8482  -17.0758   23.4682 C   0  0  0  0  0  0  0  0  0  0  0  0
   11.2220  -18.4979   23.6205 C   0  0  0  0  0  0  0  0  0  0  0  0
   11.5188  -19.1041   24.8240 O   0  0  0  0  0  0  0  0  0  0  0  0
   11.2701  -19.1941   22.5777 O   0  0  0  0  0  0  0  0  0  0  0  0
  2  3  2  0
  2  1  1  0
  4  2  1  0
  5  4  1  0
  5  6  1  6
  7 14  1  0
  7  5  1  0
  8  7  2  0
  9 10  1  0
 10 11  1  0
 11 12  1  1
 11 13  1  0
 13 14  1  6
 15 13  1  0
 15 17  1  0
 16 15  2  0
 18 17  1  0
 18 19  1  0
 19 20  1  0
 21 19  2  0
M  END
$$$$
