NIG.pdb
     RDKit          3D

 21 20  0  0  1  0  0  0  0  0999 V2000
    7.8520  -17.4541   19.5725 N   0  0  0  0  0  0  0  0  0  0  0  0
    8.1884  -16.0822   19.5044 C   0  0  0  0  0  0  0  0  0  0  0  0
    8.2815  -15.4995   18.3946 O   0  0  0  0  0  0  0  0  0  0  0  0
    8.4348  -15.3152   20.7292 C   0  0  0  0  0  0  0  0  0  0  0  0
    8.3100  -16.1302   21.9775 C   0  0  2  0  0  0  0  0  0  0  0  0
    6.9818  -16.5293   22.2931 N   0  0  0  0  0  0  0  0  0  0  0  0
    8.8841  -15.2893   23.1003 C   0  0  0  0  0  0  0  0  0  0  0  0
   10.0381  -14.8825   22.8597 O   0  0  0  0  0  0  0  0  0  0  0  0
    5.5794  -11.9840   25.8780 C   0  0  0  0  0  0  0  0  0  0  0  0
    6.8350  -12.5713   25.2122 C   0  0  0  0  0  0  0  0  0  0  0  0
    7.5086  -13.5765   26.1262 C   0  0  2  0  0  0  0  0  0  0  0  0
    8.0046  -12.8546   27.3570 C   0  0  0  0  0  0  0  0  0  0  0  0
    8.6186  -14.3200   25.4600 C   0  0  2  0  0  0  0  0  0  0  0  0
    8.1686  -15.0222   24.2600 N   0  0  0  0  0  0  0  0  0  0  0  0
    9.4175  -15.1897   26.3037 C   0  0  0  0  0  0  0  0  0  0  0  0
    9.7982  -14.7097   27.4468 O   0  0  0  0  0  0  0  0  0  0  0  0
    9.8473  -16.5112   26.0622 N   0  0  0  0  0  0  0  0  0  0  0  0
   10.6313  -17.2069   27.0860 C   0  0  0  0  0  0  0  0  0  0  0  0
   10.9365  -18.5902   26.6631 C   0  0  0  0  0  0  0  0  0  0  0  0
   11.2538  -19.6196   27.5253 O   0  0  0  0  0  0  0  0  0  0  0  0
   10.9023  -18.8356   25.4331 O   0  0  0  0  0  0  0  0  0  0  0  0
  2  3  2  0
  2  1  1  0
  4  2  1  0
  5  4  1  0
  5  6  1  1
  7 14  1  0
  7  5  1  0
  8  7  2  0
  9 10  1  0
 10 11  1  0
 11 12  1  1
 11 13  1  0
 13 14  1  6
 15 13  1  0
 15 17  1  0
 16 15  2  0
 18 17  1  0
 18 19  1  0
 19 20  1  0
 21 19  2  0
M  END
$$$$
