NIG.pdb
     RDKit          3D

 21 20  0  0  1  0  0  0  0  0999 V2000
    4.8782  -19.4387   22.0585 N   0  0  0  0  0  0  0  0  0  0  0  0
    5.3733  -18.3221   21.3458 C   0  0  0  0  0  0  0  0  0  0  0  0
    5.1684  -18.2077   20.1111 O   0  0  0  0  0  0  0  0  0  0  0  0
    6.1352  -17.2772   22.0364 C   0  0  0  0  0  0  0  0  0  0  0  0
    6.4044  -17.5887   23.4748 C   0  0  2  0  0  0  0  0  0  0  0  0
    5.2481  -17.6059   24.3027 N   0  0  0  0  0  0  0  0  0  0  0  0
    7.3839  -16.5416   23.9663 C   0  0  0  0  0  0  0  0  0  0  0  0
    8.3630  -16.3997   23.2072 O   0  0  0  0  0  0  0  0  0  0  0  0
    5.6175  -12.1032   26.3927 C   0  0  0  0  0  0  0  0  0  0  0  0
    6.6418  -12.9483   25.6171 C   0  0  0  0  0  0  0  0  0  0  0  0
    7.4198  -13.8479   26.5579 C   0  0  2  0  0  0  0  0  0  0  0  0
    8.4048  -13.0028   27.3310 C   0  0  0  0  0  0  0  0  0  0  0  0
    8.1136  -14.9677   25.8553 C   0  0  2  0  0  0  0  0  0  0  0  0
    7.1775  -15.8355   25.1439 N   0  0  0  0  0  0  0  0  0  0  0  0
    9.0519  -15.7472   26.6417 C   0  0  0  0  0  0  0  0  0  0  0  0
   10.0884  -15.1219   27.1072 O   0  0  0  0  0  0  0  0  0  0  0  0
    9.0006  -17.1137   26.9873 N   0  0  0  0  0  0  0  0  0  0  0  0
    9.9324  -17.6332   27.9916 C   0  0  0  0  0  0  0  0  0  0  0  0
   11.0684  -18.3243   27.3457 C   0  0  0  0  0  0  0  0  0  0  0  0
   12.0124  -19.0735   28.0176 O   0  0  0  0  0  0  0  0  0  0  0  0
   11.1733  -18.2163   26.1000 O   0  0  0  0  0  0  0  0  0  0  0  0
  2  3  2  0
  2  1  1  0
  4  2  1  0
  5  4  1  0
  5  6  1  1
  7 14  1  0
  7  5  1  0
  8  7  2  0
  9 10  1  0
 10 11  1  0
 11 12  1  6
 11 13  1  0
 13 14  1  1
 15 13  1  0
 15 17  1  0
 16 15  2  0
 18 17  1  0
 18 19  1  0
 19 20  1  0
 21 19  2  0
M  END
$$$$
