NIG.pdb
     RDKit          3D

 21 20  0  0  1  0  0  0  0  0999 V2000
   11.7620  -17.1084   13.9024 N   0  0  0  0  0  0  0  0  0  0  0  0
   10.8785  -17.3684   14.9755 C   0  0  0  0  0  0  0  0  0  0  0  0
    9.7788  -17.9430   14.7754 O   0  0  0  0  0  0  0  0  0  0  0  0
   11.2311  -16.9714   16.3420 C   0  0  0  0  0  0  0  0  0  0  0  0
   10.1679  -17.2857   17.3465 C   0  0  2  0  0  0  0  0  0  0  0  0
    8.8393  -17.2120   16.8443 N   0  0  0  0  0  0  0  0  0  0  0  0
   10.3505  -16.3056   18.4882 C   0  0  0  0  0  0  0  0  0  0  0  0
   11.5386  -15.9614   18.6460 O   0  0  0  0  0  0  0  0  0  0  0  0
    7.0313  -12.1403   19.5107 C   0  0  0  0  0  0  0  0  0  0  0  0
    8.3094  -12.9952   19.5355 C   0  0  0  0  0  0  0  0  0  0  0  0
    8.1989  -14.0983   20.5701 C   0  0  2  0  0  0  0  0  0  0  0  0
    8.1275  -13.4696   21.9418 C   0  0  0  0  0  0  0  0  0  0  0  0
    9.3162  -15.0856   20.4932 C   0  0  2  0  0  0  0  0  0  0  0  0
    9.2816  -15.8610   19.2550 N   0  0  0  0  0  0  0  0  0  0  0  0
    9.5009  -15.9502   21.6442 C   0  0  0  0  0  0  0  0  0  0  0  0
    8.5400  -16.7777   21.9164 O   0  0  0  0  0  0  0  0  0  0  0  0
   10.5970  -16.0297   22.5283 N   0  0  0  0  0  0  0  0  0  0  0  0
   10.5794  -17.0267   23.6019 C   0  0  0  0  0  0  0  0  0  0  0  0
   11.7564  -16.8702   24.4826 C   0  0  0  0  0  0  0  0  0  0  0  0
   11.9376  -17.5441   25.6729 O   0  0  0  0  0  0  0  0  0  0  0  0
   12.6469  -16.0668   24.1139 O   0  0  0  0  0  0  0  0  0  0  0  0
  2  3  2  0
  2  1  1  0
  4  2  1  0
  5  4  1  0
  5  6  1  6
  7 14  1  0
  7  5  1  0
  8  7  2  0
  9 10  1  0
 10 11  1  0
 11 12  1  1
 11 13  1  0
 13 14  1  6
 15 13  1  0
 15 17  1  0
 16 15  2  0
 18 17  1  0
 18 19  1  0
 19 20  1  0
 21 19  2  0
M  END
$$$$
