NIG.pdb
     RDKit          3D

 21 20  0  0  1  0  0  0  0  0999 V2000
    7.7038  -16.6288   18.7060 N   0  0  0  0  0  0  0  0  0  0  0  0
    7.4943  -17.3879   19.8806 C   0  0  0  0  0  0  0  0  0  0  0  0
    7.0710  -18.5694   19.8132 O   0  0  0  0  0  0  0  0  0  0  0  0
    7.7678  -16.8084   21.1992 C   0  0  0  0  0  0  0  0  0  0  0  0
    8.1818  -15.3718   21.1441 C   0  0  2  0  0  0  0  0  0  0  0  0
    9.1616  -15.0760   20.1565 N   0  0  0  0  0  0  0  0  0  0  0  0
    8.7061  -15.0214   22.5224 C   0  0  0  0  0  0  0  0  0  0  0  0
    9.9417  -15.1589   22.6202 O   0  0  0  0  0  0  0  0  0  0  0  0
    6.8007  -11.5015   27.2767 C   0  0  0  0  0  0  0  0  0  0  0  0
    7.7481  -12.6120   26.7928 C   0  0  0  0  0  0  0  0  0  0  0  0
    7.3580  -13.0859   25.4062 C   0  0  2  0  0  0  0  0  0  0  0  0
    5.9069  -13.5054   25.4288 C   0  0  0  0  0  0  0  0  0  0  0  0
    8.2252  -14.1911   24.9009 C   0  0  2  0  0  0  0  0  0  0  0  0
    7.8667  -14.5955   23.5432 N   0  0  0  0  0  0  0  0  0  0  0  0
    8.3765  -15.3467   25.7659 C   0  0  0  0  0  0  0  0  0  0  0  0
    7.2908  -15.9648   26.1142 O   0  0  0  0  0  0  0  0  0  0  0  0
    9.5559  -15.9137   26.2921 N   0  0  0  0  0  0  0  0  0  0  0  0
    9.4601  -17.1011   27.1452 C   0  0  0  0  0  0  0  0  0  0  0  0
   10.8001  -17.5323   27.5966 C   0  0  0  0  0  0  0  0  0  0  0  0
   11.9815  -16.9143   27.2414 O   0  0  0  0  0  0  0  0  0  0  0  0
   10.8571  -18.5303   28.3550 O   0  0  0  0  0  0  0  0  0  0  0  0
  2  3  2  0
  2  1  1  0
  4  2  1  0
  5  4  1  0
  5  6  1  6
  7 14  1  0
  7  5  1  0
  8  7  2  0
  9 10  1  0
 10 11  1  0
 11 12  1  1
 11 13  1  0
 13 14  1  6
 15 13  1  0
 15 17  1  0
 16 15  2  0
 18 17  1  0
 18 19  1  0
 19 20  1  0
 21 19  2  0
M  END
$$$$
