NIG.pdb
     RDKit          3D

 21 20  0  0  1  0  0  0  0  0999 V2000
   11.1307  -19.4926   16.1943 N   0  0  0  0  0  0  0  0  0  0  0  0
   11.0173  -18.1235   15.8587 C   0  0  0  0  0  0  0  0  0  0  0  0
   11.1603  -17.7411   14.6700 O   0  0  0  0  0  0  0  0  0  0  0  0
   10.7305  -17.1254   16.8935 C   0  0  0  0  0  0  0  0  0  0  0  0
   10.5771  -17.7126   18.2610 C   0  0  2  0  0  0  0  0  0  0  0  0
    9.3817  -18.4587   18.4537 N   0  0  0  0  0  0  0  0  0  0  0  0
   10.6332  -16.5537   19.2362 C   0  0  0  0  0  0  0  0  0  0  0  0
   11.7527  -16.0056   19.2737 O   0  0  0  0  0  0  0  0  0  0  0  0
    6.7674  -12.7631   19.5453 C   0  0  0  0  0  0  0  0  0  0  0  0
    8.1770  -13.3343   19.7726 C   0  0  0  0  0  0  0  0  0  0  0  0
    8.1716  -14.3475   20.9008 C   0  0  2  0  0  0  0  0  0  0  0  0
    7.8739  -13.6283   22.1954 C   0  0  0  0  0  0  0  0  0  0  0  0
    9.4461  -15.1187   20.9997 C   0  0  2  0  0  0  0  0  0  0  0  0
    9.5318  -16.1726   19.9910 N   0  0  0  0  0  0  0  0  0  0  0  0
    9.8003  -15.6246   22.3131 C   0  0  0  0  0  0  0  0  0  0  0  0
    9.8309  -14.7652   23.2840 O   0  0  0  0  0  0  0  0  0  0  0  0
   10.1185  -16.9429   22.7008 N   0  0  0  0  0  0  0  0  0  0  0  0
   10.3951  -17.2268   24.1114 C   0  0  0  0  0  0  0  0  0  0  0  0
   10.6473  -18.6689   24.3167 C   0  0  0  0  0  0  0  0  0  0  0  0
   10.8783  -19.2555   25.5440 O   0  0  0  0  0  0  0  0  0  0  0  0
   10.6495  -19.4023   23.2986 O   0  0  0  0  0  0  0  0  0  0  0  0
  2  3  2  0
  2  1  1  0
  4  2  1  0
  5  4  1  0
  5  6  1  6
  7 14  1  0
  7  5  1  0
  8  7  2  0
  9 10  1  0
 10 11  1  0
 11 12  1  1
 11 13  1  0
 13 14  1  6
 15 13  1  0
 15 17  1  0
 16 15  2  0
 18 17  1  0
 18 19  1  0
 19 20  1  0
 21 19  2  0
M  END
$$$$
