NIG.pdb
     RDKit          3D

 21 20  0  0  1  0  0  0  0  0999 V2000
    7.3557  -17.1950   19.5719 N   0  0  0  0  0  0  0  0  0  0  0  0
    7.7674  -15.8447   19.4884 C   0  0  0  0  0  0  0  0  0  0  0  0
    7.7699  -15.2425   18.3852 O   0  0  0  0  0  0  0  0  0  0  0  0
    8.1988  -15.1231   20.6894 C   0  0  0  0  0  0  0  0  0  0  0  0
    8.1809  -15.9630   21.9274 C   0  0  2  0  0  0  0  0  0  0  0  0
    6.8939  -16.4402   22.2999 N   0  0  0  0  0  0  0  0  0  0  0  0
    8.7629  -15.1089   23.0360 C   0  0  0  0  0  0  0  0  0  0  0  0
    9.9010  -14.6758   22.7673 O   0  0  0  0  0  0  0  0  0  0  0  0
    5.5071  -11.7280   25.7722 C   0  0  0  0  0  0  0  0  0  0  0  0
    6.7591  -12.3365   25.1186 C   0  0  0  0  0  0  0  0  0  0  0  0
    7.4004  -13.3608   26.0347 C   0  0  2  0  0  0  0  0  0  0  0  0
    7.8754  -12.6604   27.2860 C   0  0  0  0  0  0  0  0  0  0  0  0
    8.5176  -14.1078   25.3845 C   0  0  2  0  0  0  0  0  0  0  0  0
    8.0702  -14.8579   24.2129 N   0  0  0  0  0  0  0  0  0  0  0  0
    9.3381  -14.9346   26.2504 C   0  0  0  0  0  0  0  0  0  0  0  0
    9.7784  -14.3861   27.3400 O   0  0  0  0  0  0  0  0  0  0  0  0
    9.7328  -16.2782   26.0818 N   0  0  0  0  0  0  0  0  0  0  0  0
   10.4843  -16.9425   27.1499 C   0  0  0  0  0  0  0  0  0  0  0  0
   10.7790  -18.3456   26.7897 C   0  0  0  0  0  0  0  0  0  0  0  0
   10.7557  -18.8442   25.5033 O   0  0  0  0  0  0  0  0  0  0  0  0
   11.0693  -19.1300   27.7250 O   0  0  0  0  0  0  0  0  0  0  0  0
  2  3  2  0
  2  1  1  0
  4  2  1  0
  5  4  1  0
  5  6  1  1
  7 14  1  0
  7  5  1  0
  8  7  2  0
  9 10  1  0
 10 11  1  0
 11 12  1  1
 11 13  1  0
 13 14  1  6
 15 13  1  0
 15 17  1  0
 16 15  2  0
 18 17  1  0
 18 19  1  0
 19 20  1  0
 21 19  2  0
M  END
$$$$
