NIG.pdb
     RDKit          3D

 21 20  0  0  1  0  0  0  0  0999 V2000
    7.0162  -17.2731   18.9255 N   0  0  0  0  0  0  0  0  0  0  0  0
    6.5657  -17.4182   20.2581 C   0  0  0  0  0  0  0  0  0  0  0  0
    5.4709  -17.9834   20.5065 O   0  0  0  0  0  0  0  0  0  0  0  0
    7.3696  -16.9111   21.3742 C   0  0  0  0  0  0  0  0  0  0  0  0
    7.4377  -15.4176   21.4288 C   0  0  2  0  0  0  0  0  0  0  0  0
    7.9919  -14.8080   20.2694 N   0  0  0  0  0  0  0  0  0  0  0  0
    8.2653  -15.0683   22.6495 C   0  0  0  0  0  0  0  0  0  0  0  0
    9.4858  -14.9977   22.4035 O   0  0  0  0  0  0  0  0  0  0  0  0
    6.1303  -11.6614   26.1717 C   0  0  0  0  0  0  0  0  0  0  0  0
    7.2411  -12.3921   25.3991 C   0  0  0  0  0  0  0  0  0  0  0  0
    7.5763  -13.7148   26.0607 C   0  0  2  0  0  0  0  0  0  0  0  0
    8.3253  -13.4380   27.3431 C   0  0  0  0  0  0  0  0  0  0  0  0
    8.3547  -14.6305   25.1751 C   0  0  2  0  0  0  0  0  0  0  0  0
    7.6880  -14.8565   23.8945 N   0  0  0  0  0  0  0  0  0  0  0  0
    8.7958  -15.8830   25.7610 C   0  0  0  0  0  0  0  0  0  0  0  0
    7.8753  -16.7446   26.0649 O   0  0  0  0  0  0  0  0  0  0  0  0
   10.1069  -16.3146   26.0511 N   0  0  0  0  0  0  0  0  0  0  0  0
   10.3269  -17.7003   26.4735 C   0  0  0  0  0  0  0  0  0  0  0  0
   10.5415  -17.7757   27.9342 C   0  0  0  0  0  0  0  0  0  0  0  0
   10.7732  -18.9437   28.6313 O   0  0  0  0  0  0  0  0  0  0  0  0
   10.5090  -16.6980   28.5760 O   0  0  0  0  0  0  0  0  0  0  0  0
  2  3  2  0
  2  1  1  0
  4  2  1  0
  5  4  1  0
  5  6  1  6
  7 14  1  0
  7  5  1  0
  8  7  2  0
  9 10  1  0
 10 11  1  0
 11 12  1  1
 11 13  1  0
 13 14  1  6
 15 13  1  0
 15 17  1  0
 16 15  2  0
 18 17  1  0
 18 19  1  0
 19 20  1  0
 21 19  2  0
M  END
$$$$
