NIG.pdb
     RDKit          3D

 21 20  0  0  1  0  0  0  0  0999 V2000
    7.7457  -16.5684   18.1592 N   0  0  0  0  0  0  0  0  0  0  0  0
    6.9361  -16.4133   19.3083 C   0  0  0  0  0  0  0  0  0  0  0  0
    5.8490  -17.0350   19.4150 O   0  0  0  0  0  0  0  0  0  0  0  0
    7.3519  -15.5231   20.3963 C   0  0  0  0  0  0  0  0  0  0  0  0
    7.2895  -16.1639   21.7468 C   0  0  2  0  0  0  0  0  0  0  0  0
    5.9726  -16.3824   22.2376 N   0  0  0  0  0  0  0  0  0  0  0  0
    8.0552  -15.2573   22.6897 C   0  0  0  0  0  0  0  0  0  0  0  0
    9.1195  -14.8335   22.1969 O   0  0  0  0  0  0  0  0  0  0  0  0
    5.6214  -11.7855   25.9976 C   0  0  0  0  0  0  0  0  0  0  0  0
    6.7064  -12.4519   25.1353 C   0  0  0  0  0  0  0  0  0  0  0  0
    7.4573  -13.5014   25.9316 C   0  0  2  0  0  0  0  0  0  0  0  0
    8.2708  -12.8082   26.9992 C   0  0  0  0  0  0  0  0  0  0  0  0
    8.3232  -14.3711   25.0815 C   0  0  2  0  0  0  0  0  0  0  0  0
    7.5876  -14.9540   23.9614 N   0  0  0  0  0  0  0  0  0  0  0  0
    9.1085  -15.3790   25.7700 C   0  0  0  0  0  0  0  0  0  0  0  0
    8.6793  -15.7646   26.9315 O   0  0  0  0  0  0  0  0  0  0  0  0
   10.2935  -16.0199   25.3521 N   0  0  0  0  0  0  0  0  0  0  0  0
   10.9051  -17.0296   26.2201 C   0  0  0  0  0  0  0  0  0  0  0  0
   12.2689  -17.3628   25.7572 C   0  0  0  0  0  0  0  0  0  0  0  0
   12.8797  -16.8012   24.6547 O   0  0  0  0  0  0  0  0  0  0  0  0
   12.9076  -18.2164   26.4189 O   0  0  0  0  0  0  0  0  0  0  0  0
  2  3  2  0
  2  1  1  0
  4  2  1  0
  5  4  1  0
  5  6  1  1
  7 14  1  0
  7  5  1  0
  8  7  2  0
  9 10  1  0
 10 11  1  0
 11 12  1  1
 11 13  1  0
 13 14  1  6
 15 13  1  0
 15 17  1  0
 16 15  2  0
 18 17  1  0
 18 19  1  0
 19 20  1  0
 21 19  2  0
M  END
$$$$
