NIG.pdb
     RDKit          3D

 21 20  0  0  1  0  0  0  0  0999 V2000
    8.2547  -20.8399   17.4576 N   0  0  0  0  0  0  0  0  0  0  0  0
    8.1118  -20.7168   18.8591 C   0  0  0  0  0  0  0  0  0  0  0  0
    7.6160  -21.6517   19.5373 O   0  0  0  0  0  0  0  0  0  0  0  0
    8.5403  -19.4946   19.5459 C   0  0  0  0  0  0  0  0  0  0  0  0
    8.8698  -18.3719   18.6134 C   0  0  2  0  0  0  0  0  0  0  0  0
    9.8205  -18.6984   17.6072 N   0  0  0  0  0  0  0  0  0  0  0  0
    9.3874  -17.2358   19.4729 C   0  0  0  0  0  0  0  0  0  0  0  0
   10.6213  -17.0813   19.3801 O   0  0  0  0  0  0  0  0  0  0  0  0
    6.4194  -12.6034   19.8318 C   0  0  0  0  0  0  0  0  0  0  0  0
    7.6617  -13.5097   19.8114 C   0  0  0  0  0  0  0  0  0  0  0  0
    7.7740  -14.2979   21.1020 C   0  0  2  0  0  0  0  0  0  0  0  0
    7.9494  -13.3284   22.2472 C   0  0  0  0  0  0  0  0  0  0  0  0
    8.8785  -15.3022   21.0792 C   0  0  2  0  0  0  0  0  0  0  0  0
    8.5441  -16.4701   20.2670 N   0  0  0  0  0  0  0  0  0  0  0  0
    9.4229  -15.7000   22.3644 C   0  0  0  0  0  0  0  0  0  0  0  0
    9.9792  -14.7712   23.0785 O   0  0  0  0  0  0  0  0  0  0  0  0
    9.4328  -16.9745   22.9686 N   0  0  0  0  0  0  0  0  0  0  0  0
   10.0187  -17.1294   24.3026 C   0  0  0  0  0  0  0  0  0  0  0  0
   11.4729  -17.3792   24.2111 C   0  0  0  0  0  0  0  0  0  0  0  0
   12.0400  -18.4912   23.6232 O   0  0  0  0  0  0  0  0  0  0  0  0
   12.2364  -16.5146   24.7051 O   0  0  0  0  0  0  0  0  0  0  0  0
  2  3  2  0
  2  1  1  0
  4  2  1  0
  5  4  1  0
  5  6  1  6
  7 14  1  0
  7  5  1  0
  8  7  2  0
  9 10  1  0
 10 11  1  0
 11 12  1  1
 11 13  1  0
 13 14  1  1
 15 13  1  0
 15 17  1  0
 16 15  2  0
 18 17  1  0
 18 19  1  0
 19 20  1  0
 21 19  2  0
M  END
$$$$
