NIG.pdb
     RDKit          3D

 21 20  0  0  1  0  0  0  0  0999 V2000
    8.2632  -17.0379   19.5747 N   0  0  0  0  0  0  0  0  0  0  0  0
    7.4396  -17.4984   20.6280 C   0  0  0  0  0  0  0  0  0  0  0  0
    6.9002  -18.6323   20.5709 O   0  0  0  0  0  0  0  0  0  0  0  0
    7.2005  -16.6596   21.8063 C   0  0  0  0  0  0  0  0  0  0  0  0
    7.7320  -15.2683   21.6647 C   0  0  2  0  0  0  0  0  0  0  0  0
    8.6449  -15.0905   20.5887 N   0  0  0  0  0  0  0  0  0  0  0  0
    8.4021  -14.9271   22.9807 C   0  0  0  0  0  0  0  0  0  0  0  0
    9.6455  -15.0035   22.9255 O   0  0  0  0  0  0  0  0  0  0  0  0
    5.5556  -11.4075   26.0169 C   0  0  0  0  0  0  0  0  0  0  0  0
    6.7963  -12.0631   25.3879 C   0  0  0  0  0  0  0  0  0  0  0  0
    7.1927  -13.3103   26.1541 C   0  0  2  0  0  0  0  0  0  0  0  0
    7.7394  -12.8975   27.5004 C   0  0  0  0  0  0  0  0  0  0  0  0
    8.1738  -14.1613   25.4178 C   0  0  2  0  0  0  0  0  0  0  0  0
    7.6730  -14.5713   24.1076 N   0  0  0  0  0  0  0  0  0  0  0  0
    8.7265  -15.2916   26.1413 C   0  0  0  0  0  0  0  0  0  0  0  0
    9.3482  -15.0314   27.2494 O   0  0  0  0  0  0  0  0  0  0  0  0
    8.6828  -16.6628   25.8139 N   0  0  0  0  0  0  0  0  0  0  0  0
    9.1347  -17.6484   26.7993 C   0  0  0  0  0  0  0  0  0  0  0  0
   10.5607  -17.9798   26.5940 C   0  0  0  0  0  0  0  0  0  0  0  0
   11.2955  -18.8136   27.4119 O   0  0  0  0  0  0  0  0  0  0  0  0
   11.1341  -17.4625   25.6051 O   0  0  0  0  0  0  0  0  0  0  0  0
  2  3  2  0
  2  1  1  0
  4  2  1  0
  5  4  1  0
  5  6  1  6
  7 14  1  0
  7  5  1  0
  8  7  2  0
  9 10  1  0
 10 11  1  0
 11 12  1  1
 11 13  1  0
 13 14  1  6
 15 13  1  0
 15 17  1  0
 16 15  2  0
 18 17  1  0
 18 19  1  0
 19 20  1  0
 21 19  2  0
M  END
$$$$
