NIG.pdb
     RDKit          3D

 21 20  0  0  1  0  0  0  0  0999 V2000
   14.5294  -15.5966   14.9930 N   0  0  0  0  0  0  0  0  0  0  0  0
   13.1234  -15.6049   15.1442 C   0  0  0  0  0  0  0  0  0  0  0  0
   12.3928  -16.2000   14.3125 O   0  0  0  0  0  0  0  0  0  0  0  0
   12.4931  -14.9182   16.2758 C   0  0  0  0  0  0  0  0  0  0  0  0
   12.1384  -15.8333   17.4050 C   0  0  2  0  0  0  0  0  0  0  0  0
   11.0777  -16.7377   17.1226 N   0  0  0  0  0  0  0  0  0  0  0  0
   11.7714  -14.9471   18.5787 C   0  0  0  0  0  0  0  0  0  0  0  0
   12.7015  -14.1922   18.9253 O   0  0  0  0  0  0  0  0  0  0  0  0
    6.9677  -12.3725   18.9718 C   0  0  0  0  0  0  0  0  0  0  0  0
    8.4563  -12.6665   19.2214 C   0  0  0  0  0  0  0  0  0  0  0  0
    8.6217  -13.8230   20.1882 C   0  0  2  0  0  0  0  0  0  0  0  0
    8.0303  -13.4279   21.5209 C   0  0  0  0  0  0  0  0  0  0  0  0
   10.0418  -14.2573   20.3423 C   0  0  2  0  0  0  0  0  0  0  0  0
   10.5200  -14.9998   19.1781 N   0  0  0  0  0  0  0  0  0  0  0  0
   10.3818  -14.9449   21.5744 C   0  0  0  0  0  0  0  0  0  0  0  0
   10.0514  -14.3592   22.6834 O   0  0  0  0  0  0  0  0  0  0  0  0
   11.0285  -16.1862   21.7493 N   0  0  0  0  0  0  0  0  0  0  0  0
   11.2235  -16.7065   23.1050 C   0  0  0  0  0  0  0  0  0  0  0  0
   11.8281  -18.0550   23.0675 C   0  0  0  0  0  0  0  0  0  0  0  0
   12.0146  -18.8596   24.1728 O   0  0  0  0  0  0  0  0  0  0  0  0
   12.1940  -18.4896   21.9487 O   0  0  0  0  0  0  0  0  0  0  0  0
  2  3  2  0
  2  1  1  0
  4  2  1  0
  5  4  1  0
  5  6  1  6
  7 14  1  0
  7  5  1  0
  8  7  2  0
  9 10  1  0
 10 11  1  0
 11 12  1  1
 11 13  1  0
 13 14  1  6
 15 13  1  0
 15 17  1  0
 16 15  2  0
 18 17  1  0
 18 19  1  0
 19 20  1  0
 21 19  2  0
M  END
$$$$
