NIG.pdb
     RDKit          3D

 21 20  0  0  1  0  0  0  0  0999 V2000
    6.1954  -17.6279   19.8608 N   0  0  0  0  0  0  0  0  0  0  0  0
    6.0832  -18.0239   21.2137 C   0  0  0  0  0  0  0  0  0  0  0  0
    5.6887  -19.1792   21.5126 O   0  0  0  0  0  0  0  0  0  0  0  0
    6.4258  -17.0920   22.2922 C   0  0  0  0  0  0  0  0  0  0  0  0
    6.8407  -15.7407   21.8023 C   0  0  2  0  0  0  0  0  0  0  0  0
    7.5221  -15.7476   20.5539 N   0  0  0  0  0  0  0  0  0  0  0  0
    7.7268  -15.1456   22.8784 C   0  0  0  0  0  0  0  0  0  0  0  0
    8.9423  -15.2890   22.6393 O   0  0  0  0  0  0  0  0  0  0  0  0
    6.9976  -10.9239   27.4166 C   0  0  0  0  0  0  0  0  0  0  0  0
    7.8937  -11.9818   26.7512 C   0  0  0  0  0  0  0  0  0  0  0  0
    7.1035  -12.8058   25.7532 C   0  0  2  0  0  0  0  0  0  0  0  0
    5.9106  -13.4066   26.4588 C   0  0  0  0  0  0  0  0  0  0  0  0
    7.9218  -13.8651   25.0921 C   0  0  2  0  0  0  0  0  0  0  0  0
    7.2022  -14.5146   23.9985 N   0  0  0  0  0  0  0  0  0  0  0  0
    8.5419  -14.8466   25.9631 C   0  0  0  0  0  0  0  0  0  0  0  0
    9.3321  -14.3948   26.8869 O   0  0  0  0  0  0  0  0  0  0  0  0
    8.4061  -16.2505   25.9574 N   0  0  0  0  0  0  0  0  0  0  0  0
    8.9080  -17.0224   27.0972 C   0  0  0  0  0  0  0  0  0  0  0  0
   10.2289  -17.6114   26.7912 C   0  0  0  0  0  0  0  0  0  0  0  0
   10.9487  -18.4097   27.6564 O   0  0  0  0  0  0  0  0  0  0  0  0
   10.7216  -17.3627   25.6644 O   0  0  0  0  0  0  0  0  0  0  0  0
  2  3  2  0
  2  1  1  0
  4  2  1  0
  5  4  1  0
  5  6  1  6
  7 14  1  0
  7  5  1  0
  8  7  2  0
  9 10  1  0
 10 11  1  0
 11 12  1  1
 11 13  1  0
 13 14  1  6
 15 13  1  0
 15 17  1  0
 16 15  2  0
 18 17  1  0
 18 19  1  0
 19 20  1  0
 21 19  2  0
M  END
$$$$
