NIG.pdb
     RDKit          3D

 21 20  0  0  1  0  0  0  0  0999 V2000
    8.7581  -16.3256   18.2071 N   0  0  0  0  0  0  0  0  0  0  0  0
    7.9048  -16.2794   19.3339 C   0  0  0  0  0  0  0  0  0  0  0  0
    6.8068  -16.8910   19.3318 O   0  0  0  0  0  0  0  0  0  0  0  0
    8.2873  -15.5160   20.5256 C   0  0  0  0  0  0  0  0  0  0  0  0
    8.2282  -16.3152   21.7890 C   0  0  2  0  0  0  0  0  0  0  0  0
    6.9294  -16.7806   22.1343 N   0  0  0  0  0  0  0  0  0  0  0  0
    8.7740  -15.4250   22.8877 C   0  0  0  0  0  0  0  0  0  0  0  0
    9.9079  -14.9755   22.6287 O   0  0  0  0  0  0  0  0  0  0  0  0
    5.4594  -11.9324   25.4511 C   0  0  0  0  0  0  0  0  0  0  0  0
    6.7500  -12.5348   24.8711 C   0  0  0  0  0  0  0  0  0  0  0  0
    7.3015  -13.6097   25.7876 C   0  0  2  0  0  0  0  0  0  0  0  0
    7.6873  -12.9732   27.1021 C   0  0  0  0  0  0  0  0  0  0  0  0
    8.4547  -14.3488   25.1937 C   0  0  2  0  0  0  0  0  0  0  0  0
    8.0560  -15.1617   24.0466 N   0  0  0  0  0  0  0  0  0  0  0  0
    9.2803  -15.1122   26.1114 C   0  0  0  0  0  0  0  0  0  0  0  0
    9.8115  -14.4634   27.1008 O   0  0  0  0  0  0  0  0  0  0  0  0
    9.5941  -16.4872   26.0897 N   0  0  0  0  0  0  0  0  0  0  0  0
   10.4075  -17.0525   27.1694 C   0  0  0  0  0  0  0  0  0  0  0  0
   10.6657  -18.4890   26.9347 C   0  0  0  0  0  0  0  0  0  0  0  0
   11.0992  -19.3737   27.9008 O   0  0  0  0  0  0  0  0  0  0  0  0
   10.4747  -18.9248   25.7737 O   0  0  0  0  0  0  0  0  0  0  0  0
  2  3  2  0
  2  1  1  0
  4  2  1  0
  5  4  1  0
  5  6  1  1
  7 14  1  0
  7  5  1  0
  8  7  2  0
  9 10  1  0
 10 11  1  0
 11 12  1  1
 11 13  1  0
 13 14  1  6
 15 13  1  0
 15 17  1  0
 16 15  2  0
 18 17  1  0
 18 19  1  0
 19 20  1  0
 21 19  2  0
M  END
$$$$
