AQG.pdb
     RDKit          3D

 19 18  0  0  1  0  0  0  0  0999 V2000
   17.2006  -11.5586  -16.8577 C   0  0  0  0  0  0  0  0  0  0  0  0
   18.5703  -12.1757  -17.0404 C   0  0  2  0  0  0  0  0  0  0  0  0
   18.6011  -13.5441  -16.5945 N   0  0  0  0  0  0  0  0  0  0  0  0
   19.6349  -11.3567  -16.3859 C   0  0  0  0  0  0  0  0  0  0  0  0
   19.7641  -11.3251  -15.1356 O   0  0  0  0  0  0  0  0  0  0  0  0
   24.2641  -12.1987  -15.0266 N   0  0  0  0  0  0  0  0  0  0  0  0
   24.5188  -11.4817  -16.2161 C   0  0  0  0  0  0  0  0  0  0  0  0
   25.6171  -10.8924  -16.3375 O   0  0  0  0  0  0  0  0  0  0  0  0
   23.5398  -11.4011  -17.3203 C   0  0  0  0  0  0  0  0  0  0  0  0
   22.9345  -10.0369  -17.3564 C   0  0  0  0  0  0  0  0  0  0  0  0
   21.6841   -9.9342  -16.5034 C   0  0  2  0  0  0  0  0  0  0  0  0
   20.5533  -10.5739  -17.1410 N   0  0  0  0  0  0  0  0  0  0  0  0
   21.3756   -8.4968  -16.3598 C   0  0  0  0  0  0  0  0  0  0  0  0
   20.6565   -7.9390  -17.2196 O   0  0  0  0  0  0  0  0  0  0  0  0
   21.8862   -7.7415  -15.2564 N   0  0  0  0  0  0  0  0  0  0  0  0
   21.4502   -6.3663  -15.1126 C   0  0  0  0  0  0  0  0  0  0  0  0
   22.0729   -5.7108  -13.9451 C   0  0  0  0  0  0  0  0  0  0  0  0
   21.9038   -6.2040  -12.8056 O   0  0  0  0  0  0  0  0  0  0  0  0
   22.8250   -4.5701  -14.1484 O   0  0  0  0  0  0  0  0  0  0  0  0
  2  3  1  0
  2  1  1  1
  4  2  1  0
  5  4  2  0
  6  7  1  0
  7  8  2  0
  7  9  1  0
  9 10  1  0
 11 10  1  6
 11 13  1  0
 11 12  1  0
 12  4  1  0
 13 15  1  0
 14 13  2  0
 15 16  1  0
 17 19  1  0
 17 16  1  0
 18 17  2  0
M  END
$$$$
