AQG.pdb
     RDKit          3D

 19 18  0  0  1  0  0  0  0  0999 V2000
   27.2104  -20.4031  -16.9984 C   0  0  0  0  0  0  0  0  0  0  0  0
   27.5528  -21.4702  -15.9814 C   0  0  2  0  0  0  0  0  0  0  0  0
   27.9778  -22.6914  -16.6141 N   0  0  0  0  0  0  0  0  0  0  0  0
   26.4261  -21.7042  -15.0284 C   0  0  0  0  0  0  0  0  0  0  0  0
   25.6216  -22.6579  -15.1835 O   0  0  0  0  0  0  0  0  0  0  0  0
   26.2661  -20.0224   -8.9675 N   0  0  0  0  0  0  0  0  0  0  0  0
   25.0889  -20.7794   -9.1546 C   0  0  0  0  0  0  0  0  0  0  0  0
   24.4270  -21.1178   -8.1468 O   0  0  0  0  0  0  0  0  0  0  0  0
   24.6102  -21.1862  -10.4923 C   0  0  0  0  0  0  0  0  0  0  0  0
   25.6011  -20.7699  -11.5285 C   0  0  0  0  0  0  0  0  0  0  0  0
   25.1816  -21.1759  -12.9287 C   0  0  2  0  0  0  0  0  0  0  0  0
   26.2068  -20.8631  -13.9010 N   0  0  0  0  0  0  0  0  0  0  0  0
   23.9773  -20.3891  -13.2645 C   0  0  0  0  0  0  0  0  0  0  0  0
   24.1059  -19.1870  -13.5898 O   0  0  0  0  0  0  0  0  0  0  0  0
   22.6755  -20.9824  -13.2220 N   0  0  0  0  0  0  0  0  0  0  0  0
   21.5408  -20.1628  -13.5996 C   0  0  0  0  0  0  0  0  0  0  0  0
   20.2696  -20.9091  -13.5128 C   0  0  0  0  0  0  0  0  0  0  0  0
   20.2992  -22.1419  -13.2895 O   0  0  0  0  0  0  0  0  0  0  0  0
   19.0840  -20.2207  -13.6813 O   0  0  0  0  0  0  0  0  0  0  0  0
  2  3  1  0
  2  1  1  6
  4  2  1  0
  5  4  2  0
  6  7  1  0
  7  8  2  0
  7  9  1  0
  9 10  1  0
 11 10  1  1
 11 13  1  0
 11 12  1  0
 12  4  1  0
 13 15  1  0
 14 13  2  0
 15 16  1  0
 17 19  1  0
 17 16  1  0
 18 17  2  0
M  END
$$$$
