AQG.pdb
     RDKit          3D

 19 18  0  0  1  0  0  0  0  0999 V2000
   25.9892  -10.5164  -15.2036 C   0  0  0  0  0  0  0  0  0  0  0  0
   24.6623  -11.0283  -15.7207 C   0  0  2  0  0  0  0  0  0  0  0  0
   24.8231  -11.8035  -16.9230 N   0  0  0  0  0  0  0  0  0  0  0  0
   23.6785   -9.9191  -15.9054 C   0  0  0  0  0  0  0  0  0  0  0  0
   23.6942   -9.1906  -16.9301 O   0  0  0  0  0  0  0  0  0  0  0  0
   17.7280  -10.0806  -14.5987 N   0  0  0  0  0  0  0  0  0  0  0  0
   18.4478  -10.4992  -15.7391 C   0  0  0  0  0  0  0  0  0  0  0  0
   17.8930  -11.2808  -16.5450 O   0  0  0  0  0  0  0  0  0  0  0  0
   19.8284  -10.0502  -16.0162 C   0  0  0  0  0  0  0  0  0  0  0  0
   20.2806   -9.1219  -14.9380 C   0  0  0  0  0  0  0  0  0  0  0  0
   21.6870   -8.6031  -15.1712 C   0  0  2  0  0  0  0  0  0  0  0  0
   22.6774   -9.6315  -14.9350 N   0  0  0  0  0  0  0  0  0  0  0  0
   21.9142   -7.5166  -14.1966 C   0  0  0  0  0  0  0  0  0  0  0  0
   22.3390   -7.8018  -13.0540 O   0  0  0  0  0  0  0  0  0  0  0  0
   21.6557   -6.1520  -14.5427 N   0  0  0  0  0  0  0  0  0  0  0  0
   21.8868   -5.1378  -13.5329 C   0  0  0  0  0  0  0  0  0  0  0  0
   21.7346   -3.7738  -14.0779 C   0  0  0  0  0  0  0  0  0  0  0  0
   21.8921   -2.7909  -13.3166 O   0  0  0  0  0  0  0  0  0  0  0  0
   21.4223   -3.6255  -15.4152 O   0  0  0  0  0  0  0  0  0  0  0  0
  2  3  1  0
  2  1  1  6
  4  2  1  0
  5  4  2  0
  6  7  1  0
  7  8  2  0
  7  9  1  0
  9 10  1  0
 11 10  1  1
 11 13  1  0
 11 12  1  0
 12  4  1  0
 13 15  1  0
 14 13  2  0
 15 16  1  0
 17 19  1  0
 17 16  1  0
 18 17  2  0
M  END
$$$$
