AQG.pdb
     RDKit          3D

 19 18  0  0  1  0  0  0  0  0999 V2000
   26.6304  -24.7958  -16.3820 C   0  0  0  0  0  0  0  0  0  0  0  0
   25.4646  -24.3056  -15.5509 C   0  0  2  0  0  0  0  0  0  0  0  0
   24.3072  -25.1468  -15.7094 N   0  0  0  0  0  0  0  0  0  0  0  0
   25.1499  -22.8729  -15.8349 C   0  0  0  0  0  0  0  0  0  0  0  0
   24.8286  -22.4867  -16.9876 O   0  0  0  0  0  0  0  0  0  0  0  0
   22.6547  -21.6111  -12.3616 N   0  0  0  0  0  0  0  0  0  0  0  0
   21.9583  -20.8127  -13.2951 C   0  0  0  0  0  0  0  0  0  0  0  0
   20.7237  -20.9790  -13.4234 O   0  0  0  0  0  0  0  0  0  0  0  0
   22.6307  -19.7907  -14.1243 C   0  0  0  0  0  0  0  0  0  0  0  0
   24.1076  -19.8728  -13.9232 C   0  0  0  0  0  0  0  0  0  0  0  0
   24.8193  -20.5083  -15.1027 C   0  0  2  0  0  0  0  0  0  0  0  0
   25.1974  -21.8762  -14.8196 N   0  0  0  0  0  0  0  0  0  0  0  0
   26.0539  -19.7306  -15.3330 C   0  0  0  0  0  0  0  0  0  0  0  0
   27.0625  -19.9660  -14.6294 O   0  0  0  0  0  0  0  0  0  0  0  0
   26.1083  -18.7189  -16.3440 N   0  0  0  0  0  0  0  0  0  0  0  0
   27.3904  -18.1017  -16.6215 C   0  0  0  0  0  0  0  0  0  0  0  0
   27.7385  -18.1766  -18.0546 C   0  0  0  0  0  0  0  0  0  0  0  0
   27.8821  -19.3003  -18.5903 O   0  0  0  0  0  0  0  0  0  0  0  0
   27.8951  -16.9998  -18.7610 O   0  0  0  0  0  0  0  0  0  0  0  0
  2  3  1  0
  2  1  1  6
  4  2  1  0
  5  4  2  0
  6  7  1  0
  7  8  2  0
  7  9  1  0
  9 10  1  0
 11 10  1  1
 11 13  1  0
 11 12  1  0
 12  4  1  0
 13 15  1  0
 14 13  2  0
 15 16  1  0
 17 19  1  0
 17 16  1  0
 18 17  2  0
M  END
$$$$
