AQG.pdb
     RDKit          3D

 19 18  0  0  1  0  0  0  0  0999 V2000
   23.9687  -10.4671  -15.3288 C   0  0  0  0  0  0  0  0  0  0  0  0
   22.7378  -11.2109  -15.7997 C   0  0  2  0  0  0  0  0  0  0  0  0
   23.0824  -12.3571  -16.5996 N   0  0  0  0  0  0  0  0  0  0  0  0
   21.7862  -10.3056  -16.5119 C   0  0  0  0  0  0  0  0  0  0  0  0
   21.9631   -9.9804  -17.7135 O   0  0  0  0  0  0  0  0  0  0  0  0
   18.3821  -11.3335  -14.4693 N   0  0  0  0  0  0  0  0  0  0  0  0
   17.9770  -11.6452  -15.7855 C   0  0  0  0  0  0  0  0  0  0  0  0
   17.6602  -12.8273  -16.0514 O   0  0  0  0  0  0  0  0  0  0  0  0
   17.9130  -10.6307  -16.8584 C   0  0  0  0  0  0  0  0  0  0  0  0
   18.2719   -9.2914  -16.3052 C   0  0  0  0  0  0  0  0  0  0  0  0
   19.7138   -8.9142  -16.5881 C   0  0  2  0  0  0  0  0  0  0  0  0
   20.6358   -9.7671  -15.8692 N   0  0  0  0  0  0  0  0  0  0  0  0
   19.9010   -7.5301  -16.1073 C   0  0  0  0  0  0  0  0  0  0  0  0
   19.2214   -6.6106  -16.6174 O   0  0  0  0  0  0  0  0  0  0  0  0
   20.8439   -7.2320  -15.0725 N   0  0  0  0  0  0  0  0  0  0  0  0
   20.9207   -5.8656  -14.5942 C   0  0  0  0  0  0  0  0  0  0  0  0
   21.9790   -5.6968  -13.5783 C   0  0  0  0  0  0  0  0  0  0  0  0
   22.6353   -6.6981  -13.2079 O   0  0  0  0  0  0  0  0  0  0  0  0
   22.2119   -4.4348  -13.0671 O   0  0  0  0  0  0  0  0  0  0  0  0
  2  3  1  0
  2  1  1  6
  4  2  1  0
  5  4  2  0
  6  7  1  0
  7  8  2  0
  7  9  1  0
  9 10  1  0
 11 10  1  1
 11 13  1  0
 11 12  1  0
 12  4  1  0
 13 15  1  0
 14 13  2  0
 15 16  1  0
 17 19  1  0
 17 16  1  0
 18 17  2  0
M  END
$$$$
