AQG.pdb
     RDKit          3D

 19 18  0  0  1  0  0  0  0  0999 V2000
   26.6014  -33.4001   -8.8676 C   0  0  0  0  0  0  0  0  0  0  0  0
   25.2248  -33.1862   -8.2767 C   0  0  2  0  0  0  0  0  0  0  0  0
   24.6313  -31.9594   -8.7407 N   0  0  0  0  0  0  0  0  0  0  0  0
   25.2487  -33.2591   -6.7846 C   0  0  0  0  0  0  0  0  0  0  0  0
   25.3068  -32.2215   -6.0768 O   0  0  0  0  0  0  0  0  0  0  0  0
   21.5444  -33.9003   -2.7835 N   0  0  0  0  0  0  0  0  0  0  0  0
   22.8948  -34.0326   -2.3926 C   0  0  0  0  0  0  0  0  0  0  0  0
   23.4289  -33.0966   -1.7547 O   0  0  0  0  0  0  0  0  0  0  0  0
   23.6992  -35.2318   -2.7077 C   0  0  0  0  0  0  0  0  0  0  0  0
   23.9076  -35.3235   -4.1830 C   0  0  0  0  0  0  0  0  0  0  0  0
   25.1236  -34.5440   -4.6468 C   0  0  2  0  0  0  0  0  0  0  0  0
   25.2072  -34.5015   -6.0909 N   0  0  0  0  0  0  0  0  0  0  0  0
   26.3137  -35.2578   -4.1403 C   0  0  0  0  0  0  0  0  0  0  0  0
   26.6841  -36.3076   -4.7130 O   0  0  0  0  0  0  0  0  0  0  0  0
   27.0416  -34.7651   -3.0108 N   0  0  0  0  0  0  0  0  0  0  0  0
   28.2160  -35.5003   -2.5840 C   0  0  0  0  0  0  0  0  0  0  0  0
   29.4457  -34.9934   -3.2251 C   0  0  0  0  0  0  0  0  0  0  0  0
   29.3509  -34.2944   -4.2609 O   0  0  0  0  0  0  0  0  0  0  0  0
   30.6661  -35.3077   -2.6593 O   0  0  0  0  0  0  0  0  0  0  0  0
  2  3  1  0
  2  1  1  1
  4  2  1  0
  5  4  2  0
  6  7  1  0
  7  8  2  0
  7  9  1  0
  9 10  1  0
 11 10  1  6
 11 13  1  0
 11 12  1  0
 12  4  1  0
 13 15  1  0
 14 13  2  0
 15 16  1  0
 17 19  1  0
 17 16  1  0
 18 17  2  0
M  END
$$$$
