AQG.pdb
     RDKit          3D

 19 18  0  0  1  0  0  0  0  0999 V2000
   24.9591  -11.4627  -20.2037 C   0  0  0  0  0  0  0  0  0  0  0  0
   25.3053  -10.7000  -18.9434 C   0  0  2  0  0  0  0  0  0  0  0  0
   25.3692  -11.5681  -17.7968 N   0  0  0  0  0  0  0  0  0  0  0  0
   24.3720   -9.5551  -18.7188 C   0  0  0  0  0  0  0  0  0  0  0  0
   24.2486   -8.6324  -19.5639 O   0  0  0  0  0  0  0  0  0  0  0  0
   18.6221   -9.9885  -17.0789 N   0  0  0  0  0  0  0  0  0  0  0  0
   18.7857   -8.5957  -17.2444 C   0  0  0  0  0  0  0  0  0  0  0  0
   17.7632   -7.8770  -17.3230 O   0  0  0  0  0  0  0  0  0  0  0  0
   20.1156   -7.9565  -17.3279 C   0  0  0  0  0  0  0  0  0  0  0  0
   21.1777   -9.0054  -17.3330 C   0  0  0  0  0  0  0  0  0  0  0  0
   22.5738   -8.4171  -17.4118 C   0  0  2  0  0  0  0  0  0  0  0  0
   23.5783   -9.4508  -17.5417 N   0  0  0  0  0  0  0  0  0  0  0  0
   22.8143   -7.7024  -16.1416 C   0  0  0  0  0  0  0  0  0  0  0  0
   23.3913   -8.3008  -15.2055 O   0  0  0  0  0  0  0  0  0  0  0  0
   22.3976   -6.3437  -15.9718 N   0  0  0  0  0  0  0  0  0  0  0  0
   22.7732   -5.6641  -14.7474 C   0  0  0  0  0  0  0  0  0  0  0  0
   22.3882   -4.2387  -14.7688 C   0  0  0  0  0  0  0  0  0  0  0  0
   22.6447   -3.5219  -13.7734 O   0  0  0  0  0  0  0  0  0  0  0  0
   21.7551   -3.7400  -15.8906 O   0  0  0  0  0  0  0  0  0  0  0  0
  2  3  1  0
  2  1  1  6
  4  2  1  0
  5  4  2  0
  6  7  1  0
  7  8  2  0
  7  9  1  0
  9 10  1  0
 11 10  1  1
 11 13  1  0
 11 12  1  0
 12  4  1  0
 13 15  1  0
 14 13  2  0
 15 16  1  0
 17 19  1  0
 17 16  1  0
 18 17  2  0
M  END
$$$$
