AQG.pdb
     RDKit          3D

 19 18  0  0  1  0  0  0  0  0999 V2000
   22.0920  -12.2791  -16.9972 C   0  0  0  0  0  0  0  0  0  0  0  0
   20.6299  -11.9805  -17.2488 C   0  0  2  0  0  0  0  0  0  0  0  0
   20.1681  -12.5781  -18.4744 N   0  0  0  0  0  0  0  0  0  0  0  0
   20.3533  -10.5127  -17.2107 C   0  0  0  0  0  0  0  0  0  0  0  0
   20.5972   -9.7722  -18.1972 O   0  0  0  0  0  0  0  0  0  0  0  0
   15.4739   -7.7074  -14.9302 N   0  0  0  0  0  0  0  0  0  0  0  0
   15.7374   -8.1645  -16.2400 C   0  0  0  0  0  0  0  0  0  0  0  0
   14.7762   -8.3079  -17.0298 O   0  0  0  0  0  0  0  0  0  0  0  0
   17.1021   -8.4791  -16.7121 C   0  0  0  0  0  0  0  0  0  0  0  0
   18.0885   -8.1818  -15.6316 C   0  0  0  0  0  0  0  0  0  0  0  0
   19.5174   -8.4613  -16.0576 C   0  0  2  0  0  0  0  0  0  0  0  0
   19.8018   -9.8803  -16.0608 N   0  0  0  0  0  0  0  0  0  0  0  0
   20.3990   -7.8202  -15.0607 C   0  0  0  0  0  0  0  0  0  0  0  0
   20.8175   -8.4959  -14.0933 O   0  0  0  0  0  0  0  0  0  0  0  0
   20.7765   -6.4456  -15.1885 N   0  0  0  0  0  0  0  0  0  0  0  0
   21.6243   -5.8737  -14.1608 C   0  0  0  0  0  0  0  0  0  0  0  0
   21.9849   -4.4736  -14.4610 C   0  0  0  0  0  0  0  0  0  0  0  0
   21.6565   -3.9818  -15.5658 O   0  0  0  0  0  0  0  0  0  0  0  0
   22.6759   -3.7486  -13.5097 O   0  0  0  0  0  0  0  0  0  0  0  0
  2  3  1  0
  2  1  1  6
  4  2  1  0
  5  4  2  0
  6  7  1  0
  7  8  2  0
  7  9  1  0
  9 10  1  0
 11 10  1  1
 11 13  1  0
 11 12  1  0
 12  4  1  0
 13 15  1  0
 14 13  2  0
 15 16  1  0
 17 19  1  0
 17 16  1  0
 18 17  2  0
M  END
$$$$
