AQG.pdb
     RDKit          3D

 19 18  0  0  1  0  0  0  0  0999 V2000
   14.8579  -10.0426  -15.0154 C   0  0  0  0  0  0  0  0  0  0  0  0
   16.3181   -9.7270  -14.7738 C   0  0  2  0  0  0  0  0  0  0  0  0
   17.0055  -10.8301  -14.1549 N   0  0  0  0  0  0  0  0  0  0  0  0
   16.4867   -8.4632  -13.9949 C   0  0  0  0  0  0  0  0  0  0  0  0
   15.9755   -7.3809  -14.3798 O   0  0  0  0  0  0  0  0  0  0  0  0
   15.8809   -7.3845   -8.0877 N   0  0  0  0  0  0  0  0  0  0  0  0
   14.9676   -7.2627   -9.1577 C   0  0  0  0  0  0  0  0  0  0  0  0
   13.7436   -7.2098   -8.8983 O   0  0  0  0  0  0  0  0  0  0  0  0
   15.4015   -7.1954  -10.5689 C   0  0  0  0  0  0  0  0  0  0  0  0
   16.8903   -7.2786  -10.6411 C   0  0  0  0  0  0  0  0  0  0  0  0
   17.4088   -7.1768  -12.0631 C   0  0  2  0  0  0  0  0  0  0  0  0
   17.2314   -8.4200  -12.7824 N   0  0  0  0  0  0  0  0  0  0  0  0
   18.8574   -6.9010  -11.9766 C   0  0  0  0  0  0  0  0  0  0  0  0
   19.6435   -7.8437  -11.7298 O   0  0  0  0  0  0  0  0  0  0  0  0
   19.3672   -5.5777  -12.1703 N   0  0  0  0  0  0  0  0  0  0  0  0
   20.8038   -5.3878  -12.1247 C   0  0  0  0  0  0  0  0  0  0  0  0
   21.4040   -5.4037  -13.4737 C   0  0  0  0  0  0  0  0  0  0  0  0
   20.6962   -5.7348  -14.4533 O   0  0  0  0  0  0  0  0  0  0  0  0
   22.7325   -5.0514  -13.6122 O   0  0  0  0  0  0  0  0  0  0  0  0
  2  3  1  0
  2  1  1  1
  4  2  1  0
  5  4  2  0
  6  7  1  0
  7  8  2  0
  7  9  1  0
  9 10  1  0
 11 10  1  1
 11 13  1  0
 11 12  1  0
 12  4  1  0
 13 15  1  0
 14 13  2  0
 15 16  1  0
 17 19  1  0
 17 16  1  0
 18 17  2  0
M  END
$$$$
