AQG.pdb
     RDKit          3D

 19 18  0  0  1  0  0  0  0  0999 V2000
   14.6492  -10.3408  -15.3893 C   0  0  0  0  0  0  0  0  0  0  0  0
   15.6260  -11.4425  -15.7389 C   0  0  2  0  0  0  0  0  0  0  0  0
   15.2398  -12.7007  -15.1557 N   0  0  0  0  0  0  0  0  0  0  0  0
   17.0271  -11.0717  -15.3760 C   0  0  0  0  0  0  0  0  0  0  0  0
   17.4965  -11.3140  -14.2350 O   0  0  0  0  0  0  0  0  0  0  0  0
   22.0673  -11.7976  -18.6379 N   0  0  0  0  0  0  0  0  0  0  0  0
   21.7959  -12.4721  -17.4274 C   0  0  0  0  0  0  0  0  0  0  0  0
   22.3581  -13.5706  -17.2140 O   0  0  0  0  0  0  0  0  0  0  0  0
   20.8754  -11.9311  -16.4056 C   0  0  0  0  0  0  0  0  0  0  0  0
   20.2618  -10.6642  -16.9026 C   0  0  0  0  0  0  0  0  0  0  0  0
   19.2544  -10.0856  -15.9270 C   0  0  2  0  0  0  0  0  0  0  0  0
   17.8985  -10.4280  -16.2994 N   0  0  0  0  0  0  0  0  0  0  0  0
   19.3884   -8.6158  -15.9878 C   0  0  0  0  0  0  0  0  0  0  0  0
   18.8061   -7.9881  -16.9013 O   0  0  0  0  0  0  0  0  0  0  0  0
   20.1708   -7.9078  -15.0209 N   0  0  0  0  0  0  0  0  0  0  0  0
   20.2304   -6.4625  -15.1192 C   0  0  0  0  0  0  0  0  0  0  0  0
   21.1652   -5.8820  -14.1346 C   0  0  0  0  0  0  0  0  0  0  0  0
   21.3682   -4.6454  -14.1405 O   0  0  0  0  0  0  0  0  0  0  0  0
   21.7882   -6.7251  -13.2350 O   0  0  0  0  0  0  0  0  0  0  0  0
  2  3  1  0
  2  1  1  1
  4  2  1  0
  5  4  2  0
  6  7  1  0
  7  8  2  0
  7  9  1  0
  9 10  1  0
 11 10  1  6
 11 13  1  0
 11 12  1  0
 12  4  1  0
 13 15  1  0
 14 13  2  0
 15 16  1  0
 17 19  1  0
 17 16  1  0
 18 17  2  0
M  END
$$$$
