AQG.pdb
     RDKit          3D

 19 18  0  0  1  0  0  0  0  0999 V2000
   27.2131  -10.2606  -15.1909 C   0  0  0  0  0  0  0  0  0  0  0  0
   26.1267  -10.8178  -16.0850 C   0  0  2  0  0  0  0  0  0  0  0  0
   26.6718  -11.4117  -17.2777 N   0  0  0  0  0  0  0  0  0  0  0  0
   25.0931   -9.7870  -16.4033 C   0  0  0  0  0  0  0  0  0  0  0  0
   25.1882   -9.0529  -17.4197 O   0  0  0  0  0  0  0  0  0  0  0  0
   19.2055  -10.7629  -16.6075 N   0  0  0  0  0  0  0  0  0  0  0  0
   19.2532   -9.3741  -16.8583 C   0  0  0  0  0  0  0  0  0  0  0  0
   18.2284   -8.8099  -17.3051 O   0  0  0  0  0  0  0  0  0  0  0  0
   20.4647   -8.5638  -16.6135 C   0  0  0  0  0  0  0  0  0  0  0  0
   21.5722   -9.4463  -16.1409 C   0  0  0  0  0  0  0  0  0  0  0  0
   22.8837   -8.6995  -15.9873 C   0  0  2  0  0  0  0  0  0  0  0  0
   23.9526   -9.5841  -15.5759 N   0  0  0  0  0  0  0  0  0  0  0  0
   22.6868   -7.6940  -14.9233 C   0  0  0  0  0  0  0  0  0  0  0  0
   22.8293   -8.0363  -13.7275 O   0  0  0  0  0  0  0  0  0  0  0  0
   22.3375   -6.3433  -15.2430 N   0  0  0  0  0  0  0  0  0  0  0  0
   22.0763   -5.4299  -14.1479 C   0  0  0  0  0  0  0  0  0  0  0  0
   21.8268   -4.0551  -14.6255 C   0  0  0  0  0  0  0  0  0  0  0  0
   21.8811   -3.8162  -15.8545 O   0  0  0  0  0  0  0  0  0  0  0  0
   21.5403   -3.0728  -13.6975 O   0  0  0  0  0  0  0  0  0  0  0  0
  2  3  1  0
  2  1  1  6
  4  2  1  0
  5  4  2  0
  6  7  1  0
  7  8  2  0
  7  9  1  0
  9 10  1  0
 11 10  1  1
 11 13  1  0
 11 12  1  0
 12  4  1  0
 13 15  1  0
 14 13  2  0
 15 16  1  0
 17 19  1  0
 17 16  1  0
 18 17  2  0
M  END
$$$$
