AQG.pdb
     RDKit          3D

 19 18  0  0  1  0  0  0  0  0999 V2000
   15.0665  -10.5840  -15.4883 C   0  0  0  0  0  0  0  0  0  0  0  0
   16.3524  -10.7824  -14.7156 C   0  0  2  0  0  0  0  0  0  0  0  0
   16.1985  -11.7578  -13.6681 N   0  0  0  0  0  0  0  0  0  0  0  0
   16.8856   -9.4885  -14.1923 C   0  0  0  0  0  0  0  0  0  0  0  0
   16.5190   -9.0280  -13.0812 O   0  0  0  0  0  0  0  0  0  0  0  0
   22.6436   -7.4192  -14.4462 N   0  0  0  0  0  0  0  0  0  0  0  0
   21.9623   -6.4097  -13.7316 C   0  0  0  0  0  0  0  0  0  0  0  0
   22.6358   -5.5363  -13.1385 O   0  0  0  0  0  0  0  0  0  0  0  0
   20.4876   -6.3458  -13.6580 C   0  0  0  0  0  0  0  0  0  0  0  0
   19.8979   -7.5177  -14.3705 C   0  0  0  0  0  0  0  0  0  0  0  0
   18.3810   -7.4959  -14.3663 C   0  0  2  0  0  0  0  0  0  0  0  0
   17.8317   -8.7142  -14.9216 N   0  0  0  0  0  0  0  0  0  0  0  0
   17.9623   -6.3711  -15.2274 C   0  0  0  0  0  0  0  0  0  0  0  0
   18.0776   -6.4788  -16.4694 O   0  0  0  0  0  0  0  0  0  0  0  0
   17.4304   -5.1692  -14.6608 N   0  0  0  0  0  0  0  0  0  0  0  0
   17.0270   -4.1103  -15.5651 C   0  0  0  0  0  0  0  0  0  0  0  0
   16.5944   -2.9003  -14.8377 C   0  0  0  0  0  0  0  0  0  0  0  0
   16.5009   -2.9394  -13.5886 O   0  0  0  0  0  0  0  0  0  0  0  0
   16.3057   -1.7597  -15.5613 O   0  0  0  0  0  0  0  0  0  0  0  0
  2  3  1  0
  2  1  1  1
  4  2  1  0
  5  4  2  0
  6  7  1  0
  7  8  2  0
  7  9  1  0
  9 10  1  0
 11 10  1  6
 11 13  1  0
 11 12  1  0
 12  4  1  0
 13 15  1  0
 14 13  2  0
 15 16  1  0
 17 19  1  0
 17 16  1  0
 18 17  2  0
M  END
$$$$
