NNI.pdb
     RDKit          3D

 25 24  0  0  1  0  0  0  0  0999 V2000
    8.2921  -12.3671   16.7717 N   0  0  0  0  0  0  0  0  0  0  0  0
    8.0636  -13.7492   16.9628 C   0  0  0  0  0  0  0  0  0  0  0  0
    8.3126  -14.5445   16.0351 O   0  0  0  0  0  0  0  0  0  0  0  0
    7.5385  -14.2531   18.2369 C   0  0  0  0  0  0  0  0  0  0  0  0
    8.6855  -14.3393   19.2375 C   0  0  2  0  0  0  0  0  0  0  0  0
    9.6800  -15.2407   18.7131 N   0  0  0  0  0  0  0  0  0  0  0  0
    8.1365  -14.7618   20.5270 C   0  0  0  0  0  0  0  0  0  0  0  0
    7.2655  -14.0629   21.1057 O   0  0  0  0  0  0  0  0  0  0  0  0
    8.6116  -19.4447   20.7378 N   0  0  0  0  0  0  0  0  0  0  0  0
    7.8739  -18.7367   21.6927 C   0  0  0  0  0  0  0  0  0  0  0  0
    6.6209  -18.9063   21.7068 O   0  0  0  0  0  0  0  0  0  0  0  0
    8.4145  -17.7996   22.6993 C   0  0  0  0  0  0  0  0  0  0  0  0
    8.0076  -16.3665   22.4657 C   0  0  2  0  0  0  0  0  0  0  0  0
    8.5418  -15.9531   21.1868 N   0  0  0  0  0  0  0  0  0  0  0  0
    8.6529  -15.5310   23.5225 C   0  0  0  0  0  0  0  0  0  0  0  0
    9.8794  -15.3312   23.4838 O   0  0  0  0  0  0  0  0  0  0  0  0
    5.7660  -12.1963   27.2527 C   0  0  0  0  0  0  0  0  0  0  0  0
    6.4717  -13.3904   26.6762 C   0  0  0  0  0  0  0  0  0  0  0  0
    7.6763  -12.9606   25.8845 C   0  0  2  0  0  0  0  0  0  0  0  0
    7.2453  -12.2016   24.6650 C   0  0  0  0  0  0  0  0  0  0  0  0
    8.5928  -14.1167   25.5457 C   0  0  2  0  0  0  0  0  0  0  0  0
    7.9133  -14.9484   24.5825 N   0  0  0  0  0  0  0  0  0  0  0  0
    8.9525  -14.9189   26.7240 C   0  0  0  0  0  0  0  0  0  0  0  0
    9.6906  -14.4107   27.6038 O   0  0  0  0  0  0  0  0  0  0  0  0
    8.5319  -16.2221   26.9464 O   0  0  0  0  0  0  0  0  0  0  0  0
  2  3  2  0
  2  1  1  0
  4  2  1  0
  5  4  1  0
  5  6  1  6
  7  5  1  0
  8  7  2  0
  9 10  1  0
 10 12  1  0
 11 10  2  0
 13 12  1  1
 13 14  1  0
 14  7  1  0
 15 22  1  0
 15 13  1  0
 16 15  2  0
 18 17  1  0
 19 21  1  0
 19 18  1  0
 19 20  1  6
 21 23  1  0
 21 22  1  6
 23 25  1  0
 24 23  2  0
M  END
$$$$
