NNI.pdb
     RDKit          3D

 25 24  0  0  1  0  0  0  0  0999 V2000
    9.1215  -12.7775   17.6856 N   0  0  0  0  0  0  0  0  0  0  0  0
    8.1514  -13.7632   17.3920 C   0  0  0  0  0  0  0  0  0  0  0  0
    7.9608  -14.1000   16.2065 O   0  0  0  0  0  0  0  0  0  0  0  0
    7.3711  -14.3900   18.4648 C   0  0  0  0  0  0  0  0  0  0  0  0
    8.2684  -15.3698   19.2125 C   0  0  2  0  0  0  0  0  0  0  0  0
    8.4689  -16.5291   18.3804 N   0  0  0  0  0  0  0  0  0  0  0  0
    7.6396  -15.6759   20.4985 C   0  0  0  0  0  0  0  0  0  0  0  0
    6.3864  -15.7121   20.5996 O   0  0  0  0  0  0  0  0  0  0  0  0
    6.6681  -17.5291   25.3485 N   0  0  0  0  0  0  0  0  0  0  0  0
    7.4552  -18.2606   24.4526 C   0  0  0  0  0  0  0  0  0  0  0  0
    7.7104  -19.4638   24.7463 O   0  0  0  0  0  0  0  0  0  0  0  0
    8.0261  -17.7663   23.1824 C   0  0  0  0  0  0  0  0  0  0  0  0
    7.7657  -16.3015   22.9363 C   0  0  2  0  0  0  0  0  0  0  0  0
    8.3840  -15.9429   21.6789 N   0  0  0  0  0  0  0  0  0  0  0  0
    8.4474  -15.5290   24.0178 C   0  0  0  0  0  0  0  0  0  0  0  0
    9.6895  -15.5006   24.0630 O   0  0  0  0  0  0  0  0  0  0  0  0
    5.8447  -11.9173   27.6875 C   0  0  0  0  0  0  0  0  0  0  0  0
    6.2733  -13.0329   26.7776 C   0  0  0  0  0  0  0  0  0  0  0  0
    7.6206  -12.7371   26.1778 C   0  0  2  0  0  0  0  0  0  0  0  0
    7.4590  -11.9250   24.9274 C   0  0  0  0  0  0  0  0  0  0  0  0
    8.4420  -13.9875   25.9468 C   0  0  2  0  0  0  0  0  0  0  0  0
    7.7256  -14.8167   25.0086 N   0  0  0  0  0  0  0  0  0  0  0  0
    8.6871  -14.7413   27.1849 C   0  0  0  0  0  0  0  0  0  0  0  0
    8.1446  -15.8644   27.3310 O   0  0  0  0  0  0  0  0  0  0  0  0
    9.4882  -14.3007   28.2284 O   0  0  0  0  0  0  0  0  0  0  0  0
  2  3  2  0
  2  1  1  0
  4  2  1  0
  5  4  1  0
  5  6  1  6
  7  5  1  0
  8  7  2  0
  9 10  1  0
 10 12  1  0
 11 10  2  0
 13 12  1  1
 13 14  1  0
 14  7  1  0
 15 22  1  0
 15 13  1  0
 16 15  2  0
 18 17  1  0
 19 21  1  0
 19 18  1  0
 19 20  1  6
 21 23  1  0
 21 22  1  6
 23 25  1  0
 24 23  2  0
M  END
$$$$
