NNI.pdb
     RDKit          3D

 25 24  0  0  1  0  0  0  0  0999 V2000
    9.6349  -14.6201   16.8678 N   0  0  0  0  0  0  0  0  0  0  0  0
    8.4539  -13.8800   17.1054 C   0  0  0  0  0  0  0  0  0  0  0  0
    8.0567  -13.0691   16.2453 O   0  0  0  0  0  0  0  0  0  0  0  0
    7.6957  -14.0572   18.3490 C   0  0  0  0  0  0  0  0  0  0  0  0
    8.6455  -14.5540   19.4331 C   0  0  2  0  0  0  0  0  0  0  0  0
    9.3267  -15.7241   18.9398 N   0  0  0  0  0  0  0  0  0  0  0  0
    7.8651  -14.8009   20.6467 C   0  0  0  0  0  0  0  0  0  0  0  0
    7.1923  -13.8749   21.1680 O   0  0  0  0  0  0  0  0  0  0  0  0
    6.5756  -19.3180   24.6936 N   0  0  0  0  0  0  0  0  0  0  0  0
    6.2630  -18.1835   23.9371 C   0  0  0  0  0  0  0  0  0  0  0  0
    5.3694  -17.4095   24.3860 O   0  0  0  0  0  0  0  0  0  0  0  0
    6.8771  -17.7911   22.6515 C   0  0  0  0  0  0  0  0  0  0  0  0
    7.0740  -16.3028   22.5091 C   0  0  2  0  0  0  0  0  0  0  0  0
    7.8206  -16.0653   21.2933 N   0  0  0  0  0  0  0  0  0  0  0  0
    7.9107  -15.8414   23.6572 C   0  0  0  0  0  0  0  0  0  0  0  0
    9.1444  -15.9903   23.6170 O   0  0  0  0  0  0  0  0  0  0  0  0
    5.8821  -11.7144   26.5843 C   0  0  0  0  0  0  0  0  0  0  0  0
    6.7696  -12.5963   25.7532 C   0  0  0  0  0  0  0  0  0  0  0  0
    7.4022  -13.6622   26.6055 C   0  0  2  0  0  0  0  0  0  0  0  0
    8.2013  -13.0318   27.7071 C   0  0  0  0  0  0  0  0  0  0  0  0
    8.2193  -14.6461   25.7957 C   0  0  2  0  0  0  0  0  0  0  0  0
    7.3476  -15.2318   24.8067 N   0  0  0  0  0  0  0  0  0  0  0  0
    8.8110  -15.7075   26.6229 C   0  0  0  0  0  0  0  0  0  0  0  0
    8.1294  -16.7307   26.8788 O   0  0  0  0  0  0  0  0  0  0  0  0
   10.0915  -15.6679   27.1554 O   0  0  0  0  0  0  0  0  0  0  0  0
  2  3  2  0
  2  1  1  0
  4  2  1  0
  5  4  1  0
  5  6  1  6
  7  5  1  0
  8  7  2  0
  9 10  1  0
 10 12  1  0
 11 10  2  0
 13 12  1  1
 13 14  1  0
 14  7  1  0
 15 22  1  0
 15 13  1  0
 16 15  2  0
 18 17  1  0
 19 21  1  0
 19 18  1  0
 19 20  1  1
 21 23  1  0
 21 22  1  6
 23 25  1  0
 24 23  2  0
M  END
$$$$
