NNI.pdb
     RDKit          3D

 25 24  0  0  1  0  0  0  0  0999 V2000
    8.4978  -12.7292   16.9730 N   0  0  0  0  0  0  0  0  0  0  0  0
    7.9962  -14.0341   17.1846 C   0  0  0  0  0  0  0  0  0  0  0  0
    8.0962  -14.8826   16.2762 O   0  0  0  0  0  0  0  0  0  0  0  0
    7.3621  -14.3963   18.4572 C   0  0  0  0  0  0  0  0  0  0  0  0
    8.4531  -14.6451   19.4925 C   0  0  2  0  0  0  0  0  0  0  0  0
    9.2904  -15.7194   19.0221 N   0  0  0  0  0  0  0  0  0  0  0  0
    7.8092  -14.9260   20.7768 C   0  0  0  0  0  0  0  0  0  0  0  0
    7.0337  -14.0829   21.2959 O   0  0  0  0  0  0  0  0  0  0  0  0
    5.7745  -18.2998   24.8746 N   0  0  0  0  0  0  0  0  0  0  0  0
    7.1019  -18.2394   24.4372 C   0  0  0  0  0  0  0  0  0  0  0  0
    8.0061  -18.5343   25.2707 O   0  0  0  0  0  0  0  0  0  0  0  0
    7.5625  -17.8620   23.0848 C   0  0  0  0  0  0  0  0  0  0  0  0
    7.4239  -16.3892   22.7920 C   0  0  2  0  0  0  0  0  0  0  0  0
    8.0146  -16.1337   21.4967 N   0  0  0  0  0  0  0  0  0  0  0  0
    8.2202  -15.6442   23.8128 C   0  0  0  0  0  0  0  0  0  0  0  0
    9.4615  -15.7117   23.7925 O   0  0  0  0  0  0  0  0  0  0  0  0
    5.8209  -11.5977   26.9827 C   0  0  0  0  0  0  0  0  0  0  0  0
    6.4184  -12.9379   26.6615 C   0  0  0  0  0  0  0  0  0  0  0  0
    7.7513  -12.7731   25.9841 C   0  0  2  0  0  0  0  0  0  0  0  0
    7.5950  -11.9591   24.7343 C   0  0  0  0  0  0  0  0  0  0  0  0
    8.4393  -14.0962   25.7240 C   0  0  2  0  0  0  0  0  0  0  0  0
    7.6097  -14.8521   24.8177 N   0  0  0  0  0  0  0  0  0  0  0  0
    8.6608  -14.8711   26.9534 C   0  0  0  0  0  0  0  0  0  0  0  0
    9.4544  -14.4256   27.8188 O   0  0  0  0  0  0  0  0  0  0  0  0
    8.0492  -16.0829   27.2402 O   0  0  0  0  0  0  0  0  0  0  0  0
  2  3  2  0
  2  1  1  0
  4  2  1  0
  5  4  1  0
  5  6  1  6
  7  5  1  0
  8  7  2  0
  9 10  1  0
 10 12  1  0
 11 10  2  0
 13 12  1  1
 13 14  1  0
 14  7  1  0
 15 22  1  0
 15 13  1  0
 16 15  2  0
 18 17  1  0
 19 21  1  0
 19 18  1  0
 19 20  1  6
 21 23  1  0
 21 22  1  6
 23 25  1  0
 24 23  2  0
M  END
$$$$
