NNI.pdb
     RDKit          3D

 25 24  0  0  1  0  0  0  0  0999 V2000
    8.7411  -12.6689   17.6810 N   0  0  0  0  0  0  0  0  0  0  0  0
    8.0306  -13.8252   17.2844 C   0  0  0  0  0  0  0  0  0  0  0  0
    8.0258  -14.1581   16.0826 O   0  0  0  0  0  0  0  0  0  0  0  0
    7.3025  -14.6325   18.2697 C   0  0  0  0  0  0  0  0  0  0  0  0
    7.4810  -14.0008   19.6457 C   0  0  2  0  0  0  0  0  0  0  0  0
    8.6478  -13.1559   19.6106 N   0  0  0  0  0  0  0  0  0  0  0  0
    7.5686  -15.0765   20.6347 C   0  0  0  0  0  0  0  0  0  0  0  0
    6.5980  -15.8564   20.8120 O   0  0  0  0  0  0  0  0  0  0  0  0
    8.6293  -19.2879   21.2457 N   0  0  0  0  0  0  0  0  0  0  0  0
    9.5209  -18.2151   21.1388 C   0  0  0  0  0  0  0  0  0  0  0  0
   10.0952  -18.0410   20.0257 O   0  0  0  0  0  0  0  0  0  0  0  0
    9.8652  -17.2523   22.2056 C   0  0  0  0  0  0  0  0  0  0  0  0
    8.7620  -16.2691   22.5066 C   0  0  2  0  0  0  0  0  0  0  0  0
    8.7222  -15.3001   21.4336 N   0  0  0  0  0  0  0  0  0  0  0  0
    9.1251  -15.5464   23.7624 C   0  0  0  0  0  0  0  0  0  0  0  0
   10.3226  -15.3576   24.0381 O   0  0  0  0  0  0  0  0  0  0  0  0
    5.8175  -11.7664   25.7333 C   0  0  0  0  0  0  0  0  0  0  0  0
    6.9670  -12.6054   25.2528 C   0  0  0  0  0  0  0  0  0  0  0  0
    7.4506  -13.5155   26.3485 C   0  0  2  0  0  0  0  0  0  0  0  0
    7.8334  -12.7096   27.5540 C   0  0  0  0  0  0  0  0  0  0  0  0
    8.5666  -14.4317   25.8937 C   0  0  2  0  0  0  0  0  0  0  0  0
    8.1461  -15.0600   24.6651 N   0  0  0  0  0  0  0  0  0  0  0  0
    8.8940  -15.4630   26.8888 C   0  0  0  0  0  0  0  0  0  0  0  0
    8.2258  -16.5262   26.9057 O   0  0  0  0  0  0  0  0  0  0  0  0
    9.9055  -15.3529   27.8320 O   0  0  0  0  0  0  0  0  0  0  0  0
  2  3  2  0
  2  1  1  0
  4  2  1  0
  5  4  1  0
  5  6  1  6
  7  5  1  0
  8  7  2  0
  9 10  1  0
 10 12  1  0
 11 10  2  0
 13 12  1  6
 13 14  1  0
 14  7  1  0
 15 22  1  0
 15 13  1  0
 16 15  2  0
 18 17  1  0
 19 21  1  0
 19 18  1  0
 19 20  1  1
 21 23  1  0
 21 22  1  6
 23 25  1  0
 24 23  2  0
M  END
$$$$
