NNI.pdb
     RDKit          3D

 25 24  0  0  1  0  0  0  0  0999 V2000
    7.9163  -19.5886   17.3020 N   0  0  0  0  0  0  0  0  0  0  0  0
    8.1056  -18.1894   17.3760 C   0  0  0  0  0  0  0  0  0  0  0  0
    8.9625  -17.6487   16.6489 O   0  0  0  0  0  0  0  0  0  0  0  0
    7.3066  -17.3725   18.2963 C   0  0  0  0  0  0  0  0  0  0  0  0
    8.2457  -16.6935   19.2869 C   0  0  2  0  0  0  0  0  0  0  0  0
    9.4988  -17.4050   19.2868 N   0  0  0  0  0  0  0  0  0  0  0  0
    7.5892  -16.6673   20.5950 C   0  0  0  0  0  0  0  0  0  0  0  0
    6.4879  -16.0776   20.7408 O   0  0  0  0  0  0  0  0  0  0  0  0
    6.0094  -18.3623   25.6967 N   0  0  0  0  0  0  0  0  0  0  0  0
    7.2976  -18.4992   25.1687 C   0  0  0  0  0  0  0  0  0  0  0  0
    8.2557  -18.6119   25.9863 O   0  0  0  0  0  0  0  0  0  0  0  0
    7.6590  -18.5261   23.7361 C   0  0  0  0  0  0  0  0  0  0  0  0
    7.5411  -17.1827   23.0612 C   0  0  2  0  0  0  0  0  0  0  0  0
    8.1394  -17.2881   21.7486 N   0  0  0  0  0  0  0  0  0  0  0  0
    8.3441  -16.2026   23.8524 C   0  0  0  0  0  0  0  0  0  0  0  0
    9.5765  -16.1502   23.6964 O   0  0  0  0  0  0  0  0  0  0  0  0
    6.1052  -11.8432   26.8336 C   0  0  0  0  0  0  0  0  0  0  0  0
    6.6101  -13.2153   26.4891 C   0  0  0  0  0  0  0  0  0  0  0  0
    7.9017  -13.1258   25.7233 C   0  0  2  0  0  0  0  0  0  0  0  0
    7.6661  -12.4737   24.3935 C   0  0  0  0  0  0  0  0  0  0  0  0
    8.5931  -14.4658   25.5899 C   0  0  2  0  0  0  0  0  0  0  0  0
    7.7498  -15.3174   24.7869 N   0  0  0  0  0  0  0  0  0  0  0  0
    8.8458  -15.1050   26.8894 C   0  0  0  0  0  0  0  0  0  0  0  0
    8.1793  -16.1207   27.2077 O   0  0  0  0  0  0  0  0  0  0  0  0
    9.7832  -14.6656   27.8129 O   0  0  0  0  0  0  0  0  0  0  0  0
  2  3  2  0
  2  1  1  0
  4  2  1  0
  5  4  1  0
  5  6  1  1
  7  5  1  0
  8  7  2  0
  9 10  1  0
 10 12  1  0
 11 10  2  0
 13 12  1  1
 13 14  1  0
 14  7  1  0
 15 22  1  0
 15 13  1  0
 16 15  2  0
 18 17  1  0
 19 21  1  0
 19 18  1  0
 19 20  1  6
 21 23  1  0
 21 22  1  6
 23 25  1  0
 24 23  2  0
M  END
$$$$
