NNI.pdb
     RDKit          3D

 25 24  0  0  1  0  0  0  0  0999 V2000
    9.2021  -13.1036   17.0678 N   0  0  0  0  0  0  0  0  0  0  0  0
    7.8403  -13.3800   17.3285 C   0  0  0  0  0  0  0  0  0  0  0  0
    7.0023  -13.2419   16.4152 O   0  0  0  0  0  0  0  0  0  0  0  0
    7.4068  -13.8256   18.6575 C   0  0  0  0  0  0  0  0  0  0  0  0
    8.6365  -13.9816   19.5450 C   0  0  2  0  0  0  0  0  0  0  0  0
    9.6203  -14.7528   18.8281 N   0  0  0  0  0  0  0  0  0  0  0  0
    8.2162  -14.5977   20.8046 C   0  0  0  0  0  0  0  0  0  0  0  0
    7.2561  -14.1149   21.4580 O   0  0  0  0  0  0  0  0  0  0  0  0
    9.1826  -19.1546   20.4346 N   0  0  0  0  0  0  0  0  0  0  0  0
    8.4604  -18.6636   21.5276 C   0  0  0  0  0  0  0  0  0  0  0  0
    7.2447  -18.9981   21.6229 O   0  0  0  0  0  0  0  0  0  0  0  0
    8.9782  -17.7834   22.5957 C   0  0  0  0  0  0  0  0  0  0  0  0
    8.3953  -16.3930   22.5639 C   0  0  2  0  0  0  0  0  0  0  0  0
    8.8486  -15.7462   21.3522 N   0  0  0  0  0  0  0  0  0  0  0  0
    8.9560  -15.6365   23.7234 C   0  0  0  0  0  0  0  0  0  0  0  0
   10.1437  -15.2694   23.7008 O   0  0  0  0  0  0  0  0  0  0  0  0
    6.1426  -11.8109   25.9401 C   0  0  0  0  0  0  0  0  0  0  0  0
    7.2021  -12.7209   25.3874 C   0  0  0  0  0  0  0  0  0  0  0  0
    7.7618  -13.5997   26.4724 C   0  0  2  0  0  0  0  0  0  0  0  0
    8.3033  -12.7563   27.5881 C   0  0  0  0  0  0  0  0  0  0  0  0
    8.7846  -14.5868   25.9519 C   0  0  2  0  0  0  0  0  0  0  0  0
    8.1782  -15.3155   24.8644 N   0  0  0  0  0  0  0  0  0  0  0  0
    9.2395  -15.5290   26.9845 C   0  0  0  0  0  0  0  0  0  0  0  0
    8.6438  -16.6273   27.1110 O   0  0  0  0  0  0  0  0  0  0  0  0
   10.2985  -15.2963   27.8500 O   0  0  0  0  0  0  0  0  0  0  0  0
  2  3  2  0
  2  1  1  0
  4  2  1  0
  5  4  1  0
  5  6  1  6
  7  5  1  0
  8  7  2  0
  9 10  1  0
 10 12  1  0
 11 10  2  0
 13 12  1  6
 13 14  1  0
 14  7  1  0
 15 22  1  0
 15 13  1  0
 16 15  2  0
 18 17  1  0
 19 21  1  0
 19 18  1  0
 19 20  1  1
 21 23  1  0
 21 22  1  6
 23 25  1  0
 24 23  2  0
M  END
$$$$
