NNI.pdb
     RDKit          3D

 25 24  0  0  1  0  0  0  0  0999 V2000
   12.1244  -17.8919   18.0572 N   0  0  0  0  0  0  0  0  0  0  0  0
   10.9017  -17.4046   17.5410 C   0  0  0  0  0  0  0  0  0  0  0  0
   10.7665  -17.2750   16.3081 O   0  0  0  0  0  0  0  0  0  0  0  0
    9.7964  -17.0517   18.4391 C   0  0  0  0  0  0  0  0  0  0  0  0
   10.2788  -17.1781   19.8797 C   0  0  2  0  0  0  0  0  0  0  0  0
   10.5271  -18.5704   20.1559 N   0  0  0  0  0  0  0  0  0  0  0  0
    9.2684  -16.5805   20.7543 C   0  0  0  0  0  0  0  0  0  0  0  0
    8.9261  -15.3800   20.6009 O   0  0  0  0  0  0  0  0  0  0  0  0
    5.8782  -18.2904   20.8768 N   0  0  0  0  0  0  0  0  0  0  0  0
    5.9594  -18.5633   22.2465 C   0  0  0  0  0  0  0  0  0  0  0  0
    5.2507  -19.5088   22.6972 O   0  0  0  0  0  0  0  0  0  0  0  0
    6.7982  -17.8521   23.2334 C   0  0  0  0  0  0  0  0  0  0  0  0
    7.6001  -16.7225   22.6376 C   0  0  2  0  0  0  0  0  0  0  0  0
    8.6300  -17.2983   21.8012 N   0  0  0  0  0  0  0  0  0  0  0  0
    8.2723  -15.9994   23.7585 C   0  0  0  0  0  0  0  0  0  0  0  0
    9.4882  -16.1677   23.9563 O   0  0  0  0  0  0  0  0  0  0  0  0
    5.7242  -11.5953   25.7835 C   0  0  0  0  0  0  0  0  0  0  0  0
    6.7730  -12.4923   25.1906 C   0  0  0  0  0  0  0  0  0  0  0  0
    7.3646  -13.3837   26.2479 C   0  0  2  0  0  0  0  0  0  0  0  0
    8.0394  -12.5547   27.2998 C   0  0  0  0  0  0  0  0  0  0  0  0
    8.2850  -14.4383   25.6716 C   0  0  2  0  0  0  0  0  0  0  0  0
    7.5707  -15.1165   24.6177 N   0  0  0  0  0  0  0  0  0  0  0  0
    8.7267  -15.4157   26.6770 C   0  0  0  0  0  0  0  0  0  0  0  0
    9.7792  -15.1899   27.3238 O   0  0  0  0  0  0  0  0  0  0  0  0
    8.0582  -16.5943   26.9748 O   0  0  0  0  0  0  0  0  0  0  0  0
  2  3  2  0
  2  1  1  0
  4  2  1  0
  5  4  1  0
  5  6  1  1
  7  5  1  0
  8  7  2  0
  9 10  1  0
 10 12  1  0
 11 10  2  0
 13 12  1  1
 13 14  1  0
 14  7  1  0
 15 22  1  0
 15 13  1  0
 16 15  2  0
 18 17  1  0
 19 21  1  0
 19 18  1  0
 19 20  1  1
 21 23  1  0
 21 22  1  6
 23 25  1  0
 24 23  2  0
M  END
$$$$
