NNI.pdb
     RDKit          3D

 25 24  0  0  1  0  0  0  0  0999 V2000
    9.1841  -17.5086   17.3710 N   0  0  0  0  0  0  0  0  0  0  0  0
    7.7722  -17.4779   17.4401 C   0  0  0  0  0  0  0  0  0  0  0  0
    7.1059  -17.5937   16.3923 O   0  0  0  0  0  0  0  0  0  0  0  0
    7.0880  -17.3118   18.7274 C   0  0  0  0  0  0  0  0  0  0  0  0
    8.1380  -17.1469   19.8203 C   0  0  2  0  0  0  0  0  0  0  0  0
    8.9097  -18.3615   19.8969 N   0  0  0  0  0  0  0  0  0  0  0  0
    7.4502  -16.8126   21.0685 C   0  0  0  0  0  0  0  0  0  0  0  0
    6.6757  -15.8230   21.1210 O   0  0  0  0  0  0  0  0  0  0  0  0
    6.2294  -20.7247   23.0224 N   0  0  0  0  0  0  0  0  0  0  0  0
    5.8407  -19.4990   23.5736 C   0  0  0  0  0  0  0  0  0  0  0  0
    4.6211  -19.1773   23.4818 O   0  0  0  0  0  0  0  0  0  0  0  0
    6.7189  -18.5294   24.2606 C   0  0  0  0  0  0  0  0  0  0  0  0
    6.9147  -17.2466   23.4924 C   0  0  2  0  0  0  0  0  0  0  0  0
    7.6102  -17.5630   22.2643 N   0  0  0  0  0  0  0  0  0  0  0  0
    7.8006  -16.3592   24.3042 C   0  0  0  0  0  0  0  0  0  0  0  0
    9.0336  -16.5107   24.2543 O   0  0  0  0  0  0  0  0  0  0  0  0
    5.6173  -11.6907   26.2016 C   0  0  0  0  0  0  0  0  0  0  0  0
    6.5204  -12.6698   25.5075 C   0  0  0  0  0  0  0  0  0  0  0  0
    7.3952  -13.3796   26.5042 C   0  0  2  0  0  0  0  0  0  0  0  0
    8.2636  -12.3897   27.2220 C   0  0  0  0  0  0  0  0  0  0  0  0
    8.1991  -14.4997   25.8791 C   0  0  2  0  0  0  0  0  0  0  0  0
    7.2855  -15.3371   25.1407 N   0  0  0  0  0  0  0  0  0  0  0  0
    8.9142  -15.3090   26.8765 C   0  0  0  0  0  0  0  0  0  0  0  0
    8.3025  -16.2397   27.4567 O   0  0  0  0  0  0  0  0  0  0  0  0
   10.2411  -15.1221   27.2360 O   0  0  0  0  0  0  0  0  0  0  0  0
  2  3  2  0
  2  1  1  0
  4  2  1  0
  5  4  1  0
  5  6  1  1
  7  5  1  0
  8  7  2  0
  9 10  1  0
 10 12  1  0
 11 10  2  0
 13 12  1  1
 13 14  1  0
 14  7  1  0
 15 22  1  0
 15 13  1  0
 16 15  2  0
 18 17  1  0
 19 21  1  0
 19 18  1  0
 19 20  1  6
 21 23  1  0
 21 22  1  1
 23 25  1  0
 24 23  2  0
M  END
$$$$
