NNI.pdb
     RDKit          3D

 25 24  0  0  1  0  0  0  0  0999 V2000
    3.7698  -20.4444   19.6903 N   0  0  0  0  0  0  0  0  0  0  0  0
    4.1898  -19.1650   20.1211 C   0  0  0  0  0  0  0  0  0  0  0  0
    3.9278  -18.1670   19.4207 O   0  0  0  0  0  0  0  0  0  0  0  0
    4.9277  -19.0024   21.3788 C   0  0  0  0  0  0  0  0  0  0  0  0
    5.6136  -17.6408   21.3697 C   0  0  2  0  0  0  0  0  0  0  0  0
    6.2364  -17.4537   20.0838 N   0  0  0  0  0  0  0  0  0  0  0  0
    6.5575  -17.5968   22.4877 C   0  0  0  0  0  0  0  0  0  0  0  0
    6.1747  -17.8748   23.6530 O   0  0  0  0  0  0  0  0  0  0  0  0
   12.5151  -17.0079   23.8368 N   0  0  0  0  0  0  0  0  0  0  0  0
   11.2651  -17.6253   23.9531 C   0  0  0  0  0  0  0  0  0  0  0  0
   11.0045  -18.2178   25.0394 O   0  0  0  0  0  0  0  0  0  0  0  0
   10.2044  -17.6568   22.9247 C   0  0  0  0  0  0  0  0  0  0  0  0
    8.8595  -17.2037   23.4345 C   0  0  2  0  0  0  0  0  0  0  0  0
    7.9257  -17.2469   22.3309 N   0  0  0  0  0  0  0  0  0  0  0  0
    8.9914  -15.7799   23.8665 C   0  0  0  0  0  0  0  0  0  0  0  0
    9.8112  -15.0386   23.2970 O   0  0  0  0  0  0  0  0  0  0  0  0
    5.6015  -12.3079   26.8685 C   0  0  0  0  0  0  0  0  0  0  0  0
    6.3842  -13.4908   26.3741 C   0  0  0  0  0  0  0  0  0  0  0  0
    7.6316  -13.0396   25.6650 C   0  0  2  0  0  0  0  0  0  0  0  0
    7.2930  -12.5610   24.2846 C   0  0  0  0  0  0  0  0  0  0  0  0
    8.7113  -14.1005   25.6550 C   0  0  2  0  0  0  0  0  0  0  0  0
    8.2089  -15.2317   24.9140 N   0  0  0  0  0  0  0  0  0  0  0  0
    9.0981  -14.5284   27.0071 C   0  0  0  0  0  0  0  0  0  0  0  0
    9.6583  -13.7027   27.7697 O   0  0  0  0  0  0  0  0  0  0  0  0
    8.8886  -15.8005   27.5196 O   0  0  0  0  0  0  0  0  0  0  0  0
  2  3  2  0
  2  1  1  0
  4  2  1  0
  5  4  1  0
  5  6  1  6
  7  5  1  0
  8  7  2  0
  9 10  1  0
 10 12  1  0
 11 10  2  0
 13 12  1  6
 13 14  1  0
 14  7  1  0
 15 22  1  0
 15 13  1  0
 16 15  2  0
 18 17  1  0
 19 21  1  0
 19 18  1  0
 19 20  1  6
 21 23  1  0
 21 22  1  6
 23 25  1  0
 24 23  2  0
M  END
$$$$
