NNI.pdb
     RDKit          3D

 25 24  0  0  1  0  0  0  0  0999 V2000
    8.2007  -12.5576   16.9842 N   0  0  0  0  0  0  0  0  0  0  0  0
    7.9009  -13.9302   17.1431 C   0  0  0  0  0  0  0  0  0  0  0  0
    8.1793  -14.7273   16.2253 O   0  0  0  0  0  0  0  0  0  0  0  0
    7.2683  -14.4219   18.3722 C   0  0  0  0  0  0  0  0  0  0  0  0
    8.3444  -14.6003   19.4373 C   0  0  2  0  0  0  0  0  0  0  0  0
    9.3155  -15.5464   18.9490 N   0  0  0  0  0  0  0  0  0  0  0  0
    7.6933  -15.0203   20.6793 C   0  0  0  0  0  0  0  0  0  0  0  0
    6.7843  -14.3161   21.1890 O   0  0  0  0  0  0  0  0  0  0  0  0
    8.0315  -19.3755   25.0264 N   0  0  0  0  0  0  0  0  0  0  0  0
    7.2930  -18.5192   24.2026 C   0  0  0  0  0  0  0  0  0  0  0  0
    6.1845  -18.0978   24.6416 O   0  0  0  0  0  0  0  0  0  0  0  0
    7.6794  -18.0504   22.8556 C   0  0  0  0  0  0  0  0  0  0  0  0
    7.4883  -16.5678   22.6575 C   0  0  2  0  0  0  0  0  0  0  0  0
    8.0379  -16.2149   21.3671 N   0  0  0  0  0  0  0  0  0  0  0  0
    8.2868  -15.8610   23.7035 C   0  0  0  0  0  0  0  0  0  0  0  0
    9.5099  -15.7064   23.5425 O   0  0  0  0  0  0  0  0  0  0  0  0
    7.2939  -11.0261   27.0571 C   0  0  0  0  0  0  0  0  0  0  0  0
    8.2211  -12.1833   26.8176 C   0  0  0  0  0  0  0  0  0  0  0  0
    7.5288  -13.2597   26.0272 C   0  0  2  0  0  0  0  0  0  0  0  0
    6.2814  -13.6959   26.7364 C   0  0  0  0  0  0  0  0  0  0  0  0
    8.4417  -14.4236   25.7053 C   0  0  2  0  0  0  0  0  0  0  0  0
    7.6985  -15.3521   24.8889 N   0  0  0  0  0  0  0  0  0  0  0  0
    8.9329  -15.1086   26.9096 C   0  0  0  0  0  0  0  0  0  0  0  0
    9.6744  -14.4819   27.7063 O   0  0  0  0  0  0  0  0  0  0  0  0
    8.6359  -16.4219   27.2438 O   0  0  0  0  0  0  0  0  0  0  0  0
  2  3  2  0
  2  1  1  0
  4  2  1  0
  5  4  1  0
  5  6  1  6
  7  5  1  0
  8  7  2  0
  9 10  1  0
 10 12  1  0
 11 10  2  0
 13 12  1  1
 13 14  1  0
 14  7  1  0
 15 22  1  0
 15 13  1  0
 16 15  2  0
 18 17  1  0
 19 21  1  0
 19 18  1  0
 19 20  1  1
 21 23  1  0
 21 22  1  6
 23 25  1  0
 24 23  2  0
M  END
$$$$
