NNI.pdb
     RDKit          3D

 25 24  0  0  1  0  0  0  0  0999 V2000
    8.3742  -12.5547   16.9081 N   0  0  0  0  0  0  0  0  0  0  0  0
    8.0529  -13.9248   17.0451 C   0  0  0  0  0  0  0  0  0  0  0  0
    8.1507  -14.6779   16.0559 O   0  0  0  0  0  0  0  0  0  0  0  0
    7.6073  -14.4651   18.3344 C   0  0  0  0  0  0  0  0  0  0  0  0
    8.7728  -14.4096   19.3156 C   0  0  2  0  0  0  0  0  0  0  0  0
    9.8640  -15.1764   18.7699 N   0  0  0  0  0  0  0  0  0  0  0  0
    8.3033  -14.9027   20.6115 C   0  0  0  0  0  0  0  0  0  0  0  0
    7.2939  -14.3888   21.1584 O   0  0  0  0  0  0  0  0  0  0  0  0
    9.4860  -19.5051   20.8804 N   0  0  0  0  0  0  0  0  0  0  0  0
    8.6318  -18.8022   21.7368 C   0  0  0  0  0  0  0  0  0  0  0  0
    7.3887  -18.9984   21.6128 O   0  0  0  0  0  0  0  0  0  0  0  0
    9.0372  -17.8424   22.7847 C   0  0  0  0  0  0  0  0  0  0  0  0
    8.4685  -16.4600   22.5858 C   0  0  2  0  0  0  0  0  0  0  0  0
    8.9403  -15.9617   21.3126 N   0  0  0  0  0  0  0  0  0  0  0  0
    9.0250  -15.5793   23.6563 C   0  0  0  0  0  0  0  0  0  0  0  0
   10.2465  -15.3501   23.6898 O   0  0  0  0  0  0  0  0  0  0  0  0
    5.9186  -11.9748   26.8317 C   0  0  0  0  0  0  0  0  0  0  0  0
    6.5931  -13.2348   26.3693 C   0  0  0  0  0  0  0  0  0  0  0  0
    7.9731  -12.9354   25.8513 C   0  0  2  0  0  0  0  0  0  0  0  0
    7.8843  -12.1341   24.5867 C   0  0  0  0  0  0  0  0  0  0  0  0
    8.8142  -14.1825   25.6816 C   0  0  2  0  0  0  0  0  0  0  0  0
    8.2055  -14.9858   24.6494 N   0  0  0  0  0  0  0  0  0  0  0  0
    8.9202  -14.9675   26.9200 C   0  0  0  0  0  0  0  0  0  0  0  0
    9.5188  -14.4707   27.9059 O   0  0  0  0  0  0  0  0  0  0  0  0
    8.3998  -16.2423   27.0901 O   0  0  0  0  0  0  0  0  0  0  0  0
  2  3  2  0
  2  1  1  0
  4  2  1  0
  5  4  1  0
  5  6  1  6
  7  5  1  0
  8  7  2  0
  9 10  1  0
 10 12  1  0
 11 10  2  0
 13 12  1  1
 13 14  1  0
 14  7  1  0
 15 22  1  0
 15 13  1  0
 16 15  2  0
 18 17  1  0
 19 21  1  0
 19 18  1  0
 19 20  1  6
 21 23  1  0
 21 22  1  6
 23 25  1  0
 24 23  2  0
M  END
$$$$
