WWP.pdb
     RDKit          3D

 36 40  0  0  1  0  0  0  0  0999 V2000
   21.0696  -18.0082  -15.0830 N   0  0  0  0  0  0  0  0  0  0  0  0
   21.9864  -19.0766  -15.4246 C   0  0  1  0  0  0  0  0  0  0  0  0
   22.3845  -18.8179  -16.8786 C   0  0  0  0  0  0  0  0  0  0  0  0
   21.1618  -18.9893  -17.6945 C   0  0  0  0  0  0  0  0  0  0  0  0
   20.3721  -17.9731  -18.2136 C   0  0  0  0  0  0  0  0  0  0  0  0
   19.3494  -18.5190  -18.8943 N   0  0  0  0  0  0  0  0  0  0  0  0
   19.4596  -19.8613  -18.8275 C   0  0  0  0  0  0  0  0  0  0  0  0
   18.7093  -20.9147  -19.3312 C   0  0  0  0  0  0  0  0  0  0  0  0
   19.0847  -22.2100  -19.0897 C   0  0  0  0  0  0  0  0  0  0  0  0
   20.2146  -22.5045  -18.3419 C   0  0  0  0  0  0  0  0  0  0  0  0
   20.9780  -21.4801  -17.8293 C   0  0  0  0  0  0  0  0  0  0  0  0
   20.5877  -20.1892  -18.0810 C   0  0  0  0  0  0  0  0  0  0  0  0
   23.1760  -19.1084  -14.5652 C   0  0  0  0  0  0  0  0  0  0  0  0
   23.7837  -18.0292  -14.3360 O   0  0  0  0  0  0  0  0  0  0  0  0
   23.6329  -20.3095  -14.0063 N   0  0  0  0  0  0  0  0  0  0  0  0
   24.9221  -20.3703  -13.3183 C   0  0  1  0  0  0  0  0  0  0  0  0
   24.7323  -21.2682  -12.1556 C   0  0  0  0  0  0  0  0  0  0  0  0
   25.4836  -20.9488  -10.9320 C   0  0  0  0  0  0  0  0  0  0  0  0
   24.9307  -20.4740   -9.7282 C   0  0  0  0  0  0  0  0  0  0  0  0
   25.9021  -20.2555   -8.8469 N   0  0  0  0  0  0  0  0  0  0  0  0
   27.0811  -20.5687   -9.4211 C   0  0  0  0  0  0  0  0  0  0  0  0
   28.3640  -20.5440   -8.9570 C   0  0  0  0  0  0  0  0  0  0  0  0
   29.4136  -20.9368   -9.7378 C   0  0  0  0  0  0  0  0  0  0  0  0
   29.1904  -21.3754  -11.0382 C   0  0  0  0  0  0  0  0  0  0  0  0
   27.9056  -21.3943  -11.4887 C   0  0  0  0  0  0  0  0  0  0  0  0
   26.8311  -20.9992  -10.7122 C   0  0  0  0  0  0  0  0  0  0  0  0
   26.0111  -20.6907  -14.2181 C   0  0  0  0  0  0  0  0  0  0  0  0
   25.7425  -21.6997  -15.0108 O   0  0  0  0  0  0  0  0  0  0  0  0
   27.2713  -20.1134  -14.3731 N   0  0  0  0  0  0  0  0  0  0  0  0
   27.9842  -19.1071  -13.6464 C   0  0  0  0  0  0  0  0  0  0  0  0
   28.4146  -18.2184  -14.8354 C   0  0  0  0  0  0  0  0  0  0  0  0
   29.0779  -19.2733  -15.6957 C   0  0  0  0  0  0  0  0  0  0  0  0
   28.2239  -20.4816  -15.4714 C   0  0  1  0  0  0  0  0  0  0  0  0
   29.0753  -21.5971  -15.0216 C   0  0  0  0  0  0  0  0  0  0  0  0
   29.8827  -22.2416  -15.9324 O   0  0  0  0  0  0  0  0  0  0  0  0
   29.0741  -21.9635  -13.8308 O   0  0  0  0  0  0  0  0  0  0  0  0
  2  3  1  0
  2  1  1  1
  4  5  2  0
  4  3  1  0
  6  5  1  0
  7 12  2  0
  7  6  1  0
  8  7  1  0
  9 10  1  0
  9  8  2  0
 10 11  2  0
 11 12  1  0
 12  4  1  0
 13  2  1  0
 14 13  2  0
 15 13  1  0
 16 15  1  0
 16 17  1  1
 18 17  1  0
 19 18  2  0
 20 19  1  0
 21 20  1  0
 21 26  2  0
 22 21  1  0
 23 22  2  0
 23 24  1  0
 24 25  2  0
 25 26  1  0
 26 18  1  0
 27 16  1  0
 27 29  1  0
 28 27  2  0
 29 30  1  0
 30 31  1  0
 32 31  1  0
 33 29  1  0
 33 32  1  0
 33 34  1  1
 35 34  1  0
 36 34  2  0
M  END
$$$$
