WWP.pdb
     RDKit          3D

 36 40  0  0  1  0  0  0  0  0999 V2000
   25.1481  -22.6564  -11.9918 N   0  0  0  0  0  0  0  0  0  0  0  0
   24.7687  -21.2708  -12.1786 C   0  0  1  0  0  0  0  0  0  0  0  0
   26.0601  -20.4708  -12.0008 C   0  0  0  0  0  0  0  0  0  0  0  0
   26.1552  -20.1242  -10.5652 C   0  0  0  0  0  0  0  0  0  0  0  0
   25.1089  -19.7226   -9.7467 C   0  0  0  0  0  0  0  0  0  0  0  0
   25.5848  -19.4931   -8.5105 N   0  0  0  0  0  0  0  0  0  0  0  0
   26.9111  -19.7366   -8.5110 C   0  0  0  0  0  0  0  0  0  0  0  0
   27.9019  -19.6710   -7.5413 C   0  0  0  0  0  0  0  0  0  0  0  0
   29.1976  -19.9896   -7.8524 C   0  0  0  0  0  0  0  0  0  0  0  0
   29.5544  -20.3832   -9.1332 C   0  0  0  0  0  0  0  0  0  0  0  0
   28.5929  -20.4573  -10.1155 C   0  0  0  0  0  0  0  0  0  0  0  0
   27.3006  -20.1349   -9.7866 C   0  0  0  0  0  0  0  0  0  0  0  0
   24.1814  -21.0098  -13.4983 C   0  0  0  0  0  0  0  0  0  0  0  0
   24.8145  -21.3767  -14.5236 O   0  0  0  0  0  0  0  0  0  0  0  0
   22.9425  -20.3673  -13.6247 N   0  0  0  0  0  0  0  0  0  0  0  0
   22.3573  -20.1262  -14.9433 C   0  0  1  0  0  0  0  0  0  0  0  0
   20.9458  -20.5676  -14.8601 C   0  0  0  0  0  0  0  0  0  0  0  0
   20.6599  -21.9684  -15.2059 C   0  0  0  0  0  0  0  0  0  0  0  0
   20.8595  -23.0796  -14.3660 C   0  0  0  0  0  0  0  0  0  0  0  0
   20.5318  -24.1934  -15.0144 N   0  0  0  0  0  0  0  0  0  0  0  0
   20.1206  -23.8626  -16.2550 C   0  0  0  0  0  0  0  0  0  0  0  0
   19.6658  -24.6104  -17.3018 C   0  0  0  0  0  0  0  0  0  0  0  0
   19.2800  -24.0328  -18.4778 C   0  0  0  0  0  0  0  0  0  0  0  0
   19.3445  -22.6524  -18.6316 C   0  0  0  0  0  0  0  0  0  0  0  0
   19.8007  -21.9183  -17.5794 C   0  0  0  0  0  0  0  0  0  0  0  0
   20.1964  -22.4867  -16.3819 C   0  0  0  0  0  0  0  0  0  0  0  0
   22.5911  -18.7749  -15.4100 C   0  0  0  0  0  0  0  0  0  0  0  0
   22.5686  -17.8873  -14.4455 O   0  0  0  0  0  0  0  0  0  0  0  0
   22.8295  -18.2765  -16.6906 N   0  0  0  0  0  0  0  0  0  0  0  0
   22.9064  -18.8893  -17.9819 C   0  0  0  0  0  0  0  0  0  0  0  0
   24.2375  -18.2657  -18.4596 C   0  0  0  0  0  0  0  0  0  0  0  0
   23.9130  -16.8042  -18.2325 C   0  0  0  0  0  0  0  0  0  0  0  0
   23.0895  -16.8287  -16.9831 C   0  0  1  0  0  0  0  0  0  0  0  0
   21.8079  -16.1471  -17.2369 C   0  0  0  0  0  0  0  0  0  0  0  0
   21.7639  -14.7706  -17.2455 O   0  0  0  0  0  0  0  0  0  0  0  0
   20.7662  -16.7987  -17.4432 O   0  0  0  0  0  0  0  0  0  0  0  0
  2  3  1  0
  2  1  1  6
  4  5  2  0
  4  3  1  0
  6  5  1  0
  7 12  2  0
  7  6  1  0
  8  7  1  0
  9 10  1  0
  9  8  2  0
 10 11  2  0
 11 12  1  0
 12  4  1  0
 13  2  1  0
 14 13  2  0
 15 13  1  0
 16 15  1  0
 16 17  1  1
 18 17  1  0
 19 18  2  0
 20 19  1  0
 21 20  1  0
 21 26  2  0
 22 21  1  0
 23 22  2  0
 23 24  1  0
 24 25  2  0
 25 26  1  0
 26 18  1  0
 27 16  1  0
 27 29  1  0
 28 27  2  0
 29 30  1  0
 30 31  1  0
 32 31  1  0
 33 29  1  0
 33 32  1  0
 33 34  1  6
 35 34  1  0
 36 34  2  0
M  END
$$$$
