WWP.pdb
     RDKit          3D

 36 40  0  0  1  0  0  0  0  0999 V2000
   26.6762  -21.6429  -13.8012 N   0  0  0  0  0  0  0  0  0  0  0  0
   25.7071  -21.2300  -12.8066 C   0  0  1  0  0  0  0  0  0  0  0  0
   24.4867  -22.1227  -13.0367 C   0  0  0  0  0  0  0  0  0  0  0  0
   23.4717  -21.2923  -13.7226 C   0  0  0  0  0  0  0  0  0  0  0  0
   23.2533  -21.2268  -15.0915 C   0  0  0  0  0  0  0  0  0  0  0  0
   22.2525  -20.3624  -15.3333 N   0  0  0  0  0  0  0  0  0  0  0  0
   21.8198  -19.8691  -14.1553 C   0  0  0  0  0  0  0  0  0  0  0  0
   20.8325  -18.9621  -13.7962 C   0  0  0  0  0  0  0  0  0  0  0  0
   20.6216  -18.6536  -12.4781 C   0  0  0  0  0  0  0  0  0  0  0  0
   21.3811  -19.2327  -11.4730 C   0  0  0  0  0  0  0  0  0  0  0  0
   22.3676  -20.1357  -11.7993 C   0  0  0  0  0  0  0  0  0  0  0  0
   22.5651  -20.4331  -13.1239 C   0  0  0  0  0  0  0  0  0  0  0  0
   26.1983  -21.3776  -11.4312 C   0  0  0  0  0  0  0  0  0  0  0  0
   26.6985  -22.4804  -11.0844 O   0  0  0  0  0  0  0  0  0  0  0  0
   26.1174  -20.3191  -10.5165 N   0  0  0  0  0  0  0  0  0  0  0  0
   26.5409  -20.4979   -9.1280 C   0  0  1  0  0  0  0  0  0  0  0  0
   27.2641  -19.2616   -8.7502 C   0  0  0  0  0  0  0  0  0  0  0  0
   27.6377  -19.1091   -7.3358 C   0  0  0  0  0  0  0  0  0  0  0  0
   27.0194  -18.2477   -6.4106 C   0  0  0  0  0  0  0  0  0  0  0  0
   27.6365  -18.3376   -5.2362 N   0  0  0  0  0  0  0  0  0  0  0  0
   28.6424  -19.2285   -5.3469 C   0  0  0  0  0  0  0  0  0  0  0  0
   29.5584  -19.6958   -4.4500 C   0  0  0  0  0  0  0  0  0  0  0  0
   30.4869  -20.6341   -4.8006 C   0  0  0  0  0  0  0  0  0  0  0  0
   30.5158  -21.1374   -6.0964 C   0  0  0  0  0  0  0  0  0  0  0  0
   29.5966  -20.6619   -6.9813 C   0  0  0  0  0  0  0  0  0  0  0  0
   28.6500  -19.7114   -6.6437 C   0  0  0  0  0  0  0  0  0  0  0  0
   25.4481  -20.9025   -8.2675 C   0  0  0  0  0  0  0  0  0  0  0  0
   24.2759  -20.5174   -8.7105 O   0  0  0  0  0  0  0  0  0  0  0  0
   25.4415  -21.6180   -7.0703 N   0  0  0  0  0  0  0  0  0  0  0  0
   26.4800  -22.1491   -6.2405 C   0  0  0  0  0  0  0  0  0  0  0  0
   25.9308  -23.5831   -6.0650 C   0  0  0  0  0  0  0  0  0  0  0  0
   24.5389  -23.2484   -5.5717 C   0  0  0  0  0  0  0  0  0  0  0  0
   24.1890  -22.0184   -6.3491 C   0  0  1  0  0  0  0  0  0  0  0  0
   23.8056  -20.9482   -5.4116 C   0  0  0  0  0  0  0  0  0  0  0  0
   22.5308  -20.9300   -4.8905 O   0  0  0  0  0  0  0  0  0  0  0  0
   24.6179  -20.0618   -5.0851 O   0  0  0  0  0  0  0  0  0  0  0  0
  2  3  1  0
  2  1  1  6
  4  5  2  0
  4  3  1  0
  6  5  1  0
  7 12  2  0
  7  6  1  0
  8  7  1  0
  9 10  1  0
  9  8  2  0
 10 11  2  0
 11 12  1  0
 12  4  1  0
 13  2  1  0
 14 13  2  0
 15 13  1  0
 16 15  1  0
 16 17  1  1
 18 17  1  0
 19 18  2  0
 20 19  1  0
 21 20  1  0
 21 26  2  0
 22 21  1  0
 23 22  2  0
 23 24  1  0
 24 25  2  0
 25 26  1  0
 26 18  1  0
 27 16  1  0
 27 29  1  0
 28 27  2  0
 29 30  1  0
 30 31  1  0
 32 31  1  0
 33 29  1  0
 33 32  1  0
 33 34  1  1
 35 34  1  0
 36 34  2  0
M  END
$$$$
