WWP.pdb
     RDKit          3D

 36 40  0  0  1  0  0  0  0  0999 V2000
   25.4011  -19.4493  -13.0361 N   0  0  0  0  0  0  0  0  0  0  0  0
   25.0783  -20.0421  -11.7542 C   0  0  1  0  0  0  0  0  0  0  0  0
   24.5134  -21.4257  -12.0798 C   0  0  0  0  0  0  0  0  0  0  0  0
   23.0594  -21.2548  -12.2961 C   0  0  0  0  0  0  0  0  0  0  0  0
   22.3721  -21.4901  -13.4785 C   0  0  0  0  0  0  0  0  0  0  0  0
   21.0690  -21.2202  -13.2875 N   0  0  0  0  0  0  0  0  0  0  0  0
   20.8986  -20.8170  -12.0121 C   0  0  0  0  0  0  0  0  0  0  0  0
   19.7969  -20.4184  -11.2679 C   0  0  0  0  0  0  0  0  0  0  0  0
   19.9425  -20.0569   -9.9544 C   0  0  0  0  0  0  0  0  0  0  0  0
   21.1829  -20.0781   -9.3352 C   0  0  0  0  0  0  0  0  0  0  0  0
   22.2935  -20.4688  -10.0486 C   0  0  0  0  0  0  0  0  0  0  0  0
   22.1296  -20.8276  -11.3626 C   0  0  0  0  0  0  0  0  0  0  0  0
   26.2419  -20.1591  -10.8671 C   0  0  0  0  0  0  0  0  0  0  0  0
   27.3692  -20.3924  -11.3783 O   0  0  0  0  0  0  0  0  0  0  0  0
   26.1111  -20.0149   -9.4794 N   0  0  0  0  0  0  0  0  0  0  0  0
   27.2876  -19.8058   -8.6360 C   0  0  1  0  0  0  0  0  0  0  0  0
   26.8087  -19.1152   -7.4162 C   0  0  0  0  0  0  0  0  0  0  0  0
   27.8221  -18.7314   -6.4215 C   0  0  0  0  0  0  0  0  0  0  0  0
   28.3479  -17.4388   -6.2404 C   0  0  0  0  0  0  0  0  0  0  0  0
   29.2691  -17.4623   -5.2818 N   0  0  0  0  0  0  0  0  0  0  0  0
   29.3742  -18.7240   -4.8182 C   0  0  0  0  0  0  0  0  0  0  0  0
   30.1449  -19.2820   -3.8404 C   0  0  0  0  0  0  0  0  0  0  0  0
   30.0566  -20.6096   -3.5318 C   0  0  0  0  0  0  0  0  0  0  0  0
   29.1667  -21.4281   -4.2184 C   0  0  0  0  0  0  0  0  0  0  0  0
   28.4042  -20.8584   -5.1921 C   0  0  0  0  0  0  0  0  0  0  0  0
   28.4814  -19.5163   -5.5183 C   0  0  0  0  0  0  0  0  0  0  0  0
   28.0472  -21.0235   -8.4398 C   0  0  0  0  0  0  0  0  0  0  0  0
   27.2896  -22.0816   -8.2816 O   0  0  0  0  0  0  0  0  0  0  0  0
   29.4230  -21.2471   -8.3917 N   0  0  0  0  0  0  0  0  0  0  0  0
   30.5595  -20.3790   -8.4516 C   0  0  0  0  0  0  0  0  0  0  0  0
   31.3756  -21.1332   -9.5258 C   0  0  0  0  0  0  0  0  0  0  0  0
   31.3917  -22.5088   -8.8932 C   0  0  0  0  0  0  0  0  0  0  0  0
   30.0390  -22.6084   -8.2609 C   0  0  1  0  0  0  0  0  0  0  0  0
   30.1971  -22.9342   -6.8325 C   0  0  0  0  0  0  0  0  0  0  0  0
   30.6569  -24.1808   -6.4700 O   0  0  0  0  0  0  0  0  0  0  0  0
   29.9209  -22.0984   -5.9509 O   0  0  0  0  0  0  0  0  0  0  0  0
  2  3  1  0
  2  1  1  6
  4  5  2  0
  4  3  1  0
  6  5  1  0
  7 12  2  0
  7  6  1  0
  8  7  1  0
  9 10  1  0
  9  8  2  0
 10 11  2  0
 11 12  1  0
 12  4  1  0
 13  2  1  0
 14 13  2  0
 15 13  1  0
 16 15  1  0
 16 17  1  1
 18 17  1  0
 19 18  2  0
 20 19  1  0
 21 20  1  0
 21 26  2  0
 22 21  1  0
 23 22  2  0
 23 24  1  0
 24 25  2  0
 25 26  1  0
 26 18  1  0
 27 16  1  0
 27 29  1  0
 28 27  2  0
 29 30  1  0
 30 31  1  0
 32 31  1  0
 33 29  1  0
 33 32  1  0
 33 34  1  1
 35 34  1  0
 36 34  2  0
M  END
$$$$
