WWP.pdb
     RDKit          3D

 36 40  0  0  1  0  0  0  0  0999 V2000
   25.2676  -20.9656  -13.6006 N   0  0  0  0  0  0  0  0  0  0  0  0
   24.5958  -20.6260  -12.3628 C   0  0  1  0  0  0  0  0  0  0  0  0
   23.2213  -21.2908  -12.4537 C   0  0  0  0  0  0  0  0  0  0  0  0
   22.3996  -20.4540  -13.3564 C   0  0  0  0  0  0  0  0  0  0  0  0
   22.2509  -20.6252  -14.7255 C   0  0  0  0  0  0  0  0  0  0  0  0
   21.4315  -19.6701  -15.1987 N   0  0  0  0  0  0  0  0  0  0  0  0
   21.0480  -18.8876  -14.1696 C   0  0  0  0  0  0  0  0  0  0  0  0
   20.2259  -17.7746  -14.0612 C   0  0  0  0  0  0  0  0  0  0  0  0
   20.0218  -17.1803  -12.8437 C   0  0  0  0  0  0  0  0  0  0  0  0
   20.6248  -17.6682  -11.6945 C   0  0  0  0  0  0  0  0  0  0  0  0
   21.4455  -18.7707  -11.7715 C   0  0  0  0  0  0  0  0  0  0  0  0
   21.6387  -19.3533  -12.9984 C   0  0  0  0  0  0  0  0  0  0  0  0
   25.3148  -21.0958  -11.1724 C   0  0  0  0  0  0  0  0  0  0  0  0
   25.6885  -22.2979  -11.1287 O   0  0  0  0  0  0  0  0  0  0  0  0
   25.5849  -20.2320  -10.1026 N   0  0  0  0  0  0  0  0  0  0  0  0
   26.2719  -20.7173   -8.9060 C   0  0  1  0  0  0  0  0  0  0  0  0
   27.4516  -19.8413   -8.7185 C   0  0  0  0  0  0  0  0  0  0  0  0
   28.3542  -20.1620   -7.6022 C   0  0  0  0  0  0  0  0  0  0  0  0
   29.1738  -21.3021   -7.5093 C   0  0  0  0  0  0  0  0  0  0  0  0
   29.8261  -21.2892   -6.3507 N   0  0  0  0  0  0  0  0  0  0  0  0
   29.4704  -20.1810   -5.6701 C   0  0  0  0  0  0  0  0  0  0  0  0
   29.8520  -19.6859   -4.4573 C   0  0  0  0  0  0  0  0  0  0  0  0
   29.3566  -18.5061   -3.9794 C   0  0  0  0  0  0  0  0  0  0  0  0
   28.4414  -17.7779   -4.7313 C   0  0  0  0  0  0  0  0  0  0  0  0
   28.0687  -18.2838   -5.9393 C   0  0  0  0  0  0  0  0  0  0  0  0
   28.5595  -19.4771   -6.4380 C   0  0  0  0  0  0  0  0  0  0  0  0
   25.3766  -20.8555   -7.7758 C   0  0  0  0  0  0  0  0  0  0  0  0
   24.4632  -19.9164   -7.7262 O   0  0  0  0  0  0  0  0  0  0  0  0
   25.3309  -21.8038   -6.7540 N   0  0  0  0  0  0  0  0  0  0  0  0
   26.2046  -22.8693   -6.3664 C   0  0  0  0  0  0  0  0  0  0  0  0
   25.1584  -24.0010   -6.2500 C   0  0  0  0  0  0  0  0  0  0  0  0
   24.1774  -23.3259   -5.3148 C   0  0  0  0  0  0  0  0  0  0  0  0
   24.2147  -21.8965   -5.7566 C   0  0  1  0  0  0  0  0  0  0  0  0
   24.5272  -21.0417   -4.5976 C   0  0  0  0  0  0  0  0  0  0  0  0
   25.7859  -20.4950   -4.4802 O   0  0  0  0  0  0  0  0  0  0  0  0
   23.6694  -20.8078   -3.7249 O   0  0  0  0  0  0  0  0  0  0  0  0
  2  3  1  0
  2  1  1  6
  4  5  2  0
  4  3  1  0
  6  5  1  0
  7 12  2  0
  7  6  1  0
  8  7  1  0
  9 10  1  0
  9  8  2  0
 10 11  2  0
 11 12  1  0
 12  4  1  0
 13  2  1  0
 14 13  2  0
 15 13  1  0
 16 15  1  0
 16 17  1  1
 18 17  1  0
 19 18  2  0
 20 19  1  0
 21 20  1  0
 21 26  2  0
 22 21  1  0
 23 22  2  0
 23 24  1  0
 24 25  2  0
 25 26  1  0
 26 18  1  0
 27 16  1  0
 27 29  1  0
 28 27  2  0
 29 30  1  0
 30 31  1  0
 32 31  1  0
 33 29  1  0
 33 32  1  0
 33 34  1  1
 35 34  1  0
 36 34  2  0
M  END
$$$$
