WWP.pdb
     RDKit          3D

 36 40  0  0  1  0  0  0  0  0999 V2000
   23.7233  -19.6498  -13.3185 N   0  0  0  0  0  0  0  0  0  0  0  0
   24.0048  -20.6495  -12.3085 C   0  0  1  0  0  0  0  0  0  0  0  0
   24.1480  -21.9666  -13.0728 C   0  0  0  0  0  0  0  0  0  0  0  0
   22.8200  -22.2739  -13.6493 C   0  0  0  0  0  0  0  0  0  0  0  0
   22.5441  -22.5289  -14.9853 C   0  0  0  0  0  0  0  0  0  0  0  0
   21.2271  -22.7614  -15.1227 N   0  0  0  0  0  0  0  0  0  0  0  0
   20.6469  -22.6629  -13.9094 C   0  0  0  0  0  0  0  0  0  0  0  0
   19.3437  -22.8005  -13.4520 C   0  0  0  0  0  0  0  0  0  0  0  0
   19.0557  -22.6380  -12.1224 C   0  0  0  0  0  0  0  0  0  0  0  0
   20.0480  -22.3341  -11.2029 C   0  0  0  0  0  0  0  0  0  0  0  0
   21.3496  -22.1915  -11.6277 C   0  0  0  0  0  0  0  0  0  0  0  0
   21.6202  -22.3577  -12.9624 C   0  0  0  0  0  0  0  0  0  0  0  0
   25.2253  -20.3649  -11.5444 C   0  0  0  0  0  0  0  0  0  0  0  0
   26.2440  -19.9584  -12.1639 O   0  0  0  0  0  0  0  0  0  0  0  0
   25.2656  -20.5381  -10.1544 N   0  0  0  0  0  0  0  0  0  0  0  0
   26.4479  -20.1475   -9.3870 C   0  0  1  0  0  0  0  0  0  0  0  0
   25.9782  -19.8703   -8.0098 C   0  0  0  0  0  0  0  0  0  0  0  0
   26.9343  -19.2345   -7.0905 C   0  0  0  0  0  0  0  0  0  0  0  0
   27.3792  -17.9013   -7.1602 C   0  0  0  0  0  0  0  0  0  0  0  0
   28.2679  -17.6768   -6.1969 N   0  0  0  0  0  0  0  0  0  0  0  0
   28.4293  -18.8126   -5.4885 C   0  0  0  0  0  0  0  0  0  0  0  0
   29.1977  -19.1165   -4.4027 C   0  0  0  0  0  0  0  0  0  0  0  0
   29.1750  -20.3595   -3.8371 C   0  0  0  0  0  0  0  0  0  0  0  0
   28.3566  -21.3518   -4.3651 C   0  0  0  0  0  0  0  0  0  0  0  0
   27.5956  -21.0351   -5.4490 C   0  0  0  0  0  0  0  0  0  0  0  0
   27.6069  -19.7821   -6.0350 C   0  0  0  0  0  0  0  0  0  0  0  0
   27.5327  -21.0972   -9.5268 C   0  0  0  0  0  0  0  0  0  0  0  0
   27.1190  -22.3350   -9.6507 O   0  0  0  0  0  0  0  0  0  0  0  0
   28.9149  -20.9122   -9.5490 N   0  0  0  0  0  0  0  0  0  0  0  0
   29.7550  -19.7750   -9.3251 C   0  0  0  0  0  0  0  0  0  0  0  0
   30.6472  -19.8903  -10.5819 C   0  0  0  0  0  0  0  0  0  0  0  0
   31.1025  -21.3256  -10.4222 C   0  0  0  0  0  0  0  0  0  0  0  0
   29.8942  -22.0052   -9.8586 C   0  0  1  0  0  0  0  0  0  0  0  0
   30.2661  -22.6918   -8.6089 C   0  0  0  0  0  0  0  0  0  0  0  0
   30.9881  -23.8630   -8.6697 O   0  0  0  0  0  0  0  0  0  0  0  0
   29.9364  -22.2274   -7.5008 O   0  0  0  0  0  0  0  0  0  0  0  0
  2  3  1  0
  2  1  1  6
  4  5  2  0
  4  3  1  0
  6  5  1  0
  7 12  2  0
  7  6  1  0
  8  7  1  0
  9 10  1  0
  9  8  2  0
 10 11  2  0
 11 12  1  0
 12  4  1  0
 13  2  1  0
 14 13  2  0
 15 13  1  0
 16 15  1  0
 16 17  1  1
 18 17  1  0
 19 18  2  0
 20 19  1  0
 21 20  1  0
 21 26  2  0
 22 21  1  0
 23 22  2  0
 23 24  1  0
 24 25  2  0
 25 26  1  0
 26 18  1  0
 27 16  1  0
 27 29  1  0
 28 27  2  0
 29 30  1  0
 30 31  1  0
 32 31  1  0
 33 29  1  0
 33 32  1  0
 33 34  1  1
 35 34  1  0
 36 34  2  0
M  END
$$$$
