WWP.pdb
     RDKit          3D

 36 40  0  0  1  0  0  0  0  0999 V2000
   29.4675  -25.1655  -17.1943 N   0  0  0  0  0  0  0  0  0  0  0  0
   28.1212  -24.6855  -16.9581 C   0  0  1  0  0  0  0  0  0  0  0  0
   27.4163  -25.8143  -16.2042 C   0  0  0  0  0  0  0  0  0  0  0  0
   27.0471  -26.8356  -17.2096 C   0  0  0  0  0  0  0  0  0  0  0  0
   25.9559  -26.7879  -18.0657 C   0  0  0  0  0  0  0  0  0  0  0  0
   25.9503  -27.8950  -18.8284 N   0  0  0  0  0  0  0  0  0  0  0  0
   27.0101  -28.6552  -18.4859 C   0  0  0  0  0  0  0  0  0  0  0  0
   27.4999  -29.8773  -18.9253 C   0  0  0  0  0  0  0  0  0  0  0  0
   28.6330  -30.4098  -18.3689 C   0  0  0  0  0  0  0  0  0  0  0  0
   29.3176  -29.7502  -17.3596 C   0  0  0  0  0  0  0  0  0  0  0  0
   28.8550  -28.5366  -16.9034 C   0  0  0  0  0  0  0  0  0  0  0  0
   27.7193  -28.0179  -17.4719 C   0  0  0  0  0  0  0  0  0  0  0  0
   28.0839  -23.4445  -16.1750 C   0  0  0  0  0  0  0  0  0  0  0  0
   28.8704  -23.3234  -15.1986 O   0  0  0  0  0  0  0  0  0  0  0  0
   27.1958  -22.4103  -16.5000 N   0  0  0  0  0  0  0  0  0  0  0  0
   27.1397  -21.1926  -15.6918 C   0  0  1  0  0  0  0  0  0  0  0  0
   26.9359  -20.0724  -16.6394 C   0  0  0  0  0  0  0  0  0  0  0  0
   26.6979  -18.7406  -16.0620 C   0  0  0  0  0  0  0  0  0  0  0  0
   27.6727  -17.9138  -15.4734 C   0  0  0  0  0  0  0  0  0  0  0  0
   27.1006  -16.8010  -15.0231 N   0  0  0  0  0  0  0  0  0  0  0  0
   25.7807  -16.8579  -15.2918 C   0  0  0  0  0  0  0  0  0  0  0  0
   24.7580  -15.9844  -15.0616 C   0  0  0  0  0  0  0  0  0  0  0  0
   23.4795  -16.2624  -15.4534 C   0  0  0  0  0  0  0  0  0  0  0  0
   23.1928  -17.4576  -16.1034 C   0  0  0  0  0  0  0  0  0  0  0  0
   24.2225  -18.3203  -16.3261 C   0  0  0  0  0  0  0  0  0  0  0  0
   25.5228  -18.0555  -15.9354 C   0  0  0  0  0  0  0  0  0  0  0  0
   26.1957  -21.3012  -14.5985 C   0  0  0  0  0  0  0  0  0  0  0  0
   25.1520  -22.0380  -14.8922 O   0  0  0  0  0  0  0  0  0  0  0  0
   26.2164  -20.7597  -13.3133 N   0  0  0  0  0  0  0  0  0  0  0  0
   27.1052  -19.8594  -12.6435 C   0  0  0  0  0  0  0  0  0  0  0  0
   27.3207  -20.6656  -11.3427 C   0  0  0  0  0  0  0  0  0  0  0  0
   25.8741  -20.8782  -10.9495 C   0  0  0  0  0  0  0  0  0  0  0  0
   25.1879  -21.0673  -12.2660 C   0  0  1  0  0  0  0  0  0  0  0  0
   24.0801  -20.1018  -12.3754 C   0  0  0  0  0  0  0  0  0  0  0  0
   24.2289  -18.9890  -13.1731 O   0  0  0  0  0  0  0  0  0  0  0  0
   23.0131  -20.2790  -11.7570 O   0  0  0  0  0  0  0  0  0  0  0  0
  2  3  1  0
  2  1  1  1
  4  5  2  0
  4  3  1  0
  6  5  1  0
  7 12  2  0
  7  6  1  0
  8  7  1  0
  9 10  1  0
  9  8  2  0
 10 11  2  0
 11 12  1  0
 12  4  1  0
 13  2  1  0
 14 13  2  0
 15 13  1  0
 16 15  1  0
 16 17  1  6
 18 17  1  0
 19 18  2  0
 20 19  1  0
 21 20  1  0
 21 26  2  0
 22 21  1  0
 23 22  2  0
 23 24  1  0
 24 25  2  0
 25 26  1  0
 26 18  1  0
 27 16  1  0
 27 29  1  0
 28 27  2  0
 29 30  1  0
 30 31  1  0
 32 31  1  0
 33 29  1  0
 33 32  1  0
 33 34  1  1
 35 34  1  0
 36 34  2  0
M  END
$$$$
