WWP.pdb
     RDKit          3D

 36 40  0  0  1  0  0  0  0  0999 V2000
   26.0793  -18.4315   -9.2648 N   0  0  0  0  0  0  0  0  0  0  0  0
   26.4130  -19.7819   -9.6693 C   0  0  1  0  0  0  0  0  0  0  0  0
   26.0151  -20.6676   -8.4875 C   0  0  0  0  0  0  0  0  0  0  0  0
   26.7930  -20.1980   -7.3193 C   0  0  0  0  0  0  0  0  0  0  0  0
   26.2810  -19.5829   -6.1856 C   0  0  0  0  0  0  0  0  0  0  0  0
   27.2933  -19.2989   -5.3478 N   0  0  0  0  0  0  0  0  0  0  0  0
   28.4449  -19.7154   -5.9123 C   0  0  0  0  0  0  0  0  0  0  0  0
   29.7752  -19.6876   -5.5175 C   0  0  0  0  0  0  0  0  0  0  0  0
   30.7497  -20.2045   -6.3301 C   0  0  0  0  0  0  0  0  0  0  0  0
   30.4390  -20.7653   -7.5595 C   0  0  0  0  0  0  0  0  0  0  0  0
   29.1281  -20.8065   -7.9774 C   0  0  0  0  0  0  0  0  0  0  0  0
   28.1652  -20.2847   -7.1512 C   0  0  0  0  0  0  0  0  0  0  0  0
   25.7112  -20.2060  -10.8869 C   0  0  0  0  0  0  0  0  0  0  0  0
   24.5616  -19.7433  -11.1127 O   0  0  0  0  0  0  0  0  0  0  0  0
   26.3003  -21.1055  -11.7854 N   0  0  0  0  0  0  0  0  0  0  0  0
   25.7755  -21.2574  -13.1422 C   0  0  1  0  0  0  0  0  0  0  0  0
   26.8666  -21.8545  -13.9467 C   0  0  0  0  0  0  0  0  0  0  0  0
   26.5669  -22.1730  -15.3511 C   0  0  0  0  0  0  0  0  0  0  0  0
   26.6493  -21.2769  -16.4329 C   0  0  0  0  0  0  0  0  0  0  0  0
   26.2707  -21.8905  -17.5502 N   0  0  0  0  0  0  0  0  0  0  0  0
   25.9404  -23.1628  -17.2504 C   0  0  0  0  0  0  0  0  0  0  0  0
   25.5111  -24.2056  -18.0184 C   0  0  0  0  0  0  0  0  0  0  0  0
   25.2552  -25.4333  -17.4774 C   0  0  0  0  0  0  0  0  0  0  0  0
   25.4302  -25.6456  -16.1144 C   0  0  0  0  0  0  0  0  0  0  0  0
   25.8583  -24.5963  -15.3597 C   0  0  0  0  0  0  0  0  0  0  0  0
   26.1212  -23.3463  -15.8907 C   0  0  0  0  0  0  0  0  0  0  0  0
   24.4993  -21.9422  -13.1648 C   0  0  0  0  0  0  0  0  0  0  0  0
   24.4314  -22.9305  -12.3062 O   0  0  0  0  0  0  0  0  0  0  0  0
   23.3574  -21.7260  -13.9358 N   0  0  0  0  0  0  0  0  0  0  0  0
   23.0561  -20.8305  -15.0111 C   0  0  0  0  0  0  0  0  0  0  0  0
   21.7187  -20.2664  -14.4801 C   0  0  0  0  0  0  0  0  0  0  0  0
   20.9896  -21.5702  -14.2328 C   0  0  0  0  0  0  0  0  0  0  0  0
   22.0747  -22.4806  -13.7496 C   0  0  1  0  0  0  0  0  0  0  0  0
   22.0977  -23.6915  -14.5891 C   0  0  0  0  0  0  0  0  0  0  0  0
   21.1121  -24.6409  -14.4341 O   0  0  0  0  0  0  0  0  0  0  0  0
   22.9952  -23.8668  -15.4352 O   0  0  0  0  0  0  0  0  0  0  0  0
  2  3  1  0
  2  1  1  1
  4  5  2  0
  4  3  1  0
  6  5  1  0
  7 12  2  0
  7  6  1  0
  8  7  1  0
  9 10  1  0
  9  8  2  0
 10 11  2  0
 11 12  1  0
 12  4  1  0
 13  2  1  0
 14 13  2  0
 15 13  1  0
 16 15  1  0
 16 17  1  6
 18 17  1  0
 19 18  2  0
 20 19  1  0
 21 20  1  0
 21 26  2  0
 22 21  1  0
 23 22  2  0
 23 24  1  0
 24 25  2  0
 25 26  1  0
 26 18  1  0
 27 16  1  0
 27 29  1  0
 28 27  2  0
 29 30  1  0
 30 31  1  0
 32 31  1  0
 33 29  1  0
 33 32  1  0
 33 34  1  6
 35 34  1  0
 36 34  2  0
M  END
$$$$
