SCE.pdb
     RDKit          3D

 22 21  0  0  1  0  0  0  0  0999 V2000
    7.3816  -17.4326   22.7187 O   0  0  0  0  0  0  0  0  0  0  0  0
    7.7962  -16.8517   21.5461 C   0  0  0  0  0  0  0  0  0  0  0  0
    7.3695  -15.3795   21.4745 C   0  0  2  0  0  0  0  0  0  0  0  0
    7.8680  -14.8572   20.2381 N   0  0  0  0  0  0  0  0  0  0  0  0
    7.9518  -14.6839   22.6674 C   0  0  0  0  0  0  0  0  0  0  0  0
    9.1793  -14.4196   22.6300 O   0  0  0  0  0  0  0  0  0  0  0  0
    7.1968  -14.3284   23.7893 N   0  0  0  0  0  0  0  0  0  0  0  0
    7.7460  -13.7222   24.9796 C   0  0  1  0  0  0  0  0  0  0  0  0
    6.6680  -13.0925   25.8557 C   0  0  0  0  0  0  0  0  0  0  0  0
    7.3849  -12.3414   27.3189 S   0  0  0  0  0  0  0  0  0  0  0  0
    8.4815  -14.6808   25.8124 C   0  0  0  0  0  0  0  0  0  0  0  0
    7.9192  -15.7816   26.1346 O   0  0  0  0  0  0  0  0  0  0  0  0
    9.7957  -14.5005   26.3106 N   0  0  0  0  0  0  0  0  0  0  0  0
   10.4905  -15.5411   27.0987 C   0  0  1  0  0  0  0  0  0  0  0  0
   11.9050  -15.6181   26.6938 C   0  0  0  0  0  0  0  0  0  0  0  0
   12.2084  -16.6338   25.6573 C   0  0  0  0  0  0  0  0  0  0  0  0
   13.5791  -16.6524   25.1341 C   0  0  0  0  0  0  0  0  0  0  0  0
   14.2818  -17.7219   25.0846 O   0  0  0  0  0  0  0  0  0  0  0  0
   10.2187  -15.3220   28.4906 C   0  0  0  0  0  0  0  0  0  0  0  0
    9.7131  -14.2438   28.8923 O   0  0  0  0  0  0  0  0  0  0  0  0
   14.2105  -15.5119   24.6565 O   0  0  0  0  0  0  0  0  0  0  0  0
   10.4941  -16.3009   29.4433 O   0  0  0  0  0  0  0  0  0  0  0  0
  2  1  1  0
  3  2  1  0
  3  5  1  0
  3  4  1  6
  5  7  1  0
  5  6  2  0
  7  8  1  0
  8  9  1  1
 10  9  1  0
 11 12  2  0
 11  8  1  0
 13 11  1  0
 14 13  1  0
 14 15  1  1
 15 16  1  0
 17 21  1  0
 17 16  1  0
 18 17  2  0
 19 14  1  0
 20 19  2  0
 22 19  1  0
M  END
$$$$
