SCE.pdb
     RDKit          3D

 22 21  0  0  1  0  0  0  0  0999 V2000
    5.6164  -17.1554   20.0473 O   0  0  0  0  0  0  0  0  0  0  0  0
    6.5909  -16.6714   20.8842 C   0  0  0  0  0  0  0  0  0  0  0  0
    6.6032  -15.1370   20.8934 C   0  0  2  0  0  0  0  0  0  0  0  0
    6.9910  -14.7121   19.5823 N   0  0  0  0  0  0  0  0  0  0  0  0
    7.5744  -14.7013   21.9483 C   0  0  0  0  0  0  0  0  0  0  0  0
    8.7806  -14.6100   21.6097 O   0  0  0  0  0  0  0  0  0  0  0  0
    7.1947  -14.4009   23.2600 N   0  0  0  0  0  0  0  0  0  0  0  0
    8.1226  -14.1171   24.3299 C   0  0  1  0  0  0  0  0  0  0  0  0
    7.4175  -13.6209   25.5880 C   0  0  0  0  0  0  0  0  0  0  0  0
    5.9661  -14.6128   25.9463 S   0  0  0  0  0  0  0  0  0  0  0  0
    8.9209  -15.2884   24.7091 C   0  0  0  0  0  0  0  0  0  0  0  0
    8.4155  -16.4537   24.5734 O   0  0  0  0  0  0  0  0  0  0  0  0
   10.2392  -15.2540   25.2278 N   0  0  0  0  0  0  0  0  0  0  0  0
   11.1382  -16.4269   25.1767 C   0  0  1  0  0  0  0  0  0  0  0  0
   12.4322  -16.0435   24.5858 C   0  0  0  0  0  0  0  0  0  0  0  0
   13.4597  -17.1122   24.5739 C   0  0  0  0  0  0  0  0  0  0  0  0
   14.7664  -16.7637   24.0047 C   0  0  0  0  0  0  0  0  0  0  0  0
   15.8697  -17.0614   24.5827 O   0  0  0  0  0  0  0  0  0  0  0  0
   11.1665  -17.0413   26.4732 C   0  0  0  0  0  0  0  0  0  0  0  0
   10.7563  -16.4297   27.4916 O   0  0  0  0  0  0  0  0  0  0  0  0
   14.8983  -16.0864   22.7999 O   0  0  0  0  0  0  0  0  0  0  0  0
   11.6381  -18.3411   26.6466 O   0  0  0  0  0  0  0  0  0  0  0  0
  2  1  1  0
  3  2  1  0
  3  5  1  0
  3  4  1  6
  5  7  1  0
  5  6  2  0
  7  8  1  0
  8  9  1  1
 10  9  1  0
 11 12  2  0
 11  8  1  0
 13 11  1  0
 14 13  1  0
 14 15  1  1
 15 16  1  0
 17 21  1  0
 17 16  1  0
 18 17  2  0
 19 14  1  0
 20 19  2  0
 22 19  1  0
M  END
$$$$
