SCE.pdb
     RDKit          3D

 22 21  0  0  1  0  0  0  0  0999 V2000
    7.4927  -17.1720   21.4221 O   0  0  0  0  0  0  0  0  0  0  0  0
    6.6110  -16.1374   21.2310 C   0  0  0  0  0  0  0  0  0  0  0  0
    7.3397  -14.7877   21.1872 C   0  0  2  0  0  0  0  0  0  0  0  0
    8.2103  -14.8169   20.0508 N   0  0  0  0  0  0  0  0  0  0  0  0
    8.0862  -14.6374   22.4779 C   0  0  0  0  0  0  0  0  0  0  0  0
    9.3153  -14.8962   22.4589 O   0  0  0  0  0  0  0  0  0  0  0  0
    7.4787  -14.2301   23.6696 N   0  0  0  0  0  0  0  0  0  0  0  0
    8.1799  -14.0515   24.9196 C   0  0  1  0  0  0  0  0  0  0  0  0
    7.3240  -13.3433   25.9646 C   0  0  0  0  0  0  0  0  0  0  0  0
    8.2969  -12.9124   27.4091 S   0  0  0  0  0  0  0  0  0  0  0  0
    8.6216  -15.3227   25.5047 C   0  0  0  0  0  0  0  0  0  0  0  0
    7.7712  -16.2634   25.6580 O   0  0  0  0  0  0  0  0  0  0  0  0
    9.9402  -15.6195   25.9302 N   0  0  0  0  0  0  0  0  0  0  0  0
   10.3139  -16.9413   26.4778 C   0  0  1  0  0  0  0  0  0  0  0  0
   11.6240  -17.3543   25.9451 C   0  0  0  0  0  0  0  0  0  0  0  0
   11.6264  -17.7477   24.5157 C   0  0  0  0  0  0  0  0  0  0  0  0
   12.9242  -18.1073   23.9333 C   0  0  0  0  0  0  0  0  0  0  0  0
   14.0219  -18.0078   24.5855 O   0  0  0  0  0  0  0  0  0  0  0  0
   10.1690  -16.9054   27.9050 C   0  0  0  0  0  0  0  0  0  0  0  0
    9.8670  -15.8411   28.5012 O   0  0  0  0  0  0  0  0  0  0  0  0
   13.0533  -18.5803   22.6343 O   0  0  0  0  0  0  0  0  0  0  0  0
   10.3458  -18.0513   28.6781 O   0  0  0  0  0  0  0  0  0  0  0  0
  2  1  1  0
  3  2  1  0
  3  5  1  0
  3  4  1  6
  5  7  1  0
  5  6  2  0
  7  8  1  0
  8  9  1  1
 10  9  1  0
 11 12  2  0
 11  8  1  0
 13 11  1  0
 14 13  1  0
 14 15  1  1
 15 16  1  0
 17 21  1  0
 17 16  1  0
 18 17  2  0
 19 14  1  0
 20 19  2  0
 22 19  1  0
M  END
$$$$
