SCE.pdb
     RDKit          3D

 22 21  0  0  1  0  0  0  0  0999 V2000
    6.8880  -18.9127   19.2099 O   0  0  0  0  0  0  0  0  0  0  0  0
    8.1063  -18.3530   19.5044 C   0  0  0  0  0  0  0  0  0  0  0  0
    8.0977  -16.8395   19.2516 C   0  0  2  0  0  0  0  0  0  0  0  0
    8.9130  -16.6014   18.0989 N   0  0  0  0  0  0  0  0  0  0  0  0
    8.6360  -16.1748   20.4822 C   0  0  0  0  0  0  0  0  0  0  0  0
    9.8779  -15.9938   20.5352 O   0  0  0  0  0  0  0  0  0  0  0  0
    7.8259  -15.7606   21.5439 N   0  0  0  0  0  0  0  0  0  0  0  0
    8.3193  -15.1200   22.7407 C   0  0  1  0  0  0  0  0  0  0  0  0
    7.1928  -14.5459   23.5935 C   0  0  0  0  0  0  0  0  0  0  0  0
    7.8445  -13.6847   25.0261 S   0  0  0  0  0  0  0  0  0  0  0  0
    9.0903  -16.0334   23.5920 C   0  0  0  0  0  0  0  0  0  0  0  0
    8.6147  -17.1906   23.8499 O   0  0  0  0  0  0  0  0  0  0  0  0
   10.3502  -15.7498   24.1751 N   0  0  0  0  0  0  0  0  0  0  0  0
   11.1158  -16.7639   24.9315 C   0  0  1  0  0  0  0  0  0  0  0  0
   12.5557  -16.4586   24.8666 C   0  0  0  0  0  0  0  0  0  0  0  0
   13.1945  -16.7144   23.5534 C   0  0  0  0  0  0  0  0  0  0  0  0
   14.6098  -16.3486   23.4267 C   0  0  0  0  0  0  0  0  0  0  0  0
   15.4565  -16.5398   24.3683 O   0  0  0  0  0  0  0  0  0  0  0  0
   10.5335  -16.9011   26.2359 C   0  0  0  0  0  0  0  0  0  0  0  0
    9.6847  -16.0765   26.6589 O   0  0  0  0  0  0  0  0  0  0  0  0
   15.1302  -15.7691   22.2773 O   0  0  0  0  0  0  0  0  0  0  0  0
   10.8793  -17.9595   27.0737 O   0  0  0  0  0  0  0  0  0  0  0  0
  2  1  1  0
  3  2  1  0
  3  5  1  0
  3  4  1  6
  5  7  1  0
  5  6  2  0
  7  8  1  0
  8  9  1  1
 10  9  1  0
 11 12  2  0
 11  8  1  0
 13 11  1  0
 14 13  1  0
 14 15  1  1
 15 16  1  0
 17 21  1  0
 17 16  1  0
 18 17  2  0
 19 14  1  0
 20 19  2  0
 22 19  1  0
M  END
$$$$
