SCE.pdb
     RDKit          3D

 22 21  0  0  1  0  0  0  0  0999 V2000
    5.5938  -16.6913   20.0594 O   0  0  0  0  0  0  0  0  0  0  0  0
    6.5139  -16.2939   20.9973 C   0  0  0  0  0  0  0  0  0  0  0  0
    6.7044  -14.7715   20.9780 C   0  0  2  0  0  0  0  0  0  0  0  0
    7.3492  -14.4443   19.7422 N   0  0  0  0  0  0  0  0  0  0  0  0
    7.5337  -14.4067   22.1718 C   0  0  0  0  0  0  0  0  0  0  0  0
    8.7815  -14.4395   22.0304 O   0  0  0  0  0  0  0  0  0  0  0  0
    6.9818  -14.0412   23.4034 N   0  0  0  0  0  0  0  0  0  0  0  0
    7.7507  -13.8282   24.6073 C   0  0  1  0  0  0  0  0  0  0  0  0
    6.9219  -13.1849   25.7143 C   0  0  0  0  0  0  0  0  0  0  0  0
    7.8864  -12.9992   27.2157 S   0  0  0  0  0  0  0  0  0  0  0  0
    8.3096  -15.0731   25.1469 C   0  0  0  0  0  0  0  0  0  0  0  0
    7.5327  -16.0683   25.3417 O   0  0  0  0  0  0  0  0  0  0  0  0
    9.6690  -15.2876   25.4841 N   0  0  0  0  0  0  0  0  0  0  0  0
   10.1739  -16.6051   25.9267 C   0  0  1  0  0  0  0  0  0  0  0  0
   11.3564  -16.9830   25.1333 C   0  0  0  0  0  0  0  0  0  0  0  0
   12.0403  -18.2222   25.5745 C   0  0  0  0  0  0  0  0  0  0  0  0
   13.2300  -18.6243   24.8157 C   0  0  0  0  0  0  0  0  0  0  0  0
   13.7412  -19.7949   24.9079 O   0  0  0  0  0  0  0  0  0  0  0  0
   10.3218  -16.5850   27.3539 C   0  0  0  0  0  0  0  0  0  0  0  0
   10.3606  -15.5008   27.9883 O   0  0  0  0  0  0  0  0  0  0  0  0
   13.8851  -17.7640   23.9449 O   0  0  0  0  0  0  0  0  0  0  0  0
   10.4152  -17.7663   28.0872 O   0  0  0  0  0  0  0  0  0  0  0  0
  2  1  1  0
  3  2  1  0
  3  5  1  0
  3  4  1  6
  5  7  1  0
  5  6  2  0
  7  8  1  0
  8  9  1  1
 10  9  1  0
 11 12  2  0
 11  8  1  0
 13 11  1  0
 14 13  1  0
 14 15  1  6
 15 16  1  0
 17 21  1  0
 17 16  1  0
 18 17  2  0
 19 14  1  0
 20 19  2  0
 22 19  1  0
M  END
$$$$
