SCE.pdb
     RDKit          3D

 22 21  0  0  1  0  0  0  0  0999 V2000
    9.4020  -15.8258   17.0877 O   0  0  0  0  0  0  0  0  0  0  0  0
    8.0535  -15.6578   17.2814 C   0  0  0  0  0  0  0  0  0  0  0  0
    7.7417  -14.2605   17.8335 C   0  0  2  0  0  0  0  0  0  0  0  0
    8.3204  -13.3128   16.9296 N   0  0  0  0  0  0  0  0  0  0  0  0
    8.3332  -14.1775   19.2079 C   0  0  0  0  0  0  0  0  0  0  0  0
    9.5327  -13.8137   19.2911 O   0  0  0  0  0  0  0  0  0  0  0  0
    7.6159  -14.4824   20.3688 N   0  0  0  0  0  0  0  0  0  0  0  0
    8.1625  -14.4120   21.7038 C   0  0  1  0  0  0  0  0  0  0  0  0
    7.0878  -14.5637   22.7754 C   0  0  0  0  0  0  0  0  0  0  0  0
    7.7883  -14.3941   24.4183 S   0  0  0  0  0  0  0  0  0  0  0  0
    9.1767  -15.4429   21.9528 C   0  0  0  0  0  0  0  0  0  0  0  0
    8.9917  -16.6193   21.4905 O   0  0  0  0  0  0  0  0  0  0  0  0
   10.3795  -15.2569   22.6785 N   0  0  0  0  0  0  0  0  0  0  0  0
   11.4030  -16.3177   22.7949 C   0  0  1  0  0  0  0  0  0  0  0  0
   12.7335  -15.7699   22.4780 C   0  0  0  0  0  0  0  0  0  0  0  0
   13.8482  -16.7448   22.5477 C   0  0  0  0  0  0  0  0  0  0  0  0
   15.2015  -16.2139   22.3483 C   0  0  0  0  0  0  0  0  0  0  0  0
   15.4262  -14.9759   22.1096 O   0  0  0  0  0  0  0  0  0  0  0  0
   11.2481  -16.9688   24.0643 C   0  0  0  0  0  0  0  0  0  0  0  0
   10.5835  -16.4388   24.9899 O   0  0  0  0  0  0  0  0  0  0  0  0
   16.3331  -17.0164   22.4039 O   0  0  0  0  0  0  0  0  0  0  0  0
   11.8184  -18.2162   24.3107 O   0  0  0  0  0  0  0  0  0  0  0  0
  2  1  1  0
  3  2  1  0
  3  5  1  0
  3  4  1  6
  5  7  1  0
  5  6  2  0
  7  8  1  0
  8  9  1  1
 10  9  1  0
 11 12  2  0
 11  8  1  0
 13 11  1  0
 14 13  1  0
 14 15  1  1
 15 16  1  0
 17 21  1  0
 17 16  1  0
 18 17  2  0
 19 14  1  0
 20 19  2  0
 22 19  1  0
M  END
$$$$
