SCE.pdb
     RDKit          3D

 22 21  0  0  1  0  0  0  0  0999 V2000
    8.2682  -16.3300   19.6295 O   0  0  0  0  0  0  0  0  0  0  0  0
    8.3425  -15.1652   18.9069 C   0  0  0  0  0  0  0  0  0  0  0  0
    7.6495  -14.0104   19.6423 C   0  0  2  0  0  0  0  0  0  0  0  0
    7.7964  -12.8437   18.8254 N   0  0  0  0  0  0  0  0  0  0  0  0
    8.3145  -13.8636   20.9772 C   0  0  0  0  0  0  0  0  0  0  0  0
    9.4217  -13.2706   21.0001 O   0  0  0  0  0  0  0  0  0  0  0  0
    7.7604  -14.3501   22.1652 N   0  0  0  0  0  0  0  0  0  0  0  0
    8.4205  -14.3028   23.4489 C   0  0  1  0  0  0  0  0  0  0  0  0
    7.4296  -14.1884   24.6027 C   0  0  0  0  0  0  0  0  0  0  0  0
    6.3303  -15.6055   24.6503 S   0  0  0  0  0  0  0  0  0  0  0  0
    9.2496  -15.4871   23.7004 C   0  0  0  0  0  0  0  0  0  0  0  0
    8.9167  -16.6009   23.1710 O   0  0  0  0  0  0  0  0  0  0  0  0
   10.4204  -15.5186   24.4980 N   0  0  0  0  0  0  0  0  0  0  0  0
   11.4097  -16.6137   24.4044 C   0  0  1  0  0  0  0  0  0  0  0  0
   12.6803  -16.0990   23.8647 C   0  0  0  0  0  0  0  0  0  0  0  0
   13.7693  -17.0992   23.7572 C   0  0  0  0  0  0  0  0  0  0  0  0
   15.0340  -16.6363   23.1749 C   0  0  0  0  0  0  0  0  0  0  0  0
   15.9283  -16.0322   23.8645 O   0  0  0  0  0  0  0  0  0  0  0  0
   11.4623  -17.2949   25.6664 C   0  0  0  0  0  0  0  0  0  0  0  0
   12.0145  -18.4184   25.7762 O   0  0  0  0  0  0  0  0  0  0  0  0
   15.3499  -16.8204   21.8355 O   0  0  0  0  0  0  0  0  0  0  0  0
   10.9140  -16.7293   26.8160 O   0  0  0  0  0  0  0  0  0  0  0  0
  2  1  1  0
  3  2  1  0
  3  5  1  0
  3  4  1  6
  5  7  1  0
  5  6  2  0
  7  8  1  0
  8  9  1  1
 10  9  1  0
 11 12  2  0
 11  8  1  0
 13 11  1  0
 14 13  1  0
 14 15  1  1
 15 16  1  0
 17 21  1  0
 17 16  1  0
 18 17  2  0
 19 14  1  0
 20 19  2  0
 22 19  1  0
M  END
$$$$
