SCE.pdb
     RDKit          3D

 22 21  0  0  1  0  0  0  0  0999 V2000
    7.7960  -17.1876   20.3353 O   0  0  0  0  0  0  0  0  0  0  0  0
    8.8325  -16.5220   19.7295 C   0  0  0  0  0  0  0  0  0  0  0  0
    8.8127  -15.0280   20.0788 C   0  0  2  0  0  0  0  0  0  0  0  0
    9.9459  -14.4316   19.4383 N   0  0  0  0  0  0  0  0  0  0  0  0
    8.8722  -14.9143   21.5719 C   0  0  0  0  0  0  0  0  0  0  0  0
    9.9690  -15.1854   22.1209 O   0  0  0  0  0  0  0  0  0  0  0  0
    7.7792  -14.5274   22.3534 N   0  0  0  0  0  0  0  0  0  0  0  0
    7.7860  -14.4874   23.7972 C   0  0  1  0  0  0  0  0  0  0  0  0
    6.5814  -13.7393   24.3588 C   0  0  0  0  0  0  0  0  0  0  0  0
    6.5630  -13.8022   26.1517 S   0  0  0  0  0  0  0  0  0  0  0  0
    7.7885  -15.8261   24.3982 C   0  0  0  0  0  0  0  0  0  0  0  0
    6.9294  -16.6848   24.0029 O   0  0  0  0  0  0  0  0  0  0  0  0
    8.6778  -16.2749   25.4059 N   0  0  0  0  0  0  0  0  0  0  0  0
    8.5863  -17.6289   25.9931 C   0  0  1  0  0  0  0  0  0  0  0  0
    9.7477  -17.8788   26.8645 C   0  0  0  0  0  0  0  0  0  0  0  0
    9.7796  -19.2168   27.5021 C   0  0  0  0  0  0  0  0  0  0  0  0
   10.9132  -19.4966   28.3908 C   0  0  0  0  0  0  0  0  0  0  0  0
   12.1047  -19.6656   27.9530 O   0  0  0  0  0  0  0  0  0  0  0  0
    7.2844  -17.7911   26.5745 C   0  0  0  0  0  0  0  0  0  0  0  0
    6.6414  -16.8049   27.0143 O   0  0  0  0  0  0  0  0  0  0  0  0
   10.7735  -19.5980   29.7684 O   0  0  0  0  0  0  0  0  0  0  0  0
    6.6827  -19.0450   26.6604 O   0  0  0  0  0  0  0  0  0  0  0  0
  2  1  1  0
  3  2  1  0
  3  5  1  0
  3  4  1  6
  5  7  1  0
  5  6  2  0
  7  8  1  0
  8  9  1  1
 10  9  1  0
 11 12  2  0
 11  8  1  0
 13 11  1  0
 14 13  1  0
 14 15  1  1
 15 16  1  0
 17 21  1  0
 17 16  1  0
 18 17  2  0
 19 14  1  0
 20 19  2  0
 22 19  1  0
M  END
$$$$
