SCE.pdb
     RDKit          3D

 22 21  0  0  1  0  0  0  0  0999 V2000
    7.5191  -16.8313   21.1831 O   0  0  0  0  0  0  0  0  0  0  0  0
    6.3953  -16.0485   21.0900 C   0  0  0  0  0  0  0  0  0  0  0  0
    6.7558  -14.5570   21.0899 C   0  0  2  0  0  0  0  0  0  0  0  0
    7.5150  -14.3083   19.9017 N   0  0  0  0  0  0  0  0  0  0  0  0
    7.5384  -14.2833   22.3384 C   0  0  0  0  0  0  0  0  0  0  0  0
    8.7881  -14.3847   22.2613 O   0  0  0  0  0  0  0  0  0  0  0  0
    6.9420  -13.9286   23.5523 N   0  0  0  0  0  0  0  0  0  0  0  0
    7.6732  -13.6522   24.7668 C   0  0  1  0  0  0  0  0  0  0  0  0
    6.7553  -13.2263   25.9080 C   0  0  0  0  0  0  0  0  0  0  0  0
    7.6964  -12.8758   27.3947 S   0  0  0  0  0  0  0  0  0  0  0  0
    8.4456  -14.8086   25.2353 C   0  0  0  0  0  0  0  0  0  0  0  0
    7.8600  -15.9373   25.3569 O   0  0  0  0  0  0  0  0  0  0  0  0
    9.8207  -14.7968   25.5772 N   0  0  0  0  0  0  0  0  0  0  0  0
   10.5469  -16.0239   25.9690 C   0  0  1  0  0  0  0  0  0  0  0  0
   11.8495  -16.0783   25.2828 C   0  0  0  0  0  0  0  0  0  0  0  0
   12.7107  -17.2253   25.6577 C   0  0  0  0  0  0  0  0  0  0  0  0
   14.0276  -17.2984   25.0147 C   0  0  0  0  0  0  0  0  0  0  0  0
   14.6882  -16.2537   24.6797 O   0  0  0  0  0  0  0  0  0  0  0  0
   10.5567  -16.1148   27.4011 C   0  0  0  0  0  0  0  0  0  0  0  0
   10.2211  -15.1379   28.1169 O   0  0  0  0  0  0  0  0  0  0  0  0
   14.6497  -18.5052   24.7241 O   0  0  0  0  0  0  0  0  0  0  0  0
   10.9267  -17.2926   28.0477 O   0  0  0  0  0  0  0  0  0  0  0  0
  2  1  1  0
  3  2  1  0
  3  5  1  0
  3  4  1  6
  5  7  1  0
  5  6  2  0
  7  8  1  0
  8  9  1  1
 10  9  1  0
 11 12  2  0
 11  8  1  0
 13 11  1  0
 14 13  1  0
 14 15  1  1
 15 16  1  0
 17 21  1  0
 17 16  1  0
 18 17  2  0
 19 14  1  0
 20 19  2  0
 22 19  1  0
M  END
$$$$
