SCE.pdb
     RDKit          3D

 22 21  0  0  1  0  0  0  0  0999 V2000
    7.8325  -18.1638   19.9175 O   0  0  0  0  0  0  0  0  0  0  0  0
    6.8265  -17.2746   19.6319 C   0  0  0  0  0  0  0  0  0  0  0  0
    7.3734  -15.8498   19.4727 C   0  0  2  0  0  0  0  0  0  0  0  0
    8.2325  -15.8550   18.3273 N   0  0  0  0  0  0  0  0  0  0  0  0
    8.1030  -15.5043   20.7354 C   0  0  0  0  0  0  0  0  0  0  0  0
    9.3514  -15.6432   20.7284 O   0  0  0  0  0  0  0  0  0  0  0  0
    7.4598  -15.0453   21.8890 N   0  0  0  0  0  0  0  0  0  0  0  0
    8.1374  -14.7201   23.1223 C   0  0  1  0  0  0  0  0  0  0  0  0
    7.1740  -14.2245   24.1959 C   0  0  0  0  0  0  0  0  0  0  0  0
    8.0461  -13.8406   25.7160 S   0  0  0  0  0  0  0  0  0  0  0  0
    8.8665  -15.8634   23.6833 C   0  0  0  0  0  0  0  0  0  0  0  0
    8.2603  -16.9797   23.8182 O   0  0  0  0  0  0  0  0  0  0  0  0
   10.2196  -15.8515   24.1037 N   0  0  0  0  0  0  0  0  0  0  0  0
   10.9029  -17.0658   24.5988 C   0  0  1  0  0  0  0  0  0  0  0  0
   12.1961  -17.2305   23.9124 C   0  0  0  0  0  0  0  0  0  0  0  0
   13.2813  -16.3424   24.3934 C   0  0  0  0  0  0  0  0  0  0  0  0
   14.5516  -16.3980   23.6613 C   0  0  0  0  0  0  0  0  0  0  0  0
   15.2418  -17.4722   23.5622 O   0  0  0  0  0  0  0  0  0  0  0  0
   10.9226  -17.0297   26.0332 C   0  0  0  0  0  0  0  0  0  0  0  0
   10.4877  -16.0339   26.6646 O   0  0  0  0  0  0  0  0  0  0  0  0
   15.0947  -15.2899   23.0249 O   0  0  0  0  0  0  0  0  0  0  0  0
   11.4130  -18.1019   26.7762 O   0  0  0  0  0  0  0  0  0  0  0  0
  2  1  1  0
  3  2  1  0
  3  5  1  0
  3  4  1  6
  5  7  1  0
  5  6  2  0
  7  8  1  0
  8  9  1  1
 10  9  1  0
 11 12  2  0
 11  8  1  0
 13 11  1  0
 14 13  1  0
 14 15  1  6
 15 16  1  0
 17 21  1  0
 17 16  1  0
 18 17  2  0
 19 14  1  0
 20 19  2  0
 22 19  1  0
M  END
$$$$
