LDA.pdb
     RDKit          3D

 22 21  0  0  1  0  0  0  0  0999 V2000
   20.5767  -11.9133  -17.7494 C   0  0  0  0  0  0  0  0  0  0  0  0
   19.2820  -11.2275  -18.1563 C   0  0  2  0  0  0  0  0  0  0  0  0
   19.2305  -11.1505  -19.6695 C   0  0  0  0  0  0  0  0  0  0  0  0
   19.2107   -9.8619  -17.5457 C   0  0  0  0  0  0  0  0  0  0  0  0
   19.2613   -9.8883  -16.0477 C   0  0  2  0  0  0  0  0  0  0  0  0
   18.2045  -10.6215  -15.4368 N   0  0  0  0  0  0  0  0  0  0  0  0
   19.4015   -8.5129  -15.4972 C   0  0  0  0  0  0  0  0  0  0  0  0
   18.3602   -7.8564  -15.3049 O   0  0  0  0  0  0  0  0  0  0  0  0
   20.6260   -7.9097  -15.1819 N   0  0  0  0  0  0  0  0  0  0  0  0
   20.7642   -6.5894  -14.6299 C   0  0  1  0  0  0  0  0  0  0  0  0
   21.9080   -6.4297  -13.6853 C   0  0  0  0  0  0  0  0  0  0  0  0
   21.9457   -5.1207  -12.9866 C   0  0  0  0  0  0  0  0  0  0  0  0
   21.1704   -4.9112  -12.0345 O   0  0  0  0  0  0  0  0  0  0  0  0
   20.8469   -5.5466  -15.6769 C   0  0  0  0  0  0  0  0  0  0  0  0
   21.5946   -5.6387  -16.6845 O   0  0  0  0  0  0  0  0  0  0  0  0
   22.8180   -4.1194  -13.3598 O   0  0  0  0  0  0  0  0  0  0  0  0
   18.7806   -3.0209  -17.2006 C   0  0  0  0  0  0  0  0  0  0  0  0
   20.1230   -3.3170  -16.6190 C   0  0  2  0  0  0  0  0  0  0  0  0
   20.0668   -4.3643  -15.5916 N   0  0  0  0  0  0  0  0  0  0  0  0
   20.8190   -2.1141  -16.0904 C   0  0  0  0  0  0  0  0  0  0  0  0
   20.6966   -1.7800  -14.8845 O   0  0  0  0  0  0  0  0  0  0  0  0
   21.6210   -1.3206  -16.8923 O   0  0  0  0  0  0  0  0  0  0  0  0
  2  1  1  6
  2  3  1  0
  4  5  1  0
  4  2  1  0
  5  7  1  0
  5  6  1  1
  7  8  2  0
  7  9  1  0
  9 10  1  0
 10 11  1  6
 10 14  1  0
 12 16  1  0
 12 11  1  0
 13 12  2  0
 14 15  2  0
 18 17  1  1
 19 14  1  0
 19 18  1  0
 20 18  1  0
 20 22  1  0
 21 20  2  0
M  END
$$$$
