LDA.pdb
     RDKit          3D

 22 21  0  0  1  0  0  0  0  0999 V2000
   17.5401  -11.2236  -10.3120 C   0  0  0  0  0  0  0  0  0  0  0  0
   16.5298  -11.1285  -11.4444 C   0  0  2  0  0  0  0  0  0  0  0  0
   17.1724  -11.6579  -12.7114 C   0  0  0  0  0  0  0  0  0  0  0  0
   16.0866   -9.7088  -11.6190 C   0  0  0  0  0  0  0  0  0  0  0  0
   15.2759   -9.2034  -10.4637 C   0  0  2  0  0  0  0  0  0  0  0  0
   14.1538  -10.0154  -10.1332 N   0  0  0  0  0  0  0  0  0  0  0  0
   14.9154   -7.7723  -10.6541 C   0  0  0  0  0  0  0  0  0  0  0  0
   13.9121   -7.5144  -11.3465 O   0  0  0  0  0  0  0  0  0  0  0  0
   15.6294   -6.6986  -10.1065 N   0  0  0  0  0  0  0  0  0  0  0  0
   15.3189   -5.3136  -10.3359 C   0  0  1  0  0  0  0  0  0  0  0  0
   15.4720   -4.4380   -9.1377 C   0  0  0  0  0  0  0  0  0  0  0  0
   14.3961   -4.5915   -8.1268 C   0  0  0  0  0  0  0  0  0  0  0  0
   13.3721   -5.2394   -8.4147 O   0  0  0  0  0  0  0  0  0  0  0  0
   16.0923   -4.7414  -11.4605 C   0  0  0  0  0  0  0  0  0  0  0  0
   17.3412   -4.8515  -11.5653 O   0  0  0  0  0  0  0  0  0  0  0  0
   14.4929   -4.0353   -6.8681 O   0  0  0  0  0  0  0  0  0  0  0  0
   15.3082   -2.8842  -14.6747 C   0  0  0  0  0  0  0  0  0  0  0  0
   16.1955   -3.3580  -13.5719 C   0  0  2  0  0  0  0  0  0  0  0  0
   15.4453   -4.0242  -12.5000 N   0  0  0  0  0  0  0  0  0  0  0  0
   17.0618   -2.2897  -13.0069 C   0  0  0  0  0  0  0  0  0  0  0  0
   16.7405   -1.6975  -11.9454 O   0  0  0  0  0  0  0  0  0  0  0  0
   18.2435   -1.9061  -13.6170 O   0  0  0  0  0  0  0  0  0  0  0  0
  2  1  1  1
  2  3  1  0
  4  5  1  0
  4  2  1  0
  5  7  1  0
  5  6  1  6
  7  8  2  0
  7  9  1  0
  9 10  1  0
 10 11  1  1
 10 14  1  0
 12 16  1  0
 12 11  1  0
 13 12  2  0
 14 15  2  0
 18 17  1  6
 19 14  1  0
 19 18  1  0
 20 18  1  0
 20 22  1  0
 21 20  2  0
M  END
$$$$
