LDA.pdb
     RDKit          3D

 22 21  0  0  1  0  0  0  0  0999 V2000
   29.7224  -22.0050  -10.6734 C   0  0  0  0  0  0  0  0  0  0  0  0
   29.5818  -21.1135  -11.8971 C   0  0  2  0  0  0  0  0  0  0  0  0
   30.7427  -20.1386  -11.9211 C   0  0  0  0  0  0  0  0  0  0  0  0
   28.2719  -20.3888  -11.8564 C   0  0  0  0  0  0  0  0  0  0  0  0
   27.0917  -21.3116  -11.9092 C   0  0  2  0  0  0  0  0  0  0  0  0
   27.3282  -22.5287  -12.6094 N   0  0  0  0  0  0  0  0  0  0  0  0
   25.8795  -20.5957  -12.3914 C   0  0  0  0  0  0  0  0  0  0  0  0
   25.6298  -19.4799  -11.8964 O   0  0  0  0  0  0  0  0  0  0  0  0
   25.0027  -21.0941  -13.3637 N   0  0  0  0  0  0  0  0  0  0  0  0
   23.8423  -20.3962  -13.8472 C   0  0  1  0  0  0  0  0  0  0  0  0
   23.7406  -20.3195  -15.3337 C   0  0  0  0  0  0  0  0  0  0  0  0
   22.5688  -19.5538  -15.8275 C   0  0  0  0  0  0  0  0  0  0  0  0
   22.1754  -18.5574  -15.1922 O   0  0  0  0  0  0  0  0  0  0  0  0
   22.5833  -20.9491  -13.2998 C   0  0  0  0  0  0  0  0  0  0  0  0
   22.2025  -22.1306  -13.5043 O   0  0  0  0  0  0  0  0  0  0  0  0
   21.8947  -19.9122  -16.9765 O   0  0  0  0  0  0  0  0  0  0  0  0
   19.9932  -19.8169  -10.7846 C   0  0  0  0  0  0  0  0  0  0  0  0
   20.5161  -20.6991  -11.8692 C   0  0  2  0  0  0  0  0  0  0  0  0
   21.7252  -20.1528  -12.4979 N   0  0  0  0  0  0  0  0  0  0  0  0
   19.5021  -21.0307  -12.9050 C   0  0  0  0  0  0  0  0  0  0  0  0
   19.6209  -20.5998  -14.0802 O   0  0  0  0  0  0  0  0  0  0  0  0
   18.3985  -21.8173  -12.6240 O   0  0  0  0  0  0  0  0  0  0  0  0
  2  1  1  1
  2  3  1  0
  4  5  1  0
  4  2  1  0
  5  7  1  0
  5  6  1  6
  7  8  2  0
  7  9  1  0
  9 10  1  0
 10 11  1  6
 10 14  1  0
 12 16  1  0
 12 11  1  0
 13 12  2  0
 14 15  2  0
 18 17  1  1
 19 14  1  0
 19 18  1  0
 20 18  1  0
 20 22  1  0
 21 20  2  0
M  END
$$$$
