LDA.pdb
     RDKit          3D

 22 21  0  0  1  0  0  0  0  0999 V2000
   36.9088   -0.3058   -0.2257 C   0  0  0  0  0  0  0  0  0  0  0  0
   35.5283   -0.6584    0.3052 C   0  0  2  0  0  0  0  0  0  0  0  0
   35.5380   -2.1067    0.7535 C   0  0  0  0  0  0  0  0  0  0  0  0
   34.4966   -0.4310   -0.7562 C   0  0  0  0  0  0  0  0  0  0  0  0
   34.4611    0.9866   -1.2424 C   0  0  2  0  0  0  0  0  0  0  0  0
   34.3620    1.9603   -0.2081 N   0  0  0  0  0  0  0  0  0  0  0  0
   33.4264    1.1599   -2.2978 C   0  0  0  0  0  0  0  0  0  0  0  0
   33.3670    0.3005   -3.1980 O   0  0  0  0  0  0  0  0  0  0  0  0
   32.5169    2.2243   -2.3446 N   0  0  0  0  0  0  0  0  0  0  0  0
   31.4979    2.3802   -3.3468 C   0  0  1  0  0  0  0  0  0  0  0  0
   30.2642    3.0727   -2.8731 C   0  0  0  0  0  0  0  0  0  0  0  0
   29.4786    2.3065   -1.8736 C   0  0  0  0  0  0  0  0  0  0  0  0
   29.4059    2.7219   -0.7016 O   0  0  0  0  0  0  0  0  0  0  0  0
   32.0016    3.0578   -4.5623 C   0  0  0  0  0  0  0  0  0  0  0  0
   32.6176    4.1545   -4.5353 O   0  0  0  0  0  0  0  0  0  0  0  0
   28.8208    1.1392   -2.2019 O   0  0  0  0  0  0  0  0  0  0  0  0
   33.5840    2.2889   -7.5381 C   0  0  0  0  0  0  0  0  0  0  0  0
   32.4067    3.0696   -7.0559 C   0  0  2  0  0  0  0  0  0  0  0  0
   31.8091    2.4880   -5.8475 N   0  0  0  0  0  0  0  0  0  0  0  0
   31.3653    3.2764   -8.0969 C   0  0  0  0  0  0  0  0  0  0  0  0
   30.2277    2.7541   -7.9791 O   0  0  0  0  0  0  0  0  0  0  0  0
   31.6000    4.0425   -9.2256 O   0  0  0  0  0  0  0  0  0  0  0  0
  2  1  1  6
  2  3  1  0
  4  5  1  0
  4  2  1  0
  5  7  1  0
  5  6  1  1
  7  8  2  0
  7  9  1  0
  9 10  1  0
 10 11  1  1
 10 14  1  0
 12 16  1  0
 12 11  1  0
 13 12  2  0
 14 15  2  0
 18 17  1  6
 19 14  1  0
 19 18  1  0
 20 18  1  0
 20 22  1  0
 21 20  2  0
M  END
$$$$
