LDA.pdb
     RDKit          3D

 22 21  0  0  1  0  0  0  0  0999 V2000
   26.5200  -19.0105   -6.9163 C   0  0  0  0  0  0  0  0  0  0  0  0
   27.1032  -20.2943   -7.4854 C   0  0  2  0  0  0  0  0  0  0  0  0
   28.6007  -20.2916   -7.2488 C   0  0  0  0  0  0  0  0  0  0  0  0
   26.7899  -20.3970   -8.9462 C   0  0  0  0  0  0  0  0  0  0  0  0
   25.3246  -20.2771   -9.2394 C   0  0  2  0  0  0  0  0  0  0  0  0
   24.4916  -21.0808   -8.4101 N   0  0  0  0  0  0  0  0  0  0  0  0
   25.0558  -20.4741  -10.6897 C   0  0  0  0  0  0  0  0  0  0  0  0
   25.9914  -20.8858  -11.4021 O   0  0  0  0  0  0  0  0  0  0  0  0
   23.8215  -20.2272  -11.3045 N   0  0  0  0  0  0  0  0  0  0  0  0
   23.5511  -20.4395  -12.7006 C   0  0  1  0  0  0  0  0  0  0  0  0
   22.1065  -20.3763  -13.0681 C   0  0  0  0  0  0  0  0  0  0  0  0
   21.2223  -21.2120  -12.2179 C   0  0  0  0  0  0  0  0  0  0  0  0
   21.5415  -22.3910  -11.9741 O   0  0  0  0  0  0  0  0  0  0  0  0
   24.3164  -19.5178  -13.5695 C   0  0  0  0  0  0  0  0  0  0  0  0
   25.0342  -18.5858  -13.1234 O   0  0  0  0  0  0  0  0  0  0  0  0
   20.0481  -20.7226  -11.6841 O   0  0  0  0  0  0  0  0  0  0  0  0
   25.9204  -17.8215  -15.1142 C   0  0  0  0  0  0  0  0  0  0  0  0
   25.1491  -18.8580  -15.8616 C   0  0  2  0  0  0  0  0  0  0  0  0
   24.2760  -19.6453  -14.9822 N   0  0  0  0  0  0  0  0  0  0  0  0
   26.0041  -19.7591  -16.6790 C   0  0  0  0  0  0  0  0  0  0  0  0
   25.9886  -21.0023  -16.4919 O   0  0  0  0  0  0  0  0  0  0  0  0
   26.8426  -19.2748  -17.6679 O   0  0  0  0  0  0  0  0  0  0  0  0
  2  1  1  6
  2  3  1  0
  4  5  1  0
  4  2  1  0
  5  7  1  0
  5  6  1  1
  7  8  2  0
  7  9  1  0
  9 10  1  0
 10 11  1  1
 10 14  1  0
 12 16  1  0
 12 11  1  0
 13 12  2  0
 14 15  2  0
 18 17  1  1
 19 14  1  0
 19 18  1  0
 20 18  1  0
 20 22  1  0
 21 20  2  0
M  END
$$$$
