LDA.pdb
     RDKit          3D

 22 21  0  0  1  0  0  0  0  0999 V2000
   25.1713  -12.2847  -15.6409 C   0  0  0  0  0  0  0  0  0  0  0  0
   24.2867  -12.7326  -16.7936 C   0  0  2  0  0  0  0  0  0  0  0  0
   25.1729  -13.2389  -17.9147 C   0  0  0  0  0  0  0  0  0  0  0  0
   23.4315  -11.5938  -17.2569 C   0  0  0  0  0  0  0  0  0  0  0  0
   22.4978  -11.0949  -16.1955 C   0  0  2  0  0  0  0  0  0  0  0  0
   21.7374  -12.1143  -15.5551 N   0  0  0  0  0  0  0  0  0  0  0  0
   21.6527   -9.9841  -16.7117 C   0  0  0  0  0  0  0  0  0  0  0  0
   22.1470   -9.2314  -17.5728 O   0  0  0  0  0  0  0  0  0  0  0  0
   20.3401   -9.7304  -16.2930 N   0  0  0  0  0  0  0  0  0  0  0  0
   19.4855   -8.7231  -16.8605 C   0  0  1  0  0  0  0  0  0  0  0  0
   18.0281   -8.9484  -16.6345 C   0  0  0  0  0  0  0  0  0  0  0  0
   17.5274  -10.2548  -17.1302 C   0  0  0  0  0  0  0  0  0  0  0  0
   17.7896  -10.6101  -18.2948 O   0  0  0  0  0  0  0  0  0  0  0  0
   19.8442   -7.3600  -16.4092 C   0  0  0  0  0  0  0  0  0  0  0  0
   20.1762   -7.0903  -15.2260 O   0  0  0  0  0  0  0  0  0  0  0  0
   16.7743  -11.0959  -16.3374 O   0  0  0  0  0  0  0  0  0  0  0  0
   20.3683   -3.9817  -18.0488 C   0  0  0  0  0  0  0  0  0  0  0  0
   20.1705   -4.9013  -16.8898 C   0  0  2  0  0  0  0  0  0  0  0  0
   19.8309   -6.2658  -17.3125 N   0  0  0  0  0  0  0  0  0  0  0  0
   19.1757   -4.4056  -15.9021 C   0  0  0  0  0  0  0  0  0  0  0  0
   18.0084   -4.8723  -15.8777 O   0  0  0  0  0  0  0  0  0  0  0  0
   19.4873   -3.4223  -14.9794 O   0  0  0  0  0  0  0  0  0  0  0  0
  2  1  1  1
  2  3  1  0
  4  5  1  0
  4  2  1  0
  5  7  1  0
  5  6  1  6
  7  8  2  0
  7  9  1  0
  9 10  1  0
 10 11  1  1
 10 14  1  0
 12 16  1  0
 12 11  1  0
 13 12  2  0
 14 15  2  0
 18 17  1  6
 19 14  1  0
 19 18  1  0
 20 18  1  0
 20 22  1  0
 21 20  2  0
M  END
$$$$
