LDA.pdb
     RDKit          3D

 22 21  0  0  1  0  0  0  0  0999 V2000
   11.6583  -12.3591  -12.5112 C   0  0  0  0  0  0  0  0  0  0  0  0
   12.4908  -13.1260  -11.4959 C   0  0  2  0  0  0  0  0  0  0  0  0
   11.6088  -13.4771  -10.3138 C   0  0  0  0  0  0  0  0  0  0  0  0
   13.6636  -12.3004  -11.0652 C   0  0  0  0  0  0  0  0  0  0  0  0
   14.6096  -11.9983  -12.1882 C   0  0  2  0  0  0  0  0  0  0  0  0
   15.3230  -13.1299  -12.6761 N   0  0  0  0  0  0  0  0  0  0  0  0
   15.5030  -10.8609  -11.8381 C   0  0  0  0  0  0  0  0  0  0  0  0
   16.4066  -11.0684  -11.0058 O   0  0  0  0  0  0  0  0  0  0  0  0
   15.3941   -9.5748  -12.3827 N   0  0  0  0  0  0  0  0  0  0  0  0
   16.1677   -8.4415  -11.9534 C   0  0  1  0  0  0  0  0  0  0  0  0
   16.7562   -7.6372  -13.0637 C   0  0  0  0  0  0  0  0  0  0  0  0
   17.5172   -6.4436  -12.6172 C   0  0  0  0  0  0  0  0  0  0  0  0
   18.3597   -6.5586  -11.7072 O   0  0  0  0  0  0  0  0  0  0  0  0
   15.4057   -7.5469  -11.0537 C   0  0  0  0  0  0  0  0  0  0  0  0
   14.2877   -7.0550  -11.3552 O   0  0  0  0  0  0  0  0  0  0  0  0
   17.3206   -5.2001  -13.1811 O   0  0  0  0  0  0  0  0  0  0  0  0
   15.4473   -6.6112   -7.4328 C   0  0  0  0  0  0  0  0  0  0  0  0
   15.1843   -6.2987   -8.8685 C   0  0  2  0  0  0  0  0  0  0  0  0
   15.9127   -7.1936   -9.7764 N   0  0  0  0  0  0  0  0  0  0  0  0
   15.4470   -4.8791   -9.2244 C   0  0  0  0  0  0  0  0  0  0  0  0
   16.3666   -4.5785  -10.0275 O   0  0  0  0  0  0  0  0  0  0  0  0
   14.7006   -3.8410   -8.6941 O   0  0  0  0  0  0  0  0  0  0  0  0
  2  1  1  6
  2  3  1  0
  4  5  1  0
  4  2  1  0
  5  7  1  0
  5  6  1  1
  7  8  2  0
  7  9  1  0
  9 10  1  0
 10 11  1  6
 10 14  1  0
 12 16  1  0
 12 11  1  0
 13 12  2  0
 14 15  2  0
 18 17  1  1
 19 14  1  0
 19 18  1  0
 20 18  1  0
 20 22  1  0
 21 20  2  0
M  END
$$$$
