LDA.pdb
     RDKit          3D

 22 21  0  0  1  0  0  0  0  0999 V2000
   24.6437  -12.2019  -14.8561 C   0  0  0  0  0  0  0  0  0  0  0  0
   24.3885  -12.1656  -16.3546 C   0  0  2  0  0  0  0  0  0  0  0  0
   25.7213  -12.0627  -17.0698 C   0  0  0  0  0  0  0  0  0  0  0  0
   23.5040  -11.0066  -16.6966 C   0  0  0  0  0  0  0  0  0  0  0  0
   22.1549  -11.0897  -16.0481 C   0  0  2  0  0  0  0  0  0  0  0  0
   21.4618  -12.3102  -16.2879 N   0  0  0  0  0  0  0  0  0  0  0  0
   21.3365   -9.8893  -16.3701 C   0  0  0  0  0  0  0  0  0  0  0  0
   20.9476   -9.7512  -17.5458 O   0  0  0  0  0  0  0  0  0  0  0  0
   20.9757   -8.9068  -15.4391 N   0  0  0  0  0  0  0  0  0  0  0  0
   20.0860   -7.8117  -15.7154 C   0  0  1  0  0  0  0  0  0  0  0  0
   19.2471   -7.3880  -14.5567 C   0  0  0  0  0  0  0  0  0  0  0  0
   18.3086   -8.4291  -14.0683 C   0  0  0  0  0  0  0  0  0  0  0  0
   17.7375   -9.1730  -14.8878 O   0  0  0  0  0  0  0  0  0  0  0  0
   20.7953   -6.6330  -16.2611 C   0  0  0  0  0  0  0  0  0  0  0  0
   21.8394   -6.1567  -15.7456 O   0  0  0  0  0  0  0  0  0  0  0  0
   18.0452   -8.6017  -12.7252 O   0  0  0  0  0  0  0  0  0  0  0  0
   20.4725   -4.4396  -19.3413 C   0  0  0  0  0  0  0  0  0  0  0  0
   21.0277   -4.8252  -18.0105 C   0  0  2  0  0  0  0  0  0  0  0  0
   20.3195   -5.9682  -17.4210 N   0  0  0  0  0  0  0  0  0  0  0  0
   21.0832   -3.6985  -17.0418 C   0  0  0  0  0  0  0  0  0  0  0  0
   22.0065   -2.8471  -17.1000 O   0  0  0  0  0  0  0  0  0  0  0  0
   20.1336   -3.5405  -16.0473 O   0  0  0  0  0  0  0  0  0  0  0  0
  2  1  1  1
  2  3  1  0
  4  5  1  0
  4  2  1  0
  5  7  1  0
  5  6  1  6
  7  8  2  0
  7  9  1  0
  9 10  1  0
 10 11  1  1
 10 14  1  0
 12 16  1  0
 12 11  1  0
 13 12  2  0
 14 15  2  0
 18 17  1  6
 19 14  1  0
 19 18  1  0
 20 18  1  0
 20 22  1  0
 21 20  2  0
M  END
$$$$
