LDA.pdb
     RDKit          3D

 22 21  0  0  1  0  0  0  0  0999 V2000
   20.4391  -13.4431  -19.7100 C   0  0  0  0  0  0  0  0  0  0  0  0
   21.7443  -13.1811  -18.9754 C   0  0  2  0  0  0  0  0  0  0  0  0
   21.7035  -13.9051  -17.6439 C   0  0  0  0  0  0  0  0  0  0  0  0
   21.9373  -11.7088  -18.7811 C   0  0  0  0  0  0  0  0  0  0  0  0
   21.1435  -11.1618  -17.6330 C   0  0  2  0  0  0  0  0  0  0  0  0
   19.8000  -11.6297  -17.5717 N   0  0  0  0  0  0  0  0  0  0  0  0
   21.2398   -9.6778  -17.5806 C   0  0  0  0  0  0  0  0  0  0  0  0
   22.3767   -9.1726  -17.5130 O   0  0  0  0  0  0  0  0  0  0  0  0
   20.1372   -8.8139  -17.6022 N   0  0  0  0  0  0  0  0  0  0  0  0
   20.2255   -7.3804  -17.5346 C   0  0  1  0  0  0  0  0  0  0  0  0
   19.0913   -6.6590  -18.1819 C   0  0  0  0  0  0  0  0  0  0  0  0
   19.2301   -5.1812  -18.1871 C   0  0  0  0  0  0  0  0  0  0  0  0
   18.3102   -4.4772  -17.7294 O   0  0  0  0  0  0  0  0  0  0  0  0
   20.3874   -6.8904  -16.1475 C   0  0  0  0  0  0  0  0  0  0  0  0
   19.6198   -7.2182  -15.2062 O   0  0  0  0  0  0  0  0  0  0  0  0
   20.3535   -4.5557  -18.6867 O   0  0  0  0  0  0  0  0  0  0  0  0
   23.0501   -6.0351  -13.9440 C   0  0  0  0  0  0  0  0  0  0  0  0
   21.7028   -5.6016  -14.4180 C   0  0  2  0  0  0  0  0  0  0  0  0
   21.4430   -6.0060  -15.8053 N   0  0  0  0  0  0  0  0  0  0  0  0
   21.4557   -4.1448  -14.2515 C   0  0  0  0  0  0  0  0  0  0  0  0
   21.2440   -3.4116  -15.2507 O   0  0  0  0  0  0  0  0  0  0  0  0
   21.4481   -3.5410  -13.0061 O   0  0  0  0  0  0  0  0  0  0  0  0
  2  1  1  1
  2  3  1  0
  4  5  1  0
  4  2  1  0
  5  7  1  0
  5  6  1  6
  7  8  2  0
  7  9  1  0
  9 10  1  0
 10 11  1  1
 10 14  1  0
 12 16  1  0
 12 11  1  0
 13 12  2  0
 14 15  2  0
 18 17  1  6
 19 14  1  0
 19 18  1  0
 20 18  1  0
 20 22  1  0
 21 20  2  0
M  END
$$$$
