LDA.pdb
     RDKit          3D

 22 21  0  0  1  0  0  0  0  0999 V2000
   20.9815  -11.3360  -16.7959 C   0  0  0  0  0  0  0  0  0  0  0  0
   19.5394  -10.9673  -17.1067 C   0  0  2  0  0  0  0  0  0  0  0  0
   19.2168  -11.4233  -18.5161 C   0  0  0  0  0  0  0  0  0  0  0  0
   19.3448   -9.4896  -16.9619 C   0  0  0  0  0  0  0  0  0  0  0  0
   19.7378   -8.9783  -15.6086 C   0  0  2  0  0  0  0  0  0  0  0  0
   18.9540   -9.4912  -14.5361 N   0  0  0  0  0  0  0  0  0  0  0  0
   19.8167   -7.4923  -15.6051 C   0  0  0  0  0  0  0  0  0  0  0  0
   18.7549   -6.8556  -15.4650 O   0  0  0  0  0  0  0  0  0  0  0  0
   21.0050   -6.7645  -15.7489 N   0  0  0  0  0  0  0  0  0  0  0  0
   21.0818   -5.3289  -15.7741 C   0  0  1  0  0  0  0  0  0  0  0  0
   22.1388   -4.7499  -14.8947 C   0  0  0  0  0  0  0  0  0  0  0  0
   21.8535   -4.8599  -13.4423 C   0  0  0  0  0  0  0  0  0  0  0  0
   22.7551   -5.2298  -12.6666 O   0  0  0  0  0  0  0  0  0  0  0  0
   21.2430   -4.7971  -17.1458 C   0  0  0  0  0  0  0  0  0  0  0  0
   22.0748   -5.2565  -17.9703 O   0  0  0  0  0  0  0  0  0  0  0  0
   20.6123   -4.5641  -12.9180 O   0  0  0  0  0  0  0  0  0  0  0  0
   19.4595   -2.3007  -19.3587 C   0  0  0  0  0  0  0  0  0  0  0  0
   20.6302   -3.1259  -18.9386 C   0  0  2  0  0  0  0  0  0  0  0  0
   20.4465   -3.7173  -17.6074 N   0  0  0  0  0  0  0  0  0  0  0  0
   21.9242   -2.3964  -19.0038 C   0  0  0  0  0  0  0  0  0  0  0  0
   22.5617   -2.1256  -17.9544 O   0  0  0  0  0  0  0  0  0  0  0  0
   22.4756   -1.9894  -20.2063 O   0  0  0  0  0  0  0  0  0  0  0  0
  2  1  1  6
  2  3  1  0
  4  5  1  0
  4  2  1  0
  5  7  1  0
  5  6  1  1
  7  8  2  0
  7  9  1  0
  9 10  1  0
 10 11  1  1
 10 14  1  0
 12 16  1  0
 12 11  1  0
 13 12  2  0
 14 15  2  0
 18 17  1  1
 19 14  1  0
 19 18  1  0
 20 18  1  0
 20 22  1  0
 21 20  2  0
M  END
$$$$
