LDA.pdb
     RDKit          3D

 22 21  0  0  1  0  0  0  0  0999 V2000
   19.5586  -11.3974  -19.2223 C   0  0  0  0  0  0  0  0  0  0  0  0
   18.2491  -11.3786  -18.4497 C   0  0  2  0  0  0  0  0  0  0  0  0
   17.1109  -11.1838  -19.4321 C   0  0  0  0  0  0  0  0  0  0  0  0
   18.2713  -10.2836  -17.4285 C   0  0  0  0  0  0  0  0  0  0  0  0
   19.3464  -10.4656  -16.3998 C   0  0  2  0  0  0  0  0  0  0  0  0
   19.2314  -11.6609  -15.6346 N   0  0  0  0  0  0  0  0  0  0  0  0
   19.4815   -9.2497  -15.5525 C   0  0  0  0  0  0  0  0  0  0  0  0
   18.7332   -9.1477  -14.5615 O   0  0  0  0  0  0  0  0  0  0  0  0
   20.3934   -8.2147  -15.7964 N   0  0  0  0  0  0  0  0  0  0  0  0
   20.5176   -7.0324  -14.9876 C   0  0  1  0  0  0  0  0  0  0  0  0
   21.9205   -6.6700  -14.6322 C   0  0  0  0  0  0  0  0  0  0  0  0
   22.0423   -5.4610  -13.7797 C   0  0  0  0  0  0  0  0  0  0  0  0
   21.5613   -5.4698  -12.6308 O   0  0  0  0  0  0  0  0  0  0  0  0
   19.8501   -5.8603  -15.5966 C   0  0  0  0  0  0  0  0  0  0  0  0
   20.1698   -5.3905  -16.7190 O   0  0  0  0  0  0  0  0  0  0  0  0
   22.6756   -4.3177  -14.2211 O   0  0  0  0  0  0  0  0  0  0  0  0
   16.6340   -4.0477  -15.2079 C   0  0  0  0  0  0  0  0  0  0  0  0
   18.0942   -4.0456  -15.5177 C   0  0  2  0  0  0  0  0  0  0  0  0
   18.7912   -5.1946  -14.9265 N   0  0  0  0  0  0  0  0  0  0  0  0
   18.7784   -2.7798  -15.1430 C   0  0  0  0  0  0  0  0  0  0  0  0
   18.5695   -1.7218  -15.7893 O   0  0  0  0  0  0  0  0  0  0  0  0
   19.6632   -2.7124  -14.0807 O   0  0  0  0  0  0  0  0  0  0  0  0
  2  1  1  6
  2  3  1  0
  4  5  1  0
  4  2  1  0
  5  7  1  0
  5  6  1  1
  7  8  2  0
  7  9  1  0
  9 10  1  0
 10 11  1  6
 10 14  1  0
 12 16  1  0
 12 11  1  0
 13 12  2  0
 14 15  2  0
 18 17  1  1
 19 14  1  0
 19 18  1  0
 20 18  1  0
 20 22  1  0
 21 20  2  0
M  END
$$$$
