QQE.pdb
     RDKit          3D

 28 27  0  0  1  0  0  0  0  0999 V2000
    6.1970  -19.2086   19.9721 N   0  0  0  0  0  0  0  0  0  0  0  0
    7.5772  -18.9293   20.1277 C   0  0  0  0  0  0  0  0  0  0  0  0
    8.3721  -19.8948   20.1989 O   0  0  0  0  0  0  0  0  0  0  0  0
    8.1077  -17.5526   20.2091 C   0  0  0  0  0  0  0  0  0  0  0  0
    7.0546  -16.4919   20.0591 C   0  0  0  0  0  0  0  0  0  0  0  0
    7.5415  -15.0971   20.2619 C   0  0  2  0  0  0  0  0  0  0  0  0
    8.7327  -14.9461   19.4269 N   0  0  0  0  0  0  0  0  0  0  0  0
    7.9693  -14.9395   21.7011 C   0  0  0  0  0  0  0  0  0  0  0  0
    9.1812  -15.0579   22.0149 O   0  0  0  0  0  0  0  0  0  0  0  0
    7.7408  -11.4886   25.6918 N   0  0  0  0  0  0  0  0  0  0  0  0
    7.2029  -12.3437   26.6765 C   0  0  0  0  0  0  0  0  0  0  0  0
    7.3587  -12.1229   27.9119 O   0  0  0  0  0  0  0  0  0  0  0  0
    6.4292  -13.5319   26.2653 C   0  0  0  0  0  0  0  0  0  0  0  0
    6.3574  -13.8133   24.8342 C   0  0  0  0  0  0  0  0  0  0  0  0
    7.4770  -14.4407   24.1048 C   0  0  2  0  0  0  0  0  0  0  0  0
    7.0302  -14.6610   22.7012 N   0  0  0  0  0  0  0  0  0  0  0  0
    8.0454  -15.6978   24.5780 C   0  0  0  0  0  0  0  0  0  0  0  0
    7.4645  -16.7838   24.2810 O   0  0  0  0  0  0  0  0  0  0  0  0
    9.2339  -15.8227   25.3593 N   0  0  0  0  0  0  0  0  0  0  0  0
    9.7752  -17.0962   25.8263 C   0  0  1  0  0  0  0  0  0  0  0  0
   10.8749  -17.5853   24.9581 C   0  0  0  0  0  0  0  0  0  0  0  0
   12.0893  -16.7122   25.0394 C   0  0  0  0  0  0  0  0  0  0  0  0
   13.1710  -17.0297   24.0994 C   0  0  0  0  0  0  0  0  0  0  0  0
   14.2073  -16.3448   24.0578 O   0  0  0  0  0  0  0  0  0  0  0  0
   10.0972  -17.0612   27.2567 C   0  0  0  0  0  0  0  0  0  0  0  0
   10.5465  -18.1035   28.0327 O   0  0  0  0  0  0  0  0  0  0  0  0
   13.0422  -18.1102   23.2400 O   0  0  0  0  0  0  0  0  0  0  0  0
    9.9457  -15.9427   27.8624 O   0  0  0  0  0  0  0  0  0  0  0  0
  1  2  1  0
  2  3  2  0
  4  2  1  0
  4  5  1  0
  6  5  1  0
  6  7  1  6
  8  6  1  0
  9  8  2  0
 11 13  1  0
 11 10  1  0
 12 11  2  0
 14 13  1  0
 15 14  1  1
 15 16  1  0
 16  8  1  0
 17 15  1  0
 17 18  2  0
 19 17  1  0
 20 19  1  0
 21 22  1  0
 20 21  1  6
 22 23  1  0
 23 24  2  0
 23 27  1  0
 25 20  1  0
 26 25  1  0
 28 25  2  0
M  END
$$$$
