QQE.pdb
     RDKit          3D

 28 27  0  0  1  0  0  0  0  0999 V2000
    7.8493  -12.4610   19.4523 N   0  0  0  0  0  0  0  0  0  0  0  0
    7.9661  -13.0825   18.1846 C   0  0  0  0  0  0  0  0  0  0  0  0
    7.7843  -12.3814   17.1627 O   0  0  0  0  0  0  0  0  0  0  0  0
    8.2908  -14.5153   18.0261 C   0  0  0  0  0  0  0  0  0  0  0  0
    8.4579  -15.2424   19.3300 C   0  0  0  0  0  0  0  0  0  0  0  0
    8.8979  -16.6612   19.2005 C   0  0  2  0  0  0  0  0  0  0  0  0
    7.8286  -17.3662   18.4941 N   0  0  0  0  0  0  0  0  0  0  0  0
    9.0061  -17.2613   20.5815 C   0  0  0  0  0  0  0  0  0  0  0  0
    7.9680  -17.4837   21.2553 O   0  0  0  0  0  0  0  0  0  0  0  0
   13.6996  -20.5878   22.2193 N   0  0  0  0  0  0  0  0  0  0  0  0
   12.8901  -20.8321   23.3486 C   0  0  0  0  0  0  0  0  0  0  0  0
   13.3337  -21.4238   24.3743 O   0  0  0  0  0  0  0  0  0  0  0  0
   11.4834  -20.3841   23.3469 C   0  0  0  0  0  0  0  0  0  0  0  0
   11.0574  -19.5420   22.2325 C   0  0  0  0  0  0  0  0  0  0  0  0
   10.3399  -18.2696   22.4453 C   0  0  2  0  0  0  0  0  0  0  0  0
   10.2551  -17.5771   21.1294 N   0  0  0  0  0  0  0  0  0  0  0  0
   10.8425  -17.2989   23.4110 C   0  0  0  0  0  0  0  0  0  0  0  0
   11.6818  -16.4307   23.0277 O   0  0  0  0  0  0  0  0  0  0  0  0
   10.4592  -17.2282   24.7845 N   0  0  0  0  0  0  0  0  0  0  0  0
   11.0551  -16.3123   25.7535 C   0  0  1  0  0  0  0  0  0  0  0  0
   10.0324  -15.6787   26.6222 C   0  0  0  0  0  0  0  0  0  0  0  0
   10.6414  -14.7449   27.6226 C   0  0  0  0  0  0  0  0  0  0  0  0
    9.6967  -14.0240   28.4843 C   0  0  0  0  0  0  0  0  0  0  0  0
    8.9086  -13.1862   28.0133 O   0  0  0  0  0  0  0  0  0  0  0  0
   12.1703  -16.9322   26.4768 C   0  0  0  0  0  0  0  0  0  0  0  0
   13.3549  -16.3383   26.8436 O   0  0  0  0  0  0  0  0  0  0  0  0
    9.6770  -14.2761   29.8476 O   0  0  0  0  0  0  0  0  0  0  0  0
   12.0400  -18.1628   26.8077 O   0  0  0  0  0  0  0  0  0  0  0  0
  1  2  1  0
  2  3  2  0
  4  2  1  0
  4  5  1  0
  6  5  1  0
  6  7  1  6
  8  6  1  0
  9  8  2  0
 11 13  1  0
 11 10  1  0
 12 11  2  0
 14 13  1  0
 15 14  1  6
 15 16  1  0
 16  8  1  0
 17 15  1  0
 17 18  2  0
 19 17  1  0
 20 19  1  0
 21 22  1  0
 20 21  1  1
 22 23  1  0
 23 24  2  0
 23 27  1  0
 25 20  1  0
 26 25  1  0
 28 25  2  0
M  END
$$$$
