QQE.pdb
     RDKit          3D

 28 27  0  0  1  0  0  0  0  0999 V2000
    7.6912  -12.5106   20.1348 N   0  0  0  0  0  0  0  0  0  0  0  0
    8.0308  -13.4281   19.1101 C   0  0  0  0  0  0  0  0  0  0  0  0
    8.5594  -12.9806   18.0664 O   0  0  0  0  0  0  0  0  0  0  0  0
    7.7851  -14.8805   19.2268 C   0  0  0  0  0  0  0  0  0  0  0  0
    7.2137  -15.2894   20.5546 C   0  0  0  0  0  0  0  0  0  0  0  0
    7.0213  -16.7583   20.7245 C   0  0  2  0  0  0  0  0  0  0  0  0
    5.9048  -17.1352   19.8582 N   0  0  0  0  0  0  0  0  0  0  0  0
    6.6051  -17.0292   22.1501 C   0  0  0  0  0  0  0  0  0  0  0  0
    5.3930  -16.9587   22.4771 O   0  0  0  0  0  0  0  0  0  0  0  0
    5.7113  -21.0705   26.0835 N   0  0  0  0  0  0  0  0  0  0  0  0
    6.3050  -21.2612   24.8180 C   0  0  0  0  0  0  0  0  0  0  0  0
    6.6020  -22.4115   24.3849 O   0  0  0  0  0  0  0  0  0  0  0  0
    6.5882  -20.0916   23.9629 C   0  0  0  0  0  0  0  0  0  0  0  0
    6.1890  -18.7837   24.4753 C   0  0  0  0  0  0  0  0  0  0  0  0
    7.1260  -17.6438   24.5208 C   0  0  2  0  0  0  0  0  0  0  0  0
    7.5555  -17.3606   23.1231 N   0  0  0  0  0  0  0  0  0  0  0  0
    8.3337  -17.7215   25.3350 C   0  0  0  0  0  0  0  0  0  0  0  0
    9.3287  -18.3710   24.8956 O   0  0  0  0  0  0  0  0  0  0  0  0
    8.5070  -17.1090   26.6130 N   0  0  0  0  0  0  0  0  0  0  0  0
    9.7937  -16.9858   27.2927 C   0  0  1  0  0  0  0  0  0  0  0  0
    9.8677  -15.7601   28.1260 C   0  0  0  0  0  0  0  0  0  0  0  0
    9.2802  -14.5695   27.4324 C   0  0  0  0  0  0  0  0  0  0  0  0
    9.2525  -13.3244   28.2091 C   0  0  0  0  0  0  0  0  0  0  0  0
    9.7734  -13.2586   29.3357 O   0  0  0  0  0  0  0  0  0  0  0  0
   10.1627  -18.2214   27.9915 C   0  0  0  0  0  0  0  0  0  0  0  0
   11.3883  -18.5374   28.5287 O   0  0  0  0  0  0  0  0  0  0  0  0
    8.6369  -12.1982   27.6844 O   0  0  0  0  0  0  0  0  0  0  0  0
    9.2528  -19.1135   28.1208 O   0  0  0  0  0  0  0  0  0  0  0  0
  1  2  1  0
  2  3  2  0
  4  2  1  0
  4  5  1  0
  6  5  1  0
  6  7  1  6
  8  6  1  0
  9  8  2  0
 11 13  1  0
 11 10  1  0
 12 11  2  0
 14 13  1  0
 15 14  1  6
 15 16  1  0
 16  8  1  0
 17 15  1  0
 17 18  2  0
 19 17  1  0
 20 19  1  0
 21 22  1  0
 20 21  1  1
 22 23  1  0
 23 24  2  0
 23 27  1  0
 25 20  1  0
 26 25  1  0
 28 25  2  0
M  END
$$$$
