QQE.pdb
     RDKit          3D

 28 27  0  0  1  0  0  0  0  0999 V2000
   15.0854  -16.0201   14.0349 N   0  0  0  0  0  0  0  0  0  0  0  0
   13.8346  -16.4138   13.4987 C   0  0  0  0  0  0  0  0  0  0  0  0
   13.8109  -16.8914   12.3410 O   0  0  0  0  0  0  0  0  0  0  0  0
   12.5685  -16.2816   14.2489 C   0  0  0  0  0  0  0  0  0  0  0  0
   12.7468  -15.7455   15.6408 C   0  0  0  0  0  0  0  0  0  0  0  0
   12.4921  -16.7347   16.7271 C   0  0  2  0  0  0  0  0  0  0  0  0
   11.3927  -17.5833   16.2685 N   0  0  0  0  0  0  0  0  0  0  0  0
   12.0165  -15.9937   17.9534 C   0  0  0  0  0  0  0  0  0  0  0  0
   12.7821  -15.1856   18.5381 O   0  0  0  0  0  0  0  0  0  0  0  0
    7.5668  -13.0903   20.8921 N   0  0  0  0  0  0  0  0  0  0  0  0
    7.6694  -13.0716   19.4851 C   0  0  0  0  0  0  0  0  0  0  0  0
    7.2490  -12.0979   18.7965 O   0  0  0  0  0  0  0  0  0  0  0  0
    8.2885  -14.2144   18.7849 C   0  0  0  0  0  0  0  0  0  0  0  0
    8.8445  -15.2786   19.6161 C   0  0  0  0  0  0  0  0  0  0  0  0
   10.2983  -15.5163   19.7110 C   0  0  2  0  0  0  0  0  0  0  0  0
   10.7248  -16.1934   18.4548 N   0  0  0  0  0  0  0  0  0  0  0  0
   10.8424  -16.2884   20.8224 C   0  0  0  0  0  0  0  0  0  0  0  0
   10.4833  -17.4949   20.9648 O   0  0  0  0  0  0  0  0  0  0  0  0
   11.7753  -15.8001   21.7867 N   0  0  0  0  0  0  0  0  0  0  0  0
   12.2641  -16.5812   22.9197 C   0  0  1  0  0  0  0  0  0  0  0  0
   13.6941  -16.3086   23.2079 C   0  0  0  0  0  0  0  0  0  0  0  0
   14.5834  -16.6915   22.0649 C   0  0  0  0  0  0  0  0  0  0  0  0
   16.0145  -16.4213   22.2480 C   0  0  0  0  0  0  0  0  0  0  0  0
   16.4206  -15.2844   22.5437 O   0  0  0  0  0  0  0  0  0  0  0  0
   11.3763  -16.4721   24.0820 C   0  0  0  0  0  0  0  0  0  0  0  0
   11.4157  -17.2262   25.2310 O   0  0  0  0  0  0  0  0  0  0  0  0
   16.9350  -17.4461   22.0902 O   0  0  0  0  0  0  0  0  0  0  0  0
   10.4573  -15.5811   24.0335 O   0  0  0  0  0  0  0  0  0  0  0  0
  1  2  1  0
  2  3  2  0
  4  2  1  0
  4  5  1  0
  6  5  1  0
  6  7  1  6
  8  6  1  0
  9  8  2  0
 11 13  1  0
 11 10  1  0
 12 11  2  0
 14 13  1  0
 15 14  1  1
 15 16  1  0
 16  8  1  0
 17 15  1  0
 17 18  2  0
 19 17  1  0
 20 19  1  0
 21 22  1  0
 20 21  1  1
 22 23  1  0
 23 24  2  0
 23 27  1  0
 25 20  1  0
 26 25  1  0
 28 25  2  0
M  END
$$$$
