QQE.pdb
     RDKit          3D

 28 27  0  0  1  0  0  0  0  0999 V2000
    9.5574  -12.7786   17.1348 N   0  0  0  0  0  0  0  0  0  0  0  0
    8.1533  -12.7221   17.3147 C   0  0  0  0  0  0  0  0  0  0  0  0
    7.4982  -11.9199   16.6102 O   0  0  0  0  0  0  0  0  0  0  0  0
    7.4406  -13.5671   18.2952 C   0  0  0  0  0  0  0  0  0  0  0  0
    8.3542  -14.4006   19.1481 C   0  0  0  0  0  0  0  0  0  0  0  0
    8.0726  -14.3357   20.6109 C   0  0  2  0  0  0  0  0  0  0  0  0
    9.2950  -13.8486   21.2493 N   0  0  0  0  0  0  0  0  0  0  0  0
    7.8196  -15.7355   21.1166 C   0  0  0  0  0  0  0  0  0  0  0  0
    6.7592  -16.3358   20.8062 O   0  0  0  0  0  0  0  0  0  0  0  0
    8.1875  -20.9370   19.7166 N   0  0  0  0  0  0  0  0  0  0  0  0
    8.8310  -19.7766   19.2372 C   0  0  0  0  0  0  0  0  0  0  0  0
    9.4042  -19.7466   18.1105 O   0  0  0  0  0  0  0  0  0  0  0  0
    8.8380  -18.5536   20.0640 C   0  0  0  0  0  0  0  0  0  0  0  0
    8.1074  -18.6036   21.3275 C   0  0  0  0  0  0  0  0  0  0  0  0
    8.4646  -17.7404   22.4705 C   0  0  2  0  0  0  0  0  0  0  0  0
    8.7550  -16.3821   21.9330 N   0  0  0  0  0  0  0  0  0  0  0  0
    9.5751  -18.1046   23.3433 C   0  0  0  0  0  0  0  0  0  0  0  0
    9.6075  -19.2692   23.8409 O   0  0  0  0  0  0  0  0  0  0  0  0
   10.6642  -17.2497   23.6917 N   0  0  0  0  0  0  0  0  0  0  0  0
   11.7224  -17.6148   24.6297 C   0  0  1  0  0  0  0  0  0  0  0  0
   13.0129  -16.9639   24.2937 C   0  0  0  0  0  0  0  0  0  0  0  0
   13.2848  -16.9762   22.8207 C   0  0  0  0  0  0  0  0  0  0  0  0
   14.5672  -16.3984   22.4008 C   0  0  0  0  0  0  0  0  0  0  0  0
   15.5413  -17.1228   22.1342 O   0  0  0  0  0  0  0  0  0  0  0  0
   11.2989  -17.4457   26.0237 C   0  0  0  0  0  0  0  0  0  0  0  0
   11.8956  -17.9759   27.1432 O   0  0  0  0  0  0  0  0  0  0  0  0
   14.7022  -15.0223   22.2975 O   0  0  0  0  0  0  0  0  0  0  0  0
   10.2587  -16.7287   26.2354 O   0  0  0  0  0  0  0  0  0  0  0  0
  1  2  1  0
  2  3  2  0
  4  2  1  0
  4  5  1  0
  6  5  1  0
  6  7  1  1
  8  6  1  0
  9  8  2  0
 11 13  1  0
 11 10  1  0
 12 11  2  0
 14 13  1  0
 15 14  1  6
 15 16  1  0
 16  8  1  0
 17 15  1  0
 17 18  2  0
 19 17  1  0
 20 19  1  0
 21 22  1  0
 20 21  1  6
 22 23  1  0
 23 24  2  0
 23 27  1  0
 25 20  1  0
 26 25  1  0
 28 25  2  0
M  END
$$$$
