QQE.pdb
     RDKit          3D

 28 27  0  0  1  0  0  0  0  0999 V2000
   13.9840  -19.1782   16.6925 N   0  0  0  0  0  0  0  0  0  0  0  0
   14.9941  -18.3980   17.3074 C   0  0  0  0  0  0  0  0  0  0  0  0
   15.9895  -18.9891   17.7857 O   0  0  0  0  0  0  0  0  0  0  0  0
   14.9158  -16.9257   17.4047 C   0  0  0  0  0  0  0  0  0  0  0  0
   13.6946  -16.3434   16.7516 C   0  0  0  0  0  0  0  0  0  0  0  0
   13.5750  -14.8613   16.8630 C   0  0  2  0  0  0  0  0  0  0  0  0
   14.9329  -14.3257   16.7714 N   0  0  0  0  0  0  0  0  0  0  0  0
   13.0414  -14.5215   18.2337 C   0  0  0  0  0  0  0  0  0  0  0  0
   13.8364  -14.2840   19.1786 O   0  0  0  0  0  0  0  0  0  0  0  0
    7.0990  -12.6762   19.5739 N   0  0  0  0  0  0  0  0  0  0  0  0
    7.4925  -13.6434   18.6252 C   0  0  0  0  0  0  0  0  0  0  0  0
    6.7005  -14.0696   17.7363 O   0  0  0  0  0  0  0  0  0  0  0  0
    8.8683  -14.1778   18.6577 C   0  0  0  0  0  0  0  0  0  0  0  0
    9.7683  -13.6299   19.6688 C   0  0  0  0  0  0  0  0  0  0  0  0
   11.1531  -14.1161   19.8272 C   0  0  2  0  0  0  0  0  0  0  0  0
   11.6631  -14.4660   18.4723 N   0  0  0  0  0  0  0  0  0  0  0  0
   11.4350  -15.2505   20.6996 C   0  0  0  0  0  0  0  0  0  0  0  0
   11.4150  -16.4193   20.2113 O   0  0  0  0  0  0  0  0  0  0  0  0
   11.7490  -15.1633   22.0897 N   0  0  0  0  0  0  0  0  0  0  0  0
   12.0153  -16.3192   22.9416 C   0  0  1  0  0  0  0  0  0  0  0  0
   13.3443  -16.2335   23.5963 C   0  0  0  0  0  0  0  0  0  0  0  0
   14.4637  -16.2121   22.6011 C   0  0  0  0  0  0  0  0  0  0  0  0
   15.8163  -16.1008   23.1603 C   0  0  0  0  0  0  0  0  0  0  0  0
   16.4755  -17.1131   23.4526 O   0  0  0  0  0  0  0  0  0  0  0  0
   10.9016  -16.5920   23.8560 C   0  0  0  0  0  0  0  0  0  0  0  0
   10.7697  -17.6630   24.7081 O   0  0  0  0  0  0  0  0  0  0  0  0
   16.3750  -14.8491   23.3691 O   0  0  0  0  0  0  0  0  0  0  0  0
    9.9380  -15.7482   23.8711 O   0  0  0  0  0  0  0  0  0  0  0  0
  1  2  1  0
  2  3  2  0
  4  2  1  0
  4  5  1  0
  6  5  1  0
  6  7  1  1
  8  6  1  0
  9  8  2  0
 11 13  1  0
 11 10  1  0
 12 11  2  0
 14 13  1  0
 15 14  1  6
 15 16  1  0
 16  8  1  0
 17 15  1  0
 17 18  2  0
 19 17  1  0
 20 19  1  0
 21 22  1  0
 20 21  1  1
 22 23  1  0
 23 24  2  0
 23 27  1  0
 25 20  1  0
 26 25  1  0
 28 25  2  0
M  END
$$$$
