QQE.pdb
     RDKit          3D

 28 27  0  0  1  0  0  0  0  0999 V2000
    9.2908  -13.5748   16.3030 N   0  0  0  0  0  0  0  0  0  0  0  0
    8.0221  -14.2037   16.3463 C   0  0  0  0  0  0  0  0  0  0  0  0
    7.5695  -14.6966   15.2874 O   0  0  0  0  0  0  0  0  0  0  0  0
    7.2206  -14.2975   17.5840 C   0  0  0  0  0  0  0  0  0  0  0  0
    7.9427  -13.8085   18.8072 C   0  0  0  0  0  0  0  0  0  0  0  0
    8.5718  -14.8812   19.6301 C   0  0  2  0  0  0  0  0  0  0  0  0
    7.5137  -15.8414   19.9422 N   0  0  0  0  0  0  0  0  0  0  0  0
    9.0406  -14.2785   20.9324 C   0  0  0  0  0  0  0  0  0  0  0  0
    9.9047  -13.3651   20.9293 O   0  0  0  0  0  0  0  0  0  0  0  0
    5.3903  -14.0926   25.8939 N   0  0  0  0  0  0  0  0  0  0  0  0
    6.4760  -13.3159   26.3502 C   0  0  0  0  0  0  0  0  0  0  0  0
    6.4218  -12.6590   27.4294 O   0  0  0  0  0  0  0  0  0  0  0  0
    7.7193  -13.2644   25.5558 C   0  0  0  0  0  0  0  0  0  0  0  0
    7.6989  -13.9176   24.2499 C   0  0  0  0  0  0  0  0  0  0  0  0
    8.9144  -14.0462   23.4222 C   0  0  2  0  0  0  0  0  0  0  0  0
    8.5242  -14.7243   22.1549 N   0  0  0  0  0  0  0  0  0  0  0  0
   10.0833  -14.7464   23.9429 C   0  0  0  0  0  0  0  0  0  0  0  0
   10.5132  -14.4482   25.0966 O   0  0  0  0  0  0  0  0  0  0  0  0
   10.8028  -15.7718   23.2578 N   0  0  0  0  0  0  0  0  0  0  0  0
   11.5914  -16.8033   23.9263 C   0  0  1  0  0  0  0  0  0  0  0  0
   10.8034  -17.5268   24.9548 C   0  0  0  0  0  0  0  0  0  0  0  0
   11.5995  -18.6081   25.6188 C   0  0  0  0  0  0  0  0  0  0  0  0
   10.9156  -19.3409   26.6911 C   0  0  0  0  0  0  0  0  0  0  0  0
   10.2568  -18.7425   27.5588 O   0  0  0  0  0  0  0  0  0  0  0  0
   12.2826  -17.6703   22.9663 C   0  0  0  0  0  0  0  0  0  0  0  0
   13.5562  -18.1774   23.0724 O   0  0  0  0  0  0  0  0  0  0  0  0
   11.0012  -20.7238   26.7441 O   0  0  0  0  0  0  0  0  0  0  0  0
   11.6411  -17.9971   21.9069 O   0  0  0  0  0  0  0  0  0  0  0  0
  1  2  1  0
  2  3  2  0
  4  2  1  0
  4  5  1  0
  6  5  1  0
  6  7  1  1
  8  6  1  0
  9  8  2  0
 11 13  1  0
 11 10  1  0
 12 11  2  0
 14 13  1  0
 15 14  1  1
 15 16  1  0
 16  8  1  0
 17 15  1  0
 17 18  2  0
 19 17  1  0
 20 19  1  0
 21 22  1  0
 20 21  1  6
 22 23  1  0
 23 24  2  0
 23 27  1  0
 25 20  1  0
 26 25  1  0
 28 25  2  0
M  END
$$$$
