QQE.pdb
     RDKit          3D

 28 27  0  0  1  0  0  0  0  0999 V2000
    9.9795  -20.5535   16.8820 N   0  0  0  0  0  0  0  0  0  0  0  0
   10.4580  -19.8772   15.7329 C   0  0  0  0  0  0  0  0  0  0  0  0
   10.5274  -20.5147   14.6569 O   0  0  0  0  0  0  0  0  0  0  0  0
   10.8751  -18.4598   15.7579 C   0  0  0  0  0  0  0  0  0  0  0  0
   10.7319  -17.8140   17.1066 C   0  0  0  0  0  0  0  0  0  0  0  0
   10.1221  -16.4535   17.0846 C   0  0  2  0  0  0  0  0  0  0  0  0
   10.7196  -15.7475   15.9516 N   0  0  0  0  0  0  0  0  0  0  0  0
   10.5257  -15.7229   18.3425 C   0  0  0  0  0  0  0  0  0  0  0  0
   11.6920  -15.2681   18.4607 O   0  0  0  0  0  0  0  0  0  0  0  0
    8.2888  -12.2723   18.6316 N   0  0  0  0  0  0  0  0  0  0  0  0
    7.2818  -13.1132   19.1503 C   0  0  0  0  0  0  0  0  0  0  0  0
    6.1204  -13.1524   18.6517 O   0  0  0  0  0  0  0  0  0  0  0  0
    7.5820  -13.9815   20.3060 C   0  0  0  0  0  0  0  0  0  0  0  0
    8.9022  -13.8421   20.9144 C   0  0  0  0  0  0  0  0  0  0  0  0
   10.0092  -14.7660   20.5979 C   0  0  2  0  0  0  0  0  0  0  0  0
    9.6141  -15.5418   19.3894 N   0  0  0  0  0  0  0  0  0  0  0  0
   10.4682  -15.7266   21.5950 C   0  0  0  0  0  0  0  0  0  0  0  0
    9.7758  -16.7654   21.8100 O   0  0  0  0  0  0  0  0  0  0  0  0
   11.6635  -15.6061   22.3666 N   0  0  0  0  0  0  0  0  0  0  0  0
   12.1284  -16.6135   23.3163 C   0  0  1  0  0  0  0  0  0  0  0  0
   13.5909  -16.8428   23.2128 C   0  0  0  0  0  0  0  0  0  0  0  0
   14.3522  -15.5640   23.0426 C   0  0  0  0  0  0  0  0  0  0  0  0
   15.7979  -15.7024   22.8294 C   0  0  0  0  0  0  0  0  0  0  0  0
   16.6055  -15.4974   23.7517 O   0  0  0  0  0  0  0  0  0  0  0  0
   11.6479  -16.3454   24.6758 C   0  0  0  0  0  0  0  0  0  0  0  0
   11.8186  -17.1355   25.7880 O   0  0  0  0  0  0  0  0  0  0  0  0
   16.2787  -16.0676   21.5813 O   0  0  0  0  0  0  0  0  0  0  0  0
   10.9939  -15.2596   24.8608 O   0  0  0  0  0  0  0  0  0  0  0  0
  1  2  1  0
  2  3  2  0
  4  2  1  0
  4  5  1  0
  6  5  1  0
  6  7  1  6
  8  6  1  0
  9  8  2  0
 11 13  1  0
 11 10  1  0
 12 11  2  0
 14 13  1  0
 15 14  1  1
 15 16  1  0
 16  8  1  0
 17 15  1  0
 17 18  2  0
 19 17  1  0
 20 19  1  0
 21 22  1  0
 20 21  1  1
 22 23  1  0
 23 24  2  0
 23 27  1  0
 25 20  1  0
 26 25  1  0
 28 25  2  0
M  END
$$$$
