QQE.pdb
     RDKit          3D

 28 27  0  0  1  0  0  0  0  0999 V2000
   16.4139  -12.4351   17.8685 N   0  0  0  0  0  0  0  0  0  0  0  0
   16.1221  -13.4215   16.8944 C   0  0  0  0  0  0  0  0  0  0  0  0
   16.6154  -13.2880   15.7507 O   0  0  0  0  0  0  0  0  0  0  0  0
   15.2638  -14.5909   17.1761 C   0  0  0  0  0  0  0  0  0  0  0  0
   14.7367  -14.6257   18.5824 C   0  0  0  0  0  0  0  0  0  0  0  0
   13.9090  -15.8225   18.9082 C   0  0  2  0  0  0  0  0  0  0  0  0
   13.1549  -16.1494   17.6984 N   0  0  0  0  0  0  0  0  0  0  0  0
   12.9140  -15.4446   19.9788 C   0  0  0  0  0  0  0  0  0  0  0  0
   13.3161  -15.0097   21.0879 O   0  0  0  0  0  0  0  0  0  0  0  0
    7.6965  -11.9839   18.2699 N   0  0  0  0  0  0  0  0  0  0  0  0
    7.8121  -13.1431   19.0657 C   0  0  0  0  0  0  0  0  0  0  0  0
    6.8538  -13.9559   19.2071 O   0  0  0  0  0  0  0  0  0  0  0  0
    9.0861  -13.4293   19.7547 C   0  0  0  0  0  0  0  0  0  0  0  0
    9.3126  -14.8067   20.1836 C   0  0  0  0  0  0  0  0  0  0  0  0
   10.5706  -15.2253   20.8329 C   0  0  2  0  0  0  0  0  0  0  0  0
   11.5380  -15.5716   19.7547 N   0  0  0  0  0  0  0  0  0  0  0  0
   10.5704  -16.3319   21.7830 C   0  0  0  0  0  0  0  0  0  0  0  0
   10.6674  -17.5165   21.3446 O   0  0  0  0  0  0  0  0  0  0  0  0
   10.4778  -16.2003   23.2017 N   0  0  0  0  0  0  0  0  0  0  0  0
   10.9582  -17.2028   24.1488 C   0  0  1  0  0  0  0  0  0  0  0  0
   12.3593  -17.6048   23.8704 C   0  0  0  0  0  0  0  0  0  0  0  0
   12.8568  -18.6291   24.8436 C   0  0  0  0  0  0  0  0  0  0  0  0
   14.2402  -19.0795   24.6488 C   0  0  0  0  0  0  0  0  0  0  0  0
   15.2003  -18.3864   25.0263 O   0  0  0  0  0  0  0  0  0  0  0  0
   10.7013  -16.8091   25.5380 C   0  0  0  0  0  0  0  0  0  0  0  0
   10.6503  -17.6317   26.6385 O   0  0  0  0  0  0  0  0  0  0  0  0
   14.4884  -20.2973   24.0342 O   0  0  0  0  0  0  0  0  0  0  0  0
   10.4987  -15.5648   25.7647 O   0  0  0  0  0  0  0  0  0  0  0  0
  1  2  1  0
  2  3  2  0
  4  2  1  0
  4  5  1  0
  6  5  1  0
  6  7  1  6
  8  6  1  0
  9  8  2  0
 11 13  1  0
 11 10  1  0
 12 11  2  0
 14 13  1  0
 15 14  1  6
 15 16  1  0
 16  8  1  0
 17 15  1  0
 17 18  2  0
 19 17  1  0
 20 19  1  0
 21 22  1  0
 20 21  1  1
 22 23  1  0
 23 24  2  0
 23 27  1  0
 25 20  1  0
 26 25  1  0
 28 25  2  0
M  END
$$$$
