QQE.pdb
     RDKit          3D

 28 27  0  0  1  0  0  0  0  0999 V2000
   11.6761  -18.5795   14.8067 N   0  0  0  0  0  0  0  0  0  0  0  0
   10.5734  -17.8710   14.2691 C   0  0  0  0  0  0  0  0  0  0  0  0
   10.2025  -18.1478   13.1051 O   0  0  0  0  0  0  0  0  0  0  0  0
    9.8521  -16.8260   15.0250 C   0  0  0  0  0  0  0  0  0  0  0  0
   10.5244  -16.4422   16.3124 C   0  0  0  0  0  0  0  0  0  0  0  0
   10.1496  -17.2824   17.4858 C   0  0  2  0  0  0  0  0  0  0  0  0
    8.7560  -17.6789   17.2861 N   0  0  0  0  0  0  0  0  0  0  0  0
   10.2079  -16.4286   18.7295 C   0  0  0  0  0  0  0  0  0  0  0  0
   11.2774  -15.8477   19.0457 O   0  0  0  0  0  0  0  0  0  0  0  0
    8.2082  -12.0919   18.7263 N   0  0  0  0  0  0  0  0  0  0  0  0
    7.5792  -13.2941   19.1127 C   0  0  0  0  0  0  0  0  0  0  0  0
    7.1816  -14.1438   18.2647 O   0  0  0  0  0  0  0  0  0  0  0  0
    7.3779  -13.5824   20.5466 C   0  0  0  0  0  0  0  0  0  0  0  0
    7.7993  -14.8966   21.0238 C   0  0  0  0  0  0  0  0  0  0  0  0
    9.1540  -15.4233   20.7661 C   0  0  2  0  0  0  0  0  0  0  0  0
    9.0803  -16.2716   19.5441 N   0  0  0  0  0  0  0  0  0  0  0  0
    9.8434  -16.2012   21.7893 C   0  0  0  0  0  0  0  0  0  0  0  0
    9.5507  -17.4258   21.9297 O   0  0  0  0  0  0  0  0  0  0  0  0
   10.8523  -15.6994   22.6662 N   0  0  0  0  0  0  0  0  0  0  0  0
   11.7297  -16.5446   23.4715 C   0  0  1  0  0  0  0  0  0  0  0  0
   13.1634  -16.2907   23.1851 C   0  0  0  0  0  0  0  0  0  0  0  0
   14.0651  -17.1819   23.9828 C   0  0  0  0  0  0  0  0  0  0  0  0
   15.5053  -16.9726   23.7921 C   0  0  0  0  0  0  0  0  0  0  0  0
   15.9307  -16.1651   22.9484 O   0  0  0  0  0  0  0  0  0  0  0  0
   11.3750  -16.5011   24.8940 C   0  0  0  0  0  0  0  0  0  0  0  0
   11.6944  -17.4277   25.8584 O   0  0  0  0  0  0  0  0  0  0  0  0
   16.4131  -17.6838   24.5620 O   0  0  0  0  0  0  0  0  0  0  0  0
   10.6907  -15.4953   25.2950 O   0  0  0  0  0  0  0  0  0  0  0  0
  1  2  1  0
  2  3  2  0
  4  2  1  0
  4  5  1  0
  6  5  1  0
  6  7  1  6
  8  6  1  0
  9  8  2  0
 11 13  1  0
 11 10  1  0
 12 11  2  0
 14 13  1  0
 15 14  1  1
 15 16  1  0
 16  8  1  0
 17 15  1  0
 17 18  2  0
 19 17  1  0
 20 19  1  0
 21 22  1  0
 20 21  1  1
 22 23  1  0
 23 24  2  0
 23 27  1  0
 25 20  1  0
 26 25  1  0
 28 25  2  0
M  END
$$$$
