QQE.pdb
     RDKit          3D

 28 27  0  0  1  0  0  0  0  0999 V2000
    7.9082  -16.3418   14.1637 N   0  0  0  0  0  0  0  0  0  0  0  0
    9.0614  -15.7251   14.7086 C   0  0  0  0  0  0  0  0  0  0  0  0
   10.1842  -16.1247   14.3232 O   0  0  0  0  0  0  0  0  0  0  0  0
    8.9878  -14.6381   15.7068 C   0  0  0  0  0  0  0  0  0  0  0  0
    8.7617  -15.1239   17.1102 C   0  0  0  0  0  0  0  0  0  0  0  0
    7.6676  -14.4246   17.8431 C   0  0  2  0  0  0  0  0  0  0  0  0
    7.8071  -13.0006   17.5401 N   0  0  0  0  0  0  0  0  0  0  0  0
    7.8904  -14.6002   19.3259 C   0  0  0  0  0  0  0  0  0  0  0  0
    8.6219  -13.7925   19.9534 O   0  0  0  0  0  0  0  0  0  0  0  0
    3.6984  -17.2337   21.1276 N   0  0  0  0  0  0  0  0  0  0  0  0
    4.4242  -17.8493   22.1690 C   0  0  0  0  0  0  0  0  0  0  0  0
    4.0494  -18.9371   22.6936 O   0  0  0  0  0  0  0  0  0  0  0  0
    5.6622  -17.2171   22.6663 C   0  0  0  0  0  0  0  0  0  0  0  0
    6.0563  -15.9545   22.0474 C   0  0  0  0  0  0  0  0  0  0  0  0
    7.4116  -15.7418   21.5022 C   0  0  2  0  0  0  0  0  0  0  0  0
    7.2904  -15.6574   20.0202 N   0  0  0  0  0  0  0  0  0  0  0  0
    8.4754  -16.6962   21.7935 C   0  0  0  0  0  0  0  0  0  0  0  0
    8.5790  -17.7364   21.0779 O   0  0  0  0  0  0  0  0  0  0  0  0
    9.4438  -16.5590   22.8337 N   0  0  0  0  0  0  0  0  0  0  0  0
   10.4578  -17.5631   23.1443 C   0  0  1  0  0  0  0  0  0  0  0  0
   11.7289  -17.3126   22.4206 C   0  0  0  0  0  0  0  0  0  0  0  0
   12.3929  -16.0464   22.8675 C   0  0  0  0  0  0  0  0  0  0  0  0
   13.6190  -15.6779   22.1496 C   0  0  0  0  0  0  0  0  0  0  0  0
   14.7318  -15.7538   22.6982 O   0  0  0  0  0  0  0  0  0  0  0  0
   10.6076  -17.7592   24.5900 C   0  0  0  0  0  0  0  0  0  0  0  0
   11.4017  -18.6849   25.2248 O   0  0  0  0  0  0  0  0  0  0  0  0
   13.5432  -15.2368   20.8373 O   0  0  0  0  0  0  0  0  0  0  0  0
    9.9278  -16.9911   25.3572 O   0  0  0  0  0  0  0  0  0  0  0  0
  1  2  1  0
  2  3  2  0
  4  2  1  0
  4  5  1  0
  6  5  1  0
  6  7  1  1
  8  6  1  0
  9  8  2  0
 11 13  1  0
 11 10  1  0
 12 11  2  0
 14 13  1  0
 15 14  1  1
 15 16  1  0
 16  8  1  0
 17 15  1  0
 17 18  2  0
 19 17  1  0
 20 19  1  0
 21 22  1  0
 20 21  1  1
 22 23  1  0
 23 24  2  0
 23 27  1  0
 25 20  1  0
 26 25  1  0
 28 25  2  0
M  END
$$$$
