QQE.pdb
     RDKit          3D

 28 27  0  0  1  0  0  0  0  0999 V2000
    9.4965  -13.4990   15.3224 N   0  0  0  0  0  0  0  0  0  0  0  0
    8.1433  -13.8635   15.5295 C   0  0  0  0  0  0  0  0  0  0  0  0
    7.4303  -14.0878   14.5243 O   0  0  0  0  0  0  0  0  0  0  0  0
    7.5479  -13.9866   16.8762 C   0  0  0  0  0  0  0  0  0  0  0  0
    8.5199  -13.7217   17.9905 C   0  0  0  0  0  0  0  0  0  0  0  0
    9.0187  -14.9428   18.6859 C   0  0  2  0  0  0  0  0  0  0  0  0
    7.9325  -15.9211   18.6403 N   0  0  0  0  0  0  0  0  0  0  0  0
    9.2687  -14.6048   20.1359 C   0  0  0  0  0  0  0  0  0  0  0  0
   10.1474  -13.7597   20.4437 O   0  0  0  0  0  0  0  0  0  0  0  0
    5.2377  -15.9498   24.7374 N   0  0  0  0  0  0  0  0  0  0  0  0
    6.2813  -15.3553   25.4775 C   0  0  0  0  0  0  0  0  0  0  0  0
    6.1613  -15.0886   26.7077 O   0  0  0  0  0  0  0  0  0  0  0  0
    7.5577  -15.0350   24.8084 C   0  0  0  0  0  0  0  0  0  0  0  0
    7.6071  -15.2052   23.3589 C   0  0  0  0  0  0  0  0  0  0  0  0
    8.8285  -14.9199   22.5804 C   0  0  2  0  0  0  0  0  0  0  0  0
    8.5312  -15.2226   21.1528 N   0  0  0  0  0  0  0  0  0  0  0  0
   10.0804  -15.5912   22.9113 C   0  0  0  0  0  0  0  0  0  0  0  0
   11.1669  -14.9477   22.8095 O   0  0  0  0  0  0  0  0  0  0  0  0
   10.1980  -16.9414   23.3605 N   0  0  0  0  0  0  0  0  0  0  0  0
   11.4480  -17.5467   23.8122 C   0  0  1  0  0  0  0  0  0  0  0  0
   12.6253  -16.9869   23.1032 C   0  0  0  0  0  0  0  0  0  0  0  0
   13.9174  -17.4937   23.6668 C   0  0  0  0  0  0  0  0  0  0  0  0
   15.1380  -16.9784   23.0351 C   0  0  0  0  0  0  0  0  0  0  0  0
   15.4015  -17.2302   21.8468 O   0  0  0  0  0  0  0  0  0  0  0  0
   11.5589  -17.5441   25.2746 C   0  0  0  0  0  0  0  0  0  0  0  0
   12.3955  -18.3163   26.0455 O   0  0  0  0  0  0  0  0  0  0  0  0
   16.0170  -16.1971   23.7695 O   0  0  0  0  0  0  0  0  0  0  0  0
   10.7964  -16.7398   25.9170 O   0  0  0  0  0  0  0  0  0  0  0  0
  1  2  1  0
  2  3  2  0
  4  2  1  0
  4  5  1  0
  6  5  1  0
  6  7  1  1
  8  6  1  0
  9  8  2  0
 11 13  1  0
 11 10  1  0
 12 11  2  0
 14 13  1  0
 15 14  1  1
 15 16  1  0
 16  8  1  0
 17 15  1  0
 17 18  2  0
 19 17  1  0
 20 19  1  0
 21 22  1  0
 20 21  1  6
 22 23  1  0
 23 24  2  0
 23 27  1  0
 25 20  1  0
 26 25  1  0
 28 25  2  0
M  END
$$$$
