QQE.pdb
     RDKit          3D

 28 27  0  0  1  0  0  0  0  0999 V2000
   15.2109  -15.2293   19.0813 N   0  0  0  0  0  0  0  0  0  0  0  0
   14.4225  -14.1529   18.6052 C   0  0  0  0  0  0  0  0  0  0  0  0
   14.9897  -13.2480   17.9506 O   0  0  0  0  0  0  0  0  0  0  0  0
   12.9685  -14.0596   18.8516 C   0  0  0  0  0  0  0  0  0  0  0  0
   12.1581  -15.0370   18.0488 C   0  0  0  0  0  0  0  0  0  0  0  0
   10.6815  -14.8961   18.2016 C   0  0  2  0  0  0  0  0  0  0  0  0
   10.3994  -13.4611   18.2173 N   0  0  0  0  0  0  0  0  0  0  0  0
   10.2794  -15.4555   19.5449 C   0  0  0  0  0  0  0  0  0  0  0  0
   10.3153  -14.7255   20.5680 O   0  0  0  0  0  0  0  0  0  0  0  0
    6.9414  -20.7737   20.4135 N   0  0  0  0  0  0  0  0  0  0  0  0
    6.5902  -19.5981   19.7171 C   0  0  0  0  0  0  0  0  0  0  0  0
    5.6204  -19.5653   18.9062 O   0  0  0  0  0  0  0  0  0  0  0  0
    7.3670  -18.3620   19.9367 C   0  0  0  0  0  0  0  0  0  0  0  0
    8.5644  -18.4703   20.7655 C   0  0  0  0  0  0  0  0  0  0  0  0
    9.4573  -17.3187   21.0015 C   0  0  2  0  0  0  0  0  0  0  0  0
    9.8634  -16.7862   19.6712 N   0  0  0  0  0  0  0  0  0  0  0  0
   10.6742  -17.4856   21.7882 C   0  0  0  0  0  0  0  0  0  0  0  0
   11.5897  -18.2428   21.3484 O   0  0  0  0  0  0  0  0  0  0  0  0
   10.9411  -16.8500   23.0385 N   0  0  0  0  0  0  0  0  0  0  0  0
   12.0444  -17.2162   23.9226 C   0  0  1  0  0  0  0  0  0  0  0  0
   13.2362  -16.3581   23.7098 C   0  0  0  0  0  0  0  0  0  0  0  0
   14.2396  -17.0004   22.8018 C   0  0  0  0  0  0  0  0  0  0  0  0
   15.5086  -16.2812   22.6382 C   0  0  0  0  0  0  0  0  0  0  0  0
   15.5292  -15.0643   22.3860 O   0  0  0  0  0  0  0  0  0  0  0  0
   11.6120  -17.3236   25.3199 C   0  0  0  0  0  0  0  0  0  0  0  0
   12.3273  -17.8428   26.3731 O   0  0  0  0  0  0  0  0  0  0  0  0
   16.7089  -16.9635   22.7654 O   0  0  0  0  0  0  0  0  0  0  0  0
   10.4401  -16.8914   25.6038 O   0  0  0  0  0  0  0  0  0  0  0  0
  1  2  1  0
  2  3  2  0
  4  2  1  0
  4  5  1  0
  6  5  1  0
  6  7  1  1
  8  6  1  0
  9  8  2  0
 11 13  1  0
 11 10  1  0
 12 11  2  0
 14 13  1  0
 15 14  1  6
 15 16  1  0
 16  8  1  0
 17 15  1  0
 17 18  2  0
 19 17  1  0
 20 19  1  0
 21 22  1  0
 20 21  1  1
 22 23  1  0
 23 24  2  0
 23 27  1  0
 25 20  1  0
 26 25  1  0
 28 25  2  0
M  END
$$$$
