SSE.pdb
     RDKit          3D

 22 21  0  0  1  0  0  0  0  0999 V2000
   14.4884  -19.3221   15.4382 O   0  0  0  0  0  0  0  0  0  0  0  0
   14.2469  -18.2365   16.3016 C   0  0  0  0  0  0  0  0  0  0  0  0
   12.8990  -18.3940   16.9786 C   0  0  2  0  0  0  0  0  0  0  0  0
   11.8956  -18.3281   15.9529 N   0  0  0  0  0  0  0  0  0  0  0  0
   12.7000  -17.4359   18.0681 C   0  0  0  0  0  0  0  0  0  0  0  0
   12.0199  -16.3922   17.8747 O   0  0  0  0  0  0  0  0  0  0  0  0
   10.7752  -16.4246   21.7962 O   0  0  0  0  0  0  0  0  0  0  0  0
   11.2032  -17.1309   20.6851 C   0  0  0  0  0  0  0  0  0  0  0  0
   12.7040  -16.9269   20.5461 C   0  0  2  0  0  0  0  0  0  0  0  0
   13.2337  -17.5892   19.3905 N   0  0  0  0  0  0  0  0  0  0  0  0
   13.3953  -17.3004   21.7971 C   0  0  0  0  0  0  0  0  0  0  0  0
   13.3522  -18.4563   22.2867 O   0  0  0  0  0  0  0  0  0  0  0  0
   14.1454  -16.3157   22.4833 N   0  0  0  0  0  0  0  0  0  0  0  0
   14.9208  -16.6539   23.7135 C   0  0  1  0  0  0  0  0  0  0  0  0
   16.0917  -15.7407   23.7914 C   0  0  0  0  0  0  0  0  0  0  0  0
   17.1560  -15.9936   22.8138 C   0  0  0  0  0  0  0  0  0  0  0  0
   18.3218  -15.0959   22.8337 C   0  0  0  0  0  0  0  0  0  0  0  0
   18.9446  -14.8493   23.8975 O   0  0  0  0  0  0  0  0  0  0  0  0
   14.0609  -16.7549   24.8459 C   0  0  0  0  0  0  0  0  0  0  0  0
   14.5007  -17.3530   26.0401 O   0  0  0  0  0  0  0  0  0  0  0  0
   18.7520  -14.5034   21.6616 O   0  0  0  0  0  0  0  0  0  0  0  0
   12.8587  -16.3268   24.8738 O   0  0  0  0  0  0  0  0  0  0  0  0
  1  2  1  0
  3  2  1  0
  3  5  1  0
  3  4  1  6
  5  6  2  0
  5 10  1  0
  8  7  1  0
  9  8  1  1
 10  9  1  0
 11  9  1  0
 11 13  1  0
 12 11  2  0
 14 19  1  0
 14 13  1  0
 14 15  1  1
 16 15  1  0
 17 16  1  0
 18 17  2  0
 19 20  1  0
 21 17  1  0
 22 19  2  0
M  END
$$$$
