SSE.pdb
     RDKit          3D

 22 21  0  0  1  0  0  0  0  0999 V2000
    8.0802  -13.8256   15.5664 O   0  0  0  0  0  0  0  0  0  0  0  0
    8.4121  -13.5232   16.9008 C   0  0  0  0  0  0  0  0  0  0  0  0
    8.7185  -14.7958   17.6668 C   0  0  2  0  0  0  0  0  0  0  0  0
    7.6643  -15.7292   17.3834 N   0  0  0  0  0  0  0  0  0  0  0  0
    8.9329  -14.5560   19.0955 C   0  0  0  0  0  0  0  0  0  0  0  0
   10.0135  -14.0437   19.4944 O   0  0  0  0  0  0  0  0  0  0  0  0
    6.3171  -15.9942   22.0449 O   0  0  0  0  0  0  0  0  0  0  0  0
    6.9958  -14.8311   22.3665 C   0  0  0  0  0  0  0  0  0  0  0  0
    8.2612  -14.7756   21.5245 C   0  0  2  0  0  0  0  0  0  0  0  0
    7.9802  -14.8660   20.1218 N   0  0  0  0  0  0  0  0  0  0  0  0
    9.2358  -15.7846   21.9875 C   0  0  0  0  0  0  0  0  0  0  0  0
    9.4464  -16.8646   21.3817 O   0  0  0  0  0  0  0  0  0  0  0  0
    9.9731  -15.5306   23.1686 N   0  0  0  0  0  0  0  0  0  0  0  0
   10.9955  -16.4994   23.6640 C   0  0  1  0  0  0  0  0  0  0  0  0
   12.3354  -16.0268   23.2256 C   0  0  0  0  0  0  0  0  0  0  0  0
   13.4661  -16.8691   23.6310 C   0  0  0  0  0  0  0  0  0  0  0  0
   14.8118  -16.4433   23.2153 C   0  0  0  0  0  0  0  0  0  0  0  0
   15.8458  -16.8953   23.7693 O   0  0  0  0  0  0  0  0  0  0  0  0
   10.7951  -16.7896   25.0452 C   0  0  0  0  0  0  0  0  0  0  0  0
   11.4415  -17.8768   25.6595 O   0  0  0  0  0  0  0  0  0  0  0  0
   14.9558  -15.5247   22.1928 O   0  0  0  0  0  0  0  0  0  0  0  0
   10.0379  -16.1121   25.8177 O   0  0  0  0  0  0  0  0  0  0  0  0
  1  2  1  0
  3  2  1  0
  3  5  1  0
  3  4  1  1
  5  6  2  0
  5 10  1  0
  8  7  1  0
  9  8  1  1
 10  9  1  0
 11  9  1  0
 11 13  1  0
 12 11  2  0
 14 19  1  0
 14 13  1  0
 14 15  1  1
 16 15  1  0
 17 16  1  0
 18 17  2  0
 19 20  1  0
 21 17  1  0
 22 19  2  0
M  END
$$$$
