SSE.pdb
     RDKit          3D

 22 21  0  0  1  0  0  0  0  0999 V2000
   10.6710  -23.1349   19.4926 O   0  0  0  0  0  0  0  0  0  0  0  0
   10.0542  -22.2992   18.5421 C   0  0  0  0  0  0  0  0  0  0  0  0
    8.7512  -21.7513   19.0919 C   0  0  2  0  0  0  0  0  0  0  0  0
    8.1635  -20.9367   18.0653 N   0  0  0  0  0  0  0  0  0  0  0  0
    8.9252  -21.0617   20.3721 C   0  0  0  0  0  0  0  0  0  0  0  0
    9.5227  -19.9525   20.4156 O   0  0  0  0  0  0  0  0  0  0  0  0
    6.8709  -22.0475   23.8839 O   0  0  0  0  0  0  0  0  0  0  0  0
    7.3654  -20.7704   23.6813 C   0  0  0  0  0  0  0  0  0  0  0  0
    8.6537  -20.8851   22.8810 C   0  0  2  0  0  0  0  0  0  0  0  0
    8.4546  -21.5598   21.6321 N   0  0  0  0  0  0  0  0  0  0  0  0
    9.7219  -21.4893   23.7033 C   0  0  0  0  0  0  0  0  0  0  0  0
    9.9710  -22.7205   23.7088 O   0  0  0  0  0  0  0  0  0  0  0  0
   10.5083  -20.6487   24.5267 N   0  0  0  0  0  0  0  0  0  0  0  0
   11.5717  -21.2101   25.4116 C   0  0  1  0  0  0  0  0  0  0  0  0
   12.8282  -20.4538   25.1666 C   0  0  0  0  0  0  0  0  0  0  0  0
   13.9843  -20.8736   25.9664 C   0  0  0  0  0  0  0  0  0  0  0  0
   15.2387  -20.1249   25.7894 C   0  0  0  0  0  0  0  0  0  0  0  0
   16.1439  -20.5305   25.0172 O   0  0  0  0  0  0  0  0  0  0  0  0
   11.1045  -21.3364   26.7524 C   0  0  0  0  0  0  0  0  0  0  0  0
   11.6625  -22.2836   27.6292 O   0  0  0  0  0  0  0  0  0  0  0  0
   15.4385  -18.9466   26.4834 O   0  0  0  0  0  0  0  0  0  0  0  0
   10.1715  -20.6261   27.2566 O   0  0  0  0  0  0  0  0  0  0  0  0
  1  2  1  0
  3  2  1  0
  3  5  1  0
  3  4  1  6
  5  6  2  0
  5 10  1  0
  8  7  1  0
  9  8  1  1
 10  9  1  0
 11  9  1  0
 11 13  1  0
 12 11  2  0
 14 19  1  0
 14 13  1  0
 14 15  1  1
 16 15  1  0
 17 16  1  0
 18 17  2  0
 19 20  1  0
 21 17  1  0
 22 19  2  0
M  END
$$$$
