SSE.pdb
     RDKit          3D

 22 21  0  0  1  0  0  0  0  0999 V2000
    7.2543  -19.5143   21.4893 O   0  0  0  0  0  0  0  0  0  0  0  0
    7.4402  -20.6080   20.6224 C   0  0  0  0  0  0  0  0  0  0  0  0
    8.1100  -20.1534   19.3399 C   0  0  2  0  0  0  0  0  0  0  0  0
    8.3856  -21.3290   18.5621 N   0  0  0  0  0  0  0  0  0  0  0  0
    9.2840  -19.3127   19.5844 C   0  0  0  0  0  0  0  0  0  0  0  0
   10.3928  -19.8430   19.8646 O   0  0  0  0  0  0  0  0  0  0  0  0
   11.5841  -15.0865   19.3440 O   0  0  0  0  0  0  0  0  0  0  0  0
   10.3619  -15.7106   19.1612 C   0  0  0  0  0  0  0  0  0  0  0  0
   10.4179  -17.0667   19.8477 C   0  0  2  0  0  0  0  0  0  0  0  0
    9.2808  -17.8795   19.5298 N   0  0  0  0  0  0  0  0  0  0  0  0
   10.6264  -16.9031   21.3010 C   0  0  0  0  0  0  0  0  0  0  0  0
    9.7011  -16.6121   22.0991 O   0  0  0  0  0  0  0  0  0  0  0  0
   11.9274  -17.0821   21.8288 N   0  0  0  0  0  0  0  0  0  0  0  0
   12.1949  -16.9335   23.2901 C   0  0  1  0  0  0  0  0  0  0  0  0
   12.1101  -18.2788   23.9179 C   0  0  0  0  0  0  0  0  0  0  0  0
   12.3368  -18.3151   25.3669 C   0  0  0  0  0  0  0  0  0  0  0  0
   12.3238  -19.6326   26.0221 C   0  0  0  0  0  0  0  0  0  0  0  0
   12.8801  -20.6323   25.5013 O   0  0  0  0  0  0  0  0  0  0  0  0
   13.3639  -16.1499   23.5169 C   0  0  0  0  0  0  0  0  0  0  0  0
   13.6590  -15.6393   24.7934 O   0  0  0  0  0  0  0  0  0  0  0  0
   11.6877  -19.7875   27.2393 O   0  0  0  0  0  0  0  0  0  0  0  0
   14.2148  -15.8532   22.6129 O   0  0  0  0  0  0  0  0  0  0  0  0
  1  2  1  0
  3  2  1  0
  3  5  1  0
  3  4  1  1
  5  6  2  0
  5 10  1  0
  8  7  1  0
  9  8  1  6
 10  9  1  0
 11  9  1  0
 11 13  1  0
 12 11  2  0
 14 19  1  0
 14 13  1  0
 14 15  1  6
 16 15  1  0
 17 16  1  0
 18 17  2  0
 19 20  1  0
 21 17  1  0
 22 19  2  0
M  END
$$$$
