SSE.pdb
     RDKit          3D

 22 21  0  0  1  0  0  0  0  0999 V2000
   14.6792  -21.0885   18.7053 O   0  0  0  0  0  0  0  0  0  0  0  0
   14.9749  -20.2972   17.5789 C   0  0  0  0  0  0  0  0  0  0  0  0
   13.9687  -19.1698   17.4505 C   0  0  2  0  0  0  0  0  0  0  0  0
   14.3587  -18.3761   16.3188 N   0  0  0  0  0  0  0  0  0  0  0  0
   13.8179  -18.4049   18.6903 C   0  0  0  0  0  0  0  0  0  0  0  0
   14.7180  -17.5976   19.0474 O   0  0  0  0  0  0  0  0  0  0  0  0
   10.3993  -18.5919   21.2192 O   0  0  0  0  0  0  0  0  0  0  0  0
   11.0499  -17.3872   21.0144 C   0  0  0  0  0  0  0  0  0  0  0  0
   12.5153  -17.6843   20.7356 C   0  0  2  0  0  0  0  0  0  0  0  0
   12.6881  -18.4987   19.5688 N   0  0  0  0  0  0  0  0  0  0  0  0
   13.1674  -18.2451   21.9367 C   0  0  0  0  0  0  0  0  0  0  0  0
   13.2956  -19.4787   22.1357 O   0  0  0  0  0  0  0  0  0  0  0  0
   13.6762  -17.3578   22.9149 N   0  0  0  0  0  0  0  0  0  0  0  0
   14.2221  -17.8655   24.2085 C   0  0  1  0  0  0  0  0  0  0  0  0
   15.4572  -17.1002   24.5248 C   0  0  0  0  0  0  0  0  0  0  0  0
   16.5382  -17.2104   23.5391 C   0  0  0  0  0  0  0  0  0  0  0  0
   17.7009  -16.3241   23.7064 C   0  0  0  0  0  0  0  0  0  0  0  0
   17.8012  -15.5486   24.6907 O   0  0  0  0  0  0  0  0  0  0  0  0
   13.1986  -17.9436   25.1977 C   0  0  0  0  0  0  0  0  0  0  0  0
   13.4515  -18.5078   26.4606 O   0  0  0  0  0  0  0  0  0  0  0  0
   18.7132  -16.3349   22.7656 O   0  0  0  0  0  0  0  0  0  0  0  0
   12.0052  -17.5235   25.0293 O   0  0  0  0  0  0  0  0  0  0  0  0
  1  2  1  0
  3  2  1  0
  3  5  1  0
  3  4  1  6
  5  6  2  0
  5 10  1  0
  8  7  1  0
  9  8  1  1
 10  9  1  0
 11  9  1  0
 11 13  1  0
 12 11  2  0
 14 19  1  0
 14 13  1  0
 14 15  1  1
 16 15  1  0
 17 16  1  0
 18 17  2  0
 19 20  1  0
 21 17  1  0
 22 19  2  0
M  END
$$$$
