SSE.pdb
     RDKit          3D

 22 21  0  0  1  0  0  0  0  0999 V2000
    7.0968  -10.7524   26.6622 O   0  0  0  0  0  0  0  0  0  0  0  0
    7.5326  -11.9904   26.1526 C   0  0  0  0  0  0  0  0  0  0  0  0
    6.3823  -12.7161   25.4816 C   0  0  2  0  0  0  0  0  0  0  0  0
    5.4180  -13.0227   26.5009 N   0  0  0  0  0  0  0  0  0  0  0  0
    6.8234  -13.8801   24.7102 C   0  0  0  0  0  0  0  0  0  0  0  0
    7.0333  -14.9794   25.2906 O   0  0  0  0  0  0  0  0  0  0  0  0
    8.2482  -13.6848   20.6962 O   0  0  0  0  0  0  0  0  0  0  0  0
    7.5188  -14.7999   21.0720 C   0  0  0  0  0  0  0  0  0  0  0  0
    7.6498  -14.9631   22.5785 C   0  0  2  0  0  0  0  0  0  0  0  0
    7.0459  -13.8772   23.2933 N   0  0  0  0  0  0  0  0  0  0  0  0
    9.0602  -15.1919   22.9537 C   0  0  0  0  0  0  0  0  0  0  0  0
    9.8405  -14.2663   23.2889 O   0  0  0  0  0  0  0  0  0  0  0  0
    9.5652  -16.5139   22.9390 N   0  0  0  0  0  0  0  0  0  0  0  0
   10.9541  -16.8151   23.3964 C   0  0  1  0  0  0  0  0  0  0  0  0
   10.8724  -17.7616   24.5403 C   0  0  0  0  0  0  0  0  0  0  0  0
   10.6132  -17.1504   25.8486 C   0  0  0  0  0  0  0  0  0  0  0  0
   10.5796  -18.0422   27.0186 C   0  0  0  0  0  0  0  0  0  0  0  0
   10.4024  -17.5969   28.1807 O   0  0  0  0  0  0  0  0  0  0  0  0
   11.7918  -17.1523   22.2934 C   0  0  0  0  0  0  0  0  0  0  0  0
   11.2540  -17.3634   21.0115 O   0  0  0  0  0  0  0  0  0  0  0  0
   10.7460  -19.4036   26.8489 O   0  0  0  0  0  0  0  0  0  0  0  0
   13.0587  -17.2877   22.3704 O   0  0  0  0  0  0  0  0  0  0  0  0
  1  2  1  0
  3  2  1  0
  3  5  1  0
  3  4  1  1
  5  6  2  0
  5 10  1  0
  8  7  1  0
  9  8  1  6
 10  9  1  0
 11  9  1  0
 11 13  1  0
 12 11  2  0
 14 19  1  0
 14 13  1  0
 14 15  1  1
 16 15  1  0
 17 16  1  0
 18 17  2  0
 19 20  1  0
 21 17  1  0
 22 19  2  0
M  END
$$$$
