SSE.pdb
     RDKit          3D

 22 21  0  0  1  0  0  0  0  0999 V2000
    8.5717  -19.3577   18.6749 O   0  0  0  0  0  0  0  0  0  0  0  0
    7.3957  -18.6121   18.4661 C   0  0  0  0  0  0  0  0  0  0  0  0
    7.7395  -17.1830   18.0928 C   0  0  2  0  0  0  0  0  0  0  0  0
    8.4453  -17.2261   16.8426 N   0  0  0  0  0  0  0  0  0  0  0  0
    8.4575  -16.4794   19.1576 C   0  0  0  0  0  0  0  0  0  0  0  0
    9.7126  -16.3714   19.1082 O   0  0  0  0  0  0  0  0  0  0  0  0
    6.8164  -15.4699   22.9127 O   0  0  0  0  0  0  0  0  0  0  0  0
    7.6160  -14.5077   22.3199 C   0  0  0  0  0  0  0  0  0  0  0  0
    8.5480  -15.2064   21.3419 C   0  0  2  0  0  0  0  0  0  0  0  0
    7.8301  -15.8775   20.2984 N   0  0  0  0  0  0  0  0  0  0  0  0
    9.4861  -16.0910   22.0628 C   0  0  0  0  0  0  0  0  0  0  0  0
    9.3290  -17.3344   22.1487 O   0  0  0  0  0  0  0  0  0  0  0  0
   10.6195  -15.5197   22.6889 N   0  0  0  0  0  0  0  0  0  0  0  0
   11.6177  -16.3698   23.4030 C   0  0  1  0  0  0  0  0  0  0  0  0
   12.9791  -15.9086   23.0222 C   0  0  0  0  0  0  0  0  0  0  0  0
   14.0892  -16.6912   23.5765 C   0  0  0  0  0  0  0  0  0  0  0  0
   15.4549  -16.2845   23.2094 C   0  0  0  0  0  0  0  0  0  0  0  0
   16.3549  -16.1434   24.0756 O   0  0  0  0  0  0  0  0  0  0  0  0
   11.2985  -16.4756   24.7883 C   0  0  0  0  0  0  0  0  0  0  0  0
   11.7651  -17.5542   25.5603 O   0  0  0  0  0  0  0  0  0  0  0  0
   15.7680  -16.0488   21.8841 O   0  0  0  0  0  0  0  0  0  0  0  0
   10.5859  -15.6305   25.4264 O   0  0  0  0  0  0  0  0  0  0  0  0
  1  2  1  0
  3  2  1  0
  3  5  1  0
  3  4  1  6
  5  6  2  0
  5 10  1  0
  8  7  1  0
  9  8  1  1
 10  9  1  0
 11  9  1  0
 11 13  1  0
 12 11  2  0
 14 19  1  0
 14 13  1  0
 14 15  1  1
 16 15  1  0
 17 16  1  0
 18 17  2  0
 19 20  1  0
 21 17  1  0
 22 19  2  0
M  END
$$$$
