SSE.pdb
     RDKit          3D

 22 21  0  0  1  0  0  0  0  0999 V2000
    9.2074  -15.7718   17.3579 O   0  0  0  0  0  0  0  0  0  0  0  0
    7.8816  -15.2986   17.3332 C   0  0  0  0  0  0  0  0  0  0  0  0
    7.7849  -13.9698   18.0577 C   0  0  2  0  0  0  0  0  0  0  0  0
    8.3589  -12.9721   17.1986 N   0  0  0  0  0  0  0  0  0  0  0  0
    8.3761  -14.0136   19.3969 C   0  0  0  0  0  0  0  0  0  0  0  0
    9.6152  -13.8353   19.5460 O   0  0  0  0  0  0  0  0  0  0  0  0
    6.4941  -15.7047   22.7241 O   0  0  0  0  0  0  0  0  0  0  0  0
    7.2022  -14.5467   22.9969 C   0  0  0  0  0  0  0  0  0  0  0  0
    8.2381  -14.3580   21.8992 C   0  0  2  0  0  0  0  0  0  0  0  0
    7.6365  -14.2510   20.6026 N   0  0  0  0  0  0  0  0  0  0  0  0
    9.2705  -15.4119   21.9750 C   0  0  0  0  0  0  0  0  0  0  0  0
    9.6899  -16.0359   20.9688 O   0  0  0  0  0  0  0  0  0  0  0  0
    9.8200  -15.7403   23.2372 N   0  0  0  0  0  0  0  0  0  0  0  0
   11.0968  -16.5063   23.3478 C   0  0  1  0  0  0  0  0  0  0  0  0
   12.1286  -15.8111   22.5336 C   0  0  0  0  0  0  0  0  0  0  0  0
   13.4701  -16.4037   22.5741 C   0  0  0  0  0  0  0  0  0  0  0  0
   14.5412  -15.7068   21.8444 C   0  0  0  0  0  0  0  0  0  0  0  0
   14.4992  -15.5588   20.5967 O   0  0  0  0  0  0  0  0  0  0  0  0
   11.3940  -16.8075   24.7090 C   0  0  0  0  0  0  0  0  0  0  0  0
   12.2604  -17.8622   25.0466 O   0  0  0  0  0  0  0  0  0  0  0  0
   15.6247  -15.1988   22.5358 O   0  0  0  0  0  0  0  0  0  0  0  0
   10.9161  -16.1687   25.7055 O   0  0  0  0  0  0  0  0  0  0  0  0
  1  2  1  0
  3  2  1  0
  3  5  1  0
  3  4  1  6
  5  6  2  0
  5 10  1  0
  8  7  1  0
  9  8  1  1
 10  9  1  0
 11  9  1  0
 11 13  1  0
 12 11  2  0
 14 19  1  0
 14 13  1  0
 14 15  1  1
 16 15  1  0
 17 16  1  0
 18 17  2  0
 19 20  1  0
 21 17  1  0
 22 19  2  0
M  END
$$$$
