EYI.pdb
     RDKit          3D

 30 30  0  0  1  0  0  0  0  0999 V2000
   45.8549  -11.4558   -6.2270 N   0  0  0  0  0  0  0  0  0  0  0  0
   44.5986  -11.1046   -5.5155 C   0  0  1  0  0  0  0  0  0  0  0  0
   44.8616   -9.8172   -4.8117 C   0  0  0  0  0  0  0  0  0  0  0  0
   43.6972   -9.1936   -4.1167 C   0  0  0  0  0  0  0  0  0  0  0  0
   43.6264   -7.7359   -4.2384 C   0  0  0  0  0  0  0  0  0  0  0  0
   44.4576   -7.0119   -3.6415 O   0  0  0  0  0  0  0  0  0  0  0  0
   43.5316  -11.0849   -6.5144 C   0  0  0  0  0  0  0  0  0  0  0  0
   43.8052  -10.6902   -7.7020 O   0  0  0  0  0  0  0  0  0  0  0  0
   42.6519   -7.1265   -5.0061 O   0  0  0  0  0  0  0  0  0  0  0  0
   44.0084  -15.9693  -10.9638 O   0  0  0  0  0  0  0  0  0  0  0  0
   43.1697  -15.1890  -10.1601 C   0  0  0  0  0  0  0  0  0  0  0  0
   43.2545  -15.2985   -8.7762 C   0  0  0  0  0  0  0  0  0  0  0  0
   42.4354  -14.5370   -7.9631 C   0  0  0  0  0  0  0  0  0  0  0  0
   41.5100  -13.6464   -8.5003 C   0  0  0  0  0  0  0  0  0  0  0  0
   40.6248  -12.8226   -7.6520 C   0  0  0  0  0  0  0  0  0  0  0  0
   41.2084  -11.4425   -7.4080 C   0  0  2  0  0  0  0  0  0  0  0  0
   42.1826  -11.4660   -6.3164 N   0  0  0  0  0  0  0  0  0  0  0  0
   40.1478  -10.4598   -7.0758 C   0  0  0  0  0  0  0  0  0  0  0  0
   39.4130  -10.6142   -6.0515 O   0  0  0  0  0  0  0  0  0  0  0  0
   41.4487  -13.5593   -9.8821 C   0  0  0  0  0  0  0  0  0  0  0  0
   42.2625  -14.3157  -10.6977 C   0  0  0  0  0  0  0  0  0  0  0  0
   38.3361   -5.0175   -5.8788 C   0  0  0  0  0  0  0  0  0  0  0  0
   38.0490   -6.2408   -6.6753 C   0  0  0  0  0  0  0  0  0  0  0  0
   39.2625   -7.1272   -6.8702 C   0  0  2  0  0  0  0  0  0  0  0  0
   40.2747   -6.3971   -7.7270 C   0  0  0  0  0  0  0  0  0  0  0  0
   38.8396   -8.3515   -7.6010 C   0  0  2  0  0  0  0  0  0  0  0  0
   39.8770   -9.3133   -7.8425 N   0  0  0  0  0  0  0  0  0  0  0  0
   38.1850   -8.0707   -8.9074 C   0  0  0  0  0  0  0  0  0  0  0  0
   38.6656   -8.4278  -10.0135 O   0  0  0  0  0  0  0  0  0  0  0  0
   36.9817   -7.3822   -8.9474 O   0  0  0  0  0  0  0  0  0  0  0  0
  2  3  1  0
  2  1  1  6
  3  4  1  0
  4  5  1  0
  5  6  2  0
  7  8  2  0
  7  2  1  0
  9  5  1  0
 10 11  1  0
 11 21  2  0
 12 13  2  0
 12 11  1  0
 13 14  1  0
 14 15  1  0
 14 20  2  0
 16 15  1  1
 16 17  1  0
 17  7  1  0
 18 16  1  0
 18 19  2  0
 21 20  1  0
 22 23  1  0
 23 24  1  0
 24 25  1  6
 24 26  1  0
 26 27  1  6
 27 18  1  0
 28 26  1  0
 29 28  2  0
 30 28  1  0
M  END
$$$$
