EYI.pdb
     RDKit          3D

 30 30  0  0  1  0  0  0  0  0999 V2000
   12.9166  -19.2609    6.3017 N   0  0  0  0  0  0  0  0  0  0  0  0
   14.2766  -18.6803    6.4474 C   0  0  1  0  0  0  0  0  0  0  0  0
   14.2964  -17.9851    7.7658 C   0  0  0  0  0  0  0  0  0  0  0  0
   13.6010  -16.6659    7.8283 C   0  0  0  0  0  0  0  0  0  0  0  0
   14.2574  -15.5966    7.0733 C   0  0  0  0  0  0  0  0  0  0  0  0
   13.5730  -14.7685    6.4272 O   0  0  0  0  0  0  0  0  0  0  0  0
   15.2301  -19.7763    6.2842 C   0  0  0  0  0  0  0  0  0  0  0  0
   14.8582  -20.9666    6.5774 O   0  0  0  0  0  0  0  0  0  0  0  0
   15.6339  -15.4732    7.0531 O   0  0  0  0  0  0  0  0  0  0  0  0
   13.7224  -22.5508    0.7444 O   0  0  0  0  0  0  0  0  0  0  0  0
   14.7520  -22.1563    1.6063 C   0  0  0  0  0  0  0  0  0  0  0  0
   15.5043  -23.1261    2.2603 C   0  0  0  0  0  0  0  0  0  0  0  0
   16.5263  -22.7589    3.1162 C   0  0  0  0  0  0  0  0  0  0  0  0
   16.8299  -21.4199    3.3468 C   0  0  0  0  0  0  0  0  0  0  0  0
   17.9167  -21.0035    4.2563 C   0  0  0  0  0  0  0  0  0  0  0  0
   17.4238  -20.8489    5.6839 C   0  0  2  0  0  0  0  0  0  0  0  0
   16.5642  -19.6729    5.8219 N   0  0  0  0  0  0  0  0  0  0  0  0
   18.5560  -20.7227    6.6343 C   0  0  0  0  0  0  0  0  0  0  0  0
   19.1487  -19.6116    6.7991 O   0  0  0  0  0  0  0  0  0  0  0  0
   16.0631  -20.4767    2.6810 C   0  0  0  0  0  0  0  0  0  0  0  0
   15.0433  -20.8367    1.8267 C   0  0  0  0  0  0  0  0  0  0  0  0
   20.8348  -21.3467   12.0234 C   0  0  0  0  0  0  0  0  0  0  0  0
   21.0642  -21.6080   10.5768 C   0  0  0  0  0  0  0  0  0  0  0  0
   19.7949  -21.5585    9.7505 C   0  0  2  0  0  0  0  0  0  0  0  0
   18.8979  -22.7093   10.1540 C   0  0  0  0  0  0  0  0  0  0  0  0
   20.1568  -21.7380    8.3192 C   0  0  2  0  0  0  0  0  0  0  0  0
   19.0507  -21.7881    7.4063 N   0  0  0  0  0  0  0  0  0  0  0  0
   20.9965  -22.9391    8.0619 C   0  0  0  0  0  0  0  0  0  0  0  0
   22.1743  -23.0640    8.4850 O   0  0  0  0  0  0  0  0  0  0  0  0
   20.4884  -23.9959    7.3212 O   0  0  0  0  0  0  0  0  0  0  0  0
  2  3  1  0
  2  1  1  1
  3  4  1  0
  4  5  1  0
  5  6  2  0
  7  8  2  0
  7  2  1  0
  9  5  1  0
 10 11  1  0
 11 21  2  0
 12 13  2  0
 12 11  1  0
 13 14  1  0
 14 15  1  0
 14 20  2  0
 16 15  1  6
 16 17  1  0
 17  7  1  0
 18 16  1  0
 18 19  2  0
 21 20  1  0
 22 23  1  0
 23 24  1  0
 24 25  1  1
 24 26  1  0
 26 27  1  6
 27 18  1  0
 28 26  1  0
 29 28  2  0
 30 28  1  0
M  END
$$$$
