EYI.pdb
     RDKit          3D

 30 30  0  0  1  0  0  0  0  0999 V2000
   27.6517  -21.5014  -15.0377 N   0  0  0  0  0  0  0  0  0  0  0  0
   27.5244  -20.0382  -14.8124 C   0  0  1  0  0  0  0  0  0  0  0  0
   26.8082  -19.4922  -16.0002 C   0  0  0  0  0  0  0  0  0  0  0  0
   27.4282  -19.7661  -17.3300 C   0  0  0  0  0  0  0  0  0  0  0  0
   28.4606  -18.8068  -17.7282 C   0  0  0  0  0  0  0  0  0  0  0  0
   28.2120  -17.9355  -18.5945 O   0  0  0  0  0  0  0  0  0  0  0  0
   26.8599  -19.8594  -13.5228 C   0  0  0  0  0  0  0  0  0  0  0  0
   26.5143  -18.6788  -13.1651 O   0  0  0  0  0  0  0  0  0  0  0  0
   29.7227  -18.8364  -17.1656 O   0  0  0  0  0  0  0  0  0  0  0  0
   21.0544  -19.5816  -15.8226 O   0  0  0  0  0  0  0  0  0  0  0  0
   21.8639  -20.0353  -14.7751 C   0  0  0  0  0  0  0  0  0  0  0  0
   22.7470  -21.0858  -15.0001 C   0  0  0  0  0  0  0  0  0  0  0  0
   23.5561  -21.5499  -13.9794 C   0  0  0  0  0  0  0  0  0  0  0  0
   23.5113  -20.9849  -12.7079 C   0  0  0  0  0  0  0  0  0  0  0  0
   24.3658  -21.4637  -11.6022 C   0  0  0  0  0  0  0  0  0  0  0  0
   25.6293  -20.6324  -11.4706 C   0  0  2  0  0  0  0  0  0  0  0  0
   26.5405  -20.8748  -12.5896 N   0  0  0  0  0  0  0  0  0  0  0  0
   26.3426  -20.9325  -10.2048 C   0  0  0  0  0  0  0  0  0  0  0  0
   27.1890  -21.8771  -10.1411 O   0  0  0  0  0  0  0  0  0  0  0  0
   22.6216  -19.9401  -12.5141 C   0  0  0  0  0  0  0  0  0  0  0  0
   21.8127  -19.4732  -13.5276 C   0  0  0  0  0  0  0  0  0  0  0  0
   29.5544  -18.5271   -6.9383 C   0  0  0  0  0  0  0  0  0  0  0  0
   28.6566  -19.4997   -7.6176 C   0  0  0  0  0  0  0  0  0  0  0  0
   27.3312  -19.6884   -6.9077 C   0  0  2  0  0  0  0  0  0  0  0  0
   27.5839  -20.2910   -5.5422 C   0  0  0  0  0  0  0  0  0  0  0  0
   26.5102  -20.6506   -7.6899 C   0  0  2  0  0  0  0  0  0  0  0  0
   26.1469  -20.2192   -9.0096 N   0  0  0  0  0  0  0  0  0  0  0  0
   25.2583  -21.0653   -7.0007 C   0  0  0  0  0  0  0  0  0  0  0  0
   25.2434  -21.7262   -5.9308 O   0  0  0  0  0  0  0  0  0  0  0  0
   24.0252  -20.7234   -7.5356 O   0  0  0  0  0  0  0  0  0  0  0  0
  2  3  1  0
  2  1  1  6
  3  4  1  0
  4  5  1  0
  5  6  2  0
  7  8  2  0
  7  2  1  0
  9  5  1  0
 10 11  1  0
 11 21  2  0
 12 13  2  0
 12 11  1  0
 13 14  1  0
 14 15  1  0
 14 20  2  0
 16 15  1  6
 16 17  1  0
 17  7  1  0
 18 16  1  0
 18 19  2  0
 21 20  1  0
 22 23  1  0
 23 24  1  0
 24 25  1  1
 24 26  1  0
 26 27  1  6
 27 18  1  0
 28 26  1  0
 29 28  2  0
 30 28  1  0
M  END
$$$$
