EYI.pdb
     RDKit          3D

 30 30  0  0  1  0  0  0  0  0999 V2000
   27.8380  -20.7396  -19.1879 N   0  0  0  0  0  0  0  0  0  0  0  0
   27.3157  -19.5987  -18.3920 C   0  0  1  0  0  0  0  0  0  0  0  0
   26.2828  -18.9357  -19.2379 C   0  0  0  0  0  0  0  0  0  0  0  0
   26.7893  -18.0624  -20.3373 C   0  0  0  0  0  0  0  0  0  0  0  0
   27.3754  -18.7862  -21.4673 C   0  0  0  0  0  0  0  0  0  0  0  0
   26.6354  -19.3175  -22.3285 O   0  0  0  0  0  0  0  0  0  0  0  0
   26.8504  -20.1427  -17.1175 C   0  0  0  0  0  0  0  0  0  0  0  0
   26.2142  -21.2546  -17.1166 O   0  0  0  0  0  0  0  0  0  0  0  0
   28.7451  -18.9016  -21.6127 O   0  0  0  0  0  0  0  0  0  0  0  0
   24.5275  -21.5240   -8.6797 O   0  0  0  0  0  0  0  0  0  0  0  0
   25.1665  -21.0641   -9.8367 C   0  0  0  0  0  0  0  0  0  0  0  0
   26.0470  -21.9038  -10.5103 C   0  0  0  0  0  0  0  0  0  0  0  0
   26.6892  -21.4700  -11.6554 C   0  0  0  0  0  0  0  0  0  0  0  0
   26.4756  -20.1915  -12.1635 C   0  0  0  0  0  0  0  0  0  0  0  0
   27.1499  -19.7061  -13.3848 C   0  0  0  0  0  0  0  0  0  0  0  0
   26.4172  -20.1434  -14.6405 C   0  0  2  0  0  0  0  0  0  0  0  0
   27.0280  -19.5646  -15.8375 N   0  0  0  0  0  0  0  0  0  0  0  0
   24.9887  -19.7452  -14.5973 C   0  0  0  0  0  0  0  0  0  0  0  0
   24.6507  -18.5219  -14.6453 O   0  0  0  0  0  0  0  0  0  0  0  0
   25.5931  -19.3779  -11.4707 C   0  0  0  0  0  0  0  0  0  0  0  0
   24.9501  -19.8048  -10.3289 C   0  0  0  0  0  0  0  0  0  0  0  0
   21.8848  -20.4456  -18.0037 C   0  0  0  0  0  0  0  0  0  0  0  0
   21.9912  -19.7855  -16.6746 C   0  0  0  0  0  0  0  0  0  0  0  0
   21.6741  -20.7122  -15.5184 C   0  0  2  0  0  0  0  0  0  0  0  0
   20.2299  -20.5155  -15.1097 C   0  0  0  0  0  0  0  0  0  0  0  0
   22.5336  -20.3371  -14.3641 C   0  0  2  0  0  0  0  0  0  0  0  0
   23.9252  -20.6593  -14.5026 N   0  0  0  0  0  0  0  0  0  0  0  0
   22.0752  -20.9072  -13.0684 C   0  0  0  0  0  0  0  0  0  0  0  0
   22.4057  -22.0495  -12.6590 O   0  0  0  0  0  0  0  0  0  0  0  0
   21.2396  -20.1702  -12.2424 O   0  0  0  0  0  0  0  0  0  0  0  0
  2  3  1  0
  2  1  1  6
  3  4  1  0
  4  5  1  0
  5  6  2  0
  7  8  2  0
  7  2  1  0
  9  5  1  0
 10 11  1  0
 11 21  2  0
 12 13  2  0
 12 11  1  0
 13 14  1  0
 14 15  1  0
 14 20  2  0
 16 15  1  1
 16 17  1  0
 17  7  1  0
 18 16  1  0
 18 19  2  0
 21 20  1  0
 22 23  1  0
 23 24  1  0
 24 25  1  1
 24 26  1  0
 26 27  1  6
 27 18  1  0
 28 26  1  0
 29 28  2  0
 30 28  1  0
M  END
$$$$
