EYI.pdb
     RDKit          3D

 30 30  0  0  1  0  0  0  0  0999 V2000
   20.6555  -12.3359  -17.0033 N   0  0  0  0  0  0  0  0  0  0  0  0
   20.6695  -10.9254  -17.4704 C   0  0  1  0  0  0  0  0  0  0  0  0
   19.2478  -10.4778  -17.4941 C   0  0  0  0  0  0  0  0  0  0  0  0
   19.0105   -9.0478  -17.8499 C   0  0  0  0  0  0  0  0  0  0  0  0
   18.0386   -8.3623  -16.9955 C   0  0  0  0  0  0  0  0  0  0  0  0
   18.3653   -7.9843  -15.8457 O   0  0  0  0  0  0  0  0  0  0  0  0
   21.5610  -10.1871  -16.5778 C   0  0  0  0  0  0  0  0  0  0  0  0
   21.4627  -10.3742  -15.3143 O   0  0  0  0  0  0  0  0  0  0  0  0
   16.7495   -8.1166  -17.4293 O   0  0  0  0  0  0  0  0  0  0  0  0
   27.2415  -13.5947  -16.2565 O   0  0  0  0  0  0  0  0  0  0  0  0
   26.6517  -12.3257  -16.2730 C   0  0  0  0  0  0  0  0  0  0  0  0
   25.5260  -12.1061  -17.0596 C   0  0  0  0  0  0  0  0  0  0  0  0
   24.9271  -10.8602  -17.0909 C   0  0  0  0  0  0  0  0  0  0  0  0
   25.4284   -9.7983  -16.3431 C   0  0  0  0  0  0  0  0  0  0  0  0
   24.8058   -8.4589  -16.3603 C   0  0  0  0  0  0  0  0  0  0  0  0
   23.3401   -8.5176  -15.9688 C   0  0  2  0  0  0  0  0  0  0  0  0
   22.5575   -9.2569  -16.9597 N   0  0  0  0  0  0  0  0  0  0  0  0
   22.7647   -7.1573  -15.8291 C   0  0  0  0  0  0  0  0  0  0  0  0
   22.5186   -6.4449  -16.8513 O   0  0  0  0  0  0  0  0  0  0  0  0
   26.5509  -10.0476  -15.5693 C   0  0  0  0  0  0  0  0  0  0  0  0
   27.1520  -11.2873  -15.5340 C   0  0  0  0  0  0  0  0  0  0  0  0
   19.5078   -3.0165  -15.8716 C   0  0  0  0  0  0  0  0  0  0  0  0
   19.9779   -3.7334  -14.6556 C   0  0  0  0  0  0  0  0  0  0  0  0
   20.4656   -5.1396  -14.9403 C   0  0  2  0  0  0  0  0  0  0  0  0
   19.5725   -6.1272  -14.2200 C   0  0  0  0  0  0  0  0  0  0  0  0
   21.8416   -5.2810  -14.3940 C   0  0  2  0  0  0  0  0  0  0  0  0
   22.4543   -6.5633  -14.5936 N   0  0  0  0  0  0  0  0  0  0  0  0
   21.9436   -4.9639  -12.9438 C   0  0  0  0  0  0  0  0  0  0  0  0
   21.8069   -3.8038  -12.4775 O   0  0  0  0  0  0  0  0  0  0  0  0
   22.2016   -5.9736  -12.0286 O   0  0  0  0  0  0  0  0  0  0  0  0
  2  3  1  0
  2  1  1  1
  3  4  1  0
  4  5  1  0
  5  6  2  0
  7  8  2  0
  7  2  1  0
  9  5  1  0
 10 11  1  0
 11 21  2  0
 12 13  2  0
 12 11  1  0
 13 14  1  0
 14 15  1  0
 14 20  2  0
 16 15  1  6
 16 17  1  0
 17  7  1  0
 18 16  1  0
 18 19  2  0
 21 20  1  0
 22 23  1  0
 23 24  1  0
 24 25  1  1
 24 26  1  0
 26 27  1  1
 27 18  1  0
 28 26  1  0
 29 28  2  0
 30 28  1  0
M  END
$$$$
