EYI.pdb
     RDKit          3D

 30 30  0  0  1  0  0  0  0  0999 V2000
   21.2596  -11.2364  -18.4355 N   0  0  0  0  0  0  0  0  0  0  0  0
   20.9707  -11.5145  -17.0048 C   0  0  1  0  0  0  0  0  0  0  0  0
   21.3537  -12.9356  -16.7685 C   0  0  0  0  0  0  0  0  0  0  0  0
   20.4532  -13.9700  -17.3577 C   0  0  0  0  0  0  0  0  0  0  0  0
   19.3100  -14.3306  -16.5165 C   0  0  0  0  0  0  0  0  0  0  0  0
   18.4214  -13.4837  -16.2626 O   0  0  0  0  0  0  0  0  0  0  0  0
   21.6928  -10.5151  -16.2196 C   0  0  0  0  0  0  0  0  0  0  0  0
   21.6184  -10.5627  -14.9416 O   0  0  0  0  0  0  0  0  0  0  0  0
   19.1819  -15.6005  -15.9860 O   0  0  0  0  0  0  0  0  0  0  0  0
   27.3930  -13.4140  -16.4635 O   0  0  0  0  0  0  0  0  0  0  0  0
   26.7298  -12.1828  -16.4112 C   0  0  0  0  0  0  0  0  0  0  0  0
   26.0644  -11.7170  -17.5402 C   0  0  0  0  0  0  0  0  0  0  0  0
   25.4026  -10.5033  -17.5108 C   0  0  0  0  0  0  0  0  0  0  0  0
   25.3828   -9.7186  -16.3611 C   0  0  0  0  0  0  0  0  0  0  0  0
   24.6826   -8.4191  -16.3058 C   0  0  0  0  0  0  0  0  0  0  0  0
   23.2472   -8.5759  -15.8368 C   0  0  2  0  0  0  0  0  0  0  0  0
   22.4951   -9.4635  -16.7242 N   0  0  0  0  0  0  0  0  0  0  0  0
   22.5535   -7.2658  -15.7774 C   0  0  0  0  0  0  0  0  0  0  0  0
   22.3510   -6.5865  -16.8312 O   0  0  0  0  0  0  0  0  0  0  0  0
   26.0544  -10.2089  -15.2524 C   0  0  0  0  0  0  0  0  0  0  0  0
   26.7157  -11.4179  -15.2757 C   0  0  0  0  0  0  0  0  0  0  0  0
   17.8235   -6.0975  -15.2709 C   0  0  0  0  0  0  0  0  0  0  0  0
   19.2904   -5.9231  -15.4477 C   0  0  0  0  0  0  0  0  0  0  0  0
   19.9896   -5.4263  -14.1984 C   0  0  2  0  0  0  0  0  0  0  0  0
   19.5404   -4.0094  -13.9117 C   0  0  0  0  0  0  0  0  0  0  0  0
   21.4540   -5.4010  -14.4562 C   0  0  2  0  0  0  0  0  0  0  0  0
   22.0781   -6.6865  -14.5883 N   0  0  0  0  0  0  0  0  0  0  0  0
   22.2261   -4.6378  -13.4385 C   0  0  0  0  0  0  0  0  0  0  0  0
   22.6935   -5.1562  -12.3922 O   0  0  0  0  0  0  0  0  0  0  0  0
   22.4629   -3.2833  -13.6186 O   0  0  0  0  0  0  0  0  0  0  0  0
  2  3  1  0
  2  1  1  6
  3  4  1  0
  4  5  1  0
  5  6  2  0
  7  8  2  0
  7  2  1  0
  9  5  1  0
 10 11  1  0
 11 21  2  0
 12 13  2  0
 12 11  1  0
 13 14  1  0
 14 15  1  0
 14 20  2  0
 16 15  1  6
 16 17  1  0
 17  7  1  0
 18 16  1  0
 18 19  2  0
 21 20  1  0
 22 23  1  0
 23 24  1  0
 24 25  1  6
 24 26  1  0
 26 27  1  1
 27 18  1  0
 28 26  1  0
 29 28  2  0
 30 28  1  0
M  END
$$$$
