EYI.pdb
     RDKit          3D

 30 30  0  0  1  0  0  0  0  0999 V2000
   13.3619  -10.3666  -10.8004 N   0  0  0  0  0  0  0  0  0  0  0  0
   14.8364  -10.2121  -10.8994 C   0  0  1  0  0  0  0  0  0  0  0  0
   15.2194  -10.7050  -12.2530 C   0  0  0  0  0  0  0  0  0  0  0  0
   16.6711  -10.6407  -12.5939 C   0  0  0  0  0  0  0  0  0  0  0  0
   16.9955  -11.0745  -13.9545 C   0  0  0  0  0  0  0  0  0  0  0  0
   16.9864  -10.2499  -14.8987 O   0  0  0  0  0  0  0  0  0  0  0  0
   15.1404   -8.8107  -10.6158 C   0  0  0  0  0  0  0  0  0  0  0  0
   14.4876   -7.8997  -11.2364 O   0  0  0  0  0  0  0  0  0  0  0  0
   17.3169  -12.3900  -14.2307 O   0  0  0  0  0  0  0  0  0  0  0  0
   10.2661   -6.5134   -7.4561 O   0  0  0  0  0  0  0  0  0  0  0  0
   11.6559   -6.4874   -7.6178 C   0  0  0  0  0  0  0  0  0  0  0  0
   12.3796   -7.6690   -7.4989 C   0  0  0  0  0  0  0  0  0  0  0  0
   13.7534   -7.6663   -7.6548 C   0  0  0  0  0  0  0  0  0  0  0  0
   14.4469   -6.4916   -7.9329 C   0  0  0  0  0  0  0  0  0  0  0  0
   15.9139   -6.4640   -8.1037 C   0  0  0  0  0  0  0  0  0  0  0  0
   16.3230   -6.8913   -9.5019 C   0  0  2  0  0  0  0  0  0  0  0  0
   16.1057   -8.3244   -9.7015 N   0  0  0  0  0  0  0  0  0  0  0  0
   17.7517   -6.5876   -9.7619 C   0  0  0  0  0  0  0  0  0  0  0  0
   18.6105   -6.6409   -8.8278 O   0  0  0  0  0  0  0  0  0  0  0  0
   13.6988   -5.3304   -8.0455 C   0  0  0  0  0  0  0  0  0  0  0  0
   12.3293   -5.3269   -7.8912 C   0  0  0  0  0  0  0  0  0  0  0  0
   22.4567   -8.5785  -12.2601 C   0  0  0  0  0  0  0  0  0  0  0  0
   21.6910   -7.3125  -12.1038 C   0  0  0  0  0  0  0  0  0  0  0  0
   20.2722   -7.5268  -11.6167 C   0  0  2  0  0  0  0  0  0  0  0  0
   19.4885   -8.2586  -12.6854 C   0  0  0  0  0  0  0  0  0  0  0  0
   19.6383   -6.1973  -11.4113 C   0  0  2  0  0  0  0  0  0  0  0  0
   18.2571   -6.2273  -11.0230 N   0  0  0  0  0  0  0  0  0  0  0  0
   19.7460   -5.2961  -12.5905 C   0  0  0  0  0  0  0  0  0  0  0  0
   20.8432   -4.9120  -13.0704 O   0  0  0  0  0  0  0  0  0  0  0  0
   18.5989   -4.8355  -13.2195 O   0  0  0  0  0  0  0  0  0  0  0  0
  2  3  1  0
  2  1  1  6
  3  4  1  0
  4  5  1  0
  5  6  2  0
  7  8  2  0
  7  2  1  0
  9  5  1  0
 10 11  1  0
 11 21  2  0
 12 13  2  0
 12 11  1  0
 13 14  1  0
 14 15  1  0
 14 20  2  0
 16 15  1  1
 16 17  1  0
 17  7  1  0
 18 16  1  0
 18 19  2  0
 21 20  1  0
 22 23  1  0
 23 24  1  0
 24 25  1  6
 24 26  1  0
 26 27  1  6
 27 18  1  0
 28 26  1  0
 29 28  2  0
 30 28  1  0
M  END
$$$$
