EYI.pdb
     RDKit          3D

 30 30  0  0  1  0  0  0  0  0999 V2000
   20.1457  -13.9923  -18.0636 N   0  0  0  0  0  0  0  0  0  0  0  0
   20.7156  -13.2232  -16.9272 C   0  0  1  0  0  0  0  0  0  0  0  0
   22.1894  -13.1811  -17.1470 C   0  0  0  0  0  0  0  0  0  0  0  0
   22.6598  -12.3987  -18.3278 C   0  0  0  0  0  0  0  0  0  0  0  0
   24.1139  -12.3743  -18.5003 C   0  0  0  0  0  0  0  0  0  0  0  0
   24.8586  -12.9282  -17.6576 O   0  0  0  0  0  0  0  0  0  0  0  0
   20.0328  -11.9310  -16.8989 C   0  0  0  0  0  0  0  0  0  0  0  0
   19.7279  -11.3697  -18.0093 O   0  0  0  0  0  0  0  0  0  0  0  0
   24.6973  -11.7468  -19.5848 O   0  0  0  0  0  0  0  0  0  0  0  0
   13.7627  -13.1151  -17.6939 O   0  0  0  0  0  0  0  0  0  0  0  0
   14.7269  -12.3364  -17.0441 C   0  0  0  0  0  0  0  0  0  0  0  0
   14.9409  -11.0267  -17.4602 C   0  0  0  0  0  0  0  0  0  0  0  0
   15.8885  -10.2395  -16.8324 C   0  0  0  0  0  0  0  0  0  0  0  0
   16.6497  -10.7298  -15.7749 C   0  0  0  0  0  0  0  0  0  0  0  0
   17.6674   -9.9079  -15.0888 C   0  0  0  0  0  0  0  0  0  0  0  0
   18.9851   -9.9035  -15.8430 C   0  0  2  0  0  0  0  0  0  0  0  0
   19.6538  -11.2014  -15.7464 N   0  0  0  0  0  0  0  0  0  0  0  0
   19.9005   -8.8585  -15.3225 C   0  0  0  0  0  0  0  0  0  0  0  0
   20.4867   -9.0025  -14.2051 O   0  0  0  0  0  0  0  0  0  0  0  0
   16.4140  -12.0381  -15.3828 C   0  0  0  0  0  0  0  0  0  0  0  0
   15.4709  -12.8274  -16.0047 C   0  0  0  0  0  0  0  0  0  0  0  0
   23.9122   -6.7661  -17.9787 C   0  0  0  0  0  0  0  0  0  0  0  0
   22.9175   -7.1806  -16.9530 C   0  0  0  0  0  0  0  0  0  0  0  0
   21.9901   -6.0591  -16.5304 C   0  0  2  0  0  0  0  0  0  0  0  0
   22.8028   -4.9733  -15.8579 C   0  0  0  0  0  0  0  0  0  0  0  0
   21.0256   -6.5953  -15.5334 C   0  0  2  0  0  0  0  0  0  0  0  0
   20.1858   -7.6610  -16.0009 N   0  0  0  0  0  0  0  0  0  0  0  0
   20.1359   -5.5575  -14.9455 C   0  0  0  0  0  0  0  0  0  0  0  0
   20.4885   -4.7909  -14.0129 O   0  0  0  0  0  0  0  0  0  0  0  0
   18.8443   -5.3976  -15.4249 O   0  0  0  0  0  0  0  0  0  0  0  0
  2  3  1  0
  2  1  1  6
  3  4  1  0
  4  5  1  0
  5  6  2  0
  7  8  2  0
  7  2  1  0
  9  5  1  0
 10 11  1  0
 11 21  2  0
 12 13  2  0
 12 11  1  0
 13 14  1  0
 14 15  1  0
 14 20  2  0
 16 15  1  1
 16 17  1  0
 17  7  1  0
 18 16  1  0
 18 19  2  0
 21 20  1  0
 22 23  1  0
 23 24  1  0
 24 25  1  1
 24 26  1  0
 26 27  1  6
 27 18  1  0
 28 26  1  0
 29 28  2  0
 30 28  1  0
M  END
$$$$
