EYI.pdb
     RDKit          3D

 30 30  0  0  1  0  0  0  0  0999 V2000
   26.2880  -19.4111  -15.4387 N   0  0  0  0  0  0  0  0  0  0  0  0
   26.9689  -20.2146  -14.3906 C   0  0  1  0  0  0  0  0  0  0  0  0
   28.4089  -19.8323  -14.4390 C   0  0  0  0  0  0  0  0  0  0  0  0
   29.1897  -20.3424  -15.6043 C   0  0  0  0  0  0  0  0  0  0  0  0
   28.8336  -21.6983  -16.0277 C   0  0  0  0  0  0  0  0  0  0  0  0
   28.0811  -21.8739  -17.0148 O   0  0  0  0  0  0  0  0  0  0  0  0
   26.2759  -19.9512  -13.1308 C   0  0  0  0  0  0  0  0  0  0  0  0
   26.0120  -18.7384  -12.8136 O   0  0  0  0  0  0  0  0  0  0  0  0
   29.3125  -22.8082  -15.3576 O   0  0  0  0  0  0  0  0  0  0  0  0
   20.5243  -18.8248  -15.1603 O   0  0  0  0  0  0  0  0  0  0  0  0
   21.3064  -19.4028  -14.1541 C   0  0  0  0  0  0  0  0  0  0  0  0
   21.2885  -18.8552  -12.8758 C   0  0  0  0  0  0  0  0  0  0  0  0
   22.0535  -19.4103  -11.8666 C   0  0  0  0  0  0  0  0  0  0  0  0
   22.8570  -20.5235  -12.0976 C   0  0  0  0  0  0  0  0  0  0  0  0
   23.6825  -21.1337  -11.0356 C   0  0  0  0  0  0  0  0  0  0  0  0
   25.0782  -20.5374  -10.9989 C   0  0  2  0  0  0  0  0  0  0  0  0
   25.8453  -20.9141  -12.1866 N   0  0  0  0  0  0  0  0  0  0  0  0
   25.8220  -20.9802   -9.7940 C   0  0  0  0  0  0  0  0  0  0  0  0
   26.3446  -22.1364   -9.7382 O   0  0  0  0  0  0  0  0  0  0  0  0
   22.8540  -21.0467  -13.3810 C   0  0  0  0  0  0  0  0  0  0  0  0
   22.0936  -20.4978  -14.3909 C   0  0  0  0  0  0  0  0  0  0  0  0
   29.1457  -18.1566   -6.4618 C   0  0  0  0  0  0  0  0  0  0  0  0
   28.4134  -19.2369   -7.1761 C   0  0  0  0  0  0  0  0  0  0  0  0
   27.1029  -19.6114   -6.5138 C   0  0  2  0  0  0  0  0  0  0  0  0
   27.3918  -20.2335   -5.1643 C   0  0  0  0  0  0  0  0  0  0  0  0
   26.4245  -20.6330   -7.3550 C   0  0  2  0  0  0  0  0  0  0  0  0
   26.0040  -20.1826   -8.6511 N   0  0  0  0  0  0  0  0  0  0  0  0
   25.2432  -21.2571   -6.6998 C   0  0  0  0  0  0  0  0  0  0  0  0
   25.3244  -22.2338   -5.9116 O   0  0  0  0  0  0  0  0  0  0  0  0
   23.9709  -20.7634   -6.9465 O   0  0  0  0  0  0  0  0  0  0  0  0
  2  3  1  0
  2  1  1  6
  3  4  1  0
  4  5  1  0
  5  6  2  0
  7  8  2  0
  7  2  1  0
  9  5  1  0
 10 11  1  0
 11 21  2  0
 12 13  2  0
 12 11  1  0
 13 14  1  0
 14 15  1  0
 14 20  2  0
 16 15  1  6
 16 17  1  0
 17  7  1  0
 18 16  1  0
 18 19  2  0
 21 20  1  0
 22 23  1  0
 23 24  1  0
 24 25  1  1
 24 26  1  0
 26 27  1  6
 27 18  1  0
 28 26  1  0
 29 28  2  0
 30 28  1  0
M  END
$$$$
