EYI.pdb
     RDKit          3D

 30 30  0  0  1  0  0  0  0  0999 V2000
   25.3909  -17.4399  -19.8083 N   0  0  0  0  0  0  0  0  0  0  0  0
   25.5236  -18.7048  -19.0400 C   0  0  1  0  0  0  0  0  0  0  0  0
   26.9773  -18.8723  -18.7565 C   0  0  0  0  0  0  0  0  0  0  0  0
   27.8440  -19.2115  -19.9234 C   0  0  0  0  0  0  0  0  0  0  0  0
   29.2466  -19.4633  -19.5857 C   0  0  0  0  0  0  0  0  0  0  0  0
   29.5536  -20.4237  -18.8409 O   0  0  0  0  0  0  0  0  0  0  0  0
   24.6500  -18.5914  -17.8735 C   0  0  0  0  0  0  0  0  0  0  0  0
   24.7277  -17.5410  -17.1442 O   0  0  0  0  0  0  0  0  0  0  0  0
   30.2579  -18.6576  -20.0740 O   0  0  0  0  0  0  0  0  0  0  0  0
   19.9794  -14.2584  -18.9750 O   0  0  0  0  0  0  0  0  0  0  0  0
   20.3273  -15.4930  -18.4156 C   0  0  0  0  0  0  0  0  0  0  0  0
   20.2385  -15.6683  -17.0388 C   0  0  0  0  0  0  0  0  0  0  0  0
   20.5773  -16.8798  -16.4648 C   0  0  0  0  0  0  0  0  0  0  0  0
   21.0134  -17.9503  -17.2407 C   0  0  0  0  0  0  0  0  0  0  0  0
   21.3806  -19.2535  -16.6503 C   0  0  0  0  0  0  0  0  0  0  0  0
   22.8492  -19.3015  -16.2685 C   0  0  2  0  0  0  0  0  0  0  0  0
   23.6925  -19.5398  -17.4403 N   0  0  0  0  0  0  0  0  0  0  0  0
   23.1121  -20.3673  -15.2705 C   0  0  0  0  0  0  0  0  0  0  0  0
   23.3914  -21.5505  -15.6379 O   0  0  0  0  0  0  0  0  0  0  0  0
   21.0916  -17.7454  -18.6092 C   0  0  0  0  0  0  0  0  0  0  0  0
   20.7553  -16.5402  -19.1869 C   0  0  0  0  0  0  0  0  0  0  0  0
   26.2872  -21.7942  -10.4578 C   0  0  0  0  0  0  0  0  0  0  0  0
   25.0045  -21.9532  -11.1946 C   0  0  0  0  0  0  0  0  0  0  0  0
   24.7429  -20.8400  -12.1889 C   0  0  2  0  0  0  0  0  0  0  0  0
   24.6147  -19.5300  -11.4411 C   0  0  0  0  0  0  0  0  0  0  0  0
   23.4480  -21.1097  -12.8688 C   0  0  2  0  0  0  0  0  0  0  0  0
   23.0750  -20.1626  -13.8805 N   0  0  0  0  0  0  0  0  0  0  0  0
   22.2972  -21.2331  -11.9336 C   0  0  0  0  0  0  0  0  0  0  0  0
   22.2170  -22.1226  -11.0481 O   0  0  0  0  0  0  0  0  0  0  0  0
   21.2397  -20.3391  -12.0121 O   0  0  0  0  0  0  0  0  0  0  0  0
  2  3  1  0
  2  1  1  6
  3  4  1  0
  4  5  1  0
  5  6  2  0
  7  8  2  0
  7  2  1  0
  9  5  1  0
 10 11  1  0
 11 21  2  0
 12 13  2  0
 12 11  1  0
 13 14  1  0
 14 15  1  0
 14 20  2  0
 16 15  1  6
 16 17  1  0
 17  7  1  0
 18 16  1  0
 18 19  2  0
 21 20  1  0
 22 23  1  0
 23 24  1  0
 24 25  1  1
 24 26  1  0
 26 27  1  6
 27 18  1  0
 28 26  1  0
 29 28  2  0
 30 28  1  0
M  END
$$$$
