EYI.pdb
     RDKit          3D

 30 30  0  0  1  0  0  0  0  0999 V2000
   25.5826  -24.2634  -16.2830 N   0  0  0  0  0  0  0  0  0  0  0  0
   25.6711  -24.5593  -17.7364 C   0  0  1  0  0  0  0  0  0  0  0  0
   26.3935  -23.4113  -18.3545 C   0  0  0  0  0  0  0  0  0  0  0  0
   25.6889  -22.0957  -18.3296 C   0  0  0  0  0  0  0  0  0  0  0  0
   26.4069  -21.0352  -17.6194 C   0  0  0  0  0  0  0  0  0  0  0  0
   27.5572  -20.6974  -17.9857 O   0  0  0  0  0  0  0  0  0  0  0  0
   26.3099  -25.8674  -17.8693 C   0  0  0  0  0  0  0  0  0  0  0  0
   26.5666  -26.3125  -19.0428 O   0  0  0  0  0  0  0  0  0  0  0  0
   25.8416  -20.3858  -16.5382 O   0  0  0  0  0  0  0  0  0  0  0  0
   31.0507  -33.2413  -16.9576 O   0  0  0  0  0  0  0  0  0  0  0  0
   30.4181  -32.0129  -16.7361 C   0  0  0  0  0  0  0  0  0  0  0  0
   30.7302  -30.9277  -17.5480 C   0  0  0  0  0  0  0  0  0  0  0  0
   30.1171  -29.7048  -17.3470 C   0  0  0  0  0  0  0  0  0  0  0  0
   29.1779  -29.5248  -16.3353 C   0  0  0  0  0  0  0  0  0  0  0  0
   28.5100  -28.2282  -16.1016 C   0  0  0  0  0  0  0  0  0  0  0  0
   27.3620  -28.0070  -17.0702 C   0  0  2  0  0  0  0  0  0  0  0  0
   26.6935  -26.7307  -16.8149 N   0  0  0  0  0  0  0  0  0  0  0  0
   26.3584  -29.0955  -16.9742 C   0  0  0  0  0  0  0  0  0  0  0  0
   25.5606  -29.1621  -15.9883 O   0  0  0  0  0  0  0  0  0  0  0  0
   28.8876  -30.6241  -15.5428 C   0  0  0  0  0  0  0  0  0  0  0  0
   29.4954  -31.8455  -15.7384 C   0  0  0  0  0  0  0  0  0  0  0  0
   21.8702  -30.3650  -19.2345 C   0  0  0  0  0  0  0  0  0  0  0  0
   23.0184  -30.4735  -18.2947 C   0  0  0  0  0  0  0  0  0  0  0  0
   24.2095  -31.2005  -18.8855 C   0  0  2  0  0  0  0  0  0  0  0  0
   23.8187  -32.6340  -19.1756 C   0  0  0  0  0  0  0  0  0  0  0  0
   25.3005  -31.2171  -17.8750 C   0  0  2  0  0  0  0  0  0  0  0  0
   26.2122  -30.1105  -17.9353 N   0  0  0  0  0  0  0  0  0  0  0  0
   26.1151  -32.4621  -17.8964 C   0  0  0  0  0  0  0  0  0  0  0  0
   27.2159  -32.5589  -18.4969 O   0  0  0  0  0  0  0  0  0  0  0  0
   25.6701  -33.5947  -17.2310 O   0  0  0  0  0  0  0  0  0  0  0  0
  2  3  1  0
  2  1  1  1
  3  4  1  0
  4  5  1  0
  5  6  2  0
  7  8  2  0
  7  2  1  0
  9  5  1  0
 10 11  1  0
 11 21  2  0
 12 13  2  0
 12 11  1  0
 13 14  1  0
 14 15  1  0
 14 20  2  0
 16 15  1  1
 16 17  1  0
 17  7  1  0
 18 16  1  0
 18 19  2  0
 21 20  1  0
 22 23  1  0
 23 24  1  0
 24 25  1  1
 24 26  1  0
 26 27  1  6
 27 18  1  0
 28 26  1  0
 29 28  2  0
 30 28  1  0
M  END
$$$$
