DPK.pdb
     RDKit          3D

 25 25  0  0  1  0  0  0  0  0999 V2000
    8.7735  -17.0697   15.8465 N   0  0  0  0  0  0  0  0  0  0  0  0
    8.1028  -16.4619   16.9227 C   0  0  1  0  0  0  0  0  0  0  0  0
    7.1273  -17.4547   17.5219 C   0  0  0  0  0  0  0  0  0  0  0  0
    6.3896  -18.1951   16.4708 C   0  0  0  0  0  0  0  0  0  0  0  0
    5.7193  -17.5669   15.6174 O   0  0  0  0  0  0  0  0  0  0  0  0
    8.9106  -15.9168   18.0216 C   0  0  0  0  0  0  0  0  0  0  0  0
   10.1615  -16.1798   17.8906 O   0  0  0  0  0  0  0  0  0  0  0  0
    6.4221  -19.5756   16.4069 O   0  0  0  0  0  0  0  0  0  0  0  0
    8.4430  -15.1755   19.1350 N   0  0  0  0  0  0  0  0  0  0  0  0
    7.1358  -14.8128   19.5955 C   0  0  0  0  0  0  0  0  0  0  0  0
    7.2867  -13.3075   19.6983 C   0  0  0  0  0  0  0  0  0  0  0  0
    8.6553  -13.2615   20.3950 C   0  0  0  0  0  0  0  0  0  0  0  0
    9.3192  -14.5859   20.1183 C   0  0  1  0  0  0  0  0  0  0  0  0
    9.3983  -15.3474   21.3849 C   0  0  0  0  0  0  0  0  0  0  0  0
    8.2989  -15.8243   21.8047 O   0  0  0  0  0  0  0  0  0  0  0  0
   10.5438  -15.5853   22.1478 N   0  0  0  0  0  0  0  0  0  0  0  0
   10.5254  -16.5505   23.2654 C   0  0  1  0  0  0  0  0  0  0  0  0
   11.5379  -17.6402   23.0073 C   0  0  0  0  0  0  0  0  0  0  0  0
   11.3859  -18.3297   21.6870 C   0  0  0  0  0  0  0  0  0  0  0  0
   12.5248  -19.3192   21.5171 C   0  0  0  0  0  0  0  0  0  0  0  0
   12.5294  -20.0003   20.1835 C   0  0  0  0  0  0  0  0  0  0  0  0
   13.7589  -20.7811   20.0062 N   0  0  0  0  0  0  0  0  0  0  0  0
   10.6786  -15.8544   24.5358 C   0  0  0  0  0  0  0  0  0  0  0  0
   10.3773  -16.3905   25.7699 O   0  0  0  0  0  0  0  0  0  0  0  0
   11.1196  -14.6594   24.5500 O   0  0  0  0  0  0  0  0  0  0  0  0
  2  1  1  6
  2  3  1  0
  3  4  1  0
  4  8  1  0
  5  4  2  0
  6  2  1  0
  7  6  2  0
  9 13  1  0
  9  6  1  0
 10 11  1  0
 10  9  1  0
 11 12  1  0
 12 13  1  0
 13 14  1  1
 14 15  2  0
 16 14  1  0
 17 16  1  0
 17 23  1  0
 17 18  1  6
 19 18  1  0
 20 19  1  0
 20 21  1  0
 22 21  1  0
 23 25  2  0
 23 24  1  0
M  END
$$$$
