DPK.pdb
     RDKit          3D

 25 25  0  0  1  0  0  0  0  0999 V2000
    9.3684  -16.3621   15.6918 N   0  0  0  0  0  0  0  0  0  0  0  0
    8.5775  -16.3174   16.8537 C   0  0  1  0  0  0  0  0  0  0  0  0
    8.0665  -17.7111   17.1582 C   0  0  0  0  0  0  0  0  0  0  0  0
    7.2999  -17.7448   18.4264 C   0  0  0  0  0  0  0  0  0  0  0  0
    6.0520  -17.6243   18.4057 O   0  0  0  0  0  0  0  0  0  0  0  0
    9.1838  -15.7898   18.0829 C   0  0  0  0  0  0  0  0  0  0  0  0
   10.3859  -16.2088   18.2581 O   0  0  0  0  0  0  0  0  0  0  0  0
    7.9326  -17.9075   19.6446 O   0  0  0  0  0  0  0  0  0  0  0  0
    8.5818  -14.9152   19.0213 N   0  0  0  0  0  0  0  0  0  0  0  0
    7.2492  -14.4153   19.1847 C   0  0  0  0  0  0  0  0  0  0  0  0
    7.5138  -12.9223   19.1991 C   0  0  0  0  0  0  0  0  0  0  0  0
    8.7228  -12.9130   20.1471 C   0  0  0  0  0  0  0  0  0  0  0  0
    9.3043  -14.3030   20.1101 C   0  0  1  0  0  0  0  0  0  0  0  0
    9.0708  -14.9468   21.4222 C   0  0  0  0  0  0  0  0  0  0  0  0
    7.9338  -15.4932   21.5675 O   0  0  0  0  0  0  0  0  0  0  0  0
    9.9635  -15.0079   22.4946 N   0  0  0  0  0  0  0  0  0  0  0  0
   10.0891  -16.2330   23.3097 C   0  0  1  0  0  0  0  0  0  0  0  0
   10.4852  -17.3896   22.4239 C   0  0  0  0  0  0  0  0  0  0  0  0
   10.7013  -18.6818   23.1485 C   0  0  0  0  0  0  0  0  0  0  0  0
   11.1392  -19.7369   22.1485 C   0  0  0  0  0  0  0  0  0  0  0  0
   11.4165  -21.0704   22.7711 C   0  0  0  0  0  0  0  0  0  0  0  0
   12.0099  -21.9856   21.7897 N   0  0  0  0  0  0  0  0  0  0  0  0
   10.9703  -15.9955   24.4450 C   0  0  0  0  0  0  0  0  0  0  0  0
   12.0542  -15.1432   24.4370 O   0  0  0  0  0  0  0  0  0  0  0  0
   10.7580  -16.6022   25.5448 O   0  0  0  0  0  0  0  0  0  0  0  0
  2  1  1  6
  2  3  1  0
  3  4  1  0
  4  8  1  0
  5  4  2  0
  6  2  1  0
  7  6  2  0
  9 13  1  0
  9  6  1  0
 10 11  1  0
 10  9  1  0
 11 12  1  0
 12 13  1  0
 13 14  1  1
 14 15  2  0
 16 14  1  0
 17 16  1  0
 17 23  1  0
 17 18  1  6
 19 18  1  0
 20 19  1  0
 20 21  1  0
 22 21  1  0
 23 25  2  0
 23 24  1  0
M  END
$$$$
