DPK.pdb
     RDKit          3D

 25 25  0  0  1  0  0  0  0  0999 V2000
    9.3728  -15.5993   15.1181 N   0  0  0  0  0  0  0  0  0  0  0  0
    8.5907  -15.2403   16.2304 C   0  0  1  0  0  0  0  0  0  0  0  0
    7.6053  -16.3538   16.5224 C   0  0  0  0  0  0  0  0  0  0  0  0
    8.2925  -17.6539   16.7086 C   0  0  0  0  0  0  0  0  0  0  0  0
    9.5372  -17.7274   16.5771 O   0  0  0  0  0  0  0  0  0  0  0  0
    9.2812  -14.9195   17.4863 C   0  0  0  0  0  0  0  0  0  0  0  0
   10.5524  -15.0897   17.4067 O   0  0  0  0  0  0  0  0  0  0  0  0
    7.5881  -18.8000   17.0270 O   0  0  0  0  0  0  0  0  0  0  0  0
    8.6889  -14.4685   18.6919 N   0  0  0  0  0  0  0  0  0  0  0  0
    7.3315  -14.2817   19.1104 C   0  0  0  0  0  0  0  0  0  0  0  0
    7.3752  -12.8316   19.5515 C   0  0  0  0  0  0  0  0  0  0  0  0
    8.6855  -12.8752   20.3525 C   0  0  0  0  0  0  0  0  0  0  0  0
    9.4531  -14.0707   19.8494 C   0  0  1  0  0  0  0  0  0  0  0  0
    9.4932  -15.0904   20.9214 C   0  0  0  0  0  0  0  0  0  0  0  0
    8.4937  -15.8721   20.9689 O   0  0  0  0  0  0  0  0  0  0  0  0
   10.5048  -15.2701   21.8676 N   0  0  0  0  0  0  0  0  0  0  0  0
   10.5942  -16.5150   22.6570 C   0  0  1  0  0  0  0  0  0  0  0  0
   11.9965  -17.0675   22.5700 C   0  0  0  0  0  0  0  0  0  0  0  0
   12.2303  -18.3009   23.3860 C   0  0  0  0  0  0  0  0  0  0  0  0
   13.6813  -18.7211   23.2339 C   0  0  0  0  0  0  0  0  0  0  0  0
   14.0333  -19.9457   24.0207 C   0  0  0  0  0  0  0  0  0  0  0  0
   15.4510  -20.2817   23.8471 N   0  0  0  0  0  0  0  0  0  0  0  0
   10.1023  -16.2911   24.0097 C   0  0  0  0  0  0  0  0  0  0  0  0
    9.7564  -17.2875   24.8978 O   0  0  0  0  0  0  0  0  0  0  0  0
    9.9662  -15.1003   24.4414 O   0  0  0  0  0  0  0  0  0  0  0  0
  2  1  1  6
  2  3  1  0
  3  4  1  0
  4  8  1  0
  5  4  2  0
  6  2  1  0
  7  6  2  0
  9 13  1  0
  9  6  1  0
 10 11  1  0
 10  9  1  0
 11 12  1  0
 12 13  1  0
 13 14  1  1
 14 15  2  0
 16 14  1  0
 17 16  1  0
 17 23  1  0
 17 18  1  1
 19 18  1  0
 20 19  1  0
 20 21  1  0
 22 21  1  0
 23 25  2  0
 23 24  1  0
M  END
$$$$
