DPK.pdb
     RDKit          3D

 25 25  0  0  1  0  0  0  0  0999 V2000
    8.1996  -17.6185   16.7529 N   0  0  0  0  0  0  0  0  0  0  0  0
    7.6024  -16.7104   17.6453 C   0  0  1  0  0  0  0  0  0  0  0  0
    6.5623  -17.4400   18.4712 C   0  0  0  0  0  0  0  0  0  0  0  0
    7.1314  -18.6427   19.1244 C   0  0  0  0  0  0  0  0  0  0  0  0
    8.3247  -18.9637   18.9119 O   0  0  0  0  0  0  0  0  0  0  0  0
    8.4740  -15.9807   18.5754 C   0  0  0  0  0  0  0  0  0  0  0  0
    9.7078  -16.3226   18.4650 O   0  0  0  0  0  0  0  0  0  0  0  0
    6.3716  -19.4281   19.9710 O   0  0  0  0  0  0  0  0  0  0  0  0
    8.0803  -14.9981   19.5173 N   0  0  0  0  0  0  0  0  0  0  0  0
    6.8288  -14.3677   19.8151 C   0  0  0  0  0  0  0  0  0  0  0  0
    7.2169  -12.9076   19.6854 C   0  0  0  0  0  0  0  0  0  0  0  0
    8.5399  -12.9520   20.4652 C   0  0  0  0  0  0  0  0  0  0  0  0
    8.9926  -14.3895   20.4551 C   0  0  1  0  0  0  0  0  0  0  0  0
    8.8864  -14.9269   21.8301 C   0  0  0  0  0  0  0  0  0  0  0  0
    7.7714  -15.4589   22.1238 O   0  0  0  0  0  0  0  0  0  0  0  0
    9.8755  -14.9037   22.8160 N   0  0  0  0  0  0  0  0  0  0  0  0
   10.0343  -16.0286   23.7596 C   0  0  1  0  0  0  0  0  0  0  0  0
   10.2122  -17.3134   22.9870 C   0  0  0  0  0  0  0  0  0  0  0  0
   10.3107  -18.5416   23.8377 C   0  0  0  0  0  0  0  0  0  0  0  0
   10.4212  -19.7562   22.9334 C   0  0  0  0  0  0  0  0  0  0  0  0
   10.3955  -21.0567   23.6755 C   0  0  0  0  0  0  0  0  0  0  0  0
   10.6922  -22.1735   22.7714 N   0  0  0  0  0  0  0  0  0  0  0  0
   11.0888  -15.7357   24.7210 C   0  0  0  0  0  0  0  0  0  0  0  0
   12.1943  -14.9528   24.4643 O   0  0  0  0  0  0  0  0  0  0  0  0
   11.0218  -16.2214   25.8967 O   0  0  0  0  0  0  0  0  0  0  0  0
  2  1  1  1
  2  3  1  0
  3  4  1  0
  4  8  1  0
  5  4  2  0
  6  2  1  0
  7  6  2  0
  9 13  1  0
  9  6  1  0
 10 11  1  0
 10  9  1  0
 11 12  1  0
 12 13  1  0
 13 14  1  1
 14 15  2  0
 16 14  1  0
 17 16  1  0
 17 23  1  0
 17 18  1  6
 19 18  1  0
 20 19  1  0
 20 21  1  0
 22 21  1  0
 23 25  2  0
 23 24  1  0
M  END
$$$$
