DPK.pdb
     RDKit          3D

 25 25  0  0  1  0  0  0  0  0999 V2000
    8.7700  -17.2088   15.7922 N   0  0  0  0  0  0  0  0  0  0  0  0
    8.0894  -16.7401   16.9301 C   0  0  1  0  0  0  0  0  0  0  0  0
    7.3908  -17.9043   17.6032 C   0  0  0  0  0  0  0  0  0  0  0  0
    6.5847  -18.6877   16.6371 C   0  0  0  0  0  0  0  0  0  0  0  0
    5.3633  -18.4409   16.4971 O   0  0  0  0  0  0  0  0  0  0  0  0
    8.8655  -16.0351   17.9584 C   0  0  0  0  0  0  0  0  0  0  0  0
   10.1104  -16.3533   17.9403 O   0  0  0  0  0  0  0  0  0  0  0  0
    7.1513  -19.6947   15.8782 O   0  0  0  0  0  0  0  0  0  0  0  0
    8.3755  -15.0972   18.9007 N   0  0  0  0  0  0  0  0  0  0  0  0
    7.0778  -14.5464   19.1556 C   0  0  0  0  0  0  0  0  0  0  0  0
    7.3850  -13.0639   19.0707 C   0  0  0  0  0  0  0  0  0  0  0  0
    8.6741  -13.0489   19.9065 C   0  0  0  0  0  0  0  0  0  0  0  0
    9.2099  -14.4574   19.8889 C   0  0  1  0  0  0  0  0  0  0  0  0
    9.0771  -15.0294   21.2475 C   0  0  0  0  0  0  0  0  0  0  0  0
    7.9610  -15.5792   21.5016 O   0  0  0  0  0  0  0  0  0  0  0  0
   10.0425  -15.0210   22.2568 N   0  0  0  0  0  0  0  0  0  0  0  0
   10.4090  -16.2622   22.9681 C   0  0  1  0  0  0  0  0  0  0  0  0
   10.7886  -17.3248   21.9650 C   0  0  0  0  0  0  0  0  0  0  0  0
    9.8406  -18.4816   21.8962 C   0  0  0  0  0  0  0  0  0  0  0  0
   10.2884  -19.4166   20.7870 C   0  0  0  0  0  0  0  0  0  0  0  0
    9.4495  -20.6519   20.6731 C   0  0  0  0  0  0  0  0  0  0  0  0
    9.9057  -21.4850   19.5548 N   0  0  0  0  0  0  0  0  0  0  0  0
   11.4163  -15.9837   23.9828 C   0  0  0  0  0  0  0  0  0  0  0  0
   11.4245  -16.5191   25.2534 O   0  0  0  0  0  0  0  0  0  0  0  0
   12.3767  -15.1905   23.7158 O   0  0  0  0  0  0  0  0  0  0  0  0
  2  1  1  6
  2  3  1  0
  3  4  1  0
  4  8  1  0
  5  4  2  0
  6  2  1  0
  7  6  2  0
  9 13  1  0
  9  6  1  0
 10 11  1  0
 10  9  1  0
 11 12  1  0
 12 13  1  0
 13 14  1  1
 14 15  2  0
 16 14  1  0
 17 16  1  0
 17 23  1  0
 17 18  1  6
 19 18  1  0
 20 19  1  0
 20 21  1  0
 22 21  1  0
 23 25  2  0
 23 24  1  0
M  END
$$$$
