DPK.pdb
     RDKit          3D

 25 25  0  0  1  0  0  0  0  0999 V2000
    8.7534  -12.7180   18.2445 N   0  0  0  0  0  0  0  0  0  0  0  0
    9.3401  -13.7848   18.9484 C   0  0  1  0  0  0  0  0  0  0  0  0
   10.7145  -13.3645   19.4284 C   0  0  0  0  0  0  0  0  0  0  0  0
   11.7882  -13.9863   18.6174 C   0  0  0  0  0  0  0  0  0  0  0  0
   11.7952  -13.8399   17.3721 O   0  0  0  0  0  0  0  0  0  0  0  0
    8.6162  -14.3324   20.1030 C   0  0  0  0  0  0  0  0  0  0  0  0
    7.7756  -13.4964   20.5988 O   0  0  0  0  0  0  0  0  0  0  0  0
   12.7928  -14.7318   19.2055 O   0  0  0  0  0  0  0  0  0  0  0  0
    8.7675  -15.6228   20.6684 N   0  0  0  0  0  0  0  0  0  0  0  0
    9.6621  -16.7111   20.4083 C   0  0  0  0  0  0  0  0  0  0  0  0
    8.6705  -17.8324   20.1660 C   0  0  0  0  0  0  0  0  0  0  0  0
    7.7231  -17.5590   21.3442 C   0  0  0  0  0  0  0  0  0  0  0  0
    7.9382  -16.1205   21.7392 C   0  0  1  0  0  0  0  0  0  0  0  0
    8.5904  -16.0889   23.0675 C   0  0  0  0  0  0  0  0  0  0  0  0
    9.8303  -16.3629   23.0735 O   0  0  0  0  0  0  0  0  0  0  0  0
    7.9838  -15.7937   24.2904 N   0  0  0  0  0  0  0  0  0  0  0  0
    8.7930  -15.5685   25.5052 C   0  0  1  0  0  0  0  0  0  0  0  0
    8.0179  -14.7097   26.4752 C   0  0  0  0  0  0  0  0  0  0  0  0
    7.5217  -13.4183   25.9027 C   0  0  0  0  0  0  0  0  0  0  0  0
    6.6856  -12.7068   26.9514 C   0  0  0  0  0  0  0  0  0  0  0  0
    6.1120  -11.4076   26.4763 C   0  0  0  0  0  0  0  0  0  0  0  0
    4.9038  -11.0675   27.2360 N   0  0  0  0  0  0  0  0  0  0  0  0
    9.2600  -16.8392   26.0430 C   0  0  0  0  0  0  0  0  0  0  0  0
    8.8296  -18.0795   25.6216 O   0  0  0  0  0  0  0  0  0  0  0  0
   10.1294  -16.8476   26.9740 O   0  0  0  0  0  0  0  0  0  0  0  0
  2  1  1  1
  2  3  1  0
  3  4  1  0
  4  8  1  0
  5  4  2  0
  6  2  1  0
  7  6  2  0
  9 13  1  0
  9  6  1  0
 10 11  1  0
 10  9  1  0
 11 12  1  0
 12 13  1  0
 13 14  1  1
 14 15  2  0
 16 14  1  0
 17 16  1  0
 17 23  1  0
 17 18  1  1
 19 18  1  0
 20 19  1  0
 20 21  1  0
 22 21  1  0
 23 25  2  0
 23 24  1  0
M  END
$$$$
