DPK.pdb
     RDKit          3D

 25 25  0  0  1  0  0  0  0  0999 V2000
    8.9145  -17.2820   16.3496 N   0  0  0  0  0  0  0  0  0  0  0  0
    8.2028  -16.6970   17.4121 C   0  0  1  0  0  0  0  0  0  0  0  0
    7.3765  -17.7642   18.1010 C   0  0  0  0  0  0  0  0  0  0  0  0
    6.6282  -18.5892   17.1229 C   0  0  0  0  0  0  0  0  0  0  0  0
    5.9786  -18.0347   16.2049 O   0  0  0  0  0  0  0  0  0  0  0  0
    8.9657  -15.9900   18.4489 C   0  0  0  0  0  0  0  0  0  0  0  0
   10.2351  -16.1338   18.3104 O   0  0  0  0  0  0  0  0  0  0  0  0
    6.6284  -19.9696   17.1980 O   0  0  0  0  0  0  0  0  0  0  0  0
    8.4403  -15.2167   19.5137 N   0  0  0  0  0  0  0  0  0  0  0  0
    7.1080  -14.8954   19.9309 C   0  0  0  0  0  0  0  0  0  0  0  0
    7.1843  -13.3812   19.9582 C   0  0  0  0  0  0  0  0  0  0  0  0
    8.5345  -13.2328   20.6763 C   0  0  0  0  0  0  0  0  0  0  0  0
    9.2667  -14.5355   20.4807 C   0  0  1  0  0  0  0  0  0  0  0  0
    9.3561  -15.2267   21.7864 C   0  0  0  0  0  0  0  0  0  0  0  0
    8.2521  -15.6290   22.2678 O   0  0  0  0  0  0  0  0  0  0  0  0
   10.5157  -15.4723   22.5253 N   0  0  0  0  0  0  0  0  0  0  0  0
   10.5049  -16.4086   23.6672 C   0  0  1  0  0  0  0  0  0  0  0  0
   11.3382  -17.6221   23.3321 C   0  0  0  0  0  0  0  0  0  0  0  0
   11.0259  -18.2436   22.0062 C   0  0  0  0  0  0  0  0  0  0  0  0
   12.0315  -19.3481   21.7339 C   0  0  0  0  0  0  0  0  0  0  0  0
   11.8301  -20.0260   20.4139 C   0  0  0  0  0  0  0  0  0  0  0  0
   12.8406  -21.0701   20.2097 N   0  0  0  0  0  0  0  0  0  0  0  0
   10.8870  -15.7166   24.8908 C   0  0  0  0  0  0  0  0  0  0  0  0
   11.4410  -14.4551   24.9428 O   0  0  0  0  0  0  0  0  0  0  0  0
   10.7136  -16.2862   26.0169 O   0  0  0  0  0  0  0  0  0  0  0  0
  2  1  1  6
  2  3  1  0
  3  4  1  0
  4  8  1  0
  5  4  2  0
  6  2  1  0
  7  6  2  0
  9 13  1  0
  9  6  1  0
 10 11  1  0
 10  9  1  0
 11 12  1  0
 12 13  1  0
 13 14  1  1
 14 15  2  0
 16 14  1  0
 17 16  1  0
 17 23  1  0
 17 18  1  6
 19 18  1  0
 20 19  1  0
 20 21  1  0
 22 21  1  0
 23 25  2  0
 23 24  1  0
M  END
$$$$
