DPK.pdb
     RDKit          3D

 25 25  0  0  1  0  0  0  0  0999 V2000
    8.3514  -12.9628   17.0135 N   0  0  0  0  0  0  0  0  0  0  0  0
    8.1981  -14.2221   17.6203 C   0  0  1  0  0  0  0  0  0  0  0  0
    9.0040  -15.2457   16.8463 C   0  0  0  0  0  0  0  0  0  0  0  0
    8.6989  -15.1956   15.3966 C   0  0  0  0  0  0  0  0  0  0  0  0
    7.5784  -15.5743   14.9804 O   0  0  0  0  0  0  0  0  0  0  0  0
    8.5587  -14.3548   19.0379 C   0  0  0  0  0  0  0  0  0  0  0  0
    9.5908  -13.6563   19.3509 O   0  0  0  0  0  0  0  0  0  0  0  0
    9.6283  -14.7370   14.4820 O   0  0  0  0  0  0  0  0  0  0  0  0
    7.8979  -15.1410   20.0141 N   0  0  0  0  0  0  0  0  0  0  0  0
    6.8116  -16.0732   19.9547 C   0  0  0  0  0  0  0  0  0  0  0  0
    5.8790  -15.4774   20.9913 C   0  0  0  0  0  0  0  0  0  0  0  0
    6.9119  -15.1940   22.0929 C   0  0  0  0  0  0  0  0  0  0  0  0
    8.2551  -15.1329   21.4121 C   0  0  1  0  0  0  0  0  0  0  0  0
    9.0517  -16.3065   21.8346 C   0  0  0  0  0  0  0  0  0  0  0  0
    8.9842  -17.3167   21.0682 O   0  0  0  0  0  0  0  0  0  0  0  0
    9.8533  -16.4072   22.9740 N   0  0  0  0  0  0  0  0  0  0  0  0
   10.7621  -17.5556   23.1645 C   0  0  1  0  0  0  0  0  0  0  0  0
   11.6341  -17.3133   24.3729 C   0  0  0  0  0  0  0  0  0  0  0  0
   11.1792  -18.0104   25.6174 C   0  0  0  0  0  0  0  0  0  0  0  0
   12.2295  -17.8202   26.6972 C   0  0  0  0  0  0  0  0  0  0  0  0
   11.9742  -18.6345   27.9278 C   0  0  0  0  0  0  0  0  0  0  0  0
   13.0815  -18.4932   28.8799 N   0  0  0  0  0  0  0  0  0  0  0  0
   10.0047  -18.7996   23.1897 C   0  0  0  0  0  0  0  0  0  0  0  0
   10.5357  -20.0507   22.9571 O   0  0  0  0  0  0  0  0  0  0  0  0
    8.7561  -18.7719   23.4403 O   0  0  0  0  0  0  0  0  0  0  0  0
  2  1  1  6
  2  3  1  0
  3  4  1  0
  4  8  1  0
  5  4  2  0
  6  2  1  0
  7  6  2  0
  9 13  1  0
  9  6  1  0
 10 11  1  0
 10  9  1  0
 11 12  1  0
 12 13  1  0
 13 14  1  6
 14 15  2  0
 16 14  1  0
 17 16  1  0
 17 23  1  0
 17 18  1  1
 19 18  1  0
 20 19  1  0
 20 21  1  0
 22 21  1  0
 23 25  2  0
 23 24  1  0
M  END
$$$$
