DPK.pdb
     RDKit          3D

 25 25  0  0  1  0  0  0  0  0999 V2000
    8.1622  -15.0513   21.1671 N   0  0  0  0  0  0  0  0  0  0  0  0
    7.5571  -15.0115   22.4359 C   0  0  1  0  0  0  0  0  0  0  0  0
    6.9712  -16.3738   22.7476 C   0  0  0  0  0  0  0  0  0  0  0  0
    6.0541  -16.8300   21.6762 C   0  0  0  0  0  0  0  0  0  0  0  0
    5.0562  -16.1354   21.3700 O   0  0  0  0  0  0  0  0  0  0  0  0
    8.3822  -14.6114   23.5831 C   0  0  0  0  0  0  0  0  0  0  0  0
    9.6407  -14.6962   23.3379 O   0  0  0  0  0  0  0  0  0  0  0  0
    6.2734  -18.0149   20.9988 O   0  0  0  0  0  0  0  0  0  0  0  0
    7.9231  -14.1707   24.8491 N   0  0  0  0  0  0  0  0  0  0  0  0
    6.6211  -14.0464   25.4338 C   0  0  0  0  0  0  0  0  0  0  0  0
    6.6431  -12.5886   25.8505 C   0  0  0  0  0  0  0  0  0  0  0  0
    8.0442  -12.5514   26.4799 C   0  0  0  0  0  0  0  0  0  0  0  0
    8.8046  -13.7145   25.8964 C   0  0  1  0  0  0  0  0  0  0  0  0
    9.0330  -14.7123   26.9655 C   0  0  0  0  0  0  0  0  0  0  0  0
    8.0107  -15.3774   27.3189 O   0  0  0  0  0  0  0  0  0  0  0  0
   10.2413  -14.9855   27.6105 N   0  0  0  0  0  0  0  0  0  0  0  0
   10.3979  -16.1882   28.4531 C   0  0  1  0  0  0  0  0  0  0  0  0
   11.5974  -16.9776   27.9871 C   0  0  0  0  0  0  0  0  0  0  0  0
   11.8418  -18.2438   28.7478 C   0  0  0  0  0  0  0  0  0  0  0  0
   13.1187  -18.8850   28.2343 C   0  0  0  0  0  0  0  0  0  0  0  0
   13.3774  -20.2432   28.8096 C   0  0  0  0  0  0  0  0  0  0  0  0
   14.5267  -20.8733   28.1504 N   0  0  0  0  0  0  0  0  0  0  0  0
   10.4119  -15.8188   29.8621 C   0  0  0  0  0  0  0  0  0  0  0  0
   10.2680  -16.7030   30.9103 O   0  0  0  0  0  0  0  0  0  0  0  0
   10.5648  -14.5979   30.1917 O   0  0  0  0  0  0  0  0  0  0  0  0
  2  1  1  6
  2  3  1  0
  3  4  1  0
  4  8  1  0
  5  4  2  0
  6  2  1  0
  7  6  2  0
  9 13  1  0
  9  6  1  0
 10 11  1  0
 10  9  1  0
 11 12  1  0
 12 13  1  0
 13 14  1  1
 14 15  2  0
 16 14  1  0
 17 16  1  0
 17 23  1  0
 17 18  1  6
 19 18  1  0
 20 19  1  0
 20 21  1  0
 22 21  1  0
 23 25  2  0
 23 24  1  0
M  END
$$$$
