DPK.pdb
     RDKit          3D

 25 25  0  0  1  0  0  0  0  0999 V2000
    9.1736  -17.1462   16.1590 N   0  0  0  0  0  0  0  0  0  0  0  0
    8.3601  -16.4965   17.1043 C   0  0  1  0  0  0  0  0  0  0  0  0
    7.3442  -17.4828   17.6440 C   0  0  0  0  0  0  0  0  0  0  0  0
    6.7544  -18.3046   16.5605 C   0  0  0  0  0  0  0  0  0  0  0  0
    6.3925  -17.7610   15.4901 O   0  0  0  0  0  0  0  0  0  0  0  0
    9.0121  -15.8582   18.2552 C   0  0  0  0  0  0  0  0  0  0  0  0
   10.2587  -16.1576   18.3434 O   0  0  0  0  0  0  0  0  0  0  0  0
    6.5915  -19.6700   16.7016 O   0  0  0  0  0  0  0  0  0  0  0  0
    8.4088  -14.9984   19.2062 N   0  0  0  0  0  0  0  0  0  0  0  0
    7.0670  -14.5359   19.4013 C   0  0  0  0  0  0  0  0  0  0  0  0
    7.2894  -13.0360   19.4059 C   0  0  0  0  0  0  0  0  0  0  0  0
    8.5205  -12.9898   20.3239 C   0  0  0  0  0  0  0  0  0  0  0  0
    9.1400  -14.3629   20.2756 C   0  0  1  0  0  0  0  0  0  0  0  0
    8.9572  -15.0093   21.5944 C   0  0  0  0  0  0  0  0  0  0  0  0
    7.8066  -15.5034   21.8054 O   0  0  0  0  0  0  0  0  0  0  0  0
    9.9101  -15.1241   22.6091 N   0  0  0  0  0  0  0  0  0  0  0  0
   10.1691  -16.4217   23.2650 C   0  0  1  0  0  0  0  0  0  0  0  0
   11.2762  -17.1434   22.5352 C   0  0  0  0  0  0  0  0  0  0  0  0
   11.7110  -18.4247   23.1763 C   0  0  0  0  0  0  0  0  0  0  0  0
   12.8677  -19.0027   22.3806 C   0  0  0  0  0  0  0  0  0  0  0  0
   13.4027  -20.2809   22.9485 C   0  0  0  0  0  0  0  0  0  0  0  0
   14.5743  -20.7331   22.1898 N   0  0  0  0  0  0  0  0  0  0  0  0
   10.3930  -16.2301   24.6915 C   0  0  0  0  0  0  0  0  0  0  0  0
   10.1123  -17.1643   25.6660 O   0  0  0  0  0  0  0  0  0  0  0  0
   10.8819  -15.1309   25.1103 O   0  0  0  0  0  0  0  0  0  0  0  0
  2  1  1  1
  2  3  1  0
  3  4  1  0
  4  8  1  0
  5  4  2  0
  6  2  1  0
  7  6  2  0
  9 13  1  0
  9  6  1  0
 10 11  1  0
 10  9  1  0
 11 12  1  0
 12 13  1  0
 13 14  1  1
 14 15  2  0
 16 14  1  0
 17 16  1  0
 17 23  1  0
 17 18  1  6
 19 18  1  0
 20 19  1  0
 20 21  1  0
 22 21  1  0
 23 25  2  0
 23 24  1  0
M  END
$$$$
