MSK.pdb
     RDKit          3D

 24 23  0  0  1  0  0  0  0  0999 V2000
   21.4039   -8.6041  -21.4212 C   0  0  0  0  0  0  0  0  0  0  0  0
   21.7799  -10.1803  -20.6332 S   0  0  0  0  0  0  0  0  0  0  0  0
   22.4452   -9.9424  -18.9599 C   0  0  0  0  0  0  0  0  0  0  0  0
   21.5633   -9.0261  -18.1436 C   0  0  0  0  0  0  0  0  0  0  0  0
   22.1075   -8.7256  -16.7954 C   0  0  2  0  0  0  0  0  0  0  0  0
   22.3681   -9.9370  -16.0573 N   0  0  0  0  0  0  0  0  0  0  0  0
   21.2855   -7.7870  -16.0083 C   0  0  0  0  0  0  0  0  0  0  0  0
   20.1992   -8.2015  -15.5451 O   0  0  0  0  0  0  0  0  0  0  0  0
   22.8287   -4.6550  -14.0883 O   0  0  0  0  0  0  0  0  0  0  0  0
   21.5108   -5.0583  -13.7710 C   0  0  0  0  0  0  0  0  0  0  0  0
   20.8286   -5.4870  -15.0526 C   0  0  2  0  0  0  0  0  0  0  0  0
   21.6591   -6.4426  -15.7484 N   0  0  0  0  0  0  0  0  0  0  0  0
   20.5789   -4.2706  -15.8646 C   0  0  0  0  0  0  0  0  0  0  0  0
   21.4157   -3.7394  -16.6086 O   0  0  0  0  0  0  0  0  0  0  0  0
   19.2896   -3.6757  -15.7813 N   0  0  0  0  0  0  0  0  0  0  0  0
   18.9254   -2.4590  -16.4292 C   0  0  1  0  0  0  0  0  0  0  0  0
   17.4080   -2.3522  -16.6634 C   0  0  0  0  0  0  0  0  0  0  0  0
   16.9440   -3.4455  -17.5678 C   0  0  0  0  0  0  0  0  0  0  0  0
   15.4932   -3.5310  -17.8502 C   0  0  0  0  0  0  0  0  0  0  0  0
   15.0826   -4.6650  -18.7352 C   0  0  0  0  0  0  0  0  0  0  0  0
   13.6651   -4.7883  -18.7989 N   0  0  0  0  0  0  0  0  0  0  0  0
   19.4669   -1.2306  -15.8165 C   0  0  0  0  0  0  0  0  0  0  0  0
   19.8281   -0.0884  -16.5159 O   0  0  0  0  0  0  0  0  0  0  0  0
   19.6149   -1.2078  -14.5706 O   0  0  0  0  0  0  0  0  0  0  0  0
  1  2  1  0
  3  2  1  0
  4  3  1  0
  5  4  1  0
  5  6  1  1
  7  8  2  0
  7  5  1  0
  9 10  1  0
 11 10  1  1
 11 12  1  0
 12  7  1  0
 13 11  1  0
 14 13  2  0
 15 13  1  0
 16 15  1  0
 16 17  1  1
 17 18  1  0
 18 19  1  0
 19 20  1  0
 20 21  1  0
 22 16  1  0
 22 23  1  0
 24 22  2  0
M  END
$$$$
