MSK.pdb
     RDKit          3D

 24 23  0  0  1  0  0  0  0  0999 V2000
   30.2354  -19.5656  -19.1645 C   0  0  0  0  0  0  0  0  0  0  0  0
   30.0559  -18.1607  -18.0506 S   0  0  0  0  0  0  0  0  0  0  0  0
   28.3731  -17.4798  -18.1087 C   0  0  0  0  0  0  0  0  0  0  0  0
   27.3522  -18.5002  -17.6610 C   0  0  0  0  0  0  0  0  0  0  0  0
   27.0916  -18.4763  -16.1997 C   0  0  2  0  0  0  0  0  0  0  0  0
   28.3029  -18.7059  -15.4511 N   0  0  0  0  0  0  0  0  0  0  0  0
   26.0143  -19.3850  -15.7639 C   0  0  0  0  0  0  0  0  0  0  0  0
   25.0121  -19.5074  -16.5035 O   0  0  0  0  0  0  0  0  0  0  0  0
   25.8071  -20.8088  -11.8812 O   0  0  0  0  0  0  0  0  0  0  0  0
   25.4517  -21.7548  -12.8705 C   0  0  0  0  0  0  0  0  0  0  0  0
   24.9955  -21.0001  -14.1009 C   0  0  2  0  0  0  0  0  0  0  0  0
   26.0529  -20.1264  -14.5541 N   0  0  0  0  0  0  0  0  0  0  0  0
   23.7665  -20.2491  -13.7449 C   0  0  0  0  0  0  0  0  0  0  0  0
   23.7260  -19.0284  -13.5346 O   0  0  0  0  0  0  0  0  0  0  0  0
   22.5529  -20.9834  -13.6387 N   0  0  0  0  0  0  0  0  0  0  0  0
   21.2542  -20.4010  -13.7228 C   0  0  1  0  0  0  0  0  0  0  0  0
   21.1015  -19.4865  -14.9513 C   0  0  0  0  0  0  0  0  0  0  0  0
   19.7635  -18.8245  -14.9427 C   0  0  0  0  0  0  0  0  0  0  0  0
   19.4195  -17.9608  -16.0948 C   0  0  0  0  0  0  0  0  0  0  0  0
   18.1340  -17.2071  -15.9642 C   0  0  0  0  0  0  0  0  0  0  0  0
   17.9513  -16.2985  -17.0457 N   0  0  0  0  0  0  0  0  0  0  0  0
   20.1286  -21.3485  -13.6092 C   0  0  0  0  0  0  0  0  0  0  0  0
   18.9165  -21.0697  -12.9948 O   0  0  0  0  0  0  0  0  0  0  0  0
   20.2687  -22.4938  -14.1024 O   0  0  0  0  0  0  0  0  0  0  0  0
  1  2  1  0
  3  2  1  0
  4  3  1  0
  5  4  1  0
  5  6  1  1
  7  8  2  0
  7  5  1  0
  9 10  1  0
 11 10  1  1
 11 12  1  0
 12  7  1  0
 13 11  1  0
 14 13  2  0
 15 13  1  0
 16 15  1  0
 16 17  1  6
 17 18  1  0
 18 19  1  0
 19 20  1  0
 20 21  1  0
 22 16  1  0
 22 23  1  0
 24 22  2  0
M  END
$$$$
