MSK.pdb
     RDKit          3D

 24 23  0  0  1  0  0  0  0  0999 V2000
   24.8172  -14.4730  -14.3502 C   0  0  0  0  0  0  0  0  0  0  0  0
   24.2143  -15.2040  -15.8828 S   0  0  0  0  0  0  0  0  0  0  0  0
   23.2671  -14.0028  -16.8621 C   0  0  0  0  0  0  0  0  0  0  0  0
   22.5123  -13.0424  -15.9722 C   0  0  0  0  0  0  0  0  0  0  0  0
   21.7594  -12.0061  -16.7225 C   0  0  2  0  0  0  0  0  0  0  0  0
   22.5581  -11.4511  -17.7876 N   0  0  0  0  0  0  0  0  0  0  0  0
   21.1876  -10.9430  -15.8744 C   0  0  0  0  0  0  0  0  0  0  0  0
   20.3687  -11.2739  -14.9876 O   0  0  0  0  0  0  0  0  0  0  0  0
   22.2169   -6.9792  -16.4904 O   0  0  0  0  0  0  0  0  0  0  0  0
   21.8883   -7.3347  -15.1616 C   0  0  0  0  0  0  0  0  0  0  0  0
   20.9380   -8.5120  -15.2109 C   0  0  2  0  0  0  0  0  0  0  0  0
   21.5152   -9.5685  -16.0094 N   0  0  0  0  0  0  0  0  0  0  0  0
   19.6488   -8.0337  -15.7679 C   0  0  0  0  0  0  0  0  0  0  0  0
   19.2948   -8.1826  -16.9462 O   0  0  0  0  0  0  0  0  0  0  0  0
   18.7600   -7.3583  -14.8863 N   0  0  0  0  0  0  0  0  0  0  0  0
   17.5029   -6.8123  -15.2794 C   0  0  1  0  0  0  0  0  0  0  0  0
   16.3206   -7.4942  -14.5682 C   0  0  0  0  0  0  0  0  0  0  0  0
   15.0281   -6.9087  -15.0321 C   0  0  0  0  0  0  0  0  0  0  0  0
   13.7842   -7.4162  -14.4099 C   0  0  0  0  0  0  0  0  0  0  0  0
   12.5153   -6.9357  -15.0398 C   0  0  0  0  0  0  0  0  0  0  0  0
   11.3718   -7.4657  -14.3762 N   0  0  0  0  0  0  0  0  0  0  0  0
   17.4031   -5.3417  -15.2080 C   0  0  0  0  0  0  0  0  0  0  0  0
   16.7142   -4.5488  -16.1141 O   0  0  0  0  0  0  0  0  0  0  0  0
   17.9808   -4.7559  -14.2605 O   0  0  0  0  0  0  0  0  0  0  0  0
  1  2  1  0
  3  2  1  0
  4  3  1  0
  5  4  1  0
  5  6  1  6
  7  8  2  0
  7  5  1  0
  9 10  1  0
 11 10  1  6
 11 12  1  0
 12  7  1  0
 13 11  1  0
 14 13  2  0
 15 13  1  0
 16 15  1  0
 16 17  1  1
 17 18  1  0
 18 19  1  0
 19 20  1  0
 20 21  1  0
 22 16  1  0
 22 23  1  0
 24 22  2  0
M  END
$$$$
