MSK.pdb
     RDKit          3D

 24 23  0  0  1  0  0  0  0  0999 V2000
   26.8644  -17.2567  -17.8271 C   0  0  0  0  0  0  0  0  0  0  0  0
   27.9747  -16.9191  -16.4488 S   0  0  0  0  0  0  0  0  0  0  0  0
   28.5667  -18.4560  -15.6830 C   0  0  0  0  0  0  0  0  0  0  0  0
   27.4205  -19.2697  -15.1279 C   0  0  0  0  0  0  0  0  0  0  0  0
   27.8469  -20.5523  -14.5138 C   0  0  2  0  0  0  0  0  0  0  0  0
   28.5442  -21.3797  -15.4674 N   0  0  0  0  0  0  0  0  0  0  0  0
   26.7571  -21.2981  -13.8561 C   0  0  0  0  0  0  0  0  0  0  0  0
   26.2274  -22.2424  -14.4838 O   0  0  0  0  0  0  0  0  0  0  0  0
   25.4162  -20.0878  -10.1667 O   0  0  0  0  0  0  0  0  0  0  0  0
   25.1619  -21.4489  -10.4544 C   0  0  0  0  0  0  0  0  0  0  0  0
   25.1095  -21.6101  -11.9587 C   0  0  2  0  0  0  0  0  0  0  0  0
   26.2780  -21.0032  -12.5529 N   0  0  0  0  0  0  0  0  0  0  0  0
   23.8522  -20.9864  -12.4400 C   0  0  0  0  0  0  0  0  0  0  0  0
   23.6487  -19.7649  -12.4893 O   0  0  0  0  0  0  0  0  0  0  0  0
   22.8109  -21.8526  -12.8742 N   0  0  0  0  0  0  0  0  0  0  0  0
   21.5860  -21.4062  -13.4513 C   0  0  1  0  0  0  0  0  0  0  0  0
   21.0633  -22.3690  -14.5323 C   0  0  0  0  0  0  0  0  0  0  0  0
   22.0953  -22.5691  -15.5922 C   0  0  0  0  0  0  0  0  0  0  0  0
   22.9251  -23.7929  -15.5174 C   0  0  0  0  0  0  0  0  0  0  0  0
   23.8894  -23.9782  -16.6460 C   0  0  0  0  0  0  0  0  0  0  0  0
   24.6285  -25.1877  -16.5055 N   0  0  0  0  0  0  0  0  0  0  0  0
   20.5276  -21.0475  -12.4875 C   0  0  0  0  0  0  0  0  0  0  0  0
   19.3785  -20.3361  -12.8001 O   0  0  0  0  0  0  0  0  0  0  0  0
   20.6684  -21.4089  -11.2941 O   0  0  0  0  0  0  0  0  0  0  0  0
  1  2  1  0
  3  2  1  0
  4  3  1  0
  5  4  1  0
  5  6  1  6
  7  8  2  0
  7  5  1  0
  9 10  1  0
 11 10  1  1
 11 12  1  0
 12  7  1  0
 13 11  1  0
 14 13  2  0
 15 13  1  0
 16 15  1  0
 16 17  1  6
 17 18  1  0
 18 19  1  0
 19 20  1  0
 20 21  1  0
 22 16  1  0
 22 23  1  0
 24 22  2  0
M  END
$$$$
