MSK.pdb
     RDKit          3D

 24 23  0  0  1  0  0  0  0  0999 V2000
   27.6981  -28.0581  -16.4262 C   0  0  0  0  0  0  0  0  0  0  0  0
   26.4172  -26.7972  -16.2999 S   0  0  0  0  0  0  0  0  0  0  0  0
   26.7679  -25.3852  -17.3873 C   0  0  0  0  0  0  0  0  0  0  0  0
   28.1685  -25.4602  -17.9500 C   0  0  0  0  0  0  0  0  0  0  0  0
   29.1476  -24.6185  -17.2173 C   0  0  2  0  0  0  0  0  0  0  0  0
   28.8833  -23.2153  -17.4213 N   0  0  0  0  0  0  0  0  0  0  0  0
   30.5574  -24.9436  -17.5051 C   0  0  0  0  0  0  0  0  0  0  0  0
   30.9443  -24.8853  -18.6940 O   0  0  0  0  0  0  0  0  0  0  0  0
   32.9800  -26.1777  -14.4401 O   0  0  0  0  0  0  0  0  0  0  0  0
   33.6902  -25.7356  -15.5803 C   0  0  0  0  0  0  0  0  0  0  0  0
   32.7905  -25.8975  -16.7869 C   0  0  2  0  0  0  0  0  0  0  0  0
   31.4967  -25.3180  -16.5090 N   0  0  0  0  0  0  0  0  0  0  0  0
   32.6975  -27.3459  -17.0947 C   0  0  0  0  0  0  0  0  0  0  0  0
   31.7840  -28.0885  -16.7076 O   0  0  0  0  0  0  0  0  0  0  0  0
   33.7293  -27.9184  -17.8891 N   0  0  0  0  0  0  0  0  0  0  0  0
   33.7188  -29.2608  -18.3697 C   0  0  1  0  0  0  0  0  0  0  0  0
   32.3730  -29.6419  -19.0119 C   0  0  0  0  0  0  0  0  0  0  0  0
   32.4187  -31.0451  -19.5192 C   0  0  0  0  0  0  0  0  0  0  0  0
   31.2156  -31.5632  -20.2090 C   0  0  0  0  0  0  0  0  0  0  0  0
   31.2864  -32.9998  -20.6200 C   0  0  0  0  0  0  0  0  0  0  0  0
   30.0745  -33.4252  -21.2356 N   0  0  0  0  0  0  0  0  0  0  0  0
   34.8559  -29.6309  -19.2343 C   0  0  0  0  0  0  0  0  0  0  0  0
   35.3889  -28.8266  -20.2310 O   0  0  0  0  0  0  0  0  0  0  0  0
   35.3873  -30.7546  -19.0623 O   0  0  0  0  0  0  0  0  0  0  0  0
  1  2  1  0
  3  2  1  0
  4  3  1  0
  5  4  1  0
  5  6  1  6
  7  8  2  0
  7  5  1  0
  9 10  1  0
 11 10  1  1
 11 12  1  0
 12  7  1  0
 13 11  1  0
 14 13  2  0
 15 13  1  0
 16 15  1  0
 16 17  1  6
 17 18  1  0
 18 19  1  0
 19 20  1  0
 20 21  1  0
 22 16  1  0
 22 23  1  0
 24 22  2  0
M  END
$$$$
