MSK.pdb
     RDKit          3D

 24 23  0  0  1  0  0  0  0  0999 V2000
   25.8188  -31.2058  -17.3995 C   0  0  0  0  0  0  0  0  0  0  0  0
   27.5694  -30.8933  -17.1093 S   0  0  0  0  0  0  0  0  0  0  0  0
   27.9617  -29.1266  -17.2643 C   0  0  0  0  0  0  0  0  0  0  0  0
   27.0055  -28.2791  -16.4572 C   0  0  0  0  0  0  0  0  0  0  0  0
   27.0590  -26.8356  -16.7996 C   0  0  2  0  0  0  0  0  0  0  0  0
   28.3964  -26.3154  -16.6547 N   0  0  0  0  0  0  0  0  0  0  0  0
   26.0815  -26.0057  -16.0701 C   0  0  0  0  0  0  0  0  0  0  0  0
   26.4646  -25.4195  -15.0328 O   0  0  0  0  0  0  0  0  0  0  0  0
   23.0057  -24.4253  -17.9625 O   0  0  0  0  0  0  0  0  0  0  0  0
   23.3385  -23.8736  -16.7036 C   0  0  0  0  0  0  0  0  0  0  0  0
   23.7723  -25.0037  -15.7946 C   0  0  2  0  0  0  0  0  0  0  0  0
   24.7332  -25.8365  -16.4801 N   0  0  0  0  0  0  0  0  0  0  0  0
   22.5596  -25.7617  -15.3997 C   0  0  0  0  0  0  0  0  0  0  0  0
   22.2135  -26.8419  -15.8989 O   0  0  0  0  0  0  0  0  0  0  0  0
   21.7400  -25.2080  -14.3774 N   0  0  0  0  0  0  0  0  0  0  0  0
   20.5031  -25.7728  -13.9485 C   0  0  1  0  0  0  0  0  0  0  0  0
   20.4392  -25.9500  -12.4210 C   0  0  0  0  0  0  0  0  0  0  0  0
   19.2196  -26.7212  -12.0384 C   0  0  0  0  0  0  0  0  0  0  0  0
   19.0474  -27.0648  -10.6086 C   0  0  0  0  0  0  0  0  0  0  0  0
   17.8907  -27.9633  -10.3045 C   0  0  0  0  0  0  0  0  0  0  0  0
   17.7431  -28.1650   -8.9023 N   0  0  0  0  0  0  0  0  0  0  0  0
   19.2919  -25.1091  -14.4682 C   0  0  0  0  0  0  0  0  0  0  0  0
   18.1122  -25.7591  -14.8002 O   0  0  0  0  0  0  0  0  0  0  0  0
   19.3214  -23.8644  -14.6245 O   0  0  0  0  0  0  0  0  0  0  0  0
  1  2  1  0
  3  2  1  0
  4  3  1  0
  5  4  1  0
  5  6  1  1
  7  8  2  0
  7  5  1  0
  9 10  1  0
 11 10  1  6
 11 12  1  0
 12  7  1  0
 13 11  1  0
 14 13  2  0
 15 13  1  0
 16 15  1  0
 16 17  1  1
 17 18  1  0
 18 19  1  0
 19 20  1  0
 20 21  1  0
 22 16  1  0
 22 23  1  0
 24 22  2  0
M  END
$$$$
