MSK.pdb
     RDKit          3D

 24 23  0  0  1  0  0  0  0  0999 V2000
   28.8007  -18.4699   -5.7328 C   0  0  0  0  0  0  0  0  0  0  0  0
   27.1108  -18.9537   -6.1289 S   0  0  0  0  0  0  0  0  0  0  0  0
   27.0762  -20.3451   -7.2959 C   0  0  0  0  0  0  0  0  0  0  0  0
   26.8488  -19.8684   -8.7119 C   0  0  0  0  0  0  0  0  0  0  0  0
   26.8160  -20.9675   -9.7093 C   0  0  2  0  0  0  0  0  0  0  0  0
   28.0795  -21.6612   -9.7614 N   0  0  0  0  0  0  0  0  0  0  0  0
   26.3812  -20.5482  -11.0552 C   0  0  0  0  0  0  0  0  0  0  0  0
   27.0246  -19.6384  -11.6250 O   0  0  0  0  0  0  0  0  0  0  0  0
   25.2882  -22.9942  -13.3420 O   0  0  0  0  0  0  0  0  0  0  0  0
   25.0443  -21.7934  -14.0482 C   0  0  0  0  0  0  0  0  0  0  0  0
   24.8110  -20.6917  -13.0367 C   0  0  2  0  0  0  0  0  0  0  0  0
   25.2753  -21.1195  -11.7373 N   0  0  0  0  0  0  0  0  0  0  0  0
   23.3615  -20.3754  -13.0339 C   0  0  0  0  0  0  0  0  0  0  0  0
   22.5531  -20.7949  -12.1935 O   0  0  0  0  0  0  0  0  0  0  0  0
   22.8689  -19.5322  -14.0682 N   0  0  0  0  0  0  0  0  0  0  0  0
   21.4863  -19.2715  -14.2989 C   0  0  1  0  0  0  0  0  0  0  0  0
   21.2641  -18.2447  -15.4236 C   0  0  0  0  0  0  0  0  0  0  0  0
   19.8301  -17.8332  -15.4751 C   0  0  0  0  0  0  0  0  0  0  0  0
   19.1540  -17.8700  -16.7917 C   0  0  0  0  0  0  0  0  0  0  0  0
   17.7488  -17.3572  -16.8005 C   0  0  0  0  0  0  0  0  0  0  0  0
   17.2092  -17.3408  -18.1186 N   0  0  0  0  0  0  0  0  0  0  0  0
   20.6401  -20.4667  -14.4812 C   0  0  0  0  0  0  0  0  0  0  0  0
   20.9392  -21.5292  -15.3214 O   0  0  0  0  0  0  0  0  0  0  0  0
   19.5686  -20.5363  -13.8319 O   0  0  0  0  0  0  0  0  0  0  0  0
  1  2  1  0
  3  2  1  0
  4  3  1  0
  5  4  1  0
  5  6  1  6
  7  8  2  0
  7  5  1  0
  9 10  1  0
 11 10  1  6
 11 12  1  0
 12  7  1  0
 13 11  1  0
 14 13  2  0
 15 13  1  0
 16 15  1  0
 16 17  1  6
 17 18  1  0
 18 19  1  0
 19 20  1  0
 20 21  1  0
 22 16  1  0
 22 23  1  0
 24 22  2  0
M  END
$$$$
