MSK.pdb
     RDKit          3D

 24 23  0  0  1  0  0  0  0  0999 V2000
   16.3829  -18.3282  -19.9094 C   0  0  0  0  0  0  0  0  0  0  0  0
   16.3696  -16.7205  -19.0960 S   0  0  0  0  0  0  0  0  0  0  0  0
   17.8492  -16.4852  -18.0691 C   0  0  0  0  0  0  0  0  0  0  0  0
   17.8379  -15.1344  -17.3914 C   0  0  0  0  0  0  0  0  0  0  0  0
   19.0333  -14.8847  -16.5472 C   0  0  2  0  0  0  0  0  0  0  0  0
   19.2029  -15.9261  -15.5638 N   0  0  0  0  0  0  0  0  0  0  0  0
   19.0616  -13.5493  -15.9210 C   0  0  0  0  0  0  0  0  0  0  0  0
   18.4365  -13.3884  -14.8487 O   0  0  0  0  0  0  0  0  0  0  0  0
   21.4994  -10.6176  -17.4292 O   0  0  0  0  0  0  0  0  0  0  0  0
   21.1468  -10.5015  -16.0646 C   0  0  0  0  0  0  0  0  0  0  0  0
   19.7782  -11.1210  -15.8779 C   0  0  2  0  0  0  0  0  0  0  0  0
   19.7578  -12.4396  -16.4675 N   0  0  0  0  0  0  0  0  0  0  0  0
   18.7803  -10.2168  -16.5007 C   0  0  0  0  0  0  0  0  0  0  0  0
   18.4088  -10.2880  -17.6809 O   0  0  0  0  0  0  0  0  0  0  0  0
   18.2127   -9.1995  -15.6845 N   0  0  0  0  0  0  0  0  0  0  0  0
   17.2361   -8.2632  -16.1345 C   0  0  1  0  0  0  0  0  0  0  0  0
   16.0358   -8.1635  -15.1763 C   0  0  0  0  0  0  0  0  0  0  0  0
   14.9857   -7.2714  -15.7507 C   0  0  0  0  0  0  0  0  0  0  0  0
   13.7760   -7.0239  -14.9339 C   0  0  0  0  0  0  0  0  0  0  0  0
   12.7090   -6.2177  -15.6044 C   0  0  0  0  0  0  0  0  0  0  0  0
   11.6164   -5.9674  -14.7256 N   0  0  0  0  0  0  0  0  0  0  0  0
   17.7572   -6.9294  -16.4909 C   0  0  0  0  0  0  0  0  0  0  0  0
   17.2776   -6.1417  -17.5272 O   0  0  0  0  0  0  0  0  0  0  0  0
   18.7044   -6.4645  -15.8117 O   0  0  0  0  0  0  0  0  0  0  0  0
  1  2  1  0
  3  2  1  0
  4  3  1  0
  5  4  1  0
  5  6  1  1
  7  8  2  0
  7  5  1  0
  9 10  1  0
 11 10  1  6
 11 12  1  0
 12  7  1  0
 13 11  1  0
 14 13  2  0
 15 13  1  0
 16 15  1  0
 16 17  1  1
 17 18  1  0
 18 19  1  0
 19 20  1  0
 20 21  1  0
 22 16  1  0
 22 23  1  0
 24 22  2  0
M  END
$$$$
