MSK.pdb
     RDKit          3D

 24 23  0  0  1  0  0  0  0  0999 V2000
   26.9518  -17.8096   -7.0867 C   0  0  0  0  0  0  0  0  0  0  0  0
   27.1548  -19.5394   -6.6247 S   0  0  0  0  0  0  0  0  0  0  0  0
   27.7832  -20.5268   -8.0137 C   0  0  0  0  0  0  0  0  0  0  0  0
   27.3424  -19.9515   -9.3399 C   0  0  0  0  0  0  0  0  0  0  0  0
   26.3266  -20.7798  -10.0371 C   0  0  2  0  0  0  0  0  0  0  0  0
   26.7840  -22.1381  -10.1985 N   0  0  0  0  0  0  0  0  0  0  0  0
   25.8651  -20.2159  -11.3198 C   0  0  0  0  0  0  0  0  0  0  0  0
   25.1123  -19.2166  -11.2868 O   0  0  0  0  0  0  0  0  0  0  0  0
   26.5054  -22.2585  -14.8082 O   0  0  0  0  0  0  0  0  0  0  0  0
   26.5428  -20.8555  -14.9814 C   0  0  0  0  0  0  0  0  0  0  0  0
   25.7628  -20.2208  -13.8499 C   0  0  2  0  0  0  0  0  0  0  0  0
   26.2280  -20.7440  -12.5863 N   0  0  0  0  0  0  0  0  0  0  0  0
   24.3236  -20.5037  -14.0740 C   0  0  0  0  0  0  0  0  0  0  0  0
   23.7147  -21.4693  -13.5917 O   0  0  0  0  0  0  0  0  0  0  0  0
   23.5956  -19.6026  -14.8995 N   0  0  0  0  0  0  0  0  0  0  0  0
   22.2011  -19.7162  -15.1738 C   0  0  1  0  0  0  0  0  0  0  0  0
   21.6444  -18.4776  -15.8982 C   0  0  0  0  0  0  0  0  0  0  0  0
   20.1620  -18.5816  -16.0401 C   0  0  0  0  0  0  0  0  0  0  0  0
   19.4737  -17.5303  -16.8228 C   0  0  0  0  0  0  0  0  0  0  0  0
   17.9818  -17.6347  -16.8554 C   0  0  0  0  0  0  0  0  0  0  0  0
   17.4092  -16.6425  -17.7018 N   0  0  0  0  0  0  0  0  0  0  0  0
   21.7886  -20.9657  -15.8419 C   0  0  0  0  0  0  0  0  0  0  0  0
   22.4566  -21.5538  -16.9060 O   0  0  0  0  0  0  0  0  0  0  0  0
   20.7584  -21.5470  -15.4231 O   0  0  0  0  0  0  0  0  0  0  0  0
  1  2  1  0
  3  2  1  0
  4  3  1  0
  5  4  1  0
  5  6  1  6
  7  8  2  0
  7  5  1  0
  9 10  1  0
 11 10  1  6
 11 12  1  0
 12  7  1  0
 13 11  1  0
 14 13  2  0
 15 13  1  0
 16 15  1  0
 16 17  1  6
 17 18  1  0
 18 19  1  0
 19 20  1  0
 20 21  1  0
 22 16  1  0
 22 23  1  0
 24 22  2  0
M  END
$$$$
