MSK.pdb
     RDKit          3D

 24 23  0  0  1  0  0  0  0  0999 V2000
   21.2449  -12.4208  -22.2040 C   0  0  0  0  0  0  0  0  0  0  0  0
   21.2105  -14.2217  -22.1571 S   0  0  0  0  0  0  0  0  0  0  0  0
   21.1683  -14.8393  -20.4494 C   0  0  0  0  0  0  0  0  0  0  0  0
   20.9907  -13.7097  -19.4613 C   0  0  0  0  0  0  0  0  0  0  0  0
   21.0114  -14.1527  -18.0445 C   0  0  2  0  0  0  0  0  0  0  0  0
   20.0529  -15.2055  -17.8141 N   0  0  0  0  0  0  0  0  0  0  0  0
   20.8484  -13.0591  -17.0679 C   0  0  0  0  0  0  0  0  0  0  0  0
   19.6862  -12.6907  -16.7850 O   0  0  0  0  0  0  0  0  0  0  0  0
   24.1605  -11.0741  -15.6465 O   0  0  0  0  0  0  0  0  0  0  0  0
   23.0687  -11.0908  -14.7478 C   0  0  0  0  0  0  0  0  0  0  0  0
   21.7990  -11.2663  -15.5531 C   0  0  2  0  0  0  0  0  0  0  0  0
   21.9358  -12.4036  -16.4333 N   0  0  0  0  0  0  0  0  0  0  0  0
   21.5571  -10.0085  -16.3019 C   0  0  0  0  0  0  0  0  0  0  0  0
   21.9225   -9.8047  -17.4685 O   0  0  0  0  0  0  0  0  0  0  0  0
   20.8572   -8.9669  -15.6321 N   0  0  0  0  0  0  0  0  0  0  0  0
   20.6236   -7.6739  -16.1857 C   0  0  1  0  0  0  0  0  0  0  0  0
   19.1351   -7.4278  -16.4899 C   0  0  0  0  0  0  0  0  0  0  0  0
   18.9428   -6.0683  -17.0758 C   0  0  0  0  0  0  0  0  0  0  0  0
   17.5718   -5.6863  -17.4836 C   0  0  0  0  0  0  0  0  0  0  0  0
   17.4429   -4.3222  -18.0839 C   0  0  0  0  0  0  0  0  0  0  0  0
   16.1134   -4.0737  -18.5304 N   0  0  0  0  0  0  0  0  0  0  0  0
   21.2166   -6.5495  -15.4362 C   0  0  0  0  0  0  0  0  0  0  0  0
   21.7419   -5.4020  -16.0121 O   0  0  0  0  0  0  0  0  0  0  0  0
   21.2526   -6.6279  -14.1843 O   0  0  0  0  0  0  0  0  0  0  0  0
  1  2  1  0
  3  2  1  0
  4  3  1  0
  5  4  1  0
  5  6  1  6
  7  8  2  0
  7  5  1  0
  9 10  1  0
 11 10  1  6
 11 12  1  0
 12  7  1  0
 13 11  1  0
 14 13  2  0
 15 13  1  0
 16 15  1  0
 16 17  1  1
 17 18  1  0
 18 19  1  0
 19 20  1  0
 20 21  1  0
 22 16  1  0
 22 23  1  0
 24 22  2  0
M  END
$$$$
