MSK.pdb
     RDKit          3D

 24 23  0  0  1  0  0  0  0  0999 V2000
   24.5205  -14.5849  -20.3890 C   0  0  0  0  0  0  0  0  0  0  0  0
   25.7003  -14.8794  -19.0593 S   0  0  0  0  0  0  0  0  0  0  0  0
   25.1819  -14.0646  -17.5210 C   0  0  0  0  0  0  0  0  0  0  0  0
   24.1626  -12.9817  -17.7899 C   0  0  0  0  0  0  0  0  0  0  0  0
   24.4469  -11.7101  -17.0786 C   0  0  2  0  0  0  0  0  0  0  0  0
   24.7766  -11.9499  -15.6951 N   0  0  0  0  0  0  0  0  0  0  0  0
   23.3827  -10.6964  -17.2059 C   0  0  0  0  0  0  0  0  0  0  0  0
   23.0738  -10.3081  -18.3549 O   0  0  0  0  0  0  0  0  0  0  0  0
   22.0592   -8.7103  -13.9181 O   0  0  0  0  0  0  0  0  0  0  0  0
   21.0145   -8.9281  -14.8460 C   0  0  0  0  0  0  0  0  0  0  0  0
   21.6349   -9.1602  -16.2071 C   0  0  2  0  0  0  0  0  0  0  0  0
   22.6917  -10.1391  -16.0983 N   0  0  0  0  0  0  0  0  0  0  0  0
   22.1333   -7.8559  -16.7089 C   0  0  0  0  0  0  0  0  0  0  0  0
   23.3032   -7.4621  -16.5986 O   0  0  0  0  0  0  0  0  0  0  0  0
   21.2020   -7.0011  -17.3610 N   0  0  0  0  0  0  0  0  0  0  0  0
   21.5366   -5.7368  -17.9290 C   0  0  1  0  0  0  0  0  0  0  0  0
   21.2323   -5.6735  -19.4363 C   0  0  0  0  0  0  0  0  0  0  0  0
   21.6692   -4.3619  -19.9995 C   0  0  0  0  0  0  0  0  0  0  0  0
   21.4820   -4.1439  -21.4519 C   0  0  0  0  0  0  0  0  0  0  0  0
   21.9975   -2.8393  -21.9716 C   0  0  0  0  0  0  0  0  0  0  0  0
   21.6897   -2.6711  -23.3520 N   0  0  0  0  0  0  0  0  0  0  0  0
   20.9968   -4.5621  -17.2173 C   0  0  0  0  0  0  0  0  0  0  0  0
   21.7256   -3.4269  -16.8941 O   0  0  0  0  0  0  0  0  0  0  0  0
   19.7896   -4.5821  -16.8755 O   0  0  0  0  0  0  0  0  0  0  0  0
  1  2  1  0
  3  2  1  0
  4  3  1  0
  5  4  1  0
  5  6  1  1
  7  8  2  0
  7  5  1  0
  9 10  1  0
 11 10  1  1
 11 12  1  0
 12  7  1  0
 13 11  1  0
 14 13  2  0
 15 13  1  0
 16 15  1  0
 16 17  1  6
 17 18  1  0
 18 19  1  0
 19 20  1  0
 20 21  1  0
 22 16  1  0
 22 23  1  0
 24 22  2  0
M  END
$$$$
