MSK.pdb
     RDKit          3D

 24 23  0  0  1  0  0  0  0  0999 V2000
   21.3888  -38.6249  -13.5446 C   0  0  0  0  0  0  0  0  0  0  0  0
   22.5361  -37.8999  -12.3594 S   0  0  0  0  0  0  0  0  0  0  0  0
   22.7952  -36.1318  -12.6844 C   0  0  0  0  0  0  0  0  0  0  0  0
   23.8860  -35.5659  -11.8046 C   0  0  0  0  0  0  0  0  0  0  0  0
   24.0678  -34.1002  -11.9544 C   0  0  2  0  0  0  0  0  0  0  0  0
   24.5535  -33.7676  -13.2711 N   0  0  0  0  0  0  0  0  0  0  0  0
   24.9040  -33.4856  -10.9059 C   0  0  0  0  0  0  0  0  0  0  0  0
   26.0478  -33.0883  -11.2226 O   0  0  0  0  0  0  0  0  0  0  0  0
   24.4748  -30.5287   -7.9842 O   0  0  0  0  0  0  0  0  0  0  0  0
   24.3773  -31.8901   -7.6138 C   0  0  0  0  0  0  0  0  0  0  0  0
   25.2763  -32.6925   -8.5301 C   0  0  2  0  0  0  0  0  0  0  0  0
   24.4824  -33.3208   -9.5606 N   0  0  0  0  0  0  0  0  0  0  0  0
   26.0006  -33.6870   -7.7009 C   0  0  0  0  0  0  0  0  0  0  0  0
   25.5074  -34.7438   -7.2816 O   0  0  0  0  0  0  0  0  0  0  0  0
   27.3541  -33.4053   -7.3660 N   0  0  0  0  0  0  0  0  0  0  0  0
   28.1290  -34.1739   -6.4486 C   0  0  1  0  0  0  0  0  0  0  0  0
   29.5927  -33.7032   -6.3812 C   0  0  0  0  0  0  0  0  0  0  0  0
   30.4043  -34.6472   -5.5574 C   0  0  0  0  0  0  0  0  0  0  0  0
   31.8015  -34.2634   -5.2534 C   0  0  0  0  0  0  0  0  0  0  0  0
   32.6012  -35.2962   -4.5243 C   0  0  0  0  0  0  0  0  0  0  0  0
   33.9682  -34.9122   -4.4123 N   0  0  0  0  0  0  0  0  0  0  0  0
   27.5458  -34.3253   -5.1015 C   0  0  0  0  0  0  0  0  0  0  0  0
   27.0031  -33.2921   -4.3517 O   0  0  0  0  0  0  0  0  0  0  0  0
   27.5351  -35.4702   -4.5879 O   0  0  0  0  0  0  0  0  0  0  0  0
  1  2  1  0
  3  2  1  0
  4  3  1  0
  5  4  1  0
  5  6  1  6
  7  8  2  0
  7  5  1  0
  9 10  1  0
 11 10  1  1
 11 12  1  0
 12  7  1  0
 13 11  1  0
 14 13  2  0
 15 13  1  0
 16 15  1  0
 16 17  1  1
 17 18  1  0
 18 19  1  0
 19 20  1  0
 20 21  1  0
 22 16  1  0
 22 23  1  0
 24 22  2  0
M  END
$$$$
