HHA.pdb
     RDKit          3D

 26 27  0  0  1  0  0  0  0  0999 V2000
   18.0927  -10.9721  -16.1575 N   0  0  0  0  0  0  0  0  0  0  0  0
   17.3096  -11.3051  -14.9860 C   0  0  1  0  0  0  0  0  0  0  0  0
   17.3687  -12.7957  -14.8070 C   0  0  0  0  0  0  0  0  0  0  0  0
   16.6114  -13.4077  -15.9339 C   0  0  0  0  0  0  0  0  0  0  0  0
   15.2847  -13.1550  -16.2832 C   0  0  0  0  0  0  0  0  0  0  0  0
   15.0006  -13.9190  -17.3614 N   0  0  0  0  0  0  0  0  0  0  0  0
   16.0728  -14.6308  -17.7018 C   0  0  0  0  0  0  0  0  0  0  0  0
   17.0333  -14.3141  -16.8361 N   0  0  0  0  0  0  0  0  0  0  0  0
   17.8015  -10.5710  -13.7892 C   0  0  0  0  0  0  0  0  0  0  0  0
   18.4019  -11.1950  -12.8934 O   0  0  0  0  0  0  0  0  0  0  0  0
   17.6151   -9.1743  -13.6200 N   0  0  0  0  0  0  0  0  0  0  0  0
   18.1090   -8.3965  -12.5039 C   0  0  1  0  0  0  0  0  0  0  0  0
   19.1932   -7.4630  -12.8033 C   0  0  0  0  0  0  0  0  0  0  0  0
   20.4241   -8.0420  -13.3843 C   0  0  0  0  0  0  0  0  0  0  0  0
   20.9604   -7.9770  -14.6286 C   0  0  0  0  0  0  0  0  0  0  0  0
   22.0904   -8.6943  -14.6342 N   0  0  0  0  0  0  0  0  0  0  0  0
   22.2863   -9.2184  -13.4120 C   0  0  0  0  0  0  0  0  0  0  0  0
   21.2800   -8.8261  -12.6524 N   0  0  0  0  0  0  0  0  0  0  0  0
   16.9411   -7.8145  -11.8149 C   0  0  0  0  0  0  0  0  0  0  0  0
   16.0859   -7.2238  -12.5103 O   0  0  0  0  0  0  0  0  0  0  0  0
   15.3995   -7.7228   -8.3508 C   0  0  0  0  0  0  0  0  0  0  0  0
   15.6375   -7.2403   -9.7434 C   0  0  2  0  0  0  0  0  0  0  0  0
   16.7207   -7.8779  -10.4209 N   0  0  0  0  0  0  0  0  0  0  0  0
   15.8078   -5.7505   -9.6828 C   0  0  0  0  0  0  0  0  0  0  0  0
   14.7360   -4.9821   -9.2869 O   0  0  0  0  0  0  0  0  0  0  0  0
   16.9130   -5.2408   -9.9913 O   0  0  0  0  0  0  0  0  0  0  0  0
  2  1  1  6
  2  3  1  0
  4  8  1  0
  4  3  1  0
  5  4  2  0
  6  5  1  0
  6  7  1  0
  7  8  2  0
  9  2  1  0
  9 10  2  0
 11  9  1  0
 12 11  1  0
 13 14  1  0
 12 13  1  6
 14 18  1  0
 15 14  2  0
 15 16  1  0
 16 17  1  0
 18 17  2  0
 19 12  1  0
 20 19  2  0
 22 23  1  0
 22 21  1  1
 23 19  1  0
 24 22  1  0
 25 24  1  0
 26 24  2  0
M  END
$$$$
