HHA.pdb
     RDKit          3D

 26 27  0  0  1  0  0  0  0  0999 V2000
   19.3943  -12.5675  -16.8036 N   0  0  0  0  0  0  0  0  0  0  0  0
   18.9866  -11.2750  -16.2940 C   0  0  1  0  0  0  0  0  0  0  0  0
   18.3281  -11.4974  -14.9619 C   0  0  0  0  0  0  0  0  0  0  0  0
   16.9979  -12.1143  -15.2227 C   0  0  0  0  0  0  0  0  0  0  0  0
   16.0723  -11.7251  -16.1910 C   0  0  0  0  0  0  0  0  0  0  0  0
   15.0067  -12.5495  -16.0824 N   0  0  0  0  0  0  0  0  0  0  0  0
   15.2165  -13.4272  -15.1038 C   0  0  0  0  0  0  0  0  0  0  0  0
   16.4164  -13.1547  -14.5957 N   0  0  0  0  0  0  0  0  0  0  0  0
   20.1459  -10.3469  -16.2049 C   0  0  0  0  0  0  0  0  0  0  0  0
   21.1433  -10.6774  -15.5356 O   0  0  0  0  0  0  0  0  0  0  0  0
   20.1667   -9.0862  -16.8562 N   0  0  0  0  0  0  0  0  0  0  0  0
   21.2863   -8.1691  -16.8619 C   0  0  1  0  0  0  0  0  0  0  0  0
   21.7499   -7.7319  -18.1773 C   0  0  0  0  0  0  0  0  0  0  0  0
   22.3601   -8.7656  -19.0417 C   0  0  0  0  0  0  0  0  0  0  0  0
   22.6651  -10.0693  -18.8238 C   0  0  0  0  0  0  0  0  0  0  0  0
   23.2202  -10.5602  -19.9384 N   0  0  0  0  0  0  0  0  0  0  0  0
   23.2758   -9.5903  -20.8675 C   0  0  0  0  0  0  0  0  0  0  0  0
   22.7563   -8.5024  -20.3288 N   0  0  0  0  0  0  0  0  0  0  0  0
   20.9822   -7.0888  -15.9037 C   0  0  0  0  0  0  0  0  0  0  0  0
   19.8854   -6.4987  -16.0159 O   0  0  0  0  0  0  0  0  0  0  0  0
   22.3954   -5.6569  -12.6931 C   0  0  0  0  0  0  0  0  0  0  0  0
   21.5342   -5.6567  -13.9126 C   0  0  2  0  0  0  0  0  0  0  0  0
   21.8457   -6.6734  -14.8656 N   0  0  0  0  0  0  0  0  0  0  0  0
   21.5990   -4.2823  -14.5116 C   0  0  0  0  0  0  0  0  0  0  0  0
   20.9356   -3.2565  -13.8762 O   0  0  0  0  0  0  0  0  0  0  0  0
   22.2502   -4.0980  -15.5691 O   0  0  0  0  0  0  0  0  0  0  0  0
  2  1  1  1
  2  3  1  0
  4  8  1  0
  4  3  1  0
  5  4  2  0
  6  5  1  0
  6  7  1  0
  7  8  2  0
  9  2  1  0
  9 10  2  0
 11  9  1  0
 12 11  1  0
 13 14  1  0
 12 13  1  6
 14 18  1  0
 15 14  2  0
 15 16  1  0
 16 17  1  0
 18 17  2  0
 19 12  1  0
 20 19  2  0
 22 23  1  0
 22 21  1  1
 23 19  1  0
 24 22  1  0
 25 24  1  0
 26 24  2  0
M  END
$$$$
