HHA.pdb
     RDKit          3D

 26 27  0  0  1  0  0  0  0  0999 V2000
   20.2578  -29.0280  -16.2166 N   0  0  0  0  0  0  0  0  0  0  0  0
   19.7804  -29.1052  -14.8518 C   0  0  1  0  0  0  0  0  0  0  0  0
   18.2976  -29.3430  -14.9005 C   0  0  0  0  0  0  0  0  0  0  0  0
   17.6609  -28.0782  -15.3619 C   0  0  0  0  0  0  0  0  0  0  0  0
   18.1165  -26.7805  -15.1289 C   0  0  0  0  0  0  0  0  0  0  0  0
   17.2438  -25.9358  -15.7220 N   0  0  0  0  0  0  0  0  0  0  0  0
   16.2736  -26.6328  -16.3093 C   0  0  0  0  0  0  0  0  0  0  0  0
   16.5363  -27.9185  -16.0853 N   0  0  0  0  0  0  0  0  0  0  0  0
   20.4994  -30.1646  -14.0942 C   0  0  0  0  0  0  0  0  0  0  0  0
   20.4190  -31.3486  -14.4735 O   0  0  0  0  0  0  0  0  0  0  0  0
   21.2826  -29.8834  -12.9447 N   0  0  0  0  0  0  0  0  0  0  0  0
   22.0388  -30.8609  -12.1916 C   0  0  1  0  0  0  0  0  0  0  0  0
   23.1065  -30.3316  -11.3452 C   0  0  0  0  0  0  0  0  0  0  0  0
   23.9113  -31.3221  -10.5973 C   0  0  0  0  0  0  0  0  0  0  0  0
   23.9166  -32.6785  -10.6005 C   0  0  0  0  0  0  0  0  0  0  0  0
   24.8370  -33.0946   -9.7222 N   0  0  0  0  0  0  0  0  0  0  0  0
   25.4215  -32.0248   -9.1558 C   0  0  0  0  0  0  0  0  0  0  0  0
   24.8642  -30.9499   -9.6827 N   0  0  0  0  0  0  0  0  0  0  0  0
   21.0722  -31.7475  -11.5155 C   0  0  0  0  0  0  0  0  0  0  0  0
   20.0569  -31.2255  -11.0053 O   0  0  0  0  0  0  0  0  0  0  0  0
   20.5345  -35.4789  -10.9991 C   0  0  0  0  0  0  0  0  0  0  0  0
   20.2064  -34.0259  -10.8994 C   0  0  2  0  0  0  0  0  0  0  0  0
   21.2139  -33.1488  -11.4039 N   0  0  0  0  0  0  0  0  0  0  0  0
   19.8711  -33.7355   -9.4658 C   0  0  0  0  0  0  0  0  0  0  0  0
   20.8988  -33.4474   -8.5958 O   0  0  0  0  0  0  0  0  0  0  0  0
   18.6724  -33.7610   -9.0930 O   0  0  0  0  0  0  0  0  0  0  0  0
  2  1  1  6
  2  3  1  0
  4  8  1  0
  4  3  1  0
  5  4  2  0
  6  5  1  0
  6  7  1  0
  7  8  2  0
  9  2  1  0
  9 10  2  0
 11  9  1  0
 12 11  1  0
 13 14  1  0
 12 13  1  1
 14 18  1  0
 15 14  2  0
 15 16  1  0
 16 17  1  0
 18 17  2  0
 19 12  1  0
 20 19  2  0
 22 23  1  0
 22 21  1  1
 23 19  1  0
 24 22  1  0
 25 24  1  0
 26 24  2  0
M  END
$$$$
