HHA.pdb
     RDKit          3D

 26 27  0  0  1  0  0  0  0  0999 V2000
   33.3430  -32.7183  -16.1796 N   0  0  0  0  0  0  0  0  0  0  0  0
   32.2268  -32.1734  -16.9237 C   0  0  1  0  0  0  0  0  0  0  0  0
   32.4469  -32.4935  -18.3751 C   0  0  0  0  0  0  0  0  0  0  0  0
   33.2527  -31.3839  -18.9562 C   0  0  0  0  0  0  0  0  0  0  0  0
   33.1379  -30.0253  -18.6615 C   0  0  0  0  0  0  0  0  0  0  0  0
   34.0559  -29.3732  -19.4091 N   0  0  0  0  0  0  0  0  0  0  0  0
   34.7335  -30.2470  -20.1503 C   0  0  0  0  0  0  0  0  0  0  0  0
   34.2410  -31.4513  -19.8686 N   0  0  0  0  0  0  0  0  0  0  0  0
   30.9349  -32.7081  -16.4153 C   0  0  0  0  0  0  0  0  0  0  0  0
   30.9094  -33.8277  -15.8694 O   0  0  0  0  0  0  0  0  0  0  0  0
   29.7152  -31.9911  -16.5257 N   0  0  0  0  0  0  0  0  0  0  0  0
   28.4415  -32.4259  -15.9936 C   0  0  1  0  0  0  0  0  0  0  0  0
   27.7548  -31.4770  -15.1193 C   0  0  0  0  0  0  0  0  0  0  0  0
   27.6052  -30.0961  -15.6282 C   0  0  0  0  0  0  0  0  0  0  0  0
   28.4795  -29.2461  -16.2225 C   0  0  0  0  0  0  0  0  0  0  0  0
   27.8382  -28.0997  -16.4793 N   0  0  0  0  0  0  0  0  0  0  0  0
   26.5657  -28.2022  -16.0582 C   0  0  0  0  0  0  0  0  0  0  0  0
   26.4205  -29.4090  -15.5424 N   0  0  0  0  0  0  0  0  0  0  0  0
   27.6422  -32.9458  -17.1198 C   0  0  0  0  0  0  0  0  0  0  0  0
   27.8850  -32.5025  -18.2636 O   0  0  0  0  0  0  0  0  0  0  0  0
   24.8616  -35.4722  -17.7259 C   0  0  0  0  0  0  0  0  0  0  0  0
   25.7944  -34.3593  -18.0726 C   0  0  2  0  0  0  0  0  0  0  0  0
   26.6189  -33.9120  -16.9960 N   0  0  0  0  0  0  0  0  0  0  0  0
   24.9735  -33.2464  -18.6554 C   0  0  0  0  0  0  0  0  0  0  0  0
   24.5461  -33.3584  -19.9595 O   0  0  0  0  0  0  0  0  0  0  0  0
   24.6962  -32.2462  -17.9488 O   0  0  0  0  0  0  0  0  0  0  0  0
  2  1  1  1
  2  3  1  0
  4  8  1  0
  4  3  1  0
  5  4  2  0
  6  5  1  0
  6  7  1  0
  7  8  2  0
  9  2  1  0
  9 10  2  0
 11  9  1  0
 12 11  1  0
 13 14  1  0
 12 13  1  6
 14 18  1  0
 15 14  2  0
 15 16  1  0
 16 17  1  0
 18 17  2  0
 19 12  1  0
 20 19  2  0
 22 23  1  0
 22 21  1  1
 23 19  1  0
 24 22  1  0
 25 24  1  0
 26 24  2  0
M  END
$$$$
