HHA.pdb
     RDKit          3D

 26 27  0  0  1  0  0  0  0  0999 V2000
   23.5897  -13.1740  -17.6984 N   0  0  0  0  0  0  0  0  0  0  0  0
   23.7928  -12.2639  -16.5907 C   0  0  1  0  0  0  0  0  0  0  0  0
   25.2601  -11.9476  -16.5240 C   0  0  0  0  0  0  0  0  0  0  0  0
   25.9666  -13.2015  -16.1410 C   0  0  0  0  0  0  0  0  0  0  0  0
   26.9171  -13.8885  -16.8963 C   0  0  0  0  0  0  0  0  0  0  0  0
   27.2979  -14.9678  -16.1773 N   0  0  0  0  0  0  0  0  0  0  0  0
   26.6398  -14.9911  -15.0204 C   0  0  0  0  0  0  0  0  0  0  0  0
   25.8433  -13.9244  -15.0115 N   0  0  0  0  0  0  0  0  0  0  0  0
   22.9566  -11.0429  -16.7433 C   0  0  0  0  0  0  0  0  0  0  0  0
   22.9869  -10.4116  -17.8170 O   0  0  0  0  0  0  0  0  0  0  0  0
   22.1155  -10.5590  -15.7078 N   0  0  0  0  0  0  0  0  0  0  0  0
   21.2098   -9.4363  -15.8255 C   0  0  1  0  0  0  0  0  0  0  0  0
   19.8442   -9.6626  -15.3560 C   0  0  0  0  0  0  0  0  0  0  0  0
   18.9174   -8.5125  -15.4357 C   0  0  0  0  0  0  0  0  0  0  0  0
   19.0905   -7.2316  -15.8471 C   0  0  0  0  0  0  0  0  0  0  0  0
   17.9265   -6.5863  -15.7047 N   0  0  0  0  0  0  0  0  0  0  0  0
   17.0098   -7.4346  -15.2078 C   0  0  0  0  0  0  0  0  0  0  0  0
   17.6054   -8.6016  -15.0435 N   0  0  0  0  0  0  0  0  0  0  0  0
   21.8889   -8.2547  -15.2596 C   0  0  0  0  0  0  0  0  0  0  0  0
   22.4688   -8.3842  -14.1593 O   0  0  0  0  0  0  0  0  0  0  0  0
   22.7225   -4.6980  -16.3241 C   0  0  0  0  0  0  0  0  0  0  0  0
   22.7495   -5.8994  -15.4383 C   0  0  2  0  0  0  0  0  0  0  0  0
   21.9300   -6.9839  -15.8755 N   0  0  0  0  0  0  0  0  0  0  0  0
   22.3953   -5.4470  -14.0520 C   0  0  0  0  0  0  0  0  0  0  0  0
   21.2474   -5.9400  -13.4730 O   0  0  0  0  0  0  0  0  0  0  0  0
   23.1455   -4.6365  -13.4547 O   0  0  0  0  0  0  0  0  0  0  0  0
  2  1  1  6
  2  3  1  0
  4  8  1  0
  4  3  1  0
  5  4  2  0
  6  5  1  0
  6  7  1  0
  7  8  2  0
  9  2  1  0
  9 10  2  0
 11  9  1  0
 12 11  1  0
 13 14  1  0
 12 13  1  1
 14 18  1  0
 15 14  2  0
 15 16  1  0
 16 17  1  0
 18 17  2  0
 19 12  1  0
 20 19  2  0
 22 23  1  0
 22 21  1  6
 23 19  1  0
 24 22  1  0
 25 24  1  0
 26 24  2  0
M  END
$$$$
