HHA.pdb
     RDKit          3D

 26 27  0  0  1  0  0  0  0  0999 V2000
   25.8788  -35.1080   -8.1491 N   0  0  0  0  0  0  0  0  0  0  0  0
   26.4028  -34.2774   -7.0852 C   0  0  1  0  0  0  0  0  0  0  0  0
   25.2365  -33.6165   -6.4066 C   0  0  0  0  0  0  0  0  0  0  0  0
   24.7031  -32.5888   -7.3433 C   0  0  0  0  0  0  0  0  0  0  0  0
   25.3947  -31.4957   -7.8656 C   0  0  0  0  0  0  0  0  0  0  0  0
   24.5386  -30.8250   -8.6682 N   0  0  0  0  0  0  0  0  0  0  0  0
   23.3567  -31.4373   -8.6747 C   0  0  0  0  0  0  0  0  0  0  0  0
   23.4692  -32.4954   -7.8747 N   0  0  0  0  0  0  0  0  0  0  0  0
   27.2282  -35.0777   -6.1410 C   0  0  0  0  0  0  0  0  0  0  0  0
   26.8524  -36.2210   -5.8185 O   0  0  0  0  0  0  0  0  0  0  0  0
   28.4396  -34.5912   -5.5843 N   0  0  0  0  0  0  0  0  0  0  0  0
   29.2813  -35.3164   -4.6568 C   0  0  1  0  0  0  0  0  0  0  0  0
   30.6798  -34.8956   -4.5971 C   0  0  0  0  0  0  0  0  0  0  0  0
   31.5103  -35.1864   -5.7861 C   0  0  0  0  0  0  0  0  0  0  0  0
   31.2620  -35.8897   -6.9190 C   0  0  0  0  0  0  0  0  0  0  0  0
   32.3630  -35.8587   -7.6796 N   0  0  0  0  0  0  0  0  0  0  0  0
   33.3135  -35.1461   -7.0507 C   0  0  0  0  0  0  0  0  0  0  0  0
   32.8016  -34.7374   -5.9042 N   0  0  0  0  0  0  0  0  0  0  0  0
   28.5766  -35.3665   -3.3613 C   0  0  0  0  0  0  0  0  0  0  0  0
   27.9633  -34.3423   -2.9888 O   0  0  0  0  0  0  0  0  0  0  0  0
   27.8748  -37.8736   -0.5865 C   0  0  0  0  0  0  0  0  0  0  0  0
   27.8866  -36.5334   -1.2441 C   0  0  2  0  0  0  0  0  0  0  0  0
   28.5462  -36.4935   -2.5099 N   0  0  0  0  0  0  0  0  0  0  0  0
   28.4759  -35.5565   -0.2692 C   0  0  0  0  0  0  0  0  0  0  0  0
   27.8716  -35.4083    0.9592 O   0  0  0  0  0  0  0  0  0  0  0  0
   29.4975  -34.9011   -0.5905 O   0  0  0  0  0  0  0  0  0  0  0  0
  2  1  1  6
  2  3  1  0
  4  8  1  0
  4  3  1  0
  5  4  2  0
  6  5  1  0
  6  7  1  0
  7  8  2  0
  9  2  1  0
  9 10  2  0
 11  9  1  0
 12 11  1  0
 13 14  1  0
 12 13  1  1
 14 18  1  0
 15 14  2  0
 15 16  1  0
 16 17  1  0
 18 17  2  0
 19 12  1  0
 20 19  2  0
 22 23  1  0
 22 21  1  1
 23 19  1  0
 24 22  1  0
 25 24  1  0
 26 24  2  0
M  END
$$$$
