HHA.pdb
     RDKit          3D

 26 27  0  0  1  0  0  0  0  0999 V2000
   18.1528  -11.7220  -15.3984 N   0  0  0  0  0  0  0  0  0  0  0  0
   17.1029  -11.1329  -14.5940 C   0  0  1  0  0  0  0  0  0  0  0  0
   16.2768  -12.2544  -14.0307 C   0  0  0  0  0  0  0  0  0  0  0  0
   15.3973  -12.7501  -15.1255 C   0  0  0  0  0  0  0  0  0  0  0  0
   15.7075  -13.7327  -16.0658 C   0  0  0  0  0  0  0  0  0  0  0  0
   14.6309  -13.8724  -16.8709 N   0  0  0  0  0  0  0  0  0  0  0  0
   13.6709  -13.0346  -16.4857 C   0  0  0  0  0  0  0  0  0  0  0  0
   14.1444  -12.3663  -15.4362 N   0  0  0  0  0  0  0  0  0  0  0  0
   17.6709  -10.2591  -13.5323 C   0  0  0  0  0  0  0  0  0  0  0  0
   18.4930  -10.7336  -12.7253 O   0  0  0  0  0  0  0  0  0  0  0  0
   17.3139   -8.8924  -13.3958 N   0  0  0  0  0  0  0  0  0  0  0  0
   17.9009   -7.9678  -12.4498 C   0  0  1  0  0  0  0  0  0  0  0  0
   18.8437   -6.9974  -13.0029 C   0  0  0  0  0  0  0  0  0  0  0  0
   20.0055   -7.5463  -13.7356 C   0  0  0  0  0  0  0  0  0  0  0  0
   20.3319   -7.5490  -15.0522 C   0  0  0  0  0  0  0  0  0  0  0  0
   21.4955   -8.1955  -15.1926 N   0  0  0  0  0  0  0  0  0  0  0  0
   21.9197   -8.6074  -13.9855 C   0  0  0  0  0  0  0  0  0  0  0  0
   21.0207   -8.2166  -13.1007 N   0  0  0  0  0  0  0  0  0  0  0  0
   16.8039   -7.3996  -11.6428 C   0  0  0  0  0  0  0  0  0  0  0  0
   15.8189   -6.9225  -12.2477 O   0  0  0  0  0  0  0  0  0  0  0  0
   15.7424   -7.2761   -8.0049 C   0  0  0  0  0  0  0  0  0  0  0  0
   15.6868   -6.8962   -9.4476 C   0  0  2  0  0  0  0  0  0  0  0  0
   16.7884   -7.3567  -10.2308 N   0  0  0  0  0  0  0  0  0  0  0  0
   15.5287   -5.4055   -9.5168 C   0  0  0  0  0  0  0  0  0  0  0  0
   14.3593   -4.8463   -9.0522 O   0  0  0  0  0  0  0  0  0  0  0  0
   16.4568   -4.7060   -9.9922 O   0  0  0  0  0  0  0  0  0  0  0  0
  2  1  1  1
  2  3  1  0
  4  8  1  0
  4  3  1  0
  5  4  2  0
  6  5  1  0
  6  7  1  0
  7  8  2  0
  9  2  1  0
  9 10  2  0
 11  9  1  0
 12 11  1  0
 13 14  1  0
 12 13  1  6
 14 18  1  0
 15 14  2  0
 15 16  1  0
 16 17  1  0
 18 17  2  0
 19 12  1  0
 20 19  2  0
 22 23  1  0
 22 21  1  1
 23 19  1  0
 24 22  1  0
 25 24  1  0
 26 24  2  0
M  END
$$$$
