HHA.pdb
     RDKit          3D

 26 27  0  0  1  0  0  0  0  0999 V2000
   17.9828  -11.1092  -15.8524 N   0  0  0  0  0  0  0  0  0  0  0  0
   17.5167   -9.8233  -16.3275 C   0  0  1  0  0  0  0  0  0  0  0  0
   16.0329   -9.7634  -16.0987 C   0  0  0  0  0  0  0  0  0  0  0  0
   15.4042  -10.7646  -17.0044 C   0  0  0  0  0  0  0  0  0  0  0  0
   14.7017  -11.9086  -16.6254 C   0  0  0  0  0  0  0  0  0  0  0  0
   14.3049  -12.5301  -17.7582 N   0  0  0  0  0  0  0  0  0  0  0  0
   14.7197  -11.8392  -18.8178 C   0  0  0  0  0  0  0  0  0  0  0  0
   15.3788  -10.7810  -18.3508 N   0  0  0  0  0  0  0  0  0  0  0  0
   18.2391   -8.7114  -15.6529 C   0  0  0  0  0  0  0  0  0  0  0  0
   18.2521   -8.6573  -14.4083 O   0  0  0  0  0  0  0  0  0  0  0  0
   18.9227   -7.6971  -16.3726 N   0  0  0  0  0  0  0  0  0  0  0  0
   19.6178   -6.5763  -15.7766 C   0  0  1  0  0  0  0  0  0  0  0  0
   21.0661   -6.7196  -15.6402 C   0  0  0  0  0  0  0  0  0  0  0  0
   21.5452   -7.8584  -14.8268 C   0  0  0  0  0  0  0  0  0  0  0  0
   22.2249   -8.9863  -15.1522 C   0  0  0  0  0  0  0  0  0  0  0  0
   22.4015   -9.7040  -14.0364 N   0  0  0  0  0  0  0  0  0  0  0  0
   21.8448   -9.0530  -13.0004 C   0  0  0  0  0  0  0  0  0  0  0  0
   21.3253   -7.9354  -13.4745 N   0  0  0  0  0  0  0  0  0  0  0  0
   19.1621   -5.3527  -16.4641 C   0  0  0  0  0  0  0  0  0  0  0  0
   19.2101   -5.3311  -17.7135 O   0  0  0  0  0  0  0  0  0  0  0  0
   17.4949   -2.0524  -15.5856 C   0  0  0  0  0  0  0  0  0  0  0  0
   18.1745   -3.0409  -16.4743 C   0  0  2  0  0  0  0  0  0  0  0  0
   18.6738   -4.2008  -15.8079 N   0  0  0  0  0  0  0  0  0  0  0  0
   19.2519   -2.3111  -17.2216 C   0  0  0  0  0  0  0  0  0  0  0  0
   18.8816   -1.3823  -18.1683 O   0  0  0  0  0  0  0  0  0  0  0  0
   20.4567   -2.5599  -16.9706 O   0  0  0  0  0  0  0  0  0  0  0  0
  2  1  1  1
  2  3  1  0
  4  8  1  0
  4  3  1  0
  5  4  2  0
  6  5  1  0
  6  7  1  0
  7  8  2  0
  9  2  1  0
  9 10  2  0
 11  9  1  0
 12 11  1  0
 13 14  1  0
 12 13  1  6
 14 18  1  0
 15 14  2  0
 15 16  1  0
 16 17  1  0
 18 17  2  0
 19 12  1  0
 20 19  2  0
 22 23  1  0
 22 21  1  1
 23 19  1  0
 24 22  1  0
 25 24  1  0
 26 24  2  0
M  END
$$$$
