HHA.pdb
     RDKit          3D

 26 27  0  0  1  0  0  0  0  0999 V2000
   19.0913  -12.3439  -16.3735 N   0  0  0  0  0  0  0  0  0  0  0  0
   18.2504  -11.1849  -16.5878 C   0  0  1  0  0  0  0  0  0  0  0  0
   16.8204  -11.6327  -16.4775 C   0  0  0  0  0  0  0  0  0  0  0  0
   16.5320  -12.4898  -17.6608 C   0  0  0  0  0  0  0  0  0  0  0  0
   16.1378  -12.0591  -18.9277 C   0  0  0  0  0  0  0  0  0  0  0  0
   15.9849  -13.1602  -19.6967 N   0  0  0  0  0  0  0  0  0  0  0  0
   16.2609  -14.2486  -18.9817 C   0  0  0  0  0  0  0  0  0  0  0  0
   16.5881  -13.8316  -17.7605 N   0  0  0  0  0  0  0  0  0  0  0  0
   18.5804  -10.1008  -15.6238 C   0  0  0  0  0  0  0  0  0  0  0  0
   18.2727  -10.2353  -14.4240 O   0  0  0  0  0  0  0  0  0  0  0  0
   19.2380   -8.9055  -16.0145 N   0  0  0  0  0  0  0  0  0  0  0  0
   19.5352   -7.7927  -15.1382 C   0  0  1  0  0  0  0  0  0  0  0  0
   20.8557   -7.8053  -14.5116 C   0  0  0  0  0  0  0  0  0  0  0  0
   22.0139   -7.9976  -15.4115 C   0  0  0  0  0  0  0  0  0  0  0  0
   22.6269   -9.1136  -15.8791 C   0  0  0  0  0  0  0  0  0  0  0  0
   23.6467   -8.7343  -16.6587 N   0  0  0  0  0  0  0  0  0  0  0  0
   23.6965   -7.3916  -16.6975 C   0  0  0  0  0  0  0  0  0  0  0  0
   22.7099   -6.9417  -15.9439 N   0  0  0  0  0  0  0  0  0  0  0  0
   19.1848   -6.5530  -15.8578 C   0  0  0  0  0  0  0  0  0  0  0  0
   19.4446   -6.4922  -17.0795 O   0  0  0  0  0  0  0  0  0  0  0  0
   17.2215   -3.3716  -15.2705 C   0  0  0  0  0  0  0  0  0  0  0  0
   18.2314   -4.2290  -15.9589 C   0  0  2  0  0  0  0  0  0  0  0  0
   18.5747   -5.4268  -15.2616 N   0  0  0  0  0  0  0  0  0  0  0  0
   19.4330   -3.3751  -16.2401 C   0  0  0  0  0  0  0  0  0  0  0  0
   19.2872   -2.2900  -17.0751 O   0  0  0  0  0  0  0  0  0  0  0  0
   20.5353   -3.6650  -15.7135 O   0  0  0  0  0  0  0  0  0  0  0  0
  2  1  1  1
  2  3  1  0
  4  8  1  0
  4  3  1  0
  5  4  2  0
  6  5  1  0
  6  7  1  0
  7  8  2  0
  9  2  1  0
  9 10  2  0
 11  9  1  0
 12 11  1  0
 13 14  1  0
 12 13  1  6
 14 18  1  0
 15 14  2  0
 15 16  1  0
 16 17  1  0
 18 17  2  0
 19 12  1  0
 20 19  2  0
 22 23  1  0
 22 21  1  1
 23 19  1  0
 24 22  1  0
 25 24  1  0
 26 24  2  0
M  END
$$$$
