HHA.pdb
     RDKit          3D

 26 27  0  0  1  0  0  0  0  0999 V2000
   21.8902  -12.5117  -18.9461 N   0  0  0  0  0  0  0  0  0  0  0  0
   22.5622  -11.3229  -18.4647 C   0  0  1  0  0  0  0  0  0  0  0  0
   23.2277  -10.6675  -19.6416 C   0  0  0  0  0  0  0  0  0  0  0  0
   24.2304  -11.6300  -20.1764 C   0  0  0  0  0  0  0  0  0  0  0  0
   24.2762  -12.1574  -21.4670 C   0  0  0  0  0  0  0  0  0  0  0  0
   25.3425  -12.9860  -21.5248 N   0  0  0  0  0  0  0  0  0  0  0  0
   25.9610  -13.0039  -20.3462 C   0  0  0  0  0  0  0  0  0  0  0  0
   25.2827  -12.1850  -19.5452 N   0  0  0  0  0  0  0  0  0  0  0  0
   21.6084  -10.4135  -17.7744 C   0  0  0  0  0  0  0  0  0  0  0  0
   20.5581  -10.0759  -18.3533 O   0  0  0  0  0  0  0  0  0  0  0  0
   21.8442   -9.9070  -16.4699 N   0  0  0  0  0  0  0  0  0  0  0  0
   20.9523   -9.0297  -15.7423 C   0  0  1  0  0  0  0  0  0  0  0  0
   20.1679   -9.6528  -14.6779 C   0  0  0  0  0  0  0  0  0  0  0  0
   19.1115  -10.5981  -15.1003 C   0  0  0  0  0  0  0  0  0  0  0  0
   19.0953  -11.5897  -16.0258 C   0  0  0  0  0  0  0  0  0  0  0  0
   17.8757  -12.1412  -16.0256 N   0  0  0  0  0  0  0  0  0  0  0  0
   17.1098  -11.5176  -15.1137 C   0  0  0  0  0  0  0  0  0  0  0  0
   17.8539  -10.5829  -14.5514 N   0  0  0  0  0  0  0  0  0  0  0  0
   21.7254   -7.8365  -15.3471 C   0  0  0  0  0  0  0  0  0  0  0  0
   22.7809   -8.0112  -14.6997 O   0  0  0  0  0  0  0  0  0  0  0  0
   21.5581   -4.0574  -15.7640 C   0  0  0  0  0  0  0  0  0  0  0  0
   22.0828   -5.3506  -15.2340 C   0  0  2  0  0  0  0  0  0  0  0  0
   21.3555   -6.5070  -15.6496 N   0  0  0  0  0  0  0  0  0  0  0  0
   22.1503   -5.2328  -13.7395 C   0  0  0  0  0  0  0  0  0  0  0  0
   23.0592   -4.3566  -13.1898 O   0  0  0  0  0  0  0  0  0  0  0  0
   21.3842   -5.9285  -13.0285 O   0  0  0  0  0  0  0  0  0  0  0  0
  2  1  1  6
  2  3  1  0
  4  8  1  0
  4  3  1  0
  5  4  2  0
  6  5  1  0
  6  7  1  0
  7  8  2  0
  9  2  1  0
  9 10  2  0
 11  9  1  0
 12 11  1  0
 13 14  1  0
 12 13  1  1
 14 18  1  0
 15 14  2  0
 15 16  1  0
 16 17  1  0
 18 17  2  0
 19 12  1  0
 20 19  2  0
 22 23  1  0
 22 21  1  6
 23 19  1  0
 24 22  1  0
 25 24  1  0
 26 24  2  0
M  END
$$$$
