HHA.pdb
     RDKit          3D

 26 27  0  0  1  0  0  0  0  0999 V2000
   17.5956  -12.9273  -15.6861 N   0  0  0  0  0  0  0  0  0  0  0  0
   17.1120  -11.6411  -16.1425 C   0  0  1  0  0  0  0  0  0  0  0  0
   15.6160  -11.6410  -16.0025 C   0  0  0  0  0  0  0  0  0  0  0  0
   15.0773  -12.6033  -17.0034 C   0  0  0  0  0  0  0  0  0  0  0  0
   15.5854  -12.8546  -18.2779 C   0  0  0  0  0  0  0  0  0  0  0  0
   14.7975  -13.7943  -18.8464 N   0  0  0  0  0  0  0  0  0  0  0  0
   13.8305  -14.1409  -17.9998 C   0  0  0  0  0  0  0  0  0  0  0  0
   14.0102  -13.4180  -16.8965 N   0  0  0  0  0  0  0  0  0  0  0  0
   17.7518  -10.5314  -15.3858 C   0  0  0  0  0  0  0  0  0  0  0  0
   17.5376  -10.4222  -14.1634 O   0  0  0  0  0  0  0  0  0  0  0  0
   18.6057   -9.5799  -16.0017 N   0  0  0  0  0  0  0  0  0  0  0  0
   19.2429   -8.4705  -15.3252 C   0  0  1  0  0  0  0  0  0  0  0  0
   20.6605   -8.6398  -15.0118 C   0  0  0  0  0  0  0  0  0  0  0  0
   21.3529   -7.4722  -14.4242 C   0  0  0  0  0  0  0  0  0  0  0  0
   21.4887   -7.0446  -13.1441 C   0  0  0  0  0  0  0  0  0  0  0  0
   22.2063   -5.9149  -13.1551 N   0  0  0  0  0  0  0  0  0  0  0  0
   22.5325   -5.6118  -14.4234 C   0  0  0  0  0  0  0  0  0  0  0  0
   22.0178   -6.5518  -15.1949 N   0  0  0  0  0  0  0  0  0  0  0  0
   18.8977   -7.2405  -16.0638 C   0  0  0  0  0  0  0  0  0  0  0  0
   19.0661   -7.2353  -17.3029 O   0  0  0  0  0  0  0  0  0  0  0  0
   16.8209   -4.1760  -15.6335 C   0  0  0  0  0  0  0  0  0  0  0  0
   18.0074   -4.8927  -16.1878 C   0  0  2  0  0  0  0  0  0  0  0  0
   18.3888   -6.0652  -15.4675 N   0  0  0  0  0  0  0  0  0  0  0  0
   19.1292   -3.9008  -16.2867 C   0  0  0  0  0  0  0  0  0  0  0  0
   19.0459   -2.9071  -17.2362 O   0  0  0  0  0  0  0  0  0  0  0  0
   20.1105   -3.9967  -15.5094 O   0  0  0  0  0  0  0  0  0  0  0  0
  2  1  1  1
  2  3  1  0
  4  8  1  0
  4  3  1  0
  5  4  2  0
  6  5  1  0
  6  7  1  0
  7  8  2  0
  9  2  1  0
  9 10  2  0
 11  9  1  0
 12 11  1  0
 13 14  1  0
 12 13  1  6
 14 18  1  0
 15 14  2  0
 15 16  1  0
 16 17  1  0
 18 17  2  0
 19 12  1  0
 20 19  2  0
 22 23  1  0
 22 21  1  1
 23 19  1  0
 24 22  1  0
 25 24  1  0
 26 24  2  0
M  END
$$$$
