HHA.pdb
     RDKit          3D

 26 27  0  0  1  0  0  0  0  0999 V2000
   34.5500  -12.2600  -19.2299 N   0  0  0  0  0  0  0  0  0  0  0  0
   33.4372  -11.6819  -19.9537 C   0  0  1  0  0  0  0  0  0  0  0  0
   32.7813  -12.7836  -20.7369 C   0  0  0  0  0  0  0  0  0  0  0  0
   33.6409  -13.0572  -21.9219 C   0  0  0  0  0  0  0  0  0  0  0  0
   33.9855  -12.1561  -22.9295 C   0  0  0  0  0  0  0  0  0  0  0  0
   34.7764  -12.8156  -23.8050 N   0  0  0  0  0  0  0  0  0  0  0  0
   34.9428  -14.0728  -23.4002 C   0  0  0  0  0  0  0  0  0  0  0  0
   34.2554  -14.2046  -22.2677 N   0  0  0  0  0  0  0  0  0  0  0  0
   32.4910  -11.0056  -19.0260 C   0  0  0  0  0  0  0  0  0  0  0  0
   31.8859  -11.6804  -18.1712 O   0  0  0  0  0  0  0  0  0  0  0  0
   32.2438   -9.6089  -19.0717 N   0  0  0  0  0  0  0  0  0  0  0  0
   31.3840   -8.8842  -18.1605 C   0  0  1  0  0  0  0  0  0  0  0  0
   32.0312   -7.8524  -17.3526 C   0  0  0  0  0  0  0  0  0  0  0  0
   33.1167   -8.2997  -16.4527 C   0  0  0  0  0  0  0  0  0  0  0  0
   33.6180   -9.5287  -16.1732 C   0  0  0  0  0  0  0  0  0  0  0  0
   34.5962   -9.3854  -15.2710 N   0  0  0  0  0  0  0  0  0  0  0  0
   34.7292   -8.0826  -14.9677 C   0  0  0  0  0  0  0  0  0  0  0  0
   33.8355   -7.4220  -15.6807 N   0  0  0  0  0  0  0  0  0  0  0  0
   30.1980   -8.4453  -18.9209 C   0  0  0  0  0  0  0  0  0  0  0  0
   30.3852   -7.8260  -19.9910 O   0  0  0  0  0  0  0  0  0  0  0  0
   26.4062   -8.6524  -18.6751 C   0  0  0  0  0  0  0  0  0  0  0  0
   27.7154   -8.1783  -19.2135 C   0  0  2  0  0  0  0  0  0  0  0  0
   28.8620   -8.6764  -18.5237 N   0  0  0  0  0  0  0  0  0  0  0  0
   27.6780   -6.6782  -19.2372 C   0  0  0  0  0  0  0  0  0  0  0  0
   28.3593   -5.9884  -18.2595 O   0  0  0  0  0  0  0  0  0  0  0  0
   27.0327   -6.0893  -20.1389 O   0  0  0  0  0  0  0  0  0  0  0  0
  2  1  1  1
  2  3  1  0
  4  8  1  0
  4  3  1  0
  5  4  2  0
  6  5  1  0
  6  7  1  0
  7  8  2  0
  9  2  1  0
  9 10  2  0
 11  9  1  0
 12 11  1  0
 13 14  1  0
 12 13  1  6
 14 18  1  0
 15 14  2  0
 15 16  1  0
 16 17  1  0
 18 17  2  0
 19 12  1  0
 20 19  2  0
 22 23  1  0
 22 21  1  1
 23 19  1  0
 24 22  1  0
 25 24  1  0
 26 24  2  0
M  END
$$$$
