MCD.pdb
     RDKit          3D

 23 22  0  0  1  0  0  0  0  0999 V2000
   16.4738  -12.7603  -21.8069 C   0  0  0  0  0  0  0  0  0  0  0  0
   17.2432  -11.5191  -20.7451 S   0  0  0  0  0  0  0  0  0  0  0  0
   17.9811  -12.2718  -19.2755 C   0  0  0  0  0  0  0  0  0  0  0  0
   18.6035  -11.2435  -18.3724 C   0  0  0  0  0  0  0  0  0  0  0  0
   20.0069  -11.6398  -17.9588 C   0  0  2  0  0  0  0  0  0  0  0  0
   19.9820  -13.0471  -17.6535 N   0  0  0  0  0  0  0  0  0  0  0  0
   20.4728  -10.8339  -16.7967 C   0  0  0  0  0  0  0  0  0  0  0  0
   19.6962  -10.4773  -15.8636 O   0  0  0  0  0  0  0  0  0  0  0  0
   21.8246  -10.4165  -16.6676 N   0  0  0  0  0  0  0  0  0  0  0  0
   22.3075   -9.7042  -15.5143 C   0  0  1  0  0  0  0  0  0  0  0  0
   23.7106  -10.0901  -15.1274 C   0  0  0  0  0  0  0  0  0  0  0  0
   23.7950  -11.8006  -14.5299 S   0  0  0  0  0  0  0  0  0  0  0  0
   22.2769   -8.2327  -15.7065 C   0  0  0  0  0  0  0  0  0  0  0  0
   22.2843   -7.7423  -16.8641 O   0  0  0  0  0  0  0  0  0  0  0  0
   22.2383   -7.3216  -14.6097 N   0  0  0  0  0  0  0  0  0  0  0  0
   22.1076   -5.8849  -14.8098 C   0  0  1  0  0  0  0  0  0  0  0  0
   20.8222   -5.5800  -15.5397 C   0  0  0  0  0  0  0  0  0  0  0  0
   20.5414   -4.1405  -15.6822 C   0  0  0  0  0  0  0  0  0  0  0  0
   21.4480   -3.3587  -16.0288 O   0  0  0  0  0  0  0  0  0  0  0  0
   22.0620   -5.2453  -13.4707 C   0  0  0  0  0  0  0  0  0  0  0  0
   22.1075   -3.8715  -13.3728 O   0  0  0  0  0  0  0  0  0  0  0  0
   19.2774   -3.6668  -15.4314 O   0  0  0  0  0  0  0  0  0  0  0  0
   21.9830   -5.9256  -12.4270 O   0  0  0  0  0  0  0  0  0  0  0  0
  2  1  1  0
  3  2  1  0
  4  3  1  0
  5  4  1  0
  5  6  1  1
  7  5  1  0
  7  8  2  0
  9  7  1  0
 10 13  1  0
 10  9  1  0
 10 11  1  6
 12 11  1  0
 13 15  1  0
 14 13  2  0
 15 16  1  0
 16 20  1  0
 17 18  1  0
 16 17  1  1
 18 19  2  0
 20 23  2  0
 20 21  1  0
 22 18  1  0
M  END
$$$$
