MCD.pdb
     RDKit          3D

 23 22  0  0  1  0  0  0  0  0999 V2000
   28.3012  -27.8043  -16.1801 C   0  0  0  0  0  0  0  0  0  0  0  0
   29.0894  -26.7462  -17.4127 S   0  0  0  0  0  0  0  0  0  0  0  0
   28.3498  -25.0960  -17.4376 C   0  0  0  0  0  0  0  0  0  0  0  0
   27.2274  -24.9705  -16.4452 C   0  0  0  0  0  0  0  0  0  0  0  0
   26.5981  -23.5921  -16.4853 C   0  0  2  0  0  0  0  0  0  0  0  0
   27.6349  -22.6392  -16.1832 N   0  0  0  0  0  0  0  0  0  0  0  0
   25.4631  -23.4910  -15.5268 C   0  0  0  0  0  0  0  0  0  0  0  0
   24.4222  -24.2027  -15.6308 O   0  0  0  0  0  0  0  0  0  0  0  0
   25.4836  -22.5839  -14.4336 N   0  0  0  0  0  0  0  0  0  0  0  0
   24.4230  -22.5177  -13.4635 C   0  0  1  0  0  0  0  0  0  0  0  0
   24.7510  -21.6327  -12.2903 C   0  0  0  0  0  0  0  0  0  0  0  0
   26.3103  -22.1168  -11.5005 S   0  0  0  0  0  0  0  0  0  0  0  0
   23.1482  -22.0376  -14.0532 C   0  0  0  0  0  0  0  0  0  0  0  0
   23.1392  -21.0479  -14.8285 O   0  0  0  0  0  0  0  0  0  0  0  0
   21.8967  -22.6628  -13.7750 N   0  0  0  0  0  0  0  0  0  0  0  0
   20.6540  -22.1903  -14.3695 C   0  0  1  0  0  0  0  0  0  0  0  0
   19.6009  -23.2686  -14.2902 C   0  0  0  0  0  0  0  0  0  0  0  0
   18.3134  -22.8945  -14.9015 C   0  0  0  0  0  0  0  0  0  0  0  0
   18.1684  -21.7664  -15.4110 O   0  0  0  0  0  0  0  0  0  0  0  0
   20.1970  -21.0152  -13.5855 C   0  0  0  0  0  0  0  0  0  0  0  0
   19.5797  -19.9664  -14.2319 O   0  0  0  0  0  0  0  0  0  0  0  0
   17.2766  -23.7946  -14.9065 O   0  0  0  0  0  0  0  0  0  0  0  0
   20.3596  -20.9546  -12.3493 O   0  0  0  0  0  0  0  0  0  0  0  0
  2  1  1  0
  3  2  1  0
  4  3  1  0
  5  4  1  0
  5  6  1  1
  7  5  1  0
  7  8  2  0
  9  7  1  0
 10 13  1  0
 10  9  1  0
 10 11  1  1
 12 11  1  0
 13 15  1  0
 14 13  2  0
 15 16  1  0
 16 20  1  0
 17 18  1  0
 16 17  1  1
 18 19  2  0
 20 23  2  0
 20 21  1  0
 22 18  1  0
M  END
$$$$
