MCD.pdb
     RDKit          3D

 23 22  0  0  1  0  0  0  0  0999 V2000
   28.2402  -26.4186  -16.5533 C   0  0  0  0  0  0  0  0  0  0  0  0
   28.5469  -25.1638  -17.8149 S   0  0  0  0  0  0  0  0  0  0  0  0
   29.0994  -23.6071  -17.0786 C   0  0  0  0  0  0  0  0  0  0  0  0
   28.3987  -23.3226  -15.7792 C   0  0  0  0  0  0  0  0  0  0  0  0
   27.1446  -22.4979  -15.9901 C   0  0  2  0  0  0  0  0  0  0  0  0
   27.5583  -21.1327  -16.1889 N   0  0  0  0  0  0  0  0  0  0  0  0
   26.2152  -22.6271  -14.8340 C   0  0  0  0  0  0  0  0  0  0  0  0
   25.5806  -23.6942  -14.5900 O   0  0  0  0  0  0  0  0  0  0  0  0
   25.9859  -21.5532  -13.9326 N   0  0  0  0  0  0  0  0  0  0  0  0
   25.0169  -21.6274  -12.8715 C   0  0  1  0  0  0  0  0  0  0  0  0
   25.4146  -20.8371  -11.6531 C   0  0  0  0  0  0  0  0  0  0  0  0
   24.0504  -20.7043  -10.4653 S   0  0  0  0  0  0  0  0  0  0  0  0
   23.6748  -21.1592  -13.2994 C   0  0  0  0  0  0  0  0  0  0  0  0
   23.5043  -19.9697  -13.6690 O   0  0  0  0  0  0  0  0  0  0  0  0
   22.5364  -22.0185  -13.3121 N   0  0  0  0  0  0  0  0  0  0  0  0
   21.2242  -21.5474  -13.7335 C   0  0  1  0  0  0  0  0  0  0  0  0
   20.5484  -22.5948  -14.5846 C   0  0  0  0  0  0  0  0  0  0  0  0
   19.1896  -22.2271  -15.0202 C   0  0  0  0  0  0  0  0  0  0  0  0
   18.7304  -21.1005  -14.7495 O   0  0  0  0  0  0  0  0  0  0  0  0
   20.4110  -21.3247  -12.5115 C   0  0  0  0  0  0  0  0  0  0  0  0
   19.2159  -20.6454  -12.6060 O   0  0  0  0  0  0  0  0  0  0  0  0
   18.4339  -23.1314  -15.7246 O   0  0  0  0  0  0  0  0  0  0  0  0
   20.7861  -21.7401  -11.3956 O   0  0  0  0  0  0  0  0  0  0  0  0
  2  1  1  0
  3  2  1  0
  4  3  1  0
  5  4  1  0
  5  6  1  1
  7  5  1  0
  7  8  2  0
  9  7  1  0
 10 13  1  0
 10  9  1  0
 10 11  1  1
 12 11  1  0
 13 15  1  0
 14 13  2  0
 15 16  1  0
 16 20  1  0
 17 18  1  0
 16 17  1  6
 18 19  2  0
 20 23  2  0
 20 21  1  0
 22 18  1  0
M  END
$$$$
