MCD.pdb
     RDKit          3D

 23 22  0  0  1  0  0  0  0  0999 V2000
   17.5189  -17.1617  -15.8417 C   0  0  0  0  0  0  0  0  0  0  0  0
   18.0259  -15.6586  -14.9791 S   0  0  0  0  0  0  0  0  0  0  0  0
   17.9872  -14.2215  -16.0764 C   0  0  0  0  0  0  0  0  0  0  0  0
   18.4191  -12.9663  -15.3704 C   0  0  0  0  0  0  0  0  0  0  0  0
   18.4065  -11.7699  -16.3009 C   0  0  2  0  0  0  0  0  0  0  0  0
   19.1794  -12.1236  -17.4636 N   0  0  0  0  0  0  0  0  0  0  0  0
   18.9510  -10.5588  -15.6271 C   0  0  0  0  0  0  0  0  0  0  0  0
   18.5199  -10.1532  -14.5089 O   0  0  0  0  0  0  0  0  0  0  0  0
   19.9926   -9.7841  -16.2045 N   0  0  0  0  0  0  0  0  0  0  0  0
   20.4873   -8.5775  -15.5964 C   0  0  1  0  0  0  0  0  0  0  0  0
   21.9458   -8.3304  -15.8775 C   0  0  0  0  0  0  0  0  0  0  0  0
   23.0095   -9.4753  -14.9569 S   0  0  0  0  0  0  0  0  0  0  0  0
   19.7305   -7.3762  -16.0296 C   0  0  0  0  0  0  0  0  0  0  0  0
   19.3441   -7.2634  -17.2206 O   0  0  0  0  0  0  0  0  0  0  0  0
   19.4112   -6.3130  -15.1340 N   0  0  0  0  0  0  0  0  0  0  0  0
   18.6601   -5.1433  -15.5685 C   0  0  1  0  0  0  0  0  0  0  0  0
   17.3606   -5.0516  -14.8064 C   0  0  0  0  0  0  0  0  0  0  0  0
   16.5817   -3.8345  -15.0947 C   0  0  0  0  0  0  0  0  0  0  0  0
   16.8404   -3.1522  -16.1051 O   0  0  0  0  0  0  0  0  0  0  0  0
   19.4795   -3.9429  -15.2653 C   0  0  0  0  0  0  0  0  0  0  0  0
   19.7479   -3.0339  -16.2656 O   0  0  0  0  0  0  0  0  0  0  0  0
   15.5712   -3.4573  -14.2452 O   0  0  0  0  0  0  0  0  0  0  0  0
   19.9329   -3.7367  -14.1206 O   0  0  0  0  0  0  0  0  0  0  0  0
  2  1  1  0
  3  2  1  0
  4  3  1  0
  5  4  1  0
  5  6  1  6
  7  5  1  0
  7  8  2  0
  9  7  1  0
 10 13  1  0
 10  9  1  0
 10 11  1  6
 12 11  1  0
 13 15  1  0
 14 13  2  0
 15 16  1  0
 16 20  1  0
 17 18  1  0
 16 17  1  1
 18 19  2  0
 20 23  2  0
 20 21  1  0
 22 18  1  0
M  END
$$$$
