MCD.pdb
     RDKit          3D

 23 22  0  0  1  0  0  0  0  0999 V2000
   17.2830  -13.0375  -15.6159 C   0  0  0  0  0  0  0  0  0  0  0  0
   18.1363  -13.4808  -17.1442 S   0  0  0  0  0  0  0  0  0  0  0  0
   19.1776  -12.1262  -17.7370 C   0  0  0  0  0  0  0  0  0  0  0  0
   19.1770  -10.9620  -16.7856 C   0  0  0  0  0  0  0  0  0  0  0  0
   20.1741   -9.8993  -17.2029 C   0  0  2  0  0  0  0  0  0  0  0  0
   21.4783  -10.5105  -17.1982 N   0  0  0  0  0  0  0  0  0  0  0  0
   20.1165   -8.7212  -16.2942 C   0  0  0  0  0  0  0  0  0  0  0  0
   19.0239   -8.1891  -15.9421 O   0  0  0  0  0  0  0  0  0  0  0  0
   21.2922   -8.1229  -15.7669 N   0  0  0  0  0  0  0  0  0  0  0  0
   21.2515   -7.0207  -14.8429 C   0  0  1  0  0  0  0  0  0  0  0  0
   22.4452   -6.9750  -13.9262 C   0  0  0  0  0  0  0  0  0  0  0  0
   22.3811   -5.5449  -12.8125 S   0  0  0  0  0  0  0  0  0  0  0  0
   21.1570   -5.7096  -15.5326 C   0  0  0  0  0  0  0  0  0  0  0  0
   21.9613   -5.4160  -16.4531 O   0  0  0  0  0  0  0  0  0  0  0  0
   20.1691   -4.7389  -15.1917 N   0  0  0  0  0  0  0  0  0  0  0  0
   20.0469   -3.4814  -15.9163 C   0  0  1  0  0  0  0  0  0  0  0  0
   18.5977   -3.2101  -16.2390 C   0  0  0  0  0  0  0  0  0  0  0  0
   18.3655   -1.9208  -16.9136 C   0  0  0  0  0  0  0  0  0  0  0  0
   19.3268   -1.1740  -17.1812 O   0  0  0  0  0  0  0  0  0  0  0  0
   20.5518   -2.4006  -15.0324 C   0  0  0  0  0  0  0  0  0  0  0  0
   20.5971   -1.1057  -15.5015 O   0  0  0  0  0  0  0  0  0  0  0  0
   17.0864   -1.5479  -17.2449 O   0  0  0  0  0  0  0  0  0  0  0  0
   20.9379   -2.6382  -13.8693 O   0  0  0  0  0  0  0  0  0  0  0  0
  2  1  1  0
  3  2  1  0
  4  3  1  0
  5  4  1  0
  5  6  1  1
  7  5  1  0
  7  8  2  0
  9  7  1  0
 10 13  1  0
 10  9  1  0
 10 11  1  6
 12 11  1  0
 13 15  1  0
 14 13  2  0
 15 16  1  0
 16 20  1  0
 17 18  1  0
 16 17  1  1
 18 19  2  0
 20 23  2  0
 20 21  1  0
 22 18  1  0
M  END
$$$$
