MCD.pdb
     RDKit          3D

 23 22  0  0  1  0  0  0  0  0999 V2000
   28.7349  -13.5155  -15.3272 C   0  0  0  0  0  0  0  0  0  0  0  0
   27.1950  -12.5766  -15.4125 S   0  0  0  0  0  0  0  0  0  0  0  0
   27.2316  -11.3670  -16.7565 C   0  0  0  0  0  0  0  0  0  0  0  0
   26.0025  -10.5011  -16.7640 C   0  0  0  0  0  0  0  0  0  0  0  0
   24.7376  -11.3260  -16.6344 C   0  0  2  0  0  0  0  0  0  0  0  0
   24.6775  -12.2003  -17.7774 N   0  0  0  0  0  0  0  0  0  0  0  0
   23.5337  -10.4543  -16.5459 C   0  0  0  0  0  0  0  0  0  0  0  0
   23.1223   -9.7648  -17.5237 O   0  0  0  0  0  0  0  0  0  0  0  0
   22.7727  -10.3459  -15.3511 N   0  0  0  0  0  0  0  0  0  0  0  0
   21.6051   -9.5110  -15.2508 C   0  0  1  0  0  0  0  0  0  0  0  0
   20.5558  -10.0727  -14.3285 C   0  0  0  0  0  0  0  0  0  0  0  0
   20.0333  -11.7328  -14.8392 S   0  0  0  0  0  0  0  0  0  0  0  0
   21.9308   -8.1389  -14.7874 C   0  0  0  0  0  0  0  0  0  0  0  0
   22.9729   -7.9246  -14.1175 O   0  0  0  0  0  0  0  0  0  0  0  0
   21.0947   -7.0193  -15.0739 N   0  0  0  0  0  0  0  0  0  0  0  0
   21.5098   -5.6555  -14.7759 C   0  0  1  0  0  0  0  0  0  0  0  0
   22.6370   -5.2468  -15.6927 C   0  0  0  0  0  0  0  0  0  0  0  0
   23.1099   -3.8671  -15.4823 C   0  0  0  0  0  0  0  0  0  0  0  0
   22.6017   -3.1623  -14.5888 O   0  0  0  0  0  0  0  0  0  0  0  0
   20.3464   -4.7662  -15.0205 C   0  0  0  0  0  0  0  0  0  0  0  0
   20.2310   -3.5893  -14.3130 O   0  0  0  0  0  0  0  0  0  0  0  0
   24.1116   -3.3639  -16.2749 O   0  0  0  0  0  0  0  0  0  0  0  0
   19.4664   -5.0608  -15.8555 O   0  0  0  0  0  0  0  0  0  0  0  0
  2  1  1  0
  3  2  1  0
  4  3  1  0
  5  4  1  0
  5  6  1  6
  7  5  1  0
  7  8  2  0
  9  7  1  0
 10 13  1  0
 10  9  1  0
 10 11  1  1
 12 11  1  0
 13 15  1  0
 14 13  2  0
 15 16  1  0
 16 20  1  0
 17 18  1  0
 16 17  1  6
 18 19  2  0
 20 23  2  0
 20 21  1  0
 22 18  1  0
M  END
$$$$
