MCD.pdb
     RDKit          3D

 23 22  0  0  1  0  0  0  0  0999 V2000
   37.6276  -11.9357  -11.7059 C   0  0  0  0  0  0  0  0  0  0  0  0
   36.5103  -11.4343  -13.0327 S   0  0  0  0  0  0  0  0  0  0  0  0
   36.6169   -9.6571  -13.3507 C   0  0  0  0  0  0  0  0  0  0  0  0
   35.6663   -9.2238  -14.4319 C   0  0  0  0  0  0  0  0  0  0  0  0
   35.7437  -10.1344  -15.6412 C   0  0  2  0  0  0  0  0  0  0  0  0
   37.0420   -9.9471  -16.2359 N   0  0  0  0  0  0  0  0  0  0  0  0
   34.6496   -9.8398  -16.6072 C   0  0  0  0  0  0  0  0  0  0  0  0
   34.7169   -8.8885  -17.4387 O   0  0  0  0  0  0  0  0  0  0  0  0
   33.4596  -10.6146  -16.6513 N   0  0  0  0  0  0  0  0  0  0  0  0
   32.3810  -10.3247  -17.5585 C   0  0  1  0  0  0  0  0  0  0  0  0
   31.2975  -11.3701  -17.5400 C   0  0  0  0  0  0  0  0  0  0  0  0
   29.9035  -10.9100  -18.6053 S   0  0  0  0  0  0  0  0  0  0  0  0
   31.7495   -9.0099  -17.2823 C   0  0  0  0  0  0  0  0  0  0  0  0
   31.4839   -8.6675  -16.1022 O   0  0  0  0  0  0  0  0  0  0  0  0
   31.4201   -8.0897  -18.3211 N   0  0  0  0  0  0  0  0  0  0  0  0
   30.7997   -6.8028  -18.0379 C   0  0  1  0  0  0  0  0  0  0  0  0
   31.8465   -5.8123  -17.5896 C   0  0  0  0  0  0  0  0  0  0  0  0
   31.3163   -4.4665  -17.3085 C   0  0  0  0  0  0  0  0  0  0  0  0
   30.0886   -4.2569  -17.3540 O   0  0  0  0  0  0  0  0  0  0  0  0
   30.1834   -6.3124  -19.2965 C   0  0  0  0  0  0  0  0  0  0  0  0
   29.3062   -5.2506  -19.2539 O   0  0  0  0  0  0  0  0  0  0  0  0
   32.1813   -3.4469  -16.9969 O   0  0  0  0  0  0  0  0  0  0  0  0
   30.4422   -6.8417  -20.3970 O   0  0  0  0  0  0  0  0  0  0  0  0
  2  1  1  0
  3  2  1  0
  4  3  1  0
  5  4  1  0
  5  6  1  6
  7  5  1  0
  7  8  2  0
  9  7  1  0
 10 13  1  0
 10  9  1  0
 10 11  1  1
 12 11  1  0
 13 15  1  0
 14 13  2  0
 15 16  1  0
 16 20  1  0
 17 18  1  0
 16 17  1  6
 18 19  2  0
 20 23  2  0
 20 21  1  0
 22 18  1  0
M  END
$$$$
