MCD.pdb
     RDKit          3D

 23 22  0  0  1  0  0  0  0  0999 V2000
   21.3985  -27.0570  -13.0035 C   0  0  0  0  0  0  0  0  0  0  0  0
   20.4967  -28.0592  -11.8024 S   0  0  0  0  0  0  0  0  0  0  0  0
   19.7172  -27.0307  -10.5354 C   0  0  0  0  0  0  0  0  0  0  0  0
   19.4328  -25.6426  -11.0381 C   0  0  0  0  0  0  0  0  0  0  0  0
   18.9736  -24.7273   -9.9205 C   0  0  2  0  0  0  0  0  0  0  0  0
   17.7654  -25.2905   -9.3751 N   0  0  0  0  0  0  0  0  0  0  0  0
   18.7577  -23.3399  -10.4161 C   0  0  0  0  0  0  0  0  0  0  0  0
   17.6346  -22.9371  -10.8371 O   0  0  0  0  0  0  0  0  0  0  0  0
   19.8069  -22.3824  -10.4450 N   0  0  0  0  0  0  0  0  0  0  0  0
   19.6809  -21.1170  -11.1184 C   0  0  1  0  0  0  0  0  0  0  0  0
   20.7410  -20.1264  -10.7158 C   0  0  0  0  0  0  0  0  0  0  0  0
   20.4581  -18.4995  -11.4660 S   0  0  0  0  0  0  0  0  0  0  0  0
   19.7265  -21.2571  -12.5955 C   0  0  0  0  0  0  0  0  0  0  0  0
   20.2166  -22.2884  -13.1215 O   0  0  0  0  0  0  0  0  0  0  0  0
   19.2267  -20.2492  -13.4722 N   0  0  0  0  0  0  0  0  0  0  0  0
   18.4026  -20.5769  -14.6275 C   0  0  1  0  0  0  0  0  0  0  0  0
   17.1411  -21.2749  -14.1807 C   0  0  0  0  0  0  0  0  0  0  0  0
   16.1866  -21.5426  -15.2708 C   0  0  0  0  0  0  0  0  0  0  0  0
   16.5942  -21.6624  -16.4425 O   0  0  0  0  0  0  0  0  0  0  0  0
   18.0349  -19.3029  -15.2953 C   0  0  0  0  0  0  0  0  0  0  0  0
   17.5474  -18.2575  -14.5414 O   0  0  0  0  0  0  0  0  0  0  0  0
   14.8480  -21.6591  -14.9885 O   0  0  0  0  0  0  0  0  0  0  0  0
   18.1574  -19.1558  -16.5289 O   0  0  0  0  0  0  0  0  0  0  0  0
  2  1  1  0
  3  2  1  0
  4  3  1  0
  5  4  1  0
  5  6  1  6
  7  5  1  0
  7  8  2  0
  9  7  1  0
 10 13  1  0
 10  9  1  0
 10 11  1  1
 12 11  1  0
 13 15  1  0
 14 13  2  0
 15 16  1  0
 16 20  1  0
 17 18  1  0
 16 17  1  1
 18 19  2  0
 20 23  2  0
 20 21  1  0
 22 18  1  0
M  END
$$$$
