MCD.pdb
     RDKit          3D

 23 22  0  0  1  0  0  0  0  0999 V2000
   15.1074  -14.0435  -20.5103 C   0  0  0  0  0  0  0  0  0  0  0  0
   15.7351  -13.2227  -19.0295 S   0  0  0  0  0  0  0  0  0  0  0  0
   17.1315  -12.1400  -19.4153 C   0  0  0  0  0  0  0  0  0  0  0  0
   17.5137  -11.2802  -18.2427 C   0  0  0  0  0  0  0  0  0  0  0  0
   18.7334  -10.4329  -18.5457 C   0  0  2  0  0  0  0  0  0  0  0  0
   19.6758  -11.2719  -19.2403 N   0  0  0  0  0  0  0  0  0  0  0  0
   19.3178   -9.8660  -17.2990 C   0  0  0  0  0  0  0  0  0  0  0  0
   18.6464   -9.1516  -16.4992 O   0  0  0  0  0  0  0  0  0  0  0  0
   20.6712  -10.0960  -16.9334 N   0  0  0  0  0  0  0  0  0  0  0  0
   21.2549   -9.5425  -15.7403 C   0  0  1  0  0  0  0  0  0  0  0  0
   22.4802  -10.2883  -15.2823 C   0  0  0  0  0  0  0  0  0  0  0  0
   23.2230   -9.5212  -13.8162 S   0  0  0  0  0  0  0  0  0  0  0  0
   21.6260   -8.1146  -15.9040 C   0  0  0  0  0  0  0  0  0  0  0  0
   22.2915   -7.7411  -16.9031 O   0  0  0  0  0  0  0  0  0  0  0  0
   21.2533   -7.1169  -14.9552 N   0  0  0  0  0  0  0  0  0  0  0  0
   21.6646   -5.7274  -15.1012 C   0  0  1  0  0  0  0  0  0  0  0  0
   20.5294   -4.9095  -15.6671 C   0  0  0  0  0  0  0  0  0  0  0  0
   20.8091   -3.4645  -15.7372 C   0  0  0  0  0  0  0  0  0  0  0  0
   20.0355   -2.6516  -15.1950 O   0  0  0  0  0  0  0  0  0  0  0  0
   21.9999   -5.2119  -13.7499 C   0  0  0  0  0  0  0  0  0  0  0  0
   22.4929   -3.9321  -13.6147 O   0  0  0  0  0  0  0  0  0  0  0  0
   21.9250   -3.0199  -16.4023 O   0  0  0  0  0  0  0  0  0  0  0  0
   21.8452   -5.9133  -12.7290 O   0  0  0  0  0  0  0  0  0  0  0  0
  2  1  1  0
  3  2  1  0
  4  3  1  0
  5  4  1  0
  5  6  1  1
  7  5  1  0
  7  8  2  0
  9  7  1  0
 10 13  1  0
 10  9  1  0
 10 11  1  6
 12 11  1  0
 13 15  1  0
 14 13  2  0
 15 16  1  0
 16 20  1  0
 17 18  1  0
 16 17  1  1
 18 19  2  0
 20 23  2  0
 20 21  1  0
 22 18  1  0
M  END
$$$$
