MCD.pdb
     RDKit          3D

 23 22  0  0  1  0  0  0  0  0999 V2000
   17.3174  -14.7615  -17.3827 C   0  0  0  0  0  0  0  0  0  0  0  0
   18.9316  -15.3845  -17.8989 S   0  0  0  0  0  0  0  0  0  0  0  0
   20.0460  -14.0353  -18.3554 C   0  0  0  0  0  0  0  0  0  0  0  0
   19.5486  -12.7061  -17.8591 C   0  0  0  0  0  0  0  0  0  0  0  0
   20.4319  -11.5681  -18.3303 C   0  0  2  0  0  0  0  0  0  0  0  0
   21.7973  -12.0141  -18.2252 N   0  0  0  0  0  0  0  0  0  0  0  0
   20.1937  -10.3354  -17.5298 C   0  0  0  0  0  0  0  0  0  0  0  0
   19.0511   -9.8011  -17.4310 O   0  0  0  0  0  0  0  0  0  0  0  0
   21.2421   -9.6840  -16.8264 N   0  0  0  0  0  0  0  0  0  0  0  0
   21.0240   -8.5054  -16.0304 C   0  0  1  0  0  0  0  0  0  0  0  0
   21.9230   -8.4331  -14.8246 C   0  0  0  0  0  0  0  0  0  0  0  0
   21.6814   -6.8918  -13.8996 S   0  0  0  0  0  0  0  0  0  0  0  0
   21.2077   -7.2559  -16.8105 C   0  0  0  0  0  0  0  0  0  0  0  0
   22.2647   -7.0636  -17.4634 O   0  0  0  0  0  0  0  0  0  0  0  0
   20.2143   -6.2334  -16.8566 N   0  0  0  0  0  0  0  0  0  0  0  0
   20.4341   -4.9816  -17.5679 C   0  0  1  0  0  0  0  0  0  0  0  0
   19.1517   -4.5266  -18.2207 C   0  0  0  0  0  0  0  0  0  0  0  0
   19.2734   -3.2579  -18.9602 C   0  0  0  0  0  0  0  0  0  0  0  0
   18.8533   -2.1983  -18.4560 O   0  0  0  0  0  0  0  0  0  0  0  0
   20.8521   -3.9638  -16.5710 C   0  0  0  0  0  0  0  0  0  0  0  0
   21.5677   -2.8615  -16.9855 O   0  0  0  0  0  0  0  0  0  0  0  0
   19.8514   -3.2501  -20.2056 O   0  0  0  0  0  0  0  0  0  0  0  0
   20.5693   -4.0835  -15.3610 O   0  0  0  0  0  0  0  0  0  0  0  0
  2  1  1  0
  3  2  1  0
  4  3  1  0
  5  4  1  0
  5  6  1  1
  7  5  1  0
  7  8  2  0
  9  7  1  0
 10 13  1  0
 10  9  1  0
 10 11  1  1
 12 11  1  0
 13 15  1  0
 14 13  2  0
 15 16  1  0
 16 20  1  0
 17 18  1  0
 16 17  1  1
 18 19  2  0
 20 23  2  0
 20 21  1  0
 22 18  1  0
M  END
$$$$
