MCD.pdb
     RDKit          3D

 23 22  0  0  1  0  0  0  0  0999 V2000
   18.2719  -12.4533  -19.0206 C   0  0  0  0  0  0  0  0  0  0  0  0
   19.2052  -13.9921  -19.1663 S   0  0  0  0  0  0  0  0  0  0  0  0
   20.9876  -13.6863  -19.1747 C   0  0  0  0  0  0  0  0  0  0  0  0
   21.3941  -12.7157  -18.1009 C   0  0  0  0  0  0  0  0  0  0  0  0
   22.8815  -12.4267  -18.1435 C   0  0  2  0  0  0  0  0  0  0  0  0
   23.5654  -13.6543  -17.8277 N   0  0  0  0  0  0  0  0  0  0  0  0
   23.2449  -11.3365  -17.1967 C   0  0  0  0  0  0  0  0  0  0  0  0
   23.5192  -11.5571  -15.9814 O   0  0  0  0  0  0  0  0  0  0  0  0
   23.3050   -9.9773  -17.6057 N   0  0  0  0  0  0  0  0  0  0  0  0
   23.6054   -8.9071  -16.6920 C   0  0  1  0  0  0  0  0  0  0  0  0
   25.0297   -8.4288  -16.7916 C   0  0  0  0  0  0  0  0  0  0  0  0
   25.3541   -7.0484  -15.6606 S   0  0  0  0  0  0  0  0  0  0  0  0
   22.7168   -7.7339  -16.8857 C   0  0  0  0  0  0  0  0  0  0  0  0
   22.6124   -7.1952  -18.0168 O   0  0  0  0  0  0  0  0  0  0  0  0
   21.9536   -7.1720  -15.8197 N   0  0  0  0  0  0  0  0  0  0  0  0
   21.1554   -5.9672  -15.9997 C   0  0  1  0  0  0  0  0  0  0  0  0
   19.9838   -5.9770  -15.0482 C   0  0  0  0  0  0  0  0  0  0  0  0
   19.1166   -4.7903  -15.1537 C   0  0  0  0  0  0  0  0  0  0  0  0
   18.9381   -4.2436  -16.2594 O   0  0  0  0  0  0  0  0  0  0  0  0
   22.0197   -4.8020  -15.6840 C   0  0  0  0  0  0  0  0  0  0  0  0
   21.9918   -3.6944  -16.5033 O   0  0  0  0  0  0  0  0  0  0  0  0
   18.5077   -4.2916  -14.0287 O   0  0  0  0  0  0  0  0  0  0  0  0
   22.7745   -4.8022  -14.6897 O   0  0  0  0  0  0  0  0  0  0  0  0
  2  1  1  0
  3  2  1  0
  4  3  1  0
  5  4  1  0
  5  6  1  1
  7  5  1  0
  7  8  2  0
  9  7  1  0
 10 13  1  0
 10  9  1  0
 10 11  1  6
 12 11  1  0
 13 15  1  0
 14 13  2  0
 15 16  1  0
 16 20  1  0
 17 18  1  0
 16 17  1  1
 18 19  2  0
 20 23  2  0
 20 21  1  0
 22 18  1  0
M  END
$$$$
