MCD.pdb
     RDKit          3D

 23 22  0  0  1  0  0  0  0  0999 V2000
   28.7685   -9.8936  -16.9293 C   0  0  0  0  0  0  0  0  0  0  0  0
   28.7907  -11.6739  -16.6289 S   0  0  0  0  0  0  0  0  0  0  0  0
   27.2106  -12.2524  -15.9661 C   0  0  0  0  0  0  0  0  0  0  0  0
   26.0598  -11.4159  -16.4522 C   0  0  0  0  0  0  0  0  0  0  0  0
   24.7300  -11.9640  -15.9738 C   0  0  2  0  0  0  0  0  0  0  0  0
   24.5351  -13.2374  -16.6179 N   0  0  0  0  0  0  0  0  0  0  0  0
   23.6190  -11.0200  -16.2763 C   0  0  0  0  0  0  0  0  0  0  0  0
   23.1784  -10.8446  -17.4493 O   0  0  0  0  0  0  0  0  0  0  0  0
   22.9857  -10.2569  -15.2590 N   0  0  0  0  0  0  0  0  0  0  0  0
   21.8964   -9.3571  -15.5317 C   0  0  1  0  0  0  0  0  0  0  0  0
   20.6412   -9.7041  -14.7758 C   0  0  0  0  0  0  0  0  0  0  0  0
   20.0772  -11.3870  -15.1492 S   0  0  0  0  0  0  0  0  0  0  0  0
   22.2389   -7.9464  -15.2219 C   0  0  0  0  0  0  0  0  0  0  0  0
   22.8559   -7.6593  -14.1648 O   0  0  0  0  0  0  0  0  0  0  0  0
   21.8919   -6.8696  -16.0906 N   0  0  0  0  0  0  0  0  0  0  0  0
   22.2971   -5.4986  -15.8128 C   0  0  1  0  0  0  0  0  0  0  0  0
   22.0566   -4.6332  -17.0258 C   0  0  0  0  0  0  0  0  0  0  0  0
   22.3740   -3.2093  -16.8181 C   0  0  0  0  0  0  0  0  0  0  0  0
   22.9241   -2.8396  -15.7626 O   0  0  0  0  0  0  0  0  0  0  0  0
   21.4594   -4.9987  -14.6935 C   0  0  0  0  0  0  0  0  0  0  0  0
   21.8903   -3.9196  -13.9527 O   0  0  0  0  0  0  0  0  0  0  0  0
   22.0606   -2.2942  -17.7925 O   0  0  0  0  0  0  0  0  0  0  0  0
   20.3694   -5.5351  -14.4065 O   0  0  0  0  0  0  0  0  0  0  0  0
  2  1  1  0
  3  2  1  0
  4  3  1  0
  5  4  1  0
  5  6  1  6
  7  5  1  0
  7  8  2  0
  9  7  1  0
 10 13  1  0
 10  9  1  0
 10 11  1  1
 12 11  1  0
 13 15  1  0
 14 13  2  0
 15 16  1  0
 16 20  1  0
 17 18  1  0
 16 17  1  6
 18 19  2  0
 20 23  2  0
 20 21  1  0
 22 18  1  0
M  END
$$$$
