MCD.pdb
     RDKit          3D

 23 22  0  0  1  0  0  0  0  0999 V2000
   28.3866  -17.5069   -4.4883 C   0  0  0  0  0  0  0  0  0  0  0  0
   28.9655  -19.1849   -4.8191 S   0  0  0  0  0  0  0  0  0  0  0  0
   27.6913  -20.1750   -5.6357 C   0  0  0  0  0  0  0  0  0  0  0  0
   27.1983  -19.5226   -6.8974 C   0  0  0  0  0  0  0  0  0  0  0  0
   26.0453  -20.2923   -7.5102 C   0  0  2  0  0  0  0  0  0  0  0  0
   26.2377  -21.6823   -7.1856 N   0  0  0  0  0  0  0  0  0  0  0  0
   25.9765  -20.0766   -8.9819 C   0  0  0  0  0  0  0  0  0  0  0  0
   26.5429  -19.0990   -9.5513 O   0  0  0  0  0  0  0  0  0  0  0  0
   25.2666  -20.9616   -9.8370 N   0  0  0  0  0  0  0  0  0  0  0  0
   25.2167  -20.7845  -11.2640 C   0  0  1  0  0  0  0  0  0  0  0  0
   25.9579  -21.8568  -12.0178 C   0  0  0  0  0  0  0  0  0  0  0  0
   27.7505  -21.7325  -11.7713 S   0  0  0  0  0  0  0  0  0  0  0  0
   23.8252  -20.7453  -11.7793 C   0  0  0  0  0  0  0  0  0  0  0  0
   22.9043  -21.3464  -11.1700 O   0  0  0  0  0  0  0  0  0  0  0  0
   23.4719  -20.0379  -12.9665 N   0  0  0  0  0  0  0  0  0  0  0  0
   22.0869  -19.9043  -13.3966 C   0  0  1  0  0  0  0  0  0  0  0  0
   21.9713  -18.8149  -14.4348 C   0  0  0  0  0  0  0  0  0  0  0  0
   20.5954  -18.5818  -14.9077 C   0  0  0  0  0  0  0  0  0  0  0  0
   19.6370  -19.1420  -14.3413 O   0  0  0  0  0  0  0  0  0  0  0  0
   21.6779  -21.1942  -14.0076 C   0  0  0  0  0  0  0  0  0  0  0  0
   20.4323  -21.7130  -13.7279 O   0  0  0  0  0  0  0  0  0  0  0  0
   20.3760  -17.7453  -15.9742 O   0  0  0  0  0  0  0  0  0  0  0  0
   22.4391  -21.8225  -14.7719 O   0  0  0  0  0  0  0  0  0  0  0  0
  2  1  1  0
  3  2  1  0
  4  3  1  0
  5  4  1  0
  5  6  1  6
  7  5  1  0
  7  8  2  0
  9  7  1  0
 10 13  1  0
 10  9  1  0
 10 11  1  6
 12 11  1  0
 13 15  1  0
 14 13  2  0
 15 16  1  0
 16 20  1  0
 17 18  1  0
 16 17  1  6
 18 19  2  0
 20 23  2  0
 20 21  1  0
 22 18  1  0
M  END
$$$$
