MCD.pdb
     RDKit          3D

 23 22  0  0  1  0  0  0  0  0999 V2000
   27.1614  -11.7893  -15.0026 C   0  0  0  0  0  0  0  0  0  0  0  0
   27.0774  -11.5113  -16.7847 S   0  0  0  0  0  0  0  0  0  0  0  0
   25.4229  -11.8530  -17.4300 C   0  0  0  0  0  0  0  0  0  0  0  0
   24.3878  -10.9456  -16.8253 C   0  0  0  0  0  0  0  0  0  0  0  0
   23.0085  -11.2156  -17.3930 C   0  0  2  0  0  0  0  0  0  0  0  0
   23.0871  -11.0241  -18.8183 N   0  0  0  0  0  0  0  0  0  0  0  0
   21.9885  -10.3244  -16.7747 C   0  0  0  0  0  0  0  0  0  0  0  0
   21.5419   -9.2958  -17.3607 O   0  0  0  0  0  0  0  0  0  0  0  0
   21.4545  -10.5792  -15.4831 N   0  0  0  0  0  0  0  0  0  0  0  0
   20.4603   -9.7340  -14.8766 C   0  0  1  0  0  0  0  0  0  0  0  0
   19.7057  -10.4147  -13.7654 C   0  0  0  0  0  0  0  0  0  0  0  0
   18.6949   -9.2396  -12.8234 S   0  0  0  0  0  0  0  0  0  0  0  0
   21.0412   -8.4815  -14.3315 C   0  0  0  0  0  0  0  0  0  0  0  0
   22.0436   -8.5225  -13.5739 O   0  0  0  0  0  0  0  0  0  0  0  0
   20.5015   -7.1964  -14.6345 N   0  0  0  0  0  0  0  0  0  0  0  0
   21.1153   -5.9709  -14.1420 C   0  0  1  0  0  0  0  0  0  0  0  0
   21.9753   -5.3552  -15.2188 C   0  0  0  0  0  0  0  0  0  0  0  0
   22.5329   -4.0391  -14.8604 C   0  0  0  0  0  0  0  0  0  0  0  0
   22.2838   -3.5376  -13.7470 O   0  0  0  0  0  0  0  0  0  0  0  0
   20.0230   -5.0247  -13.8013 C   0  0  0  0  0  0  0  0  0  0  0  0
   20.3260   -3.8360  -13.1735 O   0  0  0  0  0  0  0  0  0  0  0  0
   23.3268   -3.3702  -15.7588 O   0  0  0  0  0  0  0  0  0  0  0  0
   18.8316   -5.2817  -14.0712 O   0  0  0  0  0  0  0  0  0  0  0  0
  2  1  1  0
  3  2  1  0
  4  3  1  0
  5  4  1  0
  5  6  1  6
  7  5  1  0
  7  8  2  0
  9  7  1  0
 10 13  1  0
 10  9  1  0
 10 11  1  1
 12 11  1  0
 13 15  1  0
 14 13  2  0
 15 16  1  0
 16 20  1  0
 17 18  1  0
 16 17  1  6
 18 19  2  0
 20 23  2  0
 20 21  1  0
 22 18  1  0
M  END
$$$$
