WAR.pdb
     RDKit          3D

 31 32  0  0  1  0  0  0  0  0999 V2000
   28.9429  -21.9253  -10.6952 N   0  0  0  0  0  0  0  0  0  0  0  0
   27.6334  -21.3573  -10.3414 C   0  0  1  0  0  0  0  0  0  0  0  0
   27.8118  -20.1075   -9.5551 C   0  0  0  0  0  0  0  0  0  0  0  0
   28.7426  -20.1651   -8.4282 C   0  0  0  0  0  0  0  0  0  0  0  0
   30.0926  -20.4944   -8.4327 C   0  0  0  0  0  0  0  0  0  0  0  0
   30.5724  -20.4299   -7.1978 N   0  0  0  0  0  0  0  0  0  0  0  0
   29.6039  -20.0712   -6.3632 C   0  0  0  0  0  0  0  0  0  0  0  0
   29.5867  -19.8521   -5.0030 C   0  0  0  0  0  0  0  0  0  0  0  0
   28.4289  -19.4590   -4.3494 C   0  0  0  0  0  0  0  0  0  0  0  0
   27.2723  -19.2848   -5.0780 C   0  0  0  0  0  0  0  0  0  0  0  0
   27.3037  -19.5080   -6.4403 C   0  0  0  0  0  0  0  0  0  0  0  0
   28.4508  -19.8983   -7.0940 C   0  0  0  0  0  0  0  0  0  0  0  0
   26.8738  -21.2579  -11.5890 C   0  0  0  0  0  0  0  0  0  0  0  0
   27.4008  -21.5104  -12.7207 O   0  0  0  0  0  0  0  0  0  0  0  0
   24.5962  -22.7465  -12.7447 C   0  0  0  0  0  0  0  0  0  0  0  0
   24.6588  -21.2040  -12.7001 C   0  0  2  0  0  0  0  0  0  0  0  0
   25.5157  -20.8807  -11.5641 N   0  0  0  0  0  0  0  0  0  0  0  0
   23.2896  -20.7593  -12.4123 C   0  0  0  0  0  0  0  0  0  0  0  0
   22.6559  -21.0547  -11.3735 O   0  0  0  0  0  0  0  0  0  0  0  0
   22.4075  -17.3780  -18.9121 N   0  0  0  0  0  0  0  0  0  0  0  0
   22.7670  -18.4088  -18.0047 C   0  0  0  0  0  0  0  0  0  0  0  0
   23.3682  -19.4506  -18.4608 N   0  0  0  0  0  0  0  0  0  0  0  0
   22.4938  -18.3433  -16.6180 N   0  0  0  0  0  0  0  0  0  0  0  0
   21.8064  -17.2418  -15.9864 C   0  0  0  0  0  0  0  0  0  0  0  0
   21.6785  -17.4585  -14.4985 C   0  0  0  0  0  0  0  0  0  0  0  0
   20.7722  -18.5987  -14.2354 C   0  0  0  0  0  0  0  0  0  0  0  0
   21.2342  -19.5165  -13.1317 C   0  0  2  0  0  0  0  0  0  0  0  0
   22.6017  -19.9377  -13.3496 N   0  0  0  0  0  0  0  0  0  0  0  0
   20.3261  -20.6560  -12.8948 C   0  0  0  0  0  0  0  0  0  0  0  0
   20.4605  -21.9129  -13.4429 O   0  0  0  0  0  0  0  0  0  0  0  0
   19.3387  -20.4758  -12.1266 O   0  0  0  0  0  0  0  0  0  0  0  0
  2  1  1  6
  2 13  1  0
  3  2  1  0
  3  4  1  0
  4 12  1  0
  4  5  2  0
  5  6  1  0
  7  6  1  0
  7  8  2  0
  9  8  1  0
 10  9  2  0
 11 10  1  0
 11 12  2  0
 12  7  1  0
 13 14  2  0
 16 15  1  1
 17 13  1  0
 17 16  1  0
 18 16  1  0
 18 19  2  0
 20 21  1  0
 21 22  2  0
 21 23  1  0
 23 24  1  0
 24 25  1  0
 25 26  1  0
 27 26  1  6
 27 28  1  0
 28 18  1  0
 29 27  1  0
 30 29  1  0
 31 29  2  0
M  END
$$$$
