WAR.pdb
     RDKit          3D

 31 32  0  0  1  0  0  0  0  0999 V2000
   27.4810  -19.1829   -9.7512 N   0  0  0  0  0  0  0  0  0  0  0  0
   26.7623  -20.4609   -9.6392 C   0  0  1  0  0  0  0  0  0  0  0  0
   26.2282  -20.6302   -8.2614 C   0  0  0  0  0  0  0  0  0  0  0  0
   26.9802  -19.9934   -7.1802 C   0  0  0  0  0  0  0  0  0  0  0  0
   27.0064  -18.6537   -6.8125 C   0  0  0  0  0  0  0  0  0  0  0  0
   27.8213  -18.4900   -5.7787 N   0  0  0  0  0  0  0  0  0  0  0  0
   28.3438  -19.6614   -5.4352 C   0  0  0  0  0  0  0  0  0  0  0  0
   29.2197  -20.0285   -4.4370 C   0  0  0  0  0  0  0  0  0  0  0  0
   29.6105  -21.3479   -4.2681 C   0  0  0  0  0  0  0  0  0  0  0  0
   29.1111  -22.3104   -5.1185 C   0  0  0  0  0  0  0  0  0  0  0  0
   28.2344  -21.9287   -6.1147 C   0  0  0  0  0  0  0  0  0  0  0  0
   27.8431  -20.6200   -6.2863 C   0  0  0  0  0  0  0  0  0  0  0  0
   25.7953  -20.4905  -10.7379 C   0  0  0  0  0  0  0  0  0  0  0  0
   24.7757  -19.7276  -10.7589 O   0  0  0  0  0  0  0  0  0  0  0  0
   25.8400  -21.9699  -14.1326 C   0  0  0  0  0  0  0  0  0  0  0  0
   25.0766  -21.3070  -12.9652 C   0  0  2  0  0  0  0  0  0  0  0  0
   25.9786  -21.3751  -11.8201 N   0  0  0  0  0  0  0  0  0  0  0  0
   23.9128  -22.1658  -12.7132 C   0  0  0  0  0  0  0  0  0  0  0  0
   23.9819  -23.3341  -12.2679 O   0  0  0  0  0  0  0  0  0  0  0  0
   20.2917  -23.0162   -7.5969 N   0  0  0  0  0  0  0  0  0  0  0  0
   18.9236  -23.2565   -7.8896 C   0  0  0  0  0  0  0  0  0  0  0  0
   18.2656  -24.0691   -7.1402 N   0  0  0  0  0  0  0  0  0  0  0  0
   18.2484  -22.6420   -8.9704 N   0  0  0  0  0  0  0  0  0  0  0  0
   18.9014  -21.8210   -9.9626 C   0  0  0  0  0  0  0  0  0  0  0  0
   19.8569  -22.6336  -10.8015 C   0  0  0  0  0  0  0  0  0  0  0  0
   20.4449  -21.7797  -11.8579 C   0  0  0  0  0  0  0  0  0  0  0  0
   21.4269  -22.4904  -12.7548 C   0  0  2  0  0  0  0  0  0  0  0  0
   22.6027  -21.6767  -12.9796 N   0  0  0  0  0  0  0  0  0  0  0  0
   20.8295  -22.9749  -14.0148 C   0  0  0  0  0  0  0  0  0  0  0  0
   20.4239  -24.2683  -14.2620 O   0  0  0  0  0  0  0  0  0  0  0  0
   20.6715  -22.1428  -14.9530 O   0  0  0  0  0  0  0  0  0  0  0  0
  2  1  1  1
  2 13  1  0
  3  2  1  0
  3  4  1  0
  4 12  1  0
  4  5  2  0
  5  6  1  0
  7  6  1  0
  7  8  2  0
  9  8  1  0
 10  9  2  0
 11 10  1  0
 11 12  2  0
 12  7  1  0
 13 14  2  0
 16 15  1  6
 17 13  1  0
 17 16  1  0
 18 16  1  0
 18 19  2  0
 20 21  1  0
 21 22  2  0
 21 23  1  0
 23 24  1  0
 24 25  1  0
 25 26  1  0
 27 26  1  6
 27 28  1  0
 28 18  1  0
 29 27  1  0
 30 29  1  0
 31 29  2  0
M  END
$$$$
