WAR.pdb
     RDKit          3D

 31 32  0  0  1  0  0  0  0  0999 V2000
   27.0952  -22.4828  -11.1649 N   0  0  0  0  0  0  0  0  0  0  0  0
   26.3494  -21.5167  -10.3446 C   0  0  1  0  0  0  0  0  0  0  0  0
   27.1535  -20.2808  -10.1492 C   0  0  0  0  0  0  0  0  0  0  0  0
   28.2404  -20.3492   -9.1727 C   0  0  0  0  0  0  0  0  0  0  0  0
   29.5548  -20.7576   -9.3634 C   0  0  0  0  0  0  0  0  0  0  0  0
   30.2194  -20.6734   -8.2186 N   0  0  0  0  0  0  0  0  0  0  0  0
   29.4092  -20.2258   -7.2666 C   0  0  0  0  0  0  0  0  0  0  0  0
   29.6104  -19.9531   -5.9310 C   0  0  0  0  0  0  0  0  0  0  0  0
   28.5876  -19.4670   -5.1311 C   0  0  0  0  0  0  0  0  0  0  0  0
   27.3445  -19.2535   -5.6860 C   0  0  0  0  0  0  0  0  0  0  0  0
   27.1567  -19.5312   -7.0255 C   0  0  0  0  0  0  0  0  0  0  0  0
   28.1691  -20.0137   -7.8241 C   0  0  0  0  0  0  0  0  0  0  0  0
   25.0359  -21.3657  -10.9733 C   0  0  0  0  0  0  0  0  0  0  0  0
   24.8889  -21.3795  -12.2384 O   0  0  0  0  0  0  0  0  0  0  0  0
   21.5630  -21.3099   -9.6059 C   0  0  0  0  0  0  0  0  0  0  0  0
   22.5649  -21.3786  -10.7793 C   0  0  2  0  0  0  0  0  0  0  0  0
   23.8831  -21.2061  -10.1778 N   0  0  0  0  0  0  0  0  0  0  0  0
   22.2658  -20.2166  -11.6253 C   0  0  0  0  0  0  0  0  0  0  0  0
   22.5325  -19.0326  -11.3170 O   0  0  0  0  0  0  0  0  0  0  0  0
   23.0119  -17.6026  -19.2420 N   0  0  0  0  0  0  0  0  0  0  0  0
   22.3533  -16.4952  -18.6460 C   0  0  0  0  0  0  0  0  0  0  0  0
   21.7090  -15.6794  -19.4038 N   0  0  0  0  0  0  0  0  0  0  0  0
   22.3727  -16.2466  -17.2533 N   0  0  0  0  0  0  0  0  0  0  0  0
   22.8298  -17.2033  -16.2733 C   0  0  0  0  0  0  0  0  0  0  0  0
   21.7398  -18.1842  -15.9171 C   0  0  0  0  0  0  0  0  0  0  0  0
   22.2161  -19.0962  -14.8531 C   0  0  0  0  0  0  0  0  0  0  0  0
   21.2433  -19.2847  -13.7164 C   0  0  2  0  0  0  0  0  0  0  0  0
   21.6314  -20.4048  -12.8857 N   0  0  0  0  0  0  0  0  0  0  0  0
   19.8360  -19.3705  -14.1540 C   0  0  0  0  0  0  0  0  0  0  0  0
   19.0102  -18.2969  -14.4064 O   0  0  0  0  0  0  0  0  0  0  0  0
   19.3354  -20.5200  -14.3142 O   0  0  0  0  0  0  0  0  0  0  0  0
  2  1  1  6
  2 13  1  0
  3  2  1  0
  3  4  1  0
  4 12  1  0
  4  5  2  0
  5  6  1  0
  7  6  1  0
  7  8  2  0
  9  8  1  0
 10  9  2  0
 11 10  1  0
 11 12  2  0
 12  7  1  0
 13 14  2  0
 16 15  1  1
 17 13  1  0
 17 16  1  0
 18 16  1  0
 18 19  2  0
 20 21  1  0
 21 22  2  0
 21 23  1  0
 23 24  1  0
 24 25  1  0
 25 26  1  0
 27 26  1  6
 27 28  1  0
 28 18  1  0
 29 27  1  0
 30 29  1  0
 31 29  2  0
M  END
$$$$
