WAR.pdb
     RDKit          3D

 31 32  0  0  1  0  0  0  0  0999 V2000
   23.7867  -15.3233  -16.5683 N   0  0  0  0  0  0  0  0  0  0  0  0
   23.7039  -16.7648  -16.8475 C   0  0  1  0  0  0  0  0  0  0  0  0
   24.0533  -17.5441  -15.6298 C   0  0  0  0  0  0  0  0  0  0  0  0
   25.4635  -17.5632  -15.2417 C   0  0  0  0  0  0  0  0  0  0  0  0
   26.1763  -16.6196  -14.5121 C   0  0  0  0  0  0  0  0  0  0  0  0
   27.4359  -17.0143  -14.3812 N   0  0  0  0  0  0  0  0  0  0  0  0
   27.6009  -18.1823  -14.9907 C   0  0  0  0  0  0  0  0  0  0  0  0
   28.6950  -19.0080  -15.1310 C   0  0  0  0  0  0  0  0  0  0  0  0
   28.6087  -20.2115  -15.8139 C   0  0  0  0  0  0  0  0  0  0  0  0
   27.4020  -20.5871  -16.3632 C   0  0  0  0  0  0  0  0  0  0  0  0
   26.3138  -19.7501  -16.2153 C   0  0  0  0  0  0  0  0  0  0  0  0
   26.3943  -18.5542  -15.5380 C   0  0  0  0  0  0  0  0  0  0  0  0
   22.3825  -16.9985  -17.4328 C   0  0  0  0  0  0  0  0  0  0  0  0
   21.3090  -16.7411  -16.7975 O   0  0  0  0  0  0  0  0  0  0  0  0
   21.1514  -17.9748  -20.8042 C   0  0  0  0  0  0  0  0  0  0  0  0
   20.9445  -17.8064  -19.2830 C   0  0  2  0  0  0  0  0  0  0  0  0
   22.2671  -17.5161  -18.7389 N   0  0  0  0  0  0  0  0  0  0  0  0
   20.5003  -19.1179  -18.7951 C   0  0  0  0  0  0  0  0  0  0  0  0
   21.2354  -20.1290  -18.7219 O   0  0  0  0  0  0  0  0  0  0  0  0
   21.2232  -18.3514  -12.5937 N   0  0  0  0  0  0  0  0  0  0  0  0
   19.9775  -18.9738  -12.3179 C   0  0  0  0  0  0  0  0  0  0  0  0
   19.3249  -18.6111  -11.2703 N   0  0  0  0  0  0  0  0  0  0  0  0
   19.4190  -19.9773  -13.1442 N   0  0  0  0  0  0  0  0  0  0  0  0
   20.0266  -20.4378  -14.3703 C   0  0  0  0  0  0  0  0  0  0  0  0
   19.2507  -19.9663  -15.5756 C   0  0  0  0  0  0  0  0  0  0  0  0
   19.2987  -20.9978  -16.6360 C   0  0  0  0  0  0  0  0  0  0  0  0
   18.6557  -20.5823  -17.9351 C   0  0  2  0  0  0  0  0  0  0  0  0
   19.1537  -19.2941  -18.3684 N   0  0  0  0  0  0  0  0  0  0  0  0
   17.1806  -20.6333  -17.9047 C   0  0  0  0  0  0  0  0  0  0  0  0
   16.3391  -19.5616  -18.1084 O   0  0  0  0  0  0  0  0  0  0  0  0
   16.6319  -21.7482  -17.6733 O   0  0  0  0  0  0  0  0  0  0  0  0
  2  1  1  1
  2 13  1  0
  3  2  1  0
  3  4  1  0
  4 12  1  0
  4  5  2  0
  5  6  1  0
  7  6  1  0
  7  8  2  0
  9  8  1  0
 10  9  2  0
 11 10  1  0
 11 12  2  0
 12  7  1  0
 13 14  2  0
 16 15  1  6
 17 13  1  0
 17 16  1  0
 18 16  1  0
 18 19  2  0
 20 21  1  0
 21 22  2  0
 21 23  1  0
 23 24  1  0
 24 25  1  0
 25 26  1  0
 27 26  1  1
 27 28  1  0
 28 18  1  0
 29 27  1  0
 30 29  1  0
 31 29  2  0
M  END
$$$$
