WAR.pdb
     RDKit          3D

 31 32  0  0  1  0  0  0  0  0999 V2000
   28.2624  -20.2907  -10.0943 N   0  0  0  0  0  0  0  0  0  0  0  0
   26.9073  -20.7675   -9.7797 C   0  0  1  0  0  0  0  0  0  0  0  0
   26.3338  -19.9790   -8.6566 C   0  0  0  0  0  0  0  0  0  0  0  0
   27.2831  -19.3947   -7.7093 C   0  0  0  0  0  0  0  0  0  0  0  0
   27.7925  -18.1024   -7.6758 C   0  0  0  0  0  0  0  0  0  0  0  0
   28.6308  -17.9789   -6.6553 N   0  0  0  0  0  0  0  0  0  0  0  0
   28.7069  -19.1318   -6.0011 C   0  0  0  0  0  0  0  0  0  0  0  0
   29.4121  -19.5175   -4.8819 C   0  0  0  0  0  0  0  0  0  0  0  0
   29.3092  -20.8021   -4.3705 C   0  0  0  0  0  0  0  0  0  0  0  0
   28.4838  -21.7103   -4.9971 C   0  0  0  0  0  0  0  0  0  0  0  0
   27.7831  -21.3106   -6.1178 C   0  0  0  0  0  0  0  0  0  0  0  0
   27.8817  -20.0363   -6.6293 C   0  0  0  0  0  0  0  0  0  0  0  0
   26.1649  -20.7686  -11.0415 C   0  0  0  0  0  0  0  0  0  0  0  0
   26.2769  -19.8254  -11.8901 O   0  0  0  0  0  0  0  0  0  0  0  0
   24.1497  -23.2348  -12.9173 C   0  0  0  0  0  0  0  0  0  0  0  0
   24.4803  -21.7691  -12.5597 C   0  0  2  0  0  0  0  0  0  0  0  0
   25.2994  -21.8366  -11.3540 N   0  0  0  0  0  0  0  0  0  0  0  0
   23.1944  -21.1402  -12.2337 C   0  0  0  0  0  0  0  0  0  0  0  0
   22.5209  -21.4015  -11.2108 O   0  0  0  0  0  0  0  0  0  0  0  0
   22.1042  -21.1666  -17.8064 N   0  0  0  0  0  0  0  0  0  0  0  0
   21.0328  -22.0914  -17.6963 C   0  0  0  0  0  0  0  0  0  0  0  0
   21.2144  -23.2977  -18.1047 N   0  0  0  0  0  0  0  0  0  0  0  0
   19.7712  -21.7469  -17.1567 N   0  0  0  0  0  0  0  0  0  0  0  0
   19.4088  -20.4087  -16.7535 C   0  0  0  0  0  0  0  0  0  0  0  0
   19.5428  -20.2324  -15.2608 C   0  0  0  0  0  0  0  0  0  0  0  0
   20.9734  -20.2526  -14.8815 C   0  0  0  0  0  0  0  0  0  0  0  0
   21.2244  -20.1185  -13.4006 C   0  0  2  0  0  0  0  0  0  0  0  0
   22.6419  -20.1651  -13.1114 N   0  0  0  0  0  0  0  0  0  0  0  0
   20.4523  -21.0755  -12.5837 C   0  0  0  0  0  0  0  0  0  0  0  0
   19.6591  -20.7487  -11.5056 O   0  0  0  0  0  0  0  0  0  0  0  0
   20.5163  -22.3004  -12.8891 O   0  0  0  0  0  0  0  0  0  0  0  0
  2  1  1  6
  2 13  1  0
  3  2  1  0
  3  4  1  0
  4 12  1  0
  4  5  2  0
  5  6  1  0
  7  6  1  0
  7  8  2  0
  9  8  1  0
 10  9  2  0
 11 10  1  0
 11 12  2  0
 12  7  1  0
 13 14  2  0
 16 15  1  1
 17 13  1  0
 17 16  1  0
 18 16  1  0
 18 19  2  0
 20 21  1  0
 21 22  2  0
 21 23  1  0
 23 24  1  0
 24 25  1  0
 25 26  1  0
 27 26  1  6
 27 28  1  0
 28 18  1  0
 29 27  1  0
 30 29  1  0
 31 29  2  0
M  END
$$$$
