WAR.pdb
     RDKit          3D

 31 32  0  0  1  0  0  0  0  0999 V2000
   25.0123  -22.1662  -12.5726 N   0  0  0  0  0  0  0  0  0  0  0  0
   25.1173  -21.2680  -11.4130 C   0  0  1  0  0  0  0  0  0  0  0  0
   25.4176  -19.8824  -11.8628 C   0  0  0  0  0  0  0  0  0  0  0  0
   26.7519  -19.6425  -12.4122 C   0  0  0  0  0  0  0  0  0  0  0  0
   27.1140  -18.8651  -13.5055 C   0  0  0  0  0  0  0  0  0  0  0  0
   28.4288  -18.9150  -13.6734 N   0  0  0  0  0  0  0  0  0  0  0  0
   28.9665  -19.6919  -12.7404 C   0  0  0  0  0  0  0  0  0  0  0  0
   30.2691  -20.0517  -12.4718 C   0  0  0  0  0  0  0  0  0  0  0  0
   30.5843  -20.8807  -11.4062 C   0  0  0  0  0  0  0  0  0  0  0  0
   29.5714  -21.3538  -10.6006 C   0  0  0  0  0  0  0  0  0  0  0  0
   28.2705  -20.9856  -10.8813 C   0  0  0  0  0  0  0  0  0  0  0  0
   27.9523  -20.1624  -11.9380 C   0  0  0  0  0  0  0  0  0  0  0  0
   23.8994  -21.4643  -10.6247 C   0  0  0  0  0  0  0  0  0  0  0  0
   22.8208  -21.8954  -11.1472 O   0  0  0  0  0  0  0  0  0  0  0  0
   23.4846  -21.5585   -6.9176 C   0  0  0  0  0  0  0  0  0  0  0  0
   23.0961  -22.0069   -8.3435 C   0  0  2  0  0  0  0  0  0  0  0  0
   23.8956  -21.1822   -9.2435 N   0  0  0  0  0  0  0  0  0  0  0  0
   21.6793  -21.6546   -8.4983 C   0  0  0  0  0  0  0  0  0  0  0  0
   21.2275  -20.9386   -9.4211 O   0  0  0  0  0  0  0  0  0  0  0  0
   16.3650  -26.5130   -9.1875 N   0  0  0  0  0  0  0  0  0  0  0  0
   16.3109  -26.2895  -10.5884 C   0  0  0  0  0  0  0  0  0  0  0  0
   15.2754  -26.6906  -11.2378 N   0  0  0  0  0  0  0  0  0  0  0  0
   17.3460  -25.6442  -11.3052 N   0  0  0  0  0  0  0  0  0  0  0  0
   18.5744  -25.1841  -10.7019 C   0  0  0  0  0  0  0  0  0  0  0  0
   18.3041  -24.1765   -9.6117 C   0  0  0  0  0  0  0  0  0  0  0  0
   19.5847  -23.6492   -9.0895 C   0  0  0  0  0  0  0  0  0  0  0  0
   19.4335  -22.6409   -7.9785 C   0  0  2  0  0  0  0  0  0  0  0  0
   20.7243  -22.1375   -7.5595 N   0  0  0  0  0  0  0  0  0  0  0  0
   18.6264  -23.1316   -6.8440 C   0  0  0  0  0  0  0  0  0  0  0  0
   17.2614  -22.9949   -6.7156 O   0  0  0  0  0  0  0  0  0  0  0  0
   19.2266  -23.7288   -5.9056 O   0  0  0  0  0  0  0  0  0  0  0  0
  2  1  1  6
  2 13  1  0
  3  2  1  0
  3  4  1  0
  4 12  1  0
  4  5  2  0
  5  6  1  0
  7  6  1  0
  7  8  2  0
  9  8  1  0
 10  9  2  0
 11 10  1  0
 11 12  2  0
 12  7  1  0
 13 14  2  0
 16 15  1  1
 17 13  1  0
 17 16  1  0
 18 16  1  0
 18 19  2  0
 20 21  1  0
 21 22  2  0
 21 23  1  0
 23 24  1  0
 24 25  1  0
 25 26  1  0
 27 26  1  6
 27 28  1  0
 28 18  1  0
 29 27  1  0
 30 29  1  0
 31 29  2  0
M  END
$$$$
