WAR.pdb
     RDKit          3D

 31 32  0  0  1  0  0  0  0  0999 V2000
   24.1795  -20.7560  -14.4798 N   0  0  0  0  0  0  0  0  0  0  0  0
   22.7510  -20.4320  -14.3503 C   0  0  1  0  0  0  0  0  0  0  0  0
   22.0006  -20.9403  -15.5295 C   0  0  0  0  0  0  0  0  0  0  0  0
   22.4080  -20.4319  -16.8392 C   0  0  0  0  0  0  0  0  0  0  0  0
   23.2244  -21.0337  -17.7889 C   0  0  0  0  0  0  0  0  0  0  0  0
   23.3480  -20.2364  -18.8417 N   0  0  0  0  0  0  0  0  0  0  0  0
   22.6499  -19.1249  -18.6413 C   0  0  0  0  0  0  0  0  0  0  0  0
   22.4421  -18.0078  -19.4208 C   0  0  0  0  0  0  0  0  0  0  0  0
   21.6401  -16.9634  -18.9871 C   0  0  0  0  0  0  0  0  0  0  0  0
   21.0398  -17.0467  -17.7495 C   0  0  0  0  0  0  0  0  0  0  0  0
   21.2567  -18.1716  -16.9786 C   0  0  0  0  0  0  0  0  0  0  0  0
   22.0519  -19.2114  -17.4050 C   0  0  0  0  0  0  0  0  0  0  0  0
   22.3335  -20.9176  -13.0338 C   0  0  0  0  0  0  0  0  0  0  0  0
   22.8768  -21.9308  -12.4858 O   0  0  0  0  0  0  0  0  0  0  0  0
   20.0792  -19.6089  -10.3803 C   0  0  0  0  0  0  0  0  0  0  0  0
   20.9111  -20.7471  -11.0110 C   0  0  2  0  0  0  0  0  0  0  0  0
   21.3070  -20.2580  -12.3275 N   0  0  0  0  0  0  0  0  0  0  0  0
   19.9835  -21.8732  -11.1746 C   0  0  0  0  0  0  0  0  0  0  0  0
   19.2524  -22.0447  -12.1767 O   0  0  0  0  0  0  0  0  0  0  0  0
   17.0684  -24.3694   -5.1598 N   0  0  0  0  0  0  0  0  0  0  0  0
   16.5091  -25.5822   -5.6411 C   0  0  0  0  0  0  0  0  0  0  0  0
   15.2663  -25.8226   -5.4115 N   0  0  0  0  0  0  0  0  0  0  0  0
   17.2572  -26.5413   -6.3635 N   0  0  0  0  0  0  0  0  0  0  0  0
   18.3874  -26.2138   -7.2003 C   0  0  0  0  0  0  0  0  0  0  0  0
   18.0256  -25.1625   -8.2206 C   0  0  0  0  0  0  0  0  0  0  0  0
   19.1600  -24.9553   -9.1486 C   0  0  0  0  0  0  0  0  0  0  0  0
   18.9046  -23.9254  -10.2201 C   0  0  2  0  0  0  0  0  0  0  0  0
   19.8776  -22.8561  -10.1502 N   0  0  0  0  0  0  0  0  0  0  0  0
   17.5167  -23.4225  -10.2344 C   0  0  0  0  0  0  0  0  0  0  0  0
   17.0723  -22.2837   -9.5989 O   0  0  0  0  0  0  0  0  0  0  0  0
   16.6546  -24.0835  -10.8806 O   0  0  0  0  0  0  0  0  0  0  0  0
  2  1  1  6
  2 13  1  0
  3  2  1  0
  3  4  1  0
  4 12  1  0
  4  5  2  0
  5  6  1  0
  7  6  1  0
  7  8  2  0
  9  8  1  0
 10  9  2  0
 11 10  1  0
 11 12  2  0
 12  7  1  0
 13 14  2  0
 16 15  1  1
 17 13  1  0
 17 16  1  0
 18 16  1  0
 18 19  2  0
 20 21  1  0
 21 22  2  0
 21 23  1  0
 23 24  1  0
 24 25  1  0
 25 26  1  0
 27 26  1  1
 27 28  1  0
 28 18  1  0
 29 27  1  0
 30 29  1  0
 31 29  2  0
M  END
$$$$
