WAR.pdb
     RDKit          3D

 31 32  0  0  1  0  0  0  0  0999 V2000
   31.7068   -9.6871  -20.4602 N   0  0  0  0  0  0  0  0  0  0  0  0
   31.3168  -10.7683  -19.5429 C   0  0  1  0  0  0  0  0  0  0  0  0
   30.4487  -10.2341  -18.4598 C   0  0  0  0  0  0  0  0  0  0  0  0
   31.0679   -9.3007  -17.5190 C   0  0  0  0  0  0  0  0  0  0  0  0
   30.7739   -7.9595  -17.3057 C   0  0  0  0  0  0  0  0  0  0  0  0
   31.5707   -7.4715  -16.3642 N   0  0  0  0  0  0  0  0  0  0  0  0
   32.3874   -8.4264  -15.9349 C   0  0  0  0  0  0  0  0  0  0  0  0
   33.3752   -8.4383  -14.9743 C   0  0  0  0  0  0  0  0  0  0  0  0
   34.0934   -9.5899  -14.6912 C   0  0  0  0  0  0  0  0  0  0  0  0
   33.8116  -10.7454  -15.3870 C   0  0  0  0  0  0  0  0  0  0  0  0
   32.8195  -10.7193  -16.3471 C   0  0  0  0  0  0  0  0  0  0  0  0
   32.1034   -9.5785  -16.6318 C   0  0  0  0  0  0  0  0  0  0  0  0
   30.7633  -11.8383  -20.3748 C   0  0  0  0  0  0  0  0  0  0  0  0
   30.2473  -11.6062  -21.5159 O   0  0  0  0  0  0  0  0  0  0  0  0
   30.7847  -15.5477  -20.2220 C   0  0  0  0  0  0  0  0  0  0  0  0
   30.1866  -14.2212  -20.7396 C   0  0  2  0  0  0  0  0  0  0  0  0
   30.7964  -13.1743  -19.9262 N   0  0  0  0  0  0  0  0  0  0  0  0
   28.7511  -14.2892  -20.4397 C   0  0  0  0  0  0  0  0  0  0  0  0
   28.2256  -13.8316  -19.3992 O   0  0  0  0  0  0  0  0  0  0  0  0
   22.6256  -19.6017  -20.5660 N   0  0  0  0  0  0  0  0  0  0  0  0
   21.8841  -18.4328  -20.8808 C   0  0  0  0  0  0  0  0  0  0  0  0
   20.6027  -18.4673  -20.7732 N   0  0  0  0  0  0  0  0  0  0  0  0
   22.4909  -17.2285  -21.3086 N   0  0  0  0  0  0  0  0  0  0  0  0
   23.9104  -17.0775  -21.5253 C   0  0  0  0  0  0  0  0  0  0  0  0
   24.2416  -15.6964  -22.0352 C   0  0  0  0  0  0  0  0  0  0  0  0
   25.7008  -15.5813  -22.2550 C   0  0  0  0  0  0  0  0  0  0  0  0
   26.4830  -15.1806  -21.0296 C   0  0  2  0  0  0  0  0  0  0  0  0
   27.8642  -14.9079  -21.3656 N   0  0  0  0  0  0  0  0  0  0  0  0
   26.3546  -16.1354  -19.9110 C   0  0  0  0  0  0  0  0  0  0  0  0
   27.0552  -17.3148  -19.7821 O   0  0  0  0  0  0  0  0  0  0  0  0
   25.5367  -15.8587  -18.9880 O   0  0  0  0  0  0  0  0  0  0  0  0
  2  1  1  6
  2 13  1  0
  3  2  1  0
  3  4  1  0
  4 12  1  0
  4  5  2  0
  5  6  1  0
  7  6  1  0
  7  8  2  0
  9  8  1  0
 10  9  2  0
 11 10  1  0
 11 12  2  0
 12  7  1  0
 13 14  2  0
 16 15  1  1
 17 13  1  0
 17 16  1  0
 18 16  1  0
 18 19  2  0
 20 21  1  0
 21 22  2  0
 21 23  1  0
 23 24  1  0
 24 25  1  0
 25 26  1  0
 27 26  1  6
 27 28  1  0
 28 18  1  0
 29 27  1  0
 30 29  1  0
 31 29  2  0
M  END
$$$$
