WAR.pdb
     RDKit          3D

 31 32  0  0  1  0  0  0  0  0999 V2000
   24.3333  -19.6743   -8.0987 N   0  0  0  0  0  0  0  0  0  0  0  0
   25.5882  -19.8331   -8.8488 C   0  0  1  0  0  0  0  0  0  0  0  0
   26.3066  -21.0535   -8.3943 C   0  0  0  0  0  0  0  0  0  0  0  0
   26.8148  -21.0467   -7.0227 C   0  0  0  0  0  0  0  0  0  0  0  0
   26.3272  -21.7253   -5.9124 C   0  0  0  0  0  0  0  0  0  0  0  0
   27.0749  -21.4448   -4.8534 N   0  0  0  0  0  0  0  0  0  0  0  0
   28.0443  -20.6075   -5.2033 C   0  0  0  0  0  0  0  0  0  0  0  0
   29.0751  -20.0338   -4.4914 C   0  0  0  0  0  0  0  0  0  0  0  0
   29.9888  -19.1866   -5.0993 C   0  0  0  0  0  0  0  0  0  0  0  0
   29.8606  -18.9140   -6.4440 C   0  0  0  0  0  0  0  0  0  0  0  0
   28.8229  -19.4954   -7.1452 C   0  0  0  0  0  0  0  0  0  0  0  0
   27.9132  -20.3375   -6.5463 C   0  0  0  0  0  0  0  0  0  0  0  0
   25.2357  -19.7559  -10.2676 C   0  0  0  0  0  0  0  0  0  0  0  0
   24.0447  -19.9454  -10.6774 O   0  0  0  0  0  0  0  0  0  0  0  0
   27.1370  -18.8238  -13.3459 C   0  0  0  0  0  0  0  0  0  0  0  0
   25.8209  -19.0360  -12.5662 C   0  0  2  0  0  0  0  0  0  0  0  0
   26.2233  -19.4576  -11.2284 N   0  0  0  0  0  0  0  0  0  0  0  0
   25.1373  -20.1490  -13.2365 C   0  0  0  0  0  0  0  0  0  0  0  0
   25.5163  -21.3415  -13.1875 O   0  0  0  0  0  0  0  0  0  0  0  0
   18.3651  -23.4771  -11.1681 N   0  0  0  0  0  0  0  0  0  0  0  0
   18.4536  -23.0278  -12.5118 C   0  0  0  0  0  0  0  0  0  0  0  0
   17.5165  -23.3484  -13.3327 N   0  0  0  0  0  0  0  0  0  0  0  0
   19.5277  -22.2415  -12.9912 N   0  0  0  0  0  0  0  0  0  0  0  0
   20.6512  -21.8368  -12.1796 C   0  0  0  0  0  0  0  0  0  0  0  0
   21.5880  -20.9402  -12.9513 C   0  0  0  0  0  0  0  0  0  0  0  0
   22.3849  -21.7488  -13.9009 C   0  0  0  0  0  0  0  0  0  0  0  0
   23.3191  -20.9439  -14.7691 C   0  0  2  0  0  0  0  0  0  0  0  0
   23.9638  -19.8990  -14.0027 N   0  0  0  0  0  0  0  0  0  0  0  0
   22.6835  -20.4290  -15.9980 C   0  0  0  0  0  0  0  0  0  0  0  0
   22.6163  -19.1036  -16.3684 O   0  0  0  0  0  0  0  0  0  0  0  0
   22.1531  -21.2644  -16.7844 O   0  0  0  0  0  0  0  0  0  0  0  0
  2  1  1  1
  2 13  1  0
  3  2  1  0
  3  4  1  0
  4 12  1  0
  4  5  2  0
  5  6  1  0
  7  6  1  0
  7  8  2  0
  9  8  1  0
 10  9  2  0
 11 10  1  0
 11 12  2  0
 12  7  1  0
 13 14  2  0
 16 15  1  6
 17 13  1  0
 17 16  1  0
 18 16  1  0
 18 19  2  0
 20 21  1  0
 21 22  2  0
 21 23  1  0
 23 24  1  0
 24 25  1  0
 25 26  1  0
 27 26  1  1
 27 28  1  0
 28 18  1  0
 29 27  1  0
 30 29  1  0
 31 29  2  0
M  END
$$$$
