WAR.pdb
     RDKit          3D

 31 32  0  0  1  0  0  0  0  0999 V2000
   27.2855  -22.0542  -10.1461 N   0  0  0  0  0  0  0  0  0  0  0  0
   26.7181  -20.8045   -9.6181 C   0  0  1  0  0  0  0  0  0  0  0  0
   27.7993  -19.8124   -9.3754 C   0  0  0  0  0  0  0  0  0  0  0  0
   28.8293  -20.1842   -8.4056 C   0  0  0  0  0  0  0  0  0  0  0  0
   30.0681  -20.7700   -8.6360 C   0  0  0  0  0  0  0  0  0  0  0  0
   30.7000  -20.9469   -7.4832 N   0  0  0  0  0  0  0  0  0  0  0  0
   29.9402  -20.5052   -6.4879 C   0  0  0  0  0  0  0  0  0  0  0  0
   30.1383  -20.4485   -5.1255 C   0  0  0  0  0  0  0  0  0  0  0  0
   29.1798  -19.9147   -4.2779 C   0  0  0  0  0  0  0  0  0  0  0  0
   28.0049  -19.4318   -4.8119 C   0  0  0  0  0  0  0  0  0  0  0  0
   27.8193  -19.4951   -6.1788 C   0  0  0  0  0  0  0  0  0  0  0  0
   28.7680  -20.0239   -7.0247 C   0  0  0  0  0  0  0  0  0  0  0  0
   25.6482  -20.4137  -10.5379 C   0  0  0  0  0  0  0  0  0  0  0  0
   24.8913  -19.4159  -10.3062 O   0  0  0  0  0  0  0  0  0  0  0  0
   25.1034  -21.0528  -14.0928 C   0  0  0  0  0  0  0  0  0  0  0  0
   24.5140  -20.6210  -12.7321 C   0  0  2  0  0  0  0  0  0  0  0  0
   25.4330  -21.1422  -11.7255 N   0  0  0  0  0  0  0  0  0  0  0  0
   23.2276  -21.3191  -12.6172 C   0  0  0  0  0  0  0  0  0  0  0  0
   23.0958  -22.5640  -12.6464 O   0  0  0  0  0  0  0  0  0  0  0  0
   16.5583  -15.8515  -12.3633 N   0  0  0  0  0  0  0  0  0  0  0  0
   17.2663  -16.0765  -13.5730 C   0  0  0  0  0  0  0  0  0  0  0  0
   17.0808  -15.2679  -14.5562 N   0  0  0  0  0  0  0  0  0  0  0  0
   18.1691  -17.1518  -13.7477 N   0  0  0  0  0  0  0  0  0  0  0  0
   18.4730  -18.1198  -12.7205 C   0  0  0  0  0  0  0  0  0  0  0  0
   19.4704  -19.1410  -13.2098 C   0  0  0  0  0  0  0  0  0  0  0  0
   19.6360  -20.2047  -12.1939 C   0  0  0  0  0  0  0  0  0  0  0  0
   20.7255  -21.1987  -12.5086 C   0  0  2  0  0  0  0  0  0  0  0  0
   22.0278  -20.5688  -12.4614 N   0  0  0  0  0  0  0  0  0  0  0  0
   20.5034  -21.9367  -13.7677 C   0  0  0  0  0  0  0  0  0  0  0  0
   21.1028  -21.6553  -14.9759 O   0  0  0  0  0  0  0  0  0  0  0  0
   19.6978  -22.9106  -13.7483 O   0  0  0  0  0  0  0  0  0  0  0  0
  2  1  1  6
  2 13  1  0
  3  2  1  0
  3  4  1  0
  4 12  1  0
  4  5  2  0
  5  6  1  0
  7  6  1  0
  7  8  2  0
  9  8  1  0
 10  9  2  0
 11 10  1  0
 11 12  2  0
 12  7  1  0
 13 14  2  0
 16 15  1  6
 17 13  1  0
 17 16  1  0
 18 16  1  0
 18 19  2  0
 20 21  1  0
 21 22  2  0
 21 23  1  0
 23 24  1  0
 24 25  1  0
 25 26  1  0
 27 26  1  6
 27 28  1  0
 28 18  1  0
 29 27  1  0
 30 29  1  0
 31 29  2  0
M  END
$$$$
