WAR.pdb
     RDKit          3D

 31 32  0  0  1  0  0  0  0  0999 V2000
   27.7443  -19.8835  -11.6346 N   0  0  0  0  0  0  0  0  0  0  0  0
   26.8949  -21.0727  -11.7984 C   0  0  1  0  0  0  0  0  0  0  0  0
   26.7676  -21.7944  -10.5042 C   0  0  0  0  0  0  0  0  0  0  0  0
   26.7877  -20.9789   -9.2900 C   0  0  0  0  0  0  0  0  0  0  0  0
   25.7514  -20.2554   -8.7124 C   0  0  0  0  0  0  0  0  0  0  0  0
   26.1870  -19.6484   -7.6164 N   0  0  0  0  0  0  0  0  0  0  0  0
   27.4708  -19.9325   -7.4318 C   0  0  0  0  0  0  0  0  0  0  0  0
   28.3685  -19.5697   -6.4515 C   0  0  0  0  0  0  0  0  0  0  0  0
   29.6799  -20.0194   -6.4708 C   0  0  0  0  0  0  0  0  0  0  0  0
   30.0915  -20.8461   -7.4936 C   0  0  0  0  0  0  0  0  0  0  0  0
   29.1817  -21.2015   -8.4695 C   0  0  0  0  0  0  0  0  0  0  0  0
   27.8784  -20.7579   -8.4547 C   0  0  0  0  0  0  0  0  0  0  0  0
   25.6569  -20.6141  -12.4312 C   0  0  0  0  0  0  0  0  0  0  0  0
   24.8690  -19.7956  -11.8555 O   0  0  0  0  0  0  0  0  0  0  0  0
   24.1894  -20.8822  -15.8242 C   0  0  0  0  0  0  0  0  0  0  0  0
   24.0329  -20.6659  -14.3030 C   0  0  2  0  0  0  0  0  0  0  0  0
   25.3069  -21.0711  -13.7180 N   0  0  0  0  0  0  0  0  0  0  0  0
   22.9867  -21.6024  -13.8744 C   0  0  0  0  0  0  0  0  0  0  0  0
   23.1869  -22.5933  -13.1353 O   0  0  0  0  0  0  0  0  0  0  0  0
   17.9475  -23.2341   -9.5447 N   0  0  0  0  0  0  0  0  0  0  0  0
   18.9500  -23.2330   -8.5396 C   0  0  0  0  0  0  0  0  0  0  0  0
   18.8005  -24.0003   -7.5180 N   0  0  0  0  0  0  0  0  0  0  0  0
   20.1091  -22.4248   -8.6097 N   0  0  0  0  0  0  0  0  0  0  0  0
   20.3796  -21.5005   -9.6855 C   0  0  0  0  0  0  0  0  0  0  0  0
   20.4563  -22.2141  -11.0129 C   0  0  0  0  0  0  0  0  0  0  0  0
   20.6242  -21.2264  -12.1024 C   0  0  0  0  0  0  0  0  0  0  0  0
   20.5177  -21.8088  -13.4894 C   0  0  2  0  0  0  0  0  0  0  0  0
   21.6439  -21.4074  -14.3052 N   0  0  0  0  0  0  0  0  0  0  0  0
   19.2234  -21.5358  -14.1447 C   0  0  0  0  0  0  0  0  0  0  0  0
   18.3718  -22.4881  -14.6608 O   0  0  0  0  0  0  0  0  0  0  0  0
   18.8545  -20.3312  -14.2468 O   0  0  0  0  0  0  0  0  0  0  0  0
  2  1  1  1
  2 13  1  0
  3  2  1  0
  3  4  1  0
  4 12  1  0
  4  5  2  0
  5  6  1  0
  7  6  1  0
  7  8  2  0
  9  8  1  0
 10  9  2  0
 11 10  1  0
 11 12  2  0
 12  7  1  0
 13 14  2  0
 16 15  1  6
 17 13  1  0
 17 16  1  0
 18 16  1  0
 18 19  2  0
 20 21  1  0
 21 22  2  0
 21 23  1  0
 23 24  1  0
 24 25  1  0
 25 26  1  0
 27 26  1  1
 27 28  1  0
 28 18  1  0
 29 27  1  0
 30 29  1  0
 31 29  2  0
M  END
$$$$
