WAR.pdb
     RDKit          3D

 31 32  0  0  1  0  0  0  0  0999 V2000
   26.8458  -22.4136  -14.6321 N   0  0  0  0  0  0  0  0  0  0  0  0
   25.8420  -21.7839  -13.7613 C   0  0  1  0  0  0  0  0  0  0  0  0
   26.3051  -20.4361  -13.3357 C   0  0  0  0  0  0  0  0  0  0  0  0
   27.5277  -20.3819  -12.5344 C   0  0  0  0  0  0  0  0  0  0  0  0
   28.8276  -20.1210  -12.9501 C   0  0  0  0  0  0  0  0  0  0  0  0
   29.6479  -20.1692  -11.9088 N   0  0  0  0  0  0  0  0  0  0  0  0
   28.9559  -20.4509  -10.8111 C   0  0  0  0  0  0  0  0  0  0  0  0
   29.3285  -20.5960   -9.4925 C   0  0  0  0  0  0  0  0  0  0  0  0
   28.3969  -20.8804   -8.5058 C   0  0  0  0  0  0  0  0  0  0  0  0
   27.0711  -21.0208   -8.8543 C   0  0  0  0  0  0  0  0  0  0  0  0
   26.7117  -20.8731  -10.1793 C   0  0  0  0  0  0  0  0  0  0  0  0
   27.6328  -20.5905  -11.1626 C   0  0  0  0  0  0  0  0  0  0  0  0
   24.5676  -21.8558  -14.4782 C   0  0  0  0  0  0  0  0  0  0  0  0
   24.2125  -20.9616  -15.3128 O   0  0  0  0  0  0  0  0  0  0  0  0
   22.6107  -23.8967  -16.1685 C   0  0  0  0  0  0  0  0  0  0  0  0
   22.4053  -22.9726  -14.9482 C   0  0  2  0  0  0  0  0  0  0  0  0
   23.6928  -22.9399  -14.2621 N   0  0  0  0  0  0  0  0  0  0  0  0
   21.4226  -23.6532  -14.0958 C   0  0  0  0  0  0  0  0  0  0  0  0
   21.6436  -24.7198  -13.4781 O   0  0  0  0  0  0  0  0  0  0  0  0
   17.5907  -25.3203   -8.5753 N   0  0  0  0  0  0  0  0  0  0  0  0
   18.4911  -24.2552   -8.3102 C   0  0  0  0  0  0  0  0  0  0  0  0
   19.4159  -24.4325   -7.4337 N   0  0  0  0  0  0  0  0  0  0  0  0
   18.4182  -23.0043   -8.9672 N   0  0  0  0  0  0  0  0  0  0  0  0
   17.3907  -22.6567   -9.9202 C   0  0  0  0  0  0  0  0  0  0  0  0
   17.5534  -23.4299  -11.2057 C   0  0  0  0  0  0  0  0  0  0  0  0
   18.7662  -22.9675  -11.9172 C   0  0  0  0  0  0  0  0  0  0  0  0
   19.1019  -23.7638  -13.1530 C   0  0  2  0  0  0  0  0  0  0  0  0
   20.1218  -23.0976  -13.9346 N   0  0  0  0  0  0  0  0  0  0  0  0
   17.9198  -24.1232  -13.9609 C   0  0  0  0  0  0  0  0  0  0  0  0
   17.1439  -25.2482  -13.7862 O   0  0  0  0  0  0  0  0  0  0  0  0
   17.5811  -23.3409  -14.8942 O   0  0  0  0  0  0  0  0  0  0  0  0
  2  1  1  6
  2 13  1  0
  3  2  1  0
  3  4  1  0
  4 12  1  0
  4  5  2  0
  5  6  1  0
  7  6  1  0
  7  8  2  0
  9  8  1  0
 10  9  2  0
 11 10  1  0
 11 12  2  0
 12  7  1  0
 13 14  2  0
 16 15  1  6
 17 13  1  0
 17 16  1  0
 18 16  1  0
 18 19  2  0
 20 21  1  0
 21 22  2  0
 21 23  1  0
 23 24  1  0
 24 25  1  0
 25 26  1  0
 27 26  1  1
 27 28  1  0
 28 18  1  0
 29 27  1  0
 30 29  1  0
 31 29  2  0
M  END
$$$$
