WAR.pdb
     RDKit          3D

 31 32  0  0  1  0  0  0  0  0999 V2000
   23.2202  -20.0939  -15.4759 N   0  0  0  0  0  0  0  0  0  0  0  0
   23.3238  -21.2683  -14.5970 C   0  0  1  0  0  0  0  0  0  0  0  0
   24.4850  -21.1214  -13.6792 C   0  0  0  0  0  0  0  0  0  0  0  0
   25.8129  -21.1135  -14.2925 C   0  0  0  0  0  0  0  0  0  0  0  0
   26.6917  -20.0484  -14.4474 C   0  0  0  0  0  0  0  0  0  0  0  0
   27.7928  -20.4630  -15.0599 N   0  0  0  0  0  0  0  0  0  0  0  0
   27.6927  -21.7606  -15.3232 C   0  0  0  0  0  0  0  0  0  0  0  0
   28.5542  -22.6538  -15.9220 C   0  0  0  0  0  0  0  0  0  0  0  0
   28.2200  -23.9912  -16.0696 C   0  0  0  0  0  0  0  0  0  0  0  0
   26.9997  -24.4337  -15.6070 C   0  0  0  0  0  0  0  0  0  0  0  0
   26.1460  -23.5279  -15.0092 C   0  0  0  0  0  0  0  0  0  0  0  0
   26.4732  -22.1989  -14.8601 C   0  0  0  0  0  0  0  0  0  0  0  0
   22.0064  -21.4444  -13.9832 C   0  0  0  0  0  0  0  0  0  0  0  0
   21.4122  -20.4939  -13.3786 O   0  0  0  0  0  0  0  0  0  0  0  0
   19.1749  -23.5178  -14.6027 C   0  0  0  0  0  0  0  0  0  0  0  0
   20.0095  -22.8309  -13.4995 C   0  0  2  0  0  0  0  0  0  0  0  0
   21.3514  -22.6906  -14.0555 N   0  0  0  0  0  0  0  0  0  0  0  0
   20.0486  -23.7815  -12.3814 C   0  0  0  0  0  0  0  0  0  0  0  0
   20.9065  -24.6846  -12.2532 O   0  0  0  0  0  0  0  0  0  0  0  0
   17.3028  -27.3647   -6.1468 N   0  0  0  0  0  0  0  0  0  0  0  0
   17.7749  -26.3460   -5.2781 C   0  0  0  0  0  0  0  0  0  0  0  0
   18.2446  -26.6836   -4.1290 N   0  0  0  0  0  0  0  0  0  0  0  0
   17.7528  -24.9729   -5.6185 N   0  0  0  0  0  0  0  0  0  0  0  0
   17.2896  -24.4682   -6.8895 C   0  0  0  0  0  0  0  0  0  0  0  0
   18.0065  -25.1364   -8.0369 C   0  0  0  0  0  0  0  0  0  0  0  0
   18.3431  -24.1308   -9.0696 C   0  0  0  0  0  0  0  0  0  0  0  0
   18.9764  -24.7054  -10.3117 C   0  0  2  0  0  0  0  0  0  0  0  0
   19.0649  -23.7061  -11.3550 N   0  0  0  0  0  0  0  0  0  0  0  0
   18.3339  -25.9498  -10.7784 C   0  0  0  0  0  0  0  0  0  0  0  0
   18.6673  -27.2232  -10.3713 O   0  0  0  0  0  0  0  0  0  0  0  0
   17.3980  -25.8519  -11.6223 O   0  0  0  0  0  0  0  0  0  0  0  0
  2  1  1  1
  2 13  1  0
  3  2  1  0
  3  4  1  0
  4 12  1  0
  4  5  2  0
  5  6  1  0
  7  6  1  0
  7  8  2  0
  9  8  1  0
 10  9  2  0
 11 10  1  0
 11 12  2  0
 12  7  1  0
 13 14  2  0
 16 15  1  6
 17 13  1  0
 17 16  1  0
 18 16  1  0
 18 19  2  0
 20 21  1  0
 21 22  2  0
 21 23  1  0
 23 24  1  0
 24 25  1  0
 25 26  1  0
 27 26  1  1
 27 28  1  0
 28 18  1  0
 29 27  1  0
 30 29  1  0
 31 29  2  0
M  END
$$$$
