WAR.pdb
     RDKit          3D

 31 32  0  0  1  0  0  0  0  0999 V2000
   25.8295  -22.0220  -11.6848 N   0  0  0  0  0  0  0  0  0  0  0  0
   25.1899  -21.2819  -12.7829 C   0  0  1  0  0  0  0  0  0  0  0  0
   25.5724  -21.8746  -14.0923 C   0  0  0  0  0  0  0  0  0  0  0  0
   26.5808  -21.1563  -14.8714 C   0  0  0  0  0  0  0  0  0  0  0  0
   27.8639  -21.5630  -15.2163 C   0  0  0  0  0  0  0  0  0  0  0  0
   28.4573  -20.6140  -15.9280 N   0  0  0  0  0  0  0  0  0  0  0  0
   27.6289  -19.5870  -16.0770 C   0  0  0  0  0  0  0  0  0  0  0  0
   27.7554  -18.3819  -16.7330 C   0  0  0  0  0  0  0  0  0  0  0  0
   26.7188  -17.4616  -16.7592 C   0  0  0  0  0  0  0  0  0  0  0  0
   25.5384  -17.7609  -16.1143 C   0  0  0  0  0  0  0  0  0  0  0  0
   25.4253  -18.9719  -15.4606 C   0  0  0  0  0  0  0  0  0  0  0  0
   26.4515  -19.8892  -15.4319 C   0  0  0  0  0  0  0  0  0  0  0  0
   23.7613  -21.2255  -12.4679 C   0  0  0  0  0  0  0  0  0  0  0  0
   23.1864  -22.1310  -11.7811 O   0  0  0  0  0  0  0  0  0  0  0  0
   21.0453  -18.7534  -13.1481 C   0  0  0  0  0  0  0  0  0  0  0  0
   21.5542  -20.1053  -12.6016 C   0  0  2  0  0  0  0  0  0  0  0  0
   22.9777  -20.1443  -12.9200 N   0  0  0  0  0  0  0  0  0  0  0  0
   20.8579  -21.1362  -13.3812 C   0  0  0  0  0  0  0  0  0  0  0  0
   21.1878  -21.4896  -14.5364 O   0  0  0  0  0  0  0  0  0  0  0  0
   18.8071  -24.0203   -7.1534 N   0  0  0  0  0  0  0  0  0  0  0  0
   18.5808  -25.1332   -8.0052 C   0  0  0  0  0  0  0  0  0  0  0  0
   18.0875  -26.2079   -7.4986 N   0  0  0  0  0  0  0  0  0  0  0  0
   18.8734  -25.1150   -9.3893 N   0  0  0  0  0  0  0  0  0  0  0  0
   18.2016  -24.2618  -10.3408 C   0  0  0  0  0  0  0  0  0  0  0  0
   18.7433  -24.4645  -11.7345 C   0  0  0  0  0  0  0  0  0  0  0  0
   18.0504  -23.5577  -12.6770 C   0  0  0  0  0  0  0  0  0  0  0  0
   18.9732  -22.7779  -13.5794 C   0  0  2  0  0  0  0  0  0  0  0  0
   19.7291  -21.8013  -12.8245 N   0  0  0  0  0  0  0  0  0  0  0  0
   18.2914  -22.1819  -14.7453 C   0  0  0  0  0  0  0  0  0  0  0  0
   18.0512  -22.8192  -15.9430 O   0  0  0  0  0  0  0  0  0  0  0  0
   17.8897  -20.9874  -14.6488 O   0  0  0  0  0  0  0  0  0  0  0  0
  2  1  1  1
  2 13  1  0
  3  2  1  0
  3  4  1  0
  4 12  1  0
  4  5  2  0
  5  6  1  0
  7  6  1  0
  7  8  2  0
  9  8  1  0
 10  9  2  0
 11 10  1  0
 11 12  2  0
 12  7  1  0
 13 14  2  0
 16 15  1  6
 17 13  1  0
 17 16  1  0
 18 16  1  0
 18 19  2  0
 20 21  1  0
 21 22  2  0
 21 23  1  0
 23 24  1  0
 24 25  1  0
 25 26  1  0
 27 26  1  1
 27 28  1  0
 28 18  1  0
 29 27  1  0
 30 29  1  0
 31 29  2  0
M  END
$$$$
