LRC.pdb
     RDKit          3D

 26 25  0  0  1  0  0  0  0  0999 V2000
   29.0713  -20.3596   -6.5284 C   0  0  0  0  0  0  0  0  0  0  0  0
   27.6050  -20.3230   -6.8844 C   0  0  1  0  0  0  0  0  0  0  0  0
   26.8629  -19.2383   -6.1666 C   0  0  0  0  0  0  0  0  0  0  0  0
   27.4682  -20.1696   -8.4071 C   0  0  0  0  0  0  0  0  0  0  0  0
   25.9784  -20.1410   -8.6769 C   0  0  2  0  0  0  0  0  0  0  0  0
   25.4684  -21.4294   -8.2166 N   0  0  0  0  0  0  0  0  0  0  0  0
   25.6529  -19.9974  -10.0971 C   0  0  0  0  0  0  0  0  0  0  0  0
   25.9083  -18.9166  -10.6769 O   0  0  0  0  0  0  0  0  0  0  0  0
   27.8114  -21.8196  -17.3528 N   0  0  0  0  0  0  0  0  0  0  0  0
   28.2818  -22.2304  -16.0509 C   0  0  0  0  0  0  0  0  0  0  0  0
   29.5265  -22.1613  -15.8166 N   0  0  0  0  0  0  0  0  0  0  0  0
   27.3708  -22.6987  -15.0648 N   0  0  0  0  0  0  0  0  0  0  0  0
   25.9595  -22.7668  -15.3037 C   0  0  0  0  0  0  0  0  0  0  0  0
   25.1886  -21.6976  -14.5779 C   0  0  0  0  0  0  0  0  0  0  0  0
   25.4820  -21.7809  -13.1112 C   0  0  0  0  0  0  0  0  0  0  0  0
   24.7176  -20.8286  -12.2514 C   0  0  2  0  0  0  0  0  0  0  0  0
   25.0591  -21.0443  -10.8304 N   0  0  0  0  0  0  0  0  0  0  0  0
   23.2466  -20.9077  -12.4063 C   0  0  0  0  0  0  0  0  0  0  0  0
   22.6077  -21.8467  -11.8881 O   0  0  0  0  0  0  0  0  0  0  0  0
   29.9087  -22.5057  -14.9155 N   0  0  0  0  0  0  0  0  0  0  0  0
   22.5158  -19.9158  -13.1498 C   0  0  1  0  0  0  0  0  0  0  0  0
   21.0860  -20.0268  -13.2079 C   0  0  0  0  0  0  0  0  0  0  0  0
   20.5345  -18.6144  -13.1669 S   0  0  0  0  0  0  0  0  0  0  0  0
   20.5914  -18.0225  -11.4619 C   0  0  0  0  0  0  0  0  0  0  0  0
   20.6219  -20.7861  -14.3909 O   0  0  0  0  0  0  0  0  0  0  0  0
   21.3385  -20.9319  -15.4216 O   0  0  0  0  0  0  0  0  0  0  0  0
  2  4  1  0
  2  1  1  6
  3  2  1  0
  4  5  1  0
  5  6  1  6
  7  8  2  0
  7  5  1  0
  9 10  1  0
 10 12  1  0
 11 10  2  0
 12 13  1  0
 13 14  1  0
 14 15  1  0
 16 15  1  6
 16 17  1  0
 17  7  1  0
 18 16  1  0
 19 18  2  0
 20 18  1  0
 21 20  1  0
 21 22  1  1
 23 22  1  0
 24 21  1  0
 24 26  1  0
 25 24  2  0
M  END
$$$$
