LRC.pdb
     RDKit          3D

 26 25  0  0  1  0  0  0  0  0999 V2000
   27.2497  -15.5905  -16.3660 C   0  0  0  0  0  0  0  0  0  0  0  0
   25.8751  -15.2966  -15.8163 C   0  0  1  0  0  0  0  0  0  0  0  0
   25.8957  -14.9624  -14.3566 C   0  0  0  0  0  0  0  0  0  0  0  0
   25.2475  -14.1570  -16.6337 C   0  0  0  0  0  0  0  0  0  0  0  0
   23.8589  -13.9672  -16.0601 C   0  0  2  0  0  0  0  0  0  0  0  0
   23.1266  -15.1878  -16.3849 N   0  0  0  0  0  0  0  0  0  0  0  0
   23.1441  -12.8314  -16.6456 C   0  0  0  0  0  0  0  0  0  0  0  0
   22.9553  -12.8001  -17.8837 O   0  0  0  0  0  0  0  0  0  0  0  0
   16.0084  -12.2178  -19.4163 N   0  0  0  0  0  0  0  0  0  0  0  0
   16.2733  -10.7983  -19.4097 C   0  0  0  0  0  0  0  0  0  0  0  0
   15.4250  -10.0301  -19.9566 N   0  0  0  0  0  0  0  0  0  0  0  0
   17.4534  -10.2832  -18.8066 N   0  0  0  0  0  0  0  0  0  0  0  0
   18.4317  -11.1358  -18.1987 C   0  0  0  0  0  0  0  0  0  0  0  0
   19.5978  -10.3764  -17.6259 C   0  0  0  0  0  0  0  0  0  0  0  0
   20.5839  -11.3425  -17.0443 C   0  0  0  0  0  0  0  0  0  0  0  0
   21.8197  -10.7283  -16.4733 C   0  0  2  0  0  0  0  0  0  0  0  0
   22.6621  -11.7710  -15.8523 N   0  0  0  0  0  0  0  0  0  0  0  0
   21.5703   -9.6604  -15.4778 C   0  0  0  0  0  0  0  0  0  0  0  0
   21.1555   -9.9473  -14.3358 O   0  0  0  0  0  0  0  0  0  0  0  0
   15.5741   -9.0032  -19.9581 N   0  0  0  0  0  0  0  0  0  0  0  0
   21.7961   -8.2742  -15.7915 C   0  0  2  0  0  0  0  0  0  0  0  0
   21.4878   -7.2920  -14.7914 C   0  0  0  0  0  0  0  0  0  0  0  0
   22.7676   -6.5238  -14.5219 S   0  0  0  0  0  0  0  0  0  0  0  0
   22.4098   -5.2023  -13.3446 C   0  0  0  0  0  0  0  0  0  0  0  0
   20.3661   -6.4106  -15.1865 O   0  0  0  0  0  0  0  0  0  0  0  0
   19.7976   -5.6350  -14.3666 O   0  0  0  0  0  0  0  0  0  0  0  0
  2  4  1  0
  2  1  1  6
  3  2  1  0
  4  5  1  0
  5  6  1  6
  7  8  2  0
  7  5  1  0
  9 10  1  0
 10 12  1  0
 11 10  2  0
 12 13  1  0
 13 14  1  0
 14 15  1  0
 16 15  1  1
 16 17  1  0
 17  7  1  0
 18 16  1  0
 19 18  2  0
 20 18  1  0
 21 20  1  0
 21 22  1  6
 23 22  1  0
 24 21  1  0
 24 26  1  0
 25 24  2  0
M  END
$$$$
