LRC.pdb
     RDKit          3D

 26 25  0  0  1  0  0  0  0  0999 V2000
   20.7617  -31.7155  -10.3417 C   0  0  0  0  0  0  0  0  0  0  0  0
   20.2159  -30.3995  -10.8400 C   0  0  1  0  0  0  0  0  0  0  0  0
   18.7969  -30.5021  -11.3075 C   0  0  0  0  0  0  0  0  0  0  0  0
   20.3542  -29.3514   -9.7249 C   0  0  0  0  0  0  0  0  0  0  0  0
   19.8999  -28.0450  -10.3414 C   0  0  2  0  0  0  0  0  0  0  0  0
   21.0369  -27.5569  -11.1165 N   0  0  0  0  0  0  0  0  0  0  0  0
   19.5505  -27.0293   -9.3464 C   0  0  0  0  0  0  0  0  0  0  0  0
   20.4664  -26.4062   -8.7610 O   0  0  0  0  0  0  0  0  0  0  0  0
   14.9616  -20.8730  -11.2445 N   0  0  0  0  0  0  0  0  0  0  0  0
   14.2549  -21.7907  -10.3822 C   0  0  0  0  0  0  0  0  0  0  0  0
   12.9876  -21.8048  -10.4360 N   0  0  0  0  0  0  0  0  0  0  0  0
   14.9649  -22.6502   -9.4999 N   0  0  0  0  0  0  0  0  0  0  0  0
   16.2241  -22.2789   -8.9252 C   0  0  0  0  0  0  0  0  0  0  0  0
   16.7992  -23.3447   -8.0321 C   0  0  0  0  0  0  0  0  0  0  0  0
   17.2837  -24.4882   -8.8697 C   0  0  0  0  0  0  0  0  0  0  0  0
   17.9135  -25.6121   -8.1142 C   0  0  2  0  0  0  0  0  0  0  0  0
   18.2096  -26.7334   -9.0293 N   0  0  0  0  0  0  0  0  0  0  0  0
   17.1038  -26.1202   -6.9828 C   0  0  0  0  0  0  0  0  0  0  0  0
   16.1021  -26.8343   -7.1950 O   0  0  0  0  0  0  0  0  0  0  0  0
   12.4933  -21.3605  -11.2329 N   0  0  0  0  0  0  0  0  0  0  0  0
   17.4427  -25.8110   -5.6188 C   0  0  2  0  0  0  0  0  0  0  0  0
   16.5970  -26.3192   -4.5764 C   0  0  0  0  0  0  0  0  0  0  0  0
   17.4512  -26.4160   -3.3267 S   0  0  0  0  0  0  0  0  0  0  0  0
   19.1795  -26.1715   -3.7893 C   0  0  0  0  0  0  0  0  0  0  0  0
   15.3838  -25.4951   -4.3755 O   0  0  0  0  0  0  0  0  0  0  0  0
   15.1831  -24.4242   -5.0158 O   0  0  0  0  0  0  0  0  0  0  0  0
  2  4  1  0
  2  1  1  1
  3  2  1  0
  4  5  1  0
  5  6  1  6
  7  8  2  0
  7  5  1  0
  9 10  1  0
 10 12  1  0
 11 10  2  0
 12 13  1  0
 13 14  1  0
 14 15  1  0
 16 15  1  6
 16 17  1  0
 17  7  1  0
 18 16  1  0
 19 18  2  0
 20 18  1  0
 21 20  1  0
 21 22  1  6
 23 22  1  0
 24 21  1  0
 24 26  1  0
 25 24  2  0
M  END
$$$$
