LRC.pdb
     RDKit          3D

 26 25  0  0  1  0  0  0  0  0999 V2000
   28.1988  -20.4458   -4.0389 C   0  0  0  0  0  0  0  0  0  0  0  0
   27.7707  -19.6333   -5.2367 C   0  0  1  0  0  0  0  0  0  0  0  0
   28.7284  -18.5276   -5.5572 C   0  0  0  0  0  0  0  0  0  0  0  0
   27.5950  -20.5755   -6.4377 C   0  0  0  0  0  0  0  0  0  0  0  0
   27.2555  -19.6769   -7.6083 C   0  0  2  0  0  0  0  0  0  0  0  0
   26.2155  -18.7734   -7.1247 N   0  0  0  0  0  0  0  0  0  0  0  0
   26.7299  -20.4085   -8.7625 C   0  0  0  0  0  0  0  0  0  0  0  0
   27.3756  -21.3820   -9.2153 O   0  0  0  0  0  0  0  0  0  0  0  0
   20.3696  -22.3051  -14.1789 N   0  0  0  0  0  0  0  0  0  0  0  0
   20.2280  -22.2341  -12.7436 C   0  0  0  0  0  0  0  0  0  0  0  0
   19.3862  -23.0032  -12.1879 N   0  0  0  0  0  0  0  0  0  0  0  0
   21.0120  -21.3255  -11.9812 N   0  0  0  0  0  0  0  0  0  0  0  0
   21.8702  -20.3576  -12.5981 C   0  0  0  0  0  0  0  0  0  0  0  0
   23.3313  -20.6728  -12.4244 C   0  0  0  0  0  0  0  0  0  0  0  0
   23.7450  -20.3583  -11.0194 C   0  0  0  0  0  0  0  0  0  0  0  0
   25.1857  -20.5992  -10.7083 C   0  0  2  0  0  0  0  0  0  0  0  0
   25.5152  -20.0462   -9.3786 N   0  0  0  0  0  0  0  0  0  0  0  0
   26.1297  -20.0419  -11.7044 C   0  0  0  0  0  0  0  0  0  0  0  0
   26.0975  -18.8279  -11.9934 O   0  0  0  0  0  0  0  0  0  0  0  0
   19.2136  -22.9387  -11.1667 N   0  0  0  0  0  0  0  0  0  0  0  0
   27.1033  -20.8725  -12.3625 C   0  0  2  0  0  0  0  0  0  0  0  0
   27.8789  -20.2990  -13.4253 C   0  0  0  0  0  0  0  0  0  0  0  0
   29.3376  -20.5036  -13.0635 S   0  0  0  0  0  0  0  0  0  0  0  0
   29.6077  -22.2569  -12.7266 C   0  0  0  0  0  0  0  0  0  0  0  0
   27.5351  -20.8643  -14.7495 O   0  0  0  0  0  0  0  0  0  0  0  0
   26.7491  -21.8453  -14.8798 O   0  0  0  0  0  0  0  0  0  0  0  0
  2  4  1  0
  2  1  1  1
  3  2  1  0
  4  5  1  0
  5  6  1  1
  7  8  2  0
  7  5  1  0
  9 10  1  0
 10 12  1  0
 11 10  2  0
 12 13  1  0
 13 14  1  0
 14 15  1  0
 16 15  1  6
 16 17  1  0
 17  7  1  0
 18 16  1  0
 19 18  2  0
 20 18  1  0
 21 20  1  0
 21 22  1  1
 23 22  1  0
 24 21  1  0
 24 26  1  0
 25 24  2  0
M  END
$$$$
