LRC.pdb
     RDKit          3D

 26 25  0  0  1  0  0  0  0  0999 V2000
   29.3961  -20.0802   -4.4869 C   0  0  0  0  0  0  0  0  0  0  0  0
   27.9998  -20.1016   -5.0597 C   0  0  1  0  0  0  0  0  0  0  0  0
   27.1014  -19.0817   -4.4308 C   0  0  0  0  0  0  0  0  0  0  0  0
   28.0846  -19.8983   -6.5803 C   0  0  0  0  0  0  0  0  0  0  0  0
   26.6531  -19.9385   -7.0726 C   0  0  2  0  0  0  0  0  0  0  0  0
   26.1981  -21.3086   -6.8543 N   0  0  0  0  0  0  0  0  0  0  0  0
   26.5255  -19.6324   -8.4986 C   0  0  0  0  0  0  0  0  0  0  0  0
   26.5006  -18.4353   -8.8674 O   0  0  0  0  0  0  0  0  0  0  0  0
   31.7460  -20.6963   -9.6874 N   0  0  0  0  0  0  0  0  0  0  0  0
   31.7341  -22.0132  -10.2798 C   0  0  0  0  0  0  0  0  0  0  0  0
   32.5929  -22.8561   -9.8785 N   0  0  0  0  0  0  0  0  0  0  0  0
   30.7851  -22.3485  -11.2840 N   0  0  0  0  0  0  0  0  0  0  0  0
   29.8338  -21.3983  -11.7797 C   0  0  0  0  0  0  0  0  0  0  0  0
   28.5988  -21.3032  -10.9253 C   0  0  0  0  0  0  0  0  0  0  0  0
   27.6054  -20.3967  -11.5850 C   0  0  0  0  0  0  0  0  0  0  0  0
   26.2873  -20.2808  -10.8923 C   0  0  2  0  0  0  0  0  0  0  0  0
   26.4300  -20.6500   -9.4689 N   0  0  0  0  0  0  0  0  0  0  0  0
   25.2059  -21.0968  -11.4911 C   0  0  0  0  0  0  0  0  0  0  0  0
   24.8790  -22.1860  -10.9762 O   0  0  0  0  0  0  0  0  0  0  0  0
   32.6754  -23.7801  -10.3435 N   0  0  0  0  0  0  0  0  0  0  0  0
   24.5054  -20.6645  -12.6715 C   0  0  1  0  0  0  0  0  0  0  0  0
   23.2403  -21.2722  -12.9719 C   0  0  0  0  0  0  0  0  0  0  0  0
   22.2946  -20.8954  -11.8474 S   0  0  0  0  0  0  0  0  0  0  0  0
   20.6803  -21.6328  -12.1802 C   0  0  0  0  0  0  0  0  0  0  0  0
   22.7251  -20.8845  -14.3044 O   0  0  0  0  0  0  0  0  0  0  0  0
   21.9970  -21.6526  -14.9949 O   0  0  0  0  0  0  0  0  0  0  0  0
  2  4  1  0
  2  1  1  1
  3  2  1  0
  4  5  1  0
  5  6  1  6
  7  8  2  0
  7  5  1  0
  9 10  1  0
 10 12  1  0
 11 10  2  0
 12 13  1  0
 13 14  1  0
 14 15  1  0
 16 15  1  6
 16 17  1  0
 17  7  1  0
 18 16  1  0
 19 18  2  0
 20 18  1  0
 21 20  1  0
 21 22  1  6
 23 22  1  0
 24 21  1  0
 24 26  1  0
 25 24  2  0
M  END
$$$$
