LRC.pdb
     RDKit          3D

 26 25  0  0  1  0  0  0  0  0999 V2000
   30.3293  -21.3406  -10.2499 C   0  0  0  0  0  0  0  0  0  0  0  0
   28.8459  -21.3116   -9.9728 C   0  0  1  0  0  0  0  0  0  0  0  0
   28.5166  -20.6858   -8.6528 C   0  0  0  0  0  0  0  0  0  0  0  0
   28.1411  -20.5755  -11.1227 C   0  0  0  0  0  0  0  0  0  0  0  0
   26.6710  -20.9057  -10.9713 C   0  0  2  0  0  0  0  0  0  0  0  0
   26.5893  -22.3634  -10.9886 N   0  0  0  0  0  0  0  0  0  0  0  0
   25.8481  -20.3852  -12.0648 C   0  0  0  0  0  0  0  0  0  0  0  0
   25.7013  -19.1467  -12.1837 O   0  0  0  0  0  0  0  0  0  0  0  0
   28.5587  -23.7202  -16.7824 N   0  0  0  0  0  0  0  0  0  0  0  0
   27.1441  -23.9901  -16.8882 C   0  0  0  0  0  0  0  0  0  0  0  0
   26.7540  -25.1902  -16.7597 N   0  0  0  0  0  0  0  0  0  0  0  0
   26.2206  -22.9366  -17.1304 N   0  0  0  0  0  0  0  0  0  0  0  0
   26.6123  -21.5585  -17.0969 C   0  0  0  0  0  0  0  0  0  0  0  0
   26.2827  -20.8858  -15.7919 C   0  0  0  0  0  0  0  0  0  0  0  0
   24.8773  -21.2235  -15.3986 C   0  0  0  0  0  0  0  0  0  0  0  0
   24.4259  -20.6581  -14.0920 C   0  0  2  0  0  0  0  0  0  0  0  0
   25.2160  -21.2416  -12.9885 N   0  0  0  0  0  0  0  0  0  0  0  0
   22.9862  -20.8535  -13.8038 C   0  0  0  0  0  0  0  0  0  0  0  0
   22.5827  -21.9244  -13.3049 O   0  0  0  0  0  0  0  0  0  0  0  0
   25.7419  -25.4170  -16.7896 N   0  0  0  0  0  0  0  0  0  0  0  0
   22.0182  -19.8267  -14.0858 C   0  0  1  0  0  0  0  0  0  0  0  0
   20.6357  -20.1040  -13.8180 C   0  0  0  0  0  0  0  0  0  0  0  0
   20.0536  -18.8566  -13.1808 S   0  0  0  0  0  0  0  0  0  0  0  0
   18.3337  -19.1837  -12.7390 C   0  0  0  0  0  0  0  0  0  0  0  0
   19.8949  -20.5246  -15.0287 O   0  0  0  0  0  0  0  0  0  0  0  0
   20.2896  -20.2365  -16.1941 O   0  0  0  0  0  0  0  0  0  0  0  0
  2  4  1  0
  2  1  1  6
  3  2  1  0
  4  5  1  0
  5  6  1  6
  7  8  2  0
  7  5  1  0
  9 10  1  0
 10 12  1  0
 11 10  2  0
 12 13  1  0
 13 14  1  0
 14 15  1  0
 16 15  1  6
 16 17  1  0
 17  7  1  0
 18 16  1  0
 19 18  2  0
 20 18  1  0
 21 20  1  0
 21 22  1  6
 23 22  1  0
 24 21  1  0
 24 26  1  0
 25 24  2  0
M  END
$$$$
