LRC.pdb
     RDKit          3D

 26 25  0  0  1  0  0  0  0  0999 V2000
   17.4109  -13.2781  -16.3686 C   0  0  0  0  0  0  0  0  0  0  0  0
   18.2851  -12.1730  -15.8278 C   0  0  1  0  0  0  0  0  0  0  0  0
   19.4627  -11.8849  -16.7069 C   0  0  0  0  0  0  0  0  0  0  0  0
   17.4263  -10.9147  -15.6271 C   0  0  0  0  0  0  0  0  0  0  0  0
   18.3806   -9.8516  -15.1247 C   0  0  2  0  0  0  0  0  0  0  0  0
   19.0123  -10.4172  -13.9360 N   0  0  0  0  0  0  0  0  0  0  0  0
   17.7083   -8.6086  -14.7418 C   0  0  0  0  0  0  0  0  0  0  0  0
   16.9820   -8.0234  -15.5783 O   0  0  0  0  0  0  0  0  0  0  0  0
   14.9197   -6.5082   -6.9139 N   0  0  0  0  0  0  0  0  0  0  0  0
   14.1610   -6.9615   -8.0558 C   0  0  0  0  0  0  0  0  0  0  0  0
   13.0909   -7.6086   -7.8430 N   0  0  0  0  0  0  0  0  0  0  0  0
   14.6065   -6.6878   -9.3780 N   0  0  0  0  0  0  0  0  0  0  0  0
   15.7470   -5.8608   -9.6408 C   0  0  0  0  0  0  0  0  0  0  0  0
   16.0186   -5.6847  -11.1104 C   0  0  0  0  0  0  0  0  0  0  0  0
   16.7530   -6.8832  -11.6282 C   0  0  0  0  0  0  0  0  0  0  0  0
   17.0662   -6.8593  -13.0883 C   0  0  2  0  0  0  0  0  0  0  0  0
   17.8565   -8.0522  -13.4555 N   0  0  0  0  0  0  0  0  0  0  0  0
   17.7905   -5.6490  -13.5404 C   0  0  0  0  0  0  0  0  0  0  0  0
   19.0005   -5.5008  -13.2712 O   0  0  0  0  0  0  0  0  0  0  0  0
   12.4898   -7.9004   -8.6368 N   0  0  0  0  0  0  0  0  0  0  0  0
   17.1302   -4.6176  -14.2961 C   0  0  2  0  0  0  0  0  0  0  0  0
   17.8869   -3.4552  -14.6653 C   0  0  0  0  0  0  0  0  0  0  0  0
   17.8085   -3.3424  -16.1758 S   0  0  0  0  0  0  0  0  0  0  0  0
   18.6857   -1.8498  -16.6888 C   0  0  0  0  0  0  0  0  0  0  0  0
   17.4204   -2.2305  -13.9769 O   0  0  0  0  0  0  0  0  0  0  0  0
   16.2052   -2.0429  -13.6852 O   0  0  0  0  0  0  0  0  0  0  0  0
  2  4  1  0
  2  1  1  6
  3  2  1  0
  4  5  1  0
  5  6  1  1
  7  8  2  0
  7  5  1  0
  9 10  1  0
 10 12  1  0
 11 10  2  0
 12 13  1  0
 13 14  1  0
 14 15  1  0
 16 15  1  1
 16 17  1  0
 17  7  1  0
 18 16  1  0
 19 18  2  0
 20 18  1  0
 21 20  1  0
 21 22  1  6
 23 22  1  0
 24 21  1  0
 24 26  1  0
 25 24  2  0
M  END
$$$$
