LRC.pdb
     RDKit          3D

 26 25  0  0  1  0  0  0  0  0999 V2000
   27.5828  -18.8826  -14.5125 C   0  0  0  0  0  0  0  0  0  0  0  0
   26.6316  -20.0536  -14.4675 C   0  0  1  0  0  0  0  0  0  0  0  0
   27.2449  -21.2730  -13.8515 C   0  0  0  0  0  0  0  0  0  0  0  0
   25.3626  -19.6327  -13.7102 C   0  0  0  0  0  0  0  0  0  0  0  0
   24.4799  -20.8629  -13.6882 C   0  0  2  0  0  0  0  0  0  0  0  0
   24.3189  -21.2591  -15.0843 N   0  0  0  0  0  0  0  0  0  0  0  0
   23.1523  -20.6094  -13.1253 C   0  0  0  0  0  0  0  0  0  0  0  0
   22.7049  -19.4392  -13.1169 O   0  0  0  0  0  0  0  0  0  0  0  0
   21.2308  -19.3872  -17.4657 N   0  0  0  0  0  0  0  0  0  0  0  0
   20.3277  -20.4694  -17.1520 C   0  0  0  0  0  0  0  0  0  0  0  0
   20.2726  -21.4520  -17.9523 N   0  0  0  0  0  0  0  0  0  0  0  0
   19.5257  -20.4281  -15.9787 N   0  0  0  0  0  0  0  0  0  0  0  0
   19.5523  -19.3142  -15.0775 C   0  0  0  0  0  0  0  0  0  0  0  0
   20.4005  -19.5641  -13.8600 C   0  0  0  0  0  0  0  0  0  0  0  0
   20.1608  -20.9568  -13.3632 C   0  0  0  0  0  0  0  0  0  0  0  0
   20.9744  -21.3616  -12.1780 C   0  0  2  0  0  0  0  0  0  0  0  0
   22.3632  -21.6482  -12.5920 N   0  0  0  0  0  0  0  0  0  0  0  0
   20.4445  -22.5322  -11.4413 C   0  0  0  0  0  0  0  0  0  0  0  0
   20.4795  -23.6693  -11.9552 O   0  0  0  0  0  0  0  0  0  0  0  0
   19.6009  -22.2251  -17.7853 N   0  0  0  0  0  0  0  0  0  0  0  0
   19.8798  -22.3975  -10.1245 C   0  0  2  0  0  0  0  0  0  0  0  0
   19.2800  -23.5532   -9.5207 C   0  0  0  0  0  0  0  0  0  0  0  0
   19.2215  -23.2880   -8.0284 S   0  0  0  0  0  0  0  0  0  0  0  0
   18.6246  -24.7777   -7.2009 C   0  0  0  0  0  0  0  0  0  0  0  0
   17.9536  -23.8718  -10.0957 O   0  0  0  0  0  0  0  0  0  0  0  0
   17.1299  -22.9729  -10.4282 O   0  0  0  0  0  0  0  0  0  0  0  0
  2  4  1  0
  2  1  1  1
  3  2  1  0
  4  5  1  0
  5  6  1  6
  7  8  2  0
  7  5  1  0
  9 10  1  0
 10 12  1  0
 11 10  2  0
 12 13  1  0
 13 14  1  0
 14 15  1  0
 16 15  1  6
 16 17  1  0
 17  7  1  0
 18 16  1  0
 19 18  2  0
 20 18  1  0
 21 20  1  0
 21 22  1  1
 23 22  1  0
 24 21  1  0
 24 26  1  0
 25 24  2  0
M  END
$$$$
