LRC.pdb
     RDKit          3D

 26 25  0  0  1  0  0  0  0  0999 V2000
   24.3276  -20.0090  -17.5274 C   0  0  0  0  0  0  0  0  0  0  0  0
   23.8615  -19.7004  -16.1254 C   0  0  1  0  0  0  0  0  0  0  0  0
   22.9088  -18.5460  -16.0740 C   0  0  0  0  0  0  0  0  0  0  0  0
   23.2282  -20.9645  -15.5239 C   0  0  0  0  0  0  0  0  0  0  0  0
   22.5206  -20.5020  -14.2676 C   0  0  2  0  0  0  0  0  0  0  0  0
   23.4291  -20.8082  -13.1664 N   0  0  0  0  0  0  0  0  0  0  0  0
   21.2557  -21.1996  -14.0288 C   0  0  0  0  0  0  0  0  0  0  0  0
   20.4874  -21.4202  -14.9935 O   0  0  0  0  0  0  0  0  0  0  0  0
   17.1507  -26.6387   -8.6722 N   0  0  0  0  0  0  0  0  0  0  0  0
   18.5189  -26.5338   -9.1220 C   0  0  0  0  0  0  0  0  0  0  0  0
   19.1993  -27.6000   -9.2178 N   0  0  0  0  0  0  0  0  0  0  0  0
   19.0812  -25.2687   -9.4458 N   0  0  0  0  0  0  0  0  0  0  0  0
   18.3142  -24.0592   -9.3937 C   0  0  0  0  0  0  0  0  0  0  0  0
   18.1980  -23.3795  -10.7312 C   0  0  0  0  0  0  0  0  0  0  0  0
   19.5626  -22.9941  -11.2142 C   0  0  0  0  0  0  0  0  0  0  0  0
   19.6068  -22.3607  -12.5660 C   0  0  2  0  0  0  0  0  0  0  0  0
   20.8790  -21.6304  -12.7409 N   0  0  0  0  0  0  0  0  0  0  0  0
   18.4835  -21.4373  -12.8477 C   0  0  0  0  0  0  0  0  0  0  0  0
   18.4193  -20.3296  -12.2757 O   0  0  0  0  0  0  0  0  0  0  0  0
   20.1793  -27.5660   -9.5571 N   0  0  0  0  0  0  0  0  0  0  0  0
   17.4429  -21.7835  -13.7795 C   0  0  2  0  0  0  0  0  0  0  0  0
   16.4092  -20.8205  -14.0325 C   0  0  0  0  0  0  0  0  0  0  0  0
   16.1619  -20.8255  -15.5291 S   0  0  0  0  0  0  0  0  0  0  0  0
   15.1068  -19.4202  -15.9439 C   0  0  0  0  0  0  0  0  0  0  0  0
   15.1806  -21.0860  -13.2507 O   0  0  0  0  0  0  0  0  0  0  0  0
   14.2566  -20.2314  -13.1366 O   0  0  0  0  0  0  0  0  0  0  0  0
  2  4  1  0
  2  1  1  6
  3  2  1  0
  4  5  1  0
  5  6  1  1
  7  8  2  0
  7  5  1  0
  9 10  1  0
 10 12  1  0
 11 10  2  0
 12 13  1  0
 13 14  1  0
 14 15  1  0
 16 15  1  1
 16 17  1  0
 17  7  1  0
 18 16  1  0
 19 18  2  0
 20 18  1  0
 21 20  1  0
 21 22  1  6
 23 22  1  0
 24 21  1  0
 24 26  1  0
 25 24  2  0
M  END
$$$$
