LRC.pdb
     RDKit          3D

 26 25  0  0  1  0  0  0  0  0999 V2000
    9.0164  -12.2806  -12.8412 C   0  0  0  0  0  0  0  0  0  0  0  0
   10.1730  -13.0525  -13.4282 C   0  0  1  0  0  0  0  0  0  0  0  0
    9.9707  -13.3864  -14.8739 C   0  0  0  0  0  0  0  0  0  0  0  0
   11.4632  -12.2433  -13.2249 C   0  0  0  0  0  0  0  0  0  0  0  0
   12.5758  -13.1160  -13.7670 C   0  0  2  0  0  0  0  0  0  0  0  0
   12.7418  -14.1936  -12.7959 N   0  0  0  0  0  0  0  0  0  0  0  0
   13.8520  -12.4097  -13.8941 C   0  0  0  0  0  0  0  0  0  0  0  0
   14.6026  -12.3184  -12.8952 O   0  0  0  0  0  0  0  0  0  0  0  0
   21.2799  -13.1909  -16.9931 N   0  0  0  0  0  0  0  0  0  0  0  0
   21.2290  -11.7582  -17.1658 C   0  0  0  0  0  0  0  0  0  0  0  0
   22.3083  -11.1511  -17.4405 N   0  0  0  0  0  0  0  0  0  0  0  0
   20.0012  -11.0542  -17.0297 N   0  0  0  0  0  0  0  0  0  0  0  0
   18.7534  -11.7313  -16.8338 C   0  0  0  0  0  0  0  0  0  0  0  0
   17.6069  -10.7892  -16.5841 C   0  0  0  0  0  0  0  0  0  0  0  0
   16.3647  -11.5791  -16.3067 C   0  0  0  0  0  0  0  0  0  0  0  0
   15.5342  -11.0852  -15.1679 C   0  0  2  0  0  0  0  0  0  0  0  0
   14.2591  -11.8291  -15.1120 N   0  0  0  0  0  0  0  0  0  0  0  0
   15.2392   -9.6343  -15.2079 C   0  0  0  0  0  0  0  0  0  0  0  0
   14.4538   -9.1739  -16.0621 O   0  0  0  0  0  0  0  0  0  0  0  0
   22.3026  -10.1287  -17.6175 N   0  0  0  0  0  0  0  0  0  0  0  0
   15.8410   -8.7200  -14.2737 C   0  0  2  0  0  0  0  0  0  0  0  0
   15.6673   -7.3122  -14.4926 C   0  0  0  0  0  0  0  0  0  0  0  0
   15.9934   -6.6211  -13.1824 S   0  0  0  0  0  0  0  0  0  0  0  0
   15.8248   -4.8382  -13.4134 C   0  0  0  0  0  0  0  0  0  0  0  0
   16.4808   -6.8073  -15.6216 O   0  0  0  0  0  0  0  0  0  0  0  0
   17.6699   -7.1874  -15.8182 O   0  0  0  0  0  0  0  0  0  0  0  0
  2  4  1  0
  2  1  1  6
  3  2  1  0
  4  5  1  0
  5  6  1  1
  7  8  2  0
  7  5  1  0
  9 10  1  0
 10 12  1  0
 11 10  2  0
 12 13  1  0
 13 14  1  0
 14 15  1  0
 16 15  1  6
 16 17  1  0
 17  7  1  0
 18 16  1  0
 19 18  2  0
 20 18  1  0
 21 20  1  0
 21 22  1  1
 23 22  1  0
 24 21  1  0
 24 26  1  0
 25 24  2  0
M  END
$$$$
