LRC.pdb
     RDKit          3D

 26 25  0  0  1  0  0  0  0  0999 V2000
   28.0277  -14.1987  -15.7210 C   0  0  0  0  0  0  0  0  0  0  0  0
   26.6252  -14.6935  -15.9784 C   0  0  1  0  0  0  0  0  0  0  0  0
   26.0472  -15.4272  -14.8078 C   0  0  0  0  0  0  0  0  0  0  0  0
   25.7421  -13.4989  -16.3706 C   0  0  0  0  0  0  0  0  0  0  0  0
   24.3896  -14.0910  -16.7071 C   0  0  2  0  0  0  0  0  0  0  0  0
   24.6168  -14.9724  -17.8488 N   0  0  0  0  0  0  0  0  0  0  0  0
   23.3995  -13.0836  -17.0927 C   0  0  0  0  0  0  0  0  0  0  0  0
   23.4308  -12.6074  -18.2510 O   0  0  0  0  0  0  0  0  0  0  0  0
   16.9012   -9.5388  -14.3976 N   0  0  0  0  0  0  0  0  0  0  0  0
   16.1468   -9.7744  -15.6062 C   0  0  0  0  0  0  0  0  0  0  0  0
   15.1379   -9.0397  -15.8330 N   0  0  0  0  0  0  0  0  0  0  0  0
   16.5288  -10.8023  -16.5112 N   0  0  0  0  0  0  0  0  0  0  0  0
   17.6262  -11.6839  -16.2422 C   0  0  0  0  0  0  0  0  0  0  0  0
   18.9624  -11.0763  -16.5736 C   0  0  0  0  0  0  0  0  0  0  0  0
   20.0445  -12.0771  -16.3063 C   0  0  0  0  0  0  0  0  0  0  0  0
   21.4282  -11.6278  -16.6442 C   0  0  2  0  0  0  0  0  0  0  0  0
   22.4109  -12.6348  -16.1941 N   0  0  0  0  0  0  0  0  0  0  0  0
   21.8008  -10.3108  -16.0782 C   0  0  0  0  0  0  0  0  0  0  0  0
   22.0968  -10.2046  -14.8701 O   0  0  0  0  0  0  0  0  0  0  0  0
   14.6237   -9.1205  -16.7307 N   0  0  0  0  0  0  0  0  0  0  0  0
   21.8336   -9.1255  -16.8937 C   0  0  2  0  0  0  0  0  0  0  0  0
   22.2067   -7.8851  -16.2754 C   0  0  0  0  0  0  0  0  0  0  0  0
   22.3568   -6.8672  -17.3898 S   0  0  0  0  0  0  0  0  0  0  0  0
   22.9153   -5.3065  -16.6738 C   0  0  0  0  0  0  0  0  0  0  0  0
   21.2440   -7.4553  -15.2363 O   0  0  0  0  0  0  0  0  0  0  0  0
   19.9951   -7.5839  -15.3803 O   0  0  0  0  0  0  0  0  0  0  0  0
  2  4  1  0
  2  1  1  1
  3  2  1  0
  4  5  1  0
  5  6  1  6
  7  8  2  0
  7  5  1  0
  9 10  1  0
 10 12  1  0
 11 10  2  0
 12 13  1  0
 13 14  1  0
 14 15  1  0
 16 15  1  1
 16 17  1  0
 17  7  1  0
 18 16  1  0
 19 18  2  0
 20 18  1  0
 21 20  1  0
 21 22  1  6
 23 22  1  0
 24 21  1  0
 24 26  1  0
 25 24  2  0
M  END
$$$$
