LRC.pdb
     RDKit          3D

 26 25  0  0  1  0  0  0  0  0999 V2000
   15.7299  -21.9575    0.4146 C   0  0  0  0  0  0  0  0  0  0  0  0
   15.4383  -21.5763    1.8456 C   0  0  1  0  0  0  0  0  0  0  0  0
   15.4327  -22.7558    2.7683 C   0  0  0  0  0  0  0  0  0  0  0  0
   16.4657  -20.5273    2.2984 C   0  0  0  0  0  0  0  0  0  0  0  0
   16.1708  -20.2808    3.7632 C   0  0  2  0  0  0  0  0  0  0  0  0
   14.8012  -19.7771    3.8115 N   0  0  0  0  0  0  0  0  0  0  0  0
   17.0515  -19.2793    4.3675 C   0  0  0  0  0  0  0  0  0  0  0  0
   18.2929  -19.4282    4.2868 O   0  0  0  0  0  0  0  0  0  0  0  0
   19.4303  -11.6913    4.4171 N   0  0  0  0  0  0  0  0  0  0  0  0
   19.7903  -12.0049    5.7799 C   0  0  0  0  0  0  0  0  0  0  0  0
   20.7161  -11.3294    6.3234 N   0  0  0  0  0  0  0  0  0  0  0  0
   19.1228  -13.0428    6.4861 N   0  0  0  0  0  0  0  0  0  0  0  0
   18.2600  -13.9785    5.8275 C   0  0  0  0  0  0  0  0  0  0  0  0
   17.5976  -14.9372    6.7796 C   0  0  0  0  0  0  0  0  0  0  0  0
   16.7881  -15.9304    6.0034 C   0  0  0  0  0  0  0  0  0  0  0  0
   17.4723  -17.2259    5.7140 C   0  0  2  0  0  0  0  0  0  0  0  0
   16.5392  -18.1507    5.0382 N   0  0  0  0  0  0  0  0  0  0  0  0
   18.0352  -17.9019    6.9056 C   0  0  0  0  0  0  0  0  0  0  0  0
   17.3343  -18.6902    7.5733 O   0  0  0  0  0  0  0  0  0  0  0  0
   21.0217  -11.5454    7.2913 N   0  0  0  0  0  0  0  0  0  0  0  0
   19.3925  -17.6745    7.3264 C   0  0  2  0  0  0  0  0  0  0  0  0
   19.8585  -18.3420    8.5084 C   0  0  0  0  0  0  0  0  0  0  0  0
   21.2054  -18.9502    8.1665 S   0  0  0  0  0  0  0  0  0  0  0  0
   21.0103  -20.0027    6.7124 C   0  0  0  0  0  0  0  0  0  0  0  0
   19.9205  -17.4427    9.6827 O   0  0  0  0  0  0  0  0  0  0  0  0
   19.5607  -16.2327    9.6244 O   0  0  0  0  0  0  0  0  0  0  0  0
  2  4  1  0
  2  1  1  6
  3  2  1  0
  4  5  1  0
  5  6  1  6
  7  8  2  0
  7  5  1  0
  9 10  1  0
 10 12  1  0
 11 10  2  0
 12 13  1  0
 13 14  1  0
 14 15  1  0
 16 15  1  1
 16 17  1  0
 17  7  1  0
 18 16  1  0
 19 18  2  0
 20 18  1  0
 21 20  1  0
 21 22  1  6
 23 22  1  0
 24 21  1  0
 24 26  1  0
 25 24  2  0
M  END
$$$$
