LRC.pdb
     RDKit          3D

 26 25  0  0  1  0  0  0  0  0999 V2000
   26.2332  -21.1091  -11.5707 C   0  0  0  0  0  0  0  0  0  0  0  0
   25.3922  -21.2192  -12.8191 C   0  0  1  0  0  0  0  0  0  0  0  0
   25.9300  -22.2230  -13.7916 C   0  0  0  0  0  0  0  0  0  0  0  0
   23.9492  -21.5605  -12.4164 C   0  0  0  0  0  0  0  0  0  0  0  0
   23.1499  -21.5113  -13.7015 C   0  0  2  0  0  0  0  0  0  0  0  0
   23.1701  -20.1146  -14.1266 N   0  0  0  0  0  0  0  0  0  0  0  0
   21.7546  -21.9199  -13.5281 C   0  0  0  0  0  0  0  0  0  0  0  0
   20.9446  -21.1220  -13.0019 O   0  0  0  0  0  0  0  0  0  0  0  0
   15.4942  -23.8998  -16.7769 N   0  0  0  0  0  0  0  0  0  0  0  0
   16.6946  -24.1178  -17.5495 C   0  0  0  0  0  0  0  0  0  0  0  0
   16.8037  -23.5220  -18.6640 N   0  0  0  0  0  0  0  0  0  0  0  0
   17.7202  -24.9776  -17.0695 N   0  0  0  0  0  0  0  0  0  0  0  0
   17.5873  -25.7115  -15.8458 C   0  0  0  0  0  0  0  0  0  0  0  0
   17.9769  -24.9087  -14.6342 C   0  0  0  0  0  0  0  0  0  0  0  0
   19.3538  -24.3514  -14.8278 C   0  0  0  0  0  0  0  0  0  0  0  0
   19.8959  -23.5722  -13.6747 C   0  0  2  0  0  0  0  0  0  0  0  0
   21.2980  -23.1886  -13.9381 N   0  0  0  0  0  0  0  0  0  0  0  0
   19.8300  -24.2766  -12.3734 C   0  0  0  0  0  0  0  0  0  0  0  0
   20.7099  -25.1045  -12.0593 O   0  0  0  0  0  0  0  0  0  0  0  0
   17.6269  -23.6960  -19.2714 N   0  0  0  0  0  0  0  0  0  0  0  0
   18.7622  -24.0311  -11.4404 C   0  0  2  0  0  0  0  0  0  0  0  0
   18.7586  -24.7605  -10.2042 C   0  0  0  0  0  0  0  0  0  0  0  0
   18.1699  -23.8392   -9.1530 S   0  0  0  0  0  0  0  0  0  0  0  0
   19.2183  -22.3753   -9.0169 C   0  0  0  0  0  0  0  0  0  0  0  0
   18.0339  -26.0474  -10.3051 O   0  0  0  0  0  0  0  0  0  0  0  0
   17.1696  -26.2654  -11.2009 O   0  0  0  0  0  0  0  0  0  0  0  0
  2  4  1  0
  2  1  1  1
  3  2  1  0
  4  5  1  0
  5  6  1  1
  7  8  2  0
  7  5  1  0
  9 10  1  0
 10 12  1  0
 11 10  2  0
 12 13  1  0
 13 14  1  0
 14 15  1  0
 16 15  1  6
 16 17  1  0
 17  7  1  0
 18 16  1  0
 19 18  2  0
 20 18  1  0
 21 20  1  0
 21 22  1  6
 23 22  1  0
 24 21  1  0
 24 26  1  0
 25 24  2  0
M  END
$$$$
