LRC.pdb
     RDKit          3D

 26 25  0  0  1  0  0  0  0  0999 V2000
   31.6776  -36.1469  -22.1432 C   0  0  0  0  0  0  0  0  0  0  0  0
   32.3466  -34.8908  -21.6404 C   0  0  1  0  0  0  0  0  0  0  0  0
   31.5792  -34.2289  -20.5378 C   0  0  0  0  0  0  0  0  0  0  0  0
   33.7738  -35.2363  -21.1880 C   0  0  0  0  0  0  0  0  0  0  0  0
   34.3467  -33.9455  -20.6413 C   0  0  2  0  0  0  0  0  0  0  0  0
   34.9060  -33.2423  -21.7922 N   0  0  0  0  0  0  0  0  0  0  0  0
   35.4179  -34.1582  -19.6661 C   0  0  0  0  0  0  0  0  0  0  0  0
   36.5808  -34.3835  -20.0745 O   0  0  0  0  0  0  0  0  0  0  0  0
   35.7201  -28.8326  -13.5264 N   0  0  0  0  0  0  0  0  0  0  0  0
   36.4920  -28.5804  -14.7204 C   0  0  0  0  0  0  0  0  0  0  0  0
   36.9533  -27.4122  -14.8975 N   0  0  0  0  0  0  0  0  0  0  0  0
   36.7237  -29.6159  -15.6668 N   0  0  0  0  0  0  0  0  0  0  0  0
   36.3644  -30.9787  -15.4069 C   0  0  0  0  0  0  0  0  0  0  0  0
   36.6542  -31.8937  -16.5658 C   0  0  0  0  0  0  0  0  0  0  0  0
   36.1950  -33.2801  -16.2327 C   0  0  0  0  0  0  0  0  0  0  0  0
   36.3068  -34.2742  -17.3417 C   0  0  2  0  0  0  0  0  0  0  0  0
   35.1755  -34.1160  -18.2785 N   0  0  0  0  0  0  0  0  0  0  0  0
   36.3643  -35.6857  -16.8966 C   0  0  0  0  0  0  0  0  0  0  0  0
   35.3130  -36.3146  -16.6567 O   0  0  0  0  0  0  0  0  0  0  0  0
   37.5580  -27.2074  -15.7156 N   0  0  0  0  0  0  0  0  0  0  0  0
   37.6196  -36.3692  -16.7290 C   0  0  1  0  0  0  0  0  0  0  0  0
   37.5942  -37.7604  -16.3767 C   0  0  0  0  0  0  0  0  0  0  0  0
   36.6260  -37.9016  -15.2176 S   0  0  0  0  0  0  0  0  0  0  0  0
   36.7044  -39.5982  -14.6043 C   0  0  0  0  0  0  0  0  0  0  0  0
   37.2441  -38.6309  -17.5216 O   0  0  0  0  0  0  0  0  0  0  0  0
   36.8423  -38.1639  -18.6250 O   0  0  0  0  0  0  0  0  0  0  0  0
  2  4  1  0
  2  1  1  1
  3  2  1  0
  4  5  1  0
  5  6  1  6
  7  8  2  0
  7  5  1  0
  9 10  1  0
 10 12  1  0
 11 10  2  0
 12 13  1  0
 13 14  1  0
 14 15  1  0
 16 15  1  1
 16 17  1  0
 17  7  1  0
 18 16  1  0
 19 18  2  0
 20 18  1  0
 21 20  1  0
 21 22  1  1
 23 22  1  0
 24 21  1  0
 24 26  1  0
 25 24  2  0
M  END
$$$$
