LRC.pdb
     RDKit          3D

 26 25  0  0  1  0  0  0  0  0999 V2000
   20.2059  -18.3428  -12.3316 C   0  0  0  0  0  0  0  0  0  0  0  0
   21.2788  -19.2372  -12.9037 C   0  0  1  0  0  0  0  0  0  0  0  0
   22.1460  -18.5339  -13.9016 C   0  0  0  0  0  0  0  0  0  0  0  0
   22.1175  -19.8063  -11.7489 C   0  0  0  0  0  0  0  0  0  0  0  0
   23.1905  -20.6481  -12.4072 C   0  0  2  0  0  0  0  0  0  0  0  0
   22.5072  -21.8355  -12.9122 N   0  0  0  0  0  0  0  0  0  0  0  0
   24.2361  -21.0788  -11.4772 C   0  0  0  0  0  0  0  0  0  0  0  0
   23.9433  -21.8717  -10.5524 O   0  0  0  0  0  0  0  0  0  0  0  0
   31.6663  -21.1268   -8.7412 N   0  0  0  0  0  0  0  0  0  0  0  0
   32.0677  -22.1927   -9.6288 C   0  0  0  0  0  0  0  0  0  0  0  0
   33.0770  -22.8901   -9.3064 N   0  0  0  0  0  0  0  0  0  0  0  0
   31.3484  -22.4473  -10.8286 N   0  0  0  0  0  0  0  0  0  0  0  0
   30.3471  -21.5480  -11.3210 C   0  0  0  0  0  0  0  0  0  0  0  0
   29.0844  -21.5703  -10.5029 C   0  0  0  0  0  0  0  0  0  0  0  0
   27.9265  -21.1661  -11.3632 C   0  0  0  0  0  0  0  0  0  0  0  0
   26.5963  -21.1626  -10.6841 C   0  0  2  0  0  0  0  0  0  0  0  0
   25.5650  -20.6247  -11.5949 N   0  0  0  0  0  0  0  0  0  0  0  0
   26.5576  -20.3997   -9.4152 C   0  0  0  0  0  0  0  0  0  0  0  0
   26.4067  -19.1606   -9.4288 O   0  0  0  0  0  0  0  0  0  0  0  0
   33.4016  -23.6572   -9.9252 N   0  0  0  0  0  0  0  0  0  0  0  0
   26.6904  -21.0552   -8.1410 C   0  0  2  0  0  0  0  0  0  0  0  0
   27.0141  -20.2541   -6.9949 C   0  0  0  0  0  0  0  0  0  0  0  0
   26.6504  -21.0726   -5.7708 S   0  0  0  0  0  0  0  0  0  0  0  0
   27.2252  -20.1968   -4.3000 C   0  0  0  0  0  0  0  0  0  0  0  0
   28.4279  -19.8156   -6.9883 O   0  0  0  0  0  0  0  0  0  0  0  0
   29.3605  -20.5412   -7.4363 O   0  0  0  0  0  0  0  0  0  0  0  0
  2  4  1  0
  2  1  1  1
  3  2  1  0
  4  5  1  0
  5  6  1  1
  7  8  2  0
  7  5  1  0
  9 10  1  0
 10 12  1  0
 11 10  2  0
 12 13  1  0
 13 14  1  0
 14 15  1  0
 16 15  1  6
 16 17  1  0
 17  7  1  0
 18 16  1  0
 19 18  2  0
 20 18  1  0
 21 20  1  0
 21 22  1  1
 23 22  1  0
 24 21  1  0
 24 26  1  0
 25 24  2  0
M  END
$$$$
