LRC.pdb
     RDKit          3D

 26 25  0  0  1  0  0  0  0  0999 V2000
   21.3482  -14.1877  -21.5785 C   0  0  0  0  0  0  0  0  0  0  0  0
   22.0722  -14.4305  -20.2766 C   0  0  1  0  0  0  0  0  0  0  0  0
   22.2513  -13.1797  -19.4729 C   0  0  0  0  0  0  0  0  0  0  0  0
   21.3078  -15.4956  -19.4753 C   0  0  0  0  0  0  0  0  0  0  0  0
   22.1904  -15.8166  -18.2874 C   0  0  2  0  0  0  0  0  0  0  0  0
   23.5304  -16.0147  -18.8325 N   0  0  0  0  0  0  0  0  0  0  0  0
   21.7922  -17.0395  -17.5877 C   0  0  0  0  0  0  0  0  0  0  0  0
   20.6320  -17.1282  -17.1233 O   0  0  0  0  0  0  0  0  0  0  0  0
   24.8051  -23.7548  -14.4017 N   0  0  0  0  0  0  0  0  0  0  0  0
   23.8174  -24.5461  -15.0969 C   0  0  0  0  0  0  0  0  0  0  0  0
   23.3785  -25.5900  -14.5253 N   0  0  0  0  0  0  0  0  0  0  0  0
   23.3551  -24.1612  -16.3852 N   0  0  0  0  0  0  0  0  0  0  0  0
   23.6547  -22.8783  -16.9493 C   0  0  0  0  0  0  0  0  0  0  0  0
   22.8124  -21.7724  -16.3733 C   0  0  0  0  0  0  0  0  0  0  0  0
   23.0598  -20.5082  -17.1379 C   0  0  0  0  0  0  0  0  0  0  0  0
   22.2108  -19.3451  -16.7417 C   0  0  2  0  0  0  0  0  0  0  0  0
   22.6806  -18.1210  -17.4224 N   0  0  0  0  0  0  0  0  0  0  0  0
   22.1605  -19.0910  -15.2833 C   0  0  0  0  0  0  0  0  0  0  0  0
   23.1903  -18.7468  -14.6674 O   0  0  0  0  0  0  0  0  0  0  0  0
   22.6563  -26.1745  -14.9873 N   0  0  0  0  0  0  0  0  0  0  0  0
   20.9369  -19.2307  -14.5389 C   0  0  2  0  0  0  0  0  0  0  0  0
   20.9720  -18.9964  -13.1233 C   0  0  0  0  0  0  0  0  0  0  0  0
   19.6216  -18.4215  -12.7403 S   0  0  0  0  0  0  0  0  0  0  0  0
   18.3448  -19.6350  -13.1371 C   0  0  0  0  0  0  0  0  0  0  0  0
   21.3125  -20.2141  -12.3535 O   0  0  0  0  0  0  0  0  0  0  0  0
   21.3781  -21.3554  -12.8922 O   0  0  0  0  0  0  0  0  0  0  0  0
  2  4  1  0
  2  1  1  6
  3  2  1  0
  4  5  1  0
  5  6  1  6
  7  8  2  0
  7  5  1  0
  9 10  1  0
 10 12  1  0
 11 10  2  0
 12 13  1  0
 13 14  1  0
 14 15  1  0
 16 15  1  1
 16 17  1  0
 17  7  1  0
 18 16  1  0
 19 18  2  0
 20 18  1  0
 21 20  1  0
 21 22  1  6
 23 22  1  0
 24 21  1  0
 24 26  1  0
 25 24  2  0
M  END
$$$$
