MTH.pdb
     RDKit          3D

 26 26  0  0  1  0  0  0  0  0999 V2000
    7.4433  -12.0712   20.3390 C   0  0  0  0  0  0  0  0  0  0  0  0
    8.4084  -12.5191   18.8523 S   0  0  0  0  0  0  0  0  0  0  0  0
    7.9071  -14.1560   18.2527 C   0  0  0  0  0  0  0  0  0  0  0  0
    7.9415  -15.1112   19.4112 C   0  0  0  0  0  0  0  0  0  0  0  0
    9.2933  -15.2605   20.0404 C   0  0  2  0  0  0  0  0  0  0  0  0
   10.1805  -15.8121   19.0042 N   0  0  0  0  0  0  0  0  0  0  0  0
    9.3088  -16.1391   21.2356 C   0  0  0  0  0  0  0  0  0  0  0  0
    8.4572  -16.0537   22.1245 O   0  0  0  0  0  0  0  0  0  0  0  0
   10.3988  -20.0414   21.0216 C   0  0  0  0  0  0  0  0  0  0  0  0
   11.1406  -19.3154   22.1240 C   0  0  1  0  0  0  0  0  0  0  0  0
   12.4835  -19.1285   21.8020 O   0  0  0  0  0  0  0  0  0  0  0  0
   10.4634  -18.0197   22.4975 C   0  0  2  0  0  0  0  0  0  0  0  0
   10.3309  -17.1197   21.3812 N   0  0  0  0  0  0  0  0  0  0  0  0
   11.1669  -17.4015   23.6430 C   0  0  0  0  0  0  0  0  0  0  0  0
   11.9967  -16.4759   23.5324 O   0  0  0  0  0  0  0  0  0  0  0  0
   10.8819  -17.8892   24.9466 N   0  0  0  0  0  0  0  0  0  0  0  0
   10.9427  -16.9680   26.0636 C   0  0  1  0  0  0  0  0  0  0  0  0
    9.7905  -16.0259   26.1465 C   0  0  0  0  0  0  0  0  0  0  0  0
    9.8759  -15.1479   27.3420 C   0  0  0  0  0  0  0  0  0  0  0  0
   10.8347  -15.1940   28.3534 C   0  0  0  0  0  0  0  0  0  0  0  0
   10.5931  -14.2570   29.2584 N   0  0  0  0  0  0  0  0  0  0  0  0
    9.4904  -13.6003   28.8519 C   0  0  0  0  0  0  0  0  0  0  0  0
    9.0570  -14.1381   27.6946 N   0  0  0  0  0  0  0  0  0  0  0  0
   10.9430  -17.7983   27.3172 C   0  0  0  0  0  0  0  0  0  0  0  0
   10.8438  -19.1875   27.2575 O   0  0  0  0  0  0  0  0  0  0  0  0
   11.0320  -17.2800   28.4597 O   0  0  0  0  0  0  0  0  0  0  0  0
  1  2  1  0
  3  2  1  0
  4  5  1  0
  4  3  1  0
  5  6  1  6
  5  7  1  0
  7  8  2  0
 10  9  1  6
 10 12  1  0
 10 11  1  0
 13  7  1  0
 12 13  1  6
 14 12  1  0
 14 16  1  0
 15 14  2  0
 16 17  1  0
 17 24  1  0
 17 18  1  1
 19 18  1  0
 20 19  2  0
 21 22  1  0
 21 20  1  0
 22 23  2  0
 23 19  1  0
 24 26  2  0
 24 25  1  0
M  END
$$$$
