MTH.pdb
     RDKit          3D

 26 26  0  0  1  0  0  0  0  0999 V2000
    7.9870  -11.6936   20.5951 C   0  0  0  0  0  0  0  0  0  0  0  0
    8.1728  -12.3664   18.9054 S   0  0  0  0  0  0  0  0  0  0  0  0
    7.5995  -14.0865   18.8522 C   0  0  0  0  0  0  0  0  0  0  0  0
    7.0938  -14.4553   20.2175 C   0  0  0  0  0  0  0  0  0  0  0  0
    7.2992  -15.8956   20.5770 C   0  0  2  0  0  0  0  0  0  0  0  0
    6.2143  -16.6492   19.9288 N   0  0  0  0  0  0  0  0  0  0  0  0
    7.2930  -16.1599   22.0366 C   0  0  0  0  0  0  0  0  0  0  0  0
    6.3230  -15.8878   22.7491 O   0  0  0  0  0  0  0  0  0  0  0  0
    6.0532  -17.5545   24.1783 C   0  0  0  0  0  0  0  0  0  0  0  0
    7.4378  -18.1096   24.4384 C   0  0  1  0  0  0  0  0  0  0  0  0
    7.6123  -19.3552   23.8384 O   0  0  0  0  0  0  0  0  0  0  0  0
    8.5178  -17.1341   24.0399 C   0  0  2  0  0  0  0  0  0  0  0  0
    8.4334  -16.7463   22.6556 N   0  0  0  0  0  0  0  0  0  0  0  0
    9.8440  -17.6866   24.3934 C   0  0  0  0  0  0  0  0  0  0  0  0
   10.7053  -18.0193   23.5538 O   0  0  0  0  0  0  0  0  0  0  0  0
   10.1572  -17.8482   25.7698 N   0  0  0  0  0  0  0  0  0  0  0  0
   11.5489  -17.9540   26.1597 C   0  0  1  0  0  0  0  0  0  0  0  0
   12.3440  -16.7120   25.9422 C   0  0  0  0  0  0  0  0  0  0  0  0
   12.9436  -16.6672   24.5837 C   0  0  0  0  0  0  0  0  0  0  0  0
   12.7557  -17.5841   23.5500 C   0  0  0  0  0  0  0  0  0  0  0  0
   13.4498  -17.2206   22.4817 N   0  0  0  0  0  0  0  0  0  0  0  0
   14.0878  -16.0796   22.8035 C   0  0  0  0  0  0  0  0  0  0  0  0
   13.7823  -15.7451   24.0729 N   0  0  0  0  0  0  0  0  0  0  0  0
   11.5698  -18.2560   27.6325 C   0  0  0  0  0  0  0  0  0  0  0  0
   12.7150  -18.7635   28.2445 O   0  0  0  0  0  0  0  0  0  0  0  0
   10.5662  -18.0656   28.3661 O   0  0  0  0  0  0  0  0  0  0  0  0
  1  2  1  0
  3  2  1  0
  4  5  1  0
  4  3  1  0
  5  6  1  6
  5  7  1  0
  7  8  2  0
 10  9  1  6
 10 12  1  0
 10 11  1  0
 13  7  1  0
 12 13  1  6
 14 12  1  0
 14 16  1  0
 15 14  2  0
 16 17  1  0
 17 24  1  0
 17 18  1  1
 19 18  1  0
 20 19  2  0
 21 22  1  0
 21 20  1  0
 22 23  2  0
 23 19  1  0
 24 26  2  0
 24 25  1  0
M  END
$$$$
