MTH.pdb
     RDKit          3D

 26 26  0  0  1  0  0  0  0  0999 V2000
    5.9833  -10.7552   25.2783 C   0  0  0  0  0  0  0  0  0  0  0  0
    6.7561  -11.6151   26.6946 S   0  0  0  0  0  0  0  0  0  0  0  0
    6.5546  -13.4093   26.5206 C   0  0  0  0  0  0  0  0  0  0  0  0
    6.2732  -13.7125   25.0768 C   0  0  0  0  0  0  0  0  0  0  0  0
    6.1561  -15.1747   24.7707 C   0  0  2  0  0  0  0  0  0  0  0  0
    5.3594  -15.7687   25.8558 N   0  0  0  0  0  0  0  0  0  0  0  0
    7.4595  -15.8747   24.6625 C   0  0  0  0  0  0  0  0  0  0  0  0
    7.9638  -16.4746   25.6156 O   0  0  0  0  0  0  0  0  0  0  0  0
    8.4986  -17.3712   20.9698 C   0  0  0  0  0  0  0  0  0  0  0  0
    9.6707  -16.7456   21.6961 C   0  0  1  0  0  0  0  0  0  0  0  0
   10.0644  -15.5492   21.0998 O   0  0  0  0  0  0  0  0  0  0  0  0
    9.3933  -16.5780   23.1698 C   0  0  2  0  0  0  0  0  0  0  0  0
    8.1682  -15.8663   23.4275 N   0  0  0  0  0  0  0  0  0  0  0  0
   10.5609  -15.9527   23.8290 C   0  0  0  0  0  0  0  0  0  0  0  0
   10.7058  -14.7206   23.9650 O   0  0  0  0  0  0  0  0  0  0  0  0
   11.5783  -16.8038   24.3382 N   0  0  0  0  0  0  0  0  0  0  0  0
   12.7161  -16.2061   25.0076 C   0  0  1  0  0  0  0  0  0  0  0  0
   12.9738  -16.7389   26.3756 C   0  0  0  0  0  0  0  0  0  0  0  0
   11.8986  -16.3630   27.3296 C   0  0  0  0  0  0  0  0  0  0  0  0
   11.4413  -15.0779   27.6188 C   0  0  0  0  0  0  0  0  0  0  0  0
   10.4713  -15.1273   28.5198 N   0  0  0  0  0  0  0  0  0  0  0  0
   10.2892  -16.4264   28.8227 C   0  0  0  0  0  0  0  0  0  0  0  0
   11.1510  -17.1730   28.1041 N   0  0  0  0  0  0  0  0  0  0  0  0
   13.9263  -16.5055   24.1670 C   0  0  0  0  0  0  0  0  0  0  0  0
   15.1711  -15.9632   24.4827 O   0  0  0  0  0  0  0  0  0  0  0  0
   13.8670  -17.2497   23.1548 O   0  0  0  0  0  0  0  0  0  0  0  0
  1  2  1  0
  3  2  1  0
  4  5  1  0
  4  3  1  0
  5  6  1  1
  5  7  1  0
  7  8  2  0
 10  9  1  6
 10 12  1  0
 10 11  1  0
 13  7  1  0
 12 13  1  6
 14 12  1  0
 14 16  1  0
 15 14  2  0
 16 17  1  0
 17 24  1  0
 17 18  1  1
 19 18  1  0
 20 19  2  0
 21 22  1  0
 21 20  1  0
 22 23  2  0
 23 19  1  0
 24 26  2  0
 24 25  1  0
M  END
$$$$
