MTH.pdb
     RDKit          3D

 26 26  0  0  1  0  0  0  0  0999 V2000
    6.4563  -12.0155   18.9257 C   0  0  0  0  0  0  0  0  0  0  0  0
    8.2574  -11.7693   19.1206 S   0  0  0  0  0  0  0  0  0  0  0  0
    9.1525  -13.2473   18.5688 C   0  0  0  0  0  0  0  0  0  0  0  0
    8.2921  -14.4472   18.8437 C   0  0  0  0  0  0  0  0  0  0  0  0
    8.9189  -15.7512   18.4533 C   0  0  2  0  0  0  0  0  0  0  0  0
    8.1554  -16.2561   17.3012 N   0  0  0  0  0  0  0  0  0  0  0  0
    8.9256  -16.7655   19.5357 C   0  0  0  0  0  0  0  0  0  0  0  0
    7.9662  -17.5141   19.7400 O   0  0  0  0  0  0  0  0  0  0  0  0
   10.3162  -19.8689   20.2879 C   0  0  0  0  0  0  0  0  0  0  0  0
   10.9380  -18.9784   21.3430 C   0  0  1  0  0  0  0  0  0  0  0  0
   12.2748  -18.7045   21.0604 O   0  0  0  0  0  0  0  0  0  0  0  0
   10.1361  -17.7183   21.5578 C   0  0  2  0  0  0  0  0  0  0  0  0
   10.0664  -16.8958   20.3778 N   0  0  0  0  0  0  0  0  0  0  0  0
   10.6643  -16.9848   22.7291 C   0  0  0  0  0  0  0  0  0  0  0  0
   11.4707  -16.0356   22.6498 O   0  0  0  0  0  0  0  0  0  0  0  0
   10.2285  -17.3830   24.0214 N   0  0  0  0  0  0  0  0  0  0  0  0
   10.8540  -16.7835   25.1830 C   0  0  1  0  0  0  0  0  0  0  0  0
   10.3039  -15.4497   25.5574 C   0  0  0  0  0  0  0  0  0  0  0  0
    8.8357  -15.3743   25.3425 C   0  0  0  0  0  0  0  0  0  0  0  0
    8.0137  -16.3578   24.7936 C   0  0  0  0  0  0  0  0  0  0  0  0
    6.7573  -15.9390   24.7576 N   0  0  0  0  0  0  0  0  0  0  0  0
    6.7478  -14.6963   25.2753 C   0  0  0  0  0  0  0  0  0  0  0  0
    8.0028  -14.3549   25.6286 N   0  0  0  0  0  0  0  0  0  0  0  0
   10.6160  -17.7150   26.3390 C   0  0  0  0  0  0  0  0  0  0  0  0
    9.8781  -18.8865   26.1761 O   0  0  0  0  0  0  0  0  0  0  0  0
   11.0676  -17.4790   27.4888 O   0  0  0  0  0  0  0  0  0  0  0  0
  1  2  1  0
  3  2  1  0
  4  5  1  0
  4  3  1  0
  5  6  1  6
  5  7  1  0
  7  8  2  0
 10  9  1  6
 10 12  1  0
 10 11  1  0
 13  7  1  0
 12 13  1  6
 14 12  1  0
 14 16  1  0
 15 14  2  0
 16 17  1  0
 17 24  1  0
 17 18  1  1
 19 18  1  0
 20 19  2  0
 21 22  1  0
 21 20  1  0
 22 23  2  0
 23 19  1  0
 24 26  2  0
 24 25  1  0
M  END
$$$$
