MTH.pdb
     RDKit          3D

 26 26  0  0  1  0  0  0  0  0999 V2000
    9.7533  -11.5995   19.5741 C   0  0  0  0  0  0  0  0  0  0  0  0
    8.0229  -12.0693   19.2172 S   0  0  0  0  0  0  0  0  0  0  0  0
    7.5997  -13.6017   20.0905 C   0  0  0  0  0  0  0  0  0  0  0  0
    7.4013  -14.6848   19.0690 C   0  0  0  0  0  0  0  0  0  0  0  0
    8.4154  -15.7858   19.1406 C   0  0  2  0  0  0  0  0  0  0  0  0
    8.0601  -16.7532   18.0903 N   0  0  0  0  0  0  0  0  0  0  0  0
    8.4719  -16.4695   20.4558 C   0  0  0  0  0  0  0  0  0  0  0  0
    7.5164  -17.1076   20.9058 O   0  0  0  0  0  0  0  0  0  0  0  0
   10.9491  -19.0343   21.3782 C   0  0  0  0  0  0  0  0  0  0  0  0
   11.0578  -17.9954   22.4743 C   0  0  1  0  0  0  0  0  0  0  0  0
   12.2577  -17.2909   22.3964 O   0  0  0  0  0  0  0  0  0  0  0  0
    9.8624  -17.0748   22.4960 C   0  0  2  0  0  0  0  0  0  0  0  0
    9.6579  -16.3995   21.2406 N   0  0  0  0  0  0  0  0  0  0  0  0
    9.9776  -16.1347   23.6326 C   0  0  0  0  0  0  0  0  0  0  0  0
    9.9141  -14.8935   23.5181 O   0  0  0  0  0  0  0  0  0  0  0  0
   10.1716  -16.6752   24.9322 N   0  0  0  0  0  0  0  0  0  0  0  0
    9.4940  -16.0547   26.0529 C   0  0  1  0  0  0  0  0  0  0  0  0
    8.0144  -15.9589   25.8999 C   0  0  0  0  0  0  0  0  0  0  0  0
    7.5457  -14.5491   25.9045 C   0  0  0  0  0  0  0  0  0  0  0  0
    8.3210  -13.4049   26.0891 C   0  0  0  0  0  0  0  0  0  0  0  0
    7.5616  -12.3209   26.0303 N   0  0  0  0  0  0  0  0  0  0  0  0
    6.3018  -12.7415   25.8100 C   0  0  0  0  0  0  0  0  0  0  0  0
    6.2919  -14.0871   25.7339 N   0  0  0  0  0  0  0  0  0  0  0  0
    9.7727  -16.9067   27.2600 C   0  0  0  0  0  0  0  0  0  0  0  0
   10.3060  -18.1879   27.1262 O   0  0  0  0  0  0  0  0  0  0  0  0
    9.5390  -16.5039   28.4283 O   0  0  0  0  0  0  0  0  0  0  0  0
  1  2  1  0
  3  2  1  0
  4  5  1  0
  4  3  1  0
  5  6  1  6
  5  7  1  0
  7  8  2  0
 10  9  1  6
 10 12  1  0
 10 11  1  0
 13  7  1  0
 12 13  1  6
 14 12  1  0
 14 16  1  0
 15 14  2  0
 16 17  1  0
 17 24  1  0
 17 18  1  6
 19 18  1  0
 20 19  2  0
 21 22  1  0
 21 20  1  0
 22 23  2  0
 23 19  1  0
 24 26  2  0
 24 25  1  0
M  END
$$$$
