MTH.pdb
     RDKit          3D

 26 26  0  0  1  0  0  0  0  0999 V2000
    7.3891  -20.5719   19.1450 C   0  0  0  0  0  0  0  0  0  0  0  0
    8.2038  -20.5339   17.5088 S   0  0  0  0  0  0  0  0  0  0  0  0
    8.9990  -18.9251   17.2449 C   0  0  0  0  0  0  0  0  0  0  0  0
    7.9336  -17.9271   16.8917 C   0  0  0  0  0  0  0  0  0  0  0  0
    8.4446  -16.5327   16.6913 C   0  0  2  0  0  0  0  0  0  0  0  0
    9.4089  -16.5940   15.5815 N   0  0  0  0  0  0  0  0  0  0  0  0
    9.0945  -15.9500   17.8907 C   0  0  0  0  0  0  0  0  0  0  0  0
   10.3152  -15.9975   18.0645 O   0  0  0  0  0  0  0  0  0  0  0  0
    7.6570  -12.5793   19.7338 C   0  0  0  0  0  0  0  0  0  0  0  0
    7.8973  -13.7142   20.7070 C   0  0  1  0  0  0  0  0  0  0  0  0
    6.6995  -14.2520   21.1740 O   0  0  0  0  0  0  0  0  0  0  0  0
    8.8023  -14.7715   20.1241 C   0  0  2  0  0  0  0  0  0  0  0  0
    8.3020  -15.3105   18.8859 N   0  0  0  0  0  0  0  0  0  0  0  0
    9.0596  -15.8204   21.1354 C   0  0  0  0  0  0  0  0  0  0  0  0
    8.2535  -16.7318   21.4130 O   0  0  0  0  0  0  0  0  0  0  0  0
   10.2973  -15.7899   21.8323 N   0  0  0  0  0  0  0  0  0  0  0  0
   10.5021  -16.7146   22.9291 C   0  0  1  0  0  0  0  0  0  0  0  0
   10.4769  -18.1517   22.5341 C   0  0  0  0  0  0  0  0  0  0  0  0
   11.3428  -18.4193   21.3568 C   0  0  0  0  0  0  0  0  0  0  0  0
   12.0950  -17.4917   20.6370 C   0  0  0  0  0  0  0  0  0  0  0  0
   12.7436  -18.0928   19.6504 N   0  0  0  0  0  0  0  0  0  0  0  0
   12.4253  -19.3992   19.7162 C   0  0  0  0  0  0  0  0  0  0  0  0
   11.5793  -19.5968   20.7467 N   0  0  0  0  0  0  0  0  0  0  0  0
   11.8621  -16.4232   23.5003 C   0  0  0  0  0  0  0  0  0  0  0  0
   12.6626  -15.4137   22.9676 O   0  0  0  0  0  0  0  0  0  0  0  0
   12.3296  -17.0707   24.4718 O   0  0  0  0  0  0  0  0  0  0  0  0
  1  2  1  0
  3  2  1  0
  4  5  1  0
  4  3  1  0
  5  6  1  6
  5  7  1  0
  7  8  2  0
 10  9  1  6
 10 12  1  0
 10 11  1  0
 13  7  1  0
 12 13  1  6
 14 12  1  0
 14 16  1  0
 15 14  2  0
 16 17  1  0
 17 24  1  0
 17 18  1  6
 19 18  1  0
 20 19  2  0
 21 22  1  0
 21 20  1  0
 22 23  2  0
 23 19  1  0
 24 26  2  0
 24 25  1  0
M  END
$$$$
