MTH.pdb
     RDKit          3D

 26 26  0  0  1  0  0  0  0  0999 V2000
    8.4093  -11.4067   20.9544 C   0  0  0  0  0  0  0  0  0  0  0  0
    7.8659  -11.9567   19.2977 S   0  0  0  0  0  0  0  0  0  0  0  0
    8.4630  -13.6381   18.9714 C   0  0  0  0  0  0  0  0  0  0  0  0
    8.2082  -14.4724   20.1939 C   0  0  0  0  0  0  0  0  0  0  0  0
    8.6784  -15.8903   20.0753 C   0  0  2  0  0  0  0  0  0  0  0  0
    7.8288  -16.5311   19.0591 N   0  0  0  0  0  0  0  0  0  0  0  0
    8.6104  -16.6566   21.3436 C   0  0  0  0  0  0  0  0  0  0  0  0
    7.9568  -17.6981   21.4473 O   0  0  0  0  0  0  0  0  0  0  0  0
    9.9915  -18.9453   22.0198 C   0  0  0  0  0  0  0  0  0  0  0  0
   10.6083  -18.1681   23.1637 C   0  0  1  0  0  0  0  0  0  0  0  0
   11.9051  -17.7558   22.8635 O   0  0  0  0  0  0  0  0  0  0  0  0
    9.7346  -17.0160   23.5951 C   0  0  2  0  0  0  0  0  0  0  0  0
    9.3148  -16.1926   22.4907 N   0  0  0  0  0  0  0  0  0  0  0  0
   10.4193  -16.2396   24.6522 C   0  0  0  0  0  0  0  0  0  0  0  0
   10.9356  -15.1184   24.4681 O   0  0  0  0  0  0  0  0  0  0  0  0
   10.4940  -16.8022   25.9548 N   0  0  0  0  0  0  0  0  0  0  0  0
    9.7869  -16.1483   27.0376 C   0  0  1  0  0  0  0  0  0  0  0  0
    8.3099  -16.0744   26.8507 C   0  0  0  0  0  0  0  0  0  0  0  0
    7.8539  -14.6878   26.5741 C   0  0  0  0  0  0  0  0  0  0  0  0
    8.6475  -13.5462   26.4668 C   0  0  0  0  0  0  0  0  0  0  0  0
    7.8949  -12.4856   26.2137 N   0  0  0  0  0  0  0  0  0  0  0  0
    6.6216  -12.9189   26.1544 C   0  0  0  0  0  0  0  0  0  0  0  0
    6.5964  -14.2487   26.3720 N   0  0  0  0  0  0  0  0  0  0  0  0
   10.0489  -16.9522   28.2809 C   0  0  0  0  0  0  0  0  0  0  0  0
   10.4759  -18.2770   28.2019 O   0  0  0  0  0  0  0  0  0  0  0  0
    9.8956  -16.4687   29.4317 O   0  0  0  0  0  0  0  0  0  0  0  0
  1  2  1  0
  3  2  1  0
  4  5  1  0
  4  3  1  0
  5  6  1  6
  5  7  1  0
  7  8  2  0
 10  9  1  6
 10 12  1  0
 10 11  1  0
 13  7  1  0
 12 13  1  6
 14 12  1  0
 14 16  1  0
 15 14  2  0
 16 17  1  0
 17 24  1  0
 17 18  1  6
 19 18  1  0
 20 19  2  0
 21 22  1  0
 21 20  1  0
 22 23  2  0
 23 19  1  0
 24 26  2  0
 24 25  1  0
M  END
$$$$
