MTH.pdb
     RDKit          3D

 26 26  0  0  1  0  0  0  0  0999 V2000
    8.1397  -20.6157   15.3182 C   0  0  0  0  0  0  0  0  0  0  0  0
    7.6654  -19.6503   13.8399 S   0  0  0  0  0  0  0  0  0  0  0  0
    8.8290  -18.2817   13.5887 C   0  0  0  0  0  0  0  0  0  0  0  0
    8.9773  -17.5466   14.8899 C   0  0  0  0  0  0  0  0  0  0  0  0
    8.8741  -16.0568   14.7656 C   0  0  2  0  0  0  0  0  0  0  0  0
    9.5738  -15.6893   13.5244 N   0  0  0  0  0  0  0  0  0  0  0  0
    9.4565  -15.3140   15.9100 C   0  0  0  0  0  0  0  0  0  0  0  0
   10.6292  -14.9303   15.9154 O   0  0  0  0  0  0  0  0  0  0  0  0
    8.4468  -12.8621   20.1553 C   0  0  0  0  0  0  0  0  0  0  0  0
    7.9550  -13.7248   19.0122 C   0  0  1  0  0  0  0  0  0  0  0  0
    7.0512  -13.0386   18.2034 O   0  0  0  0  0  0  0  0  0  0  0  0
    9.0973  -14.3064   18.2161 C   0  0  2  0  0  0  0  0  0  0  0  0
    8.6531  -15.0241   17.0494 N   0  0  0  0  0  0  0  0  0  0  0  0
    9.9505  -15.1325   19.0985 C   0  0  0  0  0  0  0  0  0  0  0  0
    9.7431  -16.3403   19.3347 O   0  0  0  0  0  0  0  0  0  0  0  0
   11.0729  -14.5159   19.7140 N   0  0  0  0  0  0  0  0  0  0  0  0
   11.9470  -15.3255   20.5389 C   0  0  1  0  0  0  0  0  0  0  0  0
   13.2923  -14.7296   20.7776 C   0  0  0  0  0  0  0  0  0  0  0  0
   14.1384  -14.7619   19.5569 C   0  0  0  0  0  0  0  0  0  0  0  0
   14.5223  -15.8871   18.8282 C   0  0  0  0  0  0  0  0  0  0  0  0
   15.2776  -15.5324   17.7992 N   0  0  0  0  0  0  0  0  0  0  0  0
   15.3920  -14.1918   17.8460 C   0  0  0  0  0  0  0  0  0  0  0  0
   14.7042  -13.7261   18.9074 N   0  0  0  0  0  0  0  0  0  0  0  0
   11.2729  -15.4774   21.8743 C   0  0  0  0  0  0  0  0  0  0  0  0
   11.8501  -16.2430   22.8864 O   0  0  0  0  0  0  0  0  0  0  0  0
   10.1720  -14.9263   22.1316 O   0  0  0  0  0  0  0  0  0  0  0  0
  1  2  1  0
  3  2  1  0
  4  5  1  0
  4  3  1  0
  5  6  1  6
  5  7  1  0
  7  8  2  0
 10  9  1  1
 10 12  1  0
 10 11  1  0
 13  7  1  0
 12 13  1  6
 14 12  1  0
 14 16  1  0
 15 14  2  0
 16 17  1  0
 17 24  1  0
 17 18  1  1
 19 18  1  0
 20 19  2  0
 21 22  1  0
 21 20  1  0
 22 23  2  0
 23 19  1  0
 24 26  2  0
 24 25  1  0
M  END
$$$$
