MTH.pdb
     RDKit          3D

 26 26  0  0  1  0  0  0  0  0999 V2000
    6.4135  -11.7276   26.2596 C   0  0  0  0  0  0  0  0  0  0  0  0
    7.5022  -11.9425   24.8067 S   0  0  0  0  0  0  0  0  0  0  0  0
    6.9079  -13.3141   23.7792 C   0  0  0  0  0  0  0  0  0  0  0  0
    7.8416  -13.4658   22.6126 C   0  0  0  0  0  0  0  0  0  0  0  0
    7.4990  -14.6033   21.6992 C   0  0  2  0  0  0  0  0  0  0  0  0
    6.0477  -14.8151   21.8180 N   0  0  0  0  0  0  0  0  0  0  0  0
    8.2181  -15.8633   22.0087 C   0  0  0  0  0  0  0  0  0  0  0  0
    7.8324  -16.9589   21.5923 O   0  0  0  0  0  0  0  0  0  0  0  0
    9.8866  -17.6638   20.6116 C   0  0  0  0  0  0  0  0  0  0  0  0
   10.9412  -17.3414   21.6492 C   0  0  1  0  0  0  0  0  0  0  0  0
   11.8587  -16.4058   21.1749 O   0  0  0  0  0  0  0  0  0  0  0  0
   10.3272  -16.9161   22.9604 C   0  0  2  0  0  0  0  0  0  0  0  0
    9.3941  -15.8295   22.8108 N   0  0  0  0  0  0  0  0  0  0  0  0
   11.3967  -16.6140   23.9371 C   0  0  0  0  0  0  0  0  0  0  0  0
   12.0130  -15.5296   23.9806 O   0  0  0  0  0  0  0  0  0  0  0  0
   11.7437  -17.6164   24.8822 N   0  0  0  0  0  0  0  0  0  0  0  0
   11.2857  -17.4729   26.2496 C   0  0  1  0  0  0  0  0  0  0  0  0
    9.8064  -17.3599   26.3934 C   0  0  0  0  0  0  0  0  0  0  0  0
    9.3810  -15.9650   26.6775 C   0  0  0  0  0  0  0  0  0  0  0  0
   10.1988  -14.8405   26.7826 C   0  0  0  0  0  0  0  0  0  0  0  0
    9.4701  -13.7654   27.0445 N   0  0  0  0  0  0  0  0  0  0  0  0
    8.1886  -14.1725   27.1118 C   0  0  0  0  0  0  0  0  0  0  0  0
    8.1344  -15.5008   26.8902 N   0  0  0  0  0  0  0  0  0  0  0  0
   11.7222  -18.7067   26.9899 C   0  0  0  0  0  0  0  0  0  0  0  0
   12.3319  -18.6150   28.2403 O   0  0  0  0  0  0  0  0  0  0  0  0
   11.5575  -19.8606   26.5175 O   0  0  0  0  0  0  0  0  0  0  0  0
  1  2  1  0
  3  2  1  0
  4  5  1  0
  4  3  1  0
  5  6  1  1
  5  7  1  0
  7  8  2  0
 10  9  1  6
 10 12  1  0
 10 11  1  0
 13  7  1  0
 12 13  1  6
 14 12  1  0
 14 16  1  0
 15 14  2  0
 16 17  1  0
 17 24  1  0
 17 18  1  6
 19 18  1  0
 20 19  2  0
 21 22  1  0
 21 20  1  0
 22 23  2  0
 23 19  1  0
 24 26  2  0
 24 25  1  0
M  END
$$$$
