MTH.pdb
     RDKit          3D

 26 26  0  0  1  0  0  0  0  0999 V2000
    8.0188  -11.4569   20.3872 C   0  0  0  0  0  0  0  0  0  0  0  0
    7.6684  -11.9801   18.6708 S   0  0  0  0  0  0  0  0  0  0  0  0
    8.6865  -13.4170   18.2364 C   0  0  0  0  0  0  0  0  0  0  0  0
    8.3636  -14.5281   19.1940 C   0  0  0  0  0  0  0  0  0  0  0  0
    9.0852  -15.8101   18.9087 C   0  0  2  0  0  0  0  0  0  0  0  0
    8.5999  -16.2838   17.6029 N   0  0  0  0  0  0  0  0  0  0  0  0
    8.8762  -16.8612   19.9344 C   0  0  0  0  0  0  0  0  0  0  0  0
    8.0111  -17.7329   19.8146 O   0  0  0  0  0  0  0  0  0  0  0  0
    9.9832  -19.8556   20.9007 C   0  0  0  0  0  0  0  0  0  0  0  0
   10.3642  -19.0206   22.1049 C   0  0  1  0  0  0  0  0  0  0  0  0
   11.7261  -18.7253   22.1144 O   0  0  0  0  0  0  0  0  0  0  0  0
    9.5157  -17.7779   22.2176 C   0  0  2  0  0  0  0  0  0  0  0  0
    9.6897  -16.8830   21.1029 N   0  0  0  0  0  0  0  0  0  0  0  0
    9.7674  -17.1185   23.5179 C   0  0  0  0  0  0  0  0  0  0  0  0
   10.6392  -16.2435   23.6970 O   0  0  0  0  0  0  0  0  0  0  0  0
    8.9702  -17.5026   24.6294 N   0  0  0  0  0  0  0  0  0  0  0  0
    9.2366  -16.8988   25.9196 C   0  0  1  0  0  0  0  0  0  0  0  0
    8.0401  -16.2998   26.5765 C   0  0  0  0  0  0  0  0  0  0  0  0
    7.7013  -14.9700   26.0071 C   0  0  0  0  0  0  0  0  0  0  0  0
    8.4462  -14.2341   25.0863 C   0  0  0  0  0  0  0  0  0  0  0  0
    7.8336  -13.0930   24.8069 N   0  0  0  0  0  0  0  0  0  0  0  0
    6.6996  -13.0740   25.5323 C   0  0  0  0  0  0  0  0  0  0  0  0
    6.6194  -14.2074   26.2573 N   0  0  0  0  0  0  0  0  0  0  0  0
    9.7500  -17.9904   26.8170 C   0  0  0  0  0  0  0  0  0  0  0  0
   10.1949  -17.7082   28.1077 O   0  0  0  0  0  0  0  0  0  0  0  0
    9.7993  -19.1908   26.4450 O   0  0  0  0  0  0  0  0  0  0  0  0
  1  2  1  0
  3  2  1  0
  4  5  1  0
  4  3  1  0
  5  6  1  6
  5  7  1  0
  7  8  2  0
 10  9  1  6
 10 12  1  0
 10 11  1  0
 13  7  1  0
 12 13  1  6
 14 12  1  0
 14 16  1  0
 15 14  2  0
 16 17  1  0
 17 24  1  0
 17 18  1  1
 19 18  1  0
 20 19  2  0
 21 22  1  0
 21 20  1  0
 22 23  2  0
 23 19  1  0
 24 26  2  0
 24 25  1  0
M  END
$$$$
