MTH.pdb
     RDKit          3D

 26 26  0  0  1  0  0  0  0  0999 V2000
    7.3640  -11.7676   20.3151 C   0  0  0  0  0  0  0  0  0  0  0  0
    8.5581  -12.0015   18.9506 S   0  0  0  0  0  0  0  0  0  0  0  0
    8.6758  -13.7593   18.5189 C   0  0  0  0  0  0  0  0  0  0  0  0
    8.7625  -14.5508   19.7925 C   0  0  0  0  0  0  0  0  0  0  0  0
    8.8369  -16.0333   19.5870 C   0  0  2  0  0  0  0  0  0  0  0  0
    7.7755  -16.3783   18.6281 N   0  0  0  0  0  0  0  0  0  0  0  0
    8.6676  -16.8240   20.8306 C   0  0  0  0  0  0  0  0  0  0  0  0
    7.5725  -17.2731   21.1793 O   0  0  0  0  0  0  0  0  0  0  0  0
   10.3345  -20.0211   21.8267 C   0  0  0  0  0  0  0  0  0  0  0  0
   10.7026  -19.0075   22.8896 C   0  0  1  0  0  0  0  0  0  0  0  0
   12.0330  -18.6081   22.7789 O   0  0  0  0  0  0  0  0  0  0  0  0
    9.7578  -17.8309   22.8946 C   0  0  2  0  0  0  0  0  0  0  0  0
    9.7928  -17.0847   21.6634 N   0  0  0  0  0  0  0  0  0  0  0  0
   10.0229  -16.9836   24.0781 C   0  0  0  0  0  0  0  0  0  0  0  0
   10.7602  -15.9768   24.0619 O   0  0  0  0  0  0  0  0  0  0  0  0
    9.4018  -17.3353   25.3066 N   0  0  0  0  0  0  0  0  0  0  0  0
    9.6564  -16.5170   26.4752 C   0  0  1  0  0  0  0  0  0  0  0  0
    8.4286  -15.9863   27.1330 C   0  0  0  0  0  0  0  0  0  0  0  0
    7.7774  -14.9263   26.3209 C   0  0  0  0  0  0  0  0  0  0  0  0
    8.2934  -14.2972   25.1885 C   0  0  0  0  0  0  0  0  0  0  0  0
    7.4321  -13.4021   24.7276 N   0  0  0  0  0  0  0  0  0  0  0  0
    6.3616  -13.4383   25.5432 C   0  0  0  0  0  0  0  0  0  0  0  0
    6.5698  -14.3586   26.5056 N   0  0  0  0  0  0  0  0  0  0  0  0
   10.3678  -17.3876   27.4736 C   0  0  0  0  0  0  0  0  0  0  0  0
   10.6816  -18.7127   27.1749 O   0  0  0  0  0  0  0  0  0  0  0  0
   10.7059  -16.9617   28.6076 O   0  0  0  0  0  0  0  0  0  0  0  0
  1  2  1  0
  3  2  1  0
  4  5  1  0
  4  3  1  0
  5  6  1  6
  5  7  1  0
  7  8  2  0
 10  9  1  6
 10 12  1  0
 10 11  1  0
 13  7  1  0
 12 13  1  6
 14 12  1  0
 14 16  1  0
 15 14  2  0
 16 17  1  0
 17 24  1  0
 17 18  1  1
 19 18  1  0
 20 19  2  0
 21 22  1  0
 21 20  1  0
 22 23  2  0
 23 19  1  0
 24 26  2  0
 24 25  1  0
M  END
$$$$
