MTH.pdb
     RDKit          3D

 26 26  0  0  1  0  0  0  0  0999 V2000
    8.3889  -11.4242   19.0398 C   0  0  0  0  0  0  0  0  0  0  0  0
    7.6940  -12.8296   19.9804 S   0  0  0  0  0  0  0  0  0  0  0  0
    7.4969  -14.2699   18.8956 C   0  0  0  0  0  0  0  0  0  0  0  0
    8.2627  -15.4157   19.4926 C   0  0  0  0  0  0  0  0  0  0  0  0
    8.9925  -16.2533   18.4869 C   0  0  2  0  0  0  0  0  0  0  0  0
    7.9664  -16.9689   17.7121 N   0  0  0  0  0  0  0  0  0  0  0  0
    9.9400  -17.2254   19.0851 C   0  0  0  0  0  0  0  0  0  0  0  0
    9.5560  -18.2405   19.6722 O   0  0  0  0  0  0  0  0  0  0  0  0
   14.4821  -19.0417   19.5702 C   0  0  0  0  0  0  0  0  0  0  0  0
   13.4936  -18.1706   18.8239 C   0  0  1  0  0  0  0  0  0  0  0  0
   13.0442  -18.7875   17.6580 O   0  0  0  0  0  0  0  0  0  0  0  0
   12.3517  -17.7330   19.7080 C   0  0  2  0  0  0  0  0  0  0  0  0
   11.3425  -16.9986   18.9898 N   0  0  0  0  0  0  0  0  0  0  0  0
   12.8792  -16.9832   20.8692 C   0  0  0  0  0  0  0  0  0  0  0  0
   13.3984  -15.8511   20.7888 O   0  0  0  0  0  0  0  0  0  0  0  0
   12.7900  -17.5860   22.1527 N   0  0  0  0  0  0  0  0  0  0  0  0
   13.2072  -16.8223   23.3115 C   0  0  1  0  0  0  0  0  0  0  0  0
   12.4284  -17.1096   24.5496 C   0  0  0  0  0  0  0  0  0  0  0  0
   11.0288  -16.6212   24.4512 C   0  0  0  0  0  0  0  0  0  0  0  0
   10.5024  -15.7634   23.4860 C   0  0  0  0  0  0  0  0  0  0  0  0
    9.2158  -15.5471   23.7162 N   0  0  0  0  0  0  0  0  0  0  0  0
    8.8950  -16.2516   24.8177 C   0  0  0  0  0  0  0  0  0  0  0  0
    9.9897  -16.9004   25.2618 N   0  0  0  0  0  0  0  0  0  0  0  0
   14.6414  -17.1836   23.5816 C   0  0  0  0  0  0  0  0  0  0  0  0
   15.3919  -16.4842   24.5256 O   0  0  0  0  0  0  0  0  0  0  0  0
   15.2181  -18.1217   22.9739 O   0  0  0  0  0  0  0  0  0  0  0  0
  1  2  1  0
  3  2  1  0
  4  5  1  0
  4  3  1  0
  5  6  1  1
  5  7  1  0
  7  8  2  0
 10  9  1  1
 10 12  1  0
 10 11  1  0
 13  7  1  0
 12 13  1  6
 14 12  1  0
 14 16  1  0
 15 14  2  0
 16 17  1  0
 17 24  1  0
 17 18  1  1
 19 18  1  0
 20 19  2  0
 21 22  1  0
 21 20  1  0
 22 23  2  0
 23 19  1  0
 24 26  2  0
 24 25  1  0
M  END
$$$$
