VRV.pdb
     RDKit          3D

 26 25  0  0  1  0  0  0  0  0999 V2000
    8.6345  -12.4853   20.2085 C   0  0  0  0  0  0  0  0  0  0  0  0
    8.0573  -13.3497   19.1086 C   0  0  1  0  0  0  0  0  0  0  0  0
    8.8586  -13.0495   17.8496 C   0  0  0  0  0  0  0  0  0  0  0  0
    8.2251  -14.7935   19.5264 C   0  0  2  0  0  0  0  0  0  0  0  0
    7.7139  -15.5942   18.4280 N   0  0  0  0  0  0  0  0  0  0  0  0
    7.5171  -15.0984   20.7852 C   0  0  0  0  0  0  0  0  0  0  0  0
    6.2549  -15.0440   20.7681 O   0  0  0  0  0  0  0  0  0  0  0  0
    8.7755  -18.8866   27.3933 N   0  0  0  0  0  0  0  0  0  0  0  0
    7.5197  -19.5551   27.3546 C   0  0  0  0  0  0  0  0  0  0  0  0
    7.0334  -20.0554   28.4575 N   0  0  0  0  0  0  0  0  0  0  0  0
    6.7718  -19.7050   26.1629 N   0  0  0  0  0  0  0  0  0  0  0  0
    7.2971  -19.2339   24.9101 C   0  0  0  0  0  0  0  0  0  0  0  0
    7.1748  -17.7365   24.7416 C   0  0  0  0  0  0  0  0  0  0  0  0
    7.6896  -17.2495   23.4426 C   0  0  0  0  0  0  0  0  0  0  0  0
    7.4921  -15.7699   23.2346 C   0  0  2  0  0  0  0  0  0  0  0  0
    8.1746  -15.4431   21.9895 N   0  0  0  0  0  0  0  0  0  0  0  0
    8.0986  -15.0423   24.3710 C   0  0  0  0  0  0  0  0  0  0  0  0
    9.3136  -15.2121   24.6000 O   0  0  0  0  0  0  0  0  0  0  0  0
    6.2028  -20.6824   28.4505 C   0  0  0  0  0  0  0  0  0  0  0  0
    5.8716  -12.8708   27.2749 C   0  0  1  0  0  0  0  0  0  0  0  0
    7.2272  -12.3495   26.8520 C   0  0  0  0  0  0  0  0  0  0  0  0
    7.0535  -11.2437   25.8492 C   0  0  1  0  0  0  0  0  0  0  0  0
    8.0259  -13.5133   26.3180 N   0  0  0  0  0  0  0  0  0  0  0  0
    7.3879  -14.1657   25.2142 C   0  0  0  0  0  0  0  0  0  0  0  0
    8.3043  -14.4319   27.4484 O   0  0  0  0  0  0  0  0  0  0  0  0
    9.2098  -14.1487   28.4669 O   0  0  0  0  0  0  0  0  0  0  0  0
  2  3  1  6
  2  1  1  0
  4  2  1  0
  4  5  1  6
  6  4  1  0
  6  7  2  0
  9  8  1  0
 10  9  2  0
 11  9  1  0
 12 13  1  0
 12 11  1  0
 13 14  1  0
 15 14  1  1
 15 16  1  0
 16  6  1  0
 17 15  1  0
 18 17  2  0
 20 19  1  1
 20 22  1  0
 21 20  1  0
 22 24  1  0
 22 23  1  6
 23 17  1  0
 24 25  1  0
 26 24  2  0
M  END
$$$$
