VRV.pdb
     RDKit          3D

 26 25  0  0  1  0  0  0  0  0999 V2000
    8.2701  -12.4837   20.3139 C   0  0  0  0  0  0  0  0  0  0  0  0
    7.7583  -13.3804   19.2076 C   0  0  1  0  0  0  0  0  0  0  0  0
    8.4791  -12.9601   17.9344 C   0  0  0  0  0  0  0  0  0  0  0  0
    8.1013  -14.8057   19.5791 C   0  0  2  0  0  0  0  0  0  0  0  0
    7.5931  -15.6375   18.5027 N   0  0  0  0  0  0  0  0  0  0  0  0
    7.5232  -15.2007   20.8786 C   0  0  0  0  0  0  0  0  0  0  0  0
    6.2632  -15.2299   20.9675 O   0  0  0  0  0  0  0  0  0  0  0  0
    6.4139  -21.5065   25.5361 N   0  0  0  0  0  0  0  0  0  0  0  0
    6.8535  -20.7057   26.6274 C   0  0  0  0  0  0  0  0  0  0  0  0
    6.3321  -20.9011   27.8077 N   0  0  0  0  0  0  0  0  0  0  0  0
    7.8359  -19.6972   26.4865 N   0  0  0  0  0  0  0  0  0  0  0  0
    8.2136  -19.2267   25.1814 C   0  0  0  0  0  0  0  0  0  0  0  0
    7.7364  -17.8206   24.8972 C   0  0  0  0  0  0  0  0  0  0  0  0
    8.1446  -17.3218   23.5653 C   0  0  0  0  0  0  0  0  0  0  0  0
    7.7487  -15.8896   23.3129 C   0  0  2  0  0  0  0  0  0  0  0  0
    8.3008  -15.5423   22.0099 N   0  0  0  0  0  0  0  0  0  0  0  0
    8.3322  -15.0384   24.3729 C   0  0  0  0  0  0  0  0  0  0  0  0
    9.5754  -14.9581   24.4481 O   0  0  0  0  0  0  0  0  0  0  0  0
    6.5743  -20.2930   28.6168 C   0  0  0  0  0  0  0  0  0  0  0  0
    6.0215  -12.7420   27.1290 C   0  0  1  0  0  0  0  0  0  0  0  0
    7.3829  -12.2763   26.6623 C   0  0  0  0  0  0  0  0  0  0  0  0
    7.2241  -11.3196   25.5142 C   0  0  1  0  0  0  0  0  0  0  0  0
    8.1946  -13.4981   26.3073 N   0  0  0  0  0  0  0  0  0  0  0  0
    7.5695  -14.3093   25.3062 C   0  0  0  0  0  0  0  0  0  0  0  0
    8.4726  -14.2405   27.5606 O   0  0  0  0  0  0  0  0  0  0  0  0
    9.3291  -13.7793   28.5561 O   0  0  0  0  0  0  0  0  0  0  0  0
  2  3  1  6
  2  1  1  0
  4  2  1  0
  4  5  1  6
  6  4  1  0
  6  7  2  0
  9  8  1  0
 10  9  2  0
 11  9  1  0
 12 13  1  0
 12 11  1  0
 13 14  1  0
 15 14  1  1
 15 16  1  0
 16  6  1  0
 17 15  1  0
 18 17  2  0
 20 19  1  1
 20 22  1  0
 21 20  1  0
 22 24  1  0
 22 23  1  6
 23 17  1  0
 24 25  1  0
 26 24  2  0
M  END
$$$$
