VRV.pdb
     RDKit          3D

 26 25  0  0  1  0  0  0  0  0999 V2000
    8.7438  -13.6497   18.1340 C   0  0  0  0  0  0  0  0  0  0  0  0
    8.4356  -13.8770   19.5980 C   0  0  1  0  0  0  0  0  0  0  0  0
    7.3606  -12.8696   19.9808 C   0  0  0  0  0  0  0  0  0  0  0  0
    7.9269  -15.2939   19.7433 C   0  0  2  0  0  0  0  0  0  0  0  0
    6.9354  -15.4766   18.6982 N   0  0  0  0  0  0  0  0  0  0  0  0
    7.3501  -15.5480   21.0780 C   0  0  0  0  0  0  0  0  0  0  0  0
    6.1756  -15.1333   21.2903 O   0  0  0  0  0  0  0  0  0  0  0  0
    8.0568  -20.4256   27.7691 N   0  0  0  0  0  0  0  0  0  0  0  0
    7.5556  -21.1246   26.6353 C   0  0  0  0  0  0  0  0  0  0  0  0
    7.4604  -22.4253   26.6834 N   0  0  0  0  0  0  0  0  0  0  0  0
    7.1564  -20.4660   25.4483 N   0  0  0  0  0  0  0  0  0  0  0  0
    6.6268  -19.1303   25.5002 C   0  0  0  0  0  0  0  0  0  0  0  0
    7.6855  -18.0656   25.3233 C   0  0  0  0  0  0  0  0  0  0  0  0
    7.9879  -17.7706   23.9051 C   0  0  0  0  0  0  0  0  0  0  0  0
    7.5198  -16.4084   23.4618 C   0  0  2  0  0  0  0  0  0  0  0  0
    8.0390  -16.2228   22.1131 N   0  0  0  0  0  0  0  0  0  0  0  0
    8.0735  -15.3900   24.3810 C   0  0  0  0  0  0  0  0  0  0  0  0
    9.3000  -15.1628   24.3408 O   0  0  0  0  0  0  0  0  0  0  0  0
    7.0437  -22.9695   25.9003 C   0  0  0  0  0  0  0  0  0  0  0  0
    6.1836  -12.0626   25.4045 C   0  0  1  0  0  0  0  0  0  0  0  0
    6.8878  -12.6301   26.6170 C   0  0  0  0  0  0  0  0  0  0  0  0
    7.5160  -11.5152   27.4050 C   0  0  2  0  0  0  0  0  0  0  0  0
    7.8884  -13.6524   26.1360 N   0  0  0  0  0  0  0  0  0  0  0  0
    7.2999  -14.6573   25.3025 C   0  0  0  0  0  0  0  0  0  0  0  0
    8.5710  -14.2166   27.3255 O   0  0  0  0  0  0  0  0  0  0  0  0
    9.7267  -13.6748   27.8807 O   0  0  0  0  0  0  0  0  0  0  0  0
  2  3  1  6
  2  1  1  0
  4  2  1  0
  4  5  1  6
  6  4  1  0
  6  7  2  0
  9  8  1  0
 10  9  2  0
 11  9  1  0
 12 13  1  0
 12 11  1  0
 13 14  1  0
 15 14  1  1
 15 16  1  0
 16  6  1  0
 17 15  1  0
 18 17  2  0
 20 19  1  1
 20 22  1  0
 21 20  1  0
 22 24  1  0
 22 23  1  6
 23 17  1  0
 24 25  1  0
 26 24  2  0
M  END
$$$$
