VRV.pdb
     RDKit          3D

 26 25  0  0  1  0  0  0  0  0999 V2000
    7.8429  -12.3801   20.2399 C   0  0  0  0  0  0  0  0  0  0  0  0
    7.6455  -13.3366   19.0839 C   0  0  1  0  0  0  0  0  0  0  0  0
    8.3756  -12.7375   17.8901 C   0  0  0  0  0  0  0  0  0  0  0  0
    8.2527  -14.6639   19.4802 C   0  0  2  0  0  0  0  0  0  0  0  0
    8.0385  -15.5581   18.3562 N   0  0  0  0  0  0  0  0  0  0  0  0
    7.6557  -15.2063   20.7164 C   0  0  0  0  0  0  0  0  0  0  0  0
    6.4605  -15.6110   20.6537 O   0  0  0  0  0  0  0  0  0  0  0  0
   11.7361  -19.4276   25.3978 N   0  0  0  0  0  0  0  0  0  0  0  0
   12.1685  -19.3553   24.0439 C   0  0  0  0  0  0  0  0  0  0  0  0
   13.4434  -19.4442   23.7798 N   0  0  0  0  0  0  0  0  0  0  0  0
   11.2698  -19.1864   22.9641 N   0  0  0  0  0  0  0  0  0  0  0  0
    9.8787  -18.9188   23.2103 C   0  0  0  0  0  0  0  0  0  0  0  0
    9.5421  -17.4454   23.1692 C   0  0  0  0  0  0  0  0  0  0  0  0
    8.1032  -17.1677   23.3740 C   0  0  0  0  0  0  0  0  0  0  0  0
    7.7417  -15.7145   23.2035 C   0  0  2  0  0  0  0  0  0  0  0  0
    8.3477  -15.2930   21.9473 N   0  0  0  0  0  0  0  0  0  0  0  0
    8.3000  -14.9467   24.3382 C   0  0  0  0  0  0  0  0  0  0  0  0
    9.4993  -14.6052   24.2868 O   0  0  0  0  0  0  0  0  0  0  0  0
   13.8008  -19.4035   22.8032 C   0  0  0  0  0  0  0  0  0  0  0  0
    5.9340  -12.8855   27.1001 C   0  0  1  0  0  0  0  0  0  0  0  0
    7.3559  -12.4967   26.7608 C   0  0  0  0  0  0  0  0  0  0  0  0
    7.3573  -11.5589   25.5864 C   0  0  1  0  0  0  0  0  0  0  0  0
    8.1356  -13.7639   26.5078 N   0  0  0  0  0  0  0  0  0  0  0  0
    7.5597  -14.5748   25.4775 C   0  0  0  0  0  0  0  0  0  0  0  0
    8.2707  -14.4812   27.7987 O   0  0  0  0  0  0  0  0  0  0  0  0
    9.0224  -14.0064   28.8696 O   0  0  0  0  0  0  0  0  0  0  0  0
  2  3  1  6
  2  1  1  0
  4  2  1  0
  4  5  1  6
  6  4  1  0
  6  7  2  0
  9  8  1  0
 10  9  2  0
 11  9  1  0
 12 13  1  0
 12 11  1  0
 13 14  1  0
 15 14  1  1
 15 16  1  0
 16  6  1  0
 17 15  1  0
 18 17  2  0
 20 19  1  1
 20 22  1  0
 21 20  1  0
 22 24  1  0
 22 23  1  6
 23 17  1  0
 24 25  1  0
 26 24  2  0
M  END
$$$$
