VRV.pdb
     RDKit          3D

 26 25  0  0  1  0  0  0  0  0999 V2000
    8.3112  -13.3137   18.1699 C   0  0  0  0  0  0  0  0  0  0  0  0
    7.5763  -13.5708   19.4675 C   0  0  1  0  0  0  0  0  0  0  0  0
    6.3882  -14.4603   19.1293 C   0  0  0  0  0  0  0  0  0  0  0  0
    8.5329  -14.2766   20.4024 C   0  0  2  0  0  0  0  0  0  0  0  0
    8.9612  -15.4792   19.7101 N   0  0  0  0  0  0  0  0  0  0  0  0
    7.9108  -14.6002   21.7012 C   0  0  0  0  0  0  0  0  0  0  0  0
    7.5064  -13.6334   22.4070 O   0  0  0  0  0  0  0  0  0  0  0  0
    6.3323  -21.0418   27.1818 N   0  0  0  0  0  0  0  0  0  0  0  0
    6.4424  -21.3130   25.7890 C   0  0  0  0  0  0  0  0  0  0  0  0
    5.7260  -22.2733   25.2715 N   0  0  0  0  0  0  0  0  0  0  0  0
    7.3035  -20.5836   24.9355 N   0  0  0  0  0  0  0  0  0  0  0  0
    8.0939  -19.4998   25.4531 C   0  0  0  0  0  0  0  0  0  0  0  0
    7.5007  -18.1405   25.1597 C   0  0  0  0  0  0  0  0  0  0  0  0
    7.7801  -17.6637   23.7870 C   0  0  0  0  0  0  0  0  0  0  0  0
    7.3119  -16.2536   23.5339 C   0  0  2  0  0  0  0  0  0  0  0  0
    7.7487  -15.9199   22.1846 N   0  0  0  0  0  0  0  0  0  0  0  0
    7.9424  -15.3553   24.5260 C   0  0  0  0  0  0  0  0  0  0  0  0
    9.1884  -15.2919   24.5572 O   0  0  0  0  0  0  0  0  0  0  0  0
    5.7393  -22.4720   24.2500 C   0  0  0  0  0  0  0  0  0  0  0  0
    6.1879  -11.9574   25.6101 C   0  0  1  0  0  0  0  0  0  0  0  0
    6.9382  -12.5361   26.7892 C   0  0  0  0  0  0  0  0  0  0  0  0
    7.6433  -11.4347   27.5298 C   0  0  2  0  0  0  0  0  0  0  0  0
    7.8783  -13.5947   26.2666 N   0  0  0  0  0  0  0  0  0  0  0  0
    7.2215  -14.5632   25.4410 C   0  0  0  0  0  0  0  0  0  0  0  0
    8.5716  -14.2021   27.4283 O   0  0  0  0  0  0  0  0  0  0  0  0
    8.5759  -15.5680   27.6959 O   0  0  0  0  0  0  0  0  0  0  0  0
  2  3  1  6
  2  1  1  0
  4  2  1  0
  4  5  1  6
  6  4  1  0
  6  7  2  0
  9  8  1  0
 10  9  2  0
 11  9  1  0
 12 13  1  0
 12 11  1  0
 13 14  1  0
 15 14  1  1
 15 16  1  0
 16  6  1  0
 17 15  1  0
 18 17  2  0
 20 19  1  1
 20 22  1  0
 21 20  1  0
 22 24  1  0
 22 23  1  6
 23 17  1  0
 24 25  1  0
 26 24  2  0
M  END
$$$$
