VRV.pdb
     RDKit          3D

 26 25  0  0  1  0  0  0  0  0999 V2000
    7.7431  -12.5864   20.5052 C   0  0  0  0  0  0  0  0  0  0  0  0
    7.5598  -13.6102   19.4059 C   0  0  1  0  0  0  0  0  0  0  0  0
    8.3074  -13.0844   18.1886 C   0  0  0  0  0  0  0  0  0  0  0  0
    8.1589  -14.9120   19.8893 C   0  0  2  0  0  0  0  0  0  0  0  0
    7.8718  -15.8958   18.8604 N   0  0  0  0  0  0  0  0  0  0  0  0
    7.6126  -15.3294   21.1955 C   0  0  0  0  0  0  0  0  0  0  0  0
    6.3554  -15.3869   21.3062 O   0  0  0  0  0  0  0  0  0  0  0  0
    5.5621  -19.7763   24.3486 N   0  0  0  0  0  0  0  0  0  0  0  0
    6.0523  -20.6691   23.3546 C   0  0  0  0  0  0  0  0  0  0  0  0
    5.2065  -21.4222   22.7060 N   0  0  0  0  0  0  0  0  0  0  0  0
    7.4272  -20.7789   23.0391 N   0  0  0  0  0  0  0  0  0  0  0  0
    8.3518  -19.7574   23.4500 C   0  0  0  0  0  0  0  0  0  0  0  0
    7.9059  -18.3648   23.0658 C   0  0  0  0  0  0  0  0  0  0  0  0
    8.3771  -17.3200   24.0016 C   0  0  0  0  0  0  0  0  0  0  0  0
    7.9011  -15.9352   23.6452 C   0  0  2  0  0  0  0  0  0  0  0  0
    8.4174  -15.6625   22.3103 N   0  0  0  0  0  0  0  0  0  0  0  0
    8.4506  -14.9736   24.6260 C   0  0  0  0  0  0  0  0  0  0  0  0
    9.6777  -14.7467   24.6067 O   0  0  0  0  0  0  0  0  0  0  0  0
    5.5292  -22.1915   22.0839 C   0  0  0  0  0  0  0  0  0  0  0  0
    6.0876  -12.8847   27.5008 C   0  0  1  0  0  0  0  0  0  0  0  0
    7.3614  -12.2832   26.9496 C   0  0  0  0  0  0  0  0  0  0  0  0
    7.0324  -11.3551   25.8142 C   0  0  1  0  0  0  0  0  0  0  0  0
    8.2716  -13.4164   26.5435 N   0  0  0  0  0  0  0  0  0  0  0  0
    7.6723  -14.2946   25.5841 C   0  0  0  0  0  0  0  0  0  0  0  0
    8.7040  -14.1178   27.7765 O   0  0  0  0  0  0  0  0  0  0  0  0
    9.5541  -13.5566   28.7250 O   0  0  0  0  0  0  0  0  0  0  0  0
  2  3  1  6
  2  1  1  0
  4  2  1  0
  4  5  1  6
  6  4  1  0
  6  7  2  0
  9  8  1  0
 10  9  2  0
 11  9  1  0
 12 13  1  0
 12 11  1  0
 13 14  1  0
 15 14  1  1
 15 16  1  0
 16  6  1  0
 17 15  1  0
 18 17  2  0
 20 19  1  1
 20 22  1  0
 21 20  1  0
 22 24  1  0
 22 23  1  6
 23 17  1  0
 24 25  1  0
 26 24  2  0
M  END
$$$$
