VRV.pdb
     RDKit          3D

 26 25  0  0  1  0  0  0  0  0999 V2000
    8.1052  -13.3364   17.7554 C   0  0  0  0  0  0  0  0  0  0  0  0
    7.4453  -13.6773   19.0738 C   0  0  1  0  0  0  0  0  0  0  0  0
    6.6737  -14.9712   18.8557 C   0  0  0  0  0  0  0  0  0  0  0  0
    8.5418  -13.8662   20.0983 C   0  0  2  0  0  0  0  0  0  0  0  0
    9.4247  -14.8867   19.5618 N   0  0  0  0  0  0  0  0  0  0  0  0
    8.0127  -14.2576   21.4195 C   0  0  0  0  0  0  0  0  0  0  0  0
    7.2208  -13.4538   21.9880 O   0  0  0  0  0  0  0  0  0  0  0  0
    6.3242  -20.6894   24.6873 N   0  0  0  0  0  0  0  0  0  0  0  0
    6.7706  -20.4306   26.0136 C   0  0  0  0  0  0  0  0  0  0  0  0
    6.0104  -20.7751   27.0170 N   0  0  0  0  0  0  0  0  0  0  0  0
    8.0101  -19.8084   26.2936 N   0  0  0  0  0  0  0  0  0  0  0  0
    8.7253  -19.1128   25.2583 C   0  0  0  0  0  0  0  0  0  0  0  0
    8.2102  -17.7113   25.0210 C   0  0  0  0  0  0  0  0  0  0  0  0
    8.3706  -17.2577   23.6217 C   0  0  0  0  0  0  0  0  0  0  0  0
    7.8417  -15.8679   23.3762 C   0  0  2  0  0  0  0  0  0  0  0  0
    8.3452  -15.4701   22.0681 N   0  0  0  0  0  0  0  0  0  0  0  0
    8.3558  -14.9675   24.4315 C   0  0  0  0  0  0  0  0  0  0  0  0
    9.5917  -14.8387   24.5473 O   0  0  0  0  0  0  0  0  0  0  0  0
    6.2785  -20.5638   28.0001 C   0  0  0  0  0  0  0  0  0  0  0  0
    5.8859  -12.7561   27.1554 C   0  0  1  0  0  0  0  0  0  0  0  0
    7.2011  -12.2100   26.6453 C   0  0  0  0  0  0  0  0  0  0  0  0
    6.9523  -11.3088   25.4687 C   0  0  1  0  0  0  0  0  0  0  0  0
    8.0933  -13.3818   26.3157 N   0  0  0  0  0  0  0  0  0  0  0  0
    7.5342  -14.2428   25.3172 C   0  0  0  0  0  0  0  0  0  0  0  0
    8.4014  -14.0902   27.5816 O   0  0  0  0  0  0  0  0  0  0  0  0
    9.1989  -13.5562   28.5896 O   0  0  0  0  0  0  0  0  0  0  0  0
  2  3  1  6
  2  1  1  0
  4  2  1  0
  4  5  1  6
  6  4  1  0
  6  7  2  0
  9  8  1  0
 10  9  2  0
 11  9  1  0
 12 13  1  0
 12 11  1  0
 13 14  1  0
 15 14  1  1
 15 16  1  0
 16  6  1  0
 17 15  1  0
 18 17  2  0
 20 19  1  1
 20 22  1  0
 21 20  1  0
 22 24  1  0
 22 23  1  6
 23 17  1  0
 24 25  1  0
 26 24  2  0
M  END
$$$$
