VRV.pdb
     RDKit          3D

 26 25  0  0  1  0  0  0  0  0999 V2000
   14.0464  -20.6431   22.1682 C   0  0  0  0  0  0  0  0  0  0  0  0
   13.4852  -19.4794   22.9562 C   0  0  1  0  0  0  0  0  0  0  0  0
   14.5971  -18.9973   23.8772 C   0  0  0  0  0  0  0  0  0  0  0  0
   13.0958  -18.4033   21.9674 C   0  0  2  0  0  0  0  0  0  0  0  0
   14.3240  -17.9971   21.3075 N   0  0  0  0  0  0  0  0  0  0  0  0
   12.4344  -17.2560   22.6193 C   0  0  0  0  0  0  0  0  0  0  0  0
   13.1730  -16.3136   23.0225 O   0  0  0  0  0  0  0  0  0  0  0  0
    7.7302  -12.2390   20.8656 N   0  0  0  0  0  0  0  0  0  0  0  0
    7.5186  -13.4722   20.1875 C   0  0  0  0  0  0  0  0  0  0  0  0
    7.6950  -13.5237   18.8954 N   0  0  0  0  0  0  0  0  0  0  0  0
    7.1190  -14.6525   20.8576 N   0  0  0  0  0  0  0  0  0  0  0  0
    6.9084  -14.6458   22.2799 C   0  0  0  0  0  0  0  0  0  0  0  0
    8.1908  -14.7779   23.0697 C   0  0  0  0  0  0  0  0  0  0  0  0
    9.0220  -15.9274   22.6486 C   0  0  0  0  0  0  0  0  0  0  0  0
   10.3546  -15.9939   23.3494 C   0  0  2  0  0  0  0  0  0  0  0  0
   11.0357  -17.1638   22.8104 N   0  0  0  0  0  0  0  0  0  0  0  0
   10.1234  -16.1456   24.8027 C   0  0  0  0  0  0  0  0  0  0  0  0
    9.5134  -17.1588   25.2010 O   0  0  0  0  0  0  0  0  0  0  0  0
    7.5658  -14.4089   18.3636 C   0  0  0  0  0  0  0  0  0  0  0  0
    9.8704  -13.0060   27.1804 C   0  0  2  0  0  0  0  0  0  0  0  0
    9.4193  -14.3304   27.7557 C   0  0  0  0  0  0  0  0  0  0  0  0
    9.4837  -14.2781   29.2562 C   0  0  2  0  0  0  0  0  0  0  0  0
   10.2874  -15.4133   27.1629 N   0  0  0  0  0  0  0  0  0  0  0  0
   10.5510  -15.2143   25.7694 C   0  0  0  0  0  0  0  0  0  0  0  0
    9.6450  -16.7192   27.4478 O   0  0  0  0  0  0  0  0  0  0  0  0
   10.0933  -17.6020   28.4261 O   0  0  0  0  0  0  0  0  0  0  0  0
  2  3  1  1
  2  1  1  0
  4  2  1  0
  4  5  1  1
  6  4  1  0
  6  7  2  0
  9  8  1  0
 10  9  2  0
 11  9  1  0
 12 13  1  0
 12 11  1  0
 13 14  1  0
 15 14  1  6
 15 16  1  0
 16  6  1  0
 17 15  1  0
 18 17  2  0
 20 19  1  1
 20 22  1  0
 21 20  1  0
 22 24  1  0
 22 23  1  1
 23 17  1  0
 24 25  1  0
 26 24  2  0
M  END
$$$$
