VRV.pdb
     RDKit          3D

 26 25  0  0  1  0  0  0  0  0999 V2000
    8.2026  -12.5106   17.9330 C   0  0  0  0  0  0  0  0  0  0  0  0
    7.6553  -13.2538   19.1322 C   0  0  1  0  0  0  0  0  0  0  0  0
    7.0578  -14.5519   18.6078 C   0  0  0  0  0  0  0  0  0  0  0  0
    8.8122  -13.5283   20.0669 C   0  0  2  0  0  0  0  0  0  0  0  0
    9.7333  -14.3767   19.3316 N   0  0  0  0  0  0  0  0  0  0  0  0
    8.3779  -14.1723   21.3220 C   0  0  0  0  0  0  0  0  0  0  0  0
    7.5058  -13.5708   22.0105 O   0  0  0  0  0  0  0  0  0  0  0  0
    9.5873  -20.9686   19.4909 N   0  0  0  0  0  0  0  0  0  0  0  0
    8.8965  -21.3969   20.6591 C   0  0  0  0  0  0  0  0  0  0  0  0
    8.1068  -22.4332   20.5846 N   0  0  0  0  0  0  0  0  0  0  0  0
    9.0270  -20.7410   21.9061 N   0  0  0  0  0  0  0  0  0  0  0  0
    9.8156  -19.5441   22.0196 C   0  0  0  0  0  0  0  0  0  0  0  0
    8.9884  -18.2805   21.9509 C   0  0  0  0  0  0  0  0  0  0  0  0
    9.2316  -17.3592   23.0830 C   0  0  0  0  0  0  0  0  0  0  0  0
    8.4391  -16.0801   22.9976 C   0  0  2  0  0  0  0  0  0  0  0  0
    8.8838  -15.4107   21.7823 N   0  0  0  0  0  0  0  0  0  0  0  0
    8.7348  -15.2541   24.1889 C   0  0  0  0  0  0  0  0  0  0  0  0
    9.9212  -14.9324   24.4046 O   0  0  0  0  0  0  0  0  0  0  0  0
    7.6038  -22.7950   21.4208 C   0  0  0  0  0  0  0  0  0  0  0  0
    7.5718  -11.9876   27.5513 C   0  0  1  0  0  0  0  0  0  0  0  0
    7.0357  -12.9192   26.4869 C   0  0  0  0  0  0  0  0  0  0  0  0
    5.7383  -13.5210   26.9484 C   0  0  2  0  0  0  0  0  0  0  0  0
    8.0975  -13.9517   26.1965 N   0  0  0  0  0  0  0  0  0  0  0  0
    7.7571  -14.8057   25.0985 C   0  0  0  0  0  0  0  0  0  0  0  0
    8.3601  -14.7000   27.4496 O   0  0  0  0  0  0  0  0  0  0  0  0
    9.1106  -14.1940   28.5070 O   0  0  0  0  0  0  0  0  0  0  0  0
  2  3  1  6
  2  1  1  0
  4  2  1  0
  4  5  1  6
  6  4  1  0
  6  7  2  0
  9  8  1  0
 10  9  2  0
 11  9  1  0
 12 13  1  0
 12 11  1  0
 13 14  1  0
 15 14  1  1
 15 16  1  0
 16  6  1  0
 17 15  1  0
 18 17  2  0
 20 19  1  6
 20 22  1  0
 21 20  1  0
 22 24  1  0
 22 23  1  1
 23 17  1  0
 24 25  1  0
 26 24  2  0
M  END
$$$$
