VRV.pdb
     RDKit          3D

 26 25  0  0  1  0  0  0  0  0999 V2000
   13.6574  -17.4718   19.7246 C   0  0  0  0  0  0  0  0  0  0  0  0
   12.4892  -16.5372   19.9527 C   0  0  1  0  0  0  0  0  0  0  0  0
   11.4776  -16.8237   18.8520 C   0  0  0  0  0  0  0  0  0  0  0  0
   11.9117  -16.8515   21.3147 C   0  0  2  0  0  0  0  0  0  0  0  0
   11.5614  -18.2606   21.2899 N   0  0  0  0  0  0  0  0  0  0  0  0
   10.7383  -16.0143   21.6326 C   0  0  0  0  0  0  0  0  0  0  0  0
   10.9186  -14.7657   21.7006 O   0  0  0  0  0  0  0  0  0  0  0  0
    6.6394  -19.1670   18.5578 N   0  0  0  0  0  0  0  0  0  0  0  0
    6.3974  -19.8839   19.7631 C   0  0  0  0  0  0  0  0  0  0  0  0
    6.7277  -21.1448   19.8281 N   0  0  0  0  0  0  0  0  0  0  0  0
    5.8068  -19.2856   20.9012 N   0  0  0  0  0  0  0  0  0  0  0  0
    5.4240  -17.8998   20.8785 C   0  0  0  0  0  0  0  0  0  0  0  0
    6.6066  -16.9579   20.8909 C   0  0  0  0  0  0  0  0  0  0  0  0
    7.1110  -16.6694   22.2518 C   0  0  0  0  0  0  0  0  0  0  0  0
    8.2950  -15.7369   22.2685 C   0  0  2  0  0  0  0  0  0  0  0  0
    9.4432  -16.5359   21.8607 N   0  0  0  0  0  0  0  0  0  0  0  0
    8.4775  -15.2207   23.6429 C   0  0  0  0  0  0  0  0  0  0  0  0
    9.2428  -15.8403   24.4096 O   0  0  0  0  0  0  0  0  0  0  0  0
    6.5864  -21.7001   20.6969 C   0  0  0  0  0  0  0  0  0  0  0  0
    7.6763  -11.9348   27.2047 C   0  0  1  0  0  0  0  0  0  0  0  0
    7.2391  -12.3983   25.8328 C   0  0  0  0  0  0  0  0  0  0  0  0
    5.7480  -12.5849   25.8134 C   0  0  2  0  0  0  0  0  0  0  0  0
    7.9984  -13.6610   25.5060 N   0  0  0  0  0  0  0  0  0  0  0  0
    7.8393  -14.0684   24.1423 C   0  0  0  0  0  0  0  0  0  0  0  0
    7.5823  -14.7059   26.4725 O   0  0  0  0  0  0  0  0  0  0  0  0
    8.2110  -14.9190   27.6959 O   0  0  0  0  0  0  0  0  0  0  0  0
  2  3  1  6
  2  1  1  0
  4  2  1  0
  4  5  1  6
  6  4  1  0
  6  7  2  0
  9  8  1  0
 10  9  2  0
 11  9  1  0
 12 13  1  0
 12 11  1  0
 13 14  1  0
 15 14  1  1
 15 16  1  0
 16  6  1  0
 17 15  1  0
 18 17  2  0
 20 19  1  6
 20 22  1  0
 21 20  1  0
 22 24  1  0
 22 23  1  1
 23 17  1  0
 24 25  1  0
 26 24  2  0
M  END
$$$$
