AVW.pdb
     RDKit          3D

 27 28  0  0  1  0  0  0  0  0999 V2000
    8.3074  -19.7074   21.1699 C   0  0  0  0  0  0  0  0  0  0  0  0
    8.2755  -18.7505   20.0206 C   0  0  2  0  0  0  0  0  0  0  0  0
    8.9286  -19.3294   18.8627 N   0  0  0  0  0  0  0  0  0  0  0  0
    8.7732  -17.4083   20.3381 C   0  0  0  0  0  0  0  0  0  0  0  0
    9.9933  -17.1483   20.1558 O   0  0  0  0  0  0  0  0  0  0  0  0
    6.7188  -13.9750   19.7442 C   0  0  0  0  0  0  0  0  0  0  0  0
    7.3896  -14.0333   21.0771 C   0  0  2  0  0  0  0  0  0  0  0  0
    7.9210  -12.6236   21.3692 C   0  0  0  0  0  0  0  0  0  0  0  0
    8.5066  -15.0441   21.1632 C   0  0  2  0  0  0  0  0  0  0  0  0
    7.9780  -16.3423   20.8486 N   0  0  0  0  0  0  0  0  0  0  0  0
    9.1056  -14.9722   22.5046 C   0  0  0  0  0  0  0  0  0  0  0  0
    9.4886  -13.8590   22.9645 O   0  0  0  0  0  0  0  0  0  0  0  0
    9.3024  -16.1019   23.3713 N   0  0  0  0  0  0  0  0  0  0  0  0
    9.8612  -15.9529   24.6920 C   0  0  1  0  0  0  0  0  0  0  0  0
    8.9100  -16.1591   25.8212 C   0  0  0  0  0  0  0  0  0  0  0  0
    7.7397  -15.2898   25.8709 C   0  0  0  0  0  0  0  0  0  0  0  0
    6.4311  -15.7264   25.6136 C   0  0  0  0  0  0  0  0  0  0  0  0
    5.6585  -14.6424   25.7452 N   0  0  0  0  0  0  0  0  0  0  0  0
    6.4010  -13.5529   26.0694 C   0  0  0  0  0  0  0  0  0  0  0  0
    6.0500  -12.2391   26.3090 C   0  0  0  0  0  0  0  0  0  0  0  0
    7.0145  -11.3220   26.6312 C   0  0  0  0  0  0  0  0  0  0  0  0
    8.3585  -11.7006   26.7214 C   0  0  0  0  0  0  0  0  0  0  0  0
    8.6978  -13.0068   26.4817 C   0  0  0  0  0  0  0  0  0  0  0  0
    7.7367  -13.9381   26.1565 C   0  0  0  0  0  0  0  0  0  0  0  0
   11.0540  -16.8244   24.7817 C   0  0  0  0  0  0  0  0  0  0  0  0
   11.8984  -16.7149   25.8629 O   0  0  0  0  0  0  0  0  0  0  0  0
   11.2913  -17.6568   23.8760 O   0  0  0  0  0  0  0  0  0  0  0  0
  2  1  1  1
  2  3  1  0
  4  5  2  0
  4  2  1  0
  7  6  1  6
  7  9  1  0
  8  7  1  0
  9 10  1  1
 10  4  1  0
 11  9  1  0
 11 13  1  0
 12 11  2  0
 14 13  1  0
 14 25  1  0
 14 15  1  1
 16 15  1  0
 17 16  2  0
 18 17  1  0
 19 18  1  0
 19 24  2  0
 20 19  1  0
 21 20  2  0
 21 22  1  0
 22 23  2  0
 23 24  1  0
 24 16  1  0
 25 26  1  0
 27 25  2  0
M  END
$$$$
