AVW.pdb
     RDKit          3D

 27 28  0  0  1  0  0  0  0  0999 V2000
    7.5565  -19.5839   22.2209 C   0  0  0  0  0  0  0  0  0  0  0  0
    7.2159  -18.8491   20.9632 C   0  0  2  0  0  0  0  0  0  0  0  0
    7.3210  -19.7321   19.8179 N   0  0  0  0  0  0  0  0  0  0  0  0
    7.9516  -17.5942   20.7788 C   0  0  0  0  0  0  0  0  0  0  0  0
    9.1069  -17.6296   20.2752 O   0  0  0  0  0  0  0  0  0  0  0  0
    6.6819  -13.9443   19.6490 C   0  0  0  0  0  0  0  0  0  0  0  0
    7.4328  -13.9164   20.9396 C   0  0  2  0  0  0  0  0  0  0  0  0
    8.2935  -12.6460   20.9254 C   0  0  0  0  0  0  0  0  0  0  0  0
    8.2940  -15.1319   21.1799 C   0  0  2  0  0  0  0  0  0  0  0  0
    7.4630  -16.3025   21.1281 N   0  0  0  0  0  0  0  0  0  0  0  0
    8.9884  -14.9710   22.4665 C   0  0  0  0  0  0  0  0  0  0  0  0
    9.4115  -13.8325   22.8158 O   0  0  0  0  0  0  0  0  0  0  0  0
    9.2389  -16.0378   23.3967 N   0  0  0  0  0  0  0  0  0  0  0  0
    9.8422  -15.7927   24.6831 C   0  0  1  0  0  0  0  0  0  0  0  0
    8.9425  -15.9621   25.8596 C   0  0  0  0  0  0  0  0  0  0  0  0
    7.6823  -15.2276   25.8431 C   0  0  0  0  0  0  0  0  0  0  0  0
    6.4604  -15.7825   25.4330 C   0  0  0  0  0  0  0  0  0  0  0  0
    5.5620  -14.7982   25.5497 N   0  0  0  0  0  0  0  0  0  0  0  0
    6.1443  -13.6606   26.0076 C   0  0  0  0  0  0  0  0  0  0  0  0
    5.6273  -12.4109   26.2863 C   0  0  0  0  0  0  0  0  0  0  0  0
    6.4488  -11.4203   26.7544 C   0  0  0  0  0  0  0  0  0  0  0  0
    7.8128  -11.6590   26.9553 C   0  0  0  0  0  0  0  0  0  0  0  0
    8.3174  -12.9024   26.6758 C   0  0  0  0  0  0  0  0  0  0  0  0
    7.5011  -13.9064   26.2042 C   0  0  0  0  0  0  0  0  0  0  0  0
   11.0669  -16.6184   24.7753 C   0  0  0  0  0  0  0  0  0  0  0  0
   11.9301  -16.4419   25.8327 O   0  0  0  0  0  0  0  0  0  0  0  0
   11.3143  -17.4731   23.8934 O   0  0  0  0  0  0  0  0  0  0  0  0
  2  1  1  1
  2  3  1  0
  4  5  2  0
  4  2  1  0
  7  6  1  6
  7  9  1  0
  8  7  1  0
  9 10  1  1
 10  4  1  0
 11  9  1  0
 11 13  1  0
 12 11  2  0
 14 13  1  0
 14 25  1  0
 14 15  1  1
 16 15  1  0
 17 16  2  0
 18 17  1  0
 19 18  1  0
 19 24  2  0
 20 19  1  0
 21 20  2  0
 21 22  1  0
 22 23  2  0
 23 24  1  0
 24 16  1  0
 25 26  1  0
 27 25  2  0
M  END
$$$$
