AVW.pdb
     RDKit          3D

 27 28  0  0  1  0  0  0  0  0999 V2000
    6.2145  -19.4020   21.1418 C   0  0  0  0  0  0  0  0  0  0  0  0
    6.6267  -18.5152   20.0098 C   0  0  2  0  0  0  0  0  0  0  0  0
    7.0839  -19.3096   18.8862 N   0  0  0  0  0  0  0  0  0  0  0  0
    7.5775  -17.4630   20.3822 C   0  0  0  0  0  0  0  0  0  0  0  0
    8.7858  -17.7684   20.5728 O   0  0  0  0  0  0  0  0  0  0  0  0
    7.2015  -13.6669   19.0641 C   0  0  0  0  0  0  0  0  0  0  0  0
    7.6716  -13.7329   20.4800 C   0  0  2  0  0  0  0  0  0  0  0  0
    8.7482  -12.6513   20.6416 C   0  0  0  0  0  0  0  0  0  0  0  0
    8.2149  -15.0800   20.8888 C   0  0  2  0  0  0  0  0  0  0  0  0
    7.2477  -16.0877   20.5527 N   0  0  0  0  0  0  0  0  0  0  0  0
    8.5379  -15.0428   22.3232 C   0  0  0  0  0  0  0  0  0  0  0  0
    7.7294  -14.5128   23.1374 O   0  0  0  0  0  0  0  0  0  0  0  0
    9.7406  -15.5762   22.9022 N   0  0  0  0  0  0  0  0  0  0  0  0
   10.0514  -15.3963   24.2986 C   0  0  1  0  0  0  0  0  0  0  0  0
    9.0917  -16.0145   25.2572 C   0  0  0  0  0  0  0  0  0  0  0  0
    7.8466  -15.2965   25.5065 C   0  0  0  0  0  0  0  0  0  0  0  0
    6.5753  -15.8117   25.2104 C   0  0  0  0  0  0  0  0  0  0  0  0
    5.7089  -14.8576   25.5689 N   0  0  0  0  0  0  0  0  0  0  0  0
    6.3575  -13.7762   26.0716 C   0  0  0  0  0  0  0  0  0  0  0  0
    5.8933  -12.5737   26.5670 C   0  0  0  0  0  0  0  0  0  0  0  0
    6.7792  -11.6370   27.0284 C   0  0  0  0  0  0  0  0  0  0  0  0
    8.1563  -11.8835   27.0045 C   0  0  0  0  0  0  0  0  0  0  0  0
    8.6082  -13.0796   26.5108 C   0  0  0  0  0  0  0  0  0  0  0  0
    7.7268  -14.0293   26.0437 C   0  0  0  0  0  0  0  0  0  0  0  0
   11.4453  -15.8439   24.5150 C   0  0  0  0  0  0  0  0  0  0  0  0
   12.0236  -15.6968   25.7553 O   0  0  0  0  0  0  0  0  0  0  0  0
   12.0934  -16.3536   23.5719 O   0  0  0  0  0  0  0  0  0  0  0  0
  2  1  1  1
  2  3  1  0
  4  5  2  0
  4  2  1  0
  7  6  1  6
  7  9  1  0
  8  7  1  0
  9 10  1  1
 10  4  1  0
 11  9  1  0
 11 13  1  0
 12 11  2  0
 14 13  1  0
 14 25  1  0
 14 15  1  1
 16 15  1  0
 17 16  2  0
 18 17  1  0
 19 18  1  0
 19 24  2  0
 20 19  1  0
 21 20  2  0
 21 22  1  0
 22 23  2  0
 23 24  1  0
 24 16  1  0
 25 26  1  0
 27 25  2  0
M  END
$$$$
