AVW.pdb
     RDKit          3D

 27 28  0  0  1  0  0  0  0  0999 V2000
    8.8839  -19.8561   20.8227 C   0  0  0  0  0  0  0  0  0  0  0  0
    8.8651  -18.7531   19.8124 C   0  0  2  0  0  0  0  0  0  0  0  0
    9.6049  -19.1407   18.6272 N   0  0  0  0  0  0  0  0  0  0  0  0
    9.2798  -17.4476   20.3358 C   0  0  0  0  0  0  0  0  0  0  0  0
   10.5031  -17.1428   20.3229 O   0  0  0  0  0  0  0  0  0  0  0  0
    7.0262  -14.0085   19.9297 C   0  0  0  0  0  0  0  0  0  0  0  0
    7.6300  -14.2350   21.2767 C   0  0  2  0  0  0  0  0  0  0  0  0
    8.0176  -12.8561   21.8275 C   0  0  0  0  0  0  0  0  0  0  0  0
    8.8269  -15.1538   21.2710 C   0  0  2  0  0  0  0  0  0  0  0  0
    8.3983  -16.4658   20.8725 N   0  0  0  0  0  0  0  0  0  0  0  0
    9.4483  -15.1274   22.6038 C   0  0  0  0  0  0  0  0  0  0  0  0
   10.0076  -14.0721   23.0173 O   0  0  0  0  0  0  0  0  0  0  0  0
    9.4773  -16.2412   23.5120 N   0  0  0  0  0  0  0  0  0  0  0  0
   10.0163  -16.1168   24.8435 C   0  0  1  0  0  0  0  0  0  0  0  0
    9.0328  -16.2679   25.9536 C   0  0  0  0  0  0  0  0  0  0  0  0
    7.8375  -15.4335   25.9001 C   0  0  0  0  0  0  0  0  0  0  0  0
    6.5633  -15.9152   25.5630 C   0  0  0  0  0  0  0  0  0  0  0  0
    5.7527  -14.8523   25.6137 N   0  0  0  0  0  0  0  0  0  0  0  0
    6.4391  -13.7339   25.9618 C   0  0  0  0  0  0  0  0  0  0  0  0
    6.0347  -12.4262   26.1438 C   0  0  0  0  0  0  0  0  0  0  0  0
    6.9474  -11.4732   26.5097 C   0  0  0  0  0  0  0  0  0  0  0  0
    8.2920  -11.8089   26.7028 C   0  0  0  0  0  0  0  0  0  0  0  0
    8.6846  -13.1093   26.5197 C   0  0  0  0  0  0  0  0  0  0  0  0
    7.7757  -14.0764   26.1513 C   0  0  0  0  0  0  0  0  0  0  0  0
   11.1591  -17.0498   24.9600 C   0  0  0  0  0  0  0  0  0  0  0  0
   11.9480  -17.0239   26.0875 O   0  0  0  0  0  0  0  0  0  0  0  0
   11.4050  -17.8581   24.0350 O   0  0  0  0  0  0  0  0  0  0  0  0
  2  1  1  1
  2  3  1  0
  4  5  2  0
  4  2  1  0
  7  6  1  6
  7  9  1  0
  8  7  1  0
  9 10  1  1
 10  4  1  0
 11  9  1  0
 11 13  1  0
 12 11  2  0
 14 13  1  0
 14 25  1  0
 14 15  1  1
 16 15  1  0
 17 16  2  0
 18 17  1  0
 19 18  1  0
 19 24  2  0
 20 19  1  0
 21 20  2  0
 21 22  1  0
 22 23  2  0
 23 24  1  0
 24 16  1  0
 25 26  1  0
 27 25  2  0
M  END
$$$$
