AVW.pdb
     RDKit          3D

 27 28  0  0  1  0  0  0  0  0999 V2000
    8.3154  -19.9650   20.3810 C   0  0  0  0  0  0  0  0  0  0  0  0
    8.2884  -18.8626   19.3703 C   0  0  2  0  0  0  0  0  0  0  0  0
    8.9571  -19.2771   18.1524 N   0  0  0  0  0  0  0  0  0  0  0  0
    8.7736  -17.5725   19.8706 C   0  0  0  0  0  0  0  0  0  0  0  0
    9.9930  -17.2822   19.7352 O   0  0  0  0  0  0  0  0  0  0  0  0
    6.4836  -14.1567   19.7603 C   0  0  0  0  0  0  0  0  0  0  0  0
    7.2641  -14.3584   21.0174 C   0  0  2  0  0  0  0  0  0  0  0  0
    7.7269  -12.9705   21.4806 C   0  0  0  0  0  0  0  0  0  0  0  0
    8.4466  -15.2840   20.8691 C   0  0  2  0  0  0  0  0  0  0  0  0
    7.9667  -16.5907   20.5141 N   0  0  0  0  0  0  0  0  0  0  0  0
    9.2164  -15.2704   22.1222 C   0  0  0  0  0  0  0  0  0  0  0  0
    9.9628  -14.2868   22.3923 O   0  0  0  0  0  0  0  0  0  0  0  0
    9.1942  -16.3199   23.1042 N   0  0  0  0  0  0  0  0  0  0  0  0
    9.9088  -16.2035   24.3511 C   0  0  1  0  0  0  0  0  0  0  0  0
    9.7122  -14.9235   25.0894 C   0  0  0  0  0  0  0  0  0  0  0  0
    8.3409  -14.5508   25.4191 C   0  0  0  0  0  0  0  0  0  0  0  0
    7.2509  -15.4305   25.3349 C   0  0  0  0  0  0  0  0  0  0  0  0
    6.1824  -14.7144   25.7023 N   0  0  0  0  0  0  0  0  0  0  0  0
    6.5344  -13.4403   26.0120 C   0  0  0  0  0  0  0  0  0  0  0  0
    5.7901  -12.3590   26.4404 C   0  0  0  0  0  0  0  0  0  0  0  0
    6.4062  -11.1627   26.6941 C   0  0  0  0  0  0  0  0  0  0  0  0
    7.7878  -11.0207   26.5242 C   0  0  0  0  0  0  0  0  0  0  0  0
    8.5187  -12.0992   26.0985 C   0  0  0  0  0  0  0  0  0  0  0  0
    7.9101  -13.3073   25.8398 C   0  0  0  0  0  0  0  0  0  0  0  0
    9.5878  -17.3928   25.1713 C   0  0  0  0  0  0  0  0  0  0  0  0
   10.2389  -17.5917   26.3674 O   0  0  0  0  0  0  0  0  0  0  0  0
    8.7272  -18.2129   24.7761 O   0  0  0  0  0  0  0  0  0  0  0  0
  2  1  1  1
  2  3  1  0
  4  5  2  0
  4  2  1  0
  7  6  1  6
  7  9  1  0
  8  7  1  0
  9 10  1  1
 10  4  1  0
 11  9  1  0
 11 13  1  0
 12 11  2  0
 14 13  1  0
 14 25  1  0
 14 15  1  1
 16 15  1  0
 17 16  2  0
 18 17  1  0
 19 18  1  0
 19 24  2  0
 20 19  1  0
 21 20  2  0
 21 22  1  0
 22 23  2  0
 23 24  1  0
 24 16  1  0
 25 26  1  0
 27 25  2  0
M  END
$$$$
