AVW.pdb
     RDKit          3D

 27 28  0  0  1  0  0  0  0  0999 V2000
    8.0330  -12.3916   20.0118 C   0  0  0  0  0  0  0  0  0  0  0  0
    7.9504  -13.7891   19.4848 C   0  0  2  0  0  0  0  0  0  0  0  0
    6.7098  -13.9833   18.7598 N   0  0  0  0  0  0  0  0  0  0  0  0
    8.1855  -14.8290   20.4915 C   0  0  0  0  0  0  0  0  0  0  0  0
    7.1968  -15.3634   21.0629 O   0  0  0  0  0  0  0  0  0  0  0  0
   10.4539  -17.7475   19.6862 C   0  0  0  0  0  0  0  0  0  0  0  0
   10.7398  -17.3206   21.0884 C   0  0  2  0  0  0  0  0  0  0  0  0
   10.9477  -18.6007   21.9089 C   0  0  0  0  0  0  0  0  0  0  0  0
    9.6590  -16.4692   21.7080 C   0  0  2  0  0  0  0  0  0  0  0  0
    9.4680  -15.3022   20.8923 N   0  0  0  0  0  0  0  0  0  0  0  0
   10.0435  -16.1520   23.0917 C   0  0  0  0  0  0  0  0  0  0  0  0
   10.9476  -15.2973   23.3141 O   0  0  0  0  0  0  0  0  0  0  0  0
    9.4589  -16.7540   24.2587 N   0  0  0  0  0  0  0  0  0  0  0  0
    9.8688  -16.3780   25.5889 C   0  0  1  0  0  0  0  0  0  0  0  0
    8.7714  -16.2517   26.5900 C   0  0  0  0  0  0  0  0  0  0  0  0
    7.6615  -15.3680   26.2507 C   0  0  0  0  0  0  0  0  0  0  0  0
    6.4534  -15.8112   25.6909 C   0  0  0  0  0  0  0  0  0  0  0  0
    5.7126  -14.7108   25.5185 N   0  0  0  0  0  0  0  0  0  0  0  0
    6.3807  -13.6050   25.9355 C   0  0  0  0  0  0  0  0  0  0  0  0
    6.0257  -12.2708   25.9599 C   0  0  0  0  0  0  0  0  0  0  0  0
    6.9020  -11.3392   26.4490 C   0  0  0  0  0  0  0  0  0  0  0  0
    8.1596  -11.7235   26.9273 C   0  0  0  0  0  0  0  0  0  0  0  0
    8.5037  -13.0499   26.8991 C   0  0  0  0  0  0  0  0  0  0  0  0
    7.6308  -13.9959   26.4091 C   0  0  0  0  0  0  0  0  0  0  0  0
   10.9310  -17.3145   26.0188 C   0  0  0  0  0  0  0  0  0  0  0  0
   11.1619  -18.4620   25.2948 O   0  0  0  0  0  0  0  0  0  0  0  0
   11.6150  -17.0614   27.0373 O   0  0  0  0  0  0  0  0  0  0  0  0
  2  1  1  1
  2  3  1  0
  4  5  2  0
  4  2  1  0
  7  6  1  6
  7  9  1  0
  8  7  1  0
  9 10  1  6
 10  4  1  0
 11  9  1  0
 11 13  1  0
 12 11  2  0
 14 13  1  0
 14 25  1  0
 14 15  1  1
 16 15  1  0
 17 16  2  0
 18 17  1  0
 19 18  1  0
 19 24  2  0
 20 19  1  0
 21 20  2  0
 21 22  1  0
 22 23  2  0
 23 24  1  0
 24 16  1  0
 25 26  1  0
 27 25  2  0
M  END
$$$$
