AVW.pdb
     RDKit          3D

 27 28  0  0  1  0  0  0  0  0999 V2000
    7.6990  -19.2126   19.5024 C   0  0  0  0  0  0  0  0  0  0  0  0
    7.1861  -18.0027   18.7878 C   0  0  2  0  0  0  0  0  0  0  0  0
    6.9760  -18.2964   17.3835 N   0  0  0  0  0  0  0  0  0  0  0  0
    7.9865  -16.7923   18.9985 C   0  0  0  0  0  0  0  0  0  0  0  0
    8.2154  -16.0310   18.0199 O   0  0  0  0  0  0  0  0  0  0  0  0
    6.9896  -14.0285   19.2690 C   0  0  0  0  0  0  0  0  0  0  0  0
    7.6716  -14.1863   20.5881 C   0  0  2  0  0  0  0  0  0  0  0  0
    8.0039  -12.7741   21.0883 C   0  0  0  0  0  0  0  0  0  0  0  0
    8.9190  -15.0342   20.5415 C   0  0  2  0  0  0  0  0  0  0  0  0
    8.5439  -16.3891   20.2459 N   0  0  0  0  0  0  0  0  0  0  0  0
    9.6311  -14.8965   21.8210 C   0  0  0  0  0  0  0  0  0  0  0  0
    9.9652  -13.7502   22.2357 O   0  0  0  0  0  0  0  0  0  0  0  0
    9.9958  -15.9948   22.6735 N   0  0  0  0  0  0  0  0  0  0  0  0
    9.7372  -15.9690   24.0917 C   0  0  1  0  0  0  0  0  0  0  0  0
    8.3788  -15.5023   24.4907 C   0  0  0  0  0  0  0  0  0  0  0  0
    8.2852  -14.6807   25.6925 C   0  0  0  0  0  0  0  0  0  0  0  0
    8.9750  -14.9570   26.8829 C   0  0  0  0  0  0  0  0  0  0  0  0
    8.6171  -13.9920   27.7374 N   0  0  0  0  0  0  0  0  0  0  0  0
    7.7459  -13.1276   27.1570 C   0  0  0  0  0  0  0  0  0  0  0  0
    7.1185  -11.9944   27.6356 C   0  0  0  0  0  0  0  0  0  0  0  0
    6.2746  -11.2856   26.8230 C   0  0  0  0  0  0  0  0  0  0  0  0
    6.0382  -11.6966   25.5065 C   0  0  0  0  0  0  0  0  0  0  0  0
    6.6650  -12.8227   25.0399 C   0  0  0  0  0  0  0  0  0  0  0  0
    7.5156  -13.5439   25.8480 C   0  0  0  0  0  0  0  0  0  0  0  0
   10.0672  -17.3042   24.6380 C   0  0  0  0  0  0  0  0  0  0  0  0
   10.7853  -17.4036   25.8080 O   0  0  0  0  0  0  0  0  0  0  0  0
    9.6935  -18.3374   24.0361 O   0  0  0  0  0  0  0  0  0  0  0  0
  2  1  1  6
  2  3  1  0
  4  5  2  0
  4  2  1  0
  7  6  1  6
  7  9  1  0
  8  7  1  0
  9 10  1  1
 10  4  1  0
 11  9  1  0
 11 13  1  0
 12 11  2  0
 14 13  1  0
 14 25  1  0
 14 15  1  6
 16 15  1  0
 17 16  2  0
 18 17  1  0
 19 18  1  0
 19 24  2  0
 20 19  1  0
 21 20  2  0
 21 22  1  0
 22 23  2  0
 23 24  1  0
 24 16  1  0
 25 26  1  0
 27 25  2  0
M  END
$$$$
