AVW.pdb
     RDKit          3D

 27 28  0  0  1  0  0  0  0  0999 V2000
    7.8784  -19.5347   20.6377 C   0  0  0  0  0  0  0  0  0  0  0  0
    7.8409  -18.4157   19.6457 C   0  0  2  0  0  0  0  0  0  0  0  0
    8.2120  -18.8953   18.3286 N   0  0  0  0  0  0  0  0  0  0  0  0
    8.5980  -17.2262   20.0482 C   0  0  0  0  0  0  0  0  0  0  0  0
    9.8338  -17.1747   19.8036 O   0  0  0  0  0  0  0  0  0  0  0  0
    6.7363  -13.7668   21.8844 C   0  0  0  0  0  0  0  0  0  0  0  0
    7.9208  -13.7164   20.9763 C   0  0  2  0  0  0  0  0  0  0  0  0
    7.3803  -13.5460   19.5502 C   0  0  0  0  0  0  0  0  0  0  0  0
    8.8144  -14.9296   21.0581 C   0  0  2  0  0  0  0  0  0  0  0  0
    8.0455  -16.0920   20.7096 N   0  0  0  0  0  0  0  0  0  0  0  0
    9.3912  -15.0004   22.4092 C   0  0  0  0  0  0  0  0  0  0  0  0
   10.2050  -14.1131   22.7939 O   0  0  0  0  0  0  0  0  0  0  0  0
    9.1000  -16.0318   23.3670 N   0  0  0  0  0  0  0  0  0  0  0  0
    9.7336  -16.0615   24.6618 C   0  0  1  0  0  0  0  0  0  0  0  0
    8.8118  -16.1747   25.8279 C   0  0  0  0  0  0  0  0  0  0  0  0
    7.7337  -15.1963   25.9196 C   0  0  0  0  0  0  0  0  0  0  0  0
    6.3923  -15.4822   25.6227 C   0  0  0  0  0  0  0  0  0  0  0  0
    5.7301  -14.3357   25.8134 N   0  0  0  0  0  0  0  0  0  0  0  0
    6.5726  -13.3484   26.2118 C   0  0  0  0  0  0  0  0  0  0  0  0
    6.3511  -12.0228   26.5286 C   0  0  0  0  0  0  0  0  0  0  0  0
    7.3971  -11.2288   26.9166 C   0  0  0  0  0  0  0  0  0  0  0  0
    8.6949  -11.7459   26.9966 C   0  0  0  0  0  0  0  0  0  0  0  0
    8.9055  -13.0627   26.6800 C   0  0  0  0  0  0  0  0  0  0  0  0
    7.8614  -13.8709   26.2882 C   0  0  0  0  0  0  0  0  0  0  0  0
   10.7624  -17.1251   24.6399 C   0  0  0  0  0  0  0  0  0  0  0  0
   11.5774  -17.3078   25.7338 O   0  0  0  0  0  0  0  0  0  0  0  0
   10.8885  -17.8541   23.6289 O   0  0  0  0  0  0  0  0  0  0  0  0
  2  1  1  1
  2  3  1  0
  4  5  2  0
  4  2  1  0
  7  6  1  1
  7  9  1  0
  8  7  1  0
  9 10  1  1
 10  4  1  0
 11  9  1  0
 11 13  1  0
 12 11  2  0
 14 13  1  0
 14 25  1  0
 14 15  1  1
 16 15  1  0
 17 16  2  0
 18 17  1  0
 19 18  1  0
 19 24  2  0
 20 19  1  0
 21 20  2  0
 21 22  1  0
 22 23  2  0
 23 24  1  0
 24 16  1  0
 25 26  1  0
 27 25  2  0
M  END
$$$$
