AVW.pdb
     RDKit          3D

 27 28  0  0  1  0  0  0  0  0999 V2000
    5.9279  -19.2799   21.2617 C   0  0  0  0  0  0  0  0  0  0  0  0
    6.4465  -18.5092   20.0892 C   0  0  2  0  0  0  0  0  0  0  0  0
    6.9349  -19.4132   19.0662 N   0  0  0  0  0  0  0  0  0  0  0  0
    7.4188  -17.4671   20.4338 C   0  0  0  0  0  0  0  0  0  0  0  0
    8.6179  -17.7939   20.6458 O   0  0  0  0  0  0  0  0  0  0  0  0
    7.2010  -13.6258   19.0633 C   0  0  0  0  0  0  0  0  0  0  0  0
    7.5815  -13.7310   20.5036 C   0  0  2  0  0  0  0  0  0  0  0  0
    8.6452  -12.6554   20.7618 C   0  0  0  0  0  0  0  0  0  0  0  0
    8.0989  -15.0894   20.9085 C   0  0  2  0  0  0  0  0  0  0  0  0
    7.1203  -16.0794   20.5535 N   0  0  0  0  0  0  0  0  0  0  0  0
    8.4055  -15.0679   22.3468 C   0  0  0  0  0  0  0  0  0  0  0  0
    7.5590  -14.6071   23.1644 O   0  0  0  0  0  0  0  0  0  0  0  0
    9.6324  -15.5424   22.9261 N   0  0  0  0  0  0  0  0  0  0  0  0
    9.8984  -15.4205   24.3380 C   0  0  1  0  0  0  0  0  0  0  0  0
    8.8812  -16.0314   25.2404 C   0  0  0  0  0  0  0  0  0  0  0  0
    7.7230  -15.2143   25.5851 C   0  0  0  0  0  0  0  0  0  0  0  0
    6.3968  -15.6658   25.5042 C   0  0  0  0  0  0  0  0  0  0  0  0
    5.6411  -14.6303   25.8865 N   0  0  0  0  0  0  0  0  0  0  0  0
    6.4107  -13.5575   26.2025 C   0  0  0  0  0  0  0  0  0  0  0  0
    6.0852  -12.2908   26.6455 C   0  0  0  0  0  0  0  0  0  0  0  0
    7.0759  -11.3811   26.9026 C   0  0  0  0  0  0  0  0  0  0  0  0
    8.4213  -11.7200   26.7213 C   0  0  0  0  0  0  0  0  0  0  0  0
    8.7352  -12.9795   26.2811 C   0  0  0  0  0  0  0  0  0  0  0  0
    7.7475  -13.9028   26.0189 C   0  0  0  0  0  0  0  0  0  0  0  0
   11.2653  -15.9294   24.5884 C   0  0  0  0  0  0  0  0  0  0  0  0
   12.0069  -16.4333   23.5442 O   0  0  0  0  0  0  0  0  0  0  0  0
   11.7423  -15.9006   25.7464 O   0  0  0  0  0  0  0  0  0  0  0  0
  2  1  1  1
  2  3  1  0
  4  5  2  0
  4  2  1  0
  7  6  1  6
  7  9  1  0
  8  7  1  0
  9 10  1  1
 10  4  1  0
 11  9  1  0
 11 13  1  0
 12 11  2  0
 14 13  1  0
 14 25  1  0
 14 15  1  1
 16 15  1  0
 17 16  2  0
 18 17  1  0
 19 18  1  0
 19 24  2  0
 20 19  1  0
 21 20  2  0
 21 22  1  0
 22 23  2  0
 23 24  1  0
 24 16  1  0
 25 26  1  0
 27 25  2  0
M  END
$$$$
