AVW.pdb
     RDKit          3D

 27 28  0  0  1  0  0  0  0  0999 V2000
    8.3148  -12.4284   20.0514 C   0  0  0  0  0  0  0  0  0  0  0  0
    7.9953  -13.7377   19.4025 C   0  0  2  0  0  0  0  0  0  0  0  0
    6.7018  -13.6763   18.7502 N   0  0  0  0  0  0  0  0  0  0  0  0
    8.1271  -14.8988   20.2883 C   0  0  0  0  0  0  0  0  0  0  0  0
    7.1206  -15.2908   20.9385 O   0  0  0  0  0  0  0  0  0  0  0  0
    9.7180  -18.3508   19.4316 C   0  0  0  0  0  0  0  0  0  0  0  0
   10.2686  -17.8315   20.7190 C   0  0  2  0  0  0  0  0  0  0  0  0
   10.4274  -19.0385   21.6533 C   0  0  0  0  0  0  0  0  0  0  0  0
    9.4176  -16.7702   21.3719 C   0  0  2  0  0  0  0  0  0  0  0  0
    9.3252  -15.6440   20.4847 N   0  0  0  0  0  0  0  0  0  0  0  0
   10.0043  -16.4322   22.6775 C   0  0  0  0  0  0  0  0  0  0  0  0
   11.0319  -15.6986   22.7354 O   0  0  0  0  0  0  0  0  0  0  0  0
    9.4918  -16.8823   23.9428 N   0  0  0  0  0  0  0  0  0  0  0  0
   10.0275  -16.3979   25.1907 C   0  0  1  0  0  0  0  0  0  0  0  0
    9.6705  -14.9942   25.5437 C   0  0  0  0  0  0  0  0  0  0  0  0
    8.2507  -14.6766   25.6495 C   0  0  0  0  0  0  0  0  0  0  0  0
    7.2237  -15.6061   25.4247 C   0  0  0  0  0  0  0  0  0  0  0  0
    6.0829  -14.9310   25.6044 N   0  0  0  0  0  0  0  0  0  0  0  0
    6.3304  -13.6360   25.9282 C   0  0  0  0  0  0  0  0  0  0  0  0
    5.4852  -12.5803   26.2072 C   0  0  0  0  0  0  0  0  0  0  0  0
    6.0053  -11.3523   26.5181 C   0  0  0  0  0  0  0  0  0  0  0  0
    7.3895  -11.1519   26.5572 C   0  0  0  0  0  0  0  0  0  0  0  0
    8.2210  -12.2054   26.2786 C   0  0  0  0  0  0  0  0  0  0  0  0
    7.7096  -13.4450   25.9642 C   0  0  0  0  0  0  0  0  0  0  0  0
    9.6604  -17.3654   26.2487 C   0  0  0  0  0  0  0  0  0  0  0  0
   10.2167  -17.2484   27.5021 O   0  0  0  0  0  0  0  0  0  0  0  0
    8.8470  -18.2856   26.0015 O   0  0  0  0  0  0  0  0  0  0  0  0
  2  1  1  1
  2  3  1  0
  4  5  2  0
  4  2  1  0
  7  6  1  6
  7  9  1  0
  8  7  1  0
  9 10  1  6
 10  4  1  0
 11  9  1  0
 11 13  1  0
 12 11  2  0
 14 13  1  0
 14 25  1  0
 14 15  1  1
 16 15  1  0
 17 16  2  0
 18 17  1  0
 19 18  1  0
 19 24  2  0
 20 19  1  0
 21 20  2  0
 21 22  1  0
 22 23  2  0
 23 24  1  0
 24 16  1  0
 25 26  1  0
 27 25  2  0
M  END
$$$$
