AVW.pdb
     RDKit          3D

 27 28  0  0  1  0  0  0  0  0999 V2000
   11.6598  -18.4531   18.6112 C   0  0  0  0  0  0  0  0  0  0  0  0
   11.4901  -17.0176   18.2263 C   0  0  2  0  0  0  0  0  0  0  0  0
   12.7146  -16.5018   17.6459 N   0  0  0  0  0  0  0  0  0  0  0  0
   10.9684  -16.1628   19.2974 C   0  0  0  0  0  0  0  0  0  0  0  0
   11.7792  -15.5991   20.0813 O   0  0  0  0  0  0  0  0  0  0  0  0
    7.6132  -13.7800   19.1960 C   0  0  0  0  0  0  0  0  0  0  0  0
    7.7104  -14.6836   20.3809 C   0  0  2  0  0  0  0  0  0  0  0  0
    7.1528  -13.9053   21.5802 C   0  0  0  0  0  0  0  0  0  0  0  0
    9.1084  -15.1700   20.6744 C   0  0  2  0  0  0  0  0  0  0  0  0
    9.5880  -15.9057   19.5375 N   0  0  0  0  0  0  0  0  0  0  0  0
    9.0810  -15.9668   21.9103 C   0  0  0  0  0  0  0  0  0  0  0  0
    9.1440  -17.2276   21.8484 O   0  0  0  0  0  0  0  0  0  0  0  0
    8.9833  -15.4152   23.2340 N   0  0  0  0  0  0  0  0  0  0  0  0
    9.1698  -16.2308   24.4083 C   0  0  1  0  0  0  0  0  0  0  0  0
    9.0261  -15.5242   25.7131 C   0  0  0  0  0  0  0  0  0  0  0  0
    7.7912  -14.7792   25.9324 C   0  0  0  0  0  0  0  0  0  0  0  0
    6.5108  -15.3468   25.8448 C   0  0  0  0  0  0  0  0  0  0  0  0
    5.6574  -14.3477   26.0958 N   0  0  0  0  0  0  0  0  0  0  0  0
    6.3228  -13.1889   26.3356 C   0  0  0  0  0  0  0  0  0  0  0  0
    5.8762  -11.9185   26.6411 C   0  0  0  0  0  0  0  0  0  0  0  0
    6.7776  -10.9082   26.8465 C   0  0  0  0  0  0  0  0  0  0  0  0
    8.1528  -11.1476   26.7506 C   0  0  0  0  0  0  0  0  0  0  0  0
    8.5871  -12.4117   26.4468 C   0  0  0  0  0  0  0  0  0  0  0  0
    7.6900  -13.4356   26.2377 C   0  0  0  0  0  0  0  0  0  0  0  0
    8.2774  -17.4056   24.2920 C   0  0  0  0  0  0  0  0  0  0  0  0
    8.5525  -18.5446   25.0138 O   0  0  0  0  0  0  0  0  0  0  0  0
    7.2772  -17.3605   23.5391 O   0  0  0  0  0  0  0  0  0  0  0  0
  2  1  1  1
  2  3  1  0
  4  5  2  0
  4  2  1  0
  7  6  1  6
  7  9  1  0
  8  7  1  0
  9 10  1  6
 10  4  1  0
 11  9  1  0
 11 13  1  0
 12 11  2  0
 14 13  1  0
 14 25  1  0
 14 15  1  1
 16 15  1  0
 17 16  2  0
 18 17  1  0
 19 18  1  0
 19 24  2  0
 20 19  1  0
 21 20  2  0
 21 22  1  0
 22 23  2  0
 23 24  1  0
 24 16  1  0
 25 26  1  0
 27 25  2  0
M  END
$$$$
