AVW.pdb
     RDKit          3D

 27 28  0  0  1  0  0  0  0  0999 V2000
    7.3483  -13.0494   20.7334 C   0  0  0  0  0  0  0  0  0  0  0  0
    7.6434  -14.3379   20.0332 C   0  0  2  0  0  0  0  0  0  0  0  0
    6.4998  -14.7599   19.2480 N   0  0  0  0  0  0  0  0  0  0  0  0
    8.1502  -15.3990   20.9092 C   0  0  0  0  0  0  0  0  0  0  0  0
    7.3323  -16.1993   21.4385 O   0  0  0  0  0  0  0  0  0  0  0  0
   11.2831  -17.6481   20.1655 C   0  0  0  0  0  0  0  0  0  0  0  0
   11.3112  -17.1633   21.5777 C   0  0  2  0  0  0  0  0  0  0  0  0
   11.8092  -18.3318   22.4388 C   0  0  0  0  0  0  0  0  0  0  0  0
    9.9810  -16.6651   22.0867 C   0  0  2  0  0  0  0  0  0  0  0  0
    9.5231  -15.6116   21.2240 N   0  0  0  0  0  0  0  0  0  0  0  0
   10.1404  -16.2399   23.4856 C   0  0  0  0  0  0  0  0  0  0  0  0
   10.8136  -15.2051   23.7566 O   0  0  0  0  0  0  0  0  0  0  0  0
    9.5767  -16.9263   24.6158 N   0  0  0  0  0  0  0  0  0  0  0  0
    9.8566  -16.5122   25.9682 C   0  0  1  0  0  0  0  0  0  0  0  0
    8.6653  -16.3262   26.8448 C   0  0  0  0  0  0  0  0  0  0  0  0
    7.6429  -15.3921   26.3864 C   0  0  0  0  0  0  0  0  0  0  0  0
    6.4815  -15.7802   25.7010 C   0  0  0  0  0  0  0  0  0  0  0  0
    5.8184  -14.6464   25.4477 N   0  0  0  0  0  0  0  0  0  0  0  0
    6.4914  -13.5713   25.9318 C   0  0  0  0  0  0  0  0  0  0  0  0
    6.2017  -12.2213   25.9151 C   0  0  0  0  0  0  0  0  0  0  0  0
    7.0652  -11.3298   26.4936 C   0  0  0  0  0  0  0  0  0  0  0  0
    8.2439  -11.7712   27.1050 C   0  0  0  0  0  0  0  0  0  0  0  0
    8.5235  -13.1130   27.1167 C   0  0  0  0  0  0  0  0  0  0  0  0
    7.6628  -14.0190   26.5378 C   0  0  0  0  0  0  0  0  0  0  0  0
   10.8444  -17.4561   26.5370 C   0  0  0  0  0  0  0  0  0  0  0  0
   11.1921  -18.5859   25.8321 O   0  0  0  0  0  0  0  0  0  0  0  0
   11.3598  -17.2253   27.6553 O   0  0  0  0  0  0  0  0  0  0  0  0
  2  1  1  1
  2  3  1  0
  4  5  2  0
  4  2  1  0
  7  6  1  6
  7  9  1  0
  8  7  1  0
  9 10  1  6
 10  4  1  0
 11  9  1  0
 11 13  1  0
 12 11  2  0
 14 13  1  0
 14 25  1  0
 14 15  1  1
 16 15  1  0
 17 16  2  0
 18 17  1  0
 19 18  1  0
 19 24  2  0
 20 19  1  0
 21 20  2  0
 21 22  1  0
 22 23  2  0
 23 24  1  0
 24 16  1  0
 25 26  1  0
 27 25  2  0
M  END
$$$$
