SNE.pdb
     RDKit          3D

 24 23  0  0  1  0  0  0  0  0999 V2000
   11.7541   -9.2747   -8.5636 O   0  0  0  0  0  0  0  0  0  0  0  0
   12.8490   -9.6503   -9.3447 C   0  0  0  0  0  0  0  0  0  0  0  0
   12.4321  -10.5351  -10.4853 C   0  0  2  0  0  0  0  0  0  0  0  0
   11.7837  -11.7197  -10.0231 N   0  0  0  0  0  0  0  0  0  0  0  0
   13.6538  -10.8385  -11.2952 C   0  0  0  0  0  0  0  0  0  0  0  0
   14.0155  -12.0186  -11.5369 O   0  0  0  0  0  0  0  0  0  0  0  0
   17.3716  -11.1999  -14.5943 N   0  0  0  0  0  0  0  0  0  0  0  0
   15.9929  -11.4622  -14.7567 C   0  0  0  0  0  0  0  0  0  0  0  0
   15.6206  -12.1258  -15.7495 O   0  0  0  0  0  0  0  0  0  0  0  0
   15.0217  -10.9729  -13.7916 C   0  0  0  0  0  0  0  0  0  0  0  0
   15.6224  -10.1339  -12.6537 C   0  0  2  0  0  0  0  0  0  0  0  0
   14.4657   -9.8119  -11.8310 N   0  0  0  0  0  0  0  0  0  0  0  0
   16.3104   -8.9318  -13.1307 C   0  0  0  0  0  0  0  0  0  0  0  0
   15.6856   -8.0608  -13.7850 O   0  0  0  0  0  0  0  0  0  0  0  0
   17.6831   -8.6760  -12.8919 N   0  0  0  0  0  0  0  0  0  0  0  0
   18.2616   -7.4421  -13.3005 C   0  0  1  0  0  0  0  0  0  0  0  0
   19.7134   -7.3389  -12.8170 C   0  0  0  0  0  0  0  0  0  0  0  0
   20.3209   -6.0192  -13.2389 C   0  0  0  0  0  0  0  0  0  0  0  0
   21.7151   -5.9295  -12.7365 C   0  0  0  0  0  0  0  0  0  0  0  0
   22.4648   -4.9324  -12.9818 O   0  0  0  0  0  0  0  0  0  0  0  0
   18.2614   -7.1676  -14.7330 C   0  0  0  0  0  0  0  0  0  0  0  0
   18.1163   -5.9573  -15.3461 O   0  0  0  0  0  0  0  0  0  0  0  0
   22.2897   -6.9412  -11.9596 O   0  0  0  0  0  0  0  0  0  0  0  0
   18.4145   -8.1763  -15.4980 O   0  0  0  0  0  0  0  0  0  0  0  0
  1  2  1  0
  2  3  1  0
  3  4  1  1
  5  3  1  0
  6  5  2  0
  7  8  1  0
  8 10  1  0
  9  8  2  0
 11 10  1  6
 11 13  1  0
 11 12  1  0
 12  5  1  0
 13 15  1  0
 14 13  2  0
 15 16  1  0
 16 21  1  0
 16 17  1  6
 18 17  1  0
 19 18  1  0
 20 19  2  0
 21 24  2  0
 21 22  1  0
 23 19  1  0
M  END
$$$$
