SNE.pdb
     RDKit          3D

 24 23  0  0  1  0  0  0  0  0999 V2000
   18.2157  -13.2566  -15.4594 O   0  0  0  0  0  0  0  0  0  0  0  0
   18.4930  -11.9385  -15.8273 C   0  0  0  0  0  0  0  0  0  0  0  0
   17.2454  -11.1015  -15.8533 C   0  0  2  0  0  0  0  0  0  0  0  0
   16.4008  -11.4492  -16.9502 N   0  0  0  0  0  0  0  0  0  0  0  0
   17.6629   -9.6646  -15.8942 C   0  0  0  0  0  0  0  0  0  0  0  0
   18.6283   -9.2722  -16.5984 O   0  0  0  0  0  0  0  0  0  0  0  0
   17.5429   -4.4660  -15.0454 N   0  0  0  0  0  0  0  0  0  0  0  0
   16.3377   -5.0772  -14.6332 C   0  0  0  0  0  0  0  0  0  0  0  0
   15.4107   -4.3521  -14.2096 O   0  0  0  0  0  0  0  0  0  0  0  0
   16.1729   -6.5203  -14.6981 C   0  0  0  0  0  0  0  0  0  0  0  0
   17.4033   -7.2787  -15.2181 C   0  0  2  0  0  0  0  0  0  0  0  0
   16.9920   -8.6728  -15.1417 N   0  0  0  0  0  0  0  0  0  0  0  0
   18.6111   -7.0172  -14.4315 C   0  0  0  0  0  0  0  0  0  0  0  0
   18.9079   -7.7559  -13.4603 O   0  0  0  0  0  0  0  0  0  0  0  0
   19.5005   -5.9491  -14.7055 N   0  0  0  0  0  0  0  0  0  0  0  0
   20.7169   -5.8276  -13.9776 C   0  0  1  0  0  0  0  0  0  0  0  0
   21.6039   -7.0593  -14.1968 C   0  0  0  0  0  0  0  0  0  0  0  0
   22.0409   -7.1483  -15.6424 C   0  0  0  0  0  0  0  0  0  0  0  0
   22.9642   -8.2982  -15.8138 C   0  0  0  0  0  0  0  0  0  0  0  0
   23.4503   -8.6191  -16.9439 O   0  0  0  0  0  0  0  0  0  0  0  0
   21.5302   -4.6513  -14.2640 C   0  0  0  0  0  0  0  0  0  0  0  0
   21.3516   -3.7428  -15.2663 O   0  0  0  0  0  0  0  0  0  0  0  0
   23.3562   -9.1010  -14.7372 O   0  0  0  0  0  0  0  0  0  0  0  0
   22.5215   -4.4513  -13.4871 O   0  0  0  0  0  0  0  0  0  0  0  0
  1  2  1  0
  2  3  1  0
  3  4  1  6
  5  3  1  0
  6  5  2  0
  7  8  1  0
  8 10  1  0
  9  8  2  0
 11 10  1  1
 11 13  1  0
 11 12  1  0
 12  5  1  0
 13 15  1  0
 14 13  2  0
 15 16  1  0
 16 21  1  0
 16 17  1  6
 18 17  1  0
 19 18  1  0
 20 19  2  0
 21 24  2  0
 21 22  1  0
 23 19  1  0
M  END
$$$$
