SNE.pdb
     RDKit          3D

 24 23  0  0  1  0  0  0  0  0999 V2000
   23.1541  -35.2793   -8.4616 O   0  0  0  0  0  0  0  0  0  0  0  0
   23.4864  -34.0227   -8.9718 C   0  0  0  0  0  0  0  0  0  0  0  0
   24.9750  -33.8517   -9.0841 C   0  0  2  0  0  0  0  0  0  0  0  0
   25.5277  -34.6973  -10.0925 N   0  0  0  0  0  0  0  0  0  0  0  0
   25.5663  -34.1194   -7.7352 C   0  0  0  0  0  0  0  0  0  0  0  0
   26.4115  -35.0320   -7.5486 O   0  0  0  0  0  0  0  0  0  0  0  0
   26.9089  -33.2386   -2.7136 N   0  0  0  0  0  0  0  0  0  0  0  0
   26.0720  -32.2107   -3.2025 C   0  0  0  0  0  0  0  0  0  0  0  0
   25.7861  -31.2575   -2.4448 O   0  0  0  0  0  0  0  0  0  0  0  0
   25.5506  -32.2552   -4.5590 C   0  0  0  0  0  0  0  0  0  0  0  0
   25.9057  -33.5318   -5.3359 C   0  0  2  0  0  0  0  0  0  0  0  0
   25.2042  -33.3587   -6.5994 N   0  0  0  0  0  0  0  0  0  0  0  0
   25.4971  -34.7558   -4.6426 C   0  0  0  0  0  0  0  0  0  0  0  0
   24.2877  -35.0925   -4.6095 O   0  0  0  0  0  0  0  0  0  0  0  0
   26.4092  -35.6178   -3.9854 N   0  0  0  0  0  0  0  0  0  0  0  0
   25.9462  -36.8167   -3.3751 C   0  0  1  0  0  0  0  0  0  0  0  0
   26.8073  -38.0105   -3.8059 C   0  0  0  0  0  0  0  0  0  0  0  0
   28.2032  -37.8916   -3.2352 C   0  0  0  0  0  0  0  0  0  0  0  0
   29.0245  -39.0443   -3.6835 C   0  0  0  0  0  0  0  0  0  0  0  0
   29.8390  -38.9630   -4.6564 O   0  0  0  0  0  0  0  0  0  0  0  0
   25.8927  -36.8245   -1.9176 C   0  0  0  0  0  0  0  0  0  0  0  0
   25.2712  -37.7362   -1.1148 O   0  0  0  0  0  0  0  0  0  0  0  0
   28.9508  -40.2942   -3.0595 O   0  0  0  0  0  0  0  0  0  0  0  0
   26.4969  -35.8685   -1.3283 O   0  0  0  0  0  0  0  0  0  0  0  0
  1  2  1  0
  2  3  1  0
  3  4  1  6
  5  3  1  0
  6  5  2  0
  7  8  1  0
  8 10  1  0
  9  8  2  0
 11 10  1  1
 11 13  1  0
 11 12  1  0
 12  5  1  0
 13 15  1  0
 14 13  2  0
 15 16  1  0
 16 21  1  0
 16 17  1  1
 18 17  1  0
 19 18  1  0
 20 19  2  0
 21 24  2  0
 21 22  1  0
 23 19  1  0
M  END
$$$$
