SNE.pdb
     RDKit          3D

 24 23  0  0  1  0  0  0  0  0999 V2000
   14.2781   -8.2897  -12.0092 O   0  0  0  0  0  0  0  0  0  0  0  0
   14.8107   -9.5730  -11.8706 C   0  0  0  0  0  0  0  0  0  0  0  0
   15.8369   -9.6263  -10.7744 C   0  0  2  0  0  0  0  0  0  0  0  0
   15.3186   -9.1241   -9.5429 N   0  0  0  0  0  0  0  0  0  0  0  0
   17.0367   -8.8602  -11.2374 C   0  0  0  0  0  0  0  0  0  0  0  0
   17.3322   -7.7348  -10.7598 O   0  0  0  0  0  0  0  0  0  0  0  0
   21.5952   -7.8125  -13.6362 N   0  0  0  0  0  0  0  0  0  0  0  0
   21.3595   -9.1999  -13.5115 C   0  0  0  0  0  0  0  0  0  0  0  0
   22.2605   -9.9957  -13.8568 O   0  0  0  0  0  0  0  0  0  0  0  0
   20.0961   -9.6981  -12.9923 C   0  0  0  0  0  0  0  0  0  0  0  0
   19.0699   -8.6051  -12.6578 C   0  0  2  0  0  0  0  0  0  0  0  0
   17.9009   -9.3633  -12.2374 N   0  0  0  0  0  0  0  0  0  0  0  0
   18.7777   -7.7277  -13.7939 C   0  0  0  0  0  0  0  0  0  0  0  0
   17.9668   -8.0890  -14.6822 O   0  0  0  0  0  0  0  0  0  0  0  0
   19.3685   -6.4512  -13.9618 N   0  0  0  0  0  0  0  0  0  0  0  0
   19.0010   -5.6334  -15.0665 C   0  0  1  0  0  0  0  0  0  0  0  0
   17.5209   -5.2410  -14.9803 C   0  0  0  0  0  0  0  0  0  0  0  0
   17.2088   -4.6407  -13.6273 C   0  0  0  0  0  0  0  0  0  0  0  0
   16.0126   -3.7676  -13.7337 C   0  0  0  0  0  0  0  0  0  0  0  0
   14.8622   -4.1369  -13.3377 O   0  0  0  0  0  0  0  0  0  0  0  0
   19.7653   -4.4044  -15.2473 C   0  0  0  0  0  0  0  0  0  0  0  0
   20.6935   -3.8722  -14.4006 O   0  0  0  0  0  0  0  0  0  0  0  0
   16.0801   -2.4808  -14.2784 O   0  0  0  0  0  0  0  0  0  0  0  0
   19.5380   -3.7546  -16.3207 O   0  0  0  0  0  0  0  0  0  0  0  0
  1  2  1  0
  2  3  1  0
  3  4  1  1
  5  3  1  0
  6  5  2  0
  7  8  1  0
  8 10  1  0
  9  8  2  0
 11 10  1  6
 11 13  1  0
 11 12  1  0
 12  5  1  0
 13 15  1  0
 14 13  2  0
 15 16  1  0
 16 21  1  0
 16 17  1  1
 18 17  1  0
 19 18  1  0
 20 19  2  0
 21 24  2  0
 21 22  1  0
 23 19  1  0
M  END
$$$$
