SNE.pdb
     RDKit          3D

 24 23  0  0  1  0  0  0  0  0999 V2000
   23.6136  -21.2309   -7.5629 O   0  0  0  0  0  0  0  0  0  0  0  0
   23.8880  -20.7447   -8.8428 C   0  0  0  0  0  0  0  0  0  0  0  0
   25.3646  -20.7333   -9.1210 C   0  0  2  0  0  0  0  0  0  0  0  0
   26.0740  -19.9425   -8.1678 N   0  0  0  0  0  0  0  0  0  0  0  0
   25.5594  -20.2412  -10.5212 C   0  0  0  0  0  0  0  0  0  0  0  0
   25.5507  -19.0154  -10.8026 O   0  0  0  0  0  0  0  0  0  0  0  0
   29.1359  -21.1985  -12.3092 N   0  0  0  0  0  0  0  0  0  0  0  0
   28.2173  -20.5531  -13.1669 C   0  0  0  0  0  0  0  0  0  0  0  0
   28.4719  -19.3916  -13.5550 O   0  0  0  0  0  0  0  0  0  0  0  0
   26.9985  -21.2215  -13.5932 C   0  0  0  0  0  0  0  0  0  0  0  0
   25.7118  -20.6538  -12.9754 C   0  0  2  0  0  0  0  0  0  0  0  0
   25.7636  -21.1308  -11.6014 N   0  0  0  0  0  0  0  0  0  0  0  0
   24.5000  -21.0993  -13.6675 C   0  0  0  0  0  0  0  0  0  0  0  0
   23.8166  -22.0456  -13.2045 O   0  0  0  0  0  0  0  0  0  0  0  0
   24.0291  -20.5100  -14.8666 N   0  0  0  0  0  0  0  0  0  0  0  0
   22.6564  -20.6178  -15.2247 C   0  0  1  0  0  0  0  0  0  0  0  0
   21.7620  -20.0479  -14.1169 C   0  0  0  0  0  0  0  0  0  0  0  0
   20.3016  -20.2321  -14.4663 C   0  0  0  0  0  0  0  0  0  0  0  0
   19.4562  -19.5993  -13.4226 C   0  0  0  0  0  0  0  0  0  0  0  0
   18.2154  -19.8508  -13.3062 O   0  0  0  0  0  0  0  0  0  0  0  0
   22.2591  -19.9787  -16.4741 C   0  0  0  0  0  0  0  0  0  0  0  0
   22.5120  -18.6970  -16.8677 O   0  0  0  0  0  0  0  0  0  0  0  0
   19.9767  -18.6845  -12.5010 O   0  0  0  0  0  0  0  0  0  0  0  0
   21.5999  -20.7033  -17.2906 O   0  0  0  0  0  0  0  0  0  0  0  0
  1  2  1  0
  2  3  1  0
  3  4  1  1
  5  3  1  0
  6  5  2  0
  7  8  1  0
  8 10  1  0
  9  8  2  0
 11 10  1  6
 11 13  1  0
 11 12  1  0
 12  5  1  0
 13 15  1  0
 14 13  2  0
 15 16  1  0
 16 21  1  0
 16 17  1  1
 18 17  1  0
 19 18  1  0
 20 19  2  0
 21 24  2  0
 21 22  1  0
 23 19  1  0
M  END
$$$$
