SNE.pdb
     RDKit          3D

 24 23  0  0  1  0  0  0  0  0999 V2000
   26.4877  -14.7850  -17.9376 O   0  0  0  0  0  0  0  0  0  0  0  0
   25.7721  -13.6099  -18.1760 C   0  0  0  0  0  0  0  0  0  0  0  0
   25.7366  -12.7316  -16.9573 C   0  0  2  0  0  0  0  0  0  0  0  0
   25.4532  -13.4811  -15.7761 N   0  0  0  0  0  0  0  0  0  0  0  0
   24.7241  -11.6564  -17.2013 C   0  0  0  0  0  0  0  0  0  0  0  0
   24.8367  -10.8401  -18.1516 O   0  0  0  0  0  0  0  0  0  0  0  0
   19.4965  -10.5264  -18.4483 N   0  0  0  0  0  0  0  0  0  0  0  0
   20.1069  -10.5851  -17.1755 C   0  0  0  0  0  0  0  0  0  0  0  0
   19.5810   -9.9608  -16.2278 O   0  0  0  0  0  0  0  0  0  0  0  0
   21.3224  -11.3549  -16.9660 C   0  0  0  0  0  0  0  0  0  0  0  0
   22.5723  -10.5071  -16.6857 C   0  0  2  0  0  0  0  0  0  0  0  0
   23.5872  -11.5029  -16.3745 N   0  0  0  0  0  0  0  0  0  0  0  0
   22.3828   -9.5533  -15.5902 C   0  0  0  0  0  0  0  0  0  0  0  0
   22.5377   -9.9172  -14.3983 O   0  0  0  0  0  0  0  0  0  0  0  0
   22.0263   -8.1974  -15.7936 N   0  0  0  0  0  0  0  0  0  0  0  0
   21.8455   -7.3312  -14.6795 C   0  0  1  0  0  0  0  0  0  0  0  0
   22.0552   -5.8689  -15.0916 C   0  0  0  0  0  0  0  0  0  0  0  0
   22.0211   -4.9655  -13.8787 C   0  0  0  0  0  0  0  0  0  0  0  0
   22.1181   -3.5482  -14.3104 C   0  0  0  0  0  0  0  0  0  0  0  0
   21.4888   -2.6125  -13.7232 O   0  0  0  0  0  0  0  0  0  0  0  0
   20.5580   -7.4092  -13.9987 C   0  0  0  0  0  0  0  0  0  0  0  0
   20.3293   -7.4111  -12.6535 O   0  0  0  0  0  0  0  0  0  0  0  0
   22.9114   -3.1561  -15.3940 O   0  0  0  0  0  0  0  0  0  0  0  0
   19.5296   -7.4840  -14.7490 O   0  0  0  0  0  0  0  0  0  0  0  0
  1  2  1  0
  2  3  1  0
  3  4  1  1
  5  3  1  0
  6  5  2  0
  7  8  1  0
  8 10  1  0
  9  8  2  0
 11 10  1  1
 11 13  1  0
 11 12  1  0
 12  5  1  0
 13 15  1  0
 14 13  2  0
 15 16  1  0
 16 21  1  0
 16 17  1  6
 18 17  1  0
 19 18  1  0
 20 19  2  0
 21 24  2  0
 21 22  1  0
 23 19  1  0
M  END
$$$$
