SNE.pdb
     RDKit          3D

 24 23  0  0  1  0  0  0  0  0999 V2000
   16.2954  -10.2763  -13.6599 O   0  0  0  0  0  0  0  0  0  0  0  0
   15.7371  -10.7084  -14.8646 C   0  0  0  0  0  0  0  0  0  0  0  0
   16.7882  -11.2400  -15.7975 C   0  0  2  0  0  0  0  0  0  0  0  0
   17.5977  -12.2328  -15.1678 N   0  0  0  0  0  0  0  0  0  0  0  0
   17.5955  -10.0767  -16.2830 C   0  0  0  0  0  0  0  0  0  0  0  0
   18.7683   -9.8666  -15.8802 O   0  0  0  0  0  0  0  0  0  0  0  0
   17.0097   -7.6197  -21.4522 N   0  0  0  0  0  0  0  0  0  0  0  0
   17.7525   -7.5589  -20.2520 C   0  0  0  0  0  0  0  0  0  0  0  0
   18.9994   -7.4871  -20.3202 O   0  0  0  0  0  0  0  0  0  0  0  0
   17.0856   -7.5788  -18.9601 C   0  0  0  0  0  0  0  0  0  0  0  0
   17.9393   -8.1371  -17.8116 C   0  0  2  0  0  0  0  0  0  0  0  0
   17.0799   -9.1525  -17.2210 N   0  0  0  0  0  0  0  0  0  0  0  0
   18.3303   -7.1135  -16.8395 C   0  0  0  0  0  0  0  0  0  0  0  0
   17.5069   -6.7029  -15.9848 O   0  0  0  0  0  0  0  0  0  0  0  0
   19.6236   -6.5369  -16.7961 N   0  0  0  0  0  0  0  0  0  0  0  0
   19.9154   -5.5061  -15.8599 C   0  0  1  0  0  0  0  0  0  0  0  0
   20.9654   -5.9773  -14.8463 C   0  0  0  0  0  0  0  0  0  0  0  0
   21.1513   -4.9453  -13.7559 C   0  0  0  0  0  0  0  0  0  0  0  0
   22.0559   -5.4841  -12.7091 C   0  0  0  0  0  0  0  0  0  0  0  0
   22.2291   -6.7315  -12.5345 O   0  0  0  0  0  0  0  0  0  0  0  0
   20.3841   -4.2405  -16.4128 C   0  0  0  0  0  0  0  0  0  0  0  0
   20.8305   -4.0030  -17.6801 O   0  0  0  0  0  0  0  0  0  0  0  0
   22.7749   -4.6476  -11.8486 O   0  0  0  0  0  0  0  0  0  0  0  0
   20.3746   -3.2429  -15.6184 O   0  0  0  0  0  0  0  0  0  0  0  0
  1  2  1  0
  2  3  1  0
  3  4  1  1
  5  3  1  0
  6  5  2  0
  7  8  1  0
  8 10  1  0
  9  8  2  0
 11 10  1  6
 11 13  1  0
 11 12  1  0
 12  5  1  0
 13 15  1  0
 14 13  2  0
 15 16  1  0
 16 21  1  0
 16 17  1  1
 18 17  1  0
 19 18  1  0
 20 19  2  0
 21 24  2  0
 21 22  1  0
 23 19  1  0
M  END
$$$$
