SNE.pdb
     RDKit          3D

 24 23  0  0  1  0  0  0  0  0999 V2000
   34.3488  -38.4184   -4.9960 O   0  0  0  0  0  0  0  0  0  0  0  0
   33.5196  -37.6712   -4.1570 C   0  0  0  0  0  0  0  0  0  0  0  0
   33.3275  -36.2745   -4.6768 C   0  0  2  0  0  0  0  0  0  0  0  0
   34.5455  -35.5307   -4.6507 N   0  0  0  0  0  0  0  0  0  0  0  0
   32.2530  -35.6289   -3.8588 C   0  0  0  0  0  0  0  0  0  0  0  0
   32.5004  -35.0638   -2.7627 O   0  0  0  0  0  0  0  0  0  0  0  0
   27.6243  -33.4469   -2.6840 N   0  0  0  0  0  0  0  0  0  0  0  0
   27.6709  -33.8587   -4.0346 C   0  0  0  0  0  0  0  0  0  0  0  0
   26.7358  -33.5270   -4.7963 O   0  0  0  0  0  0  0  0  0  0  0  0
   28.7818  -34.6523   -4.5346 C   0  0  0  0  0  0  0  0  0  0  0  0
   29.8901  -34.9163   -3.5043 C   0  0  2  0  0  0  0  0  0  0  0  0
   30.9021  -35.6212   -4.2770 N   0  0  0  0  0  0  0  0  0  0  0  0
   29.4289  -35.7003   -2.3561 C   0  0  0  0  0  0  0  0  0  0  0  0
   29.0525  -36.8886   -2.5094 O   0  0  0  0  0  0  0  0  0  0  0  0
   29.3801  -35.1895   -1.0357 N   0  0  0  0  0  0  0  0  0  0  0  0
   28.8203  -35.9715    0.0128 C   0  0  1  0  0  0  0  0  0  0  0  0
   28.9693  -35.2551    1.3606 C   0  0  0  0  0  0  0  0  0  0  0  0
   28.6152  -36.1866    2.4989 C   0  0  0  0  0  0  0  0  0  0  0  0
   28.7862  -35.4792    3.7930 C   0  0  0  0  0  0  0  0  0  0  0  0
   29.0999  -34.2489    3.8606 O   0  0  0  0  0  0  0  0  0  0  0  0
   27.4160  -36.3389   -0.1298 C   0  0  0  0  0  0  0  0  0  0  0  0
   26.8600  -37.5735    0.0382 O   0  0  0  0  0  0  0  0  0  0  0  0
   28.6115  -36.1269    5.0206 O   0  0  0  0  0  0  0  0  0  0  0  0
   26.6185  -35.3961   -0.4482 O   0  0  0  0  0  0  0  0  0  0  0  0
  1  2  1  0
  2  3  1  0
  3  4  1  1
  5  3  1  0
  6  5  2  0
  7  8  1  0
  8 10  1  0
  9  8  2  0
 11 10  1  6
 11 13  1  0
 11 12  1  0
 12  5  1  0
 13 15  1  0
 14 13  2  0
 15 16  1  0
 16 21  1  0
 16 17  1  1
 18 17  1  0
 19 18  1  0
 20 19  2  0
 21 24  2  0
 21 22  1  0
 23 19  1  0
M  END
$$$$
