SNE.pdb
     RDKit          3D

 24 23  0  0  1  0  0  0  0  0999 V2000
   18.1730  -13.1358  -14.0170 O   0  0  0  0  0  0  0  0  0  0  0  0
   18.5627  -11.9086  -14.5572 C   0  0  0  0  0  0  0  0  0  0  0  0
   17.6452  -11.4812  -15.6678 C   0  0  2  0  0  0  0  0  0  0  0  0
   17.7433  -12.3503  -16.7958 N   0  0  0  0  0  0  0  0  0  0  0  0
   17.9808  -10.0643  -16.0147 C   0  0  0  0  0  0  0  0  0  0  0  0
   18.6825   -9.7733  -17.0172 O   0  0  0  0  0  0  0  0  0  0  0  0
   15.7631   -6.7332  -17.1429 N   0  0  0  0  0  0  0  0  0  0  0  0
   15.7488   -6.3674  -15.7784 C   0  0  0  0  0  0  0  0  0  0  0  0
   14.7882   -5.6918  -15.3477 O   0  0  0  0  0  0  0  0  0  0  0  0
   16.8268   -6.7658  -14.8879 C   0  0  0  0  0  0  0  0  0  0  0  0
   17.9208   -7.6148  -15.5529 C   0  0  2  0  0  0  0  0  0  0  0  0
   17.5254   -8.9782  -15.2318 N   0  0  0  0  0  0  0  0  0  0  0  0
   19.2652   -7.3015  -15.0628 C   0  0  0  0  0  0  0  0  0  0  0  0
   19.6125   -7.6386  -13.9040 O   0  0  0  0  0  0  0  0  0  0  0  0
   20.2359   -6.6212  -15.8385 N   0  0  0  0  0  0  0  0  0  0  0  0
   21.5397   -6.3967  -15.3150 C   0  0  1  0  0  0  0  0  0  0  0  0
   22.5744   -6.3409  -16.4456 C   0  0  0  0  0  0  0  0  0  0  0  0
   23.9600   -6.1055  -15.8860 C   0  0  0  0  0  0  0  0  0  0  0  0
   24.9531   -6.1272  -16.9895 C   0  0  0  0  0  0  0  0  0  0  0  0
   24.8098   -6.8569  -18.0207 O   0  0  0  0  0  0  0  0  0  0  0  0
   21.7167   -5.1961  -14.5060 C   0  0  0  0  0  0  0  0  0  0  0  0
   20.9562   -4.0633  -14.5244 O   0  0  0  0  0  0  0  0  0  0  0  0
   26.1110   -5.3427  -16.9602 O   0  0  0  0  0  0  0  0  0  0  0  0
   22.6952   -5.2092  -13.6884 O   0  0  0  0  0  0  0  0  0  0  0  0
  1  2  1  0
  2  3  1  0
  3  4  1  6
  5  3  1  0
  6  5  2  0
  7  8  1  0
  8 10  1  0
  9  8  2  0
 11 10  1  1
 11 13  1  0
 11 12  1  0
 12  5  1  0
 13 15  1  0
 14 13  2  0
 15 16  1  0
 16 21  1  0
 16 17  1  6
 18 17  1  0
 19 18  1  0
 20 19  2  0
 21 24  2  0
 21 22  1  0
 23 19  1  0
M  END
$$$$
