SNE.pdb
     RDKit          3D

 24 23  0  0  1  0  0  0  0  0999 V2000
   14.8545  -13.6630  -14.5208 O   0  0  0  0  0  0  0  0  0  0  0  0
   14.8992  -12.2676  -14.5419 C   0  0  0  0  0  0  0  0  0  0  0  0
   16.0715  -11.7438  -13.7614 C   0  0  2  0  0  0  0  0  0  0  0  0
   16.6098  -12.7373  -12.8893 N   0  0  0  0  0  0  0  0  0  0  0  0
   15.6158  -10.5265  -13.0190 C   0  0  0  0  0  0  0  0  0  0  0  0
   15.1568   -9.5177  -13.6136 O   0  0  0  0  0  0  0  0  0  0  0  0
   14.0989   -7.4260   -9.0741 N   0  0  0  0  0  0  0  0  0  0  0  0
   13.6858   -8.7745   -8.9919 C   0  0  0  0  0  0  0  0  0  0  0  0
   12.7818   -9.0776   -8.1824 O   0  0  0  0  0  0  0  0  0  0  0  0
   14.2963   -9.7940   -9.8298 C   0  0  0  0  0  0  0  0  0  0  0  0
   15.2398   -9.2476  -10.9118 C   0  0  2  0  0  0  0  0  0  0  0  0
   15.6783  -10.4480  -11.6083 N   0  0  0  0  0  0  0  0  0  0  0  0
   16.3650   -8.4892  -10.3599 C   0  0  0  0  0  0  0  0  0  0  0  0
   17.3183   -9.0854   -9.8006 O   0  0  0  0  0  0  0  0  0  0  0  0
   16.4538   -7.0767  -10.4200 N   0  0  0  0  0  0  0  0  0  0  0  0
   17.7024   -6.4294  -10.2048 C   0  0  1  0  0  0  0  0  0  0  0  0
   18.6904   -6.7736  -11.3261 C   0  0  0  0  0  0  0  0  0  0  0  0
   20.0621   -6.2169  -11.0144 C   0  0  0  0  0  0  0  0  0  0  0  0
   20.9833   -6.5009  -12.1435 C   0  0  0  0  0  0  0  0  0  0  0  0
   21.5800   -5.5791  -12.7844 O   0  0  0  0  0  0  0  0  0  0  0  0
   17.6687   -4.9760  -10.0879 C   0  0  0  0  0  0  0  0  0  0  0  0
   18.5259   -4.1797   -9.3858 O   0  0  0  0  0  0  0  0  0  0  0  0
   21.2510   -7.8056  -12.5716 O   0  0  0  0  0  0  0  0  0  0  0  0
   16.7292   -4.3839  -10.7148 O   0  0  0  0  0  0  0  0  0  0  0  0
  1  2  1  0
  2  3  1  0
  3  4  1  1
  5  3  1  0
  6  5  2  0
  7  8  1  0
  8 10  1  0
  9  8  2  0
 11 10  1  1
 11 13  1  0
 11 12  1  0
 12  5  1  0
 13 15  1  0
 14 13  2  0
 15 16  1  0
 16 21  1  0
 16 17  1  6
 18 17  1  0
 19 18  1  0
 20 19  2  0
 21 24  2  0
 21 22  1  0
 23 19  1  0
M  END
$$$$
