SNE.pdb
     RDKit          3D

 24 23  0  0  1  0  0  0  0  0999 V2000
   20.1471  -11.0465  -19.4053 O   0  0  0  0  0  0  0  0  0  0  0  0
   20.9149  -10.6205  -18.3196 C   0  0  0  0  0  0  0  0  0  0  0  0
   20.2224  -10.8970  -17.0150 C   0  0  2  0  0  0  0  0  0  0  0  0
   18.9401  -11.4911  -17.2151 N   0  0  0  0  0  0  0  0  0  0  0  0
   20.1361   -9.6053  -16.2636 C   0  0  0  0  0  0  0  0  0  0  0  0
   19.0409   -9.1529  -15.8420 O   0  0  0  0  0  0  0  0  0  0  0  0
   23.1239   -5.3475  -13.7664 N   0  0  0  0  0  0  0  0  0  0  0  0
   22.1858   -6.3428  -13.4128 C   0  0  0  0  0  0  0  0  0  0  0  0
   21.4376   -6.1414  -12.4309 O   0  0  0  0  0  0  0  0  0  0  0  0
   22.0877   -7.5789  -14.1722 C   0  0  0  0  0  0  0  0  0  0  0  0
   21.1576   -7.5042  -15.3924 C   0  0  2  0  0  0  0  0  0  0  0  0
   21.2837   -8.8259  -15.9886 N   0  0  0  0  0  0  0  0  0  0  0  0
   21.5269   -6.4401  -16.3290 C   0  0  0  0  0  0  0  0  0  0  0  0
   22.3583   -6.6608  -17.2439 O   0  0  0  0  0  0  0  0  0  0  0  0
   20.9866   -5.1319  -16.2709 N   0  0  0  0  0  0  0  0  0  0  0  0
   21.3476   -4.1655  -17.2507 C   0  0  1  0  0  0  0  0  0  0  0  0
   20.7289   -4.5157  -18.6096 C   0  0  0  0  0  0  0  0  0  0  0  0
   19.2264   -4.3438  -18.5688 C   0  0  0  0  0  0  0  0  0  0  0  0
   18.6557   -4.6315  -19.9089 C   0  0  0  0  0  0  0  0  0  0  0  0
   18.3783   -3.7128  -20.7428 O   0  0  0  0  0  0  0  0  0  0  0  0
   20.9950   -2.7809  -16.9578 C   0  0  0  0  0  0  0  0  0  0  0  0
   21.3436   -1.6681  -17.6663 O   0  0  0  0  0  0  0  0  0  0  0  0
   18.3878   -5.9365  -20.3359 O   0  0  0  0  0  0  0  0  0  0  0  0
   20.2787   -2.5913  -15.9200 O   0  0  0  0  0  0  0  0  0  0  0  0
  1  2  1  0
  2  3  1  0
  3  4  1  6
  5  3  1  0
  6  5  2  0
  7  8  1  0
  8 10  1  0
  9  8  2  0
 11 10  1  1
 11 13  1  0
 11 12  1  0
 12  5  1  0
 13 15  1  0
 14 13  2  0
 15 16  1  0
 16 21  1  0
 16 17  1  6
 18 17  1  0
 19 18  1  0
 20 19  2  0
 21 24  2  0
 21 22  1  0
 23 19  1  0
M  END
$$$$
