SNE.pdb
     RDKit          3D

 24 23  0  0  1  0  0  0  0  0999 V2000
   16.1759  -12.4201  -11.2256 O   0  0  0  0  0  0  0  0  0  0  0  0
   16.0872  -11.0274  -11.2724 C   0  0  0  0  0  0  0  0  0  0  0  0
   15.0812  -10.5077  -10.2847 C   0  0  2  0  0  0  0  0  0  0  0  0
   13.7759  -11.0255  -10.5406 N   0  0  0  0  0  0  0  0  0  0  0  0
   15.1177   -9.0124  -10.3429 C   0  0  0  0  0  0  0  0  0  0  0  0
   14.5897   -8.3703  -11.2868 O   0  0  0  0  0  0  0  0  0  0  0  0
   13.0911   -6.2786   -8.8477 N   0  0  0  0  0  0  0  0  0  0  0  0
   14.0177   -6.1641   -7.7874 C   0  0  0  0  0  0  0  0  0  0  0  0
   13.5883   -5.9198   -6.6382 O   0  0  0  0  0  0  0  0  0  0  0  0
   15.4434   -6.3263   -8.0218 C   0  0  0  0  0  0  0  0  0  0  0  0
   15.8063   -6.7927   -9.4397 C   0  0  2  0  0  0  0  0  0  0  0  0
   15.7491   -8.2435   -9.3379 N   0  0  0  0  0  0  0  0  0  0  0  0
   17.1232   -6.3230   -9.8769 C   0  0  0  0  0  0  0  0  0  0  0  0
   18.1671   -6.7824   -9.3514 O   0  0  0  0  0  0  0  0  0  0  0  0
   17.3038   -5.3517  -10.8922 N   0  0  0  0  0  0  0  0  0  0  0  0
   18.5737   -5.1965  -11.5148 C   0  0  1  0  0  0  0  0  0  0  0  0
   19.0882   -6.5434  -12.0374 C   0  0  0  0  0  0  0  0  0  0  0  0
   20.4255   -6.3709  -12.7232 C   0  0  0  0  0  0  0  0  0  0  0  0
   20.9553   -7.6990  -13.1228 C   0  0  0  0  0  0  0  0  0  0  0  0
   20.8142   -8.1633  -14.2979 O   0  0  0  0  0  0  0  0  0  0  0  0
   18.6432   -4.2475  -12.6202 C   0  0  0  0  0  0  0  0  0  0  0  0
   19.7280   -3.5281  -13.0294 O   0  0  0  0  0  0  0  0  0  0  0  0
   21.6446   -8.5225  -12.2262 O   0  0  0  0  0  0  0  0  0  0  0  0
   17.5650   -4.0719  -13.2781 O   0  0  0  0  0  0  0  0  0  0  0  0
  1  2  1  0
  2  3  1  0
  3  4  1  6
  5  3  1  0
  6  5  2  0
  7  8  1  0
  8 10  1  0
  9  8  2  0
 11 10  1  1
 11 13  1  0
 11 12  1  0
 12  5  1  0
 13 15  1  0
 14 13  2  0
 15 16  1  0
 16 21  1  0
 16 17  1  6
 18 17  1  0
 19 18  1  0
 20 19  2  0
 21 24  2  0
 21 22  1  0
 23 19  1  0
M  END
$$$$
