SNE.pdb
     RDKit          3D

 24 23  0  0  1  0  0  0  0  0999 V2000
   13.6066  -12.7865  -12.5207 O   0  0  0  0  0  0  0  0  0  0  0  0
   14.8169  -12.7569  -13.2164 C   0  0  0  0  0  0  0  0  0  0  0  0
   15.9542  -12.3498  -12.3228 C   0  0  2  0  0  0  0  0  0  0  0  0
   16.1256  -13.2630  -11.2393 N   0  0  0  0  0  0  0  0  0  0  0  0
   15.6840  -10.9555  -11.8499 C   0  0  0  0  0  0  0  0  0  0  0  0
   15.6393   -9.9808  -12.6436 O   0  0  0  0  0  0  0  0  0  0  0  0
   11.9921  -10.7571   -8.8088 N   0  0  0  0  0  0  0  0  0  0  0  0
   12.7670   -9.6484   -9.2164 C   0  0  0  0  0  0  0  0  0  0  0  0
   12.2179   -8.7451   -9.8852 O   0  0  0  0  0  0  0  0  0  0  0  0
   14.1754   -9.5541   -8.8680 C   0  0  0  0  0  0  0  0  0  0  0  0
   15.1118   -9.3145  -10.0619 C   0  0  2  0  0  0  0  0  0  0  0  0
   15.4646  -10.6620  -10.4840 N   0  0  0  0  0  0  0  0  0  0  0  0
   16.2920   -8.5202   -9.7130 C   0  0  0  0  0  0  0  0  0  0  0  0
   17.1137   -8.9444   -8.8633 O   0  0  0  0  0  0  0  0  0  0  0  0
   16.5801   -7.2605  -10.2936 N   0  0  0  0  0  0  0  0  0  0  0  0
   17.5786   -6.4225   -9.7235 C   0  0  1  0  0  0  0  0  0  0  0  0
   18.9631   -6.7739  -10.2819 C   0  0  0  0  0  0  0  0  0  0  0  0
   18.9662   -6.6793  -11.7918 C   0  0  0  0  0  0  0  0  0  0  0  0
   20.3203   -7.0016  -12.3083 C   0  0  0  0  0  0  0  0  0  0  0  0
   21.3557   -6.9716  -11.5709 O   0  0  0  0  0  0  0  0  0  0  0  0
   17.3948   -4.9856   -9.8933 C   0  0  0  0  0  0  0  0  0  0  0  0
   16.5051   -4.3537  -10.7125 O   0  0  0  0  0  0  0  0  0  0  0  0
   20.5389   -7.3592  -13.6430 O   0  0  0  0  0  0  0  0  0  0  0  0
   18.1541   -4.2360   -9.1949 O   0  0  0  0  0  0  0  0  0  0  0  0
  1  2  1  0
  2  3  1  0
  3  4  1  1
  5  3  1  0
  6  5  2  0
  7  8  1  0
  8 10  1  0
  9  8  2  0
 11 10  1  1
 11 13  1  0
 11 12  1  0
 12  5  1  0
 13 15  1  0
 14 13  2  0
 15 16  1  0
 16 21  1  0
 16 17  1  6
 18 17  1  0
 19 18  1  0
 20 19  2  0
 21 24  2  0
 21 22  1  0
 23 19  1  0
M  END
$$$$
