SNE.pdb
     RDKit          3D

 24 23  0  0  1  0  0  0  0  0999 V2000
   18.2282  -13.0102  -13.9882 O   0  0  0  0  0  0  0  0  0  0  0  0
   17.6542  -11.7701  -13.7012 C   0  0  0  0  0  0  0  0  0  0  0  0
   16.2384  -11.9184  -13.2202 C   0  0  2  0  0  0  0  0  0  0  0  0
   15.3616  -12.3092  -14.2765 N   0  0  0  0  0  0  0  0  0  0  0  0
   15.8311  -10.6190  -12.5987 C   0  0  0  0  0  0  0  0  0  0  0  0
   15.5414   -9.6113  -13.2934 O   0  0  0  0  0  0  0  0  0  0  0  0
   14.1421   -7.1941   -9.0059 N   0  0  0  0  0  0  0  0  0  0  0  0
   13.7447   -8.5295   -8.7725 C   0  0  0  0  0  0  0  0  0  0  0  0
   12.8545   -8.7515   -7.9223 O   0  0  0  0  0  0  0  0  0  0  0  0
   14.3552   -9.6281   -9.5035 C   0  0  0  0  0  0  0  0  0  0  0  0
   15.3184   -9.1934  -10.6183 C   0  0  2  0  0  0  0  0  0  0  0  0
   15.7512  -10.4573  -11.1961 N   0  0  0  0  0  0  0  0  0  0  0  0
   16.4458   -8.3998  -10.1232 C   0  0  0  0  0  0  0  0  0  0  0  0
   17.4405   -8.9650   -9.6053 O   0  0  0  0  0  0  0  0  0  0  0  0
   16.4913   -6.9857  -10.1948 N   0  0  0  0  0  0  0  0  0  0  0  0
   17.7230   -6.2998  -10.0034 C   0  0  1  0  0  0  0  0  0  0  0  0
   18.7308   -6.6832  -11.0940 C   0  0  0  0  0  0  0  0  0  0  0  0
   20.0108   -5.8926  -10.9356 C   0  0  0  0  0  0  0  0  0  0  0  0
   20.9646   -6.2686  -12.0094 C   0  0  0  0  0  0  0  0  0  0  0  0
   20.7277   -7.2077  -12.8330 O   0  0  0  0  0  0  0  0  0  0  0  0
   17.6564   -4.8433   -9.9676 C   0  0  0  0  0  0  0  0  0  0  0  0
   16.6354   -4.0483  -10.4005 O   0  0  0  0  0  0  0  0  0  0  0  0
   22.1866   -5.6090  -12.1799 O   0  0  0  0  0  0  0  0  0  0  0  0
   18.6700   -4.2467   -9.4747 O   0  0  0  0  0  0  0  0  0  0  0  0
  1  2  1  0
  2  3  1  0
  3  4  1  6
  5  3  1  0
  6  5  2  0
  7  8  1  0
  8 10  1  0
  9  8  2  0
 11 10  1  1
 11 13  1  0
 11 12  1  0
 12  5  1  0
 13 15  1  0
 14 13  2  0
 15 16  1  0
 16 21  1  0
 16 17  1  6
 18 17  1  0
 19 18  1  0
 20 19  2  0
 21 24  2  0
 21 22  1  0
 23 19  1  0
M  END
$$$$
