SNE.pdb
     RDKit          3D

 24 23  0  0  1  0  0  0  0  0999 V2000
   27.7728  -16.7650  -17.3217 O   0  0  0  0  0  0  0  0  0  0  0  0
   26.9958  -17.7926  -16.7831 C   0  0  0  0  0  0  0  0  0  0  0  0
   27.8359  -18.9852  -16.4228 C   0  0  2  0  0  0  0  0  0  0  0  0
   28.3573  -19.6321  -17.5834 N   0  0  0  0  0  0  0  0  0  0  0  0
   26.9910  -19.9030  -15.5954 C   0  0  0  0  0  0  0  0  0  0  0  0
   26.3999  -20.8943  -16.0951 O   0  0  0  0  0  0  0  0  0  0  0  0
   25.9051  -22.5135  -10.7990 N   0  0  0  0  0  0  0  0  0  0  0  0
   25.6694  -21.1358  -11.0051 C   0  0  0  0  0  0  0  0  0  0  0  0
   24.7955  -20.5661  -10.3151 O   0  0  0  0  0  0  0  0  0  0  0  0
   26.4252  -20.3902  -11.9985 C   0  0  0  0  0  0  0  0  0  0  0  0
   25.9238  -20.5617  -13.4403 C   0  0  2  0  0  0  0  0  0  0  0  0
   26.8137  -19.7020  -14.2068 N   0  0  0  0  0  0  0  0  0  0  0  0
   24.5177  -20.1857  -13.6057 C   0  0  0  0  0  0  0  0  0  0  0  0
   24.1776  -18.9770  -13.5844 O   0  0  0  0  0  0  0  0  0  0  0  0
   23.4787  -21.1292  -13.7979 N   0  0  0  0  0  0  0  0  0  0  0  0
   22.1403  -20.6882  -13.9939 C   0  0  1  0  0  0  0  0  0  0  0  0
   21.5572  -21.2847  -15.2809 C   0  0  0  0  0  0  0  0  0  0  0  0
   20.1162  -20.8593  -15.4578 C   0  0  0  0  0  0  0  0  0  0  0  0
   19.5514  -21.5052  -16.6695 C   0  0  0  0  0  0  0  0  0  0  0  0
   20.2308  -22.2919  -17.4016 O   0  0  0  0  0  0  0  0  0  0  0  0
   21.1981  -20.9745  -12.9179 C   0  0  0  0  0  0  0  0  0  0  0  0
   20.0744  -20.2733  -12.5903 O   0  0  0  0  0  0  0  0  0  0  0  0
   18.2321  -21.2856  -17.0799 O   0  0  0  0  0  0  0  0  0  0  0  0
   21.4566  -21.9983  -12.2028 O   0  0  0  0  0  0  0  0  0  0  0  0
  1  2  1  0
  2  3  1  0
  3  4  1  6
  5  3  1  0
  6  5  2  0
  7  8  1  0
  8 10  1  0
  9  8  2  0
 11 10  1  1
 11 13  1  0
 11 12  1  0
 12  5  1  0
 13 15  1  0
 14 13  2  0
 15 16  1  0
 16 21  1  0
 16 17  1  6
 18 17  1  0
 19 18  1  0
 20 19  2  0
 21 24  2  0
 21 22  1  0
 23 19  1  0
M  END
$$$$
