SNE.pdb
     RDKit          3D

 24 23  0  0  1  0  0  0  0  0999 V2000
   13.9413  -10.6342  -14.9755 O   0  0  0  0  0  0  0  0  0  0  0  0
   15.1657  -10.3378  -14.3731 C   0  0  0  0  0  0  0  0  0  0  0  0
   15.7810   -9.0990  -14.9603 C   0  0  2  0  0  0  0  0  0  0  0  0
   15.7013   -9.0962  -16.3854 N   0  0  0  0  0  0  0  0  0  0  0  0
   17.1939   -9.0185  -14.4727 C   0  0  0  0  0  0  0  0  0  0  0  0
   17.4741   -8.9933  -13.2467 O   0  0  0  0  0  0  0  0  0  0  0  0
   22.4218   -8.8945  -14.3978 N   0  0  0  0  0  0  0  0  0  0  0  0
   21.8715   -9.8376  -15.2944 C   0  0  0  0  0  0  0  0  0  0  0  0
   22.6409  -10.6357  -15.8736 O   0  0  0  0  0  0  0  0  0  0  0  0
   20.4396   -9.8838  -15.5423 C   0  0  0  0  0  0  0  0  0  0  0  0
   19.6409   -8.7554  -14.8728 C   0  0  2  0  0  0  0  0  0  0  0  0
   18.2882   -8.9663  -15.3669 N   0  0  0  0  0  0  0  0  0  0  0  0
   20.1466   -7.4214  -15.2051 C   0  0  0  0  0  0  0  0  0  0  0  0
   20.0866   -6.9961  -16.3852 O   0  0  0  0  0  0  0  0  0  0  0  0
   20.7172   -6.5462  -14.2484 N   0  0  0  0  0  0  0  0  0  0  0  0
   21.1657   -5.2541  -14.6398 C   0  0  1  0  0  0  0  0  0  0  0  0
   20.1076   -4.1926  -14.3146 C   0  0  0  0  0  0  0  0  0  0  0  0
   20.5316   -2.8406  -14.8445 C   0  0  0  0  0  0  0  0  0  0  0  0
   19.4910   -1.8313  -14.5238 C   0  0  0  0  0  0  0  0  0  0  0  0
   19.6536   -0.9471  -13.6248 O   0  0  0  0  0  0  0  0  0  0  0  0
   22.4258   -4.8013  -14.0614 C   0  0  0  0  0  0  0  0  0  0  0  0
   23.3403   -3.9575  -14.6213 O   0  0  0  0  0  0  0  0  0  0  0  0
   18.2640   -1.7927  -15.1948 O   0  0  0  0  0  0  0  0  0  0  0  0
   22.7022   -5.2468  -12.8989 O   0  0  0  0  0  0  0  0  0  0  0  0
  1  2  1  0
  2  3  1  0
  3  4  1  6
  5  3  1  0
  6  5  2  0
  7  8  1  0
  8 10  1  0
  9  8  2  0
 11 10  1  6
 11 13  1  0
 11 12  1  0
 12  5  1  0
 13 15  1  0
 14 13  2  0
 15 16  1  0
 16 21  1  0
 16 17  1  1
 18 17  1  0
 19 18  1  0
 20 19  2  0
 21 24  2  0
 21 22  1  0
 23 19  1  0
M  END
$$$$
