SNE.pdb
     RDKit          3D

 24 23  0  0  1  0  0  0  0  0999 V2000
   28.9746   -9.3809  -20.6186 O   0  0  0  0  0  0  0  0  0  0  0  0
   29.6473   -8.9086  -19.4898 C   0  0  0  0  0  0  0  0  0  0  0  0
   30.1184  -10.0383  -18.6184 C   0  0  2  0  0  0  0  0  0  0  0  0
   29.0262  -10.8135  -18.1248 N   0  0  0  0  0  0  0  0  0  0  0  0
   30.9383   -9.4487  -17.5135 C   0  0  0  0  0  0  0  0  0  0  0  0
   30.4295   -9.1160  -16.4124 O   0  0  0  0  0  0  0  0  0  0  0  0
   35.0846   -8.0870  -14.6340 N   0  0  0  0  0  0  0  0  0  0  0  0
   35.1977   -9.3107  -15.3310 C   0  0  0  0  0  0  0  0  0  0  0  0
   36.1339  -10.0858  -15.0357 O   0  0  0  0  0  0  0  0  0  0  0  0
   34.2471   -9.6669  -16.3718 C   0  0  0  0  0  0  0  0  0  0  0  0
   33.1032   -8.6593  -16.5611 C   0  0  2  0  0  0  0  0  0  0  0  0
   32.3294   -9.2349  -17.6512 N   0  0  0  0  0  0  0  0  0  0  0  0
   33.5763   -7.3089  -16.8749 C   0  0  0  0  0  0  0  0  0  0  0  0
   34.3147   -7.1110  -17.8712 O   0  0  0  0  0  0  0  0  0  0  0  0
   33.2417   -6.1695  -16.1025 N   0  0  0  0  0  0  0  0  0  0  0  0
   33.7938   -4.8990  -16.4271 C   0  0  1  0  0  0  0  0  0  0  0  0
   32.8542   -4.1227  -17.3580 C   0  0  0  0  0  0  0  0  0  0  0  0
   31.5972   -3.7135  -16.6226 C   0  0  0  0  0  0  0  0  0  0  0  0
   30.7002   -2.9715  -17.5441 C   0  0  0  0  0  0  0  0  0  0  0  0
   29.4340   -3.0737  -17.4916 O   0  0  0  0  0  0  0  0  0  0  0  0
   34.1124   -4.0236  -15.3048 C   0  0  0  0  0  0  0  0  0  0  0  0
   34.7681   -2.8277  -15.3452 O   0  0  0  0  0  0  0  0  0  0  0  0
   31.1969   -2.1118  -18.5297 O   0  0  0  0  0  0  0  0  0  0  0  0
   33.7336   -4.4243  -14.1550 O   0  0  0  0  0  0  0  0  0  0  0  0
  1  2  1  0
  2  3  1  0
  3  4  1  1
  5  3  1  0
  6  5  2  0
  7  8  1  0
  8 10  1  0
  9  8  2  0
 11 10  1  6
 11 13  1  0
 11 12  1  0
 12  5  1  0
 13 15  1  0
 14 13  2  0
 15 16  1  0
 16 21  1  0
 16 17  1  6
 18 17  1  0
 19 18  1  0
 20 19  2  0
 21 24  2  0
 21 22  1  0
 23 19  1  0
M  END
$$$$
