RLV.pdb
     RDKit          3D

 27 26  0  0  1  0  0  0  0  0999 V2000
   16.9144  -22.1992  -12.6652 N   0  0  0  0  0  0  0  0  0  0  0  0
   17.1599  -23.4881  -13.2184 C   0  0  0  0  0  0  0  0  0  0  0  0
   16.1602  -24.1327  -13.7126 N   0  0  0  0  0  0  0  0  0  0  0  0
   18.4678  -24.0487  -13.2254 N   0  0  0  0  0  0  0  0  0  0  0  0
   19.6046  -23.1679  -13.0877 C   0  0  0  0  0  0  0  0  0  0  0  0
   19.5322  -21.9768  -13.9787 C   0  0  0  0  0  0  0  0  0  0  0  0
   20.7243  -21.1126  -13.8563 C   0  0  0  0  0  0  0  0  0  0  0  0
   21.5195  -21.2018  -12.6035 C   0  0  2  0  0  0  0  0  0  0  0  0
   20.9119  -20.6157  -11.4471 N   0  0  0  0  0  0  0  0  0  0  0  0
   22.8197  -20.4823  -12.8816 C   0  0  0  0  0  0  0  0  0  0  0  0
   22.8163  -19.2210  -12.8219 O   0  0  0  0  0  0  0  0  0  0  0  0
   16.2834  -25.0753  -14.1034 C   0  0  0  0  0  0  0  0  0  0  0  0
   27.5470  -22.0343  -10.7297 C   0  0  1  0  0  0  0  0  0  0  0  0
   26.3854  -21.0607  -11.1205 C   0  0  0  0  0  0  0  0  0  0  0  0
   26.7599  -19.7684  -10.4884 C   0  0  0  0  0  0  0  0  0  0  0  0
   26.3026  -21.1332  -12.5758 C   0  0  2  0  0  0  0  0  0  0  0  0
   25.3109  -20.4019  -13.3698 N   0  0  0  0  0  0  0  0  0  0  0  0
   24.0142  -21.1559  -13.1997 C   0  0  0  0  0  0  0  0  0  0  0  0
   25.5234  -20.3776  -14.8224 O   0  0  0  0  0  0  0  0  0  0  0  0
   25.3410  -21.4293  -15.5418 C   0  0  0  0  0  0  0  0  0  0  0  0
   23.7979  -18.4522  -17.4361 C   0  0  2  0  0  0  0  0  0  0  0  0
   25.2599  -18.2478  -17.6416 C   0  0  0  0  0  0  0  0  0  0  0  0
   25.7008  -16.8593  -17.2095 C   0  0  2  0  0  0  0  0  0  0  0  0
   26.1280  -19.3245  -17.0116 N   0  0  0  0  0  0  0  0  0  0  0  0
   25.9302  -19.2319  -15.5831 C   0  0  0  0  0  0  0  0  0  0  0  0
   27.5185  -19.2476  -17.4513 O   0  0  0  0  0  0  0  0  0  0  0  0
   28.0957  -19.8658  -18.5228 O   0  0  0  0  0  0  0  0  0  0  0  0
  2  3  2  0
  2  1  1  0
  4  2  1  0
  5  4  1  0
  6  5  1  0
  7  6  1  0
  8 10  1  0
  8  7  1  0
  8  9  1  1
 10 11  2  0
 13 12  1  1
 14 13  1  0
 16 15  1  1
 15 13  1  0
 17 16  1  0
 17 10  1  0
 18 16  1  0
 19 18  2  0
 21 20  1  6
 21 22  1  0
 23 21  1  0
 23 24  1  6
 24 18  1  0
 25 26  1  0
 25 23  1  0
 27 25  2  0
M  END
$$$$
