RLV.pdb
     RDKit          3D

 27 26  0  0  1  0  0  0  0  0999 V2000
   20.6673  -19.3478  -13.7136 N   0  0  0  0  0  0  0  0  0  0  0  0
   21.1362  -20.3041  -14.6587 C   0  0  0  0  0  0  0  0  0  0  0  0
   20.6063  -20.3018  -15.8326 N   0  0  0  0  0  0  0  0  0  0  0  0
   22.1578  -21.2345  -14.3185 N   0  0  0  0  0  0  0  0  0  0  0  0
   22.7721  -21.1494  -13.0138 C   0  0  0  0  0  0  0  0  0  0  0  0
   23.6555  -19.9603  -12.8604 C   0  0  0  0  0  0  0  0  0  0  0  0
   24.3034  -19.9114  -11.5334 C   0  0  0  0  0  0  0  0  0  0  0  0
   25.7692  -20.1496  -11.4684 C   0  0  2  0  0  0  0  0  0  0  0  0
   26.2777  -21.1090  -12.4016 N   0  0  0  0  0  0  0  0  0  0  0  0
   26.0507  -20.6439  -10.0677 C   0  0  0  0  0  0  0  0  0  0  0  0
   26.0038  -21.8893   -9.8648 O   0  0  0  0  0  0  0  0  0  0  0  0
   20.8609  -21.0164  -16.5261 C   0  0  0  0  0  0  0  0  0  0  0  0
   29.2099  -18.5229   -5.4668 C   0  0  2  0  0  0  0  0  0  0  0  0
   28.6083  -19.8479   -6.0437 C   0  0  0  0  0  0  0  0  0  0  0  0
   28.1630  -20.6033   -4.8433 C   0  0  0  0  0  0  0  0  0  0  0  0
   27.6073  -19.4189   -7.0153 C   0  0  2  0  0  0  0  0  0  0  0  0
   26.6180  -20.3203   -7.6132 N   0  0  0  0  0  0  0  0  0  0  0  0
   26.3577  -19.7807   -8.9989 C   0  0  0  0  0  0  0  0  0  0  0  0
   25.2915  -20.3472   -6.9842 O   0  0  0  0  0  0  0  0  0  0  0  0
   24.4561  -19.3813   -7.1455 C   0  0  0  0  0  0  0  0  0  0  0  0
   22.4357  -22.2140   -7.6584 C   0  0  2  0  0  0  0  0  0  0  0  0
   22.6139  -22.3786   -6.1878 C   0  0  0  0  0  0  0  0  0  0  0  0
   23.1060  -23.7716   -5.8325 C   0  0  2  0  0  0  0  0  0  0  0  0
   23.4796  -21.3063   -5.5474 N   0  0  0  0  0  0  0  0  0  0  0  0
   24.7840  -21.4065   -6.1614 C   0  0  0  0  0  0  0  0  0  0  0  0
   23.4734  -21.3820   -4.0890 O   0  0  0  0  0  0  0  0  0  0  0  0
   22.4577  -21.0597   -3.2358 O   0  0  0  0  0  0  0  0  0  0  0  0
  2  3  2  0
  2  1  1  0
  4  2  1  0
  5  4  1  0
  6  5  1  0
  7  6  1  0
  8 10  1  0
  8  7  1  0
  8  9  1  6
 10 11  2  0
 13 12  1  1
 14 13  1  0
 16 15  1  6
 15 13  1  0
 17 16  1  0
 17 10  1  0
 18 16  1  0
 19 18  2  0
 21 20  1  1
 21 22  1  0
 23 21  1  0
 23 24  1  1
 24 18  1  0
 25 26  1  0
 25 23  1  0
 27 25  2  0
M  END
$$$$
