RLV.pdb
     RDKit          3D

 27 26  0  0  1  0  0  0  0  0999 V2000
   28.5573  -18.3189  -18.0155 N   0  0  0  0  0  0  0  0  0  0  0  0
   27.1619  -18.1173  -18.2152 C   0  0  0  0  0  0  0  0  0  0  0  0
   26.6604  -18.4555  -19.3524 N   0  0  0  0  0  0  0  0  0  0  0  0
   26.3455  -17.5592  -17.1920 N   0  0  0  0  0  0  0  0  0  0  0  0
   26.7932  -17.6401  -15.8210 C   0  0  0  0  0  0  0  0  0  0  0  0
   26.9481  -19.0405  -15.3385 C   0  0  0  0  0  0  0  0  0  0  0  0
   27.3244  -19.1027  -13.9110 C   0  0  0  0  0  0  0  0  0  0  0  0
   28.0382  -20.3164  -13.4346 C   0  0  2  0  0  0  0  0  0  0  0  0
   28.1092  -21.3954  -14.3731 N   0  0  0  0  0  0  0  0  0  0  0  0
   27.2865  -20.7903  -12.2116 C   0  0  0  0  0  0  0  0  0  0  0  0
   26.4958  -21.7650  -12.3504 O   0  0  0  0  0  0  0  0  0  0  0  0
   25.6521  -18.3655  -19.5302 C   0  0  0  0  0  0  0  0  0  0  0  0
   27.1747  -21.4595   -6.6852 C   0  0  2  0  0  0  0  0  0  0  0  0
   26.6424  -20.0992   -7.2475 C   0  0  0  0  0  0  0  0  0  0  0  0
   27.0470  -19.0959   -6.2279 C   0  0  0  0  0  0  0  0  0  0  0  0
   27.2012  -19.9993   -8.5920 C   0  0  1  0  0  0  0  0  0  0  0  0
   26.6324  -20.6784   -9.7599 N   0  0  0  0  0  0  0  0  0  0  0  0
   27.4330  -20.1943  -10.9447 C   0  0  0  0  0  0  0  0  0  0  0  0
   25.2452  -20.3408  -10.1030 O   0  0  0  0  0  0  0  0  0  0  0  0
   24.9117  -19.1426  -10.4342 C   0  0  0  0  0  0  0  0  0  0  0  0
   21.1357  -21.2036  -12.3372 C   0  0  2  0  0  0  0  0  0  0  0  0
   22.5117  -21.4778  -11.8343 C   0  0  0  0  0  0  0  0  0  0  0  0
   23.5686  -21.1386  -12.8719 C   0  0  1  0  0  0  0  0  0  0  0  0
   22.8210  -20.8262  -10.4966 N   0  0  0  0  0  0  0  0  0  0  0  0
   24.1465  -21.2623  -10.1207 C   0  0  0  0  0  0  0  0  0  0  0  0
   21.7811  -21.0744   -9.5017 O   0  0  0  0  0  0  0  0  0  0  0  0
   21.8381  -21.8990   -8.4154 O   0  0  0  0  0  0  0  0  0  0  0  0
  2  3  2  0
  2  1  1  0
  4  2  1  0
  5  4  1  0
  6  5  1  0
  7  6  1  0
  8 10  1  0
  8  7  1  0
  8  9  1  6
 10 11  2  0
 13 12  1  1
 14 13  1  0
 16 15  1  1
 15 13  1  0
 17 16  1  0
 17 10  1  0
 18 16  1  0
 19 18  2  0
 21 20  1  6
 21 22  1  0
 23 21  1  0
 23 24  1  6
 24 18  1  0
 25 26  1  0
 25 23  1  0
 27 25  2  0
M  END
$$$$
