RLV.pdb
     RDKit          3D

 27 26  0  0  1  0  0  0  0  0999 V2000
   26.7995  -17.4264  -17.7679 N   0  0  0  0  0  0  0  0  0  0  0  0
   28.1100  -17.9045  -18.0536 C   0  0  0  0  0  0  0  0  0  0  0  0
   28.5227  -17.8414  -19.2721 N   0  0  0  0  0  0  0  0  0  0  0  0
   28.9391  -18.4364  -17.0266 N   0  0  0  0  0  0  0  0  0  0  0  0
   28.3353  -18.8190  -15.7713 C   0  0  0  0  0  0  0  0  0  0  0  0
   26.8489  -18.8872  -15.8346 C   0  0  0  0  0  0  0  0  0  0  0  0
   26.2616  -19.4588  -14.6052 C   0  0  0  0  0  0  0  0  0  0  0  0
   27.1021  -20.3842  -13.8009 C   0  0  2  0  0  0  0  0  0  0  0  0
   27.7002  -21.4615  -14.5301 N   0  0  0  0  0  0  0  0  0  0  0  0
   26.1903  -20.9654  -12.7442 C   0  0  0  0  0  0  0  0  0  0  0  0
   25.8358  -22.1704  -12.8738 O   0  0  0  0  0  0  0  0  0  0  0  0
   29.4163  -18.2680  -19.5475 C   0  0  0  0  0  0  0  0  0  0  0  0
   26.4683  -19.2472   -7.4903 C   0  0  1  0  0  0  0  0  0  0  0  0
   26.5522  -20.2180   -8.7152 C   0  0  0  0  0  0  0  0  0  0  0  0
   27.0374  -21.4988   -8.1373 C   0  0  0  0  0  0  0  0  0  0  0  0
   25.2255  -20.1789   -9.3221 C   0  0  2  0  0  0  0  0  0  0  0  0
   24.8826  -20.8692  -10.5690 N   0  0  0  0  0  0  0  0  0  0  0  0
   25.7294  -20.2244  -11.6396 C   0  0  0  0  0  0  0  0  0  0  0  0
   23.5062  -20.7035  -11.0526 O   0  0  0  0  0  0  0  0  0  0  0  0
   22.4971  -20.9376  -10.2887 C   0  0  0  0  0  0  0  0  0  0  0  0
   20.3411  -19.5573  -14.7505 C   0  0  2  0  0  0  0  0  0  0  0  0
   21.7029  -19.6052  -14.1466 C   0  0  0  0  0  0  0  0  0  0  0  0
   22.3433  -18.2284  -14.0914 C   0  0  1  0  0  0  0  0  0  0  0  0
   21.7535  -20.2932  -12.7924 N   0  0  0  0  0  0  0  0  0  0  0  0
   23.1349  -20.2709  -12.3686 C   0  0  0  0  0  0  0  0  0  0  0  0
   21.1331  -21.6151  -12.8151 O   0  0  0  0  0  0  0  0  0  0  0  0
   21.6655  -22.7847  -13.2755 O   0  0  0  0  0  0  0  0  0  0  0  0
  2  3  2  0
  2  1  1  0
  4  2  1  0
  5  4  1  0
  6  5  1  0
  7  6  1  0
  8 10  1  0
  8  7  1  0
  8  9  1  6
 10 11  2  0
 13 12  1  6
 14 13  1  0
 16 15  1  1
 15 13  1  0
 17 16  1  0
 17 10  1  0
 18 16  1  0
 19 18  2  0
 21 20  1  6
 21 22  1  0
 23 21  1  0
 23 24  1  6
 24 18  1  0
 25 26  1  0
 25 23  1  0
 27 25  2  0
M  END
$$$$
