RLV.pdb
     RDKit          3D

 27 26  0  0  1  0  0  0  0  0999 V2000
   28.2707  -19.3716  -20.4699 N   0  0  0  0  0  0  0  0  0  0  0  0
   26.8783  -19.6694  -20.4636 C   0  0  0  0  0  0  0  0  0  0  0  0
   26.4258  -20.4565  -21.3773 N   0  0  0  0  0  0  0  0  0  0  0  0
   26.0119  -19.1153  -19.4800 N   0  0  0  0  0  0  0  0  0  0  0  0
   26.5636  -18.2188  -18.4907 C   0  0  0  0  0  0  0  0  0  0  0  0
   27.3843  -18.9168  -17.4625 C   0  0  0  0  0  0  0  0  0  0  0  0
   26.5533  -19.6582  -16.4914 C   0  0  0  0  0  0  0  0  0  0  0  0
   27.2384  -20.2918  -15.3343 C   0  0  2  0  0  0  0  0  0  0  0  0
   28.1771  -21.3212  -15.6645 N   0  0  0  0  0  0  0  0  0  0  0  0
   26.1457  -20.8923  -14.4793 C   0  0  0  0  0  0  0  0  0  0  0  0
   25.6997  -22.0267  -14.8091 O   0  0  0  0  0  0  0  0  0  0  0  0
   25.4186  -20.6452  -21.4574 C   0  0  0  0  0  0  0  0  0  0  0  0
   25.8512  -20.2146   -8.9710 C   0  0  2  0  0  0  0  0  0  0  0  0
   25.9841  -20.9232  -10.3604 C   0  0  0  0  0  0  0  0  0  0  0  0
   26.1139  -22.3660  -10.0268 C   0  0  0  0  0  0  0  0  0  0  0  0
   24.8224  -20.4805  -11.1250 C   0  0  2  0  0  0  0  0  0  0  0  0
   24.5502  -20.8993  -12.5031 N   0  0  0  0  0  0  0  0  0  0  0  0
   25.6158  -20.2436  -13.3479 C   0  0  0  0  0  0  0  0  0  0  0  0
   23.2887  -20.4334  -13.0924 O   0  0  0  0  0  0  0  0  0  0  0  0
   23.0917  -19.1878  -13.3501 C   0  0  0  0  0  0  0  0  0  0  0  0
   21.8521  -21.0925  -16.3183 C   0  0  2  0  0  0  0  0  0  0  0  0
   20.7508  -21.3459  -15.3464 C   0  0  0  0  0  0  0  0  0  0  0  0
   20.4487  -22.8290  -15.2116 C   0  0  2  0  0  0  0  0  0  0  0  0
   20.9660  -20.6998  -13.9878 N   0  0  0  0  0  0  0  0  0  0  0  0
   22.1786  -21.2697  -13.4462 C   0  0  0  0  0  0  0  0  0  0  0  0
   19.7916  -20.8081  -13.1266 O   0  0  0  0  0  0  0  0  0  0  0  0
   18.6579  -20.0482  -13.1532 O   0  0  0  0  0  0  0  0  0  0  0  0
  2  3  2  0
  2  1  1  0
  4  2  1  0
  5  4  1  0
  6  5  1  0
  7  6  1  0
  8 10  1  0
  8  7  1  0
  8  9  1  6
 10 11  2  0
 13 12  1  1
 14 13  1  0
 16 15  1  1
 15 13  1  0
 17 16  1  0
 17 10  1  0
 18 16  1  0
 19 18  2  0
 21 20  1  6
 21 22  1  0
 23 21  1  0
 23 24  1  1
 24 18  1  0
 25 26  1  0
 25 23  1  0
 27 25  2  0
M  END
$$$$
