RLV.pdb
     RDKit          3D

 27 26  0  0  1  0  0  0  0  0999 V2000
   27.1845  -19.0437  -19.5127 N   0  0  0  0  0  0  0  0  0  0  0  0
   27.1524  -17.6354  -19.7208 C   0  0  0  0  0  0  0  0  0  0  0  0
   26.7338  -17.2034  -20.8597 N   0  0  0  0  0  0  0  0  0  0  0  0
   27.5701  -16.7319  -18.7038 N   0  0  0  0  0  0  0  0  0  0  0  0
   28.0568  -17.2665  -17.4532 C   0  0  0  0  0  0  0  0  0  0  0  0
   26.9740  -17.8195  -16.5932 C   0  0  0  0  0  0  0  0  0  0  0  0
   27.4841  -18.3081  -15.2953 C   0  0  0  0  0  0  0  0  0  0  0  0
   28.4717  -19.4189  -15.3125 C   0  0  2  0  0  0  0  0  0  0  0  0
   28.4590  -20.2341  -16.4894 N   0  0  0  0  0  0  0  0  0  0  0  0
   28.1432  -20.2887  -14.1204 C   0  0  0  0  0  0  0  0  0  0  0  0
   27.2301  -21.1501  -14.2568 O   0  0  0  0  0  0  0  0  0  0  0  0
   26.6921  -16.1956  -21.0569 C   0  0  0  0  0  0  0  0  0  0  0  0
   31.8406  -21.2427  -10.0206 C   0  0  1  0  0  0  0  0  0  0  0  0
   30.8993  -21.5436  -11.2344 C   0  0  0  0  0  0  0  0  0  0  0  0
   31.0789  -22.9973  -11.4880 C   0  0  0  0  0  0  0  0  0  0  0  0
   29.5850  -21.0589  -10.8250 C   0  0  2  0  0  0  0  0  0  0  0  0
   28.4159  -21.0383  -11.7090 N   0  0  0  0  0  0  0  0  0  0  0  0
   28.8069  -20.1749  -12.8841 C   0  0  0  0  0  0  0  0  0  0  0  0
   27.2057  -20.3967  -11.1800 O   0  0  0  0  0  0  0  0  0  0  0  0
   26.8262  -19.2399  -11.5975 C   0  0  0  0  0  0  0  0  0  0  0  0
   24.1892  -22.1290  -11.7682 C   0  0  1  0  0  0  0  0  0  0  0  0
   24.2851  -20.6967  -11.3673 C   0  0  0  0  0  0  0  0  0  0  0  0
   22.9305  -20.0093  -11.4050 C   0  0  1  0  0  0  0  0  0  0  0  0
   24.9810  -20.4742  -10.0346 N   0  0  0  0  0  0  0  0  0  0  0  0
   26.3341  -20.9577  -10.1889 C   0  0  0  0  0  0  0  0  0  0  0  0
   24.2404  -21.0507   -8.9158 O   0  0  0  0  0  0  0  0  0  0  0  0
   23.3411  -20.4318   -8.0963 O   0  0  0  0  0  0  0  0  0  0  0  0
  2  3  2  0
  2  1  1  0
  4  2  1  0
  5  4  1  0
  6  5  1  0
  7  6  1  0
  8 10  1  0
  8  7  1  0
  8  9  1  6
 10 11  2  0
 13 12  1  6
 14 13  1  0
 16 15  1  6
 15 13  1  0
 17 16  1  0
 17 10  1  0
 18 16  1  0
 19 18  2  0
 21 20  1  6
 21 22  1  0
 23 21  1  0
 23 24  1  6
 24 18  1  0
 25 26  1  0
 25 23  1  0
 27 25  2  0
M  END
$$$$
