RLV.pdb
     RDKit          3D

 27 26  0  0  1  0  0  0  0  0999 V2000
   28.4745  -18.6880  -21.3070 N   0  0  0  0  0  0  0  0  0  0  0  0
   29.2328  -18.0100  -20.3106 C   0  0  0  0  0  0  0  0  0  0  0  0
   30.2511  -17.3202  -20.6931 N   0  0  0  0  0  0  0  0  0  0  0  0
   28.8789  -18.0913  -18.9347 N   0  0  0  0  0  0  0  0  0  0  0  0
   27.7082  -18.8501  -18.5597 C   0  0  0  0  0  0  0  0  0  0  0  0
   26.4357  -18.2236  -19.0135 C   0  0  0  0  0  0  0  0  0  0  0  0
   25.3728  -18.3103  -17.9907 C   0  0  0  0  0  0  0  0  0  0  0  0
   25.2647  -19.5697  -17.2084 C   0  0  2  0  0  0  0  0  0  0  0  0
   24.4943  -20.6094  -17.8213 N   0  0  0  0  0  0  0  0  0  0  0  0
   24.6102  -19.1933  -15.8987 C   0  0  0  0  0  0  0  0  0  0  0  0
   25.0849  -18.2079  -15.2677 O   0  0  0  0  0  0  0  0  0  0  0  0
   30.8295  -16.8137  -20.0109 C   0  0  0  0  0  0  0  0  0  0  0  0
   19.3118  -20.7416  -13.9397 C   0  0  2  0  0  0  0  0  0  0  0  0
   20.7969  -20.9589  -14.3841 C   0  0  0  0  0  0  0  0  0  0  0  0
   20.6912  -21.5711  -15.7347 C   0  0  0  0  0  0  0  0  0  0  0  0
   21.4276  -19.6492  -14.2538 C   0  0  1  0  0  0  0  0  0  0  0  0
   22.8690  -19.4574  -14.0685 N   0  0  0  0  0  0  0  0  0  0  0  0
   23.5092  -19.8900  -15.3654 C   0  0  0  0  0  0  0  0  0  0  0  0
   23.5163  -20.2963  -13.0521 O   0  0  0  0  0  0  0  0  0  0  0  0
   23.6365  -21.5676  -13.2131 C   0  0  0  0  0  0  0  0  0  0  0  0
   26.7164  -21.1854   -9.5513 C   0  0  2  0  0  0  0  0  0  0  0  0
   26.0580  -20.4170  -10.6456 C   0  0  0  0  0  0  0  0  0  0  0  0
   26.8238  -20.5302  -11.9530 C   0  0  1  0  0  0  0  0  0  0  0  0
   24.5875  -20.7506  -10.8354 N   0  0  0  0  0  0  0  0  0  0  0  0
   24.0768  -19.8236  -11.8195 C   0  0  0  0  0  0  0  0  0  0  0  0
   23.8548  -20.7801   -9.5725 O   0  0  0  0  0  0  0  0  0  0  0  0
   22.9608  -19.8638   -9.0988 O   0  0  0  0  0  0  0  0  0  0  0  0
  2  3  2  0
  2  1  1  0
  4  2  1  0
  5  4  1  0
  6  5  1  0
  7  6  1  0
  8 10  1  0
  8  7  1  0
  8  9  1  6
 10 11  2  0
 13 12  1  1
 14 13  1  0
 16 15  1  6
 15 13  1  0
 17 16  1  0
 17 10  1  0
 18 16  1  0
 19 18  2  0
 21 20  1  1
 21 22  1  0
 23 21  1  0
 23 24  1  1
 24 18  1  0
 25 26  1  0
 25 23  1  0
 27 25  2  0
M  END
$$$$
