RLV.pdb
     RDKit          3D

 27 26  0  0  1  0  0  0  0  0999 V2000
   22.6076  -21.6239  -14.8050 N   0  0  0  0  0  0  0  0  0  0  0  0
   22.6802  -20.2450  -15.1531 C   0  0  0  0  0  0  0  0  0  0  0  0
   21.8186  -19.7895  -15.9954 N   0  0  0  0  0  0  0  0  0  0  0  0
   23.6731  -19.3954  -14.5899 N   0  0  0  0  0  0  0  0  0  0  0  0
   24.4438  -19.8738  -13.4656 C   0  0  0  0  0  0  0  0  0  0  0  0
   25.1703  -21.1418  -13.7524 C   0  0  0  0  0  0  0  0  0  0  0  0
   25.9342  -21.6261  -12.5840 C   0  0  0  0  0  0  0  0  0  0  0  0
   26.4772  -20.6123  -11.6422 C   0  0  2  0  0  0  0  0  0  0  0  0
   27.8983  -20.4406  -11.6768 N   0  0  0  0  0  0  0  0  0  0  0  0
   26.0811  -21.0733  -10.2580 C   0  0  0  0  0  0  0  0  0  0  0  0
   25.6202  -22.2429  -10.1389 O   0  0  0  0  0  0  0  0  0  0  0  0
   21.8762  -18.8211  -16.3348 C   0  0  0  0  0  0  0  0  0  0  0  0
   28.4880  -18.7537   -5.8660 C   0  0  1  0  0  0  0  0  0  0  0  0
   28.1149  -19.9039   -6.8598 C   0  0  0  0  0  0  0  0  0  0  0  0
   28.9257  -21.0629   -6.4026 C   0  0  0  0  0  0  0  0  0  0  0  0
   26.6596  -19.9981   -6.8025 C   0  0  2  0  0  0  0  0  0  0  0  0
   25.8595  -20.7868   -7.7441 N   0  0  0  0  0  0  0  0  0  0  0  0
   26.2050  -20.2597   -9.1159 C   0  0  0  0  0  0  0  0  0  0  0  0
   24.4022  -20.6305   -7.6567 O   0  0  0  0  0  0  0  0  0  0  0  0
   23.8127  -19.5885   -8.1294 C   0  0  0  0  0  0  0  0  0  0  0  0
   21.5604  -22.0662   -9.1325 C   0  0  2  0  0  0  0  0  0  0  0  0
   21.2714  -22.1548   -7.6730 C   0  0  0  0  0  0  0  0  0  0  0  0
   21.3407  -23.5873   -7.1710 C   0  0  2  0  0  0  0  0  0  0  0  0
   22.1202  -21.2279   -6.8185 N   0  0  0  0  0  0  0  0  0  0  0  0
   23.4990  -21.5786   -7.0720 C   0  0  0  0  0  0  0  0  0  0  0  0
   21.7239  -21.2464   -5.4131 O   0  0  0  0  0  0  0  0  0  0  0  0
   20.5662  -20.7794   -4.8609 O   0  0  0  0  0  0  0  0  0  0  0  0
  2  3  2  0
  2  1  1  0
  4  2  1  0
  5  4  1  0
  6  5  1  0
  7  6  1  0
  8 10  1  0
  8  7  1  0
  8  9  1  1
 10 11  2  0
 13 12  1  6
 14 13  1  0
 16 15  1  6
 15 13  1  0
 17 16  1  0
 17 10  1  0
 18 16  1  0
 19 18  2  0
 21 20  1  6
 21 22  1  0
 23 21  1  0
 23 24  1  1
 24 18  1  0
 25 26  1  0
 25 23  1  0
 27 25  2  0
M  END
$$$$
