RLV.pdb
     RDKit          3D

 27 26  0  0  1  0  0  0  0  0999 V2000
   20.1569  -12.5412  -17.1580 N   0  0  0  0  0  0  0  0  0  0  0  0
   21.1255  -12.1285  -18.1167 C   0  0  0  0  0  0  0  0  0  0  0  0
   21.3996  -10.8724  -18.1947 N   0  0  0  0  0  0  0  0  0  0  0  0
   21.7710  -13.0725  -18.9634 N   0  0  0  0  0  0  0  0  0  0  0  0
   21.8014  -14.4606  -18.5643 C   0  0  0  0  0  0  0  0  0  0  0  0
   22.6749  -14.7103  -17.3843 C   0  0  0  0  0  0  0  0  0  0  0  0
   22.8435  -16.1519  -17.1074 C   0  0  0  0  0  0  0  0  0  0  0  0
   24.1578  -16.7696  -17.4249 C   0  0  2  0  0  0  0  0  0  0  0  0
   24.4457  -16.9185  -18.8195 N   0  0  0  0  0  0  0  0  0  0  0  0
   24.1401  -18.1404  -16.7876 C   0  0  0  0  0  0  0  0  0  0  0  0
   23.6767  -19.0977  -17.4683 O   0  0  0  0  0  0  0  0  0  0  0  0
   22.0809  -10.5244  -18.8812 C   0  0  0  0  0  0  0  0  0  0  0  0
   27.9733  -20.1524  -13.2257 C   0  0  1  0  0  0  0  0  0  0  0  0
   27.0726  -20.1062  -14.5051 C   0  0  0  0  0  0  0  0  0  0  0  0
   27.3694  -21.3806  -15.2105 C   0  0  0  0  0  0  0  0  0  0  0  0
   25.7195  -19.8764  -14.0088 C   0  0  2  0  0  0  0  0  0  0  0  0
   24.5442  -19.7652  -14.8777 N   0  0  0  0  0  0  0  0  0  0  0  0
   24.6133  -18.3846  -15.4845 C   0  0  0  0  0  0  0  0  0  0  0  0
   23.2342  -19.8004  -14.2156 O   0  0  0  0  0  0  0  0  0  0  0  0
   22.9035  -18.9152  -13.3417 C   0  0  0  0  0  0  0  0  0  0  0  0
   18.4993  -21.0936  -14.1007 C   0  0  2  0  0  0  0  0  0  0  0  0
   19.8551  -21.0074  -14.7138 C   0  0  0  0  0  0  0  0  0  0  0  0
   19.8919  -20.0128  -15.8620 C   0  0  1  0  0  0  0  0  0  0  0  0
   20.9683  -20.7396  -13.7145 N   0  0  0  0  0  0  0  0  0  0  0  0
   22.2076  -20.7722  -14.4572 C   0  0  0  0  0  0  0  0  0  0  0  0
   20.9117  -21.6362  -12.5632 O   0  0  0  0  0  0  0  0  0  0  0  0
   21.6838  -22.7343  -12.3153 O   0  0  0  0  0  0  0  0  0  0  0  0
  2  3  2  0
  2  1  1  0
  4  2  1  0
  5  4  1  0
  6  5  1  0
  7  6  1  0
  8 10  1  0
  8  7  1  0
  8  9  1  6
 10 11  2  0
 13 12  1  6
 14 13  1  0
 16 15  1  6
 15 13  1  0
 17 16  1  0
 17 10  1  0
 18 16  1  0
 19 18  2  0
 21 20  1  6
 21 22  1  0
 23 21  1  0
 23 24  1  6
 24 18  1  0
 25 26  1  0
 25 23  1  0
 27 25  2  0
M  END
$$$$
