RLV.pdb
     RDKit          3D

 27 26  0  0  1  0  0  0  0  0999 V2000
   21.4921  -19.6694  -16.0092 N   0  0  0  0  0  0  0  0  0  0  0  0
   22.2080  -20.8810  -15.7925 C   0  0  0  0  0  0  0  0  0  0  0  0
   22.3006  -21.7105  -16.7735 N   0  0  0  0  0  0  0  0  0  0  0  0
   22.8027  -21.1687  -14.5320 N   0  0  0  0  0  0  0  0  0  0  0  0
   22.5513  -20.2778  -13.4230 C   0  0  0  0  0  0  0  0  0  0  0  0
   23.7492  -19.4874  -13.0254 C   0  0  0  0  0  0  0  0  0  0  0  0
   24.2469  -19.8607  -11.6852 C   0  0  0  0  0  0  0  0  0  0  0  0
   25.6712  -20.2682  -11.5634 C   0  0  2  0  0  0  0  0  0  0  0  0
   26.1433  -21.1621  -12.5774 N   0  0  0  0  0  0  0  0  0  0  0  0
   25.7968  -20.9526  -10.2212 C   0  0  0  0  0  0  0  0  0  0  0  0
   25.8085  -22.2152  -10.2056 O   0  0  0  0  0  0  0  0  0  0  0  0
   22.8281  -22.5870  -16.6732 C   0  0  0  0  0  0  0  0  0  0  0  0
   27.1207  -18.4831   -5.9509 C   0  0  1  0  0  0  0  0  0  0  0  0
   27.7788  -19.2952   -7.1160 C   0  0  0  0  0  0  0  0  0  0  0  0
   29.2401  -19.1613   -6.8786 C   0  0  0  0  0  0  0  0  0  0  0  0
   27.1738  -20.6214   -7.0434 C   0  0  1  0  0  0  0  0  0  0  0  0
   25.9019  -20.9695   -7.6836 N   0  0  0  0  0  0  0  0  0  0  0  0
   25.8992  -20.2455   -9.0083 C   0  0  0  0  0  0  0  0  0  0  0  0
   24.6818  -20.4991   -7.0157 O   0  0  0  0  0  0  0  0  0  0  0  0
   23.9317  -19.6004   -7.5507 C   0  0  0  0  0  0  0  0  0  0  0  0
   22.3926  -21.4334   -7.9214 C   0  0  2  0  0  0  0  0  0  0  0  0
   22.1348  -21.8751   -6.5214 C   0  0  0  0  0  0  0  0  0  0  0  0
   22.5013  -23.3352   -6.3149 C   0  0  2  0  0  0  0  0  0  0  0  0
   22.7772  -20.9893   -5.4667 N   0  0  0  0  0  0  0  0  0  0  0  0
   24.1939  -20.9682   -5.7513 C   0  0  0  0  0  0  0  0  0  0  0  0
   22.4236  -21.3932   -4.1086 O   0  0  0  0  0  0  0  0  0  0  0  0
   23.2073  -22.0325   -3.1918 O   0  0  0  0  0  0  0  0  0  0  0  0
  2  3  2  0
  2  1  1  0
  4  2  1  0
  5  4  1  0
  6  5  1  0
  7  6  1  0
  8 10  1  0
  8  7  1  0
  8  9  1  6
 10 11  2  0
 13 12  1  6
 14 13  1  0
 16 15  1  6
 15 13  1  0
 17 16  1  0
 17 10  1  0
 18 16  1  0
 19 18  2  0
 21 20  1  6
 21 22  1  0
 23 21  1  0
 23 24  1  1
 24 18  1  0
 25 26  1  0
 25 23  1  0
 27 25  2  0
M  END
$$$$
