RLV.pdb
     RDKit          3D

 27 26  0  0  1  0  0  0  0  0999 V2000
   29.7222  -21.8594  -19.3247 N   0  0  0  0  0  0  0  0  0  0  0  0
   29.1318  -22.9581  -18.6378 C   0  0  0  0  0  0  0  0  0  0  0  0
   29.2576  -24.1309  -19.1553 N   0  0  0  0  0  0  0  0  0  0  0  0
   28.4240  -22.7684  -17.4179 N   0  0  0  0  0  0  0  0  0  0  0  0
   28.3865  -21.4487  -16.8316 C   0  0  0  0  0  0  0  0  0  0  0  0
   29.1956  -21.3394  -15.5861 C   0  0  0  0  0  0  0  0  0  0  0  0
   28.3749  -21.5057  -14.3687 C   0  0  0  0  0  0  0  0  0  0  0  0
   27.2932  -20.5165  -14.1216 C   0  0  2  0  0  0  0  0  0  0  0  0
   27.7331  -19.2011  -13.7664 N   0  0  0  0  0  0  0  0  0  0  0  0
   26.4701  -21.0732  -12.9823 C   0  0  0  0  0  0  0  0  0  0  0  0
   26.0525  -22.2604  -13.0859 O   0  0  0  0  0  0  0  0  0  0  0  0
   29.7290  -24.2589  -20.0597 C   0  0  0  0  0  0  0  0  0  0  0  0
   26.7685  -19.2467   -7.7863 C   0  0  1  0  0  0  0  0  0  0  0  0
   26.8410  -20.1667   -9.0505 C   0  0  0  0  0  0  0  0  0  0  0  0
   27.4707  -21.4201   -8.5581 C   0  0  0  0  0  0  0  0  0  0  0  0
   25.4745  -20.2201   -9.5601 C   0  0  2  0  0  0  0  0  0  0  0  0
   25.1124  -20.8109  -10.8518 N   0  0  0  0  0  0  0  0  0  0  0  0
   26.1569  -20.3287  -11.8293 C   0  0  0  0  0  0  0  0  0  0  0  0
   23.8410  -20.3710  -11.4402 O   0  0  0  0  0  0  0  0  0  0  0  0
   23.8045  -19.4540  -12.3426 C   0  0  0  0  0  0  0  0  0  0  0  0
   22.9745  -20.8960  -13.9148 C   0  0  2  0  0  0  0  0  0  0  0  0
   21.6921  -21.3179  -13.2832 C   0  0  0  0  0  0  0  0  0  0  0  0
   21.5940  -22.8295  -13.1630 C   0  0  2  0  0  0  0  0  0  0  0  0
   21.4056  -20.6379  -11.9546 N   0  0  0  0  0  0  0  0  0  0  0  0
   22.5472  -20.8914  -11.1055 C   0  0  0  0  0  0  0  0  0  0  0  0
   20.1160  -21.0315  -11.3935 O   0  0  0  0  0  0  0  0  0  0  0  0
   19.8703  -21.9617  -10.4252 O   0  0  0  0  0  0  0  0  0  0  0  0
  2  3  2  0
  2  1  1  0
  4  2  1  0
  5  4  1  0
  6  5  1  0
  7  6  1  0
  8 10  1  0
  8  7  1  0
  8  9  1  1
 10 11  2  0
 13 12  1  6
 14 13  1  0
 16 15  1  1
 15 13  1  0
 17 16  1  0
 17 10  1  0
 18 16  1  0
 19 18  2  0
 21 20  1  6
 21 22  1  0
 23 21  1  0
 23 24  1  6
 24 18  1  0
 25 26  1  0
 25 23  1  0
 27 25  2  0
M  END
$$$$
