MHS.pdb
     RDKit          3D

 25 25  0  0  1  0  0  0  0  0999 V2000
   20.2864  -12.1036  -20.0714 C   0  0  0  0  0  0  0  0  0  0  0  0
   20.1639  -10.5747  -19.1420 S   0  0  0  0  0  0  0  0  0  0  0  0
   19.6011  -10.9234  -17.4345 C   0  0  0  0  0  0  0  0  0  0  0  0
   19.5360   -9.5914  -16.7115 C   0  0  0  0  0  0  0  0  0  0  0  0
   19.1336   -9.7629  -15.2646 C   0  0  2  0  0  0  0  0  0  0  0  0
   17.9207  -10.5108  -15.1696 N   0  0  0  0  0  0  0  0  0  0  0  0
   19.0153   -8.4247  -14.6000 C   0  0  0  0  0  0  0  0  0  0  0  0
   17.9566   -7.7802  -14.5983 O   0  0  0  0  0  0  0  0  0  0  0  0
   20.1586   -7.9039  -13.9635 N   0  0  0  0  0  0  0  0  0  0  0  0
   20.2655   -6.6466  -13.3126 C   0  0  1  0  0  0  0  0  0  0  0  0
   20.3701   -6.6526  -11.8063 C   0  0  0  0  0  0  0  0  0  0  0  0
   19.1572   -7.2043  -11.1335 C   0  0  0  0  0  0  0  0  0  0  0  0
   19.0007   -8.5079  -10.6672 C   0  0  0  0  0  0  0  0  0  0  0  0
   17.7870   -8.6374  -10.1222 N   0  0  0  0  0  0  0  0  0  0  0  0
   17.1598   -7.4579  -10.2241 C   0  0  0  0  0  0  0  0  0  0  0  0
   18.0000   -6.6100  -10.8347 N   0  0  0  0  0  0  0  0  0  0  0  0
   21.1135   -5.6581  -13.9903 C   0  0  0  0  0  0  0  0  0  0  0  0
   22.3834   -5.8108  -14.0925 O   0  0  0  0  0  0  0  0  0  0  0  0
   19.5342   -2.3447  -15.8401 O   0  0  0  0  0  0  0  0  0  0  0  0
   20.6794   -2.8576  -16.4513 C   0  0  0  0  0  0  0  0  0  0  0  0
   21.4573   -3.5923  -15.3969 C   0  0  2  0  0  0  0  0  0  0  0  0
   20.6352   -4.4640  -14.5877 N   0  0  0  0  0  0  0  0  0  0  0  0
   22.1917   -2.6270  -14.5624 C   0  0  0  0  0  0  0  0  0  0  0  0
   23.1310   -1.7392  -15.0582 O   0  0  0  0  0  0  0  0  0  0  0  0
   21.9622   -2.5964  -13.3258 O   0  0  0  0  0  0  0  0  0  0  0  0
  2  1  1  0
  3  2  1  0
  4  3  1  0
  4  5  1  0
  5  6  1  6
  5  7  1  0
  7  9  1  0
  8  7  2  0
  9 10  1  0
 10 11  1  1
 11 12  1  0
 12 16  1  0
 13 12  2  0
 13 14  1  0
 14 15  1  0
 16 15  2  0
 17 10  1  0
 17 22  1  0
 18 17  2  0
 19 20  1  0
 21 20  1  6
 21 23  1  0
 21 22  1  0
 23 24  1  0
 25 23  2  0
M  END
$$$$
