MHS.pdb
     RDKit          3D

 25 25  0  0  1  0  0  0  0  0999 V2000
   28.4094  -15.1027  -15.1684 C   0  0  0  0  0  0  0  0  0  0  0  0
   27.3803  -13.6340  -15.1956 S   0  0  0  0  0  0  0  0  0  0  0  0
   27.9042  -12.5277  -16.5578 C   0  0  0  0  0  0  0  0  0  0  0  0
   27.1320  -11.2322  -16.3947 C   0  0  0  0  0  0  0  0  0  0  0  0
   27.3794  -10.2881  -17.5489 C   0  0  2  0  0  0  0  0  0  0  0  0
   28.7563   -9.9125  -17.5995 N   0  0  0  0  0  0  0  0  0  0  0  0
   26.4807   -9.0935  -17.4399 C   0  0  0  0  0  0  0  0  0  0  0  0
   26.7868   -8.0966  -16.7700 O   0  0  0  0  0  0  0  0  0  0  0  0
   25.2538   -9.1293  -18.1304 N   0  0  0  0  0  0  0  0  0  0  0  0
   24.2379   -8.1377  -18.1020 C   0  0  1  0  0  0  0  0  0  0  0  0
   23.9698   -7.3832  -19.3821 C   0  0  0  0  0  0  0  0  0  0  0  0
   25.1825   -6.7111  -19.9350 C   0  0  0  0  0  0  0  0  0  0  0  0
   25.6961   -5.4823  -19.5260 C   0  0  0  0  0  0  0  0  0  0  0  0
   26.7888   -5.2016  -20.2429 N   0  0  0  0  0  0  0  0  0  0  0  0
   26.9925   -6.2116  -21.0992 C   0  0  0  0  0  0  0  0  0  0  0  0
   26.0164   -7.1086  -20.8984 N   0  0  0  0  0  0  0  0  0  0  0  0
   23.0426   -8.4848  -17.3234 C   0  0  0  0  0  0  0  0  0  0  0  0
   22.2902   -9.4744  -17.6413 O   0  0  0  0  0  0  0  0  0  0  0  0
   20.6749   -8.7644  -13.2406 O   0  0  0  0  0  0  0  0  0  0  0  0
   21.8154   -8.2981  -13.8962 C   0  0  0  0  0  0  0  0  0  0  0  0
   21.4843   -8.2084  -15.3588 C   0  0  2  0  0  0  0  0  0  0  0  0
   22.6037   -7.7853  -16.1702 N   0  0  0  0  0  0  0  0  0  0  0  0
   20.3238   -7.3225  -15.5490 C   0  0  0  0  0  0  0  0  0  0  0  0
   19.0149   -7.7698  -15.6033 O   0  0  0  0  0  0  0  0  0  0  0  0
   20.5186   -6.0856  -15.6705 O   0  0  0  0  0  0  0  0  0  0  0  0
  2  1  1  0
  3  2  1  0
  4  3  1  0
  4  5  1  0
  5  6  1  1
  5  7  1  0
  7  9  1  0
  8  7  2  0
  9 10  1  0
 10 11  1  6
 11 12  1  0
 12 16  1  0
 13 12  2  0
 13 14  1  0
 14 15  1  0
 16 15  2  0
 17 10  1  0
 17 22  1  0
 18 17  2  0
 19 20  1  0
 21 20  1  1
 21 23  1  0
 21 22  1  0
 23 24  1  0
 25 23  2  0
M  END
$$$$
