MHS.pdb
     RDKit          3D

 25 25  0  0  1  0  0  0  0  0999 V2000
   15.5808  -13.4376  -13.8808 C   0  0  0  0  0  0  0  0  0  0  0  0
   14.9449  -11.7913  -14.2004 S   0  0  0  0  0  0  0  0  0  0  0  0
   14.6721  -10.9078  -12.6196 C   0  0  0  0  0  0  0  0  0  0  0  0
   15.5250   -9.6540  -12.6630 C   0  0  0  0  0  0  0  0  0  0  0  0
   16.7171   -9.7599  -11.7397 C   0  0  2  0  0  0  0  0  0  0  0  0
   16.2876   -9.8985  -10.3848 N   0  0  0  0  0  0  0  0  0  0  0  0
   17.6158   -8.5741  -11.9197 C   0  0  0  0  0  0  0  0  0  0  0  0
   17.4635   -7.5267  -11.2746 O   0  0  0  0  0  0  0  0  0  0  0  0
   18.6604   -8.6780  -12.8586 N   0  0  0  0  0  0  0  0  0  0  0  0
   19.4963   -7.6245  -13.3141 C   0  0  1  0  0  0  0  0  0  0  0  0
   20.9087   -7.9823  -13.7105 C   0  0  0  0  0  0  0  0  0  0  0  0
   21.7056   -6.8088  -14.1750 C   0  0  0  0  0  0  0  0  0  0  0  0
   22.1805   -6.6012  -15.4682 C   0  0  0  0  0  0  0  0  0  0  0  0
   22.8494   -5.4447  -15.5109 N   0  0  0  0  0  0  0  0  0  0  0  0
   22.8186   -4.9035  -14.2857 C   0  0  0  0  0  0  0  0  0  0  0  0
   22.1266   -5.7386  -13.4974 N   0  0  0  0  0  0  0  0  0  0  0  0
   18.8424   -6.6307  -14.1746 C   0  0  0  0  0  0  0  0  0  0  0  0
   18.2867   -6.9559  -15.2846 O   0  0  0  0  0  0  0  0  0  0  0  0
   16.8403   -3.6410  -12.9563 O   0  0  0  0  0  0  0  0  0  0  0  0
   16.7936   -3.8337  -14.3379 C   0  0  0  0  0  0  0  0  0  0  0  0
   18.1613   -4.2767  -14.7735 C   0  0  2  0  0  0  0  0  0  0  0  0
   18.7562   -5.2459  -13.8807 N   0  0  0  0  0  0  0  0  0  0  0  0
   19.0317   -3.1009  -14.9394 C   0  0  0  0  0  0  0  0  0  0  0  0
   18.8741   -2.1625  -15.9449 O   0  0  0  0  0  0  0  0  0  0  0  0
   19.9769   -2.9267  -14.1278 O   0  0  0  0  0  0  0  0  0  0  0  0
  2  1  1  0
  3  2  1  0
  4  3  1  0
  4  5  1  0
  5  6  1  1
  5  7  1  0
  7  9  1  0
  8  7  2  0
  9 10  1  0
 10 11  1  6
 11 12  1  0
 12 16  1  0
 13 12  2  0
 13 14  1  0
 14 15  1  0
 16 15  2  0
 17 10  1  0
 17 22  1  0
 18 17  2  0
 19 20  1  0
 21 20  1  1
 21 23  1  0
 21 22  1  0
 23 24  1  0
 25 23  2  0
M  END
$$$$
