MHS.pdb
     RDKit          3D

 25 25  0  0  1  0  0  0  0  0999 V2000
   15.2210   -4.7902  -22.5880 C   0  0  0  0  0  0  0  0  0  0  0  0
   15.6652   -4.9687  -20.8595 S   0  0  0  0  0  0  0  0  0  0  0  0
   16.1284   -6.7054  -20.5084 C   0  0  0  0  0  0  0  0  0  0  0  0
   16.4886   -6.7761  -19.0364 C   0  0  0  0  0  0  0  0  0  0  0  0
   16.9229   -8.1675  -18.6362 C   0  0  2  0  0  0  0  0  0  0  0  0
   15.8243   -9.0761  -18.7201 N   0  0  0  0  0  0  0  0  0  0  0  0
   17.5229   -8.1455  -17.2629 C   0  0  0  0  0  0  0  0  0  0  0  0
   16.8418   -8.3218  -16.2424 O   0  0  0  0  0  0  0  0  0  0  0  0
   18.9080   -7.9151  -17.1548 N   0  0  0  0  0  0  0  0  0  0  0  0
   19.6559   -7.8049  -15.9529 C   0  0  1  0  0  0  0  0  0  0  0  0
   20.2926   -9.0639  -15.4149 C   0  0  0  0  0  0  0  0  0  0  0  0
   19.3258  -10.1892  -15.2502 C   0  0  0  0  0  0  0  0  0  0  0  0
   19.1529  -11.2559  -16.1295 C   0  0  0  0  0  0  0  0  0  0  0  0
   18.2027  -12.0676  -15.6551 N   0  0  0  0  0  0  0  0  0  0  0  0
   17.7604  -11.5552  -14.4990 C   0  0  0  0  0  0  0  0  0  0  0  0
   18.4478  -10.4265  -14.2732 N   0  0  0  0  0  0  0  0  0  0  0  0
   20.4763   -6.5933  -15.8321 C   0  0  0  0  0  0  0  0  0  0  0  0
   21.4849   -6.3786  -16.5957 O   0  0  0  0  0  0  0  0  0  0  0  0
   20.9949   -2.0318  -14.3780 O   0  0  0  0  0  0  0  0  0  0  0  0
   20.1836   -3.1661  -14.3220 C   0  0  0  0  0  0  0  0  0  0  0  0
   20.9790   -4.3120  -14.8796 C   0  0  2  0  0  0  0  0  0  0  0  0
   20.2493   -5.5602  -14.8872 N   0  0  0  0  0  0  0  0  0  0  0  0
   22.2456   -4.4402  -14.1401 C   0  0  0  0  0  0  0  0  0  0  0  0
   23.4304   -3.8420  -14.5335 O   0  0  0  0  0  0  0  0  0  0  0  0
   22.2666   -5.1301  -13.0883 O   0  0  0  0  0  0  0  0  0  0  0  0
  2  1  1  0
  3  2  1  0
  4  3  1  0
  4  5  1  0
  5  6  1  1
  5  7  1  0
  7  9  1  0
  8  7  2  0
  9 10  1  0
 10 11  1  6
 11 12  1  0
 12 16  1  0
 13 12  2  0
 13 14  1  0
 14 15  1  0
 16 15  2  0
 17 10  1  0
 17 22  1  0
 18 17  2  0
 19 20  1  0
 21 20  1  1
 21 23  1  0
 21 22  1  0
 23 24  1  0
 25 23  2  0
M  END
$$$$
