MHS.pdb
     RDKit          3D

 25 25  0  0  1  0  0  0  0  0999 V2000
   37.3089  -39.4366   -7.2126 C   0  0  0  0  0  0  0  0  0  0  0  0
   36.6380  -38.3399   -5.9621 S   0  0  0  0  0  0  0  0  0  0  0  0
   35.1103  -37.5432   -6.5826 C   0  0  0  0  0  0  0  0  0  0  0  0
   34.5688  -36.6886   -5.4521 C   0  0  0  0  0  0  0  0  0  0  0  0
   33.2325  -36.0781   -5.8072 C   0  0  2  0  0  0  0  0  0  0  0  0
   33.4116  -34.9510   -6.6659 N   0  0  0  0  0  0  0  0  0  0  0  0
   32.4841  -35.7141   -4.5607 C   0  0  0  0  0  0  0  0  0  0  0  0
   32.7801  -34.7219   -3.8794 O   0  0  0  0  0  0  0  0  0  0  0  0
   31.4136  -36.5424   -4.1717 N   0  0  0  0  0  0  0  0  0  0  0  0
   30.5572  -36.3498   -3.0556 C   0  0  1  0  0  0  0  0  0  0  0  0
   29.1020  -36.7143   -3.2275 C   0  0  0  0  0  0  0  0  0  0  0  0
   28.3711  -35.8006   -4.1543 C   0  0  0  0  0  0  0  0  0  0  0  0
   28.8982  -34.6698   -4.7745 C   0  0  0  0  0  0  0  0  0  0  0  0
   27.9541  -34.1032   -5.5322 N   0  0  0  0  0  0  0  0  0  0  0  0
   26.8376  -34.8348   -5.4178 C   0  0  0  0  0  0  0  0  0  0  0  0
   27.1089  -35.8503   -4.5855 N   0  0  0  0  0  0  0  0  0  0  0  0
   31.1355  -36.6991   -1.7521 C   0  0  0  0  0  0  0  0  0  0  0  0
   31.8512  -37.7514   -1.5880 O   0  0  0  0  0  0  0  0  0  0  0  0
   30.3116  -34.4581    1.4772 O   0  0  0  0  0  0  0  0  0  0  0  0
   31.4050  -35.2774    1.7623 C   0  0  0  0  0  0  0  0  0  0  0  0
   31.4242  -36.3709    0.7325 C   0  0  2  0  0  0  0  0  0  0  0  0
   30.9709  -35.9341   -0.5691 N   0  0  0  0  0  0  0  0  0  0  0  0
   30.6354  -37.5169    1.2142 C   0  0  0  0  0  0  0  0  0  0  0  0
   30.9288  -38.2222    2.3686 O   0  0  0  0  0  0  0  0  0  0  0  0
   29.6345  -37.8871    0.5480 O   0  0  0  0  0  0  0  0  0  0  0  0
  2  1  1  0
  3  2  1  0
  4  3  1  0
  4  5  1  0
  5  6  1  6
  5  7  1  0
  7  9  1  0
  8  7  2  0
  9 10  1  0
 10 11  1  6
 11 12  1  0
 12 16  1  0
 13 12  2  0
 13 14  1  0
 14 15  1  0
 16 15  2  0
 17 10  1  0
 17 22  1  0
 18 17  2  0
 19 20  1  0
 21 20  1  1
 21 23  1  0
 21 22  1  0
 23 24  1  0
 25 23  2  0
M  END
$$$$
