MHS.pdb
     RDKit          3D

 25 25  0  0  1  0  0  0  0  0999 V2000
   26.7828  -33.3933   -6.3298 C   0  0  0  0  0  0  0  0  0  0  0  0
   27.7484  -34.7112   -7.0697 S   0  0  0  0  0  0  0  0  0  0  0  0
   29.2946  -34.9629   -6.1210 C   0  0  0  0  0  0  0  0  0  0  0  0
   29.0259  -34.4857   -4.7063 C   0  0  0  0  0  0  0  0  0  0  0  0
   30.2753  -34.5322   -3.8568 C   0  0  2  0  0  0  0  0  0  0  0  0
   30.8262  -35.8498   -3.8522 N   0  0  0  0  0  0  0  0  0  0  0  0
   29.9742  -34.0504   -2.4699 C   0  0  0  0  0  0  0  0  0  0  0  0
   29.4663  -32.9409   -2.2526 O   0  0  0  0  0  0  0  0  0  0  0  0
   30.2879  -34.9048   -1.3951 N   0  0  0  0  0  0  0  0  0  0  0  0
   29.9115  -34.7293   -0.0374 C   0  0  1  0  0  0  0  0  0  0  0  0
   28.5073  -34.2462    0.2358 C   0  0  0  0  0  0  0  0  0  0  0  0
   28.2442  -33.9867    1.6820 C   0  0  0  0  0  0  0  0  0  0  0  0
   29.1512  -34.1652    2.7244 C   0  0  0  0  0  0  0  0  0  0  0  0
   28.5659  -33.8311    3.8788 N   0  0  0  0  0  0  0  0  0  0  0  0
   27.3119  -33.4439    3.6100 C   0  0  0  0  0  0  0  0  0  0  0  0
   27.1381  -33.5446    2.2843 N   0  0  0  0  0  0  0  0  0  0  0  0
   30.4073  -35.7541    0.8897 C   0  0  0  0  0  0  0  0  0  0  0  0
   29.9194  -36.9407    0.9126 O   0  0  0  0  0  0  0  0  0  0  0  0
   34.0782  -36.2290    1.9259 O   0  0  0  0  0  0  0  0  0  0  0  0
   33.3632  -36.4179    3.1096 C   0  0  0  0  0  0  0  0  0  0  0  0
   31.9164  -36.5748    2.7372 C   0  0  2  0  0  0  0  0  0  0  0  0
   31.4480  -35.5498    1.8315 N   0  0  0  0  0  0  0  0  0  0  0  0
   31.0947  -36.6228    3.9580 C   0  0  0  0  0  0  0  0  0  0  0  0
   31.2777  -37.5460    4.9731 O   0  0  0  0  0  0  0  0  0  0  0  0
   30.1694  -35.7823    4.0995 O   0  0  0  0  0  0  0  0  0  0  0  0
  2  1  1  0
  3  2  1  0
  4  3  1  0
  4  5  1  0
  5  6  1  1
  5  7  1  0
  7  9  1  0
  8  7  2  0
  9 10  1  0
 10 11  1  6
 11 12  1  0
 12 16  1  0
 13 12  2  0
 13 14  1  0
 14 15  1  0
 16 15  2  0
 17 10  1  0
 17 22  1  0
 18 17  2  0
 19 20  1  0
 21 20  1  1
 21 23  1  0
 21 22  1  0
 23 24  1  0
 25 23  2  0
M  END
$$$$
