MHS.pdb
     RDKit          3D

 25 25  0  0  1  0  0  0  0  0999 V2000
   35.1909  -34.5014  -22.8938 C   0  0  0  0  0  0  0  0  0  0  0  0
   35.4602  -32.7406  -23.1027 S   0  0  0  0  0  0  0  0  0  0  0  0
   34.1783  -31.7992  -22.1947 C   0  0  0  0  0  0  0  0  0  0  0  0
   34.3051  -32.1808  -20.7319 C   0  0  0  0  0  0  0  0  0  0  0  0
   33.0897  -31.7574  -19.9392 C   0  0  2  0  0  0  0  0  0  0  0  0
   32.9603  -30.3351  -19.9467 N   0  0  0  0  0  0  0  0  0  0  0  0
   33.1682  -32.3014  -18.5449 C   0  0  0  0  0  0  0  0  0  0  0  0
   33.6722  -31.6580  -17.6130 O   0  0  0  0  0  0  0  0  0  0  0  0
   32.6451  -33.5880  -18.3112 N   0  0  0  0  0  0  0  0  0  0  0  0
   32.5881  -34.2643  -17.0641 C   0  0  1  0  0  0  0  0  0  0  0  0
   31.2206  -34.6092  -16.5246 C   0  0  0  0  0  0  0  0  0  0  0  0
   30.3060  -33.4324  -16.4411 C   0  0  0  0  0  0  0  0  0  0  0  0
   30.6523  -32.1065  -16.6922 C   0  0  0  0  0  0  0  0  0  0  0  0
   29.5772  -31.3310  -16.5206 N   0  0  0  0  0  0  0  0  0  0  0  0
   28.5519  -32.1176  -16.1673 C   0  0  0  0  0  0  0  0  0  0  0  0
   29.0104  -33.3768  -16.1252 N   0  0  0  0  0  0  0  0  0  0  0  0
   33.6143  -35.2943  -16.8602 C   0  0  0  0  0  0  0  0  0  0  0  0
   34.1824  -35.8895  -17.8448 O   0  0  0  0  0  0  0  0  0  0  0  0
   36.2138  -35.7049  -13.5974 O   0  0  0  0  0  0  0  0  0  0  0  0
   35.5469  -36.8691  -13.9820 C   0  0  0  0  0  0  0  0  0  0  0  0
   35.1364  -36.6954  -15.4166 C   0  0  2  0  0  0  0  0  0  0  0  0
   34.0752  -35.7292  -15.5913 N   0  0  0  0  0  0  0  0  0  0  0  0
   34.7664  -38.0017  -15.9861 C   0  0  0  0  0  0  0  0  0  0  0  0
   35.6864  -38.9592  -16.3771 O   0  0  0  0  0  0  0  0  0  0  0  0
   33.5474  -38.2766  -16.1311 O   0  0  0  0  0  0  0  0  0  0  0  0
  2  1  1  0
  3  2  1  0
  4  3  1  0
  4  5  1  0
  5  6  1  1
  5  7  1  0
  7  9  1  0
  8  7  2  0
  9 10  1  0
 10 11  1  6
 11 12  1  0
 12 16  1  0
 13 12  2  0
 13 14  1  0
 14 15  1  0
 16 15  2  0
 17 10  1  0
 17 22  1  0
 18 17  2  0
 19 20  1  0
 21 20  1  1
 21 23  1  0
 21 22  1  0
 23 24  1  0
 25 23  2  0
M  END
$$$$
