MHS.pdb
     RDKit          3D

 25 25  0  0  1  0  0  0  0  0999 V2000
   23.8114  -24.7504  -13.8633 C   0  0  0  0  0  0  0  0  0  0  0  0
   25.0694  -25.5688  -14.8452 S   0  0  0  0  0  0  0  0  0  0  0  0
   24.3655  -26.0952  -16.4518 C   0  0  0  0  0  0  0  0  0  0  0  0
   25.4682  -26.8213  -17.1990 C   0  0  0  0  0  0  0  0  0  0  0  0
   26.7147  -25.9739  -17.3124 C   0  0  2  0  0  0  0  0  0  0  0  0
   26.4044  -24.7057  -17.8912 N   0  0  0  0  0  0  0  0  0  0  0  0
   27.7636  -26.7018  -18.0973 C   0  0  0  0  0  0  0  0  0  0  0  0
   27.8864  -26.5620  -19.3227 O   0  0  0  0  0  0  0  0  0  0  0  0
   28.6259  -27.5674  -17.3967 N   0  0  0  0  0  0  0  0  0  0  0  0
   29.7046  -28.3114  -17.9432 C   0  0  1  0  0  0  0  0  0  0  0  0
   31.1024  -27.8926  -17.5550 C   0  0  0  0  0  0  0  0  0  0  0  0
   31.3445  -26.4284  -17.7147 C   0  0  0  0  0  0  0  0  0  0  0  0
   31.5552  -25.5156  -16.6833 C   0  0  0  0  0  0  0  0  0  0  0  0
   31.7378  -24.2981  -17.2038 N   0  0  0  0  0  0  0  0  0  0  0  0
   31.6510  -24.4007  -18.5368 C   0  0  0  0  0  0  0  0  0  0  0  0
   31.4143  -25.6889  -18.8237 N   0  0  0  0  0  0  0  0  0  0  0  0
   29.4905  -29.7617  -18.0240 C   0  0  0  0  0  0  0  0  0  0  0  0
   29.3708  -30.4889  -16.9736 O   0  0  0  0  0  0  0  0  0  0  0  0
   27.2241  -31.5748  -20.6591 O   0  0  0  0  0  0  0  0  0  0  0  0
   28.4067  -32.3106  -20.5680 C   0  0  0  0  0  0  0  0  0  0  0  0
   29.0878  -31.9051  -19.2920 C   0  0  2  0  0  0  0  0  0  0  0  0
   29.3952  -30.4935  -19.2352 N   0  0  0  0  0  0  0  0  0  0  0  0
   30.2971  -32.7218  -19.0965 C   0  0  0  0  0  0  0  0  0  0  0  0
   30.2787  -34.0241  -18.6275 O   0  0  0  0  0  0  0  0  0  0  0  0
   31.4183  -32.2197  -19.3675 O   0  0  0  0  0  0  0  0  0  0  0  0
  2  1  1  0
  3  2  1  0
  4  3  1  0
  4  5  1  0
  5  6  1  6
  5  7  1  0
  7  9  1  0
  8  7  2  0
  9 10  1  0
 10 11  1  1
 11 12  1  0
 12 16  1  0
 13 12  2  0
 13 14  1  0
 14 15  1  0
 16 15  2  0
 17 10  1  0
 17 22  1  0
 18 17  2  0
 19 20  1  0
 21 20  1  6
 21 23  1  0
 21 22  1  0
 23 24  1  0
 25 23  2  0
M  END
$$$$
