MHS.pdb
     RDKit          3D

 25 25  0  0  1  0  0  0  0  0999 V2000
   27.6765  -19.3392   -4.1093 C   0  0  0  0  0  0  0  0  0  0  0  0
   27.9700  -18.7880   -5.7906 S   0  0  0  0  0  0  0  0  0  0  0  0
   28.4264  -20.2134   -6.8460 C   0  0  0  0  0  0  0  0  0  0  0  0
   27.9034  -19.9156   -8.2386 C   0  0  0  0  0  0  0  0  0  0  0  0
   26.4194  -20.1825   -8.3443 C   0  0  2  0  0  0  0  0  0  0  0  0
   26.1291  -21.5341   -7.9858 N   0  0  0  0  0  0  0  0  0  0  0  0
   25.9337  -19.8565   -9.7242 C   0  0  0  0  0  0  0  0  0  0  0  0
   25.9914  -18.7094  -10.1902 O   0  0  0  0  0  0  0  0  0  0  0  0
   25.3986  -20.9052  -10.4971 N   0  0  0  0  0  0  0  0  0  0  0  0
   24.8743  -20.8041  -11.8127 C   0  0  1  0  0  0  0  0  0  0  0  0
   25.4668  -21.7089  -12.8664 C   0  0  0  0  0  0  0  0  0  0  0  0
   26.6772  -21.1339  -13.5240 C   0  0  0  0  0  0  0  0  0  0  0  0
   27.2338  -19.8831  -13.2653 C   0  0  0  0  0  0  0  0  0  0  0  0
   28.3094  -19.7114  -14.0401 N   0  0  0  0  0  0  0  0  0  0  0  0
   28.4605  -20.8127  -14.7879 C   0  0  0  0  0  0  0  0  0  0  0  0
   27.4697  -21.6555  -14.4629 N   0  0  0  0  0  0  0  0  0  0  0  0
   23.4200  -20.6210  -11.8974 C   0  0  0  0  0  0  0  0  0  0  0  0
   22.6117  -21.2459  -11.1211 O   0  0  0  0  0  0  0  0  0  0  0  0
   19.5656  -18.1433  -13.4296 O   0  0  0  0  0  0  0  0  0  0  0  0
   20.9488  -18.2800  -13.5576 C   0  0  0  0  0  0  0  0  0  0  0  0
   21.3431  -19.5324  -12.8277 C   0  0  2  0  0  0  0  0  0  0  0  0
   22.7710  -19.7592  -12.8182 N   0  0  0  0  0  0  0  0  0  0  0  0
   20.6247  -20.6837  -13.3988 C   0  0  0  0  0  0  0  0  0  0  0  0
   19.4728  -21.2210  -12.8505 O   0  0  0  0  0  0  0  0  0  0  0  0
   21.0726  -21.2197  -14.4451 O   0  0  0  0  0  0  0  0  0  0  0  0
  2  1  1  0
  3  2  1  0
  4  3  1  0
  4  5  1  0
  5  6  1  6
  5  7  1  0
  7  9  1  0
  8  7  2  0
  9 10  1  0
 10 11  1  6
 11 12  1  0
 12 16  1  0
 13 12  2  0
 13 14  1  0
 14 15  1  0
 16 15  2  0
 17 10  1  0
 17 22  1  0
 18 17  2  0
 19 20  1  0
 21 20  1  6
 21 23  1  0
 21 22  1  0
 23 24  1  0
 25 23  2  0
M  END
$$$$
