MHS.pdb
     RDKit          3D

 25 25  0  0  1  0  0  0  0  0999 V2000
   14.3170  -12.0787  -18.9734 C   0  0  0  0  0  0  0  0  0  0  0  0
   15.4174  -11.6061  -17.6384 S   0  0  0  0  0  0  0  0  0  0  0  0
   17.1567  -11.9146  -18.1218 C   0  0  0  0  0  0  0  0  0  0  0  0
   18.0280  -11.3506  -17.0155 C   0  0  0  0  0  0  0  0  0  0  0  0
   19.4980  -11.5212  -17.3234 C   0  0  2  0  0  0  0  0  0  0  0  0
   19.8263  -12.9065  -17.4359 N   0  0  0  0  0  0  0  0  0  0  0  0
   20.3266  -10.8363  -16.2791 C   0  0  0  0  0  0  0  0  0  0  0  0
   20.2429  -11.1246  -15.0766 O   0  0  0  0  0  0  0  0  0  0  0  0
   21.2224   -9.8356  -16.7033 N   0  0  0  0  0  0  0  0  0  0  0  0
   22.0739   -9.0567  -15.8762 C   0  0  1  0  0  0  0  0  0  0  0  0
   23.5509   -9.3683  -15.9135 C   0  0  0  0  0  0  0  0  0  0  0  0
   23.8541  -10.8129  -15.6914 C   0  0  0  0  0  0  0  0  0  0  0  0
   24.0424  -11.4300  -14.4566 C   0  0  0  0  0  0  0  0  0  0  0  0
   24.2931  -12.7290  -14.6476 N   0  0  0  0  0  0  0  0  0  0  0  0
   24.2716  -12.9649  -15.9662 C   0  0  0  0  0  0  0  0  0  0  0  0
   24.0061  -11.8008  -16.5761 N   0  0  0  0  0  0  0  0  0  0  0  0
   21.7420   -7.6285  -15.8008 C   0  0  0  0  0  0  0  0  0  0  0  0
   21.7344   -6.8783  -16.8417 O   0  0  0  0  0  0  0  0  0  0  0  0
   19.4645   -3.9092  -14.0860 O   0  0  0  0  0  0  0  0  0  0  0  0
   19.7295   -5.2710  -13.9325 C   0  0  0  0  0  0  0  0  0  0  0  0
   21.0686   -5.5387  -14.5585 C   0  0  2  0  0  0  0  0  0  0  0  0
   21.4035   -6.9443  -14.6053 N   0  0  0  0  0  0  0  0  0  0  0  0
   22.1061   -4.7671  -13.8542 C   0  0  0  0  0  0  0  0  0  0  0  0
   22.5050   -3.4950  -14.2266 O   0  0  0  0  0  0  0  0  0  0  0  0
   22.6707   -5.2817  -12.8546 O   0  0  0  0  0  0  0  0  0  0  0  0
  2  1  1  0
  3  2  1  0
  4  3  1  0
  4  5  1  0
  5  6  1  1
  5  7  1  0
  7  9  1  0
  8  7  2  0
  9 10  1  0
 10 11  1  6
 11 12  1  0
 12 16  1  0
 13 12  2  0
 13 14  1  0
 14 15  1  0
 16 15  2  0
 17 10  1  0
 17 22  1  0
 18 17  2  0
 19 20  1  0
 21 20  1  1
 21 23  1  0
 21 22  1  0
 23 24  1  0
 25 23  2  0
M  END
$$$$
