MHS.pdb
     RDKit          3D

 25 25  0  0  1  0  0  0  0  0999 V2000
   28.9153  -11.3679  -16.6531 C   0  0  0  0  0  0  0  0  0  0  0  0
   28.5156  -12.6368  -15.4503 S   0  0  0  0  0  0  0  0  0  0  0  0
   26.8201  -13.2644  -15.7425 C   0  0  0  0  0  0  0  0  0  0  0  0
   25.9540  -12.0609  -16.0628 C   0  0  0  0  0  0  0  0  0  0  0  0
   24.5262  -12.4641  -16.3517 C   0  0  2  0  0  0  0  0  0  0  0  0
   24.4788  -13.3825  -17.4443 N   0  0  0  0  0  0  0  0  0  0  0  0
   23.6891  -11.2481  -16.6105 C   0  0  0  0  0  0  0  0  0  0  0  0
   23.7290  -10.6368  -17.6880 O   0  0  0  0  0  0  0  0  0  0  0  0
   22.8373  -10.8054  -15.5800 N   0  0  0  0  0  0  0  0  0  0  0  0
   21.9557   -9.6936  -15.6304 C   0  0  1  0  0  0  0  0  0  0  0  0
   20.5030   -9.9456  -15.3045 C   0  0  0  0  0  0  0  0  0  0  0  0
   19.8680  -10.9637  -16.1924 C   0  0  0  0  0  0  0  0  0  0  0  0
   20.4808  -11.6154  -17.2605 C   0  0  0  0  0  0  0  0  0  0  0  0
   19.6074  -12.4576  -17.8215 N   0  0  0  0  0  0  0  0  0  0  0  0
   18.4534  -12.3668  -17.1471 C   0  0  0  0  0  0  0  0  0  0  0  0
   18.6306  -11.4637  -16.1719 N   0  0  0  0  0  0  0  0  0  0  0  0
   22.5007   -8.4351  -15.1062 C   0  0  0  0  0  0  0  0  0  0  0  0
   23.0822   -8.3717  -13.9641 O   0  0  0  0  0  0  0  0  0  0  0  0
   24.2476   -5.6329  -17.2651 O   0  0  0  0  0  0  0  0  0  0  0  0
   23.3891   -4.9946  -16.3687 C   0  0  0  0  0  0  0  0  0  0  0  0
   23.0603   -5.9817  -15.2852 C   0  0  2  0  0  0  0  0  0  0  0  0
   22.4455   -7.1910  -15.7852 N   0  0  0  0  0  0  0  0  0  0  0  0
   22.2142   -5.3353  -14.2683 C   0  0  0  0  0  0  0  0  0  0  0  0
   22.6738   -4.3784  -13.3799 O   0  0  0  0  0  0  0  0  0  0  0  0
   21.0018   -5.6621  -14.1914 O   0  0  0  0  0  0  0  0  0  0  0  0
  2  1  1  0
  3  2  1  0
  4  3  1  0
  4  5  1  0
  5  6  1  6
  5  7  1  0
  7  9  1  0
  8  7  2  0
  9 10  1  0
 10 11  1  1
 11 12  1  0
 12 16  1  0
 13 12  2  0
 13 14  1  0
 14 15  1  0
 16 15  2  0
 17 10  1  0
 17 22  1  0
 18 17  2  0
 19 20  1  0
 21 20  1  6
 21 23  1  0
 21 22  1  0
 23 24  1  0
 25 23  2  0
M  END
$$$$
