YWM.pdb
     RDKit          3D

 35 37  0  0  1  0  0  0  0  0999 V2000
   29.3630  -16.6008  -17.3563 O   0  0  0  0  0  0  0  0  0  0  0  0
   28.5831  -17.4182  -16.5492 C   0  0  0  0  0  0  0  0  0  0  0  0
   27.9210  -16.8303  -15.4861 C   0  0  0  0  0  0  0  0  0  0  0  0
   27.1309  -17.6036  -14.6525 C   0  0  0  0  0  0  0  0  0  0  0  0
   27.0068  -18.9466  -14.8814 C   0  0  0  0  0  0  0  0  0  0  0  0
   26.1666  -19.7676  -13.9974 C   0  0  0  0  0  0  0  0  0  0  0  0
   26.9881  -20.1708  -12.7931 C   0  0  2  0  0  0  0  0  0  0  0  0
   28.1055  -20.9999  -13.1072 N   0  0  0  0  0  0  0  0  0  0  0  0
   26.1769  -20.7974  -11.7282 C   0  0  0  0  0  0  0  0  0  0  0  0
   26.2304  -22.0464  -11.5960 O   0  0  0  0  0  0  0  0  0  0  0  0
   27.6682  -19.5145  -15.9372 C   0  0  0  0  0  0  0  0  0  0  0  0
   28.4697  -18.7575  -16.7914 C   0  0  0  0  0  0  0  0  0  0  0  0
   25.3620  -20.0345  -10.8766 N   0  0  0  0  0  0  0  0  0  0  0  0
   24.4559  -20.6276   -9.8705 C   0  0  1  0  0  0  0  0  0  0  0  0
   24.5645  -19.8123   -8.6428 C   0  0  0  0  0  0  0  0  0  0  0  0
   25.8862  -19.6521   -8.0323 C   0  0  0  0  0  0  0  0  0  0  0  0
   26.9416  -18.8990   -8.5022 C   0  0  0  0  0  0  0  0  0  0  0  0
   27.9939  -19.0156   -7.6909 N   0  0  0  0  0  0  0  0  0  0  0  0
   27.6456  -19.8346   -6.6933 C   0  0  0  0  0  0  0  0  0  0  0  0
   28.3261  -20.2972   -5.5731 C   0  0  0  0  0  0  0  0  0  0  0  0
   27.7505  -21.1474   -4.6416 C   0  0  0  0  0  0  0  0  0  0  0  0
   26.4626  -21.5563   -4.8182 C   0  0  0  0  0  0  0  0  0  0  0  0
   25.7803  -21.1058   -5.9226 C   0  0  0  0  0  0  0  0  0  0  0  0
   26.3348  -20.2486   -6.8785 C   0  0  0  0  0  0  0  0  0  0  0  0
   23.1511  -20.8538  -10.4526 C   0  0  0  0  0  0  0  0  0  0  0  0
   22.5831  -20.0243  -11.2049 O   0  0  0  0  0  0  0  0  0  0  0  0
   19.8192  -26.8625  -11.6933 C   0  0  0  0  0  0  0  0  0  0  0  0
   18.9504  -25.8315  -10.5103 S   0  0  0  0  0  0  0  0  0  0  0  0
   19.2996  -24.0962  -10.6712 C   0  0  0  0  0  0  0  0  0  0  0  0
   20.6733  -23.6353  -10.4235 C   0  0  0  0  0  0  0  0  0  0  0  0
   21.0404  -22.2263  -10.6565 C   0  0  2  0  0  0  0  0  0  0  0  0
   22.4485  -22.0497  -10.1885 N   0  0  0  0  0  0  0  0  0  0  0  0
   20.2555  -21.2684   -9.8983 C   0  0  0  0  0  0  0  0  0  0  0  0
   19.1223  -20.6307  -10.4231 O   0  0  0  0  0  0  0  0  0  0  0  0
   20.5866  -20.9663   -8.7011 O   0  0  0  0  0  0  0  0  0  0  0  0
  2  1  1  0
  3  2  2  0
  4  3  1  0
  5  4  2  0
  5 11  1  0
  6  5  1  0
  7  6  1  0
  7  8  1  6
  9  7  1  0
 10  9  2  0
 11 12  2  0
 12  2  1  0
 13  9  1  0
 14 25  1  0
 14 13  1  0
 14 15  1  1
 16 15  1  0
 17 16  2  0
 18 17  1  0
 19 24  2  0
 19 18  1  0
 20 19  1  0
 21 20  2  0
 21 22  1  0
 22 23  2  0
 23 24  1  0
 24 16  1  0
 25 32  1  0
 26 25  2  0
 27 28  1  0
 28 29  1  0
 29 30  1  0
 31 30  1  1
 31 33  1  0
 32 31  1  0
 33 35  2  0
 33 34  1  0
M  END
$$$$
