YWM.pdb
     RDKit          3D

 35 37  0  0  1  0  0  0  0  0999 V2000
   33.0689  -18.3064  -20.1063 O   0  0  0  0  0  0  0  0  0  0  0  0
   32.0548  -18.2721  -19.1586 C   0  0  0  0  0  0  0  0  0  0  0  0
   31.4575  -17.0516  -18.8986 C   0  0  0  0  0  0  0  0  0  0  0  0
   30.4414  -16.9661  -17.9620 C   0  0  0  0  0  0  0  0  0  0  0  0
   30.0303  -18.0880  -17.2958 C   0  0  0  0  0  0  0  0  0  0  0  0
   28.9502  -17.9978  -16.3025 C   0  0  0  0  0  0  0  0  0  0  0  0
   27.7039  -18.6209  -16.8910 C   0  0  2  0  0  0  0  0  0  0  0  0
   27.1849  -17.9196  -18.0195 N   0  0  0  0  0  0  0  0  0  0  0  0
   26.6369  -18.8272  -15.8892 C   0  0  0  0  0  0  0  0  0  0  0  0
   26.0530  -17.8156  -15.4244 O   0  0  0  0  0  0  0  0  0  0  0  0
   30.6308  -19.2890  -17.5635 C   0  0  0  0  0  0  0  0  0  0  0  0
   31.6560  -19.4016  -18.5022 C   0  0  0  0  0  0  0  0  0  0  0  0
   26.2707  -20.1114  -15.4557 N   0  0  0  0  0  0  0  0  0  0  0  0
   25.2737  -20.3581  -14.3927 C   0  0  1  0  0  0  0  0  0  0  0  0
   24.1592  -21.1156  -14.9993 C   0  0  0  0  0  0  0  0  0  0  0  0
   23.3331  -20.4453  -16.0061 C   0  0  0  0  0  0  0  0  0  0  0  0
   23.2585  -20.7286  -17.3537 C   0  0  0  0  0  0  0  0  0  0  0  0
   22.4156  -19.8906  -17.9592 N   0  0  0  0  0  0  0  0  0  0  0  0
   21.9343  -19.0601  -17.0287 C   0  0  0  0  0  0  0  0  0  0  0  0
   21.0247  -18.0105  -17.0828 C   0  0  0  0  0  0  0  0  0  0  0  0
   20.6523  -17.2799  -15.9649 C   0  0  0  0  0  0  0  0  0  0  0  0
   21.1929  -17.5923  -14.7537 C   0  0  0  0  0  0  0  0  0  0  0  0
   22.0940  -18.6278  -14.6885 C   0  0  0  0  0  0  0  0  0  0  0  0
   22.4885  -19.3815  -15.7985 C   0  0  0  0  0  0  0  0  0  0  0  0
   25.9268  -20.8876  -13.2156 C   0  0  0  0  0  0  0  0  0  0  0  0
   26.3621  -22.0632  -13.1437 O   0  0  0  0  0  0  0  0  0  0  0  0
   28.0174  -19.2611   -5.6793 C   0  0  0  0  0  0  0  0  0  0  0  0
   27.8441  -18.7769   -7.3977 S   0  0  0  0  0  0  0  0  0  0  0  0
   26.9360  -19.9405   -8.3878 C   0  0  0  0  0  0  0  0  0  0  0  0
   26.9089  -19.7451   -9.8445 C   0  0  0  0  0  0  0  0  0  0  0  0
   26.1787  -20.6896  -10.7100 C   0  0  2  0  0  0  0  0  0  0  0  0
   26.1035  -20.0790  -12.0718 N   0  0  0  0  0  0  0  0  0  0  0  0
   24.8021  -20.9260  -10.3131 C   0  0  0  0  0  0  0  0  0  0  0  0
   24.4334  -21.9416   -9.4193 O   0  0  0  0  0  0  0  0  0  0  0  0
   23.8610  -20.2000  -10.7837 O   0  0  0  0  0  0  0  0  0  0  0  0
  2  1  1  0
  3  2  2  0
  4  3  1  0
  5  4  2  0
  5 11  1  0
  6  5  1  0
  7  6  1  0
  7  8  1  6
  9  7  1  0
 10  9  2  0
 11 12  2  0
 12  2  1  0
 13  9  1  0
 14 25  1  0
 14 13  1  0
 14 15  1  6
 16 15  1  0
 17 16  2  0
 18 17  1  0
 19 24  2  0
 19 18  1  0
 20 19  1  0
 21 20  2  0
 21 22  1  0
 22 23  2  0
 23 24  1  0
 24 16  1  0
 25 32  1  0
 26 25  2  0
 27 28  1  0
 28 29  1  0
 29 30  1  0
 31 30  1  1
 31 33  1  0
 32 31  1  0
 33 35  2  0
 33 34  1  0
M  END
$$$$
