YWM.pdb
     RDKit          3D

 35 37  0  0  1  0  0  0  0  0999 V2000
   23.1929  -12.5641  -13.7513 O   0  0  0  0  0  0  0  0  0  0  0  0
   22.7975  -11.2663  -14.0462 C   0  0  0  0  0  0  0  0  0  0  0  0
   23.7165  -10.2519  -13.8454 C   0  0  0  0  0  0  0  0  0  0  0  0
   23.3694   -8.9409  -14.1251 C   0  0  0  0  0  0  0  0  0  0  0  0
   22.1192   -8.6516  -14.5990 C   0  0  0  0  0  0  0  0  0  0  0  0
   21.7511   -7.2599  -14.8977 C   0  0  0  0  0  0  0  0  0  0  0  0
   21.5650   -7.1231  -16.3925 C   0  0  2  0  0  0  0  0  0  0  0  0
   22.7529   -7.3575  -17.1465 N   0  0  0  0  0  0  0  0  0  0  0  0
   20.9668   -5.8285  -16.7807 C   0  0  0  0  0  0  0  0  0  0  0  0
   21.7359   -4.9004  -17.1377 O   0  0  0  0  0  0  0  0  0  0  0  0
   21.2201   -9.6659  -14.7926 C   0  0  0  0  0  0  0  0  0  0  0  0
   21.5452  -10.9942  -14.5187 C   0  0  0  0  0  0  0  0  0  0  0  0
   19.5783   -5.6215  -16.7582 N   0  0  0  0  0  0  0  0  0  0  0  0
   18.9369   -4.3578  -17.1788 C   0  0  1  0  0  0  0  0  0  0  0  0
   17.8949   -4.6995  -18.1694 C   0  0  0  0  0  0  0  0  0  0  0  0
   18.3215   -5.1580  -19.4934 C   0  0  0  0  0  0  0  0  0  0  0  0
   19.3704   -4.6784  -20.2495 C   0  0  0  0  0  0  0  0  0  0  0  0
   19.4390   -5.3259  -21.4136 N   0  0  0  0  0  0  0  0  0  0  0  0
   18.4501   -6.2253  -21.4339 C   0  0  0  0  0  0  0  0  0  0  0  0
   18.0555   -7.1703  -22.3737 C   0  0  0  0  0  0  0  0  0  0  0  0
   16.9853   -8.0285  -22.1735 C   0  0  0  0  0  0  0  0  0  0  0  0
   16.2797   -7.9543  -21.0100 C   0  0  0  0  0  0  0  0  0  0  0  0
   16.6604   -7.0231  -20.0739 C   0  0  0  0  0  0  0  0  0  0  0  0
   17.7346   -6.1447  -20.2485 C   0  0  0  0  0  0  0  0  0  0  0  0
   18.5747   -3.5765  -16.0165 C   0  0  0  0  0  0  0  0  0  0  0  0
   18.1374   -4.0876  -14.9562 O   0  0  0  0  0  0  0  0  0  0  0  0
   19.1505    3.8029  -12.9654 C   0  0  0  0  0  0  0  0  0  0  0  0
   19.4249    2.6377  -14.3011 S   0  0  0  0  0  0  0  0  0  0  0  0
   18.6520    1.0568  -14.0507 C   0  0  0  0  0  0  0  0  0  0  0  0
   18.9037   -0.0062  -15.0343 C   0  0  0  0  0  0  0  0  0  0  0  0
   18.3556   -1.3592  -14.8265 C   0  0  2  0  0  0  0  0  0  0  0  0
   18.7030   -2.1705  -16.0323 N   0  0  0  0  0  0  0  0  0  0  0  0
   16.9079   -1.4115  -14.7264 C   0  0  0  0  0  0  0  0  0  0  0  0
   16.0888   -1.8352  -15.7827 O   0  0  0  0  0  0  0  0  0  0  0  0
   16.3224   -1.0580  -13.6464 O   0  0  0  0  0  0  0  0  0  0  0  0
  2  1  1  0
  3  2  2  0
  4  3  1  0
  5  4  2  0
  5 11  1  0
  6  5  1  0
  7  6  1  0
  7  8  1  6
  9  7  1  0
 10  9  2  0
 11 12  2  0
 12  2  1  0
 13  9  1  0
 14 25  1  0
 14 13  1  0
 14 15  1  1
 16 15  1  0
 17 16  2  0
 18 17  1  0
 19 24  2  0
 19 18  1  0
 20 19  1  0
 21 20  2  0
 21 22  1  0
 22 23  2  0
 23 24  1  0
 24 16  1  0
 25 32  1  0
 26 25  2  0
 27 28  1  0
 28 29  1  0
 29 30  1  0
 31 30  1  6
 31 33  1  0
 32 31  1  0
 33 35  2  0
 33 34  1  0
M  END
$$$$
