YWM.pdb
     RDKit          3D

 35 37  0  0  1  0  0  0  0  0999 V2000
   30.7685  -16.8268  -19.7258 O   0  0  0  0  0  0  0  0  0  0  0  0
   29.8248  -17.6560  -19.1347 C   0  0  0  0  0  0  0  0  0  0  0  0
   29.3032  -17.2695  -17.9130 C   0  0  0  0  0  0  0  0  0  0  0  0
   28.3591  -18.0630  -17.2835 C   0  0  0  0  0  0  0  0  0  0  0  0
   27.9442  -19.2268  -17.8705 C   0  0  0  0  0  0  0  0  0  0  0  0
   26.9404  -20.0686  -17.2032 C   0  0  0  0  0  0  0  0  0  0  0  0
   27.6295  -20.8715  -16.1223 C   0  0  2  0  0  0  0  0  0  0  0  0
   28.3386  -22.0088  -16.6106 N   0  0  0  0  0  0  0  0  0  0  0  0
   26.7138  -21.2752  -15.0346 C   0  0  0  0  0  0  0  0  0  0  0  0
   26.4493  -22.4969  -14.9016 O   0  0  0  0  0  0  0  0  0  0  0  0
   28.4693  -19.5966  -19.0797 C   0  0  0  0  0  0  0  0  0  0  0  0
   29.4211  -18.8150  -19.7341 C   0  0  0  0  0  0  0  0  0  0  0  0
   26.1445  -20.3336  -14.1625 N   0  0  0  0  0  0  0  0  0  0  0  0
   25.3425  -20.7029  -12.9769 C   0  0  1  0  0  0  0  0  0  0  0  0
   25.8447  -19.9062  -11.8381 C   0  0  0  0  0  0  0  0  0  0  0  0
   27.0640  -20.3555  -11.1625 C   0  0  0  0  0  0  0  0  0  0  0  0
   28.2826  -20.6482  -11.7380 C   0  0  0  0  0  0  0  0  0  0  0  0
   29.1512  -21.0506  -10.8091 N   0  0  0  0  0  0  0  0  0  0  0  0
   28.5213  -21.0263   -9.6302 C   0  0  0  0  0  0  0  0  0  0  0  0
   28.9317  -21.3264   -8.3366 C   0  0  0  0  0  0  0  0  0  0  0  0
   28.0952  -21.2125   -7.2369 C   0  0  0  0  0  0  0  0  0  0  0  0
   26.8123  -20.7893   -7.4159 C   0  0  0  0  0  0  0  0  0  0  0  0
   26.3953  -20.4904   -8.6907 C   0  0  0  0  0  0  0  0  0  0  0  0
   27.2161  -20.5962   -9.8182 C   0  0  0  0  0  0  0  0  0  0  0  0
   23.9332  -20.6591  -13.3001 C   0  0  0  0  0  0  0  0  0  0  0  0
   23.3763  -19.6520  -13.8025 O   0  0  0  0  0  0  0  0  0  0  0  0
   20.0346  -26.1752  -14.5089 C   0  0  0  0  0  0  0  0  0  0  0  0
   19.3216  -24.5469  -14.7485 S   0  0  0  0  0  0  0  0  0  0  0  0
   19.7045  -23.3929  -13.4521 C   0  0  0  0  0  0  0  0  0  0  0  0
   21.1178  -23.0989  -13.1751 C   0  0  0  0  0  0  0  0  0  0  0  0
   21.6524  -21.7411  -13.3874 C   0  0  2  0  0  0  0  0  0  0  0  0
   23.1089  -21.7789  -13.0554 N   0  0  0  0  0  0  0  0  0  0  0  0
   21.0813  -20.7284  -12.5175 C   0  0  0  0  0  0  0  0  0  0  0  0
   20.1132  -19.8121  -12.9525 O   0  0  0  0  0  0  0  0  0  0  0  0
   21.4586  -20.6365  -11.2995 O   0  0  0  0  0  0  0  0  0  0  0  0
  2  1  1  0
  3  2  2  0
  4  3  1  0
  5  4  2  0
  5 11  1  0
  6  5  1  0
  7  6  1  0
  7  8  1  6
  9  7  1  0
 10  9  2  0
 11 12  2  0
 12  2  1  0
 13  9  1  0
 14 25  1  0
 14 13  1  0
 14 15  1  1
 16 15  1  0
 17 16  2  0
 18 17  1  0
 19 24  2  0
 19 18  1  0
 20 19  1  0
 21 20  2  0
 21 22  1  0
 22 23  2  0
 23 24  1  0
 24 16  1  0
 25 32  1  0
 26 25  2  0
 27 28  1  0
 28 29  1  0
 29 30  1  0
 31 30  1  1
 31 33  1  0
 32 31  1  0
 33 35  2  0
 33 34  1  0
M  END
$$$$
