YWM.pdb
     RDKit          3D

 35 37  0  0  1  0  0  0  0  0999 V2000
   31.6622  -28.6022  -18.0430 O   0  0  0  0  0  0  0  0  0  0  0  0
   31.3058  -27.3482  -17.5652 C   0  0  0  0  0  0  0  0  0  0  0  0
   30.1683  -27.2565  -16.7832 C   0  0  0  0  0  0  0  0  0  0  0  0
   29.7717  -26.0278  -16.2831 C   0  0  0  0  0  0  0  0  0  0  0  0
   30.5051  -24.9075  -16.5633 C   0  0  0  0  0  0  0  0  0  0  0  0
   30.0853  -23.6029  -16.0309 C   0  0  0  0  0  0  0  0  0  0  0  0
   28.8018  -23.1944  -16.7191 C   0  0  2  0  0  0  0  0  0  0  0  0
   28.9446  -22.9661  -18.1199 N   0  0  0  0  0  0  0  0  0  0  0  0
   28.1531  -22.0300  -16.0805 C   0  0  0  0  0  0  0  0  0  0  0  0
   28.5961  -20.8833  -16.3434 O   0  0  0  0  0  0  0  0  0  0  0  0
   31.6285  -25.0135  -17.3387 C   0  0  0  0  0  0  0  0  0  0  0  0
   32.0490  -26.2393  -17.8541 C   0  0  0  0  0  0  0  0  0  0  0  0
   27.0693  -22.1804  -15.2008 N   0  0  0  0  0  0  0  0  0  0  0  0
   26.4389  -21.0508  -14.4853 C   0  0  1  0  0  0  0  0  0  0  0  0
   25.3653  -20.5224  -15.3524 C   0  0  0  0  0  0  0  0  0  0  0  0
   24.8157  -19.1997  -15.0466 C   0  0  0  0  0  0  0  0  0  0  0  0
   23.5165  -18.8900  -14.7032 C   0  0  0  0  0  0  0  0  0  0  0  0
   23.3841  -17.5753  -14.5213 N   0  0  0  0  0  0  0  0  0  0  0  0
   24.5782  -17.0155  -14.7398 C   0  0  0  0  0  0  0  0  0  0  0  0
   25.0271  -15.7012  -14.6823 C   0  0  0  0  0  0  0  0  0  0  0  0
   26.3419  -15.3439  -14.9384 C   0  0  0  0  0  0  0  0  0  0  0  0
   27.2451  -16.3117  -15.2618 C   0  0  0  0  0  0  0  0  0  0  0  0
   26.8123  -17.6145  -15.3223 C   0  0  0  0  0  0  0  0  0  0  0  0
   25.4932  -18.0044  -15.0697 C   0  0  0  0  0  0  0  0  0  0  0  0
   26.1212  -21.4402  -13.1289 C   0  0  0  0  0  0  0  0  0  0  0  0
   25.5522  -22.5222  -12.8419 O   0  0  0  0  0  0  0  0  0  0  0  0
   26.6719  -18.9298   -5.5327 C   0  0  0  0  0  0  0  0  0  0  0  0
   27.1096  -18.7679   -7.2645 S   0  0  0  0  0  0  0  0  0  0  0  0
   26.2335  -19.8810   -8.3381 C   0  0  0  0  0  0  0  0  0  0  0  0
   26.6223  -19.9344   -9.7547 C   0  0  0  0  0  0  0  0  0  0  0  0
   26.0167  -20.9312  -10.6570 C   0  0  2  0  0  0  0  0  0  0  0  0
   26.4485  -20.5939  -12.0472 N   0  0  0  0  0  0  0  0  0  0  0  0
   24.5651  -20.9116  -10.6850 C   0  0  0  0  0  0  0  0  0  0  0  0
   23.8318  -19.9083  -11.3347 O   0  0  0  0  0  0  0  0  0  0  0  0
   23.8957  -21.8290  -10.0980 O   0  0  0  0  0  0  0  0  0  0  0  0
  2  1  1  0
  3  2  2  0
  4  3  1  0
  5  4  2  0
  5 11  1  0
  6  5  1  0
  7  6  1  0
  7  8  1  6
  9  7  1  0
 10  9  2  0
 11 12  2  0
 12  2  1  0
 13  9  1  0
 14 25  1  0
 14 13  1  0
 14 15  1  6
 16 15  1  0
 17 16  2  0
 18 17  1  0
 19 24  2  0
 19 18  1  0
 20 19  1  0
 21 20  2  0
 21 22  1  0
 22 23  2  0
 23 24  1  0
 24 16  1  0
 25 32  1  0
 26 25  2  0
 27 28  1  0
 28 29  1  0
 29 30  1  0
 31 30  1  1
 31 33  1  0
 32 31  1  0
 33 35  2  0
 33 34  1  0
M  END
$$$$
