YWM.pdb
     RDKit          3D

 35 37  0  0  1  0  0  0  0  0999 V2000
   12.8141   -8.7524  -17.4791 O   0  0  0  0  0  0  0  0  0  0  0  0
   12.5493   -9.7976  -16.6044 C   0  0  0  0  0  0  0  0  0  0  0  0
   13.6215  -10.3755  -15.9485 C   0  0  0  0  0  0  0  0  0  0  0  0
   13.4086  -11.4210  -15.0660 C   0  0  0  0  0  0  0  0  0  0  0  0
   12.1392  -11.8802  -14.8447 C   0  0  0  0  0  0  0  0  0  0  0  0
   11.9126  -12.9892  -13.9064 C   0  0  0  0  0  0  0  0  0  0  0  0
   12.5951  -14.2247  -14.4500 C   0  0  2  0  0  0  0  0  0  0  0  0
   12.0928  -14.6532  -15.7144 N   0  0  0  0  0  0  0  0  0  0  0  0
   12.5879  -15.3523  -13.4944 C   0  0  0  0  0  0  0  0  0  0  0  0
   11.7255  -16.2545  -13.6447 O   0  0  0  0  0  0  0  0  0  0  0  0
   11.0878  -11.2986  -15.5011 C   0  0  0  0  0  0  0  0  0  0  0  0
   11.2758  -10.2443  -16.3946 C   0  0  0  0  0  0  0  0  0  0  0  0
   13.5120  -15.4315  -12.4404 N   0  0  0  0  0  0  0  0  0  0  0  0
   13.5081  -16.5145  -11.4342 C   0  0  1  0  0  0  0  0  0  0  0  0
   14.9090  -16.9437  -11.2416 C   0  0  0  0  0  0  0  0  0  0  0  0
   15.1604  -18.1605  -10.4662 C   0  0  0  0  0  0  0  0  0  0  0  0
   15.6079  -19.3773  -10.9363 C   0  0  0  0  0  0  0  0  0  0  0  0
   15.6946  -20.2583   -9.9385 N   0  0  0  0  0  0  0  0  0  0  0  0
   15.3107  -19.6380   -8.8182 C   0  0  0  0  0  0  0  0  0  0  0  0
   15.2147  -20.0556   -7.4959 C   0  0  0  0  0  0  0  0  0  0  0  0
   14.7977  -19.2194   -6.4718 C   0  0  0  0  0  0  0  0  0  0  0  0
   14.4640  -17.9296   -6.7581 C   0  0  0  0  0  0  0  0  0  0  0  0
   14.5543  -17.5060   -8.0622 C   0  0  0  0  0  0  0  0  0  0  0  0
   14.9710  -18.3265   -9.1153 C   0  0  0  0  0  0  0  0  0  0  0  0
   12.7287  -16.1165  -10.2825 C   0  0  0  0  0  0  0  0  0  0  0  0
   12.6726  -16.7929   -9.2260 O   0  0  0  0  0  0  0  0  0  0  0  0
    8.6794   -9.8379   -7.3898 C   0  0  0  0  0  0  0  0  0  0  0  0
    9.7834  -10.5781   -8.5942 S   0  0  0  0  0  0  0  0  0  0  0  0
   10.1116  -12.3016   -8.3099 C   0  0  0  0  0  0  0  0  0  0  0  0
   10.9613  -13.0178   -9.2721 C   0  0  0  0  0  0  0  0  0  0  0  0
   11.2538  -14.4510   -9.0861 C   0  0  2  0  0  0  0  0  0  0  0  0
   11.9811  -14.9190  -10.3047 N   0  0  0  0  0  0  0  0  0  0  0  0
   10.0768  -15.2958   -8.9872 C   0  0  0  0  0  0  0  0  0  0  0  0
    9.4517  -15.8610  -10.1079 O   0  0  0  0  0  0  0  0  0  0  0  0
    9.5594  -15.5507   -7.8464 O   0  0  0  0  0  0  0  0  0  0  0  0
  2  1  1  0
  3  2  2  0
  4  3  1  0
  5  4  2  0
  5 11  1  0
  6  5  1  0
  7  6  1  0
  7  8  1  6
  9  7  1  0
 10  9  2  0
 11 12  2  0
 12  2  1  0
 13  9  1  0
 14 25  1  0
 14 13  1  0
 14 15  1  1
 16 15  1  0
 17 16  2  0
 18 17  1  0
 19 24  2  0
 19 18  1  0
 20 19  1  0
 21 20  2  0
 21 22  1  0
 22 23  2  0
 23 24  1  0
 24 16  1  0
 25 32  1  0
 26 25  2  0
 27 28  1  0
 28 29  1  0
 29 30  1  0
 31 30  1  6
 31 33  1  0
 32 31  1  0
 33 35  2  0
 33 34  1  0
M  END
$$$$
