YWM.pdb
     RDKit          3D

 35 37  0  0  1  0  0  0  0  0999 V2000
   28.9064  -17.8033  -17.8773 O   0  0  0  0  0  0  0  0  0  0  0  0
   28.1466  -18.3677  -16.8614 C   0  0  0  0  0  0  0  0  0  0  0  0
   28.2916  -17.8512  -15.5862 C   0  0  0  0  0  0  0  0  0  0  0  0
   27.5555  -18.3804  -14.5395 C   0  0  0  0  0  0  0  0  0  0  0  0
   26.6871  -19.4122  -14.7684 C   0  0  0  0  0  0  0  0  0  0  0  0
   25.9041  -19.9731  -13.6575 C   0  0  0  0  0  0  0  0  0  0  0  0
   26.8155  -20.8405  -12.8180 C   0  0  2  0  0  0  0  0  0  0  0  0
   27.3034  -21.9948  -13.4994 N   0  0  0  0  0  0  0  0  0  0  0  0
   26.2079  -21.2332  -11.5292 C   0  0  0  0  0  0  0  0  0  0  0  0
   25.8306  -22.4239  -11.3871 O   0  0  0  0  0  0  0  0  0  0  0  0
   26.5542  -19.9132  -16.0356 C   0  0  0  0  0  0  0  0  0  0  0  0
   27.2838  -19.3977  -17.1066 C   0  0  0  0  0  0  0  0  0  0  0  0
   26.0479  -20.3149  -10.4792 N   0  0  0  0  0  0  0  0  0  0  0  0
   25.3826  -20.6471   -9.2017 C   0  0  1  0  0  0  0  0  0  0  0  0
   25.8867  -19.7033   -8.1824 C   0  0  0  0  0  0  0  0  0  0  0  0
   27.2338  -19.9154   -7.6480 C   0  0  0  0  0  0  0  0  0  0  0  0
   28.3667  -20.2750   -8.3472 C   0  0  0  0  0  0  0  0  0  0  0  0
   29.4050  -20.3988   -7.5190 N   0  0  0  0  0  0  0  0  0  0  0  0
   28.9711  -20.1252   -6.2845 C   0  0  0  0  0  0  0  0  0  0  0  0
   29.6077  -20.0859   -5.0495 C   0  0  0  0  0  0  0  0  0  0  0  0
   28.9501  -19.7548   -3.8748 C   0  0  0  0  0  0  0  0  0  0  0  0
   27.6220  -19.4525   -3.9165 C   0  0  0  0  0  0  0  0  0  0  0  0
   26.9821  -19.4888   -5.1320 C   0  0  0  0  0  0  0  0  0  0  0  0
   27.6191  -19.8195   -6.3324 C   0  0  0  0  0  0  0  0  0  0  0  0
   23.9555  -20.7687   -9.4045 C   0  0  0  0  0  0  0  0  0  0  0  0
   23.3591  -20.2743  -10.3927 O   0  0  0  0  0  0  0  0  0  0  0  0
   17.6057  -24.7774   -6.5934 C   0  0  0  0  0  0  0  0  0  0  0  0
   19.3470  -24.3524   -6.5267 S   0  0  0  0  0  0  0  0  0  0  0  0
   19.8363  -23.1224   -7.7127 C   0  0  0  0  0  0  0  0  0  0  0  0
   21.2413  -22.6907   -7.7305 C   0  0  0  0  0  0  0  0  0  0  0  0
   21.7177  -21.7447   -8.7564 C   0  0  2  0  0  0  0  0  0  0  0  0
   23.1583  -21.4675   -8.4720 N   0  0  0  0  0  0  0  0  0  0  0  0
   21.0601  -20.4503   -8.7308 C   0  0  0  0  0  0  0  0  0  0  0  0
   19.8451  -20.2030   -9.3857 O   0  0  0  0  0  0  0  0  0  0  0  0
   21.5862  -19.4714   -8.0990 O   0  0  0  0  0  0  0  0  0  0  0  0
  2  1  1  0
  3  2  2  0
  4  3  1  0
  5  4  2  0
  5 11  1  0
  6  5  1  0
  7  6  1  0
  7  8  1  6
  9  7  1  0
 10  9  2  0
 11 12  2  0
 12  2  1  0
 13  9  1  0
 14 25  1  0
 14 13  1  0
 14 15  1  1
 16 15  1  0
 17 16  2  0
 18 17  1  0
 19 24  2  0
 19 18  1  0
 20 19  1  0
 21 20  2  0
 21 22  1  0
 22 23  2  0
 23 24  1  0
 24 16  1  0
 25 32  1  0
 26 25  2  0
 27 28  1  0
 28 29  1  0
 29 30  1  0
 31 30  1  1
 31 33  1  0
 32 31  1  0
 33 35  2  0
 33 34  1  0
M  END
$$$$
