YWM.pdb
     RDKit          3D

 35 37  0  0  1  0  0  0  0  0999 V2000
   27.8298  -27.4815  -18.4205 O   0  0  0  0  0  0  0  0  0  0  0  0
   27.7932  -26.3529  -17.6126 C   0  0  0  0  0  0  0  0  0  0  0  0
   28.6021  -25.2858  -17.9601 C   0  0  0  0  0  0  0  0  0  0  0  0
   28.6008  -24.1379  -17.1858 C   0  0  0  0  0  0  0  0  0  0  0  0
   27.8003  -24.0614  -16.0792 C   0  0  0  0  0  0  0  0  0  0  0  0
   27.7974  -22.8421  -15.2578 C   0  0  0  0  0  0  0  0  0  0  0  0
   26.4483  -22.1725  -15.3978 C   0  0  2  0  0  0  0  0  0  0  0  0
   26.2454  -21.5397  -16.6600 N   0  0  0  0  0  0  0  0  0  0  0  0
   26.1632  -21.2209  -14.3034 C   0  0  0  0  0  0  0  0  0  0  0  0
   26.7515  -20.1100  -14.3119 O   0  0  0  0  0  0  0  0  0  0  0  0
   27.0052  -25.1255  -15.7474 C   0  0  0  0  0  0  0  0  0  0  0  0
   26.9882  -26.2926  -16.5108 C   0  0  0  0  0  0  0  0  0  0  0  0
   25.2618  -21.5312  -13.2726 N   0  0  0  0  0  0  0  0  0  0  0  0
   24.9531  -20.6118  -12.1571 C   0  0  1  0  0  0  0  0  0  0  0  0
   23.5087  -20.3067  -12.2226 C   0  0  0  0  0  0  0  0  0  0  0  0
   23.0218  -19.4966  -13.3415 C   0  0  0  0  0  0  0  0  0  0  0  0
   23.6018  -18.3630  -13.8712 C   0  0  0  0  0  0  0  0  0  0  0  0
   22.8581  -17.8828  -14.8690 N   0  0  0  0  0  0  0  0  0  0  0  0
   21.7970  -18.6847  -15.0035 C   0  0  0  0  0  0  0  0  0  0  0  0
   20.7149  -18.6769  -15.8759 C   0  0  0  0  0  0  0  0  0  0  0  0
   19.7166  -19.6383  -15.8442 C   0  0  0  0  0  0  0  0  0  0  0  0
   19.7851  -20.6407  -14.9236 C   0  0  0  0  0  0  0  0  0  0  0  0
   20.8501  -20.6581  -14.0555 C   0  0  0  0  0  0  0  0  0  0  0  0
   21.8710  -19.7021  -14.0637 C   0  0  0  0  0  0  0  0  0  0  0  0
   25.5092  -21.1256  -10.9245 C   0  0  0  0  0  0  0  0  0  0  0  0
   25.3059  -22.2955  -10.5162 O   0  0  0  0  0  0  0  0  0  0  0  0
   28.1871  -17.7262   -4.4396 C   0  0  0  0  0  0  0  0  0  0  0  0
   28.7616  -18.2991   -6.0393 S   0  0  0  0  0  0  0  0  0  0  0  0
   27.8233  -19.6563   -6.7000 C   0  0  0  0  0  0  0  0  0  0  0  0
   27.4836  -19.6386   -8.1301 C   0  0  0  0  0  0  0  0  0  0  0  0
   26.6608  -20.7137   -8.7144 C   0  0  2  0  0  0  0  0  0  0  0  0
   26.3241  -20.3072  -10.1124 N   0  0  0  0  0  0  0  0  0  0  0  0
   25.3854  -20.9208   -8.0517 C   0  0  0  0  0  0  0  0  0  0  0  0
   25.2022  -21.8724   -7.0382 O   0  0  0  0  0  0  0  0  0  0  0  0
   24.3645  -20.2277   -8.3857 O   0  0  0  0  0  0  0  0  0  0  0  0
  2  1  1  0
  3  2  2  0
  4  3  1  0
  5  4  2  0
  5 11  1  0
  6  5  1  0
  7  6  1  0
  7  8  1  6
  9  7  1  0
 10  9  2  0
 11 12  2  0
 12  2  1  0
 13  9  1  0
 14 25  1  0
 14 13  1  0
 14 15  1  1
 16 15  1  0
 17 16  2  0
 18 17  1  0
 19 24  2  0
 19 18  1  0
 20 19  1  0
 21 20  2  0
 21 22  1  0
 22 23  2  0
 23 24  1  0
 24 16  1  0
 25 32  1  0
 26 25  2  0
 27 28  1  0
 28 29  1  0
 29 30  1  0
 31 30  1  1
 31 33  1  0
 32 31  1  0
 33 35  2  0
 33 34  1  0
M  END
$$$$
