YWM.pdb
     RDKit          3D

 35 37  0  0  1  0  0  0  0  0999 V2000
   35.5997  -27.6035  -19.6733 O   0  0  0  0  0  0  0  0  0  0  0  0
   34.5547  -28.4176  -19.2576 C   0  0  0  0  0  0  0  0  0  0  0  0
   34.1134  -29.3953  -20.1314 C   0  0  0  0  0  0  0  0  0  0  0  0
   33.0739  -30.2323  -19.7626 C   0  0  0  0  0  0  0  0  0  0  0  0
   32.4856  -30.0909  -18.5357 C   0  0  0  0  0  0  0  0  0  0  0  0
   31.3830  -30.9806  -18.1431 C   0  0  0  0  0  0  0  0  0  0  0  0
   30.1178  -30.5053  -18.8223 C   0  0  2  0  0  0  0  0  0  0  0  0
   29.6547  -29.2380  -18.3594 N   0  0  0  0  0  0  0  0  0  0  0  0
   29.0242  -31.4975  -18.7586 C   0  0  0  0  0  0  0  0  0  0  0  0
   28.0267  -31.2387  -18.0388 O   0  0  0  0  0  0  0  0  0  0  0  0
   32.9328  -29.1187  -17.6815 C   0  0  0  0  0  0  0  0  0  0  0  0
   33.9780  -28.2634  -18.0292 C   0  0  0  0  0  0  0  0  0  0  0  0
   29.0796  -32.7030  -19.4762 N   0  0  0  0  0  0  0  0  0  0  0  0
   27.9745  -33.6844  -19.5054 C   0  0  1  0  0  0  0  0  0  0  0  0
   28.1769  -34.5427  -20.6911 C   0  0  0  0  0  0  0  0  0  0  0  0
   27.2159  -35.6198  -20.9389 C   0  0  0  0  0  0  0  0  0  0  0  0
   25.8412  -35.5220  -20.9905 C   0  0  0  0  0  0  0  0  0  0  0  0
   25.2977  -36.7195  -21.2138 N   0  0  0  0  0  0  0  0  0  0  0  0
   26.2956  -37.6039  -21.3101 C   0  0  0  0  0  0  0  0  0  0  0  0
   26.3210  -38.9733  -21.5467 C   0  0  0  0  0  0  0  0  0  0  0  0
   27.4982  -39.7016  -21.6225 C   0  0  0  0  0  0  0  0  0  0  0  0
   28.6901  -39.0612  -21.4602 C   0  0  0  0  0  0  0  0  0  0  0  0
   28.6771  -37.7074  -21.2251 C   0  0  0  0  0  0  0  0  0  0  0  0
   27.5059  -36.9474  -21.1430 C   0  0  0  0  0  0  0  0  0  0  0  0
   27.8274  -34.3020  -18.2056 C   0  0  0  0  0  0  0  0  0  0  0  0
   28.7932  -34.7787  -17.5600 O   0  0  0  0  0  0  0  0  0  0  0  0
   24.8826  -36.8358  -12.0282 C   0  0  0  0  0  0  0  0  0  0  0  0
   25.6305  -36.3196  -13.5746 S   0  0  0  0  0  0  0  0  0  0  0  0
   25.1806  -34.6765  -14.0815 C   0  0  0  0  0  0  0  0  0  0  0  0
   25.6137  -34.2125  -15.4073 C   0  0  0  0  0  0  0  0  0  0  0  0
   26.3834  -35.1040  -16.2945 C   0  0  2  0  0  0  0  0  0  0  0  0
   26.5562  -34.3942  -17.5981 N   0  0  0  0  0  0  0  0  0  0  0  0
   25.7156  -36.3524  -16.6168 C   0  0  0  0  0  0  0  0  0  0  0  0
   24.5612  -36.4129  -17.4104 O   0  0  0  0  0  0  0  0  0  0  0  0
   26.1691  -37.4610  -16.1701 O   0  0  0  0  0  0  0  0  0  0  0  0
  2  1  1  0
  3  2  2  0
  4  3  1  0
  5  4  2  0
  5 11  1  0
  6  5  1  0
  7  6  1  0
  7  8  1  1
  9  7  1  0
 10  9  2  0
 11 12  2  0
 12  2  1  0
 13  9  1  0
 14 25  1  0
 14 13  1  0
 14 15  1  6
 16 15  1  0
 17 16  2  0
 18 17  1  0
 19 24  2  0
 19 18  1  0
 20 19  1  0
 21 20  2  0
 21 22  1  0
 22 23  2  0
 23 24  1  0
 24 16  1  0
 25 32  1  0
 26 25  2  0
 27 28  1  0
 28 29  1  0
 29 30  1  0
 31 30  1  1
 31 33  1  0
 32 31  1  0
 33 35  2  0
 33 34  1  0
M  END
$$$$
