YWM.pdb
     RDKit          3D

 35 37  0  0  1  0  0  0  0  0999 V2000
   19.2250  -17.7784  -16.0038 O   0  0  0  0  0  0  0  0  0  0  0  0
   20.1885  -18.4758  -15.2876 C   0  0  0  0  0  0  0  0  0  0  0  0
   21.2610  -17.7605  -14.7857 C   0  0  0  0  0  0  0  0  0  0  0  0
   22.2478  -18.4112  -14.0646 C   0  0  0  0  0  0  0  0  0  0  0  0
   22.1603  -19.7594  -13.8501 C   0  0  0  0  0  0  0  0  0  0  0  0
   23.2071  -20.4504  -13.0830 C   0  0  0  0  0  0  0  0  0  0  0  0
   24.4620  -20.5055  -13.9255 C   0  0  2  0  0  0  0  0  0  0  0  0
   24.2867  -21.1593  -15.1812 N   0  0  0  0  0  0  0  0  0  0  0  0
   25.6117  -21.0927  -13.2058 C   0  0  0  0  0  0  0  0  0  0  0  0
   25.7180  -22.3449  -13.1745 O   0  0  0  0  0  0  0  0  0  0  0  0
   21.0932  -20.4543  -14.3531 C   0  0  0  0  0  0  0  0  0  0  0  0
   20.0863  -19.8223  -15.0823 C   0  0  0  0  0  0  0  0  0  0  0  0
   26.5705  -20.2896  -12.5679 N   0  0  0  0  0  0  0  0  0  0  0  0
   27.6951  -20.8357  -11.7791 C   0  0  1  0  0  0  0  0  0  0  0  0
   28.9452  -20.4503  -12.4665 C   0  0  0  0  0  0  0  0  0  0  0  0
   29.8431  -21.5150  -12.9196 C   0  0  0  0  0  0  0  0  0  0  0  0
   29.7628  -22.2380  -14.0912 C   0  0  0  0  0  0  0  0  0  0  0  0
   30.7425  -23.1415  -14.1484 N   0  0  0  0  0  0  0  0  0  0  0  0
   31.4666  -23.0227  -13.0310 C   0  0  0  0  0  0  0  0  0  0  0  0
   32.5964  -23.6854  -12.5659 C   0  0  0  0  0  0  0  0  0  0  0  0
   33.2028  -23.3802  -11.3571 C   0  0  0  0  0  0  0  0  0  0  0  0
   32.6801  -22.3903  -10.5800 C   0  0  0  0  0  0  0  0  0  0  0  0
   31.5627  -21.7288  -11.0296 C   0  0  0  0  0  0  0  0  0  0  0  0
   30.9298  -22.0150  -12.2434 C   0  0  0  0  0  0  0  0  0  0  0  0
   27.5275  -20.5009  -10.3818 C   0  0  0  0  0  0  0  0  0  0  0  0
   28.2396  -19.6525   -9.7902 O   0  0  0  0  0  0  0  0  0  0  0  0
   27.4462  -20.1854   -4.0280 C   0  0  0  0  0  0  0  0  0  0  0  0
   28.0722  -19.3861   -5.5066 S   0  0  0  0  0  0  0  0  0  0  0  0
   26.8028  -18.8280   -6.6185 C   0  0  0  0  0  0  0  0  0  0  0  0
   26.7522  -19.4096   -7.9675 C   0  0  0  0  0  0  0  0  0  0  0  0
   26.3768  -20.8231   -8.1564 C   0  0  2  0  0  0  0  0  0  0  0  0
   26.5289  -21.1338   -9.6101 N   0  0  0  0  0  0  0  0  0  0  0  0
   24.9926  -21.1242   -7.8371 C   0  0  0  0  0  0  0  0  0  0  0  0
   24.4185  -22.3837   -8.0612 O   0  0  0  0  0  0  0  0  0  0  0  0
   24.2358  -20.2248   -7.3347 O   0  0  0  0  0  0  0  0  0  0  0  0
  2  1  1  0
  3  2  2  0
  4  3  1  0
  5  4  2  0
  5 11  1  0
  6  5  1  0
  7  6  1  0
  7  8  1  6
  9  7  1  0
 10  9  2  0
 11 12  2  0
 12  2  1  0
 13  9  1  0
 14 25  1  0
 14 13  1  0
 14 15  1  6
 16 15  1  0
 17 16  2  0
 18 17  1  0
 19 24  2  0
 19 18  1  0
 20 19  1  0
 21 20  2  0
 21 22  1  0
 22 23  2  0
 23 24  1  0
 24 16  1  0
 25 32  1  0
 26 25  2  0
 27 28  1  0
 28 29  1  0
 29 30  1  0
 31 30  1  6
 31 33  1  0
 32 31  1  0
 33 35  2  0
 33 34  1  0
M  END
$$$$
