YWM.pdb
     RDKit          3D

 35 37  0  0  1  0  0  0  0  0999 V2000
   19.7728  -14.0588  -23.8470 O   0  0  0  0  0  0  0  0  0  0  0  0
   19.8606  -13.2227  -22.7421 C   0  0  0  0  0  0  0  0  0  0  0  0
   20.2311  -13.7877  -21.5349 C   0  0  0  0  0  0  0  0  0  0  0  0
   20.3327  -12.9951  -20.4041 C   0  0  0  0  0  0  0  0  0  0  0  0
   20.0666  -11.6556  -20.4829 C   0  0  0  0  0  0  0  0  0  0  0  0
   20.1762  -10.8134  -19.2828 C   0  0  0  0  0  0  0  0  0  0  0  0
   21.3149   -9.8382  -19.4833 C   0  0  2  0  0  0  0  0  0  0  0  0
   22.5968  -10.4575  -19.5734 N   0  0  0  0  0  0  0  0  0  0  0  0
   21.3409   -8.7680  -18.4641 C   0  0  0  0  0  0  0  0  0  0  0  0
   21.9883   -8.9694  -17.4056 O   0  0  0  0  0  0  0  0  0  0  0  0
   19.7009  -11.1103  -21.6844 C   0  0  0  0  0  0  0  0  0  0  0  0
   19.5915  -11.8870  -22.8376 C   0  0  0  0  0  0  0  0  0  0  0  0
   20.6666   -7.5515  -18.6552 N   0  0  0  0  0  0  0  0  0  0  0  0
   20.6414   -6.4682  -17.6497 C   0  0  1  0  0  0  0  0  0  0  0  0
   20.3827   -5.2035  -18.3690 C   0  0  0  0  0  0  0  0  0  0  0  0
   21.4072   -4.7092  -19.2915 C   0  0  0  0  0  0  0  0  0  0  0  0
   22.7217   -5.1164  -19.3816 C   0  0  0  0  0  0  0  0  0  0  0  0
   23.3604   -4.4220  -20.3246 N   0  0  0  0  0  0  0  0  0  0  0  0
   22.4843   -3.5637  -20.8566 C   0  0  0  0  0  0  0  0  0  0  0  0
   22.5890   -2.6173  -21.8691 C   0  0  0  0  0  0  0  0  0  0  0  0
   21.5225   -1.8308  -22.2764 C   0  0  0  0  0  0  0  0  0  0  0  0
   20.3127   -1.9803  -21.6672 C   0  0  0  0  0  0  0  0  0  0  0  0
   20.1977   -2.9126  -20.6642 C   0  0  0  0  0  0  0  0  0  0  0  0
   21.2555   -3.7192  -20.2323 C   0  0  0  0  0  0  0  0  0  0  0  0
   19.7836   -6.8386  -16.5453 C   0  0  0  0  0  0  0  0  0  0  0  0
   18.5972   -7.2209  -16.6973 O   0  0  0  0  0  0  0  0  0  0  0  0
   18.1635  -10.2587  -10.1023 C   0  0  0  0  0  0  0  0  0  0  0  0
   18.7283   -9.8195  -11.7470 S   0  0  0  0  0  0  0  0  0  0  0  0
   19.6805   -8.3199  -11.8073 C   0  0  0  0  0  0  0  0  0  0  0  0
   20.2326   -7.8959  -13.1020 C   0  0  0  0  0  0  0  0  0  0  0  0
   19.3872   -7.1781  -14.0739 C   0  0  2  0  0  0  0  0  0  0  0  0
   20.2626   -6.7819  -15.2184 N   0  0  0  0  0  0  0  0  0  0  0  0
   18.8167   -5.9400  -13.5738 C   0  0  0  0  0  0  0  0  0  0  0  0
   17.5556   -5.8771  -12.9639 O   0  0  0  0  0  0  0  0  0  0  0  0
   19.4617   -4.8417  -13.6830 O   0  0  0  0  0  0  0  0  0  0  0  0
  2  1  1  0
  3  2  2  0
  4  3  1  0
  5  4  2  0
  5 11  1  0
  6  5  1  0
  7  6  1  0
  7  8  1  1
  9  7  1  0
 10  9  2  0
 11 12  2  0
 12  2  1  0
 13  9  1  0
 14 25  1  0
 14 13  1  0
 14 15  1  6
 16 15  1  0
 17 16  2  0
 18 17  1  0
 19 24  2  0
 19 18  1  0
 20 19  1  0
 21 20  2  0
 21 22  1  0
 22 23  2  0
 23 24  1  0
 24 16  1  0
 25 32  1  0
 26 25  2  0
 27 28  1  0
 28 29  1  0
 29 30  1  0
 31 30  1  1
 31 33  1  0
 32 31  1  0
 33 35  2  0
 33 34  1  0
M  END
$$$$
