YWM.pdb
     RDKit          3D

 35 37  0  0  1  0  0  0  0  0999 V2000
   32.1942  -16.6169  -20.6084 O   0  0  0  0  0  0  0  0  0  0  0  0
   31.3728  -16.8007  -19.5043 C   0  0  0  0  0  0  0  0  0  0  0  0
   31.0006  -15.6792  -18.7848 C   0  0  0  0  0  0  0  0  0  0  0  0
   30.1822  -15.8109  -17.6757 C   0  0  0  0  0  0  0  0  0  0  0  0
   29.7436  -17.0491  -17.2938 C   0  0  0  0  0  0  0  0  0  0  0  0
   28.8732  -17.1891  -16.1172 C   0  0  0  0  0  0  0  0  0  0  0  0
   27.4969  -17.6067  -16.5855 C   0  0  2  0  0  0  0  0  0  0  0  0
   26.8380  -16.6284  -17.3877 N   0  0  0  0  0  0  0  0  0  0  0  0
   26.6158  -18.0276  -15.4759 C   0  0  0  0  0  0  0  0  0  0  0  0
   26.2301  -17.1545  -14.6580 O   0  0  0  0  0  0  0  0  0  0  0  0
   30.1202  -18.1500  -18.0154 C   0  0  0  0  0  0  0  0  0  0  0  0
   30.9434  -18.0440  -19.1362 C   0  0  0  0  0  0  0  0  0  0  0  0
   26.2094  -19.3627  -15.3230 N   0  0  0  0  0  0  0  0  0  0  0  0
   25.2944  -19.8177  -14.2549 C   0  0  1  0  0  0  0  0  0  0  0  0
   24.3105  -20.7297  -14.8746 C   0  0  0  0  0  0  0  0  0  0  0  0
   23.3440  -21.4018  -14.0032 C   0  0  0  0  0  0  0  0  0  0  0  0
   22.2223  -20.8553  -13.4159 C   0  0  0  0  0  0  0  0  0  0  0  0
   21.5975  -21.7667  -12.6687 N   0  0  0  0  0  0  0  0  0  0  0  0
   22.2923  -22.9054  -12.7565 C   0  0  0  0  0  0  0  0  0  0  0  0
   22.1045  -24.1681  -12.2066 C   0  0  0  0  0  0  0  0  0  0  0  0
   22.9620  -25.2297  -12.4511 C   0  0  0  0  0  0  0  0  0  0  0  0
   24.0401  -25.0428  -13.2633 C   0  0  0  0  0  0  0  0  0  0  0  0
   24.2360  -23.7982  -13.8119 C   0  0  0  0  0  0  0  0  0  0  0  0
   23.3887  -22.7094  -13.5831 C   0  0  0  0  0  0  0  0  0  0  0  0
   26.0558  -20.2741  -13.1128 C   0  0  0  0  0  0  0  0  0  0  0  0
   27.0985  -20.9661  -13.2163 O   0  0  0  0  0  0  0  0  0  0  0  0
   28.7092  -19.4711   -5.8375 C   0  0  0  0  0  0  0  0  0  0  0  0
   28.1203  -18.8582   -7.4170 S   0  0  0  0  0  0  0  0  0  0  0  0
   27.3183  -20.0901   -8.4162 C   0  0  0  0  0  0  0  0  0  0  0  0
   26.8744  -19.7126   -9.7657 C   0  0  0  0  0  0  0  0  0  0  0  0
   26.1846  -20.6925  -10.6250 C   0  0  2  0  0  0  0  0  0  0  0  0
   25.6427  -19.9488  -11.8024 N   0  0  0  0  0  0  0  0  0  0  0  0
   25.0365  -21.3304  -10.0058 C   0  0  0  0  0  0  0  0  0  0  0  0
   25.1436  -22.4826   -9.2138 O   0  0  0  0  0  0  0  0  0  0  0  0
   23.8633  -20.8511  -10.1738 O   0  0  0  0  0  0  0  0  0  0  0  0
  2  1  1  0
  3  2  2  0
  4  3  1  0
  5  4  2  0
  5 11  1  0
  6  5  1  0
  7  6  1  0
  7  8  1  1
  9  7  1  0
 10  9  2  0
 11 12  2  0
 12  2  1  0
 13  9  1  0
 14 25  1  0
 14 13  1  0
 14 15  1  6
 16 15  1  0
 17 16  2  0
 18 17  1  0
 19 24  2  0
 19 18  1  0
 20 19  1  0
 21 20  2  0
 21 22  1  0
 22 23  2  0
 23 24  1  0
 24 16  1  0
 25 32  1  0
 26 25  2  0
 27 28  1  0
 28 29  1  0
 29 30  1  0
 31 30  1  1
 31 33  1  0
 32 31  1  0
 33 35  2  0
 33 34  1  0
M  END
$$$$
