MTC.pdb
     RDKit          3D

 22 21  0  0  1  0  0  0  0  0999 V2000
   30.5810  -22.8731  -12.2172 C   0  0  0  0  0  0  0  0  0  0  0  0
   29.8863  -21.9057  -10.8612 S   0  0  0  0  0  0  0  0  0  0  0  0
   29.8634  -20.1632  -11.3615 C   0  0  0  0  0  0  0  0  0  0  0  0
   28.5501  -19.8149  -12.0302 C   0  0  0  0  0  0  0  0  0  0  0  0
   28.5241  -20.3883  -13.4308 C   0  0  2  0  0  0  0  0  0  0  0  0
   29.6816  -19.9790  -14.1882 N   0  0  0  0  0  0  0  0  0  0  0  0
   27.3001  -19.9389  -14.1516 C   0  0  0  0  0  0  0  0  0  0  0  0
   27.2059  -18.7897  -14.6242 O   0  0  0  0  0  0  0  0  0  0  0  0
   26.3257  -20.8746  -17.1714 C   0  0  0  0  0  0  0  0  0  0  0  0
   25.0990  -21.2037  -16.3926 C   0  0  1  0  0  0  0  0  0  0  0  0
   24.9640  -22.5739  -16.1504 O   0  0  0  0  0  0  0  0  0  0  0  0
   25.0086  -20.4404  -15.0863 C   0  0  2  0  0  0  0  0  0  0  0  0
   26.2023  -20.8188  -14.3176 N   0  0  0  0  0  0  0  0  0  0  0  0
   23.8414  -20.8583  -14.2846 C   0  0  0  0  0  0  0  0  0  0  0  0
   23.9487  -21.3608  -13.1142 O   0  0  0  0  0  0  0  0  0  0  0  0
   22.4960  -20.7362  -14.7496 N   0  0  0  0  0  0  0  0  0  0  0  0
   21.3680  -21.1788  -14.0036 C   0  0  1  0  0  0  0  0  0  0  0  0
   21.2406  -20.5528  -12.6422 C   0  0  0  0  0  0  0  0  0  0  0  0
   19.7273  -21.2368  -11.8725 S   0  0  0  0  0  0  0  0  0  0  0  0
   20.1363  -21.0156  -14.8127 C   0  0  0  0  0  0  0  0  0  0  0  0
   19.0606  -21.8607  -14.5864 O   0  0  0  0  0  0  0  0  0  0  0  0
   20.0077  -20.1430  -15.7053 O   0  0  0  0  0  0  0  0  0  0  0  0
  2  1  1  0
  3  4  1  0
  3  2  1  0
  4  5  1  0
  5  7  1  0
  5  6  1  6
  7  8  2  0
 10  9  1  1
 10 12  1  0
 11 10  1  0
 12 14  1  0
 12 13  1  1
 13  7  1  0
 14 15  2  0
 16 17  1  0
 16 14  1  0
 17 20  1  0
 17 18  1  1
 19 18  1  0
 20 22  2  0
 20 21  1  0
M  END
$$$$
