MTC.pdb
     RDKit          3D

 22 21  0  0  1  0  0  0  0  0999 V2000
   22.6561  -18.1110  -14.9122 C   0  0  0  0  0  0  0  0  0  0  0  0
   22.7750  -16.4017  -15.4790 S   0  0  0  0  0  0  0  0  0  0  0  0
   24.4627  -15.8172  -15.1675 C   0  0  0  0  0  0  0  0  0  0  0  0
   24.5847  -14.3405  -15.4802 C   0  0  0  0  0  0  0  0  0  0  0  0
   24.0134  -14.0620  -16.8539 C   0  0  2  0  0  0  0  0  0  0  0  0
   24.7853  -14.7106  -17.8857 N   0  0  0  0  0  0  0  0  0  0  0  0
   23.9979  -12.5965  -17.1210 C   0  0  0  0  0  0  0  0  0  0  0  0
   25.0524  -11.9476  -17.2624 O   0  0  0  0  0  0  0  0  0  0  0  0
   22.9210  -10.9534  -20.0315 C   0  0  0  0  0  0  0  0  0  0  0  0
   22.0475  -10.4247  -18.9464 C   0  0  1  0  0  0  0  0  0  0  0  0
   20.8039  -11.0611  -18.8954 O   0  0  0  0  0  0  0  0  0  0  0  0
   22.7066  -10.4761  -17.5825 C   0  0  2  0  0  0  0  0  0  0  0  0
   22.7689  -11.8989  -17.2209 N   0  0  0  0  0  0  0  0  0  0  0  0
   21.8852   -9.8146  -16.5493 C   0  0  0  0  0  0  0  0  0  0  0  0
   20.8511  -10.3595  -16.0323 O   0  0  0  0  0  0  0  0  0  0  0  0
   22.1774   -8.5114  -16.0418 N   0  0  0  0  0  0  0  0  0  0  0  0
   21.3921   -7.8664  -15.0457 C   0  0  1  0  0  0  0  0  0  0  0  0
   22.1387   -7.5427  -13.7810 C   0  0  0  0  0  0  0  0  0  0  0  0
   22.4090   -9.1210  -12.8943 S   0  0  0  0  0  0  0  0  0  0  0  0
   20.7282   -6.6740  -15.6250 C   0  0  0  0  0  0  0  0  0  0  0  0
   19.7727   -6.0015  -14.8786 O   0  0  0  0  0  0  0  0  0  0  0  0
   20.9843   -6.2299  -16.7704 O   0  0  0  0  0  0  0  0  0  0  0  0
  2  1  1  0
  3  4  1  0
  3  2  1  0
  4  5  1  0
  5  7  1  0
  5  6  1  6
  7  8  2  0
 10  9  1  6
 10 12  1  0
 11 10  1  0
 12 14  1  0
 12 13  1  1
 13  7  1  0
 14 15  2  0
 16 17  1  0
 16 14  1  0
 17 20  1  0
 17 18  1  1
 19 18  1  0
 20 22  2  0
 20 21  1  0
M  END
$$$$
