MTC.pdb
     RDKit          3D

 22 21  0  0  1  0  0  0  0  0999 V2000
   28.6205  -28.2903  -19.6935 C   0  0  0  0  0  0  0  0  0  0  0  0
   30.1751  -27.3762  -19.6239 S   0  0  0  0  0  0  0  0  0  0  0  0
   30.9033  -27.6204  -17.9817 C   0  0  0  0  0  0  0  0  0  0  0  0
   30.2343  -26.7248  -16.9602 C   0  0  0  0  0  0  0  0  0  0  0  0
   30.7489  -25.3092  -17.1094 C   0  0  2  0  0  0  0  0  0  0  0  0
   32.1232  -25.2018  -16.6840 N   0  0  0  0  0  0  0  0  0  0  0  0
   29.9246  -24.3703  -16.2979 C   0  0  0  0  0  0  0  0  0  0  0  0
   30.3564  -23.8676  -15.2425 O   0  0  0  0  0  0  0  0  0  0  0  0
   27.8720  -21.7867  -18.2108 C   0  0  0  0  0  0  0  0  0  0  0  0
   28.1085  -21.6973  -16.7425 C   0  0  1  0  0  0  0  0  0  0  0  0
   27.3943  -20.6561  -16.1425 O   0  0  0  0  0  0  0  0  0  0  0  0
   27.8228  -22.9987  -16.0199 C   0  0  2  0  0  0  0  0  0  0  0  0
   28.6150  -24.0240  -16.7127 N   0  0  0  0  0  0  0  0  0  0  0  0
   26.4081  -23.4007  -16.1495 C   0  0  0  0  0  0  0  0  0  0  0  0
   25.9230  -23.8917  -17.2253 O   0  0  0  0  0  0  0  0  0  0  0  0
   25.4643  -23.2747  -15.0844 N   0  0  0  0  0  0  0  0  0  0  0  0
   24.1093  -23.6969  -15.1867 C   0  0  1  0  0  0  0  0  0  0  0  0
   23.4380  -23.9523  -13.8654 C   0  0  0  0  0  0  0  0  0  0  0  0
   23.5949  -22.4211  -12.8749 S   0  0  0  0  0  0  0  0  0  0  0  0
   23.3481  -22.7407  -16.0260 C   0  0  0  0  0  0  0  0  0  0  0  0
   22.1382  -23.1363  -16.5756 O   0  0  0  0  0  0  0  0  0  0  0  0
   23.7409  -21.5746  -16.2727 O   0  0  0  0  0  0  0  0  0  0  0  0
  2  1  1  0
  3  4  1  0
  3  2  1  0
  4  5  1  0
  5  7  1  0
  5  6  1  1
  7  8  2  0
 10  9  1  6
 10 12  1  0
 11 10  1  0
 12 14  1  0
 12 13  1  6
 13  7  1  0
 14 15  2  0
 16 17  1  0
 16 14  1  0
 17 20  1  0
 17 18  1  1
 19 18  1  0
 20 22  2  0
 20 21  1  0
M  END
$$$$
