MTC.pdb
     RDKit          3D

 22 21  0  0  1  0  0  0  0  0999 V2000
   24.0542  -15.8411  -14.7847 C   0  0  0  0  0  0  0  0  0  0  0  0
   24.3815  -14.1139  -15.1928 S   0  0  0  0  0  0  0  0  0  0  0  0
   23.0265  -13.5111  -16.2356 C   0  0  0  0  0  0  0  0  0  0  0  0
   23.1960  -12.0364  -16.5352 C   0  0  0  0  0  0  0  0  0  0  0  0
   22.1244  -11.5874  -17.5053 C   0  0  2  0  0  0  0  0  0  0  0  0
   22.2617  -12.2451  -18.7818 N   0  0  0  0  0  0  0  0  0  0  0  0
   22.2021  -10.1148  -17.7175 C   0  0  0  0  0  0  0  0  0  0  0  0
   23.1761   -9.5883  -18.2895 O   0  0  0  0  0  0  0  0  0  0  0  0
   20.7073   -7.9544  -19.9241 C   0  0  0  0  0  0  0  0  0  0  0  0
   20.2045   -7.5311  -18.5870 C   0  0  1  0  0  0  0  0  0  0  0  0
   18.9620   -8.0906  -18.2750 O   0  0  0  0  0  0  0  0  0  0  0  0
   21.1898   -7.8147  -17.4707 C   0  0  2  0  0  0  0  0  0  0  0  0
   21.1578   -9.2696  -17.2680 N   0  0  0  0  0  0  0  0  0  0  0  0
   20.7674   -7.2024  -16.1954 C   0  0  0  0  0  0  0  0  0  0  0  0
   19.7734   -7.6317  -15.5163 O   0  0  0  0  0  0  0  0  0  0  0  0
   21.4339   -6.0800  -15.6146 N   0  0  0  0  0  0  0  0  0  0  0  0
   21.0092   -5.4575  -14.4076 C   0  0  1  0  0  0  0  0  0  0  0  0
   22.0228   -5.5012  -13.2975 C   0  0  0  0  0  0  0  0  0  0  0  0
   22.1477   -7.2427  -12.7482 S   0  0  0  0  0  0  0  0  0  0  0  0
   20.5477   -4.0772  -14.6907 C   0  0  0  0  0  0  0  0  0  0  0  0
   19.9329   -3.3489  -13.6838 O   0  0  0  0  0  0  0  0  0  0  0  0
   20.6831   -3.5197  -15.8068 O   0  0  0  0  0  0  0  0  0  0  0  0
  2  1  1  0
  3  4  1  0
  3  2  1  0
  4  5  1  0
  5  7  1  0
  5  6  1  6
  7  8  2  0
 10  9  1  6
 10 12  1  0
 11 10  1  0
 12 14  1  0
 12 13  1  1
 13  7  1  0
 14 15  2  0
 16 17  1  0
 16 14  1  0
 17 20  1  0
 17 18  1  1
 19 18  1  0
 20 22  2  0
 20 21  1  0
M  END
$$$$
