MTC.pdb
     RDKit          3D

 22 21  0  0  1  0  0  0  0  0999 V2000
   16.8729  -15.1581  -16.2935 C   0  0  0  0  0  0  0  0  0  0  0  0
   17.4227  -14.9067  -17.9940 S   0  0  0  0  0  0  0  0  0  0  0  0
   19.1540  -14.3701  -17.9567 C   0  0  0  0  0  0  0  0  0  0  0  0
   19.3219  -13.1636  -17.0571 C   0  0  0  0  0  0  0  0  0  0  0  0
   20.7819  -12.7676  -17.0036 C   0  0  2  0  0  0  0  0  0  0  0  0
   21.5952  -13.8292  -16.4626 N   0  0  0  0  0  0  0  0  0  0  0  0
   20.9586  -11.5541  -16.1576 C   0  0  0  0  0  0  0  0  0  0  0  0
   20.7783  -11.5859  -14.9250 O   0  0  0  0  0  0  0  0  0  0  0  0
   23.8119   -9.7244  -15.1517 C   0  0  0  0  0  0  0  0  0  0  0  0
   23.0030   -8.7936  -15.9879 C   0  0  1  0  0  0  0  0  0  0  0  0
   23.4373   -8.7441  -17.3157 O   0  0  0  0  0  0  0  0  0  0  0  0
   21.5196   -9.1013  -15.9442 C   0  0  2  0  0  0  0  0  0  0  0  0
   21.3398  -10.3215  -16.7429 N   0  0  0  0  0  0  0  0  0  0  0  0
   20.7196   -8.0475  -16.5995 C   0  0  0  0  0  0  0  0  0  0  0  0
   20.5075   -8.0212  -17.8597 O   0  0  0  0  0  0  0  0  0  0  0  0
   20.1166   -6.9702  -15.8805 N   0  0  0  0  0  0  0  0  0  0  0  0
   19.4133   -5.9062  -16.5114 C   0  0  1  0  0  0  0  0  0  0  0  0
   18.0052   -5.7158  -16.0188 C   0  0  0  0  0  0  0  0  0  0  0  0
   17.3893   -4.1485  -16.7361 S   0  0  0  0  0  0  0  0  0  0  0  0
   20.2099   -4.6587  -16.4265 C   0  0  0  0  0  0  0  0  0  0  0  0
   19.9791   -3.6442  -17.3430 O   0  0  0  0  0  0  0  0  0  0  0  0
   21.0958   -4.4633  -15.5594 O   0  0  0  0  0  0  0  0  0  0  0  0
  2  1  1  0
  3  4  1  0
  3  2  1  0
  4  5  1  0
  5  7  1  0
  5  6  1  1
  7  8  2  0
 10  9  1  1
 10 12  1  0
 11 10  1  0
 12 14  1  0
 12 13  1  6
 13  7  1  0
 14 15  2  0
 16 17  1  0
 16 14  1  0
 17 20  1  0
 17 18  1  1
 19 18  1  0
 20 22  2  0
 20 21  1  0
M  END
$$$$
