MTC.pdb
     RDKit          3D

 22 21  0  0  1  0  0  0  0  0999 V2000
   27.3937  -15.1130  -15.1249 C   0  0  0  0  0  0  0  0  0  0  0  0
   26.8737  -13.5919  -15.9453 S   0  0  0  0  0  0  0  0  0  0  0  0
   25.0672  -13.4801  -15.8403 C   0  0  0  0  0  0  0  0  0  0  0  0
   24.5794  -12.1559  -16.3895 C   0  0  0  0  0  0  0  0  0  0  0  0
   23.0659  -12.1358  -16.4006 C   0  0  2  0  0  0  0  0  0  0  0  0
   22.5318  -13.2002  -17.2148 N   0  0  0  0  0  0  0  0  0  0  0  0
   22.5692  -10.8353  -16.9313 C   0  0  0  0  0  0  0  0  0  0  0  0
   22.5379  -10.5986  -18.1543 O   0  0  0  0  0  0  0  0  0  0  0  0
   19.5382   -9.5024  -17.5202 C   0  0  0  0  0  0  0  0  0  0  0  0
   20.1100   -8.6144  -16.4693 C   0  0  1  0  0  0  0  0  0  0  0  0
   19.7072   -8.9742  -15.1800 O   0  0  0  0  0  0  0  0  0  0  0  0
   21.6221   -8.5292  -16.5294 C   0  0  2  0  0  0  0  0  0  0  0  0
   22.1160   -9.8260  -16.0464 N   0  0  0  0  0  0  0  0  0  0  0  0
   22.1526   -7.5063  -15.6065 C   0  0  0  0  0  0  0  0  0  0  0  0
   22.4021   -7.7457  -14.3760 O   0  0  0  0  0  0  0  0  0  0  0  0
   22.4310   -6.1647  -16.0113 N   0  0  0  0  0  0  0  0  0  0  0  0
   22.9411   -5.1718  -15.1288 C   0  0  1  0  0  0  0  0  0  0  0  0
   23.6600   -4.0430  -15.8146 C   0  0  0  0  0  0  0  0  0  0  0  0
   25.0375   -4.7800  -16.7684 S   0  0  0  0  0  0  0  0  0  0  0  0
   21.8584   -4.6878  -14.2390 C   0  0  0  0  0  0  0  0  0  0  0  0
   22.1903   -4.0652  -13.0454 O   0  0  0  0  0  0  0  0  0  0  0  0
   20.6385   -4.8105  -14.5068 O   0  0  0  0  0  0  0  0  0  0  0  0
  2  1  1  0
  3  4  1  0
  3  2  1  0
  4  5  1  0
  5  7  1  0
  5  6  1  6
  7  8  2  0
 10  9  1  6
 10 12  1  0
 11 10  1  0
 12 14  1  0
 12 13  1  1
 13  7  1  0
 14 15  2  0
 16 17  1  0
 16 14  1  0
 17 20  1  0
 17 18  1  6
 19 18  1  0
 20 22  2  0
 20 21  1  0
M  END
$$$$
