MTC.pdb
     RDKit          3D

 22 21  0  0  1  0  0  0  0  0999 V2000
   15.9035   -6.6238   -7.0245 C   0  0  0  0  0  0  0  0  0  0  0  0
   14.1838   -6.2645   -7.4376 S   0  0  0  0  0  0  0  0  0  0  0  0
   13.6899   -7.3504   -8.8028 C   0  0  0  0  0  0  0  0  0  0  0  0
   14.8916   -7.7448   -9.6356 C   0  0  0  0  0  0  0  0  0  0  0  0
   14.4605   -8.6918  -10.7349 C   0  0  2  0  0  0  0  0  0  0  0  0
   13.9506   -9.9281  -10.1939 N   0  0  0  0  0  0  0  0  0  0  0  0
   15.6095   -9.0023  -11.6309 C   0  0  0  0  0  0  0  0  0  0  0  0
   16.1932  -10.1024  -11.5866 O   0  0  0  0  0  0  0  0  0  0  0  0
   15.5800   -9.2381  -15.2826 C   0  0  0  0  0  0  0  0  0  0  0  0
   16.5137   -8.1411  -14.9024 C   0  0  1  0  0  0  0  0  0  0  0  0
   15.9195   -6.8777  -14.9713 O   0  0  0  0  0  0  0  0  0  0  0  0
   17.1330   -8.3430  -13.5338 C   0  0  2  0  0  0  0  0  0  0  0  0
   16.0703   -8.0417  -12.5648 N   0  0  0  0  0  0  0  0  0  0  0  0
   18.2230   -7.3813  -13.2759 C   0  0  0  0  0  0  0  0  0  0  0  0
   18.0294   -6.2473  -12.7189 O   0  0  0  0  0  0  0  0  0  0  0  0
   19.5840   -7.6376  -13.6272 N   0  0  0  0  0  0  0  0  0  0  0  0
   20.6356   -6.7032  -13.4135 C   0  0  1  0  0  0  0  0  0  0  0  0
   22.0123   -7.3084  -13.4139 C   0  0  0  0  0  0  0  0  0  0  0  0
   22.0499   -8.5659  -12.0844 S   0  0  0  0  0  0  0  0  0  0  0  0
   20.5157   -5.5839  -14.3785 C   0  0  0  0  0  0  0  0  0  0  0  0
   21.2078   -4.4065  -14.1392 O   0  0  0  0  0  0  0  0  0  0  0  0
   19.8128   -5.6401  -15.4165 O   0  0  0  0  0  0  0  0  0  0  0  0
  2  1  1  0
  3  4  1  0
  3  2  1  0
  4  5  1  0
  5  7  1  0
  5  6  1  1
  7  8  2  0
 10  9  1  1
 10 12  1  0
 11 10  1  0
 12 14  1  0
 12 13  1  1
 13  7  1  0
 14 15  2  0
 16 17  1  0
 16 14  1  0
 17 20  1  0
 17 18  1  6
 19 18  1  0
 20 22  2  0
 20 21  1  0
M  END
$$$$
