MTC.pdb
     RDKit          3D

 22 21  0  0  1  0  0  0  0  0999 V2000
   28.2877  -11.7522  -15.9037 C   0  0  0  0  0  0  0  0  0  0  0  0
   27.9431  -13.5185  -16.0401 S   0  0  0  0  0  0  0  0  0  0  0  0
   26.2589  -13.8156  -15.4382 C   0  0  0  0  0  0  0  0  0  0  0  0
   25.3905  -12.5934  -15.6506 C   0  0  0  0  0  0  0  0  0  0  0  0
   23.9731  -12.8935  -15.2120 C   0  0  2  0  0  0  0  0  0  0  0  0
   23.5404  -14.1873  -15.6810 N   0  0  0  0  0  0  0  0  0  0  0  0
   23.0385  -11.8593  -15.7378 C   0  0  0  0  0  0  0  0  0  0  0  0
   22.6344  -11.8834  -16.9164 O   0  0  0  0  0  0  0  0  0  0  0  0
   19.6307  -11.2226  -15.1460 C   0  0  0  0  0  0  0  0  0  0  0  0
   20.3521  -10.0159  -14.6527 C   0  0  1  0  0  0  0  0  0  0  0  0
   20.5756  -10.0464  -13.2731 O   0  0  0  0  0  0  0  0  0  0  0  0
   21.6601   -9.7741  -15.3792 C   0  0  2  0  0  0  0  0  0  0  0  0
   22.5828  -10.8122  -14.8994 N   0  0  0  0  0  0  0  0  0  0  0  0
   22.2604   -8.4757  -15.0138 C   0  0  0  0  0  0  0  0  0  0  0  0
   23.0717   -8.3379  -14.0358 O   0  0  0  0  0  0  0  0  0  0  0  0
   21.9848   -7.2660  -15.7223 N   0  0  0  0  0  0  0  0  0  0  0  0
   22.5969   -6.0201  -15.4094 C   0  0  1  0  0  0  0  0  0  0  0  0
   22.6337   -5.0431  -16.5520 C   0  0  0  0  0  0  0  0  0  0  0  0
   23.4450   -5.8874  -17.9589 S   0  0  0  0  0  0  0  0  0  0  0  0
   21.9668   -5.4420  -14.1982 C   0  0  0  0  0  0  0  0  0  0  0  0
   22.6566   -4.4879  -13.4659 O   0  0  0  0  0  0  0  0  0  0  0  0
   20.8267   -5.7708  -13.7897 O   0  0  0  0  0  0  0  0  0  0  0  0
  2  1  1  0
  3  4  1  0
  3  2  1  0
  4  5  1  0
  5  7  1  0
  5  6  1  6
  7  8  2  0
 10  9  1  6
 10 12  1  0
 11 10  1  0
 12 14  1  0
 12 13  1  1
 13  7  1  0
 14 15  2  0
 16 17  1  0
 16 14  1  0
 17 20  1  0
 17 18  1  6
 19 18  1  0
 20 22  2  0
 20 21  1  0
M  END
$$$$
