MTC.pdb
     RDKit          3D

 22 21  0  0  1  0  0  0  0  0999 V2000
   27.6299  -12.2083  -15.2229 C   0  0  0  0  0  0  0  0  0  0  0  0
   27.2196  -13.9619  -15.3400 S   0  0  0  0  0  0  0  0  0  0  0  0
   25.4149  -14.1181  -15.4151 C   0  0  0  0  0  0  0  0  0  0  0  0
   24.7753  -12.7875  -15.7519 C   0  0  0  0  0  0  0  0  0  0  0  0
   23.2694  -12.9383  -15.7774 C   0  0  2  0  0  0  0  0  0  0  0  0
   22.8651  -14.0353  -16.6225 N   0  0  0  0  0  0  0  0  0  0  0  0
   22.6324  -11.6893  -16.2810 C   0  0  0  0  0  0  0  0  0  0  0  0
   22.5259  -11.4569  -17.5006 O   0  0  0  0  0  0  0  0  0  0  0  0
   19.2120  -10.6991  -16.1228 C   0  0  0  0  0  0  0  0  0  0  0  0
   19.9816   -9.6939  -15.3372 C   0  0  1  0  0  0  0  0  0  0  0  0
   19.9815   -9.9646  -13.9658 O   0  0  0  0  0  0  0  0  0  0  0  0
   21.4062   -9.5289  -15.8276 C   0  0  2  0  0  0  0  0  0  0  0  0
   22.1275  -10.7258  -15.3734 N   0  0  0  0  0  0  0  0  0  0  0  0
   22.0736   -8.3714  -15.1995 C   0  0  0  0  0  0  0  0  0  0  0  0
   22.7965   -8.4736  -14.1503 O   0  0  0  0  0  0  0  0  0  0  0  0
   21.9672   -7.0418  -15.7114 N   0  0  0  0  0  0  0  0  0  0  0  0
   22.6340   -5.9258  -15.1328 C   0  0  1  0  0  0  0  0  0  0  0  0
   22.9185   -4.8062  -16.0957 C   0  0  0  0  0  0  0  0  0  0  0  0
   23.8433   -5.5251  -17.5022 S   0  0  0  0  0  0  0  0  0  0  0  0
   21.8896   -5.4612  -13.9377 C   0  0  0  0  0  0  0  0  0  0  0  0
   22.5237   -4.6320  -13.0251 O   0  0  0  0  0  0  0  0  0  0  0  0
   20.6994   -5.7795  -13.6993 O   0  0  0  0  0  0  0  0  0  0  0  0
  2  1  1  0
  3  4  1  0
  3  2  1  0
  4  5  1  0
  5  7  1  0
  5  6  1  6
  7  8  2  0
 10  9  1  6
 10 12  1  0
 11 10  1  0
 12 14  1  0
 12 13  1  1
 13  7  1  0
 14 15  2  0
 16 17  1  0
 16 14  1  0
 17 20  1  0
 17 18  1  6
 19 18  1  0
 20 22  2  0
 20 21  1  0
M  END
$$$$
