MTC.pdb
     RDKit          3D

 22 21  0  0  1  0  0  0  0  0999 V2000
   28.1065  -18.1195   -6.0797 C   0  0  0  0  0  0  0  0  0  0  0  0
   28.5757  -19.8471   -5.8514 S   0  0  0  0  0  0  0  0  0  0  0  0
   27.4893  -20.8705   -6.8806 C   0  0  0  0  0  0  0  0  0  0  0  0
   27.2352  -20.2059   -8.2173 C   0  0  0  0  0  0  0  0  0  0  0  0
   26.4170  -21.1270   -9.0966 C   0  0  2  0  0  0  0  0  0  0  0  0
   27.0897  -22.3853   -9.3097 N   0  0  0  0  0  0  0  0  0  0  0  0
   26.1658  -20.4912  -10.4203 C   0  0  0  0  0  0  0  0  0  0  0  0
   27.0539  -19.8517  -11.0163 O   0  0  0  0  0  0  0  0  0  0  0  0
   26.8818  -21.4122  -12.9344 C   0  0  0  0  0  0  0  0  0  0  0  0
   25.4212  -21.3798  -13.2266 C   0  0  1  0  0  0  0  0  0  0  0  0
   24.7990  -22.6124  -13.0082 O   0  0  0  0  0  0  0  0  0  0  0  0
   24.6917  -20.2940  -12.4610 C   0  0  2  0  0  0  0  0  0  0  0  0
   24.8958  -20.6004  -11.0385 N   0  0  0  0  0  0  0  0  0  0  0  0
   23.2349  -20.3387  -12.6966 C   0  0  0  0  0  0  0  0  0  0  0  0
   22.3766  -20.1659  -11.7654 O   0  0  0  0  0  0  0  0  0  0  0  0
   22.6635  -20.5788  -13.9839 N   0  0  0  0  0  0  0  0  0  0  0  0
   21.5458  -19.8579  -14.4896 C   0  0  1  0  0  0  0  0  0  0  0  0
   21.7130  -18.3634  -14.4733 C   0  0  0  0  0  0  0  0  0  0  0  0
   20.0483  -17.6313  -14.6809 S   0  0  0  0  0  0  0  0  0  0  0  0
   21.1881  -20.3668  -15.8355 C   0  0  0  0  0  0  0  0  0  0  0  0
   19.8748  -20.7270  -16.0963 O   0  0  0  0  0  0  0  0  0  0  0  0
   22.0179  -20.4930  -16.7684 O   0  0  0  0  0  0  0  0  0  0  0  0
  2  1  1  0
  3  4  1  0
  3  2  1  0
  4  5  1  0
  5  7  1  0
  5  6  1  6
  7  8  2  0
 10  9  1  1
 10 12  1  0
 11 10  1  0
 12 14  1  0
 12 13  1  1
 13  7  1  0
 14 15  2  0
 16 17  1  0
 16 14  1  0
 17 20  1  0
 17 18  1  6
 19 18  1  0
 20 22  2  0
 20 21  1  0
M  END
$$$$
