MTC.pdb
     RDKit          3D

 22 21  0  0  1  0  0  0  0  0999 V2000
   26.4878  -18.4226   -6.7278 C   0  0  0  0  0  0  0  0  0  0  0  0
   27.9868  -19.4276   -6.7319 S   0  0  0  0  0  0  0  0  0  0  0  0
   27.7736  -20.7589   -7.9440 C   0  0  0  0  0  0  0  0  0  0  0  0
   27.1356  -20.2318   -9.2122 C   0  0  0  0  0  0  0  0  0  0  0  0
   26.9821  -21.3586  -10.2113 C   0  0  2  0  0  0  0  0  0  0  0  0
   28.2499  -21.9854  -10.4957 N   0  0  0  0  0  0  0  0  0  0  0  0
   26.4079  -20.8453  -11.4865 C   0  0  0  0  0  0  0  0  0  0  0  0
   27.0452  -20.0679  -12.2231 O   0  0  0  0  0  0  0  0  0  0  0  0
   25.6827  -22.8208  -14.3150 C   0  0  0  0  0  0  0  0  0  0  0  0
   24.3866  -22.1778  -13.9591 C   0  0  1  0  0  0  0  0  0  0  0  0
   23.5428  -23.0265  -13.2367 O   0  0  0  0  0  0  0  0  0  0  0  0
   24.5634  -20.8716  -13.2109 C   0  0  2  0  0  0  0  0  0  0  0  0
   25.1083  -21.2339  -11.8953 N   0  0  0  0  0  0  0  0  0  0  0  0
   23.2718  -20.2013  -12.9616 C   0  0  0  0  0  0  0  0  0  0  0  0
   22.8350  -19.9536  -11.7862 O   0  0  0  0  0  0  0  0  0  0  0  0
   22.4031  -19.7740  -14.0124 N   0  0  0  0  0  0  0  0  0  0  0  0
   21.1327  -19.1760  -13.7817 C   0  0  1  0  0  0  0  0  0  0  0  0
   21.1080  -17.6833  -13.9631 C   0  0  0  0  0  0  0  0  0  0  0  0
   21.7415  -17.3328  -15.6442 S   0  0  0  0  0  0  0  0  0  0  0  0
   20.1017  -19.8569  -14.6012 C   0  0  0  0  0  0  0  0  0  0  0  0
   18.7613  -19.6271  -14.3310 O   0  0  0  0  0  0  0  0  0  0  0  0
   20.3751  -20.6424  -15.5410 O   0  0  0  0  0  0  0  0  0  0  0  0
  2  1  1  0
  3  4  1  0
  3  2  1  0
  4  5  1  0
  5  7  1  0
  5  6  1  6
  7  8  2  0
 10  9  1  1
 10 12  1  0
 11 10  1  0
 12 14  1  0
 12 13  1  1
 13  7  1  0
 14 15  2  0
 16 17  1  0
 16 14  1  0
 17 20  1  0
 17 18  1  6
 19 18  1  0
 20 22  2  0
 20 21  1  0
M  END
$$$$
