MTC.pdb
     RDKit          3D

 22 21  0  0  1  0  0  0  0  0999 V2000
   20.2176  -23.0310   -8.5371 C   0  0  0  0  0  0  0  0  0  0  0  0
   21.6129  -22.2300   -9.3548 S   0  0  0  0  0  0  0  0  0  0  0  0
   21.5997  -20.4731   -8.9079 C   0  0  0  0  0  0  0  0  0  0  0  0
   22.6705  -19.7187   -9.6677 C   0  0  0  0  0  0  0  0  0  0  0  0
   23.8888  -20.6002   -9.8406 C   0  0  2  0  0  0  0  0  0  0  0  0
   24.6910  -20.6295   -8.6420 N   0  0  0  0  0  0  0  0  0  0  0  0
   24.7311  -20.1047  -10.9652 C   0  0  0  0  0  0  0  0  0  0  0  0
   25.5231  -19.1539  -10.8178 O   0  0  0  0  0  0  0  0  0  0  0  0
   27.4452  -21.5393  -12.8018 C   0  0  0  0  0  0  0  0  0  0  0  0
   26.3510  -21.3272  -13.7905 C   0  0  1  0  0  0  0  0  0  0  0  0
   25.6206  -22.4914  -14.0461 O   0  0  0  0  0  0  0  0  0  0  0  0
   25.4096  -20.2071  -13.3953 C   0  0  2  0  0  0  0  0  0  0  0  0
   24.6491  -20.7104  -12.2432 N   0  0  0  0  0  0  0  0  0  0  0  0
   24.4243  -19.9167  -14.4558 C   0  0  0  0  0  0  0  0  0  0  0  0
   23.2261  -20.3608  -14.4289 O   0  0  0  0  0  0  0  0  0  0  0  0
   24.7277  -19.1160  -15.5995 N   0  0  0  0  0  0  0  0  0  0  0  0
   23.7628  -18.7605  -16.5830 C   0  0  1  0  0  0  0  0  0  0  0  0
   24.1852  -17.6363  -17.4882 C   0  0  0  0  0  0  0  0  0  0  0  0
   25.8315  -18.0725  -18.1591 S   0  0  0  0  0  0  0  0  0  0  0  0
   23.3522  -19.9663  -17.3417 C   0  0  0  0  0  0  0  0  0  0  0  0
   22.1970  -19.9239  -18.1072 O   0  0  0  0  0  0  0  0  0  0  0  0
   23.9995  -21.0414  -17.3317 O   0  0  0  0  0  0  0  0  0  0  0  0
  2  1  1  0
  3  4  1  0
  3  2  1  0
  4  5  1  0
  5  7  1  0
  5  6  1  1
  7  8  2  0
 10  9  1  1
 10 12  1  0
 11 10  1  0
 12 14  1  0
 12 13  1  1
 13  7  1  0
 14 15  2  0
 16 17  1  0
 16 14  1  0
 17 20  1  0
 17 18  1  6
 19 18  1  0
 20 22  2  0
 20 21  1  0
M  END
$$$$
