MTC.pdb
     RDKit          3D

 22 21  0  0  1  0  0  0  0  0999 V2000
   31.5798  -22.9608   -9.4744 C   0  0  0  0  0  0  0  0  0  0  0  0
   32.1044  -21.3330  -10.0507 S   0  0  0  0  0  0  0  0  0  0  0  0
   30.9367  -20.7779  -11.3215 C   0  0  0  0  0  0  0  0  0  0  0  0
   29.7064  -21.6606  -11.3412 C   0  0  0  0  0  0  0  0  0  0  0  0
   28.7608  -21.1921  -12.4263 C   0  0  2  0  0  0  0  0  0  0  0  0
   28.8253  -19.7613  -12.5982 N   0  0  0  0  0  0  0  0  0  0  0  0
   27.3592  -21.5686  -12.0898 C   0  0  0  0  0  0  0  0  0  0  0  0
   27.0639  -22.7213  -11.7196 O   0  0  0  0  0  0  0  0  0  0  0  0
   23.1597  -20.1658  -10.2690 C   0  0  0  0  0  0  0  0  0  0  0  0
   24.6194  -20.2518  -10.5550 C   0  0  1  0  0  0  0  0  0  0  0  0
   25.3376  -20.8601   -9.5214 O   0  0  0  0  0  0  0  0  0  0  0  0
   24.9221  -20.9459  -11.8679 C   0  0  2  0  0  0  0  0  0  0  0  0
   26.3177  -20.6129  -12.1848 N   0  0  0  0  0  0  0  0  0  0  0  0
   24.1009  -20.4140  -12.9736 C   0  0  0  0  0  0  0  0  0  0  0  0
   24.3081  -19.2688  -13.5019 O   0  0  0  0  0  0  0  0  0  0  0  0
   23.0070  -21.1343  -13.5445 N   0  0  0  0  0  0  0  0  0  0  0  0
   22.1960  -20.6205  -14.5947 C   0  0  1  0  0  0  0  0  0  0  0  0
   22.0916  -21.5210  -15.7946 C   0  0  0  0  0  0  0  0  0  0  0  0
   23.7934  -21.8070  -16.4051 S   0  0  0  0  0  0  0  0  0  0  0  0
   20.8655  -20.2416  -14.0614 C   0  0  0  0  0  0  0  0  0  0  0  0
   20.0215  -19.4626  -14.8380 O   0  0  0  0  0  0  0  0  0  0  0  0
   20.4511  -20.5902  -12.9293 O   0  0  0  0  0  0  0  0  0  0  0  0
  2  1  1  0
  3  4  1  0
  3  2  1  0
  4  5  1  0
  5  7  1  0
  5  6  1  1
  7  8  2  0
 10  9  1  1
 10 12  1  0
 11 10  1  0
 12 14  1  0
 12 13  1  6
 13  7  1  0
 14 15  2  0
 16 17  1  0
 16 14  1  0
 17 20  1  0
 17 18  1  6
 19 18  1  0
 20 22  2  0
 20 21  1  0
M  END
$$$$
