MTC.pdb
     RDKit          3D

 22 21  0  0  1  0  0  0  0  0999 V2000
   17.4023  -14.0840  -18.4763 C   0  0  0  0  0  0  0  0  0  0  0  0
   18.6749  -13.2420  -17.5127 S   0  0  0  0  0  0  0  0  0  0  0  0
   19.8568  -12.4933  -18.6658 C   0  0  0  0  0  0  0  0  0  0  0  0
   20.8830  -11.6665  -17.9198 C   0  0  0  0  0  0  0  0  0  0  0  0
   21.8656  -11.0667  -18.9026 C   0  0  2  0  0  0  0  0  0  0  0  0
   22.6968  -12.0825  -19.5013 N   0  0  0  0  0  0  0  0  0  0  0  0
   22.7428  -10.0759  -18.2184 C   0  0  0  0  0  0  0  0  0  0  0  0
   23.7709  -10.4265  -17.6076 O   0  0  0  0  0  0  0  0  0  0  0  0
   24.9967   -7.7263  -19.3675 C   0  0  0  0  0  0  0  0  0  0  0  0
   23.9529   -6.9209  -18.6736 C   0  0  1  0  0  0  0  0  0  0  0  0
   23.0060   -6.3897  -19.5542 O   0  0  0  0  0  0  0  0  0  0  0  0
   23.2532   -7.6893  -17.5703 C   0  0  2  0  0  0  0  0  0  0  0  0
   22.4237   -8.6959  -18.2468 N   0  0  0  0  0  0  0  0  0  0  0  0
   22.3303   -6.8306  -16.8018 C   0  0  0  0  0  0  0  0  0  0  0  0
   21.1501   -6.5482  -17.2032 O   0  0  0  0  0  0  0  0  0  0  0  0
   22.6790   -6.2441  -15.5465 N   0  0  0  0  0  0  0  0  0  0  0  0
   21.7748   -5.4690  -14.7679 C   0  0  1  0  0  0  0  0  0  0  0  0
   21.9892   -5.5723  -13.2830 C   0  0  0  0  0  0  0  0  0  0  0  0
   21.8149   -7.3380  -12.8335 S   0  0  0  0  0  0  0  0  0  0  0  0
   21.7852   -4.0631  -15.2388 C   0  0  0  0  0  0  0  0  0  0  0  0
   20.8330   -3.1795  -14.7540 O   0  0  0  0  0  0  0  0  0  0  0  0
   22.6191   -3.6182  -16.0643 O   0  0  0  0  0  0  0  0  0  0  0  0
  2  1  1  0
  3  4  1  0
  3  2  1  0
  4  5  1  0
  5  7  1  0
  5  6  1  1
  7  8  2  0
 10  9  1  6
 10 12  1  0
 11 10  1  0
 12 14  1  0
 12 13  1  6
 13  7  1  0
 14 15  2  0
 16 17  1  0
 16 14  1  0
 17 20  1  0
 17 18  1  1
 19 18  1  0
 20 22  2  0
 20 21  1  0
M  END
$$$$
