MTC.pdb
     RDKit          3D

 22 21  0  0  1  0  0  0  0  0999 V2000
   20.0768   -9.0112  -14.3606 C   0  0  0  0  0  0  0  0  0  0  0  0
   18.8178  -10.1907  -14.8905 S   0  0  0  0  0  0  0  0  0  0  0  0
   17.7877  -10.6030  -13.4566 C   0  0  0  0  0  0  0  0  0  0  0  0
   17.2138   -9.3491  -12.8308 C   0  0  0  0  0  0  0  0  0  0  0  0
   16.4388   -9.7121  -11.5823 C   0  0  2  0  0  0  0  0  0  0  0  0
   15.5771  -10.8466  -11.8095 N   0  0  0  0  0  0  0  0  0  0  0  0
   15.6035   -8.5611  -11.1384 C   0  0  0  0  0  0  0  0  0  0  0  0
   14.4164   -8.4393  -11.4973 O   0  0  0  0  0  0  0  0  0  0  0  0
   14.8106   -7.5771   -7.6043 C   0  0  0  0  0  0  0  0  0  0  0  0
   15.5294   -6.4568   -8.2737 C   0  0  1  0  0  0  0  0  0  0  0  0
   16.8934   -6.4312   -7.9690 O   0  0  0  0  0  0  0  0  0  0  0  0
   15.3393   -6.4506   -9.7774 C   0  0  2  0  0  0  0  0  0  0  0  0
   16.1469   -7.5668  -10.2880 N   0  0  0  0  0  0  0  0  0  0  0  0
   15.8792   -5.2231  -10.3951 C   0  0  0  0  0  0  0  0  0  0  0  0
   17.1242   -5.0560  -10.6313 O   0  0  0  0  0  0  0  0  0  0  0  0
   15.0559   -4.1206  -10.7799 N   0  0  0  0  0  0  0  0  0  0  0  0
   15.5713   -2.9185  -11.3402 C   0  0  1  0  0  0  0  0  0  0  0  0
   14.9942   -2.5629  -12.6826 C   0  0  0  0  0  0  0  0  0  0  0  0
   14.9599   -4.0977  -13.6795 S   0  0  0  0  0  0  0  0  0  0  0  0
   15.4378   -1.8120  -10.3623 C   0  0  0  0  0  0  0  0  0  0  0  0
   16.0986   -0.6162  -10.5986 O   0  0  0  0  0  0  0  0  0  0  0  0
   14.7504   -1.8952   -9.3157 O   0  0  0  0  0  0  0  0  0  0  0  0
  2  1  1  0
  3  4  1  0
  3  2  1  0
  4  5  1  0
  5  7  1  0
  5  6  1  6
  7  8  2  0
 10  9  1  6
 10 12  1  0
 11 10  1  0
 12 14  1  0
 12 13  1  6
 13  7  1  0
 14 15  2  0
 16 17  1  0
 16 14  1  0
 17 20  1  0
 17 18  1  6
 19 18  1  0
 20 22  2  0
 20 21  1  0
M  END
$$$$
