AVT.pdb
     RDKit          3D

 20 19  0  0  1  0  0  0  0  0999 V2000
    6.8276  -16.3119   21.4016 C   0  0  0  0  0  0  0  0  0  0  0  0
    6.9301  -14.8052   21.4642 C   0  0  2  0  0  0  0  0  0  0  0  0
    7.7211  -14.3939   20.3061 N   0  0  0  0  0  0  0  0  0  0  0  0
    7.7090  -14.4142   22.6690 C   0  0  0  0  0  0  0  0  0  0  0  0
    8.9647  -14.3111   22.6739 O   0  0  0  0  0  0  0  0  0  0  0  0
    7.6728  -12.9728   27.4612 C   0  0  0  0  0  0  0  0  0  0  0  0
    6.9909  -13.1023   26.1409 C   0  0  1  0  0  0  0  0  0  0  0  0
    6.8108  -11.7201   25.5520 C   0  0  0  0  0  0  0  0  0  0  0  0
    7.7600  -13.9380   25.1428 C   0  0  2  0  0  0  0  0  0  0  0  0
    7.0407  -14.1294   23.9151 N   0  0  0  0  0  0  0  0  0  0  0  0
    8.1614  -15.2424   25.7602 C   0  0  0  0  0  0  0  0  0  0  0  0
    7.2693  -16.0931   26.0092 O   0  0  0  0  0  0  0  0  0  0  0  0
   11.4887  -18.7720   26.4622 C   0  0  0  0  0  0  0  0  0  0  0  0
   11.0827  -17.4353   25.9280 C   0  0  1  0  0  0  0  0  0  0  0  0
   10.9494  -17.5291   24.5512 O   0  0  0  0  0  0  0  0  0  0  0  0
    9.8602  -16.8708   26.5940 C   0  0  2  0  0  0  0  0  0  0  0  0
    9.4922  -15.5715   26.0795 N   0  0  0  0  0  0  0  0  0  0  0  0
   10.1458  -16.7660   28.0584 C   0  0  0  0  0  0  0  0  0  0  0  0
   10.0470  -17.8654   28.9006 O   0  0  0  0  0  0  0  0  0  0  0  0
   10.4871  -15.6748   28.5823 O   0  0  0  0  0  0  0  0  0  0  0  0
  2  1  1  6
  2  3  1  0
  4 10  1  0
  4  2  1  0
  5  4  2  0
  7  6  1  1
  7  8  1  0
  9  7  1  0
  9 10  1  6
 11 17  1  0
 11  9  1  0
 12 11  2  0
 14 13  1  1
 14 15  1  0
 16 17  1  6
 16 14  1  0
 18 19  1  0
 18 16  1  0
 20 18  2  0
M  END
$$$$
