AVT.pdb
     RDKit          3D

 20 19  0  0  1  0  0  0  0  0999 V2000
    7.2768  -18.8077   17.9255 C   0  0  0  0  0  0  0  0  0  0  0  0
    7.5525  -17.4518   17.3169 C   0  0  2  0  0  0  0  0  0  0  0  0
    8.4646  -17.6766   16.1972 N   0  0  0  0  0  0  0  0  0  0  0  0
    8.2872  -16.6113   18.2990 C   0  0  0  0  0  0  0  0  0  0  0  0
    9.5441  -16.5914   18.3846 O   0  0  0  0  0  0  0  0  0  0  0  0
    8.1318  -12.8915   21.6214 C   0  0  0  0  0  0  0  0  0  0  0  0
    7.4517  -13.7387   20.5992 C   0  0  1  0  0  0  0  0  0  0  0  0
    7.2273  -12.9080   19.3544 C   0  0  0  0  0  0  0  0  0  0  0  0
    8.2445  -14.9644   20.2056 C   0  0  2  0  0  0  0  0  0  0  0  0
    7.5717  -15.7615   19.2189 N   0  0  0  0  0  0  0  0  0  0  0  0
    8.5960  -15.7659   21.4211 C   0  0  0  0  0  0  0  0  0  0  0  0
    7.6662  -16.2027   22.1468 O   0  0  0  0  0  0  0  0  0  0  0  0
    9.9450  -19.1252   21.9258 C   0  0  0  0  0  0  0  0  0  0  0  0
   10.8703  -18.1718   22.6129 C   0  0  1  0  0  0  0  0  0  0  0  0
   12.0092  -18.0212   21.8368 O   0  0  0  0  0  0  0  0  0  0  0  0
   10.2266  -16.8603   22.9627 C   0  0  2  0  0  0  0  0  0  0  0  0
    9.9195  -16.0598   21.7994 N   0  0  0  0  0  0  0  0  0  0  0  0
   11.1695  -16.1116   23.8500 C   0  0  0  0  0  0  0  0  0  0  0  0
   11.3321  -16.4461   25.1877 O   0  0  0  0  0  0  0  0  0  0  0  0
   11.8517  -15.1486   23.4157 O   0  0  0  0  0  0  0  0  0  0  0  0
  2  1  1  1
  2  3  1  0
  4 10  1  0
  4  2  1  0
  5  4  2  0
  7  6  1  1
  7  8  1  0
  9  7  1  0
  9 10  1  6
 11 17  1  0
 11  9  1  0
 12 11  2  0
 14 13  1  6
 14 15  1  0
 16 17  1  6
 16 14  1  0
 18 19  1  0
 18 16  1  0
 20 18  2  0
M  END
$$$$
