AVT.pdb
     RDKit          3D

 20 19  0  0  1  0  0  0  0  0999 V2000
    7.5613  -18.7252   17.6502 C   0  0  0  0  0  0  0  0  0  0  0  0
    7.8011  -17.3449   17.0827 C   0  0  2  0  0  0  0  0  0  0  0  0
    8.7268  -17.5106   15.9638 N   0  0  0  0  0  0  0  0  0  0  0  0
    8.5043  -16.5120   18.0939 C   0  0  0  0  0  0  0  0  0  0  0  0
    9.7578  -16.4931   18.2196 O   0  0  0  0  0  0  0  0  0  0  0  0
    8.2228  -12.8574   21.4876 C   0  0  0  0  0  0  0  0  0  0  0  0
    7.5906  -13.6721   20.4098 C   0  0  1  0  0  0  0  0  0  0  0  0
    7.4254  -12.8042   19.1814 C   0  0  0  0  0  0  0  0  0  0  0  0
    8.4001  -14.8872   20.0171 C   0  0  2  0  0  0  0  0  0  0  0  0
    7.7599  -15.6687   18.9968 N   0  0  0  0  0  0  0  0  0  0  0  0
    8.7199  -15.7095   21.2275 C   0  0  0  0  0  0  0  0  0  0  0  0
    7.7715  -16.1696   21.9135 O   0  0  0  0  0  0  0  0  0  0  0  0
   10.1527  -19.0626   21.5527 C   0  0  0  0  0  0  0  0  0  0  0  0
   11.0131  -18.1351   22.3506 C   0  0  1  0  0  0  0  0  0  0  0  0
   12.1818  -17.8957   21.6445 O   0  0  0  0  0  0  0  0  0  0  0  0
   10.3113  -16.8717   22.7604 C   0  0  2  0  0  0  0  0  0  0  0  0
   10.0333  -15.9983   21.6431 N   0  0  0  0  0  0  0  0  0  0  0  0
   11.1866  -16.1620   23.7438 C   0  0  0  0  0  0  0  0  0  0  0  0
   11.3175  -16.6031   25.0539 O   0  0  0  0  0  0  0  0  0  0  0  0
   11.8382  -15.1365   23.4193 O   0  0  0  0  0  0  0  0  0  0  0  0
  2  1  1  1
  2  3  1  0
  4 10  1  0
  4  2  1  0
  5  4  2  0
  7  6  1  1
  7  8  1  0
  9  7  1  0
  9 10  1  6
 11 17  1  0
 11  9  1  0
 12 11  2  0
 14 13  1  6
 14 15  1  0
 16 17  1  6
 16 14  1  0
 18 19  1  0
 18 16  1  0
 20 18  2  0
M  END
$$$$
