AVT.pdb
     RDKit          3D

 20 19  0  0  1  0  0  0  0  0999 V2000
    7.5403  -18.9216   18.4004 C   0  0  0  0  0  0  0  0  0  0  0  0
    7.8060  -17.5763   17.7644 C   0  0  2  0  0  0  0  0  0  0  0  0
    8.7948  -17.8022   16.7120 N   0  0  0  0  0  0  0  0  0  0  0  0
    8.4466  -16.6782   18.7613 C   0  0  0  0  0  0  0  0  0  0  0  0
    9.6864  -16.6718   18.9863 O   0  0  0  0  0  0  0  0  0  0  0  0
    7.9314  -12.8119   21.8961 C   0  0  0  0  0  0  0  0  0  0  0  0
    7.4122  -13.6566   20.7817 C   0  0  1  0  0  0  0  0  0  0  0  0
    7.4215  -12.8377   19.5093 C   0  0  0  0  0  0  0  0  0  0  0  0
    8.2292  -14.9054   20.5386 C   0  0  2  0  0  0  0  0  0  0  0  0
    7.6537  -15.7524   19.5323 N   0  0  0  0  0  0  0  0  0  0  0  0
    8.4461  -15.6407   21.8255 C   0  0  0  0  0  0  0  0  0  0  0  0
    7.4433  -16.0583   22.4594 O   0  0  0  0  0  0  0  0  0  0  0  0
    9.6528  -18.9254   22.5003 C   0  0  0  0  0  0  0  0  0  0  0  0
   10.5234  -18.0142   23.3059 C   0  0  1  0  0  0  0  0  0  0  0  0
   11.7604  -17.9200   22.6869 O   0  0  0  0  0  0  0  0  0  0  0  0
    9.9018  -16.6728   23.5716 C   0  0  2  0  0  0  0  0  0  0  0  0
    9.7198  -15.8923   22.3690 N   0  0  0  0  0  0  0  0  0  0  0  0
   10.7961  -15.9344   24.5160 C   0  0  0  0  0  0  0  0  0  0  0  0
   11.5293  -14.8274   24.1102 O   0  0  0  0  0  0  0  0  0  0  0  0
   10.9171  -16.2902   25.7161 O   0  0  0  0  0  0  0  0  0  0  0  0
  2  1  1  1
  2  3  1  0
  4 10  1  0
  4  2  1  0
  5  4  2  0
  7  6  1  1
  7  8  1  0
  9  7  1  0
  9 10  1  6
 11 17  1  0
 11  9  1  0
 12 11  2  0
 14 13  1  6
 14 15  1  0
 16 17  1  6
 16 14  1  0
 18 19  1  0
 18 16  1  0
 20 18  2  0
M  END
$$$$
