AVT.pdb
     RDKit          3D

 20 19  0  0  1  0  0  0  0  0999 V2000
    6.5763  -15.7799   21.0617 C   0  0  0  0  0  0  0  0  0  0  0  0
    7.0020  -14.3389   21.2267 C   0  0  2  0  0  0  0  0  0  0  0  0
    8.0430  -14.0964   20.2299 N   0  0  0  0  0  0  0  0  0  0  0  0
    7.6414  -14.1637   22.5576 C   0  0  0  0  0  0  0  0  0  0  0  0
    8.8798  -14.2946   22.7494 O   0  0  0  0  0  0  0  0  0  0  0  0
    7.2338  -12.7395   27.3162 C   0  0  0  0  0  0  0  0  0  0  0  0
    6.6008  -12.9152   25.9770 C   0  0  1  0  0  0  0  0  0  0  0  0
    6.4432  -11.5544   25.3343 C   0  0  0  0  0  0  0  0  0  0  0  0
    7.4056  -13.7845   25.0375 C   0  0  2  0  0  0  0  0  0  0  0  0
    6.8487  -13.8276   23.7148 N   0  0  0  0  0  0  0  0  0  0  0  0
    7.5707  -15.1565   25.6153 C   0  0  0  0  0  0  0  0  0  0  0  0
    6.5446  -15.8561   25.8143 O   0  0  0  0  0  0  0  0  0  0  0  0
    9.0420  -18.1191   24.1240 C   0  0  0  0  0  0  0  0  0  0  0  0
    9.7306  -17.9324   25.4386 C   0  0  1  0  0  0  0  0  0  0  0  0
   11.0119  -17.4571   25.2051 O   0  0  0  0  0  0  0  0  0  0  0  0
    8.9589  -17.0766   26.4022 C   0  0  2  0  0  0  0  0  0  0  0  0
    8.8203  -15.7108   25.9506 N   0  0  0  0  0  0  0  0  0  0  0  0
    9.6809  -17.0992   27.7118 C   0  0  0  0  0  0  0  0  0  0  0  0
   10.2965  -15.9650   28.2241 O   0  0  0  0  0  0  0  0  0  0  0  0
    9.7572  -18.1495   28.3992 O   0  0  0  0  0  0  0  0  0  0  0  0
  2  1  1  1
  2  3  1  0
  4 10  1  0
  4  2  1  0
  5  4  2  0
  7  6  1  1
  7  8  1  0
  9  7  1  0
  9 10  1  6
 11 17  1  0
 11  9  1  0
 12 11  2  0
 14 13  1  6
 14 15  1  0
 16 17  1  6
 16 14  1  0
 18 19  1  0
 18 16  1  0
 20 18  2  0
M  END
$$$$
