AVT.pdb
     RDKit          3D

 20 19  0  0  1  0  0  0  0  0999 V2000
    7.6300  -18.7337   17.7006 C   0  0  0  0  0  0  0  0  0  0  0  0
    7.9111  -17.3509   17.1587 C   0  0  2  0  0  0  0  0  0  0  0  0
    8.9169  -17.5118   16.1105 N   0  0  0  0  0  0  0  0  0  0  0  0
    8.5377  -16.5228   18.2229 C   0  0  0  0  0  0  0  0  0  0  0  0
    9.7805  -16.4893   18.4275 O   0  0  0  0  0  0  0  0  0  0  0  0
    7.8771  -13.1672   21.8900 C   0  0  0  0  0  0  0  0  0  0  0  0
    7.4034  -13.8335   20.6424 C   0  0  1  0  0  0  0  0  0  0  0  0
    7.3792  -12.8108   19.5273 C   0  0  0  0  0  0  0  0  0  0  0  0
    8.2798  -14.9839   20.2014 C   0  0  2  0  0  0  0  0  0  0  0  0
    7.7264  -15.7019   19.0880 N   0  0  0  0  0  0  0  0  0  0  0  0
    8.5662  -15.8900   21.3592 C   0  0  0  0  0  0  0  0  0  0  0  0
    7.6269  -16.5776   21.8353 O   0  0  0  0  0  0  0  0  0  0  0  0
   12.4431  -17.3270   22.0166 C   0  0  0  0  0  0  0  0  0  0  0  0
   11.1889  -17.9941   22.4847 C   0  0  1  0  0  0  0  0  0  0  0  0
   11.5177  -18.9253   23.4577 O   0  0  0  0  0  0  0  0  0  0  0  0
   10.1305  -17.0287   22.9369 C   0  0  2  0  0  0  0  0  0  0  0  0
    9.8381  -16.0156   21.9487 N   0  0  0  0  0  0  0  0  0  0  0  0
   10.6143  -16.3768   24.1930 C   0  0  0  0  0  0  0  0  0  0  0  0
   10.6947  -17.0736   25.3913 O   0  0  0  0  0  0  0  0  0  0  0  0
   10.9671  -15.1698   24.2102 O   0  0  0  0  0  0  0  0  0  0  0  0
  2  1  1  1
  2  3  1  0
  4 10  1  0
  4  2  1  0
  5  4  2  0
  7  6  1  1
  7  8  1  0
  9  7  1  0
  9 10  1  6
 11 17  1  0
 11  9  1  0
 12 11  2  0
 14 13  1  1
 14 15  1  0
 16 17  1  6
 16 14  1  0
 18 19  1  0
 18 16  1  0
 20 18  2  0
M  END
$$$$
