AVT.pdb
     RDKit          3D

 20 19  0  0  1  0  0  0  0  0999 V2000
    6.2894  -15.9173   21.1132 C   0  0  0  0  0  0  0  0  0  0  0  0
    6.9185  -14.5456   21.1996 C   0  0  2  0  0  0  0  0  0  0  0  0
    7.8809  -14.4599   20.1030 N   0  0  0  0  0  0  0  0  0  0  0  0
    7.7018  -14.4415   22.4592 C   0  0  0  0  0  0  0  0  0  0  0  0
    8.8955  -14.8314   22.5623 O   0  0  0  0  0  0  0  0  0  0  0  0
    5.8332  -13.0426   26.2175 C   0  0  0  0  0  0  0  0  0  0  0  0
    7.2318  -12.7239   25.8083 C   0  0  1  0  0  0  0  0  0  0  0  0
    8.0941  -12.6513   27.0497 C   0  0  0  0  0  0  0  0  0  0  0  0
    7.8383  -13.7502   24.8784 C   0  0  2  0  0  0  0  0  0  0  0  0
    7.1111  -13.8747   23.6467 N   0  0  0  0  0  0  0  0  0  0  0  0
    7.9735  -15.0674   25.5787 C   0  0  0  0  0  0  0  0  0  0  0  0
    6.9321  -15.7212   25.8429 O   0  0  0  0  0  0  0  0  0  0  0  0
    9.4451  -18.2552   24.4391 C   0  0  0  0  0  0  0  0  0  0  0  0
   10.1128  -17.8898   25.7266 C   0  0  1  0  0  0  0  0  0  0  0  0
   11.3907  -17.4293   25.4490 O   0  0  0  0  0  0  0  0  0  0  0  0
    9.3164  -16.9283   26.5620 C   0  0  2  0  0  0  0  0  0  0  0  0
    9.2111  -15.6185   25.9605 N   0  0  0  0  0  0  0  0  0  0  0  0
    9.9891  -16.8145   27.8929 C   0  0  0  0  0  0  0  0  0  0  0  0
   10.0324  -17.8808   28.7810 O   0  0  0  0  0  0  0  0  0  0  0  0
   10.5421  -15.7455   28.2575 O   0  0  0  0  0  0  0  0  0  0  0  0
  2  1  1  1
  2  3  1  0
  4 10  1  0
  4  2  1  0
  5  4  2  0
  7  6  1  1
  7  8  1  0
  9  7  1  0
  9 10  1  6
 11 17  1  0
 11  9  1  0
 12 11  2  0
 14 13  1  6
 14 15  1  0
 16 17  1  6
 16 14  1  0
 18 19  1  0
 18 16  1  0
 20 18  2  0
M  END
$$$$
