AVT.pdb
     RDKit          3D

 20 19  0  0  1  0  0  0  0  0999 V2000
    7.2704  -18.8201   18.0478 C   0  0  0  0  0  0  0  0  0  0  0  0
    7.4315  -17.4886   17.3506 C   0  0  2  0  0  0  0  0  0  0  0  0
    8.2700  -17.7320   16.1784 N   0  0  0  0  0  0  0  0  0  0  0  0
    8.1920  -16.5613   18.2296 C   0  0  0  0  0  0  0  0  0  0  0  0
    9.4486  -16.4707   18.2121 O   0  0  0  0  0  0  0  0  0  0  0  0
    8.1293  -12.7875   21.4918 C   0  0  0  0  0  0  0  0  0  0  0  0
    7.4389  -13.6350   20.4768 C   0  0  1  0  0  0  0  0  0  0  0  0
    7.2470  -12.8202   19.2162 C   0  0  0  0  0  0  0  0  0  0  0  0
    8.2055  -14.8859   20.1116 C   0  0  2  0  0  0  0  0  0  0  0  0
    7.5036  -15.7044   19.1636 N   0  0  0  0  0  0  0  0  0  0  0  0
    8.5651  -15.6520   21.3475 C   0  0  0  0  0  0  0  0  0  0  0  0
    7.6428  -16.0278   22.1155 O   0  0  0  0  0  0  0  0  0  0  0  0
    9.9734  -19.0549   21.5359 C   0  0  0  0  0  0  0  0  0  0  0  0
   10.8744  -18.1423   22.3056 C   0  0  1  0  0  0  0  0  0  0  0  0
   12.0034  -17.8859   21.5429 O   0  0  0  0  0  0  0  0  0  0  0  0
   10.1945  -16.8891   22.7786 C   0  0  2  0  0  0  0  0  0  0  0  0
    9.8884  -15.9773   21.6999 N   0  0  0  0  0  0  0  0  0  0  0  0
   11.1045  -16.2178   23.7574 C   0  0  0  0  0  0  0  0  0  0  0  0
   11.2473  -16.6837   25.0575 O   0  0  0  0  0  0  0  0  0  0  0  0
   11.7759  -15.2036   23.4378 O   0  0  0  0  0  0  0  0  0  0  0  0
  2  1  1  1
  2  3  1  0
  4 10  1  0
  4  2  1  0
  5  4  2  0
  7  6  1  1
  7  8  1  0
  9  7  1  0
  9 10  1  6
 11 17  1  0
 11  9  1  0
 12 11  2  0
 14 13  1  6
 14 15  1  0
 16 17  1  6
 16 14  1  0
 18 19  1  0
 18 16  1  0
 20 18  2  0
M  END
$$$$
