AVT.pdb
     RDKit          3D

 20 19  0  0  1  0  0  0  0  0999 V2000
    6.0909  -16.8422   22.1104 C   0  0  0  0  0  0  0  0  0  0  0  0
    6.2790  -15.3458   22.0098 C   0  0  2  0  0  0  0  0  0  0  0  0
    6.9501  -15.0961   20.7356 N   0  0  0  0  0  0  0  0  0  0  0  0
    7.2125  -14.8941   23.0754 C   0  0  0  0  0  0  0  0  0  0  0  0
    8.4659  -14.9242   22.9513 O   0  0  0  0  0  0  0  0  0  0  0  0
    7.7639  -12.5874   27.4839 C   0  0  0  0  0  0  0  0  0  0  0  0
    6.8998  -13.0014   26.3406 C   0  0  1  0  0  0  0  0  0  0  0  0
    6.5047  -11.7661   25.5610 C   0  0  0  0  0  0  0  0  0  0  0  0
    7.5775  -13.9584   25.3863 C   0  0  2  0  0  0  0  0  0  0  0  0
    6.7074  -14.3893   24.3286 N   0  0  0  0  0  0  0  0  0  0  0  0
    8.1534  -15.1186   26.1387 C   0  0  0  0  0  0  0  0  0  0  0  0
    7.3727  -15.8812   26.7636 O   0  0  0  0  0  0  0  0  0  0  0  0
   12.2972  -16.1358   25.7236 C   0  0  0  0  0  0  0  0  0  0  0  0
   11.2190  -17.1606   25.8798 C   0  0  1  0  0  0  0  0  0  0  0  0
   11.7762  -18.3139   26.4103 O   0  0  0  0  0  0  0  0  0  0  0  0
   10.0367  -16.6704   26.6661 C   0  0  2  0  0  0  0  0  0  0  0  0
    9.5307  -15.4049   26.1854 N   0  0  0  0  0  0  0  0  0  0  0  0
   10.4643  -16.5284   28.0922 C   0  0  0  0  0  0  0  0  0  0  0  0
   10.6694  -17.6353   28.9050 O   0  0  0  0  0  0  0  0  0  0  0  0
   10.6544  -15.3979   28.6092 O   0  0  0  0  0  0  0  0  0  0  0  0
  2  1  1  1
  2  3  1  0
  4 10  1  0
  4  2  1  0
  5  4  2  0
  7  6  1  1
  7  8  1  0
  9  7  1  0
  9 10  1  6
 11 17  1  0
 11  9  1  0
 12 11  2  0
 14 13  1  1
 14 15  1  0
 16 17  1  6
 16 14  1  0
 18 19  1  0
 18 16  1  0
 20 18  2  0
M  END
$$$$
