TIA.pdb
     RDKit          3D

 21 20  0  0  1  0  0  0  0  0999 V2000
    6.3730  -17.1700   21.7087 C   0  0  0  0  0  0  0  0  0  0  0  0
    7.4125  -16.6281   20.7588 C   0  0  1  0  0  0  0  0  0  0  0  0
    6.9850  -16.7367   19.4208 O   0  0  0  0  0  0  0  0  0  0  0  0
    7.6485  -15.1695   21.0870 C   0  0  2  0  0  0  0  0  0  0  0  0
    8.4120  -14.5070   20.0513 N   0  0  0  0  0  0  0  0  0  0  0  0
    8.2774  -14.9918   22.4158 C   0  0  0  0  0  0  0  0  0  0  0  0
    9.5231  -15.0488   22.5655 O   0  0  0  0  0  0  0  0  0  0  0  0
    6.1223  -11.5624   26.1940 C   0  0  0  0  0  0  0  0  0  0  0  0
    7.0302  -12.3748   25.3383 C   0  0  0  0  0  0  0  0  0  0  0  0
    7.3752  -13.7345   25.8707 C   0  0  2  0  0  0  0  0  0  0  0  0
    8.0251  -13.6070   27.2265 C   0  0  0  0  0  0  0  0  0  0  0  0
    8.0964  -14.6205   24.9125 C   0  0  2  0  0  0  0  0  0  0  0  0
    7.5068  -14.7442   23.6120 N   0  0  0  0  0  0  0  0  0  0  0  0
    8.4411  -15.9404   25.5073 C   0  0  0  0  0  0  0  0  0  0  0  0
    7.4764  -16.6982   25.7896 O   0  0  0  0  0  0  0  0  0  0  0  0
   11.1252  -18.3846   25.5438 C   0  0  0  0  0  0  0  0  0  0  0  0
   10.0210  -17.6804   26.2935 C   0  0  2  0  0  0  0  0  0  0  0  0
    9.7555  -16.3629   25.7591 N   0  0  0  0  0  0  0  0  0  0  0  0
   10.2972  -17.6095   27.7459 C   0  0  0  0  0  0  0  0  0  0  0  0
   10.3805  -18.7321   28.5585 O   0  0  0  0  0  0  0  0  0  0  0  0
   10.4681  -16.4896   28.2919 O   0  0  0  0  0  0  0  0  0  0  0  0
  2  1  1  1
  2  3  1  0
  2  4  1  0
  4  5  1  6
  6  4  1  0
  6  7  2  0
  9  8  1  0
 10  9  1  0
 10 11  1  1
 12 10  1  0
 12 13  1  6
 13  6  1  0
 14 12  1  0
 15 14  2  0
 17 16  1  6
 17 18  1  0
 18 14  1  0
 19 17  1  0
 19 20  1  0
 21 19  2  0
M  END
$$$$
