TIA.pdb
     RDKit          3D

 21 20  0  0  1  0  0  0  0  0999 V2000
    5.8000  -19.1875   21.2877 C   0  0  0  0  0  0  0  0  0  0  0  0
    6.8898  -19.6254   20.3405 C   0  0  1  0  0  0  0  0  0  0  0  0
    6.4026  -20.5522   19.3979 O   0  0  0  0  0  0  0  0  0  0  0  0
    7.4113  -18.4054   19.6123 C   0  0  2  0  0  0  0  0  0  0  0  0
    8.3446  -18.7673   18.5669 N   0  0  0  0  0  0  0  0  0  0  0  0
    8.0008  -17.4125   20.5393 C   0  0  0  0  0  0  0  0  0  0  0  0
    9.1530  -17.5624   21.0162 O   0  0  0  0  0  0  0  0  0  0  0  0
    7.2893  -11.9099   20.3003 C   0  0  0  0  0  0  0  0  0  0  0  0
    7.8604  -13.2571   20.5746 C   0  0  0  0  0  0  0  0  0  0  0  0
    7.3937  -13.9111   21.8418 C   0  0  2  0  0  0  0  0  0  0  0  0
    7.7443  -13.0458   23.0271 C   0  0  0  0  0  0  0  0  0  0  0  0
    7.7691  -15.3472   21.9833 C   0  0  2  0  0  0  0  0  0  0  0  0
    7.2959  -16.2206   20.9502 N   0  0  0  0  0  0  0  0  0  0  0  0
    7.4900  -15.8763   23.3459 C   0  0  0  0  0  0  0  0  0  0  0  0
    6.2817  -15.9142   23.6970 O   0  0  0  0  0  0  0  0  0  0  0  0
    7.2398  -18.1747   25.2396 C   0  0  0  0  0  0  0  0  0  0  0  0
    8.1375  -16.9831   25.4667 C   0  0  2  0  0  0  0  0  0  0  0  0
    8.4860  -16.3212   24.2289 N   0  0  0  0  0  0  0  0  0  0  0  0
    9.3549  -17.3455   26.2266 C   0  0  0  0  0  0  0  0  0  0  0  0
   10.6402  -17.1491   25.7400 O   0  0  0  0  0  0  0  0  0  0  0  0
    9.2441  -17.8573   27.3701 O   0  0  0  0  0  0  0  0  0  0  0  0
  2  1  1  1
  2  3  1  0
  2  4  1  0
  4  5  1  6
  6  4  1  0
  6  7  2  0
  9  8  1  0
 10  9  1  0
 10 11  1  1
 12 10  1  0
 12 13  1  6
 13  6  1  0
 14 12  1  0
 15 14  2  0
 17 16  1  6
 17 18  1  0
 18 14  1  0
 19 17  1  0
 19 20  1  0
 21 19  2  0
M  END
$$$$
