TIA.pdb
     RDKit          3D

 21 20  0  0  1  0  0  0  0  0999 V2000
    6.6130  -16.7439   19.5409 C   0  0  0  0  0  0  0  0  0  0  0  0
    7.1024  -16.5528   20.9553 C   0  0  1  0  0  0  0  0  0  0  0  0
    7.8600  -17.6600   21.3855 O   0  0  0  0  0  0  0  0  0  0  0  0
    7.9682  -15.3122   20.9999 C   0  0  2  0  0  0  0  0  0  0  0  0
    9.0868  -15.4100   20.0867 N   0  0  0  0  0  0  0  0  0  0  0  0
    8.4217  -14.9980   22.3740 C   0  0  0  0  0  0  0  0  0  0  0  0
    9.5981  -15.2318   22.7469 O   0  0  0  0  0  0  0  0  0  0  0  0
    7.1229  -11.5626   27.4515 C   0  0  0  0  0  0  0  0  0  0  0  0
    7.7806  -12.7124   26.7719 C   0  0  0  0  0  0  0  0  0  0  0  0
    7.2351  -13.0614   25.4185 C   0  0  2  0  0  0  0  0  0  0  0  0
    5.7373  -13.2277   25.4942 C   0  0  0  0  0  0  0  0  0  0  0  0
    7.9519  -14.1648   24.7170 C   0  0  2  0  0  0  0  0  0  0  0  0
    7.5496  -14.4087   23.3631 N   0  0  0  0  0  0  0  0  0  0  0  0
    8.0067  -15.4124   25.5264 C   0  0  0  0  0  0  0  0  0  0  0  0
    7.2231  -16.3372   25.1864 O   0  0  0  0  0  0  0  0  0  0  0  0
    7.5993  -17.5455   27.3928 C   0  0  0  0  0  0  0  0  0  0  0  0
    8.9462  -16.8721   27.2951 C   0  0  2  0  0  0  0  0  0  0  0  0
    8.8682  -15.5960   26.6188 N   0  0  0  0  0  0  0  0  0  0  0  0
    9.9545  -17.7441   26.6518 C   0  0  0  0  0  0  0  0  0  0  0  0
   10.6623  -17.3760   25.5157 O   0  0  0  0  0  0  0  0  0  0  0  0
   10.1983  -18.8770   27.1402 O   0  0  0  0  0  0  0  0  0  0  0  0
  2  1  1  6
  2  3  1  0
  2  4  1  0
  4  5  1  6
  6  4  1  0
  6  7  2  0
  9  8  1  0
 10  9  1  0
 10 11  1  1
 12 10  1  0
 12 13  1  6
 13  6  1  0
 14 12  1  0
 15 14  2  0
 17 16  1  6
 17 18  1  0
 18 14  1  0
 19 17  1  0
 19 20  1  0
 21 19  2  0
M  END
$$$$
