TIA.pdb
     RDKit          3D

 21 20  0  0  1  0  0  0  0  0999 V2000
    6.4580  -16.4905   19.6916 C   0  0  0  0  0  0  0  0  0  0  0  0
    7.1146  -16.4525   21.0496 C   0  0  1  0  0  0  0  0  0  0  0  0
    8.0361  -17.5077   21.1988 O   0  0  0  0  0  0  0  0  0  0  0  0
    7.8432  -15.1338   21.1934 C   0  0  2  0  0  0  0  0  0  0  0  0
    8.8527  -14.9684   20.1695 N   0  0  0  0  0  0  0  0  0  0  0  0
    8.4168  -14.9586   22.5473 C   0  0  0  0  0  0  0  0  0  0  0  0
    9.6481  -15.0849   22.7601 O   0  0  0  0  0  0  0  0  0  0  0  0
    6.2230  -11.4526   26.2833 C   0  0  0  0  0  0  0  0  0  0  0  0
    7.1959  -12.2648   25.5022 C   0  0  0  0  0  0  0  0  0  0  0  0
    7.3826  -13.6775   25.9719 C   0  0  2  0  0  0  0  0  0  0  0  0
    7.8997  -13.6847   27.3894 C   0  0  0  0  0  0  0  0  0  0  0  0
    8.1290  -14.5599   25.0298 C   0  0  2  0  0  0  0  0  0  0  0  0
    7.6055  -14.6348   23.6976 N   0  0  0  0  0  0  0  0  0  0  0  0
    8.4058  -15.9033   25.6071 C   0  0  0  0  0  0  0  0  0  0  0  0
    7.4615  -16.7350   25.5721 O   0  0  0  0  0  0  0  0  0  0  0  0
   10.5734  -18.4044   25.4091 C   0  0  0  0  0  0  0  0  0  0  0  0
    9.9069  -17.6457   26.5304 C   0  0  2  0  0  0  0  0  0  0  0  0
    9.6370  -16.2709   26.1714 N   0  0  0  0  0  0  0  0  0  0  0  0
   10.6889  -17.7146   27.7853 C   0  0  0  0  0  0  0  0  0  0  0  0
   11.4548  -16.6593   28.2614 O   0  0  0  0  0  0  0  0  0  0  0  0
   10.6737  -18.7697   28.4696 O   0  0  0  0  0  0  0  0  0  0  0  0
  2  1  1  6
  2  3  1  0
  2  4  1  0
  4  5  1  6
  6  4  1  0
  6  7  2  0
  9  8  1  0
 10  9  1  0
 10 11  1  1
 12 10  1  0
 12 13  1  6
 13  6  1  0
 14 12  1  0
 15 14  2  0
 17 16  1  6
 17 18  1  0
 18 14  1  0
 19 17  1  0
 19 20  1  0
 21 19  2  0
M  END
$$$$
