TIA.pdb
     RDKit          3D

 21 20  0  0  1  0  0  0  0  0999 V2000
    6.2577  -14.6916   18.8653 C   0  0  0  0  0  0  0  0  0  0  0  0
    7.0125  -14.7841   20.1685 C   0  0  1  0  0  0  0  0  0  0  0  0
    8.1663  -15.5810   20.0327 O   0  0  0  0  0  0  0  0  0  0  0  0
    7.4206  -13.3880   20.5867 C   0  0  2  0  0  0  0  0  0  0  0  0
    8.2444  -12.7503   19.5819 N   0  0  0  0  0  0  0  0  0  0  0  0
    8.0811  -13.3737   21.9119 C   0  0  0  0  0  0  0  0  0  0  0  0
    9.3306  -13.3112   22.0222 O   0  0  0  0  0  0  0  0  0  0  0  0
    7.4653  -12.2076   27.9979 C   0  0  0  0  0  0  0  0  0  0  0  0
    8.0611  -12.9725   26.8681 C   0  0  0  0  0  0  0  0  0  0  0  0
    7.3207  -12.8840   25.5661 C   0  0  2  0  0  0  0  0  0  0  0  0
    5.8622  -13.2057   25.7802 C   0  0  0  0  0  0  0  0  0  0  0  0
    7.9598  -13.6064   24.4290 C   0  0  2  0  0  0  0  0  0  0  0  0
    7.3384  -13.4300   23.1495 N   0  0  0  0  0  0  0  0  0  0  0  0
    8.2223  -15.0378   24.7400 C   0  0  0  0  0  0  0  0  0  0  0  0
    7.2400  -15.8204   24.6543 O   0  0  0  0  0  0  0  0  0  0  0  0
   10.7952  -17.4641   24.3616 C   0  0  0  0  0  0  0  0  0  0  0  0
    9.6976  -16.9585   25.2654 C   0  0  2  0  0  0  0  0  0  0  0  0
    9.4797  -15.5369   25.1133 N   0  0  0  0  0  0  0  0  0  0  0  0
    9.9484  -17.3002   26.6837 C   0  0  0  0  0  0  0  0  0  0  0  0
   10.0494  -18.6062   27.1435 O   0  0  0  0  0  0  0  0  0  0  0  0
   10.0797  -16.3799   27.5306 O   0  0  0  0  0  0  0  0  0  0  0  0
  2  1  1  6
  2  3  1  0
  2  4  1  0
  4  5  1  6
  6  4  1  0
  6  7  2  0
  9  8  1  0
 10  9  1  0
 10 11  1  1
 12 10  1  0
 12 13  1  6
 13  6  1  0
 14 12  1  0
 15 14  2  0
 17 16  1  6
 17 18  1  0
 18 14  1  0
 19 17  1  0
 19 20  1  0
 21 19  2  0
M  END
$$$$
