TIA.pdb
     RDKit          3D

 21 20  0  0  1  0  0  0  0  0999 V2000
    6.5444  -16.4100   21.2631 C   0  0  0  0  0  0  0  0  0  0  0  0
    7.3876  -15.4771   20.4291 C   0  0  1  0  0  0  0  0  0  0  0  0
    6.9035  -15.3974   19.1084 O   0  0  0  0  0  0  0  0  0  0  0  0
    7.3443  -14.1007   21.0570 C   0  0  2  0  0  0  0  0  0  0  0  0
    7.8658  -13.0901   20.1618 N   0  0  0  0  0  0  0  0  0  0  0  0
    8.0317  -14.0642   22.3680 C   0  0  0  0  0  0  0  0  0  0  0  0
    9.2773  -13.9280   22.4528 O   0  0  0  0  0  0  0  0  0  0  0  0
    5.9646  -11.5258   26.7291 C   0  0  0  0  0  0  0  0  0  0  0  0
    6.8896  -12.1390   25.7368 C   0  0  0  0  0  0  0  0  0  0  0  0
    7.2906  -13.5573   26.0175 C   0  0  2  0  0  0  0  0  0  0  0  0
    8.0076  -13.6371   27.3427 C   0  0  0  0  0  0  0  0  0  0  0  0
    7.9795  -14.2505   24.8913 C   0  0  2  0  0  0  0  0  0  0  0  0
    7.3211  -14.1818   23.6200 N   0  0  0  0  0  0  0  0  0  0  0  0
    8.3909  -15.6367   25.2432 C   0  0  0  0  0  0  0  0  0  0  0  0
    7.4649  -16.4472   25.5081 O   0  0  0  0  0  0  0  0  0  0  0  0
   11.1656  -17.9246   24.5963 C   0  0  0  0  0  0  0  0  0  0  0  0
   10.0504  -17.4593   25.5002 C   0  0  2  0  0  0  0  0  0  0  0  0
    9.7264  -16.0655   25.2906 N   0  0  0  0  0  0  0  0  0  0  0  0
   10.3510  -17.7176   26.9264 C   0  0  0  0  0  0  0  0  0  0  0  0
   10.4068  -16.7143   27.8842 O   0  0  0  0  0  0  0  0  0  0  0  0
   10.5697  -18.8945   27.3119 O   0  0  0  0  0  0  0  0  0  0  0  0
  2  1  1  1
  2  3  1  0
  2  4  1  0
  4  5  1  6
  6  4  1  0
  6  7  2  0
  9  8  1  0
 10  9  1  0
 10 11  1  1
 12 10  1  0
 12 13  1  6
 13  6  1  0
 14 12  1  0
 15 14  2  0
 17 16  1  6
 17 18  1  0
 18 14  1  0
 19 17  1  0
 19 20  1  0
 21 19  2  0
M  END
$$$$
