TIA.pdb
     RDKit          3D

 21 20  0  0  1  0  0  0  0  0999 V2000
    8.5708  -18.3264   23.4657 C   0  0  0  0  0  0  0  0  0  0  0  0
    9.1103  -17.6544   22.2271 C   0  0  1  0  0  0  0  0  0  0  0  0
    8.8249  -18.4102   21.0729 O   0  0  0  0  0  0  0  0  0  0  0  0
    8.4634  -16.2920   22.1001 C   0  0  2  0  0  0  0  0  0  0  0  0
    8.7210  -15.6985   20.8054 N   0  0  0  0  0  0  0  0  0  0  0  0
    8.8614  -15.3814   23.1978 C   0  0  0  0  0  0  0  0  0  0  0  0
    9.9263  -14.7176   23.1468 O   0  0  0  0  0  0  0  0  0  0  0  0
    5.4596  -11.9170   25.3863 C   0  0  0  0  0  0  0  0  0  0  0  0
    6.6878  -12.6267   24.9344 C   0  0  0  0  0  0  0  0  0  0  0  0
    7.3939  -13.4304   25.9863 C   0  0  2  0  0  0  0  0  0  0  0  0
    7.8359  -12.5291   27.1128 C   0  0  0  0  0  0  0  0  0  0  0  0
    8.4481  -14.3511   25.4720 C   0  0  2  0  0  0  0  0  0  0  0  0
    8.0588  -15.2002   24.3849 N   0  0  0  0  0  0  0  0  0  0  0  0
    9.1295  -15.1009   26.5620 C   0  0  0  0  0  0  0  0  0  0  0  0
    8.4521  -15.9906   27.1401 O   0  0  0  0  0  0  0  0  0  0  0  0
   10.3861  -14.2098   29.3217 C   0  0  0  0  0  0  0  0  0  0  0  0
   10.8958  -15.1943   28.2979 C   0  0  2  0  0  0  0  0  0  0  0  0
   10.4543  -14.8654   26.9605 N   0  0  0  0  0  0  0  0  0  0  0  0
   10.5309  -16.5871   28.6413 C   0  0  0  0  0  0  0  0  0  0  0  0
    9.8157  -17.4167   27.7884 O   0  0  0  0  0  0  0  0  0  0  0  0
   10.8746  -17.0631   29.7534 O   0  0  0  0  0  0  0  0  0  0  0  0
  2  1  1  1
  2  3  1  0
  2  4  1  0
  4  5  1  6
  6  4  1  0
  6  7  2  0
  9  8  1  0
 10  9  1  0
 10 11  1  1
 12 10  1  0
 12 13  1  6
 13  6  1  0
 14 12  1  0
 15 14  2  0
 17 16  1  1
 17 18  1  0
 18 14  1  0
 19 17  1  0
 19 20  1  0
 21 19  2  0
M  END
$$$$
