TIA.pdb
     RDKit          3D

 21 20  0  0  1  0  0  0  0  0999 V2000
    6.3305  -16.5525   19.5075 C   0  0  0  0  0  0  0  0  0  0  0  0
    6.9893  -16.4299   20.8594 C   0  0  1  0  0  0  0  0  0  0  0  0
    7.8532  -17.5155   21.1048 O   0  0  0  0  0  0  0  0  0  0  0  0
    7.7877  -15.1445   20.8892 C   0  0  2  0  0  0  0  0  0  0  0  0
    8.7990  -15.1212   19.8541 N   0  0  0  0  0  0  0  0  0  0  0  0
    8.3770  -14.8851   22.2227 C   0  0  0  0  0  0  0  0  0  0  0  0
    9.5968  -15.0792   22.4506 O   0  0  0  0  0  0  0  0  0  0  0  0
    7.3279  -11.8568   27.6371 C   0  0  0  0  0  0  0  0  0  0  0  0
    8.0407  -12.8610   26.8005 C   0  0  0  0  0  0  0  0  0  0  0  0
    7.3985  -13.1763   25.4817 C   0  0  2  0  0  0  0  0  0  0  0  0
    5.9417  -13.5123   25.6856 C   0  0  0  0  0  0  0  0  0  0  0  0
    8.1502  -14.1437   24.6317 C   0  0  2  0  0  0  0  0  0  0  0  0
    7.5950  -14.3973   23.3349 N   0  0  0  0  0  0  0  0  0  0  0  0
    8.4883  -15.3971   25.3594 C   0  0  0  0  0  0  0  0  0  0  0  0
    7.5341  -16.1826   25.5982 O   0  0  0  0  0  0  0  0  0  0  0  0
   11.2942  -17.6614   25.8441 C   0  0  0  0  0  0  0  0  0  0  0  0
   10.0580  -17.0037   26.4065 C   0  0  2  0  0  0  0  0  0  0  0  0
    9.7859  -15.7300   25.7777 N   0  0  0  0  0  0  0  0  0  0  0  0
   10.1316  -16.8555   27.8775 C   0  0  0  0  0  0  0  0  0  0  0  0
   10.1744  -17.9359   28.7481 O   0  0  0  0  0  0  0  0  0  0  0  0
   10.1578  -15.7052   28.3854 O   0  0  0  0  0  0  0  0  0  0  0  0
  2  1  1  6
  2  3  1  0
  2  4  1  0
  4  5  1  6
  6  4  1  0
  6  7  2  0
  9  8  1  0
 10  9  1  0
 10 11  1  1
 12 10  1  0
 12 13  1  6
 13  6  1  0
 14 12  1  0
 15 14  2  0
 17 16  1  6
 17 18  1  0
 18 14  1  0
 19 17  1  0
 19 20  1  0
 21 19  2  0
M  END
$$$$
