TIA.pdb
     RDKit          3D

 21 20  0  0  1  0  0  0  0  0999 V2000
    5.3433  -18.4930   21.0636 C   0  0  0  0  0  0  0  0  0  0  0  0
    6.2495  -17.4881   21.7312 C   0  0  1  0  0  0  0  0  0  0  0  0
    5.6825  -16.1986   21.7096 O   0  0  0  0  0  0  0  0  0  0  0  0
    6.4604  -17.9128   23.1685 C   0  0  2  0  0  0  0  0  0  0  0  0
    5.2088  -17.9872   23.8913 N   0  0  0  0  0  0  0  0  0  0  0  0
    7.4351  -17.0455   23.8688 C   0  0  0  0  0  0  0  0  0  0  0  0
    8.6239  -16.9436   23.4764 O   0  0  0  0  0  0  0  0  0  0  0  0
    6.0282  -12.2458   26.1530 C   0  0  0  0  0  0  0  0  0  0  0  0
    6.7770  -13.3515   25.4948 C   0  0  0  0  0  0  0  0  0  0  0  0
    7.5289  -14.2629   26.4194 C   0  0  2  0  0  0  0  0  0  0  0  0
    8.5585  -13.4766   27.1929 C   0  0  0  0  0  0  0  0  0  0  0  0
    8.0410  -15.5139   25.7901 C   0  0  2  0  0  0  0  0  0  0  0  0
    7.0849  -16.2695   25.0355 N   0  0  0  0  0  0  0  0  0  0  0  0
    8.8056  -16.3599   26.7463 C   0  0  0  0  0  0  0  0  0  0  0  0
    8.1453  -16.8949   27.6751 O   0  0  0  0  0  0  0  0  0  0  0  0
   12.0947  -18.1062   26.8783 C   0  0  0  0  0  0  0  0  0  0  0  0
   10.8396  -17.5535   27.5079 C   0  0  2  0  0  0  0  0  0  0  0  0
   10.1889  -16.5797   26.6593 N   0  0  0  0  0  0  0  0  0  0  0  0
   11.0984  -16.9871   28.8507 C   0  0  0  0  0  0  0  0  0  0  0  0
   11.3889  -17.7681   29.9610 O   0  0  0  0  0  0  0  0  0  0  0  0
   11.0586  -15.7412   29.0176 O   0  0  0  0  0  0  0  0  0  0  0  0
  2  1  1  1
  2  3  1  0
  2  4  1  0
  4  5  1  1
  6  4  1  0
  6  7  2  0
  9  8  1  0
 10  9  1  0
 10 11  1  6
 12 10  1  0
 12 13  1  1
 13  6  1  0
 14 12  1  0
 15 14  2  0
 17 16  1  6
 17 18  1  0
 18 14  1  0
 19 17  1  0
 19 20  1  0
 21 19  2  0
M  END
$$$$
