TIA.pdb
     RDKit          3D

 21 20  0  0  1  0  0  0  0  0999 V2000
    8.2427  -18.7784   21.4754 C   0  0  0  0  0  0  0  0  0  0  0  0
    8.6892  -17.8034   22.5368 C   0  0  1  0  0  0  0  0  0  0  0  0
    9.9952  -18.0944   22.9780 O   0  0  0  0  0  0  0  0  0  0  0  0
    8.6637  -16.4091   21.9488 C   0  0  2  0  0  0  0  0  0  0  0  0
    9.5388  -16.2986   20.8013 N   0  0  0  0  0  0  0  0  0  0  0  0
    8.9696  -15.3718   22.9603 C   0  0  0  0  0  0  0  0  0  0  0  0
   10.0645  -14.7564   22.9593 O   0  0  0  0  0  0  0  0  0  0  0  0
    6.6178  -11.1127   26.8078 C   0  0  0  0  0  0  0  0  0  0  0  0
    7.6939  -12.0560   26.3968 C   0  0  0  0  0  0  0  0  0  0  0  0
    7.2867  -13.1109   25.4107 C   0  0  2  0  0  0  0  0  0  0  0  0
    5.9821  -13.7381   25.8368 C   0  0  0  0  0  0  0  0  0  0  0  0
    8.3590  -14.0823   25.0505 C   0  0  2  0  0  0  0  0  0  0  0  0
    8.0384  -15.0052   24.0017 N   0  0  0  0  0  0  0  0  0  0  0  0
    8.9389  -14.7576   26.2431 C   0  0  0  0  0  0  0  0  0  0  0  0
    8.1837  -15.5536   26.8603 O   0  0  0  0  0  0  0  0  0  0  0  0
   10.0935  -14.1824   29.1135 C   0  0  0  0  0  0  0  0  0  0  0  0
   10.6691  -15.0198   27.9979 C   0  0  2  0  0  0  0  0  0  0  0  0
   10.2513  -14.5510   26.6950 N   0  0  0  0  0  0  0  0  0  0  0  0
   10.3505  -16.4557   28.1639 C   0  0  0  0  0  0  0  0  0  0  0  0
   10.6522  -17.1723   29.3139 O   0  0  0  0  0  0  0  0  0  0  0  0
    9.7790  -17.0770   27.2316 O   0  0  0  0  0  0  0  0  0  0  0  0
  2  1  1  6
  2  3  1  0
  2  4  1  0
  4  5  1  6
  6  4  1  0
  6  7  2  0
  9  8  1  0
 10  9  1  0
 10 11  1  1
 12 10  1  0
 12 13  1  6
 13  6  1  0
 14 12  1  0
 15 14  2  0
 17 16  1  1
 17 18  1  0
 18 14  1  0
 19 17  1  0
 19 20  1  0
 21 19  2  0
M  END
$$$$
