TIA.pdb
     RDKit          3D

 21 20  0  0  1  0  0  0  0  0999 V2000
    6.1533  -16.7265   19.7900 C   0  0  0  0  0  0  0  0  0  0  0  0
    6.9443  -16.5662   21.0649 C   0  0  1  0  0  0  0  0  0  0  0  0
    7.9091  -17.5844   21.1964 O   0  0  0  0  0  0  0  0  0  0  0  0
    7.6420  -15.2236   21.0309 C   0  0  2  0  0  0  0  0  0  0  0  0
    8.5341  -15.1152   19.8964 N   0  0  0  0  0  0  0  0  0  0  0  0
    8.3470  -14.9295   22.2994 C   0  0  0  0  0  0  0  0  0  0  0  0
    9.5975  -15.0061   22.3887 O   0  0  0  0  0  0  0  0  0  0  0  0
    5.7841  -12.6011   27.1388 C   0  0  0  0  0  0  0  0  0  0  0  0
    6.3217  -13.5210   26.0991 C   0  0  0  0  0  0  0  0  0  0  0  0
    7.6814  -13.1730   25.5688 C   0  0  2  0  0  0  0  0  0  0  0  0
    7.6544  -11.8001   24.9435 C   0  0  0  0  0  0  0  0  0  0  0  0
    8.3188  -14.2291   24.7311 C   0  0  2  0  0  0  0  0  0  0  0  0
    7.6492  -14.5397   23.5025 N   0  0  0  0  0  0  0  0  0  0  0  0
    8.6611  -15.4471   25.5147 C   0  0  0  0  0  0  0  0  0  0  0  0
    7.7314  -16.2755   25.6997 O   0  0  0  0  0  0  0  0  0  0  0  0
   11.6181  -17.4815   26.1894 C   0  0  0  0  0  0  0  0  0  0  0  0
   10.2563  -16.9910   26.6162 C   0  0  2  0  0  0  0  0  0  0  0  0
    9.9370  -15.7035   26.0398 N   0  0  0  0  0  0  0  0  0  0  0  0
   10.1196  -16.9527   28.0896 C   0  0  0  0  0  0  0  0  0  0  0  0
   10.1459  -18.0907   28.8843 O   0  0  0  0  0  0  0  0  0  0  0  0
    9.9716  -15.8475   28.6712 O   0  0  0  0  0  0  0  0  0  0  0  0
  2  1  1  6
  2  3  1  0
  2  4  1  0
  4  5  1  6
  6  4  1  0
  6  7  2  0
  9  8  1  0
 10  9  1  0
 10 11  1  6
 12 10  1  0
 12 13  1  6
 13  6  1  0
 14 12  1  0
 15 14  2  0
 17 16  1  1
 17 18  1  0
 18 14  1  0
 19 17  1  0
 19 20  1  0
 21 19  2  0
M  END
$$$$
