TIA.pdb
     RDKit          3D

 21 20  0  0  1  0  0  0  0  0999 V2000
    8.2458  -18.1361   23.0057 C   0  0  0  0  0  0  0  0  0  0  0  0
    8.8689  -17.3834   21.8560 C   0  0  1  0  0  0  0  0  0  0  0  0
    8.5543  -17.9872   20.6226 O   0  0  0  0  0  0  0  0  0  0  0  0
    8.3358  -15.9669   21.8648 C   0  0  2  0  0  0  0  0  0  0  0  0
    8.6554  -15.2697   20.6375 N   0  0  0  0  0  0  0  0  0  0  0  0
    8.7935  -15.2065   23.0501 C   0  0  0  0  0  0  0  0  0  0  0  0
    9.9254  -14.6632   23.0849 O   0  0  0  0  0  0  0  0  0  0  0  0
    5.5042  -11.8520   25.7483 C   0  0  0  0  0  0  0  0  0  0  0  0
    6.6809  -12.5433   25.1533 C   0  0  0  0  0  0  0  0  0  0  0  0
    7.4102  -13.4819   26.0688 C   0  0  2  0  0  0  0  0  0  0  0  0
    7.9158  -12.7332   27.2774 C   0  0  0  0  0  0  0  0  0  0  0  0
    8.4228  -14.3501   25.4025 C   0  0  2  0  0  0  0  0  0  0  0  0
    7.9763  -15.0426   24.2297 N   0  0  0  0  0  0  0  0  0  0  0  0
    9.1204  -15.2493   26.3615 C   0  0  0  0  0  0  0  0  0  0  0  0
    8.4250  -16.1575   26.8871 O   0  0  0  0  0  0  0  0  0  0  0  0
   10.5114  -14.1455   28.9387 C   0  0  0  0  0  0  0  0  0  0  0  0
   10.9246  -15.3004   28.0597 C   0  0  2  0  0  0  0  0  0  0  0  0
   10.4786  -15.1312   26.6943 N   0  0  0  0  0  0  0  0  0  0  0  0
   10.4664  -16.5992   28.6023 C   0  0  0  0  0  0  0  0  0  0  0  0
   11.3185  -17.5108   29.2106 O   0  0  0  0  0  0  0  0  0  0  0  0
    9.2515  -16.9132   28.5195 O   0  0  0  0  0  0  0  0  0  0  0  0
  2  1  1  1
  2  3  1  0
  2  4  1  0
  4  5  1  6
  6  4  1  0
  6  7  2  0
  9  8  1  0
 10  9  1  0
 10 11  1  1
 12 10  1  0
 12 13  1  6
 13  6  1  0
 14 12  1  0
 15 14  2  0
 17 16  1  1
 17 18  1  0
 18 14  1  0
 19 17  1  0
 19 20  1  0
 21 19  2  0
M  END
$$$$
