TIA.pdb
     RDKit          3D

 21 20  0  0  1  0  0  0  0  0999 V2000
    6.7758  -17.6318   22.6853 C   0  0  0  0  0  0  0  0  0  0  0  0
    7.5453  -17.0013   21.5509 C   0  0  1  0  0  0  0  0  0  0  0  0
    7.0424  -17.4167   20.3022 O   0  0  0  0  0  0  0  0  0  0  0  0
    7.4170  -15.4974   21.6617 C   0  0  2  0  0  0  0  0  0  0  0  0
    7.8061  -14.8375   20.4337 N   0  0  0  0  0  0  0  0  0  0  0  0
    8.1631  -14.9582   22.8216 C   0  0  0  0  0  0  0  0  0  0  0  0
    9.3813  -14.6636   22.7394 O   0  0  0  0  0  0  0  0  0  0  0  0
    5.5680  -11.8305   26.4944 C   0  0  0  0  0  0  0  0  0  0  0  0
    6.7215  -12.3090   25.6839 C   0  0  0  0  0  0  0  0  0  0  0  0
    7.4609  -13.4878   26.2451 C   0  0  2  0  0  0  0  0  0  0  0  0
    8.2153  -13.0792   27.4863 C   0  0  0  0  0  0  0  0  0  0  0  0
    8.2625  -14.2583   25.2515 C   0  0  2  0  0  0  0  0  0  0  0  0
    7.5442  -14.7388   24.1081 N   0  0  0  0  0  0  0  0  0  0  0  0
    9.0907  -15.3182   25.8881 C   0  0  0  0  0  0  0  0  0  0  0  0
    9.6682  -15.0097   26.9633 O   0  0  0  0  0  0  0  0  0  0  0  0
    9.2654  -18.2962   27.1337 C   0  0  0  0  0  0  0  0  0  0  0  0
   10.0456  -17.5996   26.0459 C   0  0  2  0  0  0  0  0  0  0  0  0
    9.2504  -16.6073   25.3569 N   0  0  0  0  0  0  0  0  0  0  0  0
   10.6310  -18.5604   25.0841 C   0  0  0  0  0  0  0  0  0  0  0  0
   11.5570  -19.5289   25.4469 O   0  0  0  0  0  0  0  0  0  0  0  0
   10.2880  -18.5161   23.8749 O   0  0  0  0  0  0  0  0  0  0  0  0
  2  1  1  1
  2  3  1  0
  2  4  1  0
  4  5  1  6
  6  4  1  0
  6  7  2  0
  9  8  1  0
 10  9  1  0
 10 11  1  1
 12 10  1  0
 12 13  1  6
 13  6  1  0
 14 12  1  0
 15 14  2  0
 17 16  1  1
 17 18  1  0
 18 14  1  0
 19 17  1  0
 19 20  1  0
 21 19  2  0
M  END
$$$$
