IFR.pdb
     RDKit          3D

 31 31  0  0  1  0  0  0  0  0999 V2000
   28.0475  -18.6109  -17.0997 C   0  0  0  0  0  0  0  0  0  0  0  0
   28.3693  -19.0899  -15.7321 C   0  0  0  0  0  0  0  0  0  0  0  0
   27.3072  -19.8196  -15.0022 C   0  0  2  0  0  0  0  0  0  0  0  0
   26.1284  -18.8367  -14.8744 C   0  0  0  0  0  0  0  0  0  0  0  0
   27.6308  -20.3457  -13.6581 C   0  0  2  0  0  0  0  0  0  0  0  0
   28.8364  -21.1361  -13.6567 N   0  0  0  0  0  0  0  0  0  0  0  0
   26.5198  -20.9760  -12.9229 C   0  0  0  0  0  0  0  0  0  0  0  0
   26.3388  -22.2090  -13.0651 O   0  0  0  0  0  0  0  0  0  0  0  0
   25.6422  -20.2655  -12.0647 N   0  0  0  0  0  0  0  0  0  0  0  0
   24.5833  -20.8595  -11.2798 C   0  0  1  0  0  0  0  0  0  0  0  0
   24.2673  -20.1190  -10.0137 C   0  0  0  0  0  0  0  0  0  0  0  0
   25.2994  -20.2117   -8.9661 C   0  0  0  0  0  0  0  0  0  0  0  0
   25.6331  -21.4614   -8.4802 C   0  0  0  0  0  0  0  0  0  0  0  0
   26.6059  -21.6000   -7.4886 C   0  0  0  0  0  0  0  0  0  0  0  0
   27.2515  -20.5007   -6.9748 C   0  0  0  0  0  0  0  0  0  0  0  0
   26.9250  -19.2523   -7.4533 C   0  0  0  0  0  0  0  0  0  0  0  0
   25.9621  -19.1277   -8.4334 C   0  0  0  0  0  0  0  0  0  0  0  0
   23.3272  -20.7644  -12.1143 C   0  0  0  0  0  0  0  0  0  0  0  0
   23.2067  -19.7667  -12.8578 O   0  0  0  0  0  0  0  0  0  0  0  0
   17.8661  -25.5880   -9.2947 N   0  0  0  0  0  0  0  0  0  0  0  0
   17.9160  -26.1016  -10.6360 C   0  0  0  0  0  0  0  0  0  0  0  0
   17.0145  -26.9045  -11.0619 N   0  0  0  0  0  0  0  0  0  0  0  0
   19.0001  -25.6654  -11.4193 N   0  0  0  0  0  0  0  0  0  0  0  0
   19.7858  -24.5276  -11.0051 C   0  0  0  0  0  0  0  0  0  0  0  0
   19.6316  -23.3426  -11.8649 C   0  0  0  0  0  0  0  0  0  0  0  0
   20.5588  -22.9888  -12.9194 C   0  0  0  0  0  0  0  0  0  0  0  0
   21.1842  -21.6437  -13.0087 C   0  0  2  0  0  0  0  0  0  0  0  0
   22.3472  -21.7555  -12.0506 N   0  0  0  0  0  0  0  0  0  0  0  0
   20.3351  -20.5837  -12.3920 C   0  0  0  0  0  0  0  0  0  0  0  0
   19.2251  -20.0277  -12.9622 O   0  0  0  0  0  0  0  0  0  0  0  0
   20.6210  -20.1040  -11.2279 O   0  0  0  0  0  0  0  0  0  0  0  0
  2  1  1  0
  2  3  1  0
  3  4  1  1
  5  6  1  6
  5  3  1  0
  7  8  2  0
  7  5  1  0
  9  7  1  0
 10  9  1  0
 11 12  1  0
 10 11  1  1
 12 17  2  0
 13 12  1  0
 13 14  2  0
 14 15  1  0
 15 16  2  0
 17 16  1  0
 18 10  1  0
 18 28  1  0
 19 18  2  0
 20 21  1  0
 21 22  2  0
 21 23  1  0
 23 24  1  0
 24 25  1  0
 25 26  1  0
 27 26  1  1
 27 28  1  0
 27 29  1  0
 29 31  2  0
 29 30  1  0
M  END
$$$$
