IFR.pdb
     RDKit          3D

 31 31  0  0  1  0  0  0  0  0999 V2000
   28.6822  -18.0297  -17.8806 C   0  0  0  0  0  0  0  0  0  0  0  0
   28.8132  -18.1285  -16.4054 C   0  0  0  0  0  0  0  0  0  0  0  0
   27.9584  -19.1208  -15.7141 C   0  0  2  0  0  0  0  0  0  0  0  0
   26.5112  -18.7958  -16.1286 C   0  0  0  0  0  0  0  0  0  0  0  0
   28.0247  -19.1783  -14.2374 C   0  0  2  0  0  0  0  0  0  0  0  0
   29.3739  -19.3446  -13.7574 N   0  0  0  0  0  0  0  0  0  0  0  0
   27.0572  -20.0738  -13.5785 C   0  0  0  0  0  0  0  0  0  0  0  0
   26.5633  -21.0105  -14.2508 O   0  0  0  0  0  0  0  0  0  0  0  0
   26.6519  -19.9345  -12.2266 N   0  0  0  0  0  0  0  0  0  0  0  0
   25.7000  -20.7872  -11.5506 C   0  0  1  0  0  0  0  0  0  0  0  0
   25.5448  -20.4956  -10.0871 C   0  0  0  0  0  0  0  0  0  0  0  0
   26.8005  -20.5019   -9.3161 C   0  0  0  0  0  0  0  0  0  0  0  0
   26.8862  -19.7029   -8.1920 C   0  0  0  0  0  0  0  0  0  0  0  0
   28.0546  -19.6763   -7.4285 C   0  0  0  0  0  0  0  0  0  0  0  0
   29.1424  -20.4412   -7.7762 C   0  0  0  0  0  0  0  0  0  0  0  0
   29.0653  -21.2398   -8.8944 C   0  0  0  0  0  0  0  0  0  0  0  0
   27.9053  -21.2580   -9.6411 C   0  0  0  0  0  0  0  0  0  0  0  0
   24.3492  -20.4851  -12.1567 C   0  0  0  0  0  0  0  0  0  0  0  0
   24.2775  -19.5171  -12.9444 O   0  0  0  0  0  0  0  0  0  0  0  0
   21.5105  -26.2987  -14.3039 N   0  0  0  0  0  0  0  0  0  0  0  0
   20.2459  -25.9650  -13.7081 C   0  0  0  0  0  0  0  0  0  0  0  0
   19.5473  -26.8588  -13.1149 N   0  0  0  0  0  0  0  0  0  0  0  0
   19.8493  -24.6204  -13.8245 N   0  0  0  0  0  0  0  0  0  0  0  0
   20.6224  -23.7003  -14.6241 C   0  0  0  0  0  0  0  0  0  0  0  0
   21.8506  -23.2181  -13.9710 C   0  0  0  0  0  0  0  0  0  0  0  0
   22.2131  -21.8196  -13.8739 C   0  0  0  0  0  0  0  0  0  0  0  0
   21.9740  -21.0208  -12.6437 C   0  0  2  0  0  0  0  0  0  0  0  0
   23.2329  -21.2613  -11.8434 N   0  0  0  0  0  0  0  0  0  0  0  0
   20.9063  -21.6110  -11.7854 C   0  0  0  0  0  0  0  0  0  0  0  0
   21.1171  -22.4070  -10.6954 O   0  0  0  0  0  0  0  0  0  0  0  0
   19.6595  -21.3960  -12.0428 O   0  0  0  0  0  0  0  0  0  0  0  0
  2  1  1  0
  2  3  1  0
  3  4  1  1
  5  6  1  6
  5  3  1  0
  7  8  2  0
  7  5  1  0
  9  7  1  0
 10  9  1  0
 11 12  1  0
 10 11  1  1
 12 17  2  0
 13 12  1  0
 13 14  2  0
 14 15  1  0
 15 16  2  0
 17 16  1  0
 18 10  1  0
 18 28  1  0
 19 18  2  0
 20 21  1  0
 21 22  2  0
 21 23  1  0
 23 24  1  0
 24 25  1  0
 25 26  1  0
 27 26  1  6
 27 28  1  0
 27 29  1  0
 29 31  2  0
 29 30  1  0
M  END
$$$$
