IFR.pdb
     RDKit          3D

 31 31  0  0  1  0  0  0  0  0999 V2000
   28.5977  -18.9278  -16.2694 C   0  0  0  0  0  0  0  0  0  0  0  0
   29.0405  -19.6360  -15.0423 C   0  0  0  0  0  0  0  0  0  0  0  0
   28.0182  -19.8934  -14.0022 C   0  0  2  0  0  0  0  0  0  0  0  0
   27.5545  -18.5091  -13.5116 C   0  0  0  0  0  0  0  0  0  0  0  0
   28.4166  -20.7009  -12.8286 C   0  0  2  0  0  0  0  0  0  0  0  0
   29.0101  -21.9589  -13.2074 N   0  0  0  0  0  0  0  0  0  0  0  0
   27.4121  -20.8293  -11.7578 C   0  0  0  0  0  0  0  0  0  0  0  0
   26.5222  -21.7046  -11.8816 O   0  0  0  0  0  0  0  0  0  0  0  0
   27.3944  -20.0169  -10.5954 N   0  0  0  0  0  0  0  0  0  0  0  0
   26.3990  -20.0824   -9.5489 C   0  0  1  0  0  0  0  0  0  0  0  0
   26.5791  -19.0610   -8.4648 C   0  0  0  0  0  0  0  0  0  0  0  0
   27.1505  -19.5812   -7.2102 C   0  0  0  0  0  0  0  0  0  0  0  0
   27.5601  -18.6769   -6.2491 C   0  0  0  0  0  0  0  0  0  0  0  0
   28.1062  -19.1218   -5.0439 C   0  0  0  0  0  0  0  0  0  0  0  0
   28.2486  -20.4645   -4.7866 C   0  0  0  0  0  0  0  0  0  0  0  0
   27.8432  -21.3719   -5.7386 C   0  0  0  0  0  0  0  0  0  0  0  0
   27.3049  -20.9204   -6.9259 C   0  0  0  0  0  0  0  0  0  0  0  0
   25.0763  -19.7408  -10.1946 C   0  0  0  0  0  0  0  0  0  0  0  0
   25.0819  -18.8620  -11.0836 O   0  0  0  0  0  0  0  0  0  0  0  0
   20.1176  -21.9691  -15.7505 N   0  0  0  0  0  0  0  0  0  0  0  0
   21.3342  -21.3076  -16.1348 C   0  0  0  0  0  0  0  0  0  0  0  0
   21.3858  -20.6042  -17.2032 N   0  0  0  0  0  0  0  0  0  0  0  0
   22.4294  -21.4884  -15.2706 N   0  0  0  0  0  0  0  0  0  0  0  0
   22.2694  -22.2193  -14.0362 C   0  0  0  0  0  0  0  0  0  0  0  0
   22.0003  -21.3711  -12.8634 C   0  0  0  0  0  0  0  0  0  0  0  0
   22.9912  -21.0546  -11.8561 C   0  0  0  0  0  0  0  0  0  0  0  0
   22.6846  -20.1961  -10.6825 C   0  0  2  0  0  0  0  0  0  0  0  0
   23.9014  -20.3859   -9.8070 N   0  0  0  0  0  0  0  0  0  0  0  0
   21.5767  -20.7500   -9.8514 C   0  0  0  0  0  0  0  0  0  0  0  0
   20.2531  -20.4422   -9.9906 O   0  0  0  0  0  0  0  0  0  0  0  0
   21.8214  -21.5894   -8.9013 O   0  0  0  0  0  0  0  0  0  0  0  0
  2  1  1  0
  2  3  1  0
  3  4  1  1
  5  6  1  6
  5  3  1  0
  7  8  2  0
  7  5  1  0
  9  7  1  0
 10  9  1  0
 11 12  1  0
 10 11  1  1
 12 17  2  0
 13 12  1  0
 13 14  2  0
 14 15  1  0
 15 16  2  0
 17 16  1  0
 18 10  1  0
 18 28  1  0
 19 18  2  0
 20 21  1  0
 21 22  2  0
 21 23  1  0
 23 24  1  0
 24 25  1  0
 25 26  1  0
 27 26  1  6
 27 28  1  0
 27 29  1  0
 29 31  2  0
 29 30  1  0
M  END
$$$$
