IFR.pdb
     RDKit          3D

 31 31  0  0  1  0  0  0  0  0999 V2000
   26.7343  -18.0534  -20.0057 C   0  0  0  0  0  0  0  0  0  0  0  0
   27.3364  -19.3557  -19.6254 C   0  0  0  0  0  0  0  0  0  0  0  0
   26.7392  -20.0675  -18.4722 C   0  0  2  0  0  0  0  0  0  0  0  0
   25.2930  -20.4018  -18.8829 C   0  0  0  0  0  0  0  0  0  0  0  0
   26.7099  -19.3672  -17.1695 C   0  0  2  0  0  0  0  0  0  0  0  0
   27.9467  -18.6811  -16.8904 N   0  0  0  0  0  0  0  0  0  0  0  0
   26.2043  -20.1461  -16.0250 C   0  0  0  0  0  0  0  0  0  0  0  0
   25.8536  -21.3337  -16.2248 O   0  0  0  0  0  0  0  0  0  0  0  0
   26.0905  -19.6270  -14.7101 N   0  0  0  0  0  0  0  0  0  0  0  0
   25.5266  -20.3336  -13.5819 C   0  0  1  0  0  0  0  0  0  0  0  0
   25.7201  -19.6421  -12.2646 C   0  0  0  0  0  0  0  0  0  0  0  0
   25.1052  -20.3212  -11.1105 C   0  0  0  0  0  0  0  0  0  0  0  0
   23.8334  -19.9422  -10.7252 C   0  0  0  0  0  0  0  0  0  0  0  0
   23.2089  -20.5575   -9.6389 C   0  0  0  0  0  0  0  0  0  0  0  0
   23.8421  -21.5506   -8.9304 C   0  0  0  0  0  0  0  0  0  0  0  0
   25.1090  -21.9340   -9.3076 C   0  0  0  0  0  0  0  0  0  0  0  0
   25.7161  -21.3188  -10.3829 C   0  0  0  0  0  0  0  0  0  0  0  0
   24.0311  -20.3584  -13.7966 C   0  0  0  0  0  0  0  0  0  0  0  0
   23.4774  -19.2797  -14.1009 O   0  0  0  0  0  0  0  0  0  0  0  0
   18.5841  -25.0044  -17.1637 N   0  0  0  0  0  0  0  0  0  0  0  0
   17.5679  -24.1717  -16.5810 C   0  0  0  0  0  0  0  0  0  0  0  0
   16.3495  -24.5619  -16.5371 N   0  0  0  0  0  0  0  0  0  0  0  0
   18.0050  -22.9327  -16.0780 N   0  0  0  0  0  0  0  0  0  0  0  0
   19.3956  -22.5580  -16.1741 C   0  0  0  0  0  0  0  0  0  0  0  0
   20.2439  -23.1070  -15.1034 C   0  0  0  0  0  0  0  0  0  0  0  0
   21.5748  -22.6215  -14.8040 C   0  0  0  0  0  0  0  0  0  0  0  0
   21.8148  -21.4741  -13.8905 C   0  0  2  0  0  0  0  0  0  0  0  0
   23.3063  -21.5426  -13.6584 N   0  0  0  0  0  0  0  0  0  0  0  0
   21.2472  -21.7063  -12.5307 C   0  0  0  0  0  0  0  0  0  0  0  0
   20.0529  -21.2211  -12.0785 O   0  0  0  0  0  0  0  0  0  0  0  0
   21.8897  -22.4095  -11.6592 O   0  0  0  0  0  0  0  0  0  0  0  0
  2  1  1  0
  2  3  1  0
  3  4  1  6
  5  6  1  1
  5  3  1  0
  7  8  2  0
  7  5  1  0
  9  7  1  0
 10  9  1  0
 11 12  1  0
 10 11  1  1
 12 17  2  0
 13 12  1  0
 13 14  2  0
 14 15  1  0
 15 16  2  0
 17 16  1  0
 18 10  1  0
 18 28  1  0
 19 18  2  0
 20 21  1  0
 21 22  2  0
 21 23  1  0
 23 24  1  0
 24 25  1  0
 25 26  1  0
 27 26  1  6
 27 28  1  0
 27 29  1  0
 29 31  2  0
 29 30  1  0
M  END
$$$$
