IFR.pdb
     RDKit          3D

 31 31  0  0  1  0  0  0  0  0999 V2000
   24.9900  -26.2762  -18.2564 C   0  0  0  0  0  0  0  0  0  0  0  0
   25.5031  -25.5766  -17.0521 C   0  0  0  0  0  0  0  0  0  0  0  0
   24.6498  -24.5156  -16.4696 C   0  0  2  0  0  0  0  0  0  0  0  0
   24.4445  -23.4755  -17.5867 C   0  0  0  0  0  0  0  0  0  0  0  0
   25.1434  -23.8193  -15.2615 C   0  0  2  0  0  0  0  0  0  0  0  0
   25.5130  -24.7384  -14.2141 N   0  0  0  0  0  0  0  0  0  0  0  0
   24.3262  -22.6896  -14.7838 C   0  0  0  0  0  0  0  0  0  0  0  0
   23.1884  -22.9366  -14.3172 O   0  0  0  0  0  0  0  0  0  0  0  0
   24.7539  -21.3380  -14.8240 N   0  0  0  0  0  0  0  0  0  0  0  0
   23.9731  -20.2041  -14.3825 C   0  0  1  0  0  0  0  0  0  0  0  0
   24.6887  -19.3027  -13.4200 C   0  0  0  0  0  0  0  0  0  0  0  0
   24.8460  -19.8466  -12.0596 C   0  0  0  0  0  0  0  0  0  0  0  0
   23.7540  -19.8274  -11.2132 C   0  0  0  0  0  0  0  0  0  0  0  0
   23.8537  -20.3327   -9.9157 C   0  0  0  0  0  0  0  0  0  0  0  0
   25.0359  -20.8587   -9.4521 C   0  0  0  0  0  0  0  0  0  0  0  0
   26.1284  -20.8816  -10.2888 C   0  0  0  0  0  0  0  0  0  0  0  0
   26.0179  -20.3795  -11.5690 C   0  0  0  0  0  0  0  0  0  0  0  0
   23.7242  -19.3535  -15.6063 C   0  0  0  0  0  0  0  0  0  0  0  0
   24.7155  -19.0480  -16.3039 O   0  0  0  0  0  0  0  0  0  0  0  0
   15.9505  -17.3505  -18.7259 N   0  0  0  0  0  0  0  0  0  0  0  0
   16.5428  -16.9878  -17.4677 C   0  0  0  0  0  0  0  0  0  0  0  0
   15.8106  -16.6368  -16.4780 N   0  0  0  0  0  0  0  0  0  0  0  0
   17.9472  -17.0476  -17.4117 N   0  0  0  0  0  0  0  0  0  0  0  0
   18.7171  -17.2198  -18.6205 C   0  0  0  0  0  0  0  0  0  0  0  0
   20.1727  -17.2722  -18.4066 C   0  0  0  0  0  0  0  0  0  0  0  0
   20.8048  -18.0630  -17.3713 C   0  0  0  0  0  0  0  0  0  0  0  0
   22.2786  -18.0928  -17.1832 C   0  0  2  0  0  0  0  0  0  0  0  0
   22.4359  -18.9311  -15.9359 N   0  0  0  0  0  0  0  0  0  0  0  0
   22.8228  -16.7659  -16.7732 C   0  0  0  0  0  0  0  0  0  0  0  0
   22.8667  -16.2899  -15.4935 O   0  0  0  0  0  0  0  0  0  0  0  0
   23.3012  -15.9494  -17.6515 O   0  0  0  0  0  0  0  0  0  0  0  0
  2  1  1  0
  2  3  1  0
  3  4  1  6
  5  6  1  1
  5  3  1  0
  7  8  2  0
  7  5  1  0
  9  7  1  0
 10  9  1  0
 11 12  1  0
 10 11  1  1
 12 17  2  0
 13 12  1  0
 13 14  2  0
 14 15  1  0
 15 16  2  0
 17 16  1  0
 18 10  1  0
 18 28  1  0
 19 18  2  0
 20 21  1  0
 21 22  2  0
 21 23  1  0
 23 24  1  0
 24 25  1  0
 25 26  1  0
 27 26  1  1
 27 28  1  0
 27 29  1  0
 29 31  2  0
 29 30  1  0
M  END
$$$$
