IFR.pdb
     RDKit          3D

 31 31  0  0  1  0  0  0  0  0999 V2000
   25.2871  -22.5287  -18.7929 C   0  0  0  0  0  0  0  0  0  0  0  0
   25.7710  -22.4568  -17.3915 C   0  0  0  0  0  0  0  0  0  0  0  0
   24.7481  -22.4513  -16.3207 C   0  0  2  0  0  0  0  0  0  0  0  0
   23.9337  -21.1591  -16.5188 C   0  0  0  0  0  0  0  0  0  0  0  0
   25.2170  -22.5033  -14.9188 C   0  0  2  0  0  0  0  0  0  0  0  0
   26.0807  -23.6311  -14.6733 N   0  0  0  0  0  0  0  0  0  0  0  0
   24.1851  -22.3230  -13.8820 C   0  0  0  0  0  0  0  0  0  0  0  0
   23.5881  -23.3407  -13.4564 O   0  0  0  0  0  0  0  0  0  0  0  0
   23.8280  -21.0621  -13.3396 N   0  0  0  0  0  0  0  0  0  0  0  0
   22.8530  -20.8519  -12.2930 C   0  0  1  0  0  0  0  0  0  0  0  0
   23.1859  -19.7247  -11.3605 C   0  0  0  0  0  0  0  0  0  0  0  0
   24.2011  -20.0417  -10.3406 C   0  0  0  0  0  0  0  0  0  0  0  0
   25.4984  -20.2764  -10.7545 C   0  0  0  0  0  0  0  0  0  0  0  0
   26.4953  -20.5791   -9.8253 C   0  0  0  0  0  0  0  0  0  0  0  0
   26.2103  -20.6504   -8.4826 C   0  0  0  0  0  0  0  0  0  0  0  0
   24.9207  -20.4180   -8.0620 C   0  0  0  0  0  0  0  0  0  0  0  0
   23.9439  -20.1197   -8.9894 C   0  0  0  0  0  0  0  0  0  0  0  0
   21.5740  -20.4301  -12.9782 C   0  0  0  0  0  0  0  0  0  0  0  0
   21.6743  -19.6518  -13.9513 O   0  0  0  0  0  0  0  0  0  0  0  0
   18.6144  -27.0463  -15.3092 N   0  0  0  0  0  0  0  0  0  0  0  0
   19.9018  -26.4409  -15.1052 C   0  0  0  0  0  0  0  0  0  0  0  0
   20.9678  -27.0188  -15.5157 N   0  0  0  0  0  0  0  0  0  0  0  0
   19.8977  -25.2015  -14.4398 N   0  0  0  0  0  0  0  0  0  0  0  0
   18.6489  -24.5693  -14.0866 C   0  0  0  0  0  0  0  0  0  0  0  0
   18.7998  -23.2597  -13.4312 C   0  0  0  0  0  0  0  0  0  0  0  0
   19.0735  -22.0304  -14.1457 C   0  0  0  0  0  0  0  0  0  0  0  0
   19.1548  -20.7145  -13.4599 C   0  0  2  0  0  0  0  0  0  0  0  0
   20.3358  -20.8960  -12.5350 N   0  0  0  0  0  0  0  0  0  0  0  0
   18.0167  -20.4955  -12.5208 C   0  0  0  0  0  0  0  0  0  0  0  0
   16.7622  -20.0903  -12.8788 O   0  0  0  0  0  0  0  0  0  0  0  0
   18.1643  -20.6803  -11.2515 O   0  0  0  0  0  0  0  0  0  0  0  0
  2  1  1  0
  2  3  1  0
  3  4  1  1
  5  6  1  1
  5  3  1  0
  7  8  2  0
  7  5  1  0
  9  7  1  0
 10  9  1  0
 11 12  1  0
 10 11  1  1
 12 17  2  0
 13 12  1  0
 13 14  2  0
 14 15  1  0
 15 16  2  0
 17 16  1  0
 18 10  1  0
 18 28  1  0
 19 18  2  0
 20 21  1  0
 21 22  2  0
 21 23  1  0
 23 24  1  0
 24 25  1  0
 25 26  1  0
 27 26  1  1
 27 28  1  0
 27 29  1  0
 29 31  2  0
 29 30  1  0
M  END
$$$$
