IFR.pdb
     RDKit          3D

 31 31  0  0  1  0  0  0  0  0999 V2000
   26.1647  -21.4525  -20.1300 C   0  0  0  0  0  0  0  0  0  0  0  0
   26.9325  -21.9800  -18.9743 C   0  0  0  0  0  0  0  0  0  0  0  0
   26.2285  -22.0629  -17.6741 C   0  0  2  0  0  0  0  0  0  0  0  0
   25.7217  -20.6398  -17.3747 C   0  0  0  0  0  0  0  0  0  0  0  0
   26.9946  -22.5467  -16.5047 C   0  0  2  0  0  0  0  0  0  0  0  0
   27.5504  -23.8592  -16.7210 N   0  0  0  0  0  0  0  0  0  0  0  0
   26.3385  -22.4006  -15.1932 C   0  0  0  0  0  0  0  0  0  0  0  0
   25.3675  -23.1494  -14.9293 O   0  0  0  0  0  0  0  0  0  0  0  0
   26.7428  -21.4587  -14.2129 N   0  0  0  0  0  0  0  0  0  0  0  0
   26.1696  -21.3342  -12.8914 C   0  0  1  0  0  0  0  0  0  0  0  0
   27.0042  -20.5378  -11.9321 C   0  0  0  0  0  0  0  0  0  0  0  0
   26.3998  -20.3347  -10.6038 C   0  0  0  0  0  0  0  0  0  0  0  0
   26.4656  -21.3659   -9.6864 C   0  0  0  0  0  0  0  0  0  0  0  0
   25.9087  -21.2202   -8.4147 C   0  0  0  0  0  0  0  0  0  0  0  0
   25.2844  -20.0521   -8.0473 C   0  0  0  0  0  0  0  0  0  0  0  0
   25.2145  -19.0200   -8.9550 C   0  0  0  0  0  0  0  0  0  0  0  0
   25.7685  -19.1756  -10.2089 C   0  0  0  0  0  0  0  0  0  0  0  0
   24.8926  -20.5427  -13.0518 C   0  0  0  0  0  0  0  0  0  0  0  0
   24.9576  -19.4734  -13.6960 O   0  0  0  0  0  0  0  0  0  0  0  0
   20.7257  -16.7055  -16.5487 N   0  0  0  0  0  0  0  0  0  0  0  0
   22.1519  -16.8621  -16.6318 C   0  0  0  0  0  0  0  0  0  0  0  0
   22.9069  -15.8558  -16.8684 N   0  0  0  0  0  0  0  0  0  0  0  0
   22.6372  -18.1683  -16.4381 N   0  0  0  0  0  0  0  0  0  0  0  0
   21.7187  -19.2746  -16.3119 C   0  0  0  0  0  0  0  0  0  0  0  0
   21.3208  -19.5735  -14.9264 C   0  0  0  0  0  0  0  0  0  0  0  0
   22.0308  -20.4988  -14.0682 C   0  0  0  0  0  0  0  0  0  0  0  0
   22.4696  -20.1326  -12.6964 C   0  0  2  0  0  0  0  0  0  0  0  0
   23.6940  -20.9957  -12.4994 N   0  0  0  0  0  0  0  0  0  0  0  0
   21.5295  -20.6306  -11.6507 C   0  0  0  0  0  0  0  0  0  0  0  0
   20.4568  -19.9426  -11.1588 O   0  0  0  0  0  0  0  0  0  0  0  0
   21.6903  -21.7971  -11.1211 O   0  0  0  0  0  0  0  0  0  0  0  0
  2  1  1  0
  2  3  1  0
  3  4  1  1
  5  6  1  6
  5  3  1  0
  7  8  2  0
  7  5  1  0
  9  7  1  0
 10  9  1  0
 11 12  1  0
 10 11  1  1
 12 17  2  0
 13 12  1  0
 13 14  2  0
 14 15  1  0
 15 16  2  0
 17 16  1  0
 18 10  1  0
 18 28  1  0
 19 18  2  0
 20 21  1  0
 21 22  2  0
 21 23  1  0
 23 24  1  0
 24 25  1  0
 25 26  1  0
 27 26  1  6
 27 28  1  0
 27 29  1  0
 29 31  2  0
 29 30  1  0
M  END
$$$$
