IFR.pdb
     RDKit          3D

 31 31  0  0  1  0  0  0  0  0999 V2000
   28.6413  -16.8440  -15.9843 C   0  0  0  0  0  0  0  0  0  0  0  0
   29.0727  -18.2374  -16.2590 C   0  0  0  0  0  0  0  0  0  0  0  0
   28.3653  -19.3205  -15.5382 C   0  0  2  0  0  0  0  0  0  0  0  0
   27.0192  -19.5041  -16.2637 C   0  0  0  0  0  0  0  0  0  0  0  0
   28.1015  -19.1306  -14.0951 C   0  0  2  0  0  0  0  0  0  0  0  0
   29.3067  -18.8653  -13.3499 N   0  0  0  0  0  0  0  0  0  0  0  0
   27.2306  -20.1338  -13.4568 C   0  0  0  0  0  0  0  0  0  0  0  0
   27.0017  -21.2001  -14.0763 O   0  0  0  0  0  0  0  0  0  0  0  0
   26.6351  -19.9599  -12.1815 N   0  0  0  0  0  0  0  0  0  0  0  0
   25.8332  -20.9479  -11.4952 C   0  0  1  0  0  0  0  0  0  0  0  0
   25.4737  -20.5770  -10.0866 C   0  0  0  0  0  0  0  0  0  0  0  0
   26.6083  -20.5313   -9.1477 C   0  0  0  0  0  0  0  0  0  0  0  0
   27.6889  -21.3604   -9.3808 C   0  0  0  0  0  0  0  0  0  0  0  0
   28.7878  -21.3518   -8.5200 C   0  0  0  0  0  0  0  0  0  0  0  0
   28.8201  -20.5217   -7.4250 C   0  0  0  0  0  0  0  0  0  0  0  0
   27.7479  -19.6927   -7.1856 C   0  0  0  0  0  0  0  0  0  0  0  0
   26.6674  -19.7099   -8.0432 C   0  0  0  0  0  0  0  0  0  0  0  0
   24.5157  -21.0163  -12.2319 C   0  0  0  0  0  0  0  0  0  0  0  0
   24.0537  -19.9453  -12.6816 O   0  0  0  0  0  0  0  0  0  0  0  0
   21.7945  -27.9879  -13.8836 N   0  0  0  0  0  0  0  0  0  0  0  0
   20.4806  -27.4276  -13.7245 C   0  0  0  0  0  0  0  0  0  0  0  0
   19.5870  -28.0411  -13.0434 N   0  0  0  0  0  0  0  0  0  0  0  0
   20.2615  -26.1901  -14.3565 N   0  0  0  0  0  0  0  0  0  0  0  0
   21.3473  -25.5104  -15.0219 C   0  0  0  0  0  0  0  0  0  0  0  0
   21.5119  -24.1026  -14.6241 C   0  0  0  0  0  0  0  0  0  0  0  0
   22.4482  -23.6573  -13.6132 C   0  0  0  0  0  0  0  0  0  0  0  0
   22.5982  -22.2253  -13.2453 C   0  0  2  0  0  0  0  0  0  0  0  0
   23.8494  -22.2309  -12.3982 N   0  0  0  0  0  0  0  0  0  0  0  0
   21.5433  -21.7733  -12.2925 C   0  0  0  0  0  0  0  0  0  0  0  0
   20.3835  -21.1397  -12.6384 O   0  0  0  0  0  0  0  0  0  0  0  0
   21.6784  -21.9599  -11.0221 O   0  0  0  0  0  0  0  0  0  0  0  0
  2  1  1  0
  2  3  1  0
  3  4  1  6
  5  6  1  1
  5  3  1  0
  7  8  2  0
  7  5  1  0
  9  7  1  0
 10  9  1  0
 11 12  1  0
 10 11  1  1
 12 17  2  0
 13 12  1  0
 13 14  2  0
 14 15  1  0
 15 16  2  0
 17 16  1  0
 18 10  1  0
 18 28  1  0
 19 18  2  0
 20 21  1  0
 21 22  2  0
 21 23  1  0
 23 24  1  0
 24 25  1  0
 25 26  1  0
 27 26  1  1
 27 28  1  0
 27 29  1  0
 29 31  2  0
 29 30  1  0
M  END
$$$$
