IFR.pdb
     RDKit          3D

 31 31  0  0  1  0  0  0  0  0999 V2000
   30.0536  -22.3657  -20.1093 C   0  0  0  0  0  0  0  0  0  0  0  0
   28.9264  -21.6017  -19.5186 C   0  0  0  0  0  0  0  0  0  0  0  0
   28.5307  -21.9407  -18.1323 C   0  0  2  0  0  0  0  0  0  0  0  0
   28.1005  -23.4192  -18.1636 C   0  0  0  0  0  0  0  0  0  0  0  0
   27.4481  -21.1473  -17.5106 C   0  0  2  0  0  0  0  0  0  0  0  0
   27.6345  -19.7298  -17.6957 N   0  0  0  0  0  0  0  0  0  0  0  0
   27.0871  -21.5122  -16.1290 C   0  0  0  0  0  0  0  0  0  0  0  0
   26.8893  -22.7229  -15.8680 O   0  0  0  0  0  0  0  0  0  0  0  0
   26.9489  -20.5699  -15.0780 N   0  0  0  0  0  0  0  0  0  0  0  0
   26.4903  -20.8749  -13.7413 C   0  0  1  0  0  0  0  0  0  0  0  0
   27.0422  -19.9686  -12.6805 C   0  0  0  0  0  0  0  0  0  0  0  0
   26.5654  -20.2488  -11.3148 C   0  0  0  0  0  0  0  0  0  0  0  0
   25.4809  -19.5377  -10.8378 C   0  0  0  0  0  0  0  0  0  0  0  0
   24.9920  -19.7689   -9.5509 C   0  0  0  0  0  0  0  0  0  0  0  0
   25.5759  -20.7055   -8.7317 C   0  0  0  0  0  0  0  0  0  0  0  0
   26.6566  -21.4181   -9.1991 C   0  0  0  0  0  0  0  0  0  0  0  0
   27.1309  -21.1810  -10.4727 C   0  0  0  0  0  0  0  0  0  0  0  0
   24.9998  -20.6268  -13.7333 C   0  0  0  0  0  0  0  0  0  0  0  0
   24.5974  -19.5361  -14.1927 O   0  0  0  0  0  0  0  0  0  0  0  0
   20.2936  -23.1750  -17.0140 N   0  0  0  0  0  0  0  0  0  0  0  0
   19.0153  -23.5567  -16.4795 C   0  0  0  0  0  0  0  0  0  0  0  0
   17.9340  -23.2593  -17.0969 N   0  0  0  0  0  0  0  0  0  0  0  0
   19.0456  -24.2615  -15.2624 N   0  0  0  0  0  0  0  0  0  0  0  0
   20.2337  -24.2475  -14.4428 C   0  0  0  0  0  0  0  0  0  0  0  0
   20.8349  -22.9143  -14.2744 C   0  0  0  0  0  0  0  0  0  0  0  0
   22.0745  -22.6755  -13.5652 C   0  0  0  0  0  0  0  0  0  0  0  0
   22.6383  -21.3119  -13.3881 C   0  0  2  0  0  0  0  0  0  0  0  0
   24.1164  -21.5830  -13.2312 N   0  0  0  0  0  0  0  0  0  0  0  0
   22.2608  -20.7104  -12.0763 C   0  0  0  0  0  0  0  0  0  0  0  0
   22.8099  -21.0370  -10.8688 O   0  0  0  0  0  0  0  0  0  0  0  0
   21.3422  -19.8059  -12.0056 O   0  0  0  0  0  0  0  0  0  0  0  0
  2  1  1  0
  2  3  1  0
  3  4  1  6
  5  6  1  1
  5  3  1  0
  7  8  2  0
  7  5  1  0
  9  7  1  0
 10  9  1  0
 11 12  1  0
 10 11  1  1
 12 17  2  0
 13 12  1  0
 13 14  2  0
 14 15  1  0
 15 16  2  0
 17 16  1  0
 18 10  1  0
 18 28  1  0
 19 18  2  0
 20 21  1  0
 21 22  2  0
 21 23  1  0
 23 24  1  0
 24 25  1  0
 25 26  1  0
 27 26  1  1
 27 28  1  0
 27 29  1  0
 29 31  2  0
 29 30  1  0
M  END
$$$$
