IFR.pdb
     RDKit          3D

 31 31  0  0  1  0  0  0  0  0999 V2000
   22.9270   -6.8804  -23.3591 C   0  0  0  0  0  0  0  0  0  0  0  0
   23.4270   -8.1487  -22.7720 C   0  0  0  0  0  0  0  0  0  0  0  0
   22.8516   -8.5677  -21.4734 C   0  0  2  0  0  0  0  0  0  0  0  0
   21.7121   -7.5756  -21.1746 C   0  0  0  0  0  0  0  0  0  0  0  0
   23.7543   -8.6160  -20.3026 C   0  0  2  0  0  0  0  0  0  0  0  0
   24.9018   -9.4580  -20.5321 N   0  0  0  0  0  0  0  0  0  0  0  0
   23.1121   -8.8494  -18.9968 C   0  0  0  0  0  0  0  0  0  0  0  0
   22.6229   -9.9820  -18.7707 O   0  0  0  0  0  0  0  0  0  0  0  0
   23.0145   -7.8637  -17.9817 N   0  0  0  0  0  0  0  0  0  0  0  0
   22.4014   -8.0596  -16.6871 C   0  0  1  0  0  0  0  0  0  0  0  0
   23.3047   -7.7588  -15.5275 C   0  0  0  0  0  0  0  0  0  0  0  0
   24.3241   -8.7864  -15.2517 C   0  0  0  0  0  0  0  0  0  0  0  0
   25.5974   -8.6018  -15.7558 C   0  0  0  0  0  0  0  0  0  0  0  0
   26.5973   -9.5469  -15.5198 C   0  0  0  0  0  0  0  0  0  0  0  0
   26.3391  -10.6785  -14.7836 C   0  0  0  0  0  0  0  0  0  0  0  0
   25.0735  -10.8701  -14.2780 C   0  0  0  0  0  0  0  0  0  0  0  0
   24.0935   -9.9291  -14.5176 C   0  0  0  0  0  0  0  0  0  0  0  0
   21.2828   -7.0487  -16.5861 C   0  0  0  0  0  0  0  0  0  0  0  0
   21.5337   -5.8778  -16.9450 O   0  0  0  0  0  0  0  0  0  0  0  0
   12.6803   -8.6595  -15.9458 N   0  0  0  0  0  0  0  0  0  0  0  0
   12.6738   -7.2266  -15.8360 C   0  0  0  0  0  0  0  0  0  0  0  0
   11.5752   -6.5886  -15.6781 N   0  0  0  0  0  0  0  0  0  0  0  0
   13.9311   -6.6003  -15.9129 N   0  0  0  0  0  0  0  0  0  0  0  0
   15.1278   -7.3893  -16.0831 C   0  0  0  0  0  0  0  0  0  0  0  0
   16.3746   -6.6068  -16.0608 C   0  0  0  0  0  0  0  0  0  0  0  0
   17.6949   -7.1964  -16.1371 C   0  0  0  0  0  0  0  0  0  0  0  0
   18.9324   -6.3736  -16.1558 C   0  0  2  0  0  0  0  0  0  0  0  0
   20.0241   -7.4172  -16.1101 N   0  0  0  0  0  0  0  0  0  0  0  0
   19.1284   -5.6191  -14.8840 C   0  0  0  0  0  0  0  0  0  0  0  0
   18.7714   -4.3175  -14.6732 O   0  0  0  0  0  0  0  0  0  0  0  0
   19.6807   -6.1821  -13.8618 O   0  0  0  0  0  0  0  0  0  0  0  0
  2  1  1  0
  2  3  1  0
  3  4  1  1
  5  6  1  6
  5  3  1  0
  7  8  2  0
  7  5  1  0
  9  7  1  0
 10  9  1  0
 11 12  1  0
 10 11  1  1
 12 17  2  0
 13 12  1  0
 13 14  2  0
 14 15  1  0
 15 16  2  0
 17 16  1  0
 18 10  1  0
 18 28  1  0
 19 18  2  0
 20 21  1  0
 21 22  2  0
 21 23  1  0
 23 24  1  0
 24 25  1  0
 25 26  1  0
 27 26  1  1
 27 28  1  0
 27 29  1  0
 29 31  2  0
 29 30  1  0
M  END
$$$$
