IFR.pdb
     RDKit          3D

 31 31  0  0  1  0  0  0  0  0999 V2000
   28.3288  -23.0630  -20.9278 C   0  0  0  0  0  0  0  0  0  0  0  0
   27.5937  -22.0178  -20.1725 C   0  0  0  0  0  0  0  0  0  0  0  0
   27.2157  -22.3309  -18.7753 C   0  0  2  0  0  0  0  0  0  0  0  0
   26.1044  -23.3934  -18.8645 C   0  0  0  0  0  0  0  0  0  0  0  0
   26.7383  -21.2190  -17.9244 C   0  0  2  0  0  0  0  0  0  0  0  0
   27.6152  -20.0760  -17.9766 N   0  0  0  0  0  0  0  0  0  0  0  0
   26.3306  -21.5787  -16.5546 C   0  0  0  0  0  0  0  0  0  0  0  0
   25.9487  -22.7539  -16.3389 O   0  0  0  0  0  0  0  0  0  0  0  0
   26.3441  -20.6693  -15.4663 N   0  0  0  0  0  0  0  0  0  0  0  0
   25.8762  -20.9627  -14.1302 C   0  0  1  0  0  0  0  0  0  0  0  0
   26.4085  -20.0376  -13.0757 C   0  0  0  0  0  0  0  0  0  0  0  0
   25.9584  -20.3347  -11.7045 C   0  0  0  0  0  0  0  0  0  0  0  0
   24.7919  -19.7473  -11.2531 C   0  0  0  0  0  0  0  0  0  0  0  0
   24.3246  -19.9995   -9.9621 C   0  0  0  0  0  0  0  0  0  0  0  0
   25.0114  -20.8345   -9.1135 C   0  0  0  0  0  0  0  0  0  0  0  0
   26.1742  -21.4236   -9.5552 C   0  0  0  0  0  0  0  0  0  0  0  0
   26.6263  -21.1670  -10.8331 C   0  0  0  0  0  0  0  0  0  0  0  0
   24.3831  -20.7304  -14.1392 C   0  0  0  0  0  0  0  0  0  0  0  0
   23.9727  -19.6560  -14.6292 O   0  0  0  0  0  0  0  0  0  0  0  0
   18.2323  -26.0556  -11.3327 N   0  0  0  0  0  0  0  0  0  0  0  0
   19.4092  -26.2843  -12.1252 C   0  0  0  0  0  0  0  0  0  0  0  0
   19.7177  -27.4654  -12.5106 N   0  0  0  0  0  0  0  0  0  0  0  0
   20.1711  -25.1428  -12.4345 N   0  0  0  0  0  0  0  0  0  0  0  0
   19.5342  -23.8529  -12.5529 C   0  0  0  0  0  0  0  0  0  0  0  0
   20.0408  -23.0294  -13.6630 C   0  0  0  0  0  0  0  0  0  0  0  0
   21.4456  -22.7586  -13.8866 C   0  0  0  0  0  0  0  0  0  0  0  0
   22.0264  -21.3992  -13.7341 C   0  0  2  0  0  0  0  0  0  0  0  0
   23.5061  -21.6828  -13.6191 N   0  0  0  0  0  0  0  0  0  0  0  0
   21.6931  -20.7871  -12.4153 C   0  0  0  0  0  0  0  0  0  0  0  0
   20.6644  -19.9186  -12.1835 O   0  0  0  0  0  0  0  0  0  0  0  0
   22.3990  -21.0532  -11.3675 O   0  0  0  0  0  0  0  0  0  0  0  0
  2  1  1  0
  2  3  1  0
  3  4  1  6
  5  6  1  1
  5  3  1  0
  7  8  2  0
  7  5  1  0
  9  7  1  0
 10  9  1  0
 11 12  1  0
 10 11  1  1
 12 17  2  0
 13 12  1  0
 13 14  2  0
 14 15  1  0
 15 16  2  0
 17 16  1  0
 18 10  1  0
 18 28  1  0
 19 18  2  0
 20 21  1  0
 21 22  2  0
 21 23  1  0
 23 24  1  0
 24 25  1  0
 25 26  1  0
 27 26  1  1
 27 28  1  0
 27 29  1  0
 29 31  2  0
 29 30  1  0
M  END
$$$$
