IFR.pdb
     RDKit          3D

 31 31  0  0  1  0  0  0  0  0999 V2000
   24.4525  -20.1286  -16.7586 C   0  0  0  0  0  0  0  0  0  0  0  0
   23.4940  -20.6557  -15.7553 C   0  0  0  0  0  0  0  0  0  0  0  0
   24.0470  -21.0875  -14.4511 C   0  0  2  0  0  0  0  0  0  0  0  0
   23.4025  -22.4531  -14.1483 C   0  0  0  0  0  0  0  0  0  0  0  0
   23.8402  -20.1994  -13.2863 C   0  0  2  0  0  0  0  0  0  0  0  0
   24.1359  -18.8217  -13.5908 N   0  0  0  0  0  0  0  0  0  0  0  0
   24.4253  -20.6532  -12.0120 C   0  0  0  0  0  0  0  0  0  0  0  0
   24.3699  -21.8756  -11.7362 O   0  0  0  0  0  0  0  0  0  0  0  0
   25.0462  -19.7843  -11.0788 N   0  0  0  0  0  0  0  0  0  0  0  0
   25.5989  -20.1878   -9.8053 C   0  0  1  0  0  0  0  0  0  0  0  0
   26.5227  -19.1790   -9.1889 C   0  0  0  0  0  0  0  0  0  0  0  0
   27.1285  -19.5913   -7.9106 C   0  0  0  0  0  0  0  0  0  0  0  0
   28.0295  -20.6389   -7.9172 C   0  0  0  0  0  0  0  0  0  0  0  0
   28.6306  -21.0646   -6.7314 C   0  0  0  0  0  0  0  0  0  0  0  0
   28.3410  -20.4539   -5.5346 C   0  0  0  0  0  0  0  0  0  0  0  0
   27.4446  -19.4097   -5.5192 C   0  0  0  0  0  0  0  0  0  0  0  0
   26.8569  -18.9977   -6.6974 C   0  0  0  0  0  0  0  0  0  0  0  0
   24.4350  -20.2916   -8.8473 C   0  0  0  0  0  0  0  0  0  0  0  0
   23.5810  -19.3794   -8.8814 O   0  0  0  0  0  0  0  0  0  0  0  0
   18.4747  -23.7632   -5.3806 N   0  0  0  0  0  0  0  0  0  0  0  0
   18.0588  -23.8511   -6.7535 C   0  0  0  0  0  0  0  0  0  0  0  0
   16.8346  -23.6652   -7.0783 N   0  0  0  0  0  0  0  0  0  0  0  0
   19.0723  -24.1480   -7.6829 N   0  0  0  0  0  0  0  0  0  0  0  0
   20.4452  -24.2600   -7.2515 C   0  0  0  0  0  0  0  0  0  0  0  0
   21.1041  -22.9688   -6.9946 C   0  0  0  0  0  0  0  0  0  0  0  0
   22.4533  -22.6568   -7.4179 C   0  0  0  0  0  0  0  0  0  0  0  0
   23.1303  -21.3885   -7.0418 C   0  0  2  0  0  0  0  0  0  0  0  0
   24.3269  -21.3663   -7.9641 N   0  0  0  0  0  0  0  0  0  0  0  0
   23.7467  -21.4578   -5.6852 C   0  0  0  0  0  0  0  0  0  0  0  0
   23.2839  -20.8151   -4.5721 O   0  0  0  0  0  0  0  0  0  0  0  0
   24.8102  -22.1603   -5.4793 O   0  0  0  0  0  0  0  0  0  0  0  0
  2  1  1  0
  2  3  1  0
  3  4  1  1
  5  6  1  6
  5  3  1  0
  7  8  2  0
  7  5  1  0
  9  7  1  0
 10  9  1  0
 11 12  1  0
 10 11  1  1
 12 17  2  0
 13 12  1  0
 13 14  2  0
 14 15  1  0
 15 16  2  0
 17 16  1  0
 18 10  1  0
 18 28  1  0
 19 18  2  0
 20 21  1  0
 21 22  2  0
 21 23  1  0
 23 24  1  0
 24 25  1  0
 25 26  1  0
 27 26  1  6
 27 28  1  0
 27 29  1  0
 29 31  2  0
 29 30  1  0
M  END
$$$$
