IFR.pdb
     RDKit          3D

 31 31  0  0  1  0  0  0  0  0999 V2000
   26.3137  -19.8282  -16.8352 C   0  0  0  0  0  0  0  0  0  0  0  0
   27.4368  -20.2452  -15.9589 C   0  0  0  0  0  0  0  0  0  0  0  0
   27.1084  -20.6018  -14.5596 C   0  0  2  0  0  0  0  0  0  0  0  0
   26.3919  -19.3744  -13.9662 C   0  0  0  0  0  0  0  0  0  0  0  0
   28.2241  -20.9759  -13.6632 C   0  0  2  0  0  0  0  0  0  0  0  0
   29.0351  -22.0335  -14.2129 N   0  0  0  0  0  0  0  0  0  0  0  0
   27.8764  -21.1845  -12.2463 C   0  0  0  0  0  0  0  0  0  0  0  0
   27.2661  -22.2349  -11.9340 O   0  0  0  0  0  0  0  0  0  0  0  0
   28.1920  -20.2626  -11.2158 N   0  0  0  0  0  0  0  0  0  0  0  0
   27.9123  -20.4566   -9.8106 C   0  0  1  0  0  0  0  0  0  0  0  0
   28.6678  -19.5335   -8.9006 C   0  0  0  0  0  0  0  0  0  0  0  0
   28.3033  -19.6302   -7.4762 C   0  0  0  0  0  0  0  0  0  0  0  0
   28.8433  -20.6583   -6.7273 C   0  0  0  0  0  0  0  0  0  0  0  0
   28.5288  -20.7903   -5.3736 C   0  0  0  0  0  0  0  0  0  0  0  0
   27.6781  -19.9042   -4.7570 C   0  0  0  0  0  0  0  0  0  0  0  0
   27.1359  -18.8774   -5.4958 C   0  0  0  0  0  0  0  0  0  0  0  0
   27.4540  -18.7569   -6.8328 C   0  0  0  0  0  0  0  0  0  0  0  0
   26.4574  -20.1010   -9.6109 C   0  0  0  0  0  0  0  0  0  0  0  0
   26.0856  -18.9702   -9.9925 O   0  0  0  0  0  0  0  0  0  0  0  0
   24.0361  -23.7488  -14.4430 N   0  0  0  0  0  0  0  0  0  0  0  0
   23.6190  -22.4077  -14.7482 C   0  0  0  0  0  0  0  0  0  0  0  0
   23.9309  -21.8649  -15.8648 N   0  0  0  0  0  0  0  0  0  0  0  0
   22.8642  -21.7594  -13.7537 N   0  0  0  0  0  0  0  0  0  0  0  0
   22.8645  -22.2579  -12.3991 C   0  0  0  0  0  0  0  0  0  0  0  0
   23.4094  -21.3144  -11.4090 C   0  0  0  0  0  0  0  0  0  0  0  0
   23.5338  -21.6133   -9.9977 C   0  0  0  0  0  0  0  0  0  0  0  0
   24.1054  -20.6432   -9.0278 C   0  0  2  0  0  0  0  0  0  0  0  0
   25.5723  -21.0056   -9.0233 N   0  0  0  0  0  0  0  0  0  0  0  0
   23.6796  -20.9275   -7.6268 C   0  0  0  0  0  0  0  0  0  0  0  0
   22.6772  -20.2837   -6.9583 O   0  0  0  0  0  0  0  0  0  0  0  0
   24.2700  -21.8407   -6.9306 O   0  0  0  0  0  0  0  0  0  0  0  0
  2  1  1  0
  2  3  1  0
  3  4  1  1
  5  6  1  6
  5  3  1  0
  7  8  2  0
  7  5  1  0
  9  7  1  0
 10  9  1  0
 11 12  1  0
 10 11  1  1
 12 17  2  0
 13 12  1  0
 13 14  2  0
 14 15  1  0
 15 16  2  0
 17 16  1  0
 18 10  1  0
 18 28  1  0
 19 18  2  0
 20 21  1  0
 21 22  2  0
 21 23  1  0
 23 24  1  0
 24 25  1  0
 25 26  1  0
 27 26  1  6
 27 28  1  0
 27 29  1  0
 29 31  2  0
 29 30  1  0
M  END
$$$$
