IFR.pdb
     RDKit          3D

 31 31  0  0  1  0  0  0  0  0999 V2000
   28.3661  -22.2450  -20.1209 C   0  0  0  0  0  0  0  0  0  0  0  0
   28.6351  -21.4628  -18.8884 C   0  0  0  0  0  0  0  0  0  0  0  0
   27.8032  -21.7624  -17.7005 C   0  0  2  0  0  0  0  0  0  0  0  0
   27.0662  -20.4542  -17.3579 C   0  0  0  0  0  0  0  0  0  0  0  0
   28.4886  -22.2503  -16.4838 C   0  0  2  0  0  0  0  0  0  0  0  0
   29.2217  -23.4686  -16.7215 N   0  0  0  0  0  0  0  0  0  0  0  0
   27.6785  -22.2882  -15.2533 C   0  0  0  0  0  0  0  0  0  0  0  0
   26.7531  -23.1317  -15.1785 O   0  0  0  0  0  0  0  0  0  0  0  0
   27.8855  -21.4226  -14.1491 N   0  0  0  0  0  0  0  0  0  0  0  0
   27.0896  -21.4073  -12.9423 C   0  0  1  0  0  0  0  0  0  0  0  0
   27.7038  -20.6370  -11.8107 C   0  0  0  0  0  0  0  0  0  0  0  0
   26.8496  -20.4983  -10.6181 C   0  0  0  0  0  0  0  0  0  0  0  0
   26.1571  -19.3161  -10.4388 C   0  0  0  0  0  0  0  0  0  0  0  0
   25.3341  -19.1383   -9.3253 C   0  0  0  0  0  0  0  0  0  0  0  0
   25.1944  -20.1313   -8.3853 C   0  0  0  0  0  0  0  0  0  0  0  0
   25.8807  -21.3120   -8.5564 C   0  0  0  0  0  0  0  0  0  0  0  0
   26.6909  -21.4762   -9.6608 C   0  0  0  0  0  0  0  0  0  0  0  0
   25.8174  -20.6645  -13.2782 C   0  0  0  0  0  0  0  0  0  0  0  0
   25.9320  -19.5668  -13.8653 O   0  0  0  0  0  0  0  0  0  0  0  0
   24.4855  -24.8105  -15.6428 N   0  0  0  0  0  0  0  0  0  0  0  0
   23.1757  -25.3836  -15.4967 C   0  0  0  0  0  0  0  0  0  0  0  0
   23.0327  -26.5994  -15.1224 N   0  0  0  0  0  0  0  0  0  0  0  0
   22.0969  -24.5290  -15.7881 N   0  0  0  0  0  0  0  0  0  0  0  0
   22.3099  -23.1076  -15.9213 C   0  0  0  0  0  0  0  0  0  0  0  0
   22.7044  -22.4369  -14.6715 C   0  0  0  0  0  0  0  0  0  0  0  0
   22.8784  -21.0046  -14.5484 C   0  0  0  0  0  0  0  0  0  0  0  0
   23.3522  -20.3672  -13.2924 C   0  0  2  0  0  0  0  0  0  0  0  0
   24.5696  -21.1909  -12.9424 N   0  0  0  0  0  0  0  0  0  0  0  0
   22.4294  -20.6193  -12.1479 C   0  0  0  0  0  0  0  0  0  0  0  0
   21.2813  -19.9254  -11.8895 O   0  0  0  0  0  0  0  0  0  0  0  0
   22.6814  -21.5512  -11.2906 O   0  0  0  0  0  0  0  0  0  0  0  0
  2  1  1  0
  2  3  1  0
  3  4  1  1
  5  6  1  6
  5  3  1  0
  7  8  2  0
  7  5  1  0
  9  7  1  0
 10  9  1  0
 11 12  1  0
 10 11  1  1
 12 17  2  0
 13 12  1  0
 13 14  2  0
 14 15  1  0
 15 16  2  0
 17 16  1  0
 18 10  1  0
 18 28  1  0
 19 18  2  0
 20 21  1  0
 21 22  2  0
 21 23  1  0
 23 24  1  0
 24 25  1  0
 25 26  1  0
 27 26  1  6
 27 28  1  0
 27 29  1  0
 29 31  2  0
 29 30  1  0
M  END
$$$$
