IFR.pdb
     RDKit          3D

 31 31  0  0  1  0  0  0  0  0999 V2000
   29.5297  -19.7973  -15.5226 C   0  0  0  0  0  0  0  0  0  0  0  0
   29.9705  -20.1531  -14.1506 C   0  0  0  0  0  0  0  0  0  0  0  0
   28.9203  -20.5362  -13.1793 C   0  0  2  0  0  0  0  0  0  0  0  0
   27.9305  -19.3569  -13.1376 C   0  0  0  0  0  0  0  0  0  0  0  0
   29.3410  -20.8482  -11.7959 C   0  0  2  0  0  0  0  0  0  0  0  0
   30.3731  -21.8538  -11.7527 N   0  0  0  0  0  0  0  0  0  0  0  0
   28.2573  -21.0832  -10.8251 C   0  0  0  0  0  0  0  0  0  0  0  0
   27.7762  -22.2385  -10.7418 O   0  0  0  0  0  0  0  0  0  0  0  0
   27.7265  -20.0750   -9.9806 N   0  0  0  0  0  0  0  0  0  0  0  0
   26.5315  -20.2056   -9.1774 C   0  0  1  0  0  0  0  0  0  0  0  0
   26.3973  -19.1678   -8.1022 C   0  0  0  0  0  0  0  0  0  0  0  0
   27.2948  -19.3500   -6.9478 C   0  0  0  0  0  0  0  0  0  0  0  0
   27.1136  -20.4579   -6.1422 C   0  0  0  0  0  0  0  0  0  0  0  0
   27.9398  -20.6742   -5.0379 C   0  0  0  0  0  0  0  0  0  0  0  0
   28.9484  -19.7935   -4.7278 C   0  0  0  0  0  0  0  0  0  0  0  0
   29.1356  -18.6874   -5.5252 C   0  0  0  0  0  0  0  0  0  0  0  0
   28.3130  -18.4842   -6.6139 C   0  0  0  0  0  0  0  0  0  0  0  0
   25.3637  -19.9633  -10.1052 C   0  0  0  0  0  0  0  0  0  0  0  0
   25.5956  -19.3548  -11.1722 O   0  0  0  0  0  0  0  0  0  0  0  0
   24.6576  -24.4947  -14.1726 N   0  0  0  0  0  0  0  0  0  0  0  0
   23.3012  -24.7200  -14.5908 C   0  0  0  0  0  0  0  0  0  0  0  0
   22.8714  -25.9072  -14.8020 N   0  0  0  0  0  0  0  0  0  0  0  0
   22.5080  -23.5683  -14.7445 N   0  0  0  0  0  0  0  0  0  0  0  0
   22.8761  -22.3380  -14.0855 C   0  0  0  0  0  0  0  0  0  0  0  0
   22.8039  -22.3955  -12.6162 C   0  0  0  0  0  0  0  0  0  0  0  0
   23.6316  -21.5941  -11.7390 C   0  0  0  0  0  0  0  0  0  0  0  0
   23.0731  -20.5057  -10.8953 C   0  0  2  0  0  0  0  0  0  0  0  0
   24.0820  -20.4049   -9.7750 N   0  0  0  0  0  0  0  0  0  0  0  0
   21.8239  -20.9197  -10.1930 C   0  0  0  0  0  0  0  0  0  0  0  0
   20.5530  -20.6354  -10.6054 O   0  0  0  0  0  0  0  0  0  0  0  0
   21.8783  -21.5992   -9.0965 O   0  0  0  0  0  0  0  0  0  0  0  0
  2  1  1  0
  2  3  1  0
  3  4  1  1
  5  6  1  6
  5  3  1  0
  7  8  2  0
  7  5  1  0
  9  7  1  0
 10  9  1  0
 11 12  1  0
 10 11  1  1
 12 17  2  0
 13 12  1  0
 13 14  2  0
 14 15  1  0
 15 16  2  0
 17 16  1  0
 18 10  1  0
 18 28  1  0
 19 18  2  0
 20 21  1  0
 21 22  2  0
 21 23  1  0
 23 24  1  0
 24 25  1  0
 25 26  1  0
 27 26  1  6
 27 28  1  0
 27 29  1  0
 29 31  2  0
 29 30  1  0
M  END
$$$$
