MDT.pdb
     RDKit          3D

 24 23  0  0  1  0  0  0  0  0999 V2000
   31.5442  -22.8207   -8.2794 C   0  0  0  0  0  0  0  0  0  0  0  0
   32.4683  -22.5368   -9.8143 S   0  0  0  0  0  0  0  0  0  0  0  0
   31.4603  -21.6387  -11.0259 C   0  0  0  0  0  0  0  0  0  0  0  0
   30.0249  -22.1610  -11.0121 C   0  0  0  0  0  0  0  0  0  0  0  0
   29.2254  -21.3093  -11.9404 C   0  0  2  0  0  0  0  0  0  0  0  0
   29.6135  -19.9339  -11.7796 N   0  0  0  0  0  0  0  0  0  0  0  0
   27.7694  -21.5123  -11.8440 C   0  0  0  0  0  0  0  0  0  0  0  0
   27.2944  -22.6499  -12.1436 O   0  0  0  0  0  0  0  0  0  0  0  0
   26.8427  -20.5379  -11.4414 N   0  0  0  0  0  0  0  0  0  0  0  0
   25.4005  -20.7627  -11.3006 C   0  0  1  0  0  0  0  0  0  0  0  0
   25.0391  -19.9937  -10.0428 C   0  0  0  0  0  0  0  0  0  0  0  0
   25.6300  -20.5378   -8.8161 C   0  0  0  0  0  0  0  0  0  0  0  0
   25.2746  -21.6884   -8.4401 O   0  0  0  0  0  0  0  0  0  0  0  0
   24.6795  -20.2337  -12.4701 C   0  0  0  0  0  0  0  0  0  0  0  0
   24.9454  -19.0571  -12.8353 O   0  0  0  0  0  0  0  0  0  0  0  0
   26.5454  -19.8165   -8.0967 O   0  0  0  0  0  0  0  0  0  0  0  0
   24.9348  -20.9477  -15.9821 C   0  0  0  0  0  0  0  0  0  0  0  0
   23.4571  -20.9929  -15.6630 C   0  0  1  0  0  0  0  0  0  0  0  0
   23.1216  -22.3417  -15.4854 O   0  0  0  0  0  0  0  0  0  0  0  0
   23.1318  -20.2921  -14.3697 C   0  0  2  0  0  0  0  0  0  0  0  0
   23.7151  -20.9388  -13.2191 N   0  0  0  0  0  0  0  0  0  0  0  0
   21.6582  -20.3246  -14.2239 C   0  0  0  0  0  0  0  0  0  0  0  0
   20.9116  -19.7063  -15.0045 O   0  0  0  0  0  0  0  0  0  0  0  0
   21.0582  -21.0586  -13.1946 O   0  0  0  0  0  0  0  0  0  0  0  0
  1  2  1  0
  2  3  1  0
  4  5  1  0
  4  3  1  0
  5  7  1  0
  5  6  1  1
  7  8  2  0
  9  7  1  0
  9 10  1  0
 10 11  1  1
 12 11  1  0
 13 12  2  0
 14 10  1  0
 14 15  2  0
 16 12  1  0
 18 17  1  1
 18 20  1  0
 19 18  1  0
 20 21  1  1
 20 22  1  0
 21 14  1  0
 22 24  1  0
 23 22  2  0
M  END
$$$$
