MDT.pdb
     RDKit          3D

 24 23  0  0  1  0  0  0  0  0999 V2000
   15.9084  -13.3384  -19.0127 C   0  0  0  0  0  0  0  0  0  0  0  0
   16.0276  -11.6418  -18.3819 S   0  0  0  0  0  0  0  0  0  0  0  0
   17.0508  -11.5726  -16.8856 C   0  0  0  0  0  0  0  0  0  0  0  0
   17.2009  -10.1279  -16.4127 C   0  0  0  0  0  0  0  0  0  0  0  0
   18.0865  -10.1355  -15.2119 C   0  0  2  0  0  0  0  0  0  0  0  0
   17.5531  -11.0422  -14.2313 N   0  0  0  0  0  0  0  0  0  0  0  0
   18.3736   -8.7982  -14.6642 C   0  0  0  0  0  0  0  0  0  0  0  0
   17.6406   -8.3560  -13.7279 O   0  0  0  0  0  0  0  0  0  0  0  0
   19.4080   -7.9533  -15.0960 N   0  0  0  0  0  0  0  0  0  0  0  0
   19.7006   -6.6326  -14.5300 C   0  0  1  0  0  0  0  0  0  0  0  0
   21.1913   -6.6855  -14.2486 C   0  0  0  0  0  0  0  0  0  0  0  0
   21.7376   -5.4523  -13.6734 C   0  0  0  0  0  0  0  0  0  0  0  0
   20.9457   -4.4979  -13.4421 O   0  0  0  0  0  0  0  0  0  0  0  0
   19.3825   -5.5732  -15.5015 C   0  0  0  0  0  0  0  0  0  0  0  0
   19.9177   -5.6470  -16.6401 O   0  0  0  0  0  0  0  0  0  0  0  0
   23.0734   -5.3390  -13.3929 O   0  0  0  0  0  0  0  0  0  0  0  0
   16.1371   -4.2877  -17.2444 C   0  0  0  0  0  0  0  0  0  0  0  0
   16.8829   -3.1736  -16.5441 C   0  0  1  0  0  0  0  0  0  0  0  0
   16.2998   -3.0284  -15.2783 O   0  0  0  0  0  0  0  0  0  0  0  0
   18.3327   -3.5137  -16.3163 C   0  0  2  0  0  0  0  0  0  0  0  0
   18.5231   -4.4811  -15.2626 N   0  0  0  0  0  0  0  0  0  0  0  0
   19.0104   -2.2572  -15.9219 C   0  0  0  0  0  0  0  0  0  0  0  0
   19.5637   -2.1346  -14.8138 O   0  0  0  0  0  0  0  0  0  0  0  0
   19.0480   -1.1621  -16.7923 O   0  0  0  0  0  0  0  0  0  0  0  0
  1  2  1  0
  2  3  1  0
  4  5  1  0
  4  3  1  0
  5  7  1  0
  5  6  1  1
  7  8  2  0
  9  7  1  0
  9 10  1  0
 10 11  1  6
 12 11  1  0
 13 12  2  0
 14 10  1  0
 14 15  2  0
 16 12  1  0
 18 17  1  1
 18 20  1  0
 19 18  1  0
 20 21  1  1
 20 22  1  0
 21 14  1  0
 22 24  1  0
 23 22  2  0
M  END
$$$$
