MDT.pdb
     RDKit          3D

 24 23  0  0  1  0  0  0  0  0999 V2000
   28.4695  -16.9936  -13.8170 C   0  0  0  0  0  0  0  0  0  0  0  0
   29.8616  -18.1330  -14.0502 S   0  0  0  0  0  0  0  0  0  0  0  0
   29.3378  -19.8560  -13.8320 C   0  0  0  0  0  0  0  0  0  0  0  0
   27.8161  -19.9617  -13.9142 C   0  0  0  0  0  0  0  0  0  0  0  0
   27.4468  -21.3819  -13.6445 C   0  0  2  0  0  0  0  0  0  0  0  0
   28.0483  -22.2285  -14.6393 N   0  0  0  0  0  0  0  0  0  0  0  0
   25.9996  -21.6114  -13.4912 C   0  0  0  0  0  0  0  0  0  0  0  0
   25.3465  -22.0508  -14.4861 O   0  0  0  0  0  0  0  0  0  0  0  0
   25.2650  -21.3820  -12.3174 N   0  0  0  0  0  0  0  0  0  0  0  0
   23.8074  -21.4985  -12.2065 C   0  0  1  0  0  0  0  0  0  0  0  0
   23.5486  -21.3540  -10.7178 C   0  0  0  0  0  0  0  0  0  0  0  0
   22.1407  -21.5031  -10.3361 C   0  0  0  0  0  0  0  0  0  0  0  0
   21.3062  -21.8033  -11.2333 O   0  0  0  0  0  0  0  0  0  0  0  0
   23.1451  -20.4252  -12.9657 C   0  0  0  0  0  0  0  0  0  0  0  0
   23.3903  -19.2359  -12.6281 O   0  0  0  0  0  0  0  0  0  0  0  0
   21.7410  -21.3223   -9.0387 O   0  0  0  0  0  0  0  0  0  0  0  0
   23.6034  -18.8533  -16.1801 C   0  0  0  0  0  0  0  0  0  0  0  0
   22.1543  -19.2798  -16.1032 C   0  0  1  0  0  0  0  0  0  0  0  0
   22.0686  -20.5375  -16.7150 O   0  0  0  0  0  0  0  0  0  0  0  0
   21.6873  -19.4572  -14.6819 C   0  0  2  0  0  0  0  0  0  0  0  0
   22.2583  -20.6192  -14.0447 N   0  0  0  0  0  0  0  0  0  0  0  0
   20.2172  -19.6302  -14.7327 C   0  0  0  0  0  0  0  0  0  0  0  0
   19.6731  -20.6941  -14.3846 O   0  0  0  0  0  0  0  0  0  0  0  0
   19.3906  -18.5924  -15.1778 O   0  0  0  0  0  0  0  0  0  0  0  0
  1  2  1  0
  2  3  1  0
  4  5  1  0
  4  3  1  0
  5  7  1  0
  5  6  1  6
  7  8  2  0
  9  7  1  0
  9 10  1  0
 10 11  1  1
 12 11  1  0
 13 12  2  0
 14 10  1  0
 14 15  2  0
 16 12  1  0
 18 17  1  1
 18 20  1  0
 19 18  1  0
 20 21  1  6
 20 22  1  0
 21 14  1  0
 22 24  1  0
 23 22  2  0
M  END
$$$$
