MDT.pdb
     RDKit          3D

 24 23  0  0  1  0  0  0  0  0999 V2000
   28.1134  -18.9254   -3.6255 C   0  0  0  0  0  0  0  0  0  0  0  0
   28.0290  -19.9802   -5.0988 S   0  0  0  0  0  0  0  0  0  0  0  0
   27.3301  -19.0772   -6.5083 C   0  0  0  0  0  0  0  0  0  0  0  0
   27.2177  -19.9961   -7.7233 C   0  0  0  0  0  0  0  0  0  0  0  0
   25.7888  -20.4072   -7.8480 C   0  0  2  0  0  0  0  0  0  0  0  0
   25.4646  -21.3317   -6.7951 N   0  0  0  0  0  0  0  0  0  0  0  0
   25.4170  -20.9029   -9.1847 C   0  0  0  0  0  0  0  0  0  0  0  0
   25.7633  -22.0782   -9.5137 O   0  0  0  0  0  0  0  0  0  0  0  0
   24.6986  -20.1744  -10.1456 N   0  0  0  0  0  0  0  0  0  0  0  0
   24.4130  -20.6394  -11.5066 C   0  0  1  0  0  0  0  0  0  0  0  0
   22.9994  -20.1498  -11.7634 C   0  0  0  0  0  0  0  0  0  0  0  0
   22.4662  -20.5183  -13.0787 C   0  0  0  0  0  0  0  0  0  0  0  0
   21.5966  -21.4304  -13.1376 O   0  0  0  0  0  0  0  0  0  0  0  0
   25.3609  -20.0459  -12.4639 C   0  0  0  0  0  0  0  0  0  0  0  0
   25.7040  -18.8476  -12.2773 O   0  0  0  0  0  0  0  0  0  0  0  0
   22.8996  -19.8881  -14.2148 O   0  0  0  0  0  0  0  0  0  0  0  0
   28.9444  -20.5020  -13.0481 C   0  0  0  0  0  0  0  0  0  0  0  0
   28.2423  -20.6553  -14.3789 C   0  0  1  0  0  0  0  0  0  0  0  0
   28.0329  -22.0274  -14.5714 O   0  0  0  0  0  0  0  0  0  0  0  0
   26.8833  -20.0051  -14.3844 C   0  0  2  0  0  0  0  0  0  0  0  0
   25.9204  -20.7113  -13.5742 N   0  0  0  0  0  0  0  0  0  0  0  0
   26.4085  -20.0172  -15.7872 C   0  0  0  0  0  0  0  0  0  0  0  0
   25.3436  -20.5744  -16.1107 O   0  0  0  0  0  0  0  0  0  0  0  0
   27.1508  -19.3967  -16.7981 O   0  0  0  0  0  0  0  0  0  0  0  0
  1  2  1  0
  2  3  1  0
  4  5  1  0
  4  3  1  0
  5  7  1  0
  5  6  1  1
  7  8  2  0
  9  7  1  0
  9 10  1  0
 10 11  1  6
 12 11  1  0
 13 12  2  0
 14 10  1  0
 14 15  2  0
 16 12  1  0
 18 17  1  1
 18 20  1  0
 19 18  1  0
 20 21  1  1
 20 22  1  0
 21 14  1  0
 22 24  1  0
 23 22  2  0
M  END
$$$$
