MDT.pdb
     RDKit          3D

 24 23  0  0  1  0  0  0  0  0999 V2000
   26.6889  -15.0315  -14.5273 C   0  0  0  0  0  0  0  0  0  0  0  0
   26.8510  -16.3870  -15.7218 S   0  0  0  0  0  0  0  0  0  0  0  0
   25.2646  -16.7392  -16.5280 C   0  0  0  0  0  0  0  0  0  0  0  0
   24.7741  -15.5106  -17.2918 C   0  0  0  0  0  0  0  0  0  0  0  0
   23.7286  -14.8483  -16.4584 C   0  0  2  0  0  0  0  0  0  0  0  0
   22.6862  -15.7933  -16.1609 N   0  0  0  0  0  0  0  0  0  0  0  0
   23.2184  -13.5854  -17.0201 C   0  0  0  0  0  0  0  0  0  0  0  0
   24.0491  -12.6722  -17.3124 O   0  0  0  0  0  0  0  0  0  0  0  0
   21.8666  -13.2980  -17.2653 N   0  0  0  0  0  0  0  0  0  0  0  0
   21.3691  -12.0458  -17.8438 C   0  0  1  0  0  0  0  0  0  0  0  0
   20.0236  -12.4318  -18.4308 C   0  0  0  0  0  0  0  0  0  0  0  0
   19.3006  -11.3201  -19.0567 C   0  0  0  0  0  0  0  0  0  0  0  0
   19.9554  -10.4978  -19.7542 O   0  0  0  0  0  0  0  0  0  0  0  0
   21.2163  -11.0200  -16.7990 C   0  0  0  0  0  0  0  0  0  0  0  0
   20.5205  -11.3148  -15.7904 O   0  0  0  0  0  0  0  0  0  0  0  0
   17.9487  -11.1779  -18.8898 O   0  0  0  0  0  0  0  0  0  0  0  0
   23.5252   -9.5223  -14.2791 C   0  0  0  0  0  0  0  0  0  0  0  0
   22.8619   -8.4099  -15.0603 C   0  0  1  0  0  0  0  0  0  0  0  0
   23.7368   -8.0666  -16.0996 O   0  0  0  0  0  0  0  0  0  0  0  0
   21.5761   -8.8557  -15.7064 C   0  0  2  0  0  0  0  0  0  0  0  0
   21.7888   -9.7318  -16.8332 N   0  0  0  0  0  0  0  0  0  0  0  0
   20.8938   -7.6333  -16.1904 C   0  0  0  0  0  0  0  0  0  0  0  0
   20.6563   -7.4539  -17.3988 O   0  0  0  0  0  0  0  0  0  0  0  0
   20.4932   -6.6363  -15.2938 O   0  0  0  0  0  0  0  0  0  0  0  0
  1  2  1  0
  2  3  1  0
  4  5  1  0
  4  3  1  0
  5  7  1  0
  5  6  1  6
  7  8  2  0
  9  7  1  0
  9 10  1  0
 10 11  1  1
 12 11  1  0
 13 12  2  0
 14 10  1  0
 14 15  2  0
 16 12  1  0
 18 17  1  6
 18 20  1  0
 19 18  1  0
 20 21  1  6
 20 22  1  0
 21 14  1  0
 22 24  1  0
 23 22  2  0
M  END
$$$$
