MDT.pdb
     RDKit          3D

 24 23  0  0  1  0  0  0  0  0999 V2000
   28.7830  -19.6193  -12.2033 C   0  0  0  0  0  0  0  0  0  0  0  0
   27.9965  -21.0548  -12.9851 S   0  0  0  0  0  0  0  0  0  0  0  0
   26.2968  -21.2720  -12.3897 C   0  0  0  0  0  0  0  0  0  0  0  0
   25.4278  -20.0940  -12.8262 C   0  0  0  0  0  0  0  0  0  0  0  0
   25.4433  -20.0496  -14.3175 C   0  0  2  0  0  0  0  0  0  0  0  0
   26.8049  -20.0430  -14.7805 N   0  0  0  0  0  0  0  0  0  0  0  0
   24.6319  -18.9656  -14.8983 C   0  0  0  0  0  0  0  0  0  0  0  0
   25.0561  -17.7736  -14.8048 O   0  0  0  0  0  0  0  0  0  0  0  0
   23.4060  -19.1393  -15.5595 N   0  0  0  0  0  0  0  0  0  0  0  0
   22.6160  -18.0569  -16.1549 C   0  0  1  0  0  0  0  0  0  0  0  0
   22.8644  -18.2095  -17.6446 C   0  0  0  0  0  0  0  0  0  0  0  0
   22.1888  -17.2047  -18.4717 C   0  0  0  0  0  0  0  0  0  0  0  0
   21.5650  -17.5947  -19.4965 O   0  0  0  0  0  0  0  0  0  0  0  0
   21.1886  -18.2248  -15.8363 C   0  0  0  0  0  0  0  0  0  0  0  0
   20.6437  -19.3144  -16.1594 O   0  0  0  0  0  0  0  0  0  0  0  0
   22.2324  -15.8765  -18.1404 O   0  0  0  0  0  0  0  0  0  0  0  0
   19.1581  -18.9278  -12.9388 C   0  0  0  0  0  0  0  0  0  0  0  0
   18.5753  -17.6880  -13.5796 C   0  0  1  0  0  0  0  0  0  0  0  0
   19.1221  -16.5879  -12.9057 O   0  0  0  0  0  0  0  0  0  0  0  0
   18.9755  -17.5523  -15.0257 C   0  0  2  0  0  0  0  0  0  0  0  0
   20.3794  -17.2647  -15.1946 N   0  0  0  0  0  0  0  0  0  0  0  0
   18.1989  -16.4195  -15.5803 C   0  0  0  0  0  0  0  0  0  0  0  0
   16.9546  -16.4315  -15.6046 O   0  0  0  0  0  0  0  0  0  0  0  0
   18.8487  -15.2932  -16.0976 O   0  0  0  0  0  0  0  0  0  0  0  0
  1  2  1  0
  2  3  1  0
  4  5  1  0
  4  3  1  0
  5  7  1  0
  5  6  1  1
  7  8  2  0
  9  7  1  0
  9 10  1  0
 10 11  1  6
 12 11  1  0
 13 12  2  0
 14 10  1  0
 14 15  2  0
 16 12  1  0
 18 17  1  1
 18 20  1  0
 19 18  1  0
 20 21  1  1
 20 22  1  0
 21 14  1  0
 22 24  1  0
 23 22  2  0
M  END
$$$$
