MDT.pdb
     RDKit          3D

 24 23  0  0  1  0  0  0  0  0999 V2000
   19.9714  -12.7249  -14.9260 C   0  0  0  0  0  0  0  0  0  0  0  0
   18.4296  -13.1994  -15.7555 S   0  0  0  0  0  0  0  0  0  0  0  0
   17.0367  -12.1982  -15.1656 C   0  0  0  0  0  0  0  0  0  0  0  0
   17.5013  -10.7776  -14.8503 C   0  0  0  0  0  0  0  0  0  0  0  0
   16.3379  -10.0382  -14.2793 C   0  0  2  0  0  0  0  0  0  0  0  0
   15.2751   -9.9999  -15.2474 N   0  0  0  0  0  0  0  0  0  0  0  0
   16.6729   -8.7093  -13.7385 C   0  0  0  0  0  0  0  0  0  0  0  0
   16.5551   -7.6987  -14.4964 O   0  0  0  0  0  0  0  0  0  0  0  0
   17.1198   -8.4579  -12.4319 N   0  0  0  0  0  0  0  0  0  0  0  0
   17.4710   -7.1341  -11.9080 C   0  0  1  0  0  0  0  0  0  0  0  0
   17.0797   -7.2128  -10.4435 C   0  0  0  0  0  0  0  0  0  0  0  0
   17.3206   -5.9778   -9.6907 C   0  0  0  0  0  0  0  0  0  0  0  0
   17.7731   -4.9772  -10.3116 O   0  0  0  0  0  0  0  0  0  0  0  0
   18.9144   -6.8865  -12.0578 C   0  0  0  0  0  0  0  0  0  0  0  0
   19.6899   -7.4465  -11.2371 O   0  0  0  0  0  0  0  0  0  0  0  0
   17.0603   -5.9109   -8.3477 O   0  0  0  0  0  0  0  0  0  0  0  0
   21.6008   -8.1860  -13.7594 C   0  0  0  0  0  0  0  0  0  0  0  0
   21.6506   -6.7052  -14.0634 C   0  0  1  0  0  0  0  0  0  0  0  0
   20.9635   -6.5155  -15.2698 O   0  0  0  0  0  0  0  0  0  0  0  0
   20.9328   -5.8855  -13.0230 C   0  0  2  0  0  0  0  0  0  0  0  0
   19.5024   -6.0740  -13.0490 N   0  0  0  0  0  0  0  0  0  0  0  0
   21.2199   -4.4642  -13.3247 C   0  0  0  0  0  0  0  0  0  0  0  0
   20.3253   -3.6826  -13.6960 O   0  0  0  0  0  0  0  0  0  0  0  0
   22.5174   -3.9552  -13.1997 O   0  0  0  0  0  0  0  0  0  0  0  0
  1  2  1  0
  2  3  1  0
  4  5  1  0
  4  3  1  0
  5  7  1  0
  5  6  1  6
  7  8  2  0
  9  7  1  0
  9 10  1  0
 10 11  1  1
 12 11  1  0
 13 12  2  0
 14 10  1  0
 14 15  2  0
 16 12  1  0
 18 17  1  1
 18 20  1  0
 19 18  1  0
 20 21  1  6
 20 22  1  0
 21 14  1  0
 22 24  1  0
 23 22  2  0
M  END
$$$$
