MDT.pdb
     RDKit          3D

 24 23  0  0  1  0  0  0  0  0999 V2000
   27.8303  -12.4787  -14.7960 C   0  0  0  0  0  0  0  0  0  0  0  0
   27.3172  -13.9325  -15.7519 S   0  0  0  0  0  0  0  0  0  0  0  0
   25.5734  -14.3301  -15.4489 C   0  0  0  0  0  0  0  0  0  0  0  0
   24.7145  -13.0726  -15.5696 C   0  0  0  0  0  0  0  0  0  0  0  0
   23.5680  -13.3933  -16.4689 C   0  0  2  0  0  0  0  0  0  0  0  0
   24.0690  -13.8887  -17.7227 N   0  0  0  0  0  0  0  0  0  0  0  0
   22.5997  -12.2945  -16.6290 C   0  0  0  0  0  0  0  0  0  0  0  0
   22.5349  -11.7015  -17.7487 O   0  0  0  0  0  0  0  0  0  0  0  0
   21.7248  -11.8368  -15.6315 N   0  0  0  0  0  0  0  0  0  0  0  0
   20.7526  -10.7527  -15.8045 C   0  0  1  0  0  0  0  0  0  0  0  0
   19.5681  -11.1963  -14.9652 C   0  0  0  0  0  0  0  0  0  0  0  0
   18.7911  -12.2910  -15.5549 C   0  0  0  0  0  0  0  0  0  0  0  0
   18.4084  -13.2270  -14.8007 O   0  0  0  0  0  0  0  0  0  0  0  0
   21.3051   -9.4809  -15.3101 C   0  0  0  0  0  0  0  0  0  0  0  0
   21.6803   -9.4367  -14.1077 O   0  0  0  0  0  0  0  0  0  0  0  0
   18.4870  -12.2975  -16.8903 O   0  0  0  0  0  0  0  0  0  0  0  0
   24.3820   -7.5598  -16.4547 C   0  0  0  0  0  0  0  0  0  0  0  0
   23.2123   -6.6089  -16.3303 C   0  0  1  0  0  0  0  0  0  0  0  0
   22.6798   -6.4506  -17.6167 O   0  0  0  0  0  0  0  0  0  0  0  0
   22.1097   -7.1713  -15.4716 C   0  0  2  0  0  0  0  0  0  0  0  0
   21.4519   -8.3053  -16.0748 N   0  0  0  0  0  0  0  0  0  0  0  0
   21.1099   -6.0925  -15.2976 C   0  0  0  0  0  0  0  0  0  0  0  0
   19.9528   -6.1972  -15.7439 O   0  0  0  0  0  0  0  0  0  0  0  0
   21.4414   -4.9138  -14.6200 O   0  0  0  0  0  0  0  0  0  0  0  0
  1  2  1  0
  2  3  1  0
  4  5  1  0
  4  3  1  0
  5  7  1  0
  5  6  1  6
  7  8  2  0
  9  7  1  0
  9 10  1  0
 10 11  1  1
 12 11  1  0
 13 12  2  0
 14 10  1  0
 14 15  2  0
 16 12  1  0
 18 17  1  6
 18 20  1  0
 19 18  1  0
 20 21  1  6
 20 22  1  0
 21 14  1  0
 22 24  1  0
 23 22  2  0
M  END
$$$$
