MDT.pdb
     RDKit          3D

 24 23  0  0  1  0  0  0  0  0999 V2000
   14.3806  -11.3689  -17.9966 C   0  0  0  0  0  0  0  0  0  0  0  0
   15.2850  -12.9407  -17.9517 S   0  0  0  0  0  0  0  0  0  0  0  0
   17.0735  -12.6610  -17.8344 C   0  0  0  0  0  0  0  0  0  0  0  0
   17.3866  -11.7106  -16.6802 C   0  0  0  0  0  0  0  0  0  0  0  0
   18.8588  -11.4680  -16.6817 C   0  0  2  0  0  0  0  0  0  0  0  0
   19.5388  -12.6568  -16.2427 N   0  0  0  0  0  0  0  0  0  0  0  0
   19.2732  -10.2616  -15.9445 C   0  0  0  0  0  0  0  0  0  0  0  0
   19.1348  -10.2439  -14.6835 O   0  0  0  0  0  0  0  0  0  0  0  0
   19.8188   -9.1067  -16.5264 N   0  0  0  0  0  0  0  0  0  0  0  0
   20.1743   -7.8881  -15.7923 C   0  0  1  0  0  0  0  0  0  0  0  0
   21.6145   -7.6324  -16.1982 C   0  0  0  0  0  0  0  0  0  0  0  0
   22.5998   -8.3999  -15.4299 C   0  0  0  0  0  0  0  0  0  0  0  0
   22.1873   -9.1261  -14.4844 O   0  0  0  0  0  0  0  0  0  0  0  0
   19.3044   -6.7710  -16.1955 C   0  0  0  0  0  0  0  0  0  0  0  0
   19.3498   -6.4023  -17.3998 O   0  0  0  0  0  0  0  0  0  0  0  0
   23.9341   -8.3316  -15.7311 O   0  0  0  0  0  0  0  0  0  0  0  0
   15.5346   -6.3979  -16.4527 C   0  0  0  0  0  0  0  0  0  0  0  0
   16.1157   -5.2716  -15.6271 C   0  0  1  0  0  0  0  0  0  0  0  0
   16.0197   -5.6614  -14.2847 O   0  0  0  0  0  0  0  0  0  0  0  0
   17.5791   -5.0535  -15.9110 C   0  0  2  0  0  0  0  0  0  0  0  0
   18.4197   -6.0794  -15.3426 N   0  0  0  0  0  0  0  0  0  0  0  0
   17.9462   -3.7575  -15.2949 C   0  0  0  0  0  0  0  0  0  0  0  0
   17.4754   -2.6821  -15.7083 O   0  0  0  0  0  0  0  0  0  0  0  0
   18.8412   -3.7053  -14.2205 O   0  0  0  0  0  0  0  0  0  0  0  0
  1  2  1  0
  2  3  1  0
  4  5  1  0
  4  3  1  0
  5  7  1  0
  5  6  1  1
  7  8  2  0
  9  7  1  0
  9 10  1  0
 10 11  1  6
 12 11  1  0
 13 12  2  0
 14 10  1  0
 14 15  2  0
 16 12  1  0
 18 17  1  6
 18 20  1  0
 19 18  1  0
 20 21  1  1
 20 22  1  0
 21 14  1  0
 22 24  1  0
 23 22  2  0
M  END
$$$$
