MDT.pdb
     RDKit          3D

 24 23  0  0  1  0  0  0  0  0999 V2000
   15.9589  -15.4382  -15.4021 C   0  0  0  0  0  0  0  0  0  0  0  0
   16.1323  -14.6843  -17.0429 S   0  0  0  0  0  0  0  0  0  0  0  0
   17.7605  -13.9082  -17.2353 C   0  0  0  0  0  0  0  0  0  0  0  0
   17.9618  -12.8288  -16.1733 C   0  0  0  0  0  0  0  0  0  0  0  0
   19.3031  -12.2160  -16.4008 C   0  0  2  0  0  0  0  0  0  0  0  0
   20.3263  -13.1615  -16.0441 N   0  0  0  0  0  0  0  0  0  0  0  0
   19.4837  -10.9020  -15.7594 C   0  0  0  0  0  0  0  0  0  0  0  0
   19.6060  -10.8546  -14.4975 O   0  0  0  0  0  0  0  0  0  0  0  0
   19.5336   -9.6729  -16.4355 N   0  0  0  0  0  0  0  0  0  0  0  0
   19.7709   -8.3751  -15.7955 C   0  0  1  0  0  0  0  0  0  0  0  0
   21.0736   -7.9028  -16.4150 C   0  0  0  0  0  0  0  0  0  0  0  0
   21.5340   -6.6000  -15.9243 C   0  0  0  0  0  0  0  0  0  0  0  0
   21.7631   -6.4723  -14.6903 O   0  0  0  0  0  0  0  0  0  0  0  0
   18.6724   -7.4427  -16.0974 C   0  0  0  0  0  0  0  0  0  0  0  0
   18.4046   -7.2312  -17.3107 O   0  0  0  0  0  0  0  0  0  0  0  0
   21.7121   -5.5481  -16.7832 O   0  0  0  0  0  0  0  0  0  0  0  0
   14.8456   -7.3103  -15.3470 C   0  0  0  0  0  0  0  0  0  0  0  0
   15.5521   -6.0505  -14.8984 C   0  0  1  0  0  0  0  0  0  0  0  0
   15.8396   -6.2098  -13.5363 O   0  0  0  0  0  0  0  0  0  0  0  0
   16.8713   -5.8566  -15.5995 C   0  0  2  0  0  0  0  0  0  0  0  0
   17.8911   -6.7671  -15.1375 N   0  0  0  0  0  0  0  0  0  0  0  0
   17.3140   -4.4744  -15.3044 C   0  0  0  0  0  0  0  0  0  0  0  0
   18.3666   -4.2456  -14.6809 O   0  0  0  0  0  0  0  0  0  0  0  0
   16.5539   -3.3763  -15.7223 O   0  0  0  0  0  0  0  0  0  0  0  0
  1  2  1  0
  2  3  1  0
  4  5  1  0
  4  3  1  0
  5  7  1  0
  5  6  1  1
  7  8  2  0
  9  7  1  0
  9 10  1  0
 10 11  1  6
 12 11  1  0
 13 12  2  0
 14 10  1  0
 14 15  2  0
 16 12  1  0
 18 17  1  6
 18 20  1  0
 19 18  1  0
 20 21  1  1
 20 22  1  0
 21 14  1  0
 22 24  1  0
 23 22  2  0
M  END
$$$$
