MDT.pdb
     RDKit          3D

 24 23  0  0  1  0  0  0  0  0999 V2000
   30.3556  -20.7667  -10.1489 C   0  0  0  0  0  0  0  0  0  0  0  0
   28.6950  -21.1750  -10.7540 S   0  0  0  0  0  0  0  0  0  0  0  0
   27.4869  -21.1648   -9.4008 C   0  0  0  0  0  0  0  0  0  0  0  0
   26.1216  -21.6276   -9.9059 C   0  0  0  0  0  0  0  0  0  0  0  0
   25.7834  -20.8097  -11.1072 C   0  0  2  0  0  0  0  0  0  0  0  0
   25.7657  -19.4175  -10.7469 N   0  0  0  0  0  0  0  0  0  0  0  0
   24.5598  -21.2396  -11.8061 C   0  0  0  0  0  0  0  0  0  0  0  0
   24.4171  -22.4707  -12.0775 O   0  0  0  0  0  0  0  0  0  0  0  0
   23.5169  -20.3897  -12.2062 N   0  0  0  0  0  0  0  0  0  0  0  0
   22.2958  -20.8282  -12.8896 C   0  0  1  0  0  0  0  0  0  0  0  0
   21.4141  -19.5927  -12.8760 C   0  0  0  0  0  0  0  0  0  0  0  0
   20.4080  -19.5849  -11.8094 C   0  0  0  0  0  0  0  0  0  0  0  0
   20.3094  -20.6042  -11.0725 O   0  0  0  0  0  0  0  0  0  0  0  0
   22.5985  -21.2476  -14.2678 C   0  0  0  0  0  0  0  0  0  0  0  0
   23.1637  -20.4099  -15.0210 O   0  0  0  0  0  0  0  0  0  0  0  0
   19.5963  -18.4988  -11.6164 O   0  0  0  0  0  0  0  0  0  0  0  0
   24.9837  -23.8573  -15.4925 C   0  0  0  0  0  0  0  0  0  0  0  0
   23.6509  -24.0585  -16.1787 C   0  0  1  0  0  0  0  0  0  0  0  0
   22.9658  -25.0424  -15.4536 O   0  0  0  0  0  0  0  0  0  0  0  0
   22.7968  -22.8181  -16.1391 C   0  0  2  0  0  0  0  0  0  0  0  0
   22.3095  -22.5146  -14.8152 N   0  0  0  0  0  0  0  0  0  0  0  0
   21.6310  -23.0729  -17.0164 C   0  0  0  0  0  0  0  0  0  0  0  0
   20.4753  -23.1468  -16.5605 O   0  0  0  0  0  0  0  0  0  0  0  0
   21.7978  -23.2392  -18.3958 O   0  0  0  0  0  0  0  0  0  0  0  0
  1  2  1  0
  2  3  1  0
  4  5  1  0
  4  3  1  0
  5  7  1  0
  5  6  1  1
  7  8  2  0
  9  7  1  0
  9 10  1  0
 10 11  1  6
 12 11  1  0
 13 12  2  0
 14 10  1  0
 14 15  2  0
 16 12  1  0
 18 17  1  1
 18 20  1  0
 19 18  1  0
 20 21  1  1
 20 22  1  0
 21 14  1  0
 22 24  1  0
 23 22  2  0
M  END
$$$$
