MDT.pdb
     RDKit          3D

 24 23  0  0  1  0  0  0  0  0999 V2000
   26.0589  -20.4325   -6.8701 C   0  0  0  0  0  0  0  0  0  0  0  0
   26.2984  -19.1113   -8.0898 S   0  0  0  0  0  0  0  0  0  0  0  0
   26.0972  -19.7395   -9.7797 C   0  0  0  0  0  0  0  0  0  0  0  0
   25.6761  -21.2076   -9.7527 C   0  0  0  0  0  0  0  0  0  0  0  0
   25.6923  -21.7080  -11.1583 C   0  0  2  0  0  0  0  0  0  0  0  0
   27.0225  -21.5889  -11.6919 N   0  0  0  0  0  0  0  0  0  0  0  0
   24.6668  -21.1039  -12.0266 C   0  0  0  0  0  0  0  0  0  0  0  0
   25.0355  -20.5562  -13.1100 O   0  0  0  0  0  0  0  0  0  0  0  0
   23.2899  -21.0807  -11.7553 N   0  0  0  0  0  0  0  0  0  0  0  0
   22.2356  -21.1594  -12.7714 C   0  0  1  0  0  0  0  0  0  0  0  0
   20.9536  -21.1565  -11.9586 C   0  0  0  0  0  0  0  0  0  0  0  0
   19.7393  -21.3708  -12.7522 C   0  0  0  0  0  0  0  0  0  0  0  0
   18.6741  -20.8067  -12.3801 O   0  0  0  0  0  0  0  0  0  0  0  0
   22.2962  -19.9939  -13.6687 C   0  0  0  0  0  0  0  0  0  0  0  0
   22.1271  -18.8548  -13.1566 O   0  0  0  0  0  0  0  0  0  0  0  0
   19.7604  -22.1622  -13.8698 O   0  0  0  0  0  0  0  0  0  0  0  0
   24.8729  -18.1045  -15.7107 C   0  0  0  0  0  0  0  0  0  0  0  0
   23.7316  -18.5526  -16.5963 C   0  0  1  0  0  0  0  0  0  0  0  0
   24.1162  -19.7730  -17.1673 O   0  0  0  0  0  0  0  0  0  0  0  0
   22.4729  -18.8190  -15.8125 C   0  0  2  0  0  0  0  0  0  0  0  0
   22.5315  -20.0477  -15.0580 N   0  0  0  0  0  0  0  0  0  0  0  0
   21.3713  -18.9296  -16.7962 C   0  0  0  0  0  0  0  0  0  0  0  0
   20.7409  -19.9913  -16.9530 O   0  0  0  0  0  0  0  0  0  0  0  0
   21.0046  -17.8332  -17.5846 O   0  0  0  0  0  0  0  0  0  0  0  0
  1  2  1  0
  2  3  1  0
  4  5  1  0
  4  3  1  0
  5  7  1  0
  5  6  1  6
  7  8  2  0
  9  7  1  0
  9 10  1  0
 10 11  1  1
 12 11  1  0
 13 12  2  0
 14 10  1  0
 14 15  2  0
 16 12  1  0
 18 17  1  1
 18 20  1  0
 19 18  1  0
 20 21  1  6
 20 22  1  0
 21 14  1  0
 22 24  1  0
 23 22  2  0
M  END
$$$$
