CCI.pdb
     RDKit          3D

 21 20  0  0  1  0  0  0  0  0999 V2000
    8.1973  -17.6440   18.6383 N   0  0  0  0  0  0  0  0  0  0  0  0
    8.4858  -18.3262   19.8926 C   0  0  1  0  0  0  0  0  0  0  0  0
    9.9544  -18.1500   20.2104 C   0  0  0  0  0  0  0  0  0  0  0  0
   10.3907  -16.3948   20.1474 S   0  0  0  0  0  0  0  0  0  0  0  0
    7.7264  -17.5899   20.9577 C   0  0  0  0  0  0  0  0  0  0  0  0
    7.0271  -16.5776   20.7153 O   0  0  0  0  0  0  0  0  0  0  0  0
    7.7824  -18.0325   22.3009 N   0  0  0  0  0  0  0  0  0  0  0  0
    7.0641  -17.3795   23.3481 C   0  0  1  0  0  0  0  0  0  0  0  0
    6.3822  -18.3974   24.2648 C   0  0  0  0  0  0  0  0  0  0  0  0
    7.6708  -19.4203   24.9892 S   0  0  0  0  0  0  0  0  0  0  0  0
    7.9101  -16.5285   24.2132 C   0  0  0  0  0  0  0  0  0  0  0  0
    9.1623  -16.6481   24.2286 O   0  0  0  0  0  0  0  0  0  0  0  0
    5.6949  -11.9148   26.2883 C   0  0  0  0  0  0  0  0  0  0  0  0
    6.7174  -12.7971   25.5503 C   0  0  0  0  0  0  0  0  0  0  0  0
    7.4021  -13.6409   26.5863 C   0  0  2  0  0  0  0  0  0  0  0  0
    8.1811  -12.7340   27.4981 C   0  0  0  0  0  0  0  0  0  0  0  0
    8.2456  -14.7503   25.9733 C   0  0  2  0  0  0  0  0  0  0  0  0
    7.3773  -15.5172   25.0857 N   0  0  0  0  0  0  0  0  0  0  0  0
    8.7715  -15.5816   27.0739 C   0  0  0  0  0  0  0  0  0  0  0  0
    8.2608  -16.6137   27.5261 O   0  0  0  0  0  0  0  0  0  0  0  0
    9.9767  -15.1657   27.6763 O   0  0  0  0  0  0  0  0  0  0  0  0
  2  3  1  0
  2  1  1  6
  4  3  1  0
  5  2  1  0
  5  6  2  0
  7  5  1  0
  8  7  1  0
  8 11  1  0
  8  9  1  1
 10  9  1  0
 11 12  2  0
 13 14  1  0
 14 15  1  0
 15 16  1  6
 17 15  1  0
 18 11  1  0
 17 18  1  6
 19 17  1  0
 20 19  2  0
 21 19  1  0
M  END
$$$$
