CCI.pdb
     RDKit          3D

 21 20  0  0  1  0  0  0  0  0999 V2000
    6.9442  -17.9785   19.0488 N   0  0  0  0  0  0  0  0  0  0  0  0
    8.1150  -17.5226   19.7859 C   0  0  1  0  0  0  0  0  0  0  0  0
    8.4876  -16.1419   19.2924 C   0  0  0  0  0  0  0  0  0  0  0  0
    9.2939  -16.2634   17.6767 S   0  0  0  0  0  0  0  0  0  0  0  0
    7.6793  -17.3634   21.2134 C   0  0  0  0  0  0  0  0  0  0  0  0
    6.5749  -16.8631   21.5338 O   0  0  0  0  0  0  0  0  0  0  0  0
    8.5285  -17.7860   22.2639 N   0  0  0  0  0  0  0  0  0  0  0  0
    8.1661  -17.6478   23.6381 C   0  0  1  0  0  0  0  0  0  0  0  0
    7.7659  -18.9967   24.2396 C   0  0  0  0  0  0  0  0  0  0  0  0
    9.1831  -20.0935   24.0969 S   0  0  0  0  0  0  0  0  0  0  0  0
    9.2475  -17.1067   24.4902 C   0  0  0  0  0  0  0  0  0  0  0  0
   10.4163  -16.9552   24.0502 O   0  0  0  0  0  0  0  0  0  0  0  0
   10.2699  -12.8527   28.5093 C   0  0  0  0  0  0  0  0  0  0  0  0
   10.7374  -14.2772   28.1624 C   0  0  0  0  0  0  0  0  0  0  0  0
    9.7775  -14.8218   27.1446 C   0  0  2  0  0  0  0  0  0  0  0  0
    8.3874  -14.7408   27.7119 C   0  0  0  0  0  0  0  0  0  0  0  0
   10.1561  -16.2186   26.6716 C   0  0  2  0  0  0  0  0  0  0  0  0
    9.0503  -16.7181   25.8606 N   0  0  0  0  0  0  0  0  0  0  0  0
   10.3791  -17.0573   27.8657 C   0  0  0  0  0  0  0  0  0  0  0  0
   11.3351  -16.9861   28.6476 O   0  0  0  0  0  0  0  0  0  0  0  0
    9.4102  -18.0411   28.1520 O   0  0  0  0  0  0  0  0  0  0  0  0
  2  3  1  0
  2  1  1  6
  4  3  1  0
  5  2  1  0
  5  6  2  0
  7  5  1  0
  8  7  1  0
  8 11  1  0
  8  9  1  1
 10  9  1  0
 11 12  2  0
 13 14  1  0
 14 15  1  0
 15 16  1  1
 17 15  1  0
 18 11  1  0
 17 18  1  6
 19 17  1  0
 20 19  2  0
 21 19  1  0
M  END
$$$$
