CCI.pdb
     RDKit          3D

 21 20  0  0  1  0  0  0  0  0999 V2000
    7.7000  -17.4730   18.4427 N   0  0  0  0  0  0  0  0  0  0  0  0
    8.3335  -17.8298   19.7049 C   0  0  1  0  0  0  0  0  0  0  0  0
    9.6338  -17.0658   19.8245 C   0  0  0  0  0  0  0  0  0  0  0  0
    9.2951  -15.2930   19.9571 S   0  0  0  0  0  0  0  0  0  0  0  0
    7.4331  -17.3142   20.7895 C   0  0  0  0  0  0  0  0  0  0  0  0
    6.1895  -17.2267   20.6542 O   0  0  0  0  0  0  0  0  0  0  0  0
    7.9810  -16.9016   22.0276 N   0  0  0  0  0  0  0  0  0  0  0  0
    7.1733  -16.6988   23.1876 C   0  0  1  0  0  0  0  0  0  0  0  0
    6.5640  -18.0166   23.6707 C   0  0  0  0  0  0  0  0  0  0  0  0
    7.6753  -18.7052   24.9047 S   0  0  0  0  0  0  0  0  0  0  0  0
    7.9089  -16.1248   24.3355 C   0  0  0  0  0  0  0  0  0  0  0  0
    9.0968  -16.4553   24.5854 O   0  0  0  0  0  0  0  0  0  0  0  0
    5.4723  -11.6624   26.4699 C   0  0  0  0  0  0  0  0  0  0  0  0
    6.5061  -12.5108   25.7085 C   0  0  0  0  0  0  0  0  0  0  0  0
    7.2849  -13.2834   26.7335 C   0  0  2  0  0  0  0  0  0  0  0  0
    8.0372  -12.3063   27.5938 C   0  0  0  0  0  0  0  0  0  0  0  0
    8.1754  -14.3496   26.1105 C   0  0  2  0  0  0  0  0  0  0  0  0
    7.3351  -15.1620   25.2364 N   0  0  0  0  0  0  0  0  0  0  0  0
    8.7585  -15.1504   27.2049 C   0  0  0  0  0  0  0  0  0  0  0  0
    8.3574  -16.2490   27.6081 O   0  0  0  0  0  0  0  0  0  0  0  0
    9.8866  -14.6178   27.8625 O   0  0  0  0  0  0  0  0  0  0  0  0
  2  3  1  0
  2  1  1  6
  4  3  1  0
  5  2  1  0
  5  6  2  0
  7  5  1  0
  8  7  1  0
  8 11  1  0
  8  9  1  1
 10  9  1  0
 11 12  2  0
 13 14  1  0
 14 15  1  0
 15 16  1  6
 17 15  1  0
 18 11  1  0
 17 18  1  6
 19 17  1  0
 20 19  2  0
 21 19  1  0
M  END
$$$$
