CCI.pdb
     RDKit          3D

 21 20  0  0  1  0  0  0  0  0999 V2000
    7.2629  -19.1349   18.2976 N   0  0  0  0  0  0  0  0  0  0  0  0
    7.9938  -18.0799   18.9867 C   0  0  1  0  0  0  0  0  0  0  0  0
    8.0085  -16.8496   18.1063 C   0  0  0  0  0  0  0  0  0  0  0  0
    9.4966  -16.8484   17.0765 S   0  0  0  0  0  0  0  0  0  0  0  0
    7.1830  -17.7280   20.1999 C   0  0  0  0  0  0  0  0  0  0  0  0
    5.9492  -17.9393   20.2758 O   0  0  0  0  0  0  0  0  0  0  0  0
    7.8087  -17.1317   21.3206 N   0  0  0  0  0  0  0  0  0  0  0  0
    7.1158  -16.9057   22.5485 C   0  0  1  0  0  0  0  0  0  0  0  0
    6.7012  -18.2280   23.1974 C   0  0  0  0  0  0  0  0  0  0  0  0
    8.2049  -19.1314   23.5907 S   0  0  0  0  0  0  0  0  0  0  0  0
    7.9092  -16.1684   23.5560 C   0  0  0  0  0  0  0  0  0  0  0  0
    9.1640  -16.2511   23.5921 O   0  0  0  0  0  0  0  0  0  0  0  0
    7.1500  -11.0691   26.8699 C   0  0  0  0  0  0  0  0  0  0  0  0
    8.0711  -12.2809   26.6429 C   0  0  0  0  0  0  0  0  0  0  0  0
    7.3061  -13.2673   25.8087 C   0  0  2  0  0  0  0  0  0  0  0  0
    6.0456  -13.6328   26.5423 C   0  0  0  0  0  0  0  0  0  0  0  0
    8.1456  -14.4739   25.4124 C   0  0  2  0  0  0  0  0  0  0  0  0
    7.3195  -15.3152   24.5522 N   0  0  0  0  0  0  0  0  0  0  0  0
    8.5397  -15.1784   26.6482 C   0  0  0  0  0  0  0  0  0  0  0  0
    8.0370  -16.2160   27.0968 O   0  0  0  0  0  0  0  0  0  0  0  0
    9.5946  -14.6203   27.3995 O   0  0  0  0  0  0  0  0  0  0  0  0
  2  3  1  0
  2  1  1  6
  4  3  1  0
  5  2  1  0
  5  6  2  0
  7  5  1  0
  8  7  1  0
  8 11  1  0
  8  9  1  1
 10  9  1  0
 11 12  2  0
 13 14  1  0
 14 15  1  0
 15 16  1  1
 17 15  1  0
 18 11  1  0
 17 18  1  6
 19 17  1  0
 20 19  2  0
 21 19  1  0
M  END
$$$$
