CCI.pdb
     RDKit          3D

 21 20  0  0  1  0  0  0  0  0999 V2000
    8.8472  -15.5478   19.1441 N   0  0  0  0  0  0  0  0  0  0  0  0
    8.3906  -14.2980   19.7368 C   0  0  1  0  0  0  0  0  0  0  0  0
    7.3006  -13.7195   18.8615 C   0  0  0  0  0  0  0  0  0  0  0  0
    7.9938  -13.2182   17.2668 S   0  0  0  0  0  0  0  0  0  0  0  0
    7.7437  -14.6612   21.0416 C   0  0  0  0  0  0  0  0  0  0  0  0
    7.1767  -13.8174   21.7757 O   0  0  0  0  0  0  0  0  0  0  0  0
    7.7582  -16.0040   21.4890 N   0  0  0  0  0  0  0  0  0  0  0  0
    7.2257  -16.3897   22.7565 C   0  0  1  0  0  0  0  0  0  0  0  0
    7.1004  -17.9112   22.8603 C   0  0  0  0  0  0  0  0  0  0  0  0
    6.5331  -18.2943   24.5226 S   0  0  0  0  0  0  0  0  0  0  0  0
    8.0448  -15.9514   23.9077 C   0  0  0  0  0  0  0  0  0  0  0  0
    9.2720  -16.2188   23.9798 O   0  0  0  0  0  0  0  0  0  0  0  0
    6.1597  -11.6529   26.6725 C   0  0  0  0  0  0  0  0  0  0  0  0
    7.0464  -12.6011   25.8461 C   0  0  0  0  0  0  0  0  0  0  0  0
    7.6353  -13.5994   26.8004 C   0  0  2  0  0  0  0  0  0  0  0  0
    8.4872  -12.8605   27.7947 C   0  0  0  0  0  0  0  0  0  0  0  0
    8.3754  -14.7234   26.0885 C   0  0  2  0  0  0  0  0  0  0  0  0
    7.5127  -15.1989   25.0116 N   0  0  0  0  0  0  0  0  0  0  0  0
    8.6487  -15.7847   27.0773 C   0  0  0  0  0  0  0  0  0  0  0  0
    7.8905  -16.7098   27.3934 O   0  0  0  0  0  0  0  0  0  0  0  0
    9.8970  -15.7490   27.7324 O   0  0  0  0  0  0  0  0  0  0  0  0
  2  3  1  0
  2  1  1  6
  4  3  1  0
  5  2  1  0
  5  6  2  0
  7  5  1  0
  8  7  1  0
  8 11  1  0
  8  9  1  6
 10  9  1  0
 11 12  2  0
 13 14  1  0
 14 15  1  0
 15 16  1  1
 17 15  1  0
 18 11  1  0
 17 18  1  6
 19 17  1  0
 20 19  2  0
 21 19  1  0
M  END
$$$$
