CCI.pdb
     RDKit          3D

 21 20  0  0  1  0  0  0  0  0999 V2000
    9.0532  -17.0017   18.0357 N   0  0  0  0  0  0  0  0  0  0  0  0
    9.8247  -16.7427   19.2438 C   0  0  1  0  0  0  0  0  0  0  0  0
   10.6575  -15.4985   19.0263 C   0  0  0  0  0  0  0  0  0  0  0  0
   11.6758  -15.1772   20.4875 S   0  0  0  0  0  0  0  0  0  0  0  0
    8.8293  -16.4090   20.3166 C   0  0  0  0  0  0  0  0  0  0  0  0
    7.7661  -15.7856   20.0852 O   0  0  0  0  0  0  0  0  0  0  0  0
    9.0730  -16.8006   21.6547 N   0  0  0  0  0  0  0  0  0  0  0  0
    8.1448  -16.5347   22.7067 C   0  0  1  0  0  0  0  0  0  0  0  0
    7.6808  -17.8324   23.3717 C   0  0  0  0  0  0  0  0  0  0  0  0
    9.1343  -18.6373   24.0580 S   0  0  0  0  0  0  0  0  0  0  0  0
    8.6894  -15.6774   23.7822 C   0  0  0  0  0  0  0  0  0  0  0  0
    9.9130  -15.6886   24.0744 O   0  0  0  0  0  0  0  0  0  0  0  0
    5.4646  -12.1108   27.0801 C   0  0  0  0  0  0  0  0  0  0  0  0
    6.1598  -13.3150   26.4206 C   0  0  0  0  0  0  0  0  0  0  0  0
    7.4907  -12.8358   25.9173 C   0  0  2  0  0  0  0  0  0  0  0  0
    7.2563  -11.9462   24.7282 C   0  0  0  0  0  0  0  0  0  0  0  0
    8.4558  -13.9790   25.6353 C   0  0  2  0  0  0  0  0  0  0  0  0
    7.8785  -14.7809   24.5611 N   0  0  0  0  0  0  0  0  0  0  0  0
    8.6089  -14.7610   26.8779 C   0  0  0  0  0  0  0  0  0  0  0  0
    9.1734  -14.3924   27.9152 O   0  0  0  0  0  0  0  0  0  0  0  0
    8.0594  -16.0596   26.8937 O   0  0  0  0  0  0  0  0  0  0  0  0
  2  3  1  0
  2  1  1  6
  4  3  1  0
  5  2  1  0
  5  6  2  0
  7  5  1  0
  8  7  1  0
  8 11  1  0
  8  9  1  1
 10  9  1  0
 11 12  2  0
 13 14  1  0
 14 15  1  0
 15 16  1  6
 17 15  1  0
 18 11  1  0
 17 18  1  6
 19 17  1  0
 20 19  2  0
 21 19  1  0
M  END
$$$$
