CCI.pdb
     RDKit          3D

 21 20  0  0  1  0  0  0  0  0999 V2000
   10.3764  -16.8655   18.5350 N   0  0  0  0  0  0  0  0  0  0  0  0
   11.2316  -16.8564   19.7142 C   0  0  1  0  0  0  0  0  0  0  0  0
   12.1200  -15.6332   19.6558 C   0  0  0  0  0  0  0  0  0  0  0  0
   13.2069  -15.5932   21.1022 S   0  0  0  0  0  0  0  0  0  0  0  0
   10.3223  -16.6686   20.8935 C   0  0  0  0  0  0  0  0  0  0  0  0
    9.3356  -15.8949   20.8728 O   0  0  0  0  0  0  0  0  0  0  0  0
   10.5627  -17.3805   22.0930 N   0  0  0  0  0  0  0  0  0  0  0  0
    9.7405  -17.2226   23.2497 C   0  0  1  0  0  0  0  0  0  0  0  0
    8.9517  -18.5007   23.5423 C   0  0  0  0  0  0  0  0  0  0  0  0
   10.1407  -19.8318   23.7577 S   0  0  0  0  0  0  0  0  0  0  0  0
   10.4951  -16.8981   24.4800 C   0  0  0  0  0  0  0  0  0  0  0  0
   11.7091  -17.2034   24.6051 O   0  0  0  0  0  0  0  0  0  0  0  0
   10.2655  -13.0606   29.2591 C   0  0  0  0  0  0  0  0  0  0  0  0
   10.8404  -14.3993   28.7634 C   0  0  0  0  0  0  0  0  0  0  0  0
   10.1301  -14.7389   27.4850 C   0  0  2  0  0  0  0  0  0  0  0  0
    8.6532  -14.7918   27.7619 C   0  0  0  0  0  0  0  0  0  0  0  0
   10.6684  -16.0063   26.8353 C   0  0  2  0  0  0  0  0  0  0  0  0
    9.9114  -16.2204   25.6060 N   0  0  0  0  0  0  0  0  0  0  0  0
   10.4858  -17.1181   27.7890 C   0  0  0  0  0  0  0  0  0  0  0  0
   11.1475  -17.3259   28.8134 O   0  0  0  0  0  0  0  0  0  0  0  0
    9.4558  -18.0409   27.5131 O   0  0  0  0  0  0  0  0  0  0  0  0
  2  3  1  0
  2  1  1  6
  4  3  1  0
  5  2  1  0
  5  6  2  0
  7  5  1  0
  8  7  1  0
  8 11  1  0
  8  9  1  1
 10  9  1  0
 11 12  2  0
 13 14  1  0
 14 15  1  0
 15 16  1  1
 17 15  1  0
 18 11  1  0
 17 18  1  6
 19 17  1  0
 20 19  2  0
 21 19  1  0
M  END
$$$$
