CCI.pdb
     RDKit          3D

 21 20  0  0  1  0  0  0  0  0999 V2000
    7.9215  -15.2513   17.9362 N   0  0  0  0  0  0  0  0  0  0  0  0
    8.3919  -14.4978   19.0907 C   0  0  1  0  0  0  0  0  0  0  0  0
    7.6420  -13.1851   19.1476 C   0  0  0  0  0  0  0  0  0  0  0  0
    8.8040  -11.8061   18.9946 S   0  0  0  0  0  0  0  0  0  0  0  0
    7.9772  -15.2802   20.3027 C   0  0  0  0  0  0  0  0  0  0  0  0
    6.8093  -15.7059   20.4683 O   0  0  0  0  0  0  0  0  0  0  0  0
    8.9211  -15.5652   21.3181 N   0  0  0  0  0  0  0  0  0  0  0  0
    8.5466  -16.1643   22.5590 C   0  0  1  0  0  0  0  0  0  0  0  0
    9.1263  -17.5748   22.6857 C   0  0  0  0  0  0  0  0  0  0  0  0
   10.9025  -17.4531   22.4366 S   0  0  0  0  0  0  0  0  0  0  0  0
    9.0001  -15.4103   23.7481 C   0  0  0  0  0  0  0  0  0  0  0  0
   10.1486  -14.8998   23.8029 O   0  0  0  0  0  0  0  0  0  0  0  0
    5.8439  -11.9596   26.1483 C   0  0  0  0  0  0  0  0  0  0  0  0
    7.0610  -12.6857   25.5485 C   0  0  0  0  0  0  0  0  0  0  0  0
    7.5910  -13.6086   26.6075 C   0  0  2  0  0  0  0  0  0  0  0  0
    8.0051  -12.7823   27.7934 C   0  0  0  0  0  0  0  0  0  0  0  0
    8.6963  -14.5191   26.0904 C   0  0  2  0  0  0  0  0  0  0  0  0
    8.1789  -15.2048   24.9105 N   0  0  0  0  0  0  0  0  0  0  0  0
    9.0420  -15.4693   27.1658 C   0  0  0  0  0  0  0  0  0  0  0  0
    8.6255  -16.6280   27.2867 O   0  0  0  0  0  0  0  0  0  0  0  0
    9.9362  -15.0204   28.1594 O   0  0  0  0  0  0  0  0  0  0  0  0
  2  3  1  0
  2  1  1  6
  4  3  1  0
  5  2  1  0
  5  6  2  0
  7  5  1  0
  8  7  1  0
  8 11  1  0
  8  9  1  1
 10  9  1  0
 11 12  2  0
 13 14  1  0
 14 15  1  0
 15 16  1  1
 17 15  1  0
 18 11  1  0
 17 18  1  6
 19 17  1  0
 20 19  2  0
 21 19  1  0
M  END
$$$$
