CCI.pdb
     RDKit          3D

 21 20  0  0  1  0  0  0  0  0999 V2000
    7.6552  -18.3794   18.3632 N   0  0  0  0  0  0  0  0  0  0  0  0
    8.5084  -17.8555   19.4213 C   0  0  1  0  0  0  0  0  0  0  0  0
    9.3152  -16.7035   18.8638 C   0  0  0  0  0  0  0  0  0  0  0  0
   10.3663  -16.0047   20.1607 S   0  0  0  0  0  0  0  0  0  0  0  0
    7.5890  -17.2730   20.4550 C   0  0  0  0  0  0  0  0  0  0  0  0
    6.5735  -16.6000   20.1576 O   0  0  0  0  0  0  0  0  0  0  0  0
    7.8529  -17.4745   21.8308 N   0  0  0  0  0  0  0  0  0  0  0  0
    7.0664  -16.8637   22.8542 C   0  0  1  0  0  0  0  0  0  0  0  0
    6.2128  -17.9022   23.5853 C   0  0  0  0  0  0  0  0  0  0  0  0
    7.2960  -18.8011   24.7037 S   0  0  0  0  0  0  0  0  0  0  0  0
    7.8648  -16.1673   23.8866 C   0  0  0  0  0  0  0  0  0  0  0  0
    9.0796  -16.4379   24.0702 O   0  0  0  0  0  0  0  0  0  0  0  0
    5.6464  -11.6295   26.2023 C   0  0  0  0  0  0  0  0  0  0  0  0
    6.6715  -12.4803   25.4318 C   0  0  0  0  0  0  0  0  0  0  0  0
    7.2933  -13.4249   26.4194 C   0  0  2  0  0  0  0  0  0  0  0  0
    8.0372  -12.6166   27.4460 C   0  0  0  0  0  0  0  0  0  0  0  0
    8.1523  -14.4890   25.7504 C   0  0  2  0  0  0  0  0  0  0  0  0
    7.3254  -15.1457   24.7429 N   0  0  0  0  0  0  0  0  0  0  0  0
    8.5965  -15.4352   26.7926 C   0  0  0  0  0  0  0  0  0  0  0  0
    7.9664  -16.4110   27.2184 O   0  0  0  0  0  0  0  0  0  0  0  0
    9.8654  -15.2128   27.3662 O   0  0  0  0  0  0  0  0  0  0  0  0
  2  3  1  0
  2  1  1  6
  4  3  1  0
  5  2  1  0
  5  6  2  0
  7  5  1  0
  8  7  1  0
  8 11  1  0
  8  9  1  1
 10  9  1  0
 11 12  2  0
 13 14  1  0
 14 15  1  0
 15 16  1  1
 17 15  1  0
 18 11  1  0
 17 18  1  6
 19 17  1  0
 20 19  2  0
 21 19  1  0
M  END
$$$$
