CCI.pdb
     RDKit          3D

 21 20  0  0  1  0  0  0  0  0999 V2000
    7.6525  -15.7540   18.1357 N   0  0  0  0  0  0  0  0  0  0  0  0
    8.1289  -14.8740   19.1943 C   0  0  1  0  0  0  0  0  0  0  0  0
    7.5254  -13.5021   18.9886 C   0  0  0  0  0  0  0  0  0  0  0  0
    8.7126  -12.4285   18.1441 S   0  0  0  0  0  0  0  0  0  0  0  0
    7.5551  -15.4059   20.4753 C   0  0  0  0  0  0  0  0  0  0  0  0
    6.3224  -15.5422   20.6614 O   0  0  0  0  0  0  0  0  0  0  0  0
    8.4157  -15.7775   21.5357 N   0  0  0  0  0  0  0  0  0  0  0  0
    7.9203  -16.1724   22.8154 C   0  0  1  0  0  0  0  0  0  0  0  0
    8.0566  -17.6833   23.0155 C   0  0  0  0  0  0  0  0  0  0  0  0
    9.0638  -18.3179   21.6683 S   0  0  0  0  0  0  0  0  0  0  0  0
    8.6166  -15.5290   23.9508 C   0  0  0  0  0  0  0  0  0  0  0  0
    9.8689  -15.4109   23.9710 O   0  0  0  0  0  0  0  0  0  0  0  0
    5.7605  -11.9825   26.8653 C   0  0  0  0  0  0  0  0  0  0  0  0
    6.9446  -12.5443   26.0586 C   0  0  0  0  0  0  0  0  0  0  0  0
    7.6788  -13.4972   26.9568 C   0  0  2  0  0  0  0  0  0  0  0  0
    8.3192  -12.7077   28.0646 C   0  0  0  0  0  0  0  0  0  0  0  0
    8.6612  -14.3781   26.1973 C   0  0  2  0  0  0  0  0  0  0  0  0
    7.9295  -14.9974   25.0968 N   0  0  0  0  0  0  0  0  0  0  0  0
    9.1878  -15.3866   27.1379 C   0  0  0  0  0  0  0  0  0  0  0  0
    8.6993  -16.4981   27.3755 O   0  0  0  0  0  0  0  0  0  0  0  0
   10.3658  -15.0592   27.8405 O   0  0  0  0  0  0  0  0  0  0  0  0
  2  3  1  0
  2  1  1  6
  4  3  1  0
  5  2  1  0
  5  6  2  0
  7  5  1  0
  8  7  1  0
  8 11  1  0
  8  9  1  1
 10  9  1  0
 11 12  2  0
 13 14  1  0
 14 15  1  0
 15 16  1  1
 17 15  1  0
 18 11  1  0
 17 18  1  6
 19 17  1  0
 20 19  2  0
 21 19  1  0
M  END
$$$$
