CCI.pdb
     RDKit          3D

 21 20  0  0  1  0  0  0  0  0999 V2000
    8.5840  -13.4287   18.2978 N   0  0  0  0  0  0  0  0  0  0  0  0
    9.3797  -14.2522   19.1982 C   0  0  1  0  0  0  0  0  0  0  0  0
   10.5193  -13.4153   19.7364 C   0  0  0  0  0  0  0  0  0  0  0  0
   11.9467  -13.5365   18.6305 S   0  0  0  0  0  0  0  0  0  0  0  0
    8.4957  -14.5738   20.3679 C   0  0  0  0  0  0  0  0  0  0  0  0
    7.6583  -13.7620   20.8287 O   0  0  0  0  0  0  0  0  0  0  0  0
    8.5878  -15.8378   20.9982 N   0  0  0  0  0  0  0  0  0  0  0  0
    7.8470  -16.1566   22.1765 C   0  0  1  0  0  0  0  0  0  0  0  0
    7.7078  -17.6710   22.3456 C   0  0  0  0  0  0  0  0  0  0  0  0
    6.7022  -18.2764   20.9840 S   0  0  0  0  0  0  0  0  0  0  0  0
    8.4567  -15.6442   23.4231 C   0  0  0  0  0  0  0  0  0  0  0  0
    9.6981  -15.7021   23.6187 O   0  0  0  0  0  0  0  0  0  0  0  0
    5.8259  -11.8011   26.3071 C   0  0  0  0  0  0  0  0  0  0  0  0
    6.9274  -12.5659   25.5521 C   0  0  0  0  0  0  0  0  0  0  0  0
    7.3742  -13.6898   26.4416 C   0  0  2  0  0  0  0  0  0  0  0  0
    7.9444  -13.1002   27.7017 C   0  0  0  0  0  0  0  0  0  0  0  0
    8.3254  -14.6491   25.7395 C   0  0  2  0  0  0  0  0  0  0  0  0
    7.6928  -15.0503   24.4869 N   0  0  0  0  0  0  0  0  0  0  0  0
    8.5473  -15.8033   26.6326 C   0  0  0  0  0  0  0  0  0  0  0  0
    7.8264  -16.8033   26.7366 O   0  0  0  0  0  0  0  0  0  0  0  0
    9.6937  -15.7720   27.4530 O   0  0  0  0  0  0  0  0  0  0  0  0
  2  3  1  0
  2  1  1  6
  4  3  1  0
  5  2  1  0
  5  6  2  0
  7  5  1  0
  8  7  1  0
  8 11  1  0
  8  9  1  1
 10  9  1  0
 11 12  2  0
 13 14  1  0
 14 15  1  0
 15 16  1  1
 17 15  1  0
 18 11  1  0
 17 18  1  6
 19 17  1  0
 20 19  2  0
 21 19  1  0
M  END
$$$$
