CCI.pdb
     RDKit          3D

 21 20  0  0  1  0  0  0  0  0999 V2000
    9.6959  -17.8849   20.5171 N   0  0  0  0  0  0  0  0  0  0  0  0
   10.0052  -16.5121   20.8936 C   0  0  1  0  0  0  0  0  0  0  0  0
    9.2722  -15.5783   19.9557 C   0  0  0  0  0  0  0  0  0  0  0  0
    9.8289  -15.8529   18.2557 S   0  0  0  0  0  0  0  0  0  0  0  0
    9.4101  -16.3039   22.2558 C   0  0  0  0  0  0  0  0  0  0  0  0
    9.5080  -15.2209   22.8804 O   0  0  0  0  0  0  0  0  0  0  0  0
    8.7035  -17.3550   22.8875 N   0  0  0  0  0  0  0  0  0  0  0  0
    8.3506  -17.3116   24.2705 C   0  0  1  0  0  0  0  0  0  0  0  0
    7.4687  -18.5028   24.6507 C   0  0  0  0  0  0  0  0  0  0  0  0
    6.8095  -18.1846   26.2927 S   0  0  0  0  0  0  0  0  0  0  0  0
    9.5130  -17.3346   25.1852 C   0  0  0  0  0  0  0  0  0  0  0  0
   10.5023  -18.0815   24.9708 O   0  0  0  0  0  0  0  0  0  0  0  0
    9.8787  -13.7736   29.7121 C   0  0  0  0  0  0  0  0  0  0  0  0
    9.7289  -15.1306   29.0018 C   0  0  0  0  0  0  0  0  0  0  0  0
   10.8202  -15.2143   27.9741 C   0  0  2  0  0  0  0  0  0  0  0  0
   10.7340  -14.0011   27.0902 C   0  0  0  0  0  0  0  0  0  0  0  0
   10.7979  -16.5265   27.2024 C   0  0  2  0  0  0  0  0  0  0  0  0
    9.6013  -16.5196   26.3667 N   0  0  0  0  0  0  0  0  0  0  0  0
   10.7719  -17.6296   28.1830 C   0  0  0  0  0  0  0  0  0  0  0  0
   11.6948  -17.9697   28.9335 O   0  0  0  0  0  0  0  0  0  0  0  0
    9.5796  -18.3760   28.2817 O   0  0  0  0  0  0  0  0  0  0  0  0
  2  3  1  0
  2  1  1  6
  4  3  1  0
  5  2  1  0
  5  6  2  0
  7  5  1  0
  8  7  1  0
  8 11  1  0
  8  9  1  1
 10  9  1  0
 11 12  2  0
 13 14  1  0
 14 15  1  0
 15 16  1  6
 17 15  1  0
 18 11  1  0
 17 18  1  6
 19 17  1  0
 20 19  2  0
 21 19  1  0
M  END
$$$$
