CCI.pdb
     RDKit          3D

 21 20  0  0  1  0  0  0  0  0999 V2000
    7.4491  -17.3401   18.0470 N   0  0  0  0  0  0  0  0  0  0  0  0
    8.3726  -17.0176   19.1263 C   0  0  1  0  0  0  0  0  0  0  0  0
    9.0558  -15.7077   18.8008 C   0  0  0  0  0  0  0  0  0  0  0  0
    7.8461  -14.3619   18.8200 S   0  0  0  0  0  0  0  0  0  0  0  0
    7.5294  -16.7694   20.3431 C   0  0  0  0  0  0  0  0  0  0  0  0
    6.2771  -16.8338   20.3252 O   0  0  0  0  0  0  0  0  0  0  0  0
    8.1443  -16.4470   21.5764 N   0  0  0  0  0  0  0  0  0  0  0  0
    7.4006  -16.3277   22.7896 C   0  0  1  0  0  0  0  0  0  0  0  0
    6.8569  -17.6862   23.2371 C   0  0  0  0  0  0  0  0  0  0  0  0
    8.2672  -18.7298   23.6295 S   0  0  0  0  0  0  0  0  0  0  0  0
    8.1860  -15.7904   23.9221 C   0  0  0  0  0  0  0  0  0  0  0  0
    9.4312  -15.9546   23.9937 O   0  0  0  0  0  0  0  0  0  0  0  0
    5.7136  -11.8286   27.0908 C   0  0  0  0  0  0  0  0  0  0  0  0
    6.2851  -13.2036   26.7021 C   0  0  0  0  0  0  0  0  0  0  0  0
    7.6881  -12.9781   26.2175 C   0  0  2  0  0  0  0  0  0  0  0  0
    7.6391  -12.0478   25.0374 C   0  0  0  0  0  0  0  0  0  0  0  0
    8.4244  -14.2794   25.9303 C   0  0  2  0  0  0  0  0  0  0  0  0
    7.5988  -15.0518   25.0073 N   0  0  0  0  0  0  0  0  0  0  0  0
    8.6156  -14.9854   27.2125 C   0  0  0  0  0  0  0  0  0  0  0  0
    9.2920  -14.5976   28.1730 O   0  0  0  0  0  0  0  0  0  0  0  0
    7.9655  -16.2271   27.3675 O   0  0  0  0  0  0  0  0  0  0  0  0
  2  3  1  0
  2  1  1  6
  4  3  1  0
  5  2  1  0
  5  6  2  0
  7  5  1  0
  8  7  1  0
  8 11  1  0
  8  9  1  1
 10  9  1  0
 11 12  2  0
 13 14  1  0
 14 15  1  0
 15 16  1  6
 17 15  1  0
 18 11  1  0
 17 18  1  6
 19 17  1  0
 20 19  2  0
 21 19  1  0
M  END
$$$$
