CCI.pdb
     RDKit          3D

 21 20  0  0  1  0  0  0  0  0999 V2000
    6.8448  -18.2042   18.8505 N   0  0  0  0  0  0  0  0  0  0  0  0
    7.6050  -17.2239   19.6139 C   0  0  1  0  0  0  0  0  0  0  0  0
    7.4532  -15.8730   18.9499 C   0  0  0  0  0  0  0  0  0  0  0  0
    9.0173  -15.3870   18.1803 S   0  0  0  0  0  0  0  0  0  0  0  0
    6.9348  -17.1200   20.9530 C   0  0  0  0  0  0  0  0  0  0  0  0
    5.6992  -16.9486   21.0816 O   0  0  0  0  0  0  0  0  0  0  0  0
    7.7028  -17.2155   22.1380 N   0  0  0  0  0  0  0  0  0  0  0  0
    7.1468  -16.9594   23.4281 C   0  0  1  0  0  0  0  0  0  0  0  0
    6.9470  -18.2601   24.2089 C   0  0  0  0  0  0  0  0  0  0  0  0
    8.5532  -19.0541   24.3558 S   0  0  0  0  0  0  0  0  0  0  0  0
    7.9815  -16.0795   24.2750 C   0  0  0  0  0  0  0  0  0  0  0  0
    9.2297  -16.0200   24.1295 O   0  0  0  0  0  0  0  0  0  0  0  0
    5.6765  -11.6721   26.3728 C   0  0  0  0  0  0  0  0  0  0  0  0
    6.7752  -12.4931   25.6749 C   0  0  0  0  0  0  0  0  0  0  0  0
    7.4609  -13.3052   26.7353 C   0  0  2  0  0  0  0  0  0  0  0  0
    8.2335  -12.3704   27.6240 C   0  0  0  0  0  0  0  0  0  0  0  0
    8.3109  -14.4271   26.1549 C   0  0  2  0  0  0  0  0  0  0  0  0
    7.4415  -15.2390   25.3093 N   0  0  0  0  0  0  0  0  0  0  0  0
    8.8615  -15.2081   27.2801 C   0  0  0  0  0  0  0  0  0  0  0  0
    9.8195  -14.8926   27.9965 O   0  0  0  0  0  0  0  0  0  0  0  0
    8.2393  -16.4385   27.5757 O   0  0  0  0  0  0  0  0  0  0  0  0
  2  3  1  0
  2  1  1  6
  4  3  1  0
  5  2  1  0
  5  6  2  0
  7  5  1  0
  8  7  1  0
  8 11  1  0
  8  9  1  1
 10  9  1  0
 11 12  2  0
 13 14  1  0
 14 15  1  0
 15 16  1  6
 17 15  1  0
 18 11  1  0
 17 18  1  6
 19 17  1  0
 20 19  2  0
 21 19  1  0
M  END
$$$$
