GVF.pdb
     RDKit          3D

 23 23  0  0  1  0  0  0  0  0999 V2000
   18.1417   -0.0838  -15.7176 N   0  0  0  0  0  0  0  0  0  0  0  0
   18.9226   -1.1936  -16.2048 C   0  0  0  0  0  0  0  0  0  0  0  0
   18.3696   -2.4995  -15.7218 C   0  0  0  0  0  0  0  0  0  0  0  0
   18.2551   -2.7180  -14.4947 O   0  0  0  0  0  0  0  0  0  0  0  0
   15.2625   -4.1524  -17.1037 C   0  0  0  0  0  0  0  0  0  0  0  0
   16.2764   -5.2485  -17.0337 C   0  0  1  0  0  0  0  0  0  0  0  0
   16.6639   -5.8237  -18.3537 C   0  0  0  0  0  0  0  0  0  0  0  0
   17.5039   -4.8248  -16.2180 C   0  0  2  0  0  0  0  0  0  0  0  0
   17.9631   -3.5177  -16.6250 N   0  0  0  0  0  0  0  0  0  0  0  0
   18.5751   -5.8491  -16.2885 C   0  0  0  0  0  0  0  0  0  0  0  0
   19.3235   -5.8166  -17.2996 O   0  0  0  0  0  0  0  0  0  0  0  0
   18.8060   -6.8365  -15.3181 N   0  0  0  0  0  0  0  0  0  0  0  0
   19.8258   -7.8609  -15.3967 C   0  0  1  0  0  0  0  0  0  0  0  0
   20.9034   -7.6769  -14.3569 C   0  0  0  0  0  0  0  0  0  0  0  0
   21.7080   -6.4537  -14.5676 C   0  0  0  0  0  0  0  0  0  0  0  0
   22.8042   -6.3796  -15.3962 C   0  0  0  0  0  0  0  0  0  0  0  0
   23.5353   -5.2223  -15.5701 C   0  0  0  0  0  0  0  0  0  0  0  0
   23.1702   -4.0810  -14.8957 C   0  0  0  0  0  0  0  0  0  0  0  0
   22.0783   -4.1181  -14.0579 C   0  0  0  0  0  0  0  0  0  0  0  0
   21.3505   -5.3043  -13.8964 C   0  0  0  0  0  0  0  0  0  0  0  0
   19.2406   -9.2008  -15.2136 C   0  0  0  0  0  0  0  0  0  0  0  0
   20.0084  -10.3646  -15.4008 O   0  0  0  0  0  0  0  0  0  0  0  0
   18.0522   -9.3763  -14.8878 O   0  0  0  0  0  0  0  0  0  0  0  0
  1  2  1  0
  3  4  2  0
  3  2  1  0
  6  5  1  6
  6  8  1  0
  7  6  1  0
  8 10  1  0
  8  9  1  6
  9  3  1  0
 10 12  1  0
 11 10  2  0
 12 13  1  0
 13 21  1  0
 13 14  1  1
 14 15  1  0
 15 16  2  0
 16 17  1  0
 18 17  2  0
 19 18  1  0
 20 19  2  0
 20 15  1  0
 21 23  2  0
 21 22  1  0
M  END
$$$$
