GVF.pdb
     RDKit          3D

 23 23  0  0  1  0  0  0  0  0999 V2000
   24.1376  -24.4747  -15.2771 N   0  0  0  0  0  0  0  0  0  0  0  0
   23.8794  -23.1884  -14.6791 C   0  0  0  0  0  0  0  0  0  0  0  0
   24.9256  -22.8421  -13.6642 C   0  0  0  0  0  0  0  0  0  0  0  0
   25.1948  -23.6430  -12.7408 O   0  0  0  0  0  0  0  0  0  0  0  0
   26.5506  -18.8110  -13.4219 C   0  0  0  0  0  0  0  0  0  0  0  0
   27.4328  -20.0074  -13.2649 C   0  0  1  0  0  0  0  0  0  0  0  0
   28.6629  -19.7723  -12.4557 C   0  0  0  0  0  0  0  0  0  0  0  0
   26.6449  -21.2217  -12.7581 C   0  0  2  0  0  0  0  0  0  0  0  0
   25.6362  -21.6131  -13.7143 N   0  0  0  0  0  0  0  0  0  0  0  0
   26.0802  -20.9705  -11.4093 C   0  0  0  0  0  0  0  0  0  0  0  0
   24.9466  -20.4262  -11.3628 O   0  0  0  0  0  0  0  0  0  0  0  0
   26.7156  -21.2943  -10.2004 N   0  0  0  0  0  0  0  0  0  0  0  0
   26.1346  -21.1357   -8.8841 C   0  0  1  0  0  0  0  0  0  0  0  0
   26.9644  -21.7929   -7.8091 C   0  0  0  0  0  0  0  0  0  0  0  0
   27.5050  -20.8296   -6.8253 C   0  0  0  0  0  0  0  0  0  0  0  0
   26.7616  -20.2386   -5.8294 C   0  0  0  0  0  0  0  0  0  0  0  0
   27.2961  -19.3417   -4.9272 C   0  0  0  0  0  0  0  0  0  0  0  0
   28.6279  -19.0093   -5.0083 C   0  0  0  0  0  0  0  0  0  0  0  0
   29.4024  -19.5814   -5.9924 C   0  0  0  0  0  0  0  0  0  0  0  0
   28.8387  -20.4898   -6.8979 C   0  0  0  0  0  0  0  0  0  0  0  0
   25.9914  -19.7099   -8.5407 C   0  0  0  0  0  0  0  0  0  0  0  0
   24.9273  -19.2549   -7.7410 O   0  0  0  0  0  0  0  0  0  0  0  0
   26.7915  -18.8407   -8.9326 O   0  0  0  0  0  0  0  0  0  0  0  0
  1  2  1  0
  3  4  2  0
  3  2  1  0
  6  5  1  1
  6  8  1  0
  7  6  1  0
  8 10  1  0
  8  9  1  6
  9  3  1  0
 10 12  1  0
 11 10  2  0
 12 13  1  0
 13 21  1  0
 13 14  1  1
 14 15  1  0
 15 16  2  0
 16 17  1  0
 18 17  2  0
 19 18  1  0
 20 19  2  0
 20 15  1  0
 21 23  2  0
 21 22  1  0
M  END
$$$$
