GVF.pdb
     RDKit          3D

 23 23  0  0  1  0  0  0  0  0999 V2000
   22.1148  -32.1563  -16.4700 N   0  0  0  0  0  0  0  0  0  0  0  0
   21.2769  -32.2917  -15.3045 C   0  0  0  0  0  0  0  0  0  0  0  0
   21.8341  -31.5257  -14.1438 C   0  0  0  0  0  0  0  0  0  0  0  0
   22.8615  -30.8256  -14.2880 O   0  0  0  0  0  0  0  0  0  0  0  0
   19.4262  -30.9336  -10.6359 C   0  0  0  0  0  0  0  0  0  0  0  0
   20.5081  -30.0150  -11.1046 C   0  0  1  0  0  0  0  0  0  0  0  0
   20.9819  -29.0381  -10.0825 C   0  0  0  0  0  0  0  0  0  0  0  0
   21.6735  -30.7937  -11.7269 C   0  0  2  0  0  0  0  0  0  0  0  0
   21.2253  -31.5670  -12.8609 N   0  0  0  0  0  0  0  0  0  0  0  0
   22.3664  -31.6252  -10.7121 C   0  0  0  0  0  0  0  0  0  0  0  0
   21.8783  -32.7622  -10.4832 O   0  0  0  0  0  0  0  0  0  0  0  0
   23.5121  -31.2348  -10.0014 N   0  0  0  0  0  0  0  0  0  0  0  0
   24.2428  -32.0710   -9.0728 C   0  0  1  0  0  0  0  0  0  0  0  0
   25.3937  -31.3395   -8.4274 C   0  0  0  0  0  0  0  0  0  0  0  0
   26.2414  -32.2173   -7.5914 C   0  0  0  0  0  0  0  0  0  0  0  0
   27.3167  -32.9349   -8.0630 C   0  0  0  0  0  0  0  0  0  0  0  0
   28.0875  -33.7470   -7.2564 C   0  0  0  0  0  0  0  0  0  0  0  0
   27.7859  -33.8590   -5.9196 C   0  0  0  0  0  0  0  0  0  0  0  0
   26.7166  -33.1552   -5.4128 C   0  0  0  0  0  0  0  0  0  0  0  0
   25.9476  -32.3365   -6.2502 C   0  0  0  0  0  0  0  0  0  0  0  0
   23.3591  -32.5643   -8.0017 C   0  0  0  0  0  0  0  0  0  0  0  0
   23.4487  -33.8877   -7.5330 O   0  0  0  0  0  0  0  0  0  0  0  0
   22.4967  -31.8492   -7.4594 O   0  0  0  0  0  0  0  0  0  0  0  0
  1  2  1  0
  3  4  2  0
  3  2  1  0
  6  5  1  1
  6  8  1  0
  7  6  1  0
  8 10  1  0
  8  9  1  6
  9  3  1  0
 10 12  1  0
 11 10  2  0
 12 13  1  0
 13 21  1  0
 13 14  1  1
 14 15  1  0
 15 16  2  0
 16 17  1  0
 18 17  2  0
 19 18  1  0
 20 19  2  0
 20 15  1  0
 21 23  2  0
 21 22  1  0
M  END
$$$$
