GVF.pdb
     RDKit          3D

 23 23  0  0  1  0  0  0  0  0999 V2000
   20.8064  -21.0631  -13.0143 N   0  0  0  0  0  0  0  0  0  0  0  0
   21.6453  -20.0350  -12.4502 C   0  0  0  0  0  0  0  0  0  0  0  0
   22.7012  -20.6220  -11.5642 C   0  0  0  0  0  0  0  0  0  0  0  0
   22.3766  -21.3162  -10.5747 O   0  0  0  0  0  0  0  0  0  0  0  0
   25.9832  -22.1699  -13.1139 C   0  0  0  0  0  0  0  0  0  0  0  0
   26.3581  -21.3199  -11.9429 C   0  0  1  0  0  0  0  0  0  0  0  0
   27.0979  -20.0727  -12.2901 C   0  0  0  0  0  0  0  0  0  0  0  0
   25.1452  -21.0292  -11.0506 C   0  0  2  0  0  0  0  0  0  0  0  0
   24.0843  -20.4141  -11.8128 N   0  0  0  0  0  0  0  0  0  0  0  0
   25.5312  -20.2250   -9.8651 C   0  0  0  0  0  0  0  0  0  0  0  0
   25.1889  -19.0141   -9.8669 O   0  0  0  0  0  0  0  0  0  0  0  0
   26.2415  -20.7166   -8.7587 N   0  0  0  0  0  0  0  0  0  0  0  0
   26.7280  -19.9142   -7.6564 C   0  0  1  0  0  0  0  0  0  0  0  0
   26.4503  -20.5523   -6.3178 C   0  0  0  0  0  0  0  0  0  0  0  0
   27.5042  -20.2786   -5.3166 C   0  0  0  0  0  0  0  0  0  0  0  0
   28.4108  -21.2126   -4.8698 C   0  0  0  0  0  0  0  0  0  0  0  0
   29.3822  -20.9256   -3.9327 C   0  0  0  0  0  0  0  0  0  0  0  0
   29.4663  -19.6571   -3.4088 C   0  0  0  0  0  0  0  0  0  0  0  0
   28.5755  -18.6967   -3.8327 C   0  0  0  0  0  0  0  0  0  0  0  0
   27.5971  -19.0103   -4.7853 C   0  0  0  0  0  0  0  0  0  0  0  0
   28.1816  -19.6979   -7.7648 C   0  0  0  0  0  0  0  0  0  0  0  0
   29.0137  -20.6358   -8.4028 O   0  0  0  0  0  0  0  0  0  0  0  0
   28.7469  -18.6887   -7.3051 O   0  0  0  0  0  0  0  0  0  0  0  0
  1  2  1  0
  3  4  2  0
  3  2  1  0
  6  5  1  6
  6  8  1  0
  7  6  1  0
  8 10  1  0
  8  9  1  6
  9  3  1  0
 10 12  1  0
 11 10  2  0
 12 13  1  0
 13 21  1  0
 13 14  1  1
 14 15  1  0
 15 16  2  0
 16 17  1  0
 18 17  2  0
 19 18  1  0
 20 19  2  0
 20 15  1  0
 21 23  2  0
 21 22  1  0
M  END
$$$$
