GVF.pdb
     RDKit          3D

 23 23  0  0  1  0  0  0  0  0999 V2000
   21.8434  -13.1870  -19.0092 N   0  0  0  0  0  0  0  0  0  0  0  0
   20.6354  -13.0437  -18.2352 C   0  0  0  0  0  0  0  0  0  0  0  0
   20.3272  -11.6013  -17.9727 C   0  0  0  0  0  0  0  0  0  0  0  0
   20.2845  -10.7852  -18.9207 O   0  0  0  0  0  0  0  0  0  0  0  0
   17.2860  -10.2903  -16.9030 C   0  0  0  0  0  0  0  0  0  0  0  0
   18.2163   -9.7289  -15.8764 C   0  0  1  0  0  0  0  0  0  0  0  0
   18.0723  -10.3210  -14.5155 C   0  0  0  0  0  0  0  0  0  0  0  0
   19.6714   -9.7657  -16.3592 C   0  0  2  0  0  0  0  0  0  0  0  0
   20.0770  -11.1183  -16.6604 N   0  0  0  0  0  0  0  0  0  0  0  0
   20.5767   -9.1058  -15.3864 C   0  0  0  0  0  0  0  0  0  0  0  0
   20.9514   -9.7965  -14.4036 O   0  0  0  0  0  0  0  0  0  0  0  0
   21.0361   -7.7833  -15.4874 N   0  0  0  0  0  0  0  0  0  0  0  0
   22.0092   -7.1691  -14.6092 C   0  0  1  0  0  0  0  0  0  0  0  0
   23.2143   -6.6573  -15.3589 C   0  0  0  0  0  0  0  0  0  0  0  0
   22.8627   -5.7239  -16.4512 C   0  0  0  0  0  0  0  0  0  0  0  0
   22.4339   -6.1161  -17.6986 C   0  0  0  0  0  0  0  0  0  0  0  0
   22.1147   -5.2194  -18.6976 C   0  0  0  0  0  0  0  0  0  0  0  0
   22.2225   -3.8697  -18.4581 C   0  0  0  0  0  0  0  0  0  0  0  0
   22.6485   -3.4407  -17.2212 C   0  0  0  0  0  0  0  0  0  0  0  0
   22.9673   -4.3690  -16.2214 C   0  0  0  0  0  0  0  0  0  0  0  0
   21.4153   -6.0377  -13.8754 C   0  0  0  0  0  0  0  0  0  0  0  0
   20.1280   -5.5621  -14.1848 O   0  0  0  0  0  0  0  0  0  0  0  0
   22.0096   -5.4477  -12.9546 O   0  0  0  0  0  0  0  0  0  0  0  0
  1  2  1  0
  3  4  2  0
  3  2  1  0
  6  5  1  6
  6  8  1  0
  7  6  1  0
  8 10  1  0
  8  9  1  1
  9  3  1  0
 10 12  1  0
 11 10  2  0
 12 13  1  0
 13 21  1  0
 13 14  1  6
 14 15  1  0
 15 16  2  0
 16 17  1  0
 18 17  2  0
 19 18  1  0
 20 19  2  0
 20 15  1  0
 21 23  2  0
 21 22  1  0
M  END
$$$$
