GVF.pdb
     RDKit          3D

 23 23  0  0  1  0  0  0  0  0999 V2000
   29.1074  -19.1055  -15.7913 N   0  0  0  0  0  0  0  0  0  0  0  0
   28.9523  -20.0694  -14.7303 C   0  0  0  0  0  0  0  0  0  0  0  0
   27.9920  -19.5807  -13.6895 C   0  0  0  0  0  0  0  0  0  0  0  0
   27.5590  -18.4073  -13.7354 O   0  0  0  0  0  0  0  0  0  0  0  0
   25.2208  -22.1944  -12.8834 C   0  0  0  0  0  0  0  0  0  0  0  0
   25.1153  -20.7241  -12.6358 C   0  0  1  0  0  0  0  0  0  0  0  0
   23.8395  -20.2901  -11.9974 C   0  0  0  0  0  0  0  0  0  0  0  0
   26.3377  -20.1949  -11.8759 C   0  0  2  0  0  0  0  0  0  0  0  0
   27.5472  -20.4187  -12.6321 N   0  0  0  0  0  0  0  0  0  0  0  0
   26.4097  -20.7676  -10.5091 C   0  0  0  0  0  0  0  0  0  0  0  0
   26.7346  -21.9800  -10.4200 O   0  0  0  0  0  0  0  0  0  0  0  0
   26.1438  -20.0588   -9.3271 N   0  0  0  0  0  0  0  0  0  0  0  0
   26.0670  -20.6417   -8.0044 C   0  0  1  0  0  0  0  0  0  0  0  0
   26.2315  -19.6116   -6.9144 C   0  0  0  0  0  0  0  0  0  0  0  0
   27.5442  -19.6902   -6.2372 C   0  0  0  0  0  0  0  0  0  0  0  0
   27.8410  -20.5689   -5.2206 C   0  0  0  0  0  0  0  0  0  0  0  0
   29.0764  -20.6162   -4.6077 C   0  0  0  0  0  0  0  0  0  0  0  0
   30.0695  -19.7567   -5.0149 C   0  0  0  0  0  0  0  0  0  0  0  0
   29.8082  -18.8637   -6.0297 C   0  0  0  0  0  0  0  0  0  0  0  0
   28.5464  -18.8331   -6.6378 C   0  0  0  0  0  0  0  0  0  0  0  0
   24.7730  -21.3166   -7.8013 C   0  0  0  0  0  0  0  0  0  0  0  0
   24.6170  -22.3180   -6.8256 O   0  0  0  0  0  0  0  0  0  0  0  0
   23.7600  -21.0432   -8.4710 O   0  0  0  0  0  0  0  0  0  0  0  0
  1  2  1  0
  3  4  2  0
  3  2  1  0
  6  5  1  1
  6  8  1  0
  7  6  1  0
  8 10  1  0
  8  9  1  6
  9  3  1  0
 10 12  1  0
 11 10  2  0
 12 13  1  0
 13 21  1  0
 13 14  1  1
 14 15  1  0
 15 16  2  0
 16 17  1  0
 18 17  2  0
 19 18  1  0
 20 19  2  0
 20 15  1  0
 21 23  2  0
 21 22  1  0
M  END
$$$$
