GVF.pdb
     RDKit          3D

 23 23  0  0  1  0  0  0  0  0999 V2000
   21.6316  -20.8421  -12.7885 N   0  0  0  0  0  0  0  0  0  0  0  0
   22.7604  -19.9471  -12.8486 C   0  0  0  0  0  0  0  0  0  0  0  0
   24.0521  -20.6931  -12.7102 C   0  0  0  0  0  0  0  0  0  0  0  0
   24.0466  -21.9334  -12.5419 O   0  0  0  0  0  0  0  0  0  0  0  0
   27.5244  -19.5957  -14.6363 C   0  0  0  0  0  0  0  0  0  0  0  0
   27.7160  -19.8381  -13.1738 C   0  0  1  0  0  0  0  0  0  0  0  0
   27.9515  -18.6083  -12.3643 C   0  0  0  0  0  0  0  0  0  0  0  0
   26.5799  -20.6892  -12.5936 C   0  0  2  0  0  0  0  0  0  0  0  0
   25.3070  -20.0293  -12.7643 N   0  0  0  0  0  0  0  0  0  0  0  0
   26.8467  -21.0486  -11.1790 C   0  0  0  0  0  0  0  0  0  0  0  0
   27.9355  -21.6320  -10.9390 O   0  0  0  0  0  0  0  0  0  0  0  0
   25.9796  -20.7855  -10.1071 N   0  0  0  0  0  0  0  0  0  0  0  0
   26.3378  -20.8610   -8.7066 C   0  0  1  0  0  0  0  0  0  0  0  0
   27.1260  -19.6577   -8.2516 C   0  0  0  0  0  0  0  0  0  0  0  0
   27.5131  -19.7249   -6.8255 C   0  0  0  0  0  0  0  0  0  0  0  0
   27.0714  -20.6872   -5.9465 C   0  0  0  0  0  0  0  0  0  0  0  0
   27.4505  -20.7213   -4.6202 C   0  0  0  0  0  0  0  0  0  0  0  0
   28.3067  -19.7615   -4.1340 C   0  0  0  0  0  0  0  0  0  0  0  0
   28.7690  -18.7830   -4.9850 C   0  0  0  0  0  0  0  0  0  0  0  0
   28.3708  -18.7676   -6.3282 C   0  0  0  0  0  0  0  0  0  0  0  0
   25.1355  -20.9638   -7.8609 C   0  0  0  0  0  0  0  0  0  0  0  0
   25.1502  -21.6903   -6.6563 O   0  0  0  0  0  0  0  0  0  0  0  0
   24.0554  -20.4222   -8.1597 O   0  0  0  0  0  0  0  0  0  0  0  0
  1  2  1  0
  3  4  2  0
  3  2  1  0
  6  5  1  6
  6  8  1  0
  7  6  1  0
  8 10  1  0
  8  9  1  1
  9  3  1  0
 10 12  1  0
 11 10  2  0
 12 13  1  0
 13 21  1  0
 13 14  1  1
 14 15  1  0
 15 16  2  0
 16 17  1  0
 18 17  2  0
 19 18  1  0
 20 19  2  0
 20 15  1  0
 21 23  2  0
 21 22  1  0
M  END
$$$$
