GVF.pdb
     RDKit          3D

 23 23  0  0  1  0  0  0  0  0999 V2000
   18.4392  -12.8648  -17.6477 N   0  0  0  0  0  0  0  0  0  0  0  0
   19.5948  -12.0481  -17.9244 C   0  0  0  0  0  0  0  0  0  0  0  0
   19.6968  -10.9075  -16.9585 C   0  0  0  0  0  0  0  0  0  0  0  0
   18.6792  -10.2411  -16.6633 O   0  0  0  0  0  0  0  0  0  0  0  0
   22.9425  -10.9316  -14.7643 C   0  0  0  0  0  0  0  0  0  0  0  0
   22.2950   -9.6012  -14.5516 C   0  0  1  0  0  0  0  0  0  0  0  0
   23.2320   -8.4416  -14.5758 C   0  0  0  0  0  0  0  0  0  0  0  0
   21.1129   -9.3945  -15.5065 C   0  0  2  0  0  0  0  0  0  0  0  0
   20.9315  -10.5490  -16.3545 N   0  0  0  0  0  0  0  0  0  0  0  0
   21.2631   -8.1391  -16.2829 C   0  0  0  0  0  0  0  0  0  0  0  0
   21.9366   -8.2068  -17.3436 O   0  0  0  0  0  0  0  0  0  0  0  0
   20.7127   -6.9001  -15.9192 N   0  0  0  0  0  0  0  0  0  0  0  0
   20.8182   -5.6812  -16.6929 C   0  0  1  0  0  0  0  0  0  0  0  0
   19.9872   -5.7282  -17.9512 C   0  0  0  0  0  0  0  0  0  0  0  0
   18.5329   -5.7630  -17.6833 C   0  0  0  0  0  0  0  0  0  0  0  0
   17.8053   -4.6942  -17.2118 C   0  0  0  0  0  0  0  0  0  0  0  0
   16.4483   -4.7596  -16.9705 C   0  0  0  0  0  0  0  0  0  0  0  0
   15.7730   -5.9343  -17.2044 C   0  0  0  0  0  0  0  0  0  0  0  0
   16.4688   -7.0245  -17.6764 C   0  0  0  0  0  0  0  0  0  0  0  0
   17.8466   -6.9356  -17.9145 C   0  0  0  0  0  0  0  0  0  0  0  0
   20.3815   -4.5169  -15.9023 C   0  0  0  0  0  0  0  0  0  0  0  0
   20.5585   -3.2044  -16.3767 O   0  0  0  0  0  0  0  0  0  0  0  0
   19.8396   -4.6269  -14.7871 O   0  0  0  0  0  0  0  0  0  0  0  0
  1  2  1  0
  3  4  2  0
  3  2  1  0
  6  5  1  6
  6  8  1  0
  7  6  1  0
  8 10  1  0
  8  9  1  6
  9  3  1  0
 10 12  1  0
 11 10  2  0
 12 13  1  0
 13 21  1  0
 13 14  1  6
 14 15  1  0
 15 16  2  0
 16 17  1  0
 18 17  2  0
 19 18  1  0
 20 19  2  0
 20 15  1  0
 21 23  2  0
 21 22  1  0
M  END
$$$$
