GVF.pdb
     RDKit          3D

 23 23  0  0  1  0  0  0  0  0999 V2000
   30.2446  -17.8885  -15.9280 N   0  0  0  0  0  0  0  0  0  0  0  0
   29.2299  -18.9127  -15.9144 C   0  0  0  0  0  0  0  0  0  0  0  0
   28.2121  -18.6539  -14.8460 C   0  0  0  0  0  0  0  0  0  0  0  0
   27.9640  -17.4813  -14.4852 O   0  0  0  0  0  0  0  0  0  0  0  0
   25.2669  -21.1935  -15.3417 C   0  0  0  0  0  0  0  0  0  0  0  0
   25.1118  -19.8389  -14.7290 C   0  0  1  0  0  0  0  0  0  0  0  0
   23.7418  -19.5371  -14.2236 C   0  0  0  0  0  0  0  0  0  0  0  0
   26.1797  -19.5826  -13.6587 C   0  0  2  0  0  0  0  0  0  0  0  0
   27.5052  -19.7130  -14.2162 N   0  0  0  0  0  0  0  0  0  0  0  0
   25.9742  -20.4541  -12.4756 C   0  0  0  0  0  0  0  0  0  0  0  0
   26.3496  -21.6504  -12.5820 O   0  0  0  0  0  0  0  0  0  0  0  0
   25.3981  -20.0401  -11.2645 N   0  0  0  0  0  0  0  0  0  0  0  0
   25.0429  -20.9154  -10.1677 C   0  0  1  0  0  0  0  0  0  0  0  0
   25.2577  -20.2649   -8.8235 C   0  0  0  0  0  0  0  0  0  0  0  0
   26.6852  -20.1726   -8.4468 C   0  0  0  0  0  0  0  0  0  0  0  0
   27.6381  -21.1064   -8.7837 C   0  0  0  0  0  0  0  0  0  0  0  0
   28.9630  -20.9918   -8.4152 C   0  0  0  0  0  0  0  0  0  0  0  0
   29.3711  -19.9046   -7.6789 C   0  0  0  0  0  0  0  0  0  0  0  0
   28.4447  -18.9500   -7.3237 C   0  0  0  0  0  0  0  0  0  0  0  0
   27.1045  -19.0868   -7.7087 C   0  0  0  0  0  0  0  0  0  0  0  0
   23.6293  -21.3220  -10.2558 C   0  0  0  0  0  0  0  0  0  0  0  0
   23.1196  -22.3674   -9.4643 O   0  0  0  0  0  0  0  0  0  0  0  0
   22.8185  -20.7722  -11.0236 O   0  0  0  0  0  0  0  0  0  0  0  0
  1  2  1  0
  3  4  2  0
  3  2  1  0
  6  5  1  1
  6  8  1  0
  7  6  1  0
  8 10  1  0
  8  9  1  6
  9  3  1  0
 10 12  1  0
 11 10  2  0
 12 13  1  0
 13 21  1  0
 13 14  1  1
 14 15  1  0
 15 16  2  0
 16 17  1  0
 18 17  2  0
 19 18  1  0
 20 19  2  0
 20 15  1  0
 21 23  2  0
 21 22  1  0
M  END
$$$$
