GVF.pdb
     RDKit          3D

 23 23  0  0  1  0  0  0  0  0999 V2000
   26.5281  -20.6200  -16.5605 N   0  0  0  0  0  0  0  0  0  0  0  0
   27.4766  -20.4786  -15.4838 C   0  0  0  0  0  0  0  0  0  0  0  0
   26.8193  -19.9431  -14.2486 C   0  0  0  0  0  0  0  0  0  0  0  0
   26.6251  -18.7131  -14.1231 O   0  0  0  0  0  0  0  0  0  0  0  0
   23.4782  -20.3051  -13.3518 C   0  0  0  0  0  0  0  0  0  0  0  0
   24.1793  -20.8783  -12.1625 C   0  0  1  0  0  0  0  0  0  0  0  0
   24.1157  -22.3644  -12.0585 C   0  0  0  0  0  0  0  0  0  0  0  0
   25.6206  -20.3644  -12.0604 C   0  0  2  0  0  0  0  0  0  0  0  0
   26.4009  -20.7991  -13.1949 N   0  0  0  0  0  0  0  0  0  0  0  0
   26.2376  -20.7496  -10.7672 C   0  0  0  0  0  0  0  0  0  0  0  0
   26.8063  -21.8712  -10.7233 O   0  0  0  0  0  0  0  0  0  0  0  0
   26.2296  -19.9590   -9.6074 N   0  0  0  0  0  0  0  0  0  0  0  0
   26.8390  -20.3228   -8.3458 C   0  0  1  0  0  0  0  0  0  0  0  0
   27.6129  -19.1814   -7.7337 C   0  0  0  0  0  0  0  0  0  0  0  0
   28.2226  -19.5283   -6.4314 C   0  0  0  0  0  0  0  0  0  0  0  0
   29.3483  -20.3060   -6.2847 C   0  0  0  0  0  0  0  0  0  0  0  0
   29.8919  -20.6129   -5.0541 C   0  0  0  0  0  0  0  0  0  0  0  0
   29.2991  -20.1310   -3.9108 C   0  0  0  0  0  0  0  0  0  0  0  0
   28.1710  -19.3493   -4.0195 C   0  0  0  0  0  0  0  0  0  0  0  0
   27.6361  -19.0503   -5.2794 C   0  0  0  0  0  0  0  0  0  0  0  0
   25.8188  -20.7539   -7.3738 C   0  0  0  0  0  0  0  0  0  0  0  0
   26.1352  -21.6401   -6.3280 O   0  0  0  0  0  0  0  0  0  0  0  0
   24.6376  -20.3646   -7.4221 O   0  0  0  0  0  0  0  0  0  0  0  0
  1  2  1  0
  3  4  2  0
  3  2  1  0
  6  5  1  6
  6  8  1  0
  7  6  1  0
  8 10  1  0
  8  9  1  6
  9  3  1  0
 10 12  1  0
 11 10  2  0
 12 13  1  0
 13 21  1  0
 13 14  1  1
 14 15  1  0
 15 16  2  0
 16 17  1  0
 18 17  2  0
 19 18  1  0
 20 19  2  0
 20 15  1  0
 21 23  2  0
 21 22  1  0
M  END
$$$$
