GVF.pdb
     RDKit          3D

 23 23  0  0  1  0  0  0  0  0999 V2000
   38.3587    1.2573   -8.8271 N   0  0  0  0  0  0  0  0  0  0  0  0
   37.3971    0.2138   -8.5713 C   0  0  0  0  0  0  0  0  0  0  0  0
   36.0253    0.6193   -9.0163 C   0  0  0  0  0  0  0  0  0  0  0  0
   35.4997    1.6607   -8.5628 O   0  0  0  0  0  0  0  0  0  0  0  0
   33.6209   -2.2727  -11.0523 C   0  0  0  0  0  0  0  0  0  0  0  0
   33.4491   -0.8353  -11.4245 C   0  0  1  0  0  0  0  0  0  0  0  0
   32.0877   -0.4778  -11.9166 C   0  0  0  0  0  0  0  0  0  0  0  0
   33.9047    0.0946  -10.2933 C   0  0  2  0  0  0  0  0  0  0  0  0
   35.2861   -0.1517   -9.9529 N   0  0  0  0  0  0  0  0  0  0  0  0
   33.0045   -0.0081   -9.1183 C   0  0  0  0  0  0  0  0  0  0  0  0
   33.3039   -0.8677   -8.2495 O   0  0  0  0  0  0  0  0  0  0  0  0
   31.8592    0.7771   -8.9141 N   0  0  0  0  0  0  0  0  0  0  0  0
   31.0581    0.7860   -7.7084 C   0  0  1  0  0  0  0  0  0  0  0  0
   31.8405    1.2501   -6.5047 C   0  0  0  0  0  0  0  0  0  0  0  0
   31.0346    1.2736   -5.2646 C   0  0  0  0  0  0  0  0  0  0  0  0
   30.5353    2.4178   -4.6857 C   0  0  0  0  0  0  0  0  0  0  0  0
   29.7873    2.4061   -3.5262 C   0  0  0  0  0  0  0  0  0  0  0  0
   29.5167    1.2095   -2.9051 C   0  0  0  0  0  0  0  0  0  0  0  0
   30.0003    0.0442   -3.4561 C   0  0  0  0  0  0  0  0  0  0  0  0
   30.7578    0.0797   -4.6342 C   0  0  0  0  0  0  0  0  0  0  0  0
   29.8892    1.6703   -7.8600 C   0  0  0  0  0  0  0  0  0  0  0  0
   28.6330    1.3162   -7.3349 O   0  0  0  0  0  0  0  0  0  0  0  0
   29.9460    2.7637   -8.4520 O   0  0  0  0  0  0  0  0  0  0  0  0
  1  2  1  0
  3  4  2  0
  3  2  1  0
  6  5  1  1
  6  8  1  0
  7  6  1  0
  8 10  1  0
  8  9  1  1
  9  3  1  0
 10 12  1  0
 11 10  2  0
 12 13  1  0
 13 21  1  0
 13 14  1  1
 14 15  1  0
 15 16  2  0
 16 17  1  0
 18 17  2  0
 19 18  1  0
 20 19  2  0
 20 15  1  0
 21 23  2  0
 21 22  1  0
M  END
$$$$
