NMG.pdb
     RDKit          3D

 21 20  0  0  1  0  0  0  0  0999 V2000
   20.2004  -22.1845  -13.6845 N   0  0  0  0  0  0  0  0  0  0  0  0
   20.4475  -21.3956  -12.5300 C   0  0  0  0  0  0  0  0  0  0  0  0
   19.6818  -21.5605  -11.5482 O   0  0  0  0  0  0  0  0  0  0  0  0
   21.5692  -20.4104  -12.4816 C   0  0  0  0  0  0  0  0  0  0  0  0
   22.3031  -20.4828  -13.7829 C   0  0  2  0  0  0  0  0  0  0  0  0
   22.6181  -21.8313  -14.1322 N   0  0  0  0  0  0  0  0  0  0  0  0
   23.4828  -19.5802  -13.8327 C   0  0  0  0  0  0  0  0  0  0  0  0
   23.3449  -18.3415  -13.5887 O   0  0  0  0  0  0  0  0  0  0  0  0
   26.3882  -22.2856  -11.6190 C   0  0  0  0  0  0  0  0  0  0  0  0
   26.3287  -20.6612  -10.8175 S   0  0  0  0  0  0  0  0  0  0  0  0
   27.0031  -19.3883  -11.8956 C   0  0  0  0  0  0  0  0  0  0  0  0
   26.9627  -19.6987  -13.3327 C   0  0  0  0  0  0  0  0  0  0  0  0
   25.9472  -19.0991  -14.2133 C   0  0  2  0  0  0  0  0  0  0  0  0
   24.7833  -20.0377  -14.1455 N   0  0  0  0  0  0  0  0  0  0  0  0
   26.2882  -18.8690  -15.6259 C   0  0  0  0  0  0  0  0  0  0  0  0
   26.2753  -19.7728  -16.4842 O   0  0  0  0  0  0  0  0  0  0  0  0
   26.6610  -17.5776  -16.1094 N   0  0  0  0  0  0  0  0  0  0  0  0
   26.7629  -17.2527  -17.5173 C   0  0  0  0  0  0  0  0  0  0  0  0
   28.0075  -17.6996  -18.1260 C   0  0  0  0  0  0  0  0  0  0  0  0
   28.1935  -17.5682  -19.3529 O   0  0  0  0  0  0  0  0  0  0  0  0
   28.9997  -18.2741  -17.3609 O   0  0  0  0  0  0  0  0  0  0  0  0
  2  1  1  0
  2  3  2  0
  4  2  1  0
  5  4  1  0
  5  6  1  1
  7 14  1  0
  7  5  1  0
  8  7  2  0
 10  9  1  0
 10 11  1  0
 11 12  1  0
 13 12  1  1
 13 14  1  0
 13 15  1  0
 15 17  1  0
 15 16  2  0
 17 18  1  0
 18 19  1  0
 19 21  1  0
 20 19  2  0
M  END
$$$$
