NMG.pdb
     RDKit          3D

 21 20  0  0  1  0  0  0  0  0999 V2000
   29.1524  -21.6595  -17.3411 N   0  0  0  0  0  0  0  0  0  0  0  0
   28.1384  -20.8596  -16.7510 C   0  0  0  0  0  0  0  0  0  0  0  0
   28.1376  -19.6355  -17.0317 O   0  0  0  0  0  0  0  0  0  0  0  0
   27.1145  -21.4457  -15.8347 C   0  0  0  0  0  0  0  0  0  0  0  0
   27.0265  -20.5730  -14.6231 C   0  0  2  0  0  0  0  0  0  0  0  0
   28.3161  -20.3225  -14.0632 N   0  0  0  0  0  0  0  0  0  0  0  0
   26.0463  -21.0698  -13.6224 C   0  0  0  0  0  0  0  0  0  0  0  0
   25.3563  -22.1068  -13.8705 O   0  0  0  0  0  0  0  0  0  0  0  0
   26.5864  -19.2455   -7.5391 C   0  0  0  0  0  0  0  0  0  0  0  0
   27.3097  -20.8352   -8.0235 S   0  0  0  0  0  0  0  0  0  0  0  0
   26.6681  -21.3738   -9.6159 C   0  0  0  0  0  0  0  0  0  0  0  0
   25.4555  -20.6768  -10.0708 C   0  0  0  0  0  0  0  0  0  0  0  0
   24.8547  -20.9703  -11.3820 C   0  0  2  0  0  0  0  0  0  0  0  0
   25.8348  -20.4338  -12.3778 N   0  0  0  0  0  0  0  0  0  0  0  0
   23.5235  -20.4216  -11.6848 C   0  0  0  0  0  0  0  0  0  0  0  0
   23.3537  -19.3372  -12.2755 O   0  0  0  0  0  0  0  0  0  0  0  0
   22.3255  -21.1062  -11.3155 N   0  0  0  0  0  0  0  0  0  0  0  0
   20.9985  -20.5958  -11.5921 C   0  0  0  0  0  0  0  0  0  0  0  0
   20.4670  -21.0302  -12.8759 C   0  0  0  0  0  0  0  0  0  0  0  0
   21.2228  -21.5207  -13.7391 O   0  0  0  0  0  0  0  0  0  0  0  0
   19.1238  -20.9079  -13.1603 O   0  0  0  0  0  0  0  0  0  0  0  0
  2  1  1  0
  2  3  2  0
  4  2  1  0
  5  4  1  0
  5  6  1  1
  7 14  1  0
  7  5  1  0
  8  7  2  0
 10  9  1  0
 10 11  1  0
 11 12  1  0
 13 12  1  1
 13 14  1  0
 13 15  1  0
 15 17  1  0
 15 16  2  0
 17 18  1  0
 18 19  1  0
 19 21  1  0
 20 19  2  0
M  END
$$$$
