NMG.pdb
     RDKit          3D

 21 20  0  0  1  0  0  0  0  0999 V2000
   28.5185  -18.8633  -17.9160 N   0  0  0  0  0  0  0  0  0  0  0  0
   29.2229  -19.9116  -17.2672 C   0  0  0  0  0  0  0  0  0  0  0  0
   30.3800  -20.1682  -17.6828 O   0  0  0  0  0  0  0  0  0  0  0  0
   28.6168  -20.6790  -16.1379 C   0  0  0  0  0  0  0  0  0  0  0  0
   27.3066  -20.0424  -15.7985 C   0  0  2  0  0  0  0  0  0  0  0  0
   27.4613  -18.6558  -15.4937 N   0  0  0  0  0  0  0  0  0  0  0  0
   26.5559  -20.7858  -14.7532 C   0  0  0  0  0  0  0  0  0  0  0  0
   27.1082  -21.7520  -14.1414 O   0  0  0  0  0  0  0  0  0  0  0  0
   27.8711  -21.4047  -10.0960 C   0  0  0  0  0  0  0  0  0  0  0  0
   26.2870  -20.8178   -9.4395 S   0  0  0  0  0  0  0  0  0  0  0  0
   24.9894  -20.9517  -10.6787 C   0  0  0  0  0  0  0  0  0  0  0  0
   25.4193  -20.7108  -12.0644 C   0  0  0  0  0  0  0  0  0  0  0  0
   24.5673  -21.0897  -13.2032 C   0  0  2  0  0  0  0  0  0  0  0  0
   25.2260  -20.4676  -14.3944 N   0  0  0  0  0  0  0  0  0  0  0  0
   23.1505  -20.6931  -13.1846 C   0  0  0  0  0  0  0  0  0  0  0  0
   22.7767  -19.5048  -13.2280 O   0  0  0  0  0  0  0  0  0  0  0  0
   22.0997  -21.6581  -13.1145 N   0  0  0  0  0  0  0  0  0  0  0  0
   20.6953  -21.3149  -13.2031 C   0  0  0  0  0  0  0  0  0  0  0  0
   20.0530  -21.1649  -11.9053 C   0  0  0  0  0  0  0  0  0  0  0  0
   20.7114  -21.3051  -10.8546 O   0  0  0  0  0  0  0  0  0  0  0  0
   18.7104  -20.8664  -11.8137 O   0  0  0  0  0  0  0  0  0  0  0  0
  2  1  1  0
  2  3  2  0
  4  2  1  0
  5  4  1  0
  5  6  1  1
  7 14  1  0
  7  5  1  0
  8  7  2  0
 10  9  1  0
 10 11  1  0
 11 12  1  0
 13 12  1  1
 13 14  1  0
 13 15  1  0
 15 17  1  0
 15 16  2  0
 17 18  1  0
 18 19  1  0
 19 21  1  0
 20 19  2  0
M  END
$$$$
