NMG.pdb
     RDKit          3D

 21 20  0  0  1  0  0  0  0  0999 V2000
   15.8274  -12.4188  -16.9950 N   0  0  0  0  0  0  0  0  0  0  0  0
   17.0087  -11.7640  -17.4331 C   0  0  0  0  0  0  0  0  0  0  0  0
   17.1714  -11.6433  -18.6726 O   0  0  0  0  0  0  0  0  0  0  0  0
   18.0173  -11.2397  -16.4640 C   0  0  0  0  0  0  0  0  0  0  0  0
   19.3614  -11.7505  -16.8758 C   0  0  2  0  0  0  0  0  0  0  0  0
   19.4481  -13.1691  -16.7358 N   0  0  0  0  0  0  0  0  0  0  0  0
   20.4811  -11.0328  -16.2122 C   0  0  0  0  0  0  0  0  0  0  0  0
   20.6933  -11.1972  -14.9709 O   0  0  0  0  0  0  0  0  0  0  0  0
   26.2573  -10.1888  -14.3784 C   0  0  0  0  0  0  0  0  0  0  0  0
   26.1182  -10.3689  -16.1764 S   0  0  0  0  0  0  0  0  0  0  0  0
   24.9720   -9.1599  -16.8559 C   0  0  0  0  0  0  0  0  0  0  0  0
   23.6305   -9.6753  -17.1688 C   0  0  0  0  0  0  0  0  0  0  0  0
   22.5112   -9.5071  -16.2280 C   0  0  2  0  0  0  0  0  0  0  0  0
   21.3442  -10.1541  -16.9060 N   0  0  0  0  0  0  0  0  0  0  0  0
   22.1291   -8.1445  -15.8253 C   0  0  0  0  0  0  0  0  0  0  0  0
   21.5382   -7.3519  -16.5845 O   0  0  0  0  0  0  0  0  0  0  0  0
   22.4154   -7.6370  -14.5212 N   0  0  0  0  0  0  0  0  0  0  0  0
   22.1558   -6.2685  -14.1239 C   0  0  0  0  0  0  0  0  0  0  0  0
   22.9987   -5.2975  -14.8066 C   0  0  0  0  0  0  0  0  0  0  0  0
   23.9691   -5.6760  -15.4938 O   0  0  0  0  0  0  0  0  0  0  0  0
   22.7412   -3.9471  -14.7066 O   0  0  0  0  0  0  0  0  0  0  0  0
  2  1  1  0
  2  3  2  0
  4  2  1  0
  5  4  1  0
  5  6  1  1
  7 14  1  0
  7  5  1  0
  8  7  2  0
 10  9  1  0
 10 11  1  0
 11 12  1  0
 13 12  1  6
 13 14  1  0
 13 15  1  0
 15 17  1  0
 15 16  2  0
 17 18  1  0
 18 19  1  0
 19 21  1  0
 20 19  2  0
M  END
$$$$
