NMG.pdb
     RDKit          3D

 21 20  0  0  1  0  0  0  0  0999 V2000
   18.6839  -21.6237  -11.4697 N   0  0  0  0  0  0  0  0  0  0  0  0
   19.5139  -20.7754  -12.2492 C   0  0  0  0  0  0  0  0  0  0  0  0
   19.0846  -20.4336  -13.3790 O   0  0  0  0  0  0  0  0  0  0  0  0
   20.8417  -20.3072  -11.7502 C   0  0  0  0  0  0  0  0  0  0  0  0
   21.8868  -20.7735  -12.7132 C   0  0  2  0  0  0  0  0  0  0  0  0
   21.8329  -22.1883  -12.9002 N   0  0  0  0  0  0  0  0  0  0  0  0
   23.2482  -20.2852  -12.3707 C   0  0  0  0  0  0  0  0  0  0  0  0
   23.4921  -19.0388  -12.3634 O   0  0  0  0  0  0  0  0  0  0  0  0
   26.6633  -19.6578   -6.5368 C   0  0  0  0  0  0  0  0  0  0  0  0
   26.7426  -20.8792   -7.8735 S   0  0  0  0  0  0  0  0  0  0  0  0
   26.1373  -20.1813   -9.4175 C   0  0  0  0  0  0  0  0  0  0  0  0
   26.1384  -21.1023  -10.5642 C   0  0  0  0  0  0  0  0  0  0  0  0
   25.7165  -20.6546  -11.9013 C   0  0  2  0  0  0  0  0  0  0  0  0
   24.3134  -21.1555  -12.0447 N   0  0  0  0  0  0  0  0  0  0  0  0
   26.4973  -21.0926  -13.0689 C   0  0  0  0  0  0  0  0  0  0  0  0
   26.3501  -22.2081  -13.6054 O   0  0  0  0  0  0  0  0  0  0  0  0
   27.4870  -20.2558  -13.6693 N   0  0  0  0  0  0  0  0  0  0  0  0
   28.3349  -20.6831  -14.7632 C   0  0  0  0  0  0  0  0  0  0  0  0
   27.7582  -20.4300  -16.0757 C   0  0  0  0  0  0  0  0  0  0  0  0
   26.5476  -20.1499  -16.1904 O   0  0  0  0  0  0  0  0  0  0  0  0
   28.5361  -20.4949  -17.2117 O   0  0  0  0  0  0  0  0  0  0  0  0
  2  1  1  0
  2  3  2  0
  4  2  1  0
  5  4  1  0
  5  6  1  1
  7 14  1  0
  7  5  1  0
  8  7  2  0
 10  9  1  0
 10 11  1  0
 11 12  1  0
 13 12  1  1
 13 14  1  0
 13 15  1  0
 15 17  1  0
 15 16  2  0
 17 18  1  0
 18 19  1  0
 19 21  1  0
 20 19  2  0
M  END
$$$$
