NMG.pdb
     RDKit          3D

 21 20  0  0  1  0  0  0  0  0999 V2000
   28.4846  -17.3975  -16.2042 N   0  0  0  0  0  0  0  0  0  0  0  0
   27.0897  -17.4086  -15.9395 C   0  0  0  0  0  0  0  0  0  0  0  0
   26.3946  -16.5182  -16.4886 O   0  0  0  0  0  0  0  0  0  0  0  0
   26.4715  -18.4341  -15.0465 C   0  0  0  0  0  0  0  0  0  0  0  0
   27.5737  -19.2477  -14.4462 C   0  0  2  0  0  0  0  0  0  0  0  0
   28.4354  -19.7843  -15.4507 N   0  0  0  0  0  0  0  0  0  0  0  0
   27.0805  -20.2774  -13.4947 C   0  0  0  0  0  0  0  0  0  0  0  0
   27.3770  -21.4995  -13.6722 O   0  0  0  0  0  0  0  0  0  0  0  0
   27.1796  -19.2107   -7.6282 C   0  0  0  0  0  0  0  0  0  0  0  0
   25.9794  -20.5428   -7.3636 S   0  0  0  0  0  0  0  0  0  0  0  0
   25.3643  -21.1736   -8.9323 C   0  0  0  0  0  0  0  0  0  0  0  0
   25.7898  -20.4191  -10.1210 C   0  0  0  0  0  0  0  0  0  0  0  0
   25.7567  -21.0268  -11.4611 C   0  0  2  0  0  0  0  0  0  0  0  0
   26.2782  -19.9618  -12.3743 N   0  0  0  0  0  0  0  0  0  0  0  0
   24.4685  -21.5092  -11.9834 C   0  0  0  0  0  0  0  0  0  0  0  0
   23.8354  -22.4506  -11.4669 O   0  0  0  0  0  0  0  0  0  0  0  0
   23.8540  -20.9214  -13.1310 N   0  0  0  0  0  0  0  0  0  0  0  0
   22.5684  -21.3413  -13.6496 C   0  0  0  0  0  0  0  0  0  0  0  0
   21.4549  -20.5493  -13.1476 C   0  0  0  0  0  0  0  0  0  0  0  0
   21.5976  -19.3303  -12.9224 O   0  0  0  0  0  0  0  0  0  0  0  0
   20.2268  -21.1295  -12.9126 O   0  0  0  0  0  0  0  0  0  0  0  0
  2  1  1  0
  2  3  2  0
  4  2  1  0
  5  4  1  0
  5  6  1  6
  7 14  1  0
  7  5  1  0
  8  7  2  0
 10  9  1  0
 10 11  1  0
 11 12  1  0
 13 12  1  1
 13 14  1  0
 13 15  1  0
 15 17  1  0
 15 16  2  0
 17 18  1  0
 18 19  1  0
 19 21  1  0
 20 19  2  0
M  END
$$$$
