NMG.pdb
     RDKit          3D

 21 20  0  0  1  0  0  0  0  0999 V2000
   27.0568  -19.3379  -16.2495 N   0  0  0  0  0  0  0  0  0  0  0  0
   28.0257  -20.3074  -15.8786 C   0  0  0  0  0  0  0  0  0  0  0  0
   28.9237  -20.5704  -16.7164 O   0  0  0  0  0  0  0  0  0  0  0  0
   27.9820  -20.9876  -14.5495 C   0  0  0  0  0  0  0  0  0  0  0  0
   26.7530  -20.5239  -13.8342 C   0  0  2  0  0  0  0  0  0  0  0  0
   26.6428  -19.1001  -13.8514 N   0  0  0  0  0  0  0  0  0  0  0  0
   26.6263  -21.0989  -12.4695 C   0  0  0  0  0  0  0  0  0  0  0  0
   26.7125  -22.3545  -12.2994 O   0  0  0  0  0  0  0  0  0  0  0  0
   27.2078  -18.3429   -6.5491 C   0  0  0  0  0  0  0  0  0  0  0  0
   28.0621  -19.9268   -6.7637 S   0  0  0  0  0  0  0  0  0  0  0  0
   27.2527  -20.9277   -8.0208 C   0  0  0  0  0  0  0  0  0  0  0  0
   26.4176  -20.1812   -8.9740 C   0  0  0  0  0  0  0  0  0  0  0  0
   25.7515  -20.8598  -10.0974 C   0  0  2  0  0  0  0  0  0  0  0  0
   26.4089  -20.3033  -11.3214 N   0  0  0  0  0  0  0  0  0  0  0  0
   24.2935  -20.7213  -10.2385 C   0  0  0  0  0  0  0  0  0  0  0  0
   23.4891  -21.0636   -9.3500 O   0  0  0  0  0  0  0  0  0  0  0  0
   23.6998  -20.1786  -11.4189 N   0  0  0  0  0  0  0  0  0  0  0  0
   22.2820  -19.9117  -11.5474 C   0  0  0  0  0  0  0  0  0  0  0  0
   21.5953  -20.8426  -12.4313 C   0  0  0  0  0  0  0  0  0  0  0  0
   22.2122  -21.7983  -12.9444 O   0  0  0  0  0  0  0  0  0  0  0  0
   20.2559  -20.6860  -12.7165 O   0  0  0  0  0  0  0  0  0  0  0  0
  2  1  1  0
  2  3  2  0
  4  2  1  0
  5  4  1  0
  5  6  1  1
  7 14  1  0
  7  5  1  0
  8  7  2  0
 10  9  1  0
 10 11  1  0
 11 12  1  0
 13 12  1  1
 13 14  1  0
 13 15  1  0
 15 17  1  0
 15 16  2  0
 17 18  1  0
 18 19  1  0
 19 21  1  0
 20 19  2  0
M  END
$$$$
