NMG.pdb
     RDKit          3D

 21 20  0  0  1  0  0  0  0  0999 V2000
   18.5910  -13.5228  -19.6050 N   0  0  0  0  0  0  0  0  0  0  0  0
   19.8426  -12.8773  -19.4230 C   0  0  0  0  0  0  0  0  0  0  0  0
   20.6858  -12.9902  -20.3469 O   0  0  0  0  0  0  0  0  0  0  0  0
   20.1471  -12.0964  -18.1866 C   0  0  0  0  0  0  0  0  0  0  0  0
   21.4951  -12.5185  -17.6947 C   0  0  2  0  0  0  0  0  0  0  0  0
   21.4783  -13.8611  -17.2083 N   0  0  0  0  0  0  0  0  0  0  0  0
   22.0841  -11.5579  -16.7256 C   0  0  0  0  0  0  0  0  0  0  0  0
   21.7163  -11.5765  -15.5101 O   0  0  0  0  0  0  0  0  0  0  0  0
   28.1669  -12.8547  -15.1252 C   0  0  0  0  0  0  0  0  0  0  0  0
   27.5214  -11.3731  -15.9454 S   0  0  0  0  0  0  0  0  0  0  0  0
   25.7589  -11.1846  -15.6363 C   0  0  0  0  0  0  0  0  0  0  0  0
   25.1467   -9.9792  -16.2155 C   0  0  0  0  0  0  0  0  0  0  0  0
   23.7056   -9.7145  -16.0760 C   0  0  2  0  0  0  0  0  0  0  0  0
   23.0563  -10.5997  -17.0933 N   0  0  0  0  0  0  0  0  0  0  0  0
   23.2212   -8.3384  -16.2675 C   0  0  0  0  0  0  0  0  0  0  0  0
   23.1386   -7.7966  -17.3870 O   0  0  0  0  0  0  0  0  0  0  0  0
   22.8096   -7.5255  -15.1675 N   0  0  0  0  0  0  0  0  0  0  0  0
   22.3204   -6.1704  -15.3171 C   0  0  0  0  0  0  0  0  0  0  0  0
   21.9033   -5.5635  -14.0613 C   0  0  0  0  0  0  0  0  0  0  0  0
   21.8653   -6.2410  -13.0141 O   0  0  0  0  0  0  0  0  0  0  0  0
   21.5440   -4.2339  -14.0063 O   0  0  0  0  0  0  0  0  0  0  0  0
  2  1  1  0
  2  3  2  0
  4  2  1  0
  5  4  1  0
  5  6  1  1
  7 14  1  0
  7  5  1  0
  8  7  2  0
 10  9  1  0
 10 11  1  0
 11 12  1  0
 13 12  1  6
 13 14  1  0
 13 15  1  0
 15 17  1  0
 15 16  2  0
 17 18  1  0
 18 19  1  0
 19 21  1  0
 20 19  2  0
M  END
$$$$
