NMG.pdb
     RDKit          3D

 21 20  0  0  1  0  0  0  0  0999 V2000
   21.0479   -8.4598  -14.6382 N   0  0  0  0  0  0  0  0  0  0  0  0
   20.4415   -8.6621  -13.3703 C   0  0  0  0  0  0  0  0  0  0  0  0
   20.9469   -9.5387  -12.6263 O   0  0  0  0  0  0  0  0  0  0  0  0
   19.2531   -7.8680  -12.9363 C   0  0  0  0  0  0  0  0  0  0  0  0
   18.2796   -8.8067  -12.2972 C   0  0  2  0  0  0  0  0  0  0  0  0
   17.8801   -9.8403  -13.1980 N   0  0  0  0  0  0  0  0  0  0  0  0
   17.1282   -8.1071  -11.6697 C   0  0  0  0  0  0  0  0  0  0  0  0
   16.1829   -7.6653  -12.3937 O   0  0  0  0  0  0  0  0  0  0  0  0
   11.6694   -9.0767   -8.2978 C   0  0  0  0  0  0  0  0  0  0  0  0
   13.2448   -9.9663   -8.1912 S   0  0  0  0  0  0  0  0  0  0  0  0
   14.4578   -9.2610   -9.3176 C   0  0  0  0  0  0  0  0  0  0  0  0
   15.2249   -8.1264   -8.7816 C   0  0  0  0  0  0  0  0  0  0  0  0
   15.8747   -7.1553   -9.6766 C   0  0  2  0  0  0  0  0  0  0  0  0
   17.0262   -7.9011  -10.2749 N   0  0  0  0  0  0  0  0  0  0  0  0
   16.3729   -5.8947   -9.1044 C   0  0  0  0  0  0  0  0  0  0  0  0
   17.4384   -5.8139   -8.4626 O   0  0  0  0  0  0  0  0  0  0  0  0
   15.6570   -4.6673   -9.2502 N   0  0  0  0  0  0  0  0  0  0  0  0
   16.0431   -3.4365   -8.5913 C   0  0  0  0  0  0  0  0  0  0  0  0
   16.7923   -2.5305   -9.4500 C   0  0  0  0  0  0  0  0  0  0  0  0
   17.1343   -2.8848  -10.5965 O   0  0  0  0  0  0  0  0  0  0  0  0
   17.1362   -1.2690   -9.0137 O   0  0  0  0  0  0  0  0  0  0  0  0
  2  1  1  0
  2  3  2  0
  4  2  1  0
  5  4  1  0
  5  6  1  6
  7 14  1  0
  7  5  1  0
  8  7  2  0
 10  9  1  0
 10 11  1  0
 11 12  1  0
 13 12  1  1
 13 14  1  0
 13 15  1  0
 15 17  1  0
 15 16  2  0
 17 18  1  0
 18 19  1  0
 19 21  1  0
 20 19  2  0
M  END
$$$$
