NMG.pdb
     RDKit          3D

 21 20  0  0  1  0  0  0  0  0999 V2000
   28.0809  -13.9989  -22.7122 N   0  0  0  0  0  0  0  0  0  0  0  0
   27.0180  -14.2709  -21.8108 C   0  0  0  0  0  0  0  0  0  0  0  0
   26.5067  -15.4172  -21.8562 O   0  0  0  0  0  0  0  0  0  0  0  0
   26.5262  -13.2401  -20.8482 C   0  0  0  0  0  0  0  0  0  0  0  0
   27.2808  -11.9740  -21.1027 C   0  0  2  0  0  0  0  0  0  0  0  0
   28.6706  -12.2260  -21.3135 N   0  0  0  0  0  0  0  0  0  0  0  0
   27.0299  -10.9337  -20.0712 C   0  0  0  0  0  0  0  0  0  0  0  0
   25.8389  -10.6004  -19.7826 O   0  0  0  0  0  0  0  0  0  0  0  0
   27.6843  -13.6362  -15.2432 C   0  0  0  0  0  0  0  0  0  0  0  0
   28.5922  -12.4312  -16.2472 S   0  0  0  0  0  0  0  0  0  0  0  0
   27.7032  -10.8694  -16.3354 C   0  0  0  0  0  0  0  0  0  0  0  0
   28.3788   -9.8061  -17.0946 C   0  0  0  0  0  0  0  0  0  0  0  0
   27.7867   -9.2537  -18.3236 C   0  0  2  0  0  0  0  0  0  0  0  0
   28.0722  -10.2781  -19.3768 N   0  0  0  0  0  0  0  0  0  0  0  0
   28.2518   -7.9418  -18.8007 C   0  0  0  0  0  0  0  0  0  0  0  0
   28.1968   -6.9077  -18.1069 O   0  0  0  0  0  0  0  0  0  0  0  0
   28.8030   -7.7682  -20.1070 N   0  0  0  0  0  0  0  0  0  0  0  0
   29.3097   -6.5026  -20.5963 C   0  0  0  0  0  0  0  0  0  0  0  0
   30.4133   -5.9762  -19.8061 C   0  0  0  0  0  0  0  0  0  0  0  0
   31.3402   -6.7260  -19.4376 O   0  0  0  0  0  0  0  0  0  0  0  0
   30.4543   -4.6448  -19.4519 O   0  0  0  0  0  0  0  0  0  0  0  0
  2  1  1  0
  2  3  2  0
  4  2  1  0
  5  4  1  0
  5  6  1  1
  7 14  1  0
  7  5  1  0
  8  7  2  0
 10  9  1  0
 10 11  1  0
 11 12  1  0
 13 12  1  1
 13 14  1  0
 13 15  1  0
 15 17  1  0
 15 16  2  0
 17 18  1  0
 18 19  1  0
 19 21  1  0
 20 19  2  0
M  END
$$$$
