NMG.pdb
     RDKit          3D

 21 20  0  0  1  0  0  0  0  0999 V2000
   20.1521  -21.4810  -12.6373 N   0  0  0  0  0  0  0  0  0  0  0  0
   20.4098  -20.3473  -11.8222 C   0  0  0  0  0  0  0  0  0  0  0  0
   19.4154  -19.7394  -11.3542 O   0  0  0  0  0  0  0  0  0  0  0  0
   21.8031  -19.8938  -11.5316 C   0  0  0  0  0  0  0  0  0  0  0  0
   22.7425  -20.7685  -12.2995 C   0  0  2  0  0  0  0  0  0  0  0  0
   22.5539  -22.1474  -11.9797 N   0  0  0  0  0  0  0  0  0  0  0  0
   24.1597  -20.3353  -12.1860 C   0  0  0  0  0  0  0  0  0  0  0  0
   24.4677  -19.1172  -12.3711 O   0  0  0  0  0  0  0  0  0  0  0  0
   26.3695  -19.4960   -7.0575 C   0  0  0  0  0  0  0  0  0  0  0  0
   26.1069  -20.6686   -8.4143 S   0  0  0  0  0  0  0  0  0  0  0  0
   27.4885  -20.6371   -9.5664 C   0  0  0  0  0  0  0  0  0  0  0  0
   27.2925  -21.4123  -10.8009 C   0  0  0  0  0  0  0  0  0  0  0  0
   26.6448  -20.8158  -11.9803 C   0  0  2  0  0  0  0  0  0  0  0  0
   25.2101  -21.2289  -11.8758 N   0  0  0  0  0  0  0  0  0  0  0  0
   27.1455  -21.1768  -13.3159 C   0  0  0  0  0  0  0  0  0  0  0  0
   26.9502  -22.2926  -13.8363 O   0  0  0  0  0  0  0  0  0  0  0  0
   27.8973  -20.2590  -14.1113 N   0  0  0  0  0  0  0  0  0  0  0  0
   28.5100  -20.6153  -15.3745 C   0  0  0  0  0  0  0  0  0  0  0  0
   27.6312  -20.4222  -16.5190 C   0  0  0  0  0  0  0  0  0  0  0  0
   26.4063  -20.6380  -16.4184 O   0  0  0  0  0  0  0  0  0  0  0  0
   28.1345  -19.9991  -17.7305 O   0  0  0  0  0  0  0  0  0  0  0  0
  2  1  1  0
  2  3  2  0
  4  2  1  0
  5  4  1  0
  5  6  1  1
  7 14  1  0
  7  5  1  0
  8  7  2  0
 10  9  1  0
 10 11  1  0
 11 12  1  0
 13 12  1  1
 13 14  1  0
 13 15  1  0
 15 17  1  0
 15 16  2  0
 17 18  1  0
 18 19  1  0
 19 21  1  0
 20 19  2  0
M  END
$$$$
