NMG.pdb
     RDKit          3D

 21 20  0  0  1  0  0  0  0  0999 V2000
   20.6773  -12.0842  -20.4070 N   0  0  0  0  0  0  0  0  0  0  0  0
   19.9546  -11.0033  -19.8363 C   0  0  0  0  0  0  0  0  0  0  0  0
   19.0440  -10.4908  -20.5332 O   0  0  0  0  0  0  0  0  0  0  0  0
   20.2615  -10.4946  -18.4658 C   0  0  0  0  0  0  0  0  0  0  0  0
   21.4741  -11.2146  -17.9674 C   0  0  2  0  0  0  0  0  0  0  0  0
   21.2140  -12.6050  -17.7714 N   0  0  0  0  0  0  0  0  0  0  0  0
   22.0843  -10.5653  -16.7778 C   0  0  0  0  0  0  0  0  0  0  0  0
   21.6782  -10.8659  -15.6126 O   0  0  0  0  0  0  0  0  0  0  0  0
   27.9983   -9.6530  -16.8925 C   0  0  0  0  0  0  0  0  0  0  0  0
   27.3008  -10.9896  -15.8866 S   0  0  0  0  0  0  0  0  0  0  0  0
   25.6949  -10.5226  -15.2230 C   0  0  0  0  0  0  0  0  0  0  0  0
   25.1467   -9.2595  -15.7401 C   0  0  0  0  0  0  0  0  0  0  0  0
   23.7071   -8.9641  -15.6591 C   0  0  2  0  0  0  0  0  0  0  0  0
   23.1182   -9.6063  -16.8759 N   0  0  0  0  0  0  0  0  0  0  0  0
   23.2791   -7.5571  -15.6120 C   0  0  0  0  0  0  0  0  0  0  0  0
   23.5781   -6.7866  -14.6789 O   0  0  0  0  0  0  0  0  0  0  0  0
   22.4829   -6.9777  -16.6466 N   0  0  0  0  0  0  0  0  0  0  0  0
   22.0405   -5.5985  -16.6340 C   0  0  0  0  0  0  0  0  0  0  0  0
   23.0942   -4.6495  -16.9630 C   0  0  0  0  0  0  0  0  0  0  0  0
   24.2451   -5.0510  -17.2305 O   0  0  0  0  0  0  0  0  0  0  0  0
   22.8408   -3.2948  -16.9851 O   0  0  0  0  0  0  0  0  0  0  0  0
  2  1  1  0
  2  3  2  0
  4  2  1  0
  5  4  1  0
  5  6  1  1
  7 14  1  0
  7  5  1  0
  8  7  2  0
 10  9  1  0
 10 11  1  0
 11 12  1  0
 13 12  1  6
 13 14  1  0
 13 15  1  0
 15 17  1  0
 15 16  2  0
 17 18  1  0
 18 19  1  0
 19 21  1  0
 20 19  2  0
M  END
$$$$
