NMG.pdb
     RDKit          3D

 21 20  0  0  1  0  0  0  0  0999 V2000
   19.6570  -23.5528  -13.8992 N   0  0  0  0  0  0  0  0  0  0  0  0
   19.8789  -22.2579  -13.3606 C   0  0  0  0  0  0  0  0  0  0  0  0
   18.9401  -21.4289  -13.4549 O   0  0  0  0  0  0  0  0  0  0  0  0
   21.1726  -21.8933  -12.7089 C   0  0  0  0  0  0  0  0  0  0  0  0
   21.8256  -20.8351  -13.5401 C   0  0  2  0  0  0  0  0  0  0  0  0
   21.9277  -21.2323  -14.9081 N   0  0  0  0  0  0  0  0  0  0  0  0
   23.1184  -20.3699  -12.9732 C   0  0  0  0  0  0  0  0  0  0  0  0
   23.1281  -19.6011  -11.9624 O   0  0  0  0  0  0  0  0  0  0  0  0
   25.5828  -19.5770   -8.3249 C   0  0  0  0  0  0  0  0  0  0  0  0
   25.9206  -21.2933   -8.7993 S   0  0  0  0  0  0  0  0  0  0  0  0
   26.5205  -21.3849  -10.4931 C   0  0  0  0  0  0  0  0  0  0  0  0
   25.4776  -21.3516  -11.5297 C   0  0  0  0  0  0  0  0  0  0  0  0
   25.6420  -20.5458  -12.7503 C   0  0  2  0  0  0  0  0  0  0  0  0
   24.3697  -20.7464  -13.5125 N   0  0  0  0  0  0  0  0  0  0  0  0
   26.7776  -20.8384  -13.6389 C   0  0  0  0  0  0  0  0  0  0  0  0
   27.0994  -21.9957  -13.9720 O   0  0  0  0  0  0  0  0  0  0  0  0
   27.5942  -19.8005  -14.1832 N   0  0  0  0  0  0  0  0  0  0  0  0
   28.6449  -20.0382  -15.1515 C   0  0  0  0  0  0  0  0  0  0  0  0
   28.2838  -19.6450  -16.5059 C   0  0  0  0  0  0  0  0  0  0  0  0
   27.9206  -20.5022  -17.3369 O   0  0  0  0  0  0  0  0  0  0  0  0
   28.3363  -18.3234  -16.8937 O   0  0  0  0  0  0  0  0  0  0  0  0
  2  1  1  0
  2  3  2  0
  4  2  1  0
  5  4  1  0
  5  6  1  6
  7 14  1  0
  7  5  1  0
  8  7  2  0
 10  9  1  0
 10 11  1  0
 11 12  1  0
 13 12  1  1
 13 14  1  0
 13 15  1  0
 15 17  1  0
 15 16  2  0
 17 18  1  0
 18 19  1  0
 19 21  1  0
 20 19  2  0
M  END
$$$$
