HYK.pdb
     RDKit          3D

 32 33  0  0  1  0  0  0  0  0999 V2000
   24.4022  -29.6104  -18.6596 N   0  0  0  0  0  0  0  0  0  0  0  0
   24.7800  -30.2812  -17.4052 C   0  0  1  0  0  0  0  0  0  0  0  0
   23.7652  -31.3731  -17.1911 C   0  0  0  0  0  0  0  0  0  0  0  0
   22.4743  -30.8588  -16.6985 C   0  0  0  0  0  0  0  0  0  0  0  0
   21.5062  -30.3279  -17.5246 C   0  0  0  0  0  0  0  0  0  0  0  0
   20.4575  -29.9513  -16.7845 N   0  0  0  0  0  0  0  0  0  0  0  0
   20.7327  -30.2284  -15.5107 C   0  0  0  0  0  0  0  0  0  0  0  0
   21.9733  -30.7873  -15.4523 N   0  0  0  0  0  0  0  0  0  0  0  0
   26.0904  -30.9464  -17.6560 C   0  0  0  0  0  0  0  0  0  0  0  0
   26.3815  -31.1838  -18.8699 O   0  0  0  0  0  0  0  0  0  0  0  0
   34.7398  -32.5126  -16.6912 O   0  0  0  0  0  0  0  0  0  0  0  0
   33.4023  -32.1117  -16.5845 C   0  0  0  0  0  0  0  0  0  0  0  0
   32.8469  -31.1703  -17.4282 C   0  0  0  0  0  0  0  0  0  0  0  0
   31.5200  -30.7860  -17.3070 C   0  0  0  0  0  0  0  0  0  0  0  0
   30.7064  -31.3376  -16.3306 C   0  0  0  0  0  0  0  0  0  0  0  0
   29.2886  -30.9301  -16.1932 C   0  0  0  0  0  0  0  0  0  0  0  0
   28.3180  -31.8203  -16.8847 C   0  0  2  0  0  0  0  0  0  0  0  0
   26.9802  -31.3038  -16.6051 N   0  0  0  0  0  0  0  0  0  0  0  0
   28.4242  -33.2530  -16.5316 C   0  0  0  0  0  0  0  0  0  0  0  0
   28.0196  -33.6037  -15.4007 O   0  0  0  0  0  0  0  0  0  0  0  0
   31.2822  -32.2754  -15.4995 C   0  0  0  0  0  0  0  0  0  0  0  0
   32.6081  -32.6615  -15.6183 C   0  0  0  0  0  0  0  0  0  0  0  0
   28.9481  -34.2343  -17.3840 N   0  0  0  0  0  0  0  0  0  0  0  0
   28.9628  -35.6987  -16.9212 C   0  0  1  0  0  0  0  0  0  0  0  0
   28.6493  -36.4936  -18.1179 C   0  0  0  0  0  0  0  0  0  0  0  0
   28.6734  -37.9456  -18.0750 C   0  0  0  0  0  0  0  0  0  0  0  0
   28.2796  -38.8014  -19.2042 C   0  0  0  0  0  0  0  0  0  0  0  0
   28.3597  -40.3010  -18.8047 C   0  0  0  0  0  0  0  0  0  0  0  0
   28.0115  -41.0671  -19.9696 N   0  0  0  0  0  0  0  0  0  0  0  0
   30.3076  -35.8610  -16.3222 C   0  0  0  0  0  0  0  0  0  0  0  0
   30.6546  -36.5390  -15.1893 O   0  0  0  0  0  0  0  0  0  0  0  0
   31.3161  -35.3013  -16.9104 O   0  0  0  0  0  0  0  0  0  0  0  0
  2  1  1  6
  3  2  1  0
  3  4  1  0
  4  5  2  0
  5  6  1  0
  7  6  1  0
  8  4  1  0
  8  7  2  0
  9 18  1  0
  9  2  1  0
 10  9  2  0
 12 11  1  0
 13 12  2  0
 14 13  1  0
 15 14  2  0
 15 21  1  0
 16 15  1  0
 17 16  1  1
 17 18  1  0
 19 23  1  0
 19 17  1  0
 20 19  2  0
 21 22  2  0
 22 12  1  0
 24 23  1  0
 24 30  1  0
 24 25  1  6
 26 25  1  0
 27 28  1  0
 27 26  1  0
 28 29  1  0
 30 31  1  0
 32 30  2  0
M  END
$$$$
