HYK.pdb
     RDKit          3D

 32 33  0  0  1  0  0  0  0  0999 V2000
   28.4055  -21.6170  -17.7663 N   0  0  0  0  0  0  0  0  0  0  0  0
   28.3423  -20.5370  -16.7685 C   0  0  1  0  0  0  0  0  0  0  0  0
   27.6835  -19.3696  -17.4548 C   0  0  0  0  0  0  0  0  0  0  0  0
   28.6503  -18.5036  -18.1541 C   0  0  0  0  0  0  0  0  0  0  0  0
   29.1329  -17.3258  -17.6237 C   0  0  0  0  0  0  0  0  0  0  0  0
   29.9873  -16.7724  -18.4916 N   0  0  0  0  0  0  0  0  0  0  0  0
   30.0607  -17.5664  -19.5590 C   0  0  0  0  0  0  0  0  0  0  0  0
   29.2394  -18.6337  -19.3562 N   0  0  0  0  0  0  0  0  0  0  0  0
   27.4102  -20.9980  -15.7003 C   0  0  0  0  0  0  0  0  0  0  0  0
   26.4274  -21.7107  -16.0757 O   0  0  0  0  0  0  0  0  0  0  0  0
   23.4183  -20.9399   -7.7002 O   0  0  0  0  0  0  0  0  0  0  0  0
   24.3325  -20.8416   -8.7564 C   0  0  0  0  0  0  0  0  0  0  0  0
   24.6650  -19.6310   -9.3314 C   0  0  0  0  0  0  0  0  0  0  0  0
   25.5727  -19.5536  -10.3768 C   0  0  0  0  0  0  0  0  0  0  0  0
   26.1772  -20.6945  -10.8793 C   0  0  0  0  0  0  0  0  0  0  0  0
   27.1460  -20.6201  -11.9979 C   0  0  0  0  0  0  0  0  0  0  0  0
   26.5960  -21.0171  -13.3217 C   0  0  2  0  0  0  0  0  0  0  0  0
   27.5950  -20.6676  -14.3290 N   0  0  0  0  0  0  0  0  0  0  0  0
   25.2768  -20.4335  -13.6498 C   0  0  0  0  0  0  0  0  0  0  0  0
   25.2271  -19.2051  -13.8823 O   0  0  0  0  0  0  0  0  0  0  0  0
   25.8302  -21.8920  -10.2902 C   0  0  0  0  0  0  0  0  0  0  0  0
   24.9232  -21.9724   -9.2450 C   0  0  0  0  0  0  0  0  0  0  0  0
   24.0870  -21.1711  -13.7151 N   0  0  0  0  0  0  0  0  0  0  0  0
   22.7538  -20.4289  -13.8892 C   0  0  1  0  0  0  0  0  0  0  0  0
   22.1728  -20.9489  -15.1360 C   0  0  0  0  0  0  0  0  0  0  0  0
   22.4785  -20.3308  -16.4147 C   0  0  0  0  0  0  0  0  0  0  0  0
   21.9503  -20.8120  -17.7000 C   0  0  0  0  0  0  0  0  0  0  0  0
   22.0563  -22.3599  -17.7870 C   0  0  0  0  0  0  0  0  0  0  0  0
   21.4599  -22.7543  -19.0336 N   0  0  0  0  0  0  0  0  0  0  0  0
   22.0320  -20.7089  -12.6266 C   0  0  0  0  0  0  0  0  0  0  0  0
   21.1929  -19.8878  -11.9299 O   0  0  0  0  0  0  0  0  0  0  0  0
   22.1892  -21.8675  -12.0704 O   0  0  0  0  0  0  0  0  0  0  0  0
  2  1  1  6
  3  2  1  0
  3  4  1  0
  4  5  2  0
  5  6  1  0
  7  6  1  0
  8  4  1  0
  8  7  2  0
  9 18  1  0
  9  2  1  0
 10  9  2  0
 12 11  1  0
 13 12  2  0
 14 13  1  0
 15 14  2  0
 15 21  1  0
 16 15  1  0
 17 16  1  1
 17 18  1  0
 19 23  1  0
 19 17  1  0
 20 19  2  0
 21 22  2  0
 22 12  1  0
 24 23  1  0
 24 30  1  0
 24 25  1  6
 26 25  1  0
 27 28  1  0
 27 26  1  0
 28 29  1  0
 30 31  1  0
 32 30  2  0
M  END
$$$$
