HYK.pdb
     RDKit          3D

 32 33  0  0  1  0  0  0  0  0999 V2000
   24.7259  -19.3124  -18.8688 N   0  0  0  0  0  0  0  0  0  0  0  0
   23.4242  -18.9001  -18.3193 C   0  0  1  0  0  0  0  0  0  0  0  0
   22.3820  -19.4217  -19.2731 C   0  0  0  0  0  0  0  0  0  0  0  0
   22.3049  -18.6323  -20.5159 C   0  0  0  0  0  0  0  0  0  0  0  0
   21.2385  -17.8161  -20.8291 C   0  0  0  0  0  0  0  0  0  0  0  0
   21.4626  -17.2385  -22.0148 N   0  0  0  0  0  0  0  0  0  0  0  0
   22.6422  -17.6655  -22.4634 C   0  0  0  0  0  0  0  0  0  0  0  0
   23.1649  -18.5239  -21.5443 N   0  0  0  0  0  0  0  0  0  0  0  0
   23.2503  -19.6388  -17.0362 C   0  0  0  0  0  0  0  0  0  0  0  0
   23.6709  -20.8376  -17.0118 O   0  0  0  0  0  0  0  0  0  0  0  0
   22.4112  -20.9326   -8.2670 O   0  0  0  0  0  0  0  0  0  0  0  0
   22.5027  -20.4086   -9.5623 C   0  0  0  0  0  0  0  0  0  0  0  0
   23.6671  -20.4734  -10.3017 C   0  0  0  0  0  0  0  0  0  0  0  0
   23.7384  -19.9487  -11.5833 C   0  0  0  0  0  0  0  0  0  0  0  0
   22.6379  -19.3400  -12.1645 C   0  0  0  0  0  0  0  0  0  0  0  0
   22.7071  -18.7746  -13.5323 C   0  0  0  0  0  0  0  0  0  0  0  0
   22.5538  -19.7731  -14.6242 C   0  0  2  0  0  0  0  0  0  0  0  0
   22.6479  -19.0495  -15.8900 N   0  0  0  0  0  0  0  0  0  0  0  0
   21.3174  -20.5829  -14.5601 C   0  0  0  0  0  0  0  0  0  0  0  0
   20.2641  -20.0699  -14.9994 O   0  0  0  0  0  0  0  0  0  0  0  0
   21.4862  -19.2865  -11.4080 C   0  0  0  0  0  0  0  0  0  0  0  0
   21.4119  -19.8102  -10.1267 C   0  0  0  0  0  0  0  0  0  0  0  0
   21.2570  -21.8827  -14.0395 N   0  0  0  0  0  0  0  0  0  0  0  0
   19.9161  -22.6314  -14.0472 C   0  0  1  0  0  0  0  0  0  0  0  0
   20.2624  -24.0605  -14.0334 C   0  0  0  0  0  0  0  0  0  0  0  0
   19.2259  -25.0783  -14.0568 C   0  0  0  0  0  0  0  0  0  0  0  0
   19.4996  -26.5182  -14.1765 C   0  0  0  0  0  0  0  0  0  0  0  0
   18.1721  -27.3260  -14.1842 C   0  0  0  0  0  0  0  0  0  0  0  0
   18.5179  -28.7038  -14.4018 N   0  0  0  0  0  0  0  0  0  0  0  0
   19.2060  -22.0859  -12.8675 C   0  0  0  0  0  0  0  0  0  0  0  0
   17.9206  -21.6334  -12.7863 O   0  0  0  0  0  0  0  0  0  0  0  0
   19.8474  -22.0028  -11.7458 O   0  0  0  0  0  0  0  0  0  0  0  0
  2  1  1  6
  3  2  1  0
  3  4  1  0
  4  5  2  0
  5  6  1  0
  7  6  1  0
  8  4  1  0
  8  7  2  0
  9 18  1  0
  9  2  1  0
 10  9  2  0
 12 11  1  0
 13 12  2  0
 14 13  1  0
 15 14  2  0
 15 21  1  0
 16 15  1  0
 17 16  1  1
 17 18  1  0
 19 23  1  0
 19 17  1  0
 20 19  2  0
 21 22  2  0
 22 12  1  0
 24 23  1  0
 24 30  1  0
 24 25  1  1
 26 25  1  0
 27 28  1  0
 27 26  1  0
 28 29  1  0
 30 31  1  0
 32 30  2  0
M  END
$$$$
