HYK.pdb
     RDKit          3D

 32 33  0  0  1  0  0  0  0  0999 V2000
   20.2760  -14.4263  -18.9036 N   0  0  0  0  0  0  0  0  0  0  0  0
   19.8823  -14.0719  -17.5305 C   0  0  1  0  0  0  0  0  0  0  0  0
   19.3522  -12.6638  -17.5961 C   0  0  0  0  0  0  0  0  0  0  0  0
   20.4058  -11.6742  -17.8862 C   0  0  0  0  0  0  0  0  0  0  0  0
   21.4771  -11.4421  -17.0496 C   0  0  0  0  0  0  0  0  0  0  0  0
   22.2532  -10.4931  -17.5850 N   0  0  0  0  0  0  0  0  0  0  0  0
   21.7042  -10.1158  -18.7388 C   0  0  0  0  0  0  0  0  0  0  0  0
   20.5665  -10.8400  -18.9289 N   0  0  0  0  0  0  0  0  0  0  0  0
   18.7344  -14.9542  -17.1754 C   0  0  0  0  0  0  0  0  0  0  0  0
   17.8756  -15.1609  -18.0888 O   0  0  0  0  0  0  0  0  0  0  0  0
   14.2187  -21.6513  -13.5917 O   0  0  0  0  0  0  0  0  0  0  0  0
   15.1587  -20.6793  -13.9556 C   0  0  0  0  0  0  0  0  0  0  0  0
   15.5687  -20.5051  -15.2626 C   0  0  0  0  0  0  0  0  0  0  0  0
   16.5009  -19.5368  -15.6036 C   0  0  0  0  0  0  0  0  0  0  0  0
   17.0526  -18.7100  -14.6385 C   0  0  0  0  0  0  0  0  0  0  0  0
   18.0511  -17.6750  -14.9947 C   0  0  0  0  0  0  0  0  0  0  0  0
   17.4759  -16.4339  -15.5792 C   0  0  2  0  0  0  0  0  0  0  0  0
   18.5914  -15.5423  -15.8879 N   0  0  0  0  0  0  0  0  0  0  0  0
   16.4659  -15.7571  -14.7364 C   0  0  0  0  0  0  0  0  0  0  0  0
   16.8664  -15.1803  -13.7008 O   0  0  0  0  0  0  0  0  0  0  0  0
   16.6287  -18.9018  -13.3404 C   0  0  0  0  0  0  0  0  0  0  0  0
   15.6970  -19.8688  -12.9965 C   0  0  0  0  0  0  0  0  0  0  0  0
   15.0955  -15.7244  -15.0279 N   0  0  0  0  0  0  0  0  0  0  0  0
   14.1418  -15.0014  -14.0654 C   0  0  1  0  0  0  0  0  0  0  0  0
   13.4521  -13.9896  -14.8796 C   0  0  0  0  0  0  0  0  0  0  0  0
   13.9379  -12.6215  -14.9363 C   0  0  0  0  0  0  0  0  0  0  0  0
   13.2852  -11.5560  -15.7116 C   0  0  0  0  0  0  0  0  0  0  0  0
   14.1290  -10.2520  -15.6626 C   0  0  0  0  0  0  0  0  0  0  0  0
   13.5647   -9.3477  -16.6264 N   0  0  0  0  0  0  0  0  0  0  0  0
   13.3246  -16.0976  -13.4960 C   0  0  0  0  0  0  0  0  0  0  0  0
   12.8121  -16.2060  -12.2354 O   0  0  0  0  0  0  0  0  0  0  0  0
   13.0371  -17.1089  -14.2518 O   0  0  0  0  0  0  0  0  0  0  0  0
  2  1  1  6
  3  2  1  0
  3  4  1  0
  4  5  2  0
  5  6  1  0
  7  6  1  0
  8  4  1  0
  8  7  2  0
  9 18  1  0
  9  2  1  0
 10  9  2  0
 12 11  1  0
 13 12  2  0
 14 13  1  0
 15 14  2  0
 15 21  1  0
 16 15  1  0
 17 16  1  1
 17 18  1  0
 19 23  1  0
 19 17  1  0
 20 19  2  0
 21 22  2  0
 22 12  1  0
 24 23  1  0
 24 30  1  0
 24 25  1  6
 26 25  1  0
 27 28  1  0
 27 26  1  0
 28 29  1  0
 30 31  1  0
 32 30  2  0
M  END
$$$$
