HYK.pdb
     RDKit          3D

 32 33  0  0  1  0  0  0  0  0999 V2000
   28.4727  -19.9466  -19.4158 N   0  0  0  0  0  0  0  0  0  0  0  0
   27.9758  -18.8912  -18.5184 C   0  0  1  0  0  0  0  0  0  0  0  0
   26.8979  -18.1658  -19.2800 C   0  0  0  0  0  0  0  0  0  0  0  0
   27.4412  -17.2722  -20.3191 C   0  0  0  0  0  0  0  0  0  0  0  0
   28.0708  -16.0782  -20.0369 C   0  0  0  0  0  0  0  0  0  0  0  0
   28.4490  -15.5011  -21.1829 N   0  0  0  0  0  0  0  0  0  0  0  0
   28.0770  -16.2957  -22.1856 C   0  0  0  0  0  0  0  0  0  0  0  0
   27.4560  -17.3875  -21.6591 N   0  0  0  0  0  0  0  0  0  0  0  0
   27.3133  -19.5813  -17.3750 C   0  0  0  0  0  0  0  0  0  0  0  0
   26.5545  -20.5580  -17.6664 O   0  0  0  0  0  0  0  0  0  0  0  0
   24.8645  -21.1932   -8.9168 O   0  0  0  0  0  0  0  0  0  0  0  0
   25.5090  -20.7600  -10.0820 C   0  0  0  0  0  0  0  0  0  0  0  0
   25.4401  -19.4516  -10.5179 C   0  0  0  0  0  0  0  0  0  0  0  0
   26.0853  -19.0412  -11.6747 C   0  0  0  0  0  0  0  0  0  0  0  0
   26.8228  -19.9361  -12.4329 C   0  0  0  0  0  0  0  0  0  0  0  0
   27.5128  -19.5057  -13.6714 C   0  0  0  0  0  0  0  0  0  0  0  0
   26.7855  -19.8254  -14.9291 C   0  0  2  0  0  0  0  0  0  0  0  0
   27.5083  -19.1819  -16.0236 N   0  0  0  0  0  0  0  0  0  0  0  0
   25.3551  -19.4480  -14.9360 C   0  0  0  0  0  0  0  0  0  0  0  0
   25.0750  -18.2374  -15.0826 O   0  0  0  0  0  0  0  0  0  0  0  0
   26.8777  -21.2370  -11.9789 C   0  0  0  0  0  0  0  0  0  0  0  0
   26.2338  -21.6500  -10.8229 C   0  0  0  0  0  0  0  0  0  0  0  0
   24.3022  -20.3610  -14.7889 N   0  0  0  0  0  0  0  0  0  0  0  0
   22.8688  -19.8326  -14.6304 C   0  0  1  0  0  0  0  0  0  0  0  0
   22.1730  -20.2015  -15.8722 C   0  0  0  0  0  0  0  0  0  0  0  0
   20.7691  -19.8801  -16.0631 C   0  0  0  0  0  0  0  0  0  0  0  0
   19.6691  -20.7903  -15.7108 C   0  0  0  0  0  0  0  0  0  0  0  0
   18.3053  -20.1954  -16.1592 C   0  0  0  0  0  0  0  0  0  0  0  0
   17.2799  -21.0762  -15.6715 N   0  0  0  0  0  0  0  0  0  0  0  0
   22.4041  -20.4589  -13.3713 C   0  0  0  0  0  0  0  0  0  0  0  0
   21.5172  -19.9675  -12.4572 O   0  0  0  0  0  0  0  0  0  0  0  0
   22.8757  -21.6212  -13.0501 O   0  0  0  0  0  0  0  0  0  0  0  0
  2  1  1  6
  3  2  1  0
  3  4  1  0
  4  5  2  0
  5  6  1  0
  7  6  1  0
  8  4  1  0
  8  7  2  0
  9 18  1  0
  9  2  1  0
 10  9  2  0
 12 11  1  0
 13 12  2  0
 14 13  1  0
 15 14  2  0
 15 21  1  0
 16 15  1  0
 17 16  1  1
 17 18  1  0
 19 23  1  0
 19 17  1  0
 20 19  2  0
 21 22  2  0
 22 12  1  0
 24 23  1  0
 24 30  1  0
 24 25  1  6
 26 25  1  0
 27 28  1  0
 27 26  1  0
 28 29  1  0
 30 31  1  0
 32 30  2  0
M  END
$$$$
