HYK.pdb
     RDKit          3D

 32 33  0  0  1  0  0  0  0  0999 V2000
   28.0603  -21.9996  -18.6380 N   0  0  0  0  0  0  0  0  0  0  0  0
   27.5147  -20.7593  -18.0634 C   0  0  1  0  0  0  0  0  0  0  0  0
   26.4394  -20.2957  -19.0105 C   0  0  0  0  0  0  0  0  0  0  0  0
   26.9855  -19.6175  -20.2002 C   0  0  0  0  0  0  0  0  0  0  0  0
   27.1532  -18.2512  -20.2823 C   0  0  0  0  0  0  0  0  0  0  0  0
   27.6657  -17.9441  -21.4792 N   0  0  0  0  0  0  0  0  0  0  0  0
   27.8281  -19.0778  -22.1598 C   0  0  0  0  0  0  0  0  0  0  0  0
   27.4108  -20.1111  -21.3769 N   0  0  0  0  0  0  0  0  0  0  0  0
   26.8398  -21.1407  -16.7900 C   0  0  0  0  0  0  0  0  0  0  0  0
   26.2265  -22.2535  -16.7858 O   0  0  0  0  0  0  0  0  0  0  0  0
   24.7094  -20.9694   -8.1083 O   0  0  0  0  0  0  0  0  0  0  0  0
   25.2523  -20.7365   -9.3780 C   0  0  0  0  0  0  0  0  0  0  0  0
   26.2880  -21.4953   -9.8858 C   0  0  0  0  0  0  0  0  0  0  0  0
   26.8126  -21.2494  -11.1457 C   0  0  0  0  0  0  0  0  0  0  0  0
   26.3110  -20.2295  -11.9380 C   0  0  0  0  0  0  0  0  0  0  0  0
   26.8680  -19.9590  -13.2840 C   0  0  0  0  0  0  0  0  0  0  0  0
   26.2334  -20.7330  -14.3844 C   0  0  2  0  0  0  0  0  0  0  0  0
   26.8701  -20.3157  -15.6315 N   0  0  0  0  0  0  0  0  0  0  0  0
   24.7615  -20.6092  -14.4662 C   0  0  0  0  0  0  0  0  0  0  0  0
   24.2951  -19.6131  -15.0627 O   0  0  0  0  0  0  0  0  0  0  0  0
   25.2771  -19.4848  -11.4106 C   0  0  0  0  0  0  0  0  0  0  0  0
   24.7508  -19.7282  -10.1516 C   0  0  0  0  0  0  0  0  0  0  0  0
   23.8646  -21.5363  -13.9183 N   0  0  0  0  0  0  0  0  0  0  0  0
   22.3576  -21.2461  -13.9776 C   0  0  1  0  0  0  0  0  0  0  0  0
   21.7078  -22.5594  -14.1010 C   0  0  0  0  0  0  0  0  0  0  0  0
   20.2597  -22.6769  -14.1017 C   0  0  0  0  0  0  0  0  0  0  0  0
   19.5457  -23.9607  -14.1687 C   0  0  0  0  0  0  0  0  0  0  0  0
   18.0091  -23.7293  -14.1813 C   0  0  0  0  0  0  0  0  0  0  0  0
   17.3871  -25.0242  -14.1455 N   0  0  0  0  0  0  0  0  0  0  0  0
   22.1040  -20.4682  -12.7431 C   0  0  0  0  0  0  0  0  0  0  0  0
   22.6528  -20.6402  -11.5050 O   0  0  0  0  0  0  0  0  0  0  0  0
   21.2558  -19.4912  -12.7933 O   0  0  0  0  0  0  0  0  0  0  0  0
  2  1  1  6
  3  2  1  0
  3  4  1  0
  4  5  2  0
  5  6  1  0
  7  6  1  0
  8  4  1  0
  8  7  2  0
  9 18  1  0
  9  2  1  0
 10  9  2  0
 12 11  1  0
 13 12  2  0
 14 13  1  0
 15 14  2  0
 15 21  1  0
 16 15  1  0
 17 16  1  1
 17 18  1  0
 19 23  1  0
 19 17  1  0
 20 19  2  0
 21 22  2  0
 22 12  1  0
 24 23  1  0
 24 30  1  0
 24 25  1  1
 26 25  1  0
 27 28  1  0
 27 26  1  0
 28 29  1  0
 30 31  1  0
 32 30  2  0
M  END
$$$$
