HYK.pdb
     RDKit          3D

 32 33  0  0  1  0  0  0  0  0999 V2000
   28.1471  -22.8431  -18.5896 N   0  0  0  0  0  0  0  0  0  0  0  0
   28.0637  -23.7812  -17.4586 C   0  0  1  0  0  0  0  0  0  0  0  0
   26.5989  -24.0685  -17.2589 C   0  0  0  0  0  0  0  0  0  0  0  0
   25.8845  -22.9511  -16.6150 C   0  0  0  0  0  0  0  0  0  0  0  0
   26.5076  -21.7924  -16.2018 C   0  0  0  0  0  0  0  0  0  0  0  0
   25.5978  -20.9756  -15.6590 N   0  0  0  0  0  0  0  0  0  0  0  0
   24.4137  -21.5837  -15.7160 C   0  0  0  0  0  0  0  0  0  0  0  0
   24.5848  -22.8003  -16.3037 N   0  0  0  0  0  0  0  0  0  0  0  0
   28.6998  -25.0513  -17.9111 C   0  0  0  0  0  0  0  0  0  0  0  0
   28.4416  -25.4219  -19.0987 O   0  0  0  0  0  0  0  0  0  0  0  0
   34.6481  -31.5448  -18.8002 O   0  0  0  0  0  0  0  0  0  0  0  0
   33.9044  -30.4128  -18.4447 C   0  0  0  0  0  0  0  0  0  0  0  0
   33.4968  -29.4781  -19.3756 C   0  0  0  0  0  0  0  0  0  0  0  0
   32.7606  -28.3631  -19.0043 C   0  0  0  0  0  0  0  0  0  0  0  0
   32.4095  -28.1515  -17.6809 C   0  0  0  0  0  0  0  0  0  0  0  0
   31.6255  -26.9613  -17.2761 C   0  0  0  0  0  0  0  0  0  0  0  0
   30.1655  -27.0607  -17.5431 C   0  0  2  0  0  0  0  0  0  0  0  0
   29.5530  -25.8207  -17.0720 N   0  0  0  0  0  0  0  0  0  0  0  0
   29.5023  -28.2442  -16.9532 C   0  0  0  0  0  0  0  0  0  0  0  0
   29.2986  -28.2402  -15.7187 O   0  0  0  0  0  0  0  0  0  0  0  0
   32.8272  -29.0976  -16.7687 C   0  0  0  0  0  0  0  0  0  0  0  0
   33.5631  -30.2131  -17.1369 C   0  0  0  0  0  0  0  0  0  0  0  0
   29.0915  -29.3624  -17.6913 N   0  0  0  0  0  0  0  0  0  0  0  0
   28.4795  -30.5630  -16.9545 C   0  0  1  0  0  0  0  0  0  0  0  0
   27.0249  -30.4305  -17.1248 C   0  0  0  0  0  0  0  0  0  0  0  0
   26.1334  -31.5300  -16.7975 C   0  0  0  0  0  0  0  0  0  0  0  0
   24.6670  -31.4354  -16.8545 C   0  0  0  0  0  0  0  0  0  0  0  0
   24.0194  -32.8077  -16.5198 C   0  0  0  0  0  0  0  0  0  0  0  0
   22.5999  -32.6556  -16.6836 N   0  0  0  0  0  0  0  0  0  0  0  0
   29.1405  -31.7304  -17.5820 C   0  0  0  0  0  0  0  0  0  0  0  0
   29.4838  -31.9076  -18.8914 O   0  0  0  0  0  0  0  0  0  0  0  0
   29.4476  -32.7412  -16.8334 O   0  0  0  0  0  0  0  0  0  0  0  0
  2  1  1  6
  3  2  1  0
  3  4  1  0
  4  5  2  0
  5  6  1  0
  7  6  1  0
  8  4  1  0
  8  7  2  0
  9 18  1  0
  9  2  1  0
 10  9  2  0
 12 11  1  0
 13 12  2  0
 14 13  1  0
 15 14  2  0
 15 21  1  0
 16 15  1  0
 17 16  1  1
 17 18  1  0
 19 23  1  0
 19 17  1  0
 20 19  2  0
 21 22  2  0
 22 12  1  0
 24 23  1  0
 24 30  1  0
 24 25  1  6
 26 25  1  0
 27 28  1  0
 27 26  1  0
 28 29  1  0
 30 31  1  0
 32 30  2  0
M  END
$$$$
