HYK.pdb
     RDKit          3D

 32 33  0  0  1  0  0  0  0  0999 V2000
   27.0775  -21.0909  -19.5549 N   0  0  0  0  0  0  0  0  0  0  0  0
   26.5449  -20.1978  -18.5134 C   0  0  1  0  0  0  0  0  0  0  0  0
   25.6498  -19.2148  -19.2210 C   0  0  0  0  0  0  0  0  0  0  0  0
   26.4066  -18.2176  -19.9997 C   0  0  0  0  0  0  0  0  0  0  0  0
   26.2644  -18.0542  -21.3616 C   0  0  0  0  0  0  0  0  0  0  0  0
   27.0809  -17.0779  -21.7731 N   0  0  0  0  0  0  0  0  0  0  0  0
   27.7381  -16.6164  -20.7100 C   0  0  0  0  0  0  0  0  0  0  0  0
   27.3265  -17.3147  -19.6156 N   0  0  0  0  0  0  0  0  0  0  0  0
   25.6715  -21.0338  -17.6412 C   0  0  0  0  0  0  0  0  0  0  0  0
   24.9696  -21.9180  -18.2243 O   0  0  0  0  0  0  0  0  0  0  0  0
   27.9907  -26.9830  -16.9517 O   0  0  0  0  0  0  0  0  0  0  0  0
   27.3682  -25.8874  -16.3409 C   0  0  0  0  0  0  0  0  0  0  0  0
   26.1413  -25.9924  -15.7162 C   0  0  0  0  0  0  0  0  0  0  0  0
   25.5405  -24.8958  -15.1166 C   0  0  0  0  0  0  0  0  0  0  0  0
   26.1559  -23.6546  -15.1259 C   0  0  0  0  0  0  0  0  0  0  0  0
   25.5191  -22.4778  -14.4897 C   0  0  0  0  0  0  0  0  0  0  0  0
   24.6939  -21.6477  -15.4077 C   0  0  2  0  0  0  0  0  0  0  0  0
   25.6139  -20.8650  -16.2298 N   0  0  0  0  0  0  0  0  0  0  0  0
   23.7000  -20.7789  -14.7399 C   0  0  0  0  0  0  0  0  0  0  0  0
   24.1274  -19.9142  -13.9429 O   0  0  0  0  0  0  0  0  0  0  0  0
   27.3802  -23.5731  -15.7553 C   0  0  0  0  0  0  0  0  0  0  0  0
   27.9832  -24.6675  -16.3554 C   0  0  0  0  0  0  0  0  0  0  0  0
   22.3167  -20.8671  -14.9462 N   0  0  0  0  0  0  0  0  0  0  0  0
   21.3839  -19.9076  -14.1925 C   0  0  1  0  0  0  0  0  0  0  0  0
   20.4412  -19.4007  -15.2008 C   0  0  0  0  0  0  0  0  0  0  0  0
   19.3332  -18.5419  -14.8194 C   0  0  0  0  0  0  0  0  0  0  0  0
   18.3079  -18.0673  -15.7607 C   0  0  0  0  0  0  0  0  0  0  0  0
   17.2751  -17.1642  -15.0310 C   0  0  0  0  0  0  0  0  0  0  0  0
   16.4081  -16.6163  -16.0377 N   0  0  0  0  0  0  0  0  0  0  0  0
   20.8358  -20.7424  -13.0987 C   0  0  0  0  0  0  0  0  0  0  0  0
   20.7022  -22.1003  -13.0543 O   0  0  0  0  0  0  0  0  0  0  0  0
   20.4106  -20.1531  -12.0271 O   0  0  0  0  0  0  0  0  0  0  0  0
  2  1  1  6
  3  2  1  0
  3  4  1  0
  4  5  2  0
  5  6  1  0
  7  6  1  0
  8  4  1  0
  8  7  2  0
  9 18  1  0
  9  2  1  0
 10  9  2  0
 12 11  1  0
 13 12  2  0
 14 13  1  0
 15 14  2  0
 15 21  1  0
 16 15  1  0
 17 16  1  1
 17 18  1  0
 19 23  1  0
 19 17  1  0
 20 19  2  0
 21 22  2  0
 22 12  1  0
 24 23  1  0
 24 30  1  0
 24 25  1  6
 26 25  1  0
 27 28  1  0
 27 26  1  0
 28 29  1  0
 30 31  1  0
 32 30  2  0
M  END
$$$$
