HYK.pdb
     RDKit          3D

 32 33  0  0  1  0  0  0  0  0999 V2000
   22.3827  -23.9813  -19.4817 N   0  0  0  0  0  0  0  0  0  0  0  0
   23.2624  -25.0371  -20.0083 C   0  0  1  0  0  0  0  0  0  0  0  0
   23.9236  -24.4607  -21.2324 C   0  0  0  0  0  0  0  0  0  0  0  0
   23.0133  -24.3938  -22.3902 C   0  0  0  0  0  0  0  0  0  0  0  0
   22.9818  -25.3490  -23.3843 C   0  0  0  0  0  0  0  0  0  0  0  0
   22.0572  -25.0089  -24.2892 N   0  0  0  0  0  0  0  0  0  0  0  0
   21.5003  -23.8638  -23.8972 C   0  0  0  0  0  0  0  0  0  0  0  0
   22.0855  -23.4809  -22.7286 N   0  0  0  0  0  0  0  0  0  0  0  0
   24.3327  -25.2460  -18.9917 C   0  0  0  0  0  0  0  0  0  0  0  0
   24.8605  -24.1989  -18.5023 O   0  0  0  0  0  0  0  0  0  0  0  0
   21.8693  -23.7800  -13.3815 O   0  0  0  0  0  0  0  0  0  0  0  0
   22.6979  -24.6429  -14.1093 C   0  0  0  0  0  0  0  0  0  0  0  0
   24.0746  -24.5950  -14.0144 C   0  0  0  0  0  0  0  0  0  0  0  0
   24.8788  -25.4581  -14.7433 C   0  0  0  0  0  0  0  0  0  0  0  0
   24.3228  -26.4001  -15.5937 C   0  0  0  0  0  0  0  0  0  0  0  0
   25.1755  -27.3238  -16.3778 C   0  0  0  0  0  0  0  0  0  0  0  0
   25.8054  -26.7158  -17.5804 C   0  0  2  0  0  0  0  0  0  0  0  0
   24.7536  -26.5409  -18.5794 N   0  0  0  0  0  0  0  0  0  0  0  0
   26.9507  -27.4710  -18.1342 C   0  0  0  0  0  0  0  0  0  0  0  0
   26.7069  -28.3485  -18.9921 O   0  0  0  0  0  0  0  0  0  0  0  0
   22.9464  -26.4298  -15.6727 C   0  0  0  0  0  0  0  0  0  0  0  0
   22.1400  -25.5683  -14.9453 C   0  0  0  0  0  0  0  0  0  0  0  0
   28.2840  -27.2625  -17.7566 N   0  0  0  0  0  0  0  0  0  0  0  0
   29.3857  -28.1258  -18.3890 C   0  0  1  0  0  0  0  0  0  0  0  0
   30.5830  -27.2728  -18.4253 C   0  0  0  0  0  0  0  0  0  0  0  0
   31.8095  -27.7369  -19.0507 C   0  0  0  0  0  0  0  0  0  0  0  0
   33.0191  -26.9115  -19.1851 C   0  0  0  0  0  0  0  0  0  0  0  0
   34.1499  -27.7130  -19.8878 C   0  0  0  0  0  0  0  0  0  0  0  0
   35.2313  -26.7969  -20.1256 N   0  0  0  0  0  0  0  0  0  0  0  0
   29.4253  -29.3278  -17.5246 C   0  0  0  0  0  0  0  0  0  0  0  0
   29.6667  -30.6225  -17.8838 O   0  0  0  0  0  0  0  0  0  0  0  0
   29.2033  -29.1834  -16.2572 O   0  0  0  0  0  0  0  0  0  0  0  0
  2  1  1  1
  3  2  1  0
  3  4  1  0
  4  5  2  0
  5  6  1  0
  7  6  1  0
  8  4  1  0
  8  7  2  0
  9 18  1  0
  9  2  1  0
 10  9  2  0
 12 11  1  0
 13 12  2  0
 14 13  1  0
 15 14  2  0
 15 21  1  0
 16 15  1  0
 17 16  1  1
 17 18  1  0
 19 23  1  0
 19 17  1  0
 20 19  2  0
 21 22  2  0
 22 12  1  0
 24 23  1  0
 24 30  1  0
 24 25  1  1
 26 25  1  0
 27 28  1  0
 27 26  1  0
 28 29  1  0
 30 31  1  0
 32 30  2  0
M  END
$$$$
