HYK.pdb
     RDKit          3D

 32 33  0  0  1  0  0  0  0  0999 V2000
   21.5251  -13.4816  -20.5115 N   0  0  0  0  0  0  0  0  0  0  0  0
   21.1430  -12.0605  -20.4875 C   0  0  1  0  0  0  0  0  0  0  0  0
   19.8183  -11.9701  -21.1983 C   0  0  0  0  0  0  0  0  0  0  0  0
   19.9400  -12.1777  -22.6529 C   0  0  0  0  0  0  0  0  0  0  0  0
   19.3590  -13.2372  -23.3173 C   0  0  0  0  0  0  0  0  0  0  0  0
   19.6490  -13.1490  -24.6202 N   0  0  0  0  0  0  0  0  0  0  0  0
   20.3984  -12.0625  -24.8018 C   0  0  0  0  0  0  0  0  0  0  0  0
   20.5805  -11.4610  -23.5936 N   0  0  0  0  0  0  0  0  0  0  0  0
   20.8968  -11.7096  -19.0597 C   0  0  0  0  0  0  0  0  0  0  0  0
   20.3880  -12.6194  -18.3330 O   0  0  0  0  0  0  0  0  0  0  0  0
   21.7040   -8.0867  -11.0407 O   0  0  0  0  0  0  0  0  0  0  0  0
   21.8222   -8.4928  -12.3756 C   0  0  0  0  0  0  0  0  0  0  0  0
   21.9919   -9.8166  -12.7297 C   0  0  0  0  0  0  0  0  0  0  0  0
   22.1071  -10.1995  -14.0575 C   0  0  0  0  0  0  0  0  0  0  0  0
   22.0551   -9.2608  -15.0751 C   0  0  0  0  0  0  0  0  0  0  0  0
   22.1800   -9.6619  -16.4959 C   0  0  0  0  0  0  0  0  0  0  0  0
   20.9072  -10.0960  -17.1317 C   0  0  2  0  0  0  0  0  0  0  0  0
   21.2085  -10.4300  -18.5218 N   0  0  0  0  0  0  0  0  0  0  0  0
   19.8002   -9.1186  -17.0429 C   0  0  0  0  0  0  0  0  0  0  0  0
   19.8528   -8.1131  -17.7856 O   0  0  0  0  0  0  0  0  0  0  0  0
   21.8851   -7.9452  -14.6984 C   0  0  0  0  0  0  0  0  0  0  0  0
   21.7697   -7.5595  -13.3720 C   0  0  0  0  0  0  0  0  0  0  0  0
   18.7031   -9.2521  -16.1812 N   0  0  0  0  0  0  0  0  0  0  0  0
   17.6117   -8.1716  -16.1848 C   0  0  1  0  0  0  0  0  0  0  0  0
   16.4053   -8.8280  -15.6592 C   0  0  0  0  0  0  0  0  0  0  0  0
   15.1062   -8.1845  -15.7534 C   0  0  0  0  0  0  0  0  0  0  0  0
   13.8389   -8.8537  -15.4239 C   0  0  0  0  0  0  0  0  0  0  0  0
   12.6320   -7.9495  -15.7990 C   0  0  0  0  0  0  0  0  0  0  0  0
   11.4411   -8.7244  -15.5831 N   0  0  0  0  0  0  0  0  0  0  0  0
   18.2028   -7.0770  -15.3811 C   0  0  0  0  0  0  0  0  0  0  0  0
   18.0842   -5.7297  -15.5669 O   0  0  0  0  0  0  0  0  0  0  0  0
   18.9398   -7.3882  -14.3631 O   0  0  0  0  0  0  0  0  0  0  0  0
  2  1  1  1
  3  2  1  0
  3  4  1  0
  4  5  2  0
  5  6  1  0
  7  6  1  0
  8  4  1  0
  8  7  2  0
  9 18  1  0
  9  2  1  0
 10  9  2  0
 12 11  1  0
 13 12  2  0
 14 13  1  0
 15 14  2  0
 15 21  1  0
 16 15  1  0
 17 16  1  6
 17 18  1  0
 19 23  1  0
 19 17  1  0
 20 19  2  0
 21 22  2  0
 22 12  1  0
 24 23  1  0
 24 30  1  0
 24 25  1  1
 26 25  1  0
 27 28  1  0
 27 26  1  0
 28 29  1  0
 30 31  1  0
 32 30  2  0
M  END
$$$$
