HYK.pdb
     RDKit          3D

 32 33  0  0  1  0  0  0  0  0999 V2000
   25.8882  -21.9624  -15.4440 N   0  0  0  0  0  0  0  0  0  0  0  0
   24.5511  -22.5221  -15.6986 C   0  0  1  0  0  0  0  0  0  0  0  0
   24.5630  -23.9147  -15.1252 C   0  0  0  0  0  0  0  0  0  0  0  0
   25.3439  -24.8589  -15.9451 C   0  0  0  0  0  0  0  0  0  0  0  0
   26.5105  -25.4525  -15.5113 C   0  0  0  0  0  0  0  0  0  0  0  0
   26.9797  -26.2521  -16.4756 N   0  0  0  0  0  0  0  0  0  0  0  0
   26.1432  -26.1829  -17.5102 C   0  0  0  0  0  0  0  0  0  0  0  0
   25.1343  -25.3264  -17.1887 N   0  0  0  0  0  0  0  0  0  0  0  0
   23.5924  -21.7228  -14.8835 C   0  0  0  0  0  0  0  0  0  0  0  0
   23.9788  -21.3909  -13.7194 O   0  0  0  0  0  0  0  0  0  0  0  0
   17.5849  -15.7313  -12.5574 O   0  0  0  0  0  0  0  0  0  0  0  0
   18.4946  -16.5870  -13.1909 C   0  0  0  0  0  0  0  0  0  0  0  0
   19.8186  -16.6673  -12.8074 C   0  0  0  0  0  0  0  0  0  0  0  0
   20.7047  -17.5209  -13.4469 C   0  0  0  0  0  0  0  0  0  0  0  0
   20.2868  -18.3237  -14.4959 C   0  0  0  0  0  0  0  0  0  0  0  0
   21.2283  -19.2363  -15.1859 C   0  0  0  0  0  0  0  0  0  0  0  0
   21.3857  -20.5676  -14.5413 C   0  0  2  0  0  0  0  0  0  0  0  0
   22.3094  -21.3426  -15.3664 N   0  0  0  0  0  0  0  0  0  0  0  0
   20.1230  -21.3040  -14.3137 C   0  0  0  0  0  0  0  0  0  0  0  0
   19.5792  -21.8433  -15.3032 O   0  0  0  0  0  0  0  0  0  0  0  0
   18.9608  -18.2269  -14.8619 C   0  0  0  0  0  0  0  0  0  0  0  0
   18.0727  -17.3746  -14.2244 C   0  0  0  0  0  0  0  0  0  0  0  0
   19.5041  -21.4322  -13.0629 N   0  0  0  0  0  0  0  0  0  0  0  0
   18.2414  -22.2973  -12.9368 C   0  0  1  0  0  0  0  0  0  0  0  0
   18.5921  -23.3721  -11.9966 C   0  0  0  0  0  0  0  0  0  0  0  0
   18.1101  -23.3497  -10.6262 C   0  0  0  0  0  0  0  0  0  0  0  0
   18.2932  -24.4597   -9.6792 C   0  0  0  0  0  0  0  0  0  0  0  0
   17.8210  -24.0462   -8.2576 C   0  0  0  0  0  0  0  0  0  0  0  0
   18.0375  -25.1756   -7.3959 N   0  0  0  0  0  0  0  0  0  0  0  0
   17.1987  -21.3324  -12.5182 C   0  0  0  0  0  0  0  0  0  0  0  0
   17.3531  -20.1615  -11.8334 O   0  0  0  0  0  0  0  0  0  0  0  0
   15.9648  -21.5917  -12.8125 O   0  0  0  0  0  0  0  0  0  0  0  0
  2  1  1  1
  3  2  1  0
  3  4  1  0
  4  5  2  0
  5  6  1  0
  7  6  1  0
  8  4  1  0
  8  7  2  0
  9 18  1  0
  9  2  1  0
 10  9  2  0
 12 11  1  0
 13 12  2  0
 14 13  1  0
 15 14  2  0
 15 21  1  0
 16 15  1  0
 17 16  1  6
 17 18  1  0
 19 23  1  0
 19 17  1  0
 20 19  2  0
 21 22  2  0
 22 12  1  0
 24 23  1  0
 24 30  1  0
 24 25  1  1
 26 25  1  0
 27 28  1  0
 27 26  1  0
 28 29  1  0
 30 31  1  0
 32 30  2  0
M  END
$$$$
