HYK.pdb
     RDKit          3D

 32 33  0  0  1  0  0  0  0  0999 V2000
   23.8401  -12.7212  -17.4042 N   0  0  0  0  0  0  0  0  0  0  0  0
   23.0642  -11.6767  -18.0919 C   0  0  1  0  0  0  0  0  0  0  0  0
   21.7770  -12.3271  -18.5255 C   0  0  0  0  0  0  0  0  0  0  0  0
   21.9767  -13.3226  -19.5945 C   0  0  0  0  0  0  0  0  0  0  0  0
   22.6374  -13.0458  -20.7727 C   0  0  0  0  0  0  0  0  0  0  0  0
   22.6544  -14.1455  -21.5340 N   0  0  0  0  0  0  0  0  0  0  0  0
   22.0226  -15.1136  -20.8718 C   0  0  0  0  0  0  0  0  0  0  0  0
   21.6034  -14.6121  -19.6770 N   0  0  0  0  0  0  0  0  0  0  0  0
   22.7130  -10.6586  -17.0610 C   0  0  0  0  0  0  0  0  0  0  0  0
   22.3206  -11.1032  -15.9372 O   0  0  0  0  0  0  0  0  0  0  0  0
   21.6691   -2.4476  -13.6151 O   0  0  0  0  0  0  0  0  0  0  0  0
   22.0821   -3.6152  -14.2687 C   0  0  0  0  0  0  0  0  0  0  0  0
   22.3061   -4.7975  -13.5915 C   0  0  0  0  0  0  0  0  0  0  0  0
   22.7149   -5.9437  -14.2563 C   0  0  0  0  0  0  0  0  0  0  0  0
   22.9123   -5.9380  -15.6276 C   0  0  0  0  0  0  0  0  0  0  0  0
   23.3516   -7.1579  -16.3445 C   0  0  0  0  0  0  0  0  0  0  0  0
   22.3811   -8.2845  -16.3032 C   0  0  2  0  0  0  0  0  0  0  0  0
   22.8060   -9.2601  -17.3044 N   0  0  0  0  0  0  0  0  0  0  0  0
   20.9667   -7.8972  -16.4984 C   0  0  0  0  0  0  0  0  0  0  0  0
   20.5600   -7.7575  -17.6734 O   0  0  0  0  0  0  0  0  0  0  0  0
   22.6828   -4.7467  -16.2831 C   0  0  0  0  0  0  0  0  0  0  0  0
   22.2741   -3.5993  -15.6212 C   0  0  0  0  0  0  0  0  0  0  0  0
   20.0614   -7.6789  -15.4512 N   0  0  0  0  0  0  0  0  0  0  0  0
   18.6242   -7.2488  -15.7804 C   0  0  1  0  0  0  0  0  0  0  0  0
   17.7757   -8.3904  -15.4073 C   0  0  0  0  0  0  0  0  0  0  0  0
   16.3297   -8.3137  -15.5252 C   0  0  0  0  0  0  0  0  0  0  0  0
   15.4254   -9.4293  -15.2086 C   0  0  0  0  0  0  0  0  0  0  0  0
   13.9557   -9.0502  -15.5415 C   0  0  0  0  0  0  0  0  0  0  0  0
   13.1322  -10.1549  -15.1335 N   0  0  0  0  0  0  0  0  0  0  0  0
   18.4545   -5.9898  -15.0191 C   0  0  0  0  0  0  0  0  0  0  0  0
   17.7897   -4.8571  -15.3916 O   0  0  0  0  0  0  0  0  0  0  0  0
   18.9927   -5.9020  -13.8448 O   0  0  0  0  0  0  0  0  0  0  0  0
  2  1  1  1
  3  2  1  0
  3  4  1  0
  4  5  2  0
  5  6  1  0
  7  6  1  0
  8  4  1  0
  8  7  2  0
  9 18  1  0
  9  2  1  0
 10  9  2  0
 12 11  1  0
 13 12  2  0
 14 13  1  0
 15 14  2  0
 15 21  1  0
 16 15  1  0
 17 16  1  6
 17 18  1  0
 19 23  1  0
 19 17  1  0
 20 19  2  0
 21 22  2  0
 22 12  1  0
 24 23  1  0
 24 30  1  0
 24 25  1  1
 26 25  1  0
 27 28  1  0
 27 26  1  0
 28 29  1  0
 30 31  1  0
 32 30  2  0
M  END
$$$$
