HYK.pdb
     RDKit          3D

 32 33  0  0  1  0  0  0  0  0999 V2000
   24.9339  -14.7618  -23.5742 N   0  0  0  0  0  0  0  0  0  0  0  0
   24.0762  -15.6678  -24.3550 C   0  0  1  0  0  0  0  0  0  0  0  0
   24.6769  -17.0414  -24.2120 C   0  0  0  0  0  0  0  0  0  0  0  0
   25.9102  -17.2061  -25.0029 C   0  0  0  0  0  0  0  0  0  0  0  0
   27.0799  -17.7188  -24.4830 C   0  0  0  0  0  0  0  0  0  0  0  0
   28.0122  -17.7420  -25.4421 N   0  0  0  0  0  0  0  0  0  0  0  0
   27.4668  -17.2580  -26.5571 C   0  0  0  0  0  0  0  0  0  0  0  0
   26.1727  -16.9266  -26.2921 N   0  0  0  0  0  0  0  0  0  0  0  0
   22.7525  -15.6969  -23.6699 C   0  0  0  0  0  0  0  0  0  0  0  0
   22.7046  -15.1824  -22.5091 O   0  0  0  0  0  0  0  0  0  0  0  0
   20.2944   -9.8235  -22.8821 O   0  0  0  0  0  0  0  0  0  0  0  0
   20.0981  -11.1613  -23.2465 C   0  0  0  0  0  0  0  0  0  0  0  0
   20.8100  -11.7577  -24.2683 C   0  0  0  0  0  0  0  0  0  0  0  0
   20.6016  -13.0841  -24.6147 C   0  0  0  0  0  0  0  0  0  0  0  0
   19.6677  -13.8561  -23.9427 C   0  0  0  0  0  0  0  0  0  0  0  0
   19.4375  -15.2731  -24.3088 C   0  0  0  0  0  0  0  0  0  0  0  0
   20.3007  -16.2474  -23.5888 C   0  0  2  0  0  0  0  0  0  0  0  0
   21.5940  -16.2660  -24.2682 N   0  0  0  0  0  0  0  0  0  0  0  0
   19.7380  -17.6104  -23.4694 C   0  0  0  0  0  0  0  0  0  0  0  0
   19.8814  -18.3848  -24.4418 O   0  0  0  0  0  0  0  0  0  0  0  0
   18.9686  -13.2400  -22.9262 C   0  0  0  0  0  0  0  0  0  0  0  0
   19.1748  -11.9142  -22.5777 C   0  0  0  0  0  0  0  0  0  0  0  0
   19.0582  -18.0822  -22.3384 N   0  0  0  0  0  0  0  0  0  0  0  0
   18.4924  -19.5100  -22.3457 C   0  0  1  0  0  0  0  0  0  0  0  0
   18.8529  -20.0836  -21.0405 C   0  0  0  0  0  0  0  0  0  0  0  0
   18.5204  -21.4598  -20.7143 C   0  0  0  0  0  0  0  0  0  0  0  0
   18.8047  -22.0805  -19.4118 C   0  0  0  0  0  0  0  0  0  0  0  0
   18.3999  -23.5808  -19.4237 C   0  0  0  0  0  0  0  0  0  0  0  0
   18.6883  -24.1059  -18.1174 N   0  0  0  0  0  0  0  0  0  0  0  0
   17.0532  -19.3128  -22.6347 C   0  0  0  0  0  0  0  0  0  0  0  0
   16.1678  -20.2004  -23.1748 O   0  0  0  0  0  0  0  0  0  0  0  0
   16.5213  -18.1643  -22.3617 O   0  0  0  0  0  0  0  0  0  0  0  0
  2  1  1  1
  3  2  1  0
  3  4  1  0
  4  5  2  0
  5  6  1  0
  7  6  1  0
  8  4  1  0
  8  7  2  0
  9 18  1  0
  9  2  1  0
 10  9  2  0
 12 11  1  0
 13 12  2  0
 14 13  1  0
 15 14  2  0
 15 21  1  0
 16 15  1  0
 17 16  1  6
 17 18  1  0
 19 23  1  0
 19 17  1  0
 20 19  2  0
 21 22  2  0
 22 12  1  0
 24 23  1  0
 24 30  1  0
 24 25  1  1
 26 25  1  0
 27 28  1  0
 27 26  1  0
 28 29  1  0
 30 31  1  0
 32 30  2  0
M  END
$$$$
