HYK.pdb
     RDKit          3D

 32 33  0  0  1  0  0  0  0  0999 V2000
   27.9708  -21.2882  -17.1129 N   0  0  0  0  0  0  0  0  0  0  0  0
   26.9024  -20.2944  -16.9209 C   0  0  1  0  0  0  0  0  0  0  0  0
   26.0487  -20.3513  -18.1603 C   0  0  0  0  0  0  0  0  0  0  0  0
   26.5511  -19.4767  -19.2356 C   0  0  0  0  0  0  0  0  0  0  0  0
   27.2834  -18.3323  -19.0002 C   0  0  0  0  0  0  0  0  0  0  0  0
   27.5905  -17.7606  -20.1699 N   0  0  0  0  0  0  0  0  0  0  0  0
   27.0732  -18.5104  -21.1421 C   0  0  0  0  0  0  0  0  0  0  0  0
   26.4323  -19.5683  -20.5721 N   0  0  0  0  0  0  0  0  0  0  0  0
   26.0633  -20.7841  -15.7902 C   0  0  0  0  0  0  0  0  0  0  0  0
   26.0097  -22.0434  -15.6292 O   0  0  0  0  0  0  0  0  0  0  0  0
   30.4326  -21.4001  -11.0457 O   0  0  0  0  0  0  0  0  0  0  0  0
   29.1424  -20.9927  -11.4065 C   0  0  0  0  0  0  0  0  0  0  0  0
   28.0105  -21.5625  -10.8580 C   0  0  0  0  0  0  0  0  0  0  0  0
   26.7408  -21.1455  -11.2279 C   0  0  0  0  0  0  0  0  0  0  0  0
   26.5677  -20.1390  -12.1642 C   0  0  0  0  0  0  0  0  0  0  0  0
   25.2144  -19.6900  -12.5665 C   0  0  0  0  0  0  0  0  0  0  0  0
   24.6509  -20.3997  -13.7461 C   0  0  2  0  0  0  0  0  0  0  0  0
   25.3535  -19.9037  -14.9272 N   0  0  0  0  0  0  0  0  0  0  0  0
   23.1849  -20.2802  -13.9047 C   0  0  0  0  0  0  0  0  0  0  0  0
   22.7276  -19.1693  -14.2545 O   0  0  0  0  0  0  0  0  0  0  0  0
   27.7117  -19.5846  -12.6986 C   0  0  0  0  0  0  0  0  0  0  0  0
   28.9822  -19.9993  -12.3307 C   0  0  0  0  0  0  0  0  0  0  0  0
   22.2841  -21.3315  -13.6875 N   0  0  0  0  0  0  0  0  0  0  0  0
   20.7759  -21.0582  -13.7849 C   0  0  1  0  0  0  0  0  0  0  0  0
   20.1395  -22.3816  -13.8610 C   0  0  0  0  0  0  0  0  0  0  0  0
   19.7865  -23.1090  -12.6538 C   0  0  0  0  0  0  0  0  0  0  0  0
   19.1007  -24.4098  -12.6567 C   0  0  0  0  0  0  0  0  0  0  0  0
   18.8883  -24.9166  -11.2032 C   0  0  0  0  0  0  0  0  0  0  0  0
   18.1512  -26.1473  -11.2890 N   0  0  0  0  0  0  0  0  0  0  0  0
   20.4945  -20.2290  -12.5905 C   0  0  0  0  0  0  0  0  0  0  0  0
   21.2110  -20.1409  -11.4318 O   0  0  0  0  0  0  0  0  0  0  0  0
   19.4405  -19.4769  -12.5964 O   0  0  0  0  0  0  0  0  0  0  0  0
  2  1  1  6
  3  2  1  0
  3  4  1  0
  4  5  2  0
  5  6  1  0
  7  6  1  0
  8  4  1  0
  8  7  2  0
  9 18  1  0
  9  2  1  0
 10  9  2  0
 12 11  1  0
 13 12  2  0
 14 13  1  0
 15 14  2  0
 15 21  1  0
 16 15  1  0
 17 16  1  1
 17 18  1  0
 19 23  1  0
 19 17  1  0
 20 19  2  0
 21 22  2  0
 22 12  1  0
 24 23  1  0
 24 30  1  0
 24 25  1  1
 26 25  1  0
 27 28  1  0
 27 26  1  0
 28 29  1  0
 30 31  1  0
 32 30  2  0
M  END
$$$$
