HYK.pdb
     RDKit          3D

 32 33  0  0  1  0  0  0  0  0999 V2000
   29.1029  -21.5789  -18.2968 N   0  0  0  0  0  0  0  0  0  0  0  0
   28.0992  -20.5676  -17.9280 C   0  0  1  0  0  0  0  0  0  0  0  0
   27.0599  -20.5911  -19.0176 C   0  0  0  0  0  0  0  0  0  0  0  0
   27.4849  -19.8557  -20.2227 C   0  0  0  0  0  0  0  0  0  0  0  0
   26.9501  -18.6406  -20.5957 C   0  0  0  0  0  0  0  0  0  0  0  0
   27.5381  -18.2318  -21.7256 N   0  0  0  0  0  0  0  0  0  0  0  0
   28.4319  -19.1538  -22.0806 C   0  0  0  0  0  0  0  0  0  0  0  0
   28.4031  -20.1557  -21.1585 N   0  0  0  0  0  0  0  0  0  0  0  0
   27.4387  -21.0569  -16.6843 C   0  0  0  0  0  0  0  0  0  0  0  0
   27.3652  -22.3172  -16.5408 O   0  0  0  0  0  0  0  0  0  0  0  0
   24.5235  -20.9953   -8.2653 O   0  0  0  0  0  0  0  0  0  0  0  0
   25.0397  -20.6720   -9.5262 C   0  0  0  0  0  0  0  0  0  0  0  0
   24.3352  -19.9087  -10.4360 C   0  0  0  0  0  0  0  0  0  0  0  0
   24.8632  -19.5987  -11.6802 C   0  0  0  0  0  0  0  0  0  0  0  0
   26.1205  -20.0477  -12.0508 C   0  0  0  0  0  0  0  0  0  0  0  0
   26.6902  -19.7229  -13.3793 C   0  0  0  0  0  0  0  0  0  0  0  0
   26.3307  -20.6810  -14.4590 C   0  0  2  0  0  0  0  0  0  0  0  0
   26.9129  -20.1748  -15.6997 N   0  0  0  0  0  0  0  0  0  0  0  0
   24.8811  -20.9343  -14.6112 C   0  0  0  0  0  0  0  0  0  0  0  0
   24.1990  -20.0667  -15.2008 O   0  0  0  0  0  0  0  0  0  0  0  0
   26.8057  -20.8082  -11.1268 C   0  0  0  0  0  0  0  0  0  0  0  0
   26.2804  -21.1195   -9.8823 C   0  0  0  0  0  0  0  0  0  0  0  0
   24.2312  -22.0817  -14.1367 N   0  0  0  0  0  0  0  0  0  0  0  0
   22.7204  -22.2359  -14.3658 C   0  0  1  0  0  0  0  0  0  0  0  0
   22.4459  -23.6742  -14.2310 C   0  0  0  0  0  0  0  0  0  0  0  0
   22.9771  -24.6271  -15.1906 C   0  0  0  0  0  0  0  0  0  0  0  0
   22.7865  -26.0815  -15.0864 C   0  0  0  0  0  0  0  0  0  0  0  0
   23.4684  -26.8068  -16.2796 C   0  0  0  0  0  0  0  0  0  0  0  0
   23.2684  -28.2167  -16.0864 N   0  0  0  0  0  0  0  0  0  0  0  0
   22.1214  -21.3259  -13.3625 C   0  0  0  0  0  0  0  0  0  0  0  0
   20.9951  -20.5629  -13.4757 O   0  0  0  0  0  0  0  0  0  0  0  0
   22.7089  -21.2003  -12.2155 O   0  0  0  0  0  0  0  0  0  0  0  0
  2  1  1  6
  3  2  1  0
  3  4  1  0
  4  5  2  0
  5  6  1  0
  7  6  1  0
  8  4  1  0
  8  7  2  0
  9 18  1  0
  9  2  1  0
 10  9  2  0
 12 11  1  0
 13 12  2  0
 14 13  1  0
 15 14  2  0
 15 21  1  0
 16 15  1  0
 17 16  1  1
 17 18  1  0
 19 23  1  0
 19 17  1  0
 20 19  2  0
 21 22  2  0
 22 12  1  0
 24 23  1  0
 24 30  1  0
 24 25  1  1
 26 25  1  0
 27 28  1  0
 27 26  1  0
 28 29  1  0
 30 31  1  0
 32 30  2  0
M  END
$$$$
