SRD.pdb
     RDKit          3D

 26 25  0  0  1  0  0  0  0  0999 V2000
    5.9564  -21.0032   24.1386 O   0  0  0  0  0  0  0  0  0  0  0  0
    4.7961  -20.3662   23.7198 C   0  0  0  0  0  0  0  0  0  0  0  0
    4.8375  -20.1018   22.2274 C   0  0  2  0  0  0  0  0  0  0  0  0
    5.0061  -21.3960   21.5809 N   0  0  0  0  0  0  0  0  0  0  0  0
    6.0408  -19.2870   21.8783 C   0  0  0  0  0  0  0  0  0  0  0  0
    7.0645  -19.7906   21.3511 O   0  0  0  0  0  0  0  0  0  0  0  0
    8.3448  -13.1921   17.6345 N   0  0  0  0  0  0  0  0  0  0  0  0
    8.9912  -12.9265   18.8730 C   0  0  0  0  0  0  0  0  0  0  0  0
   10.2805  -13.0008   18.9727 N   0  0  0  0  0  0  0  0  0  0  0  0
    8.2661  -12.5731   20.0367 N   0  0  0  0  0  0  0  0  0  0  0  0
    7.2298  -13.3978   20.6073 C   0  0  0  0  0  0  0  0  0  0  0  0
    7.8198  -14.7625   21.0010 C   0  0  0  0  0  0  0  0  0  0  0  0
    6.7676  -15.6668   21.5387 C   0  0  0  0  0  0  0  0  0  0  0  0
    7.2390  -17.0758   21.7950 C   0  0  2  0  0  0  0  0  0  0  0  0
    6.0732  -17.8885   22.1332 N   0  0  0  0  0  0  0  0  0  0  0  0
    8.2338  -17.0903   22.8768 C   0  0  0  0  0  0  0  0  0  0  0  0
    7.9518  -17.0434   24.0987 O   0  0  0  0  0  0  0  0  0  0  0  0
   10.7719  -12.8518   19.8946 N   0  0  0  0  0  0  0  0  0  0  0  0
    9.6534  -17.1616   22.6226 C   0  0  2  0  0  0  0  0  0  0  0  0
   10.6345  -17.1678   23.6865 C   0  0  0  0  0  0  0  0  0  0  0  0
   12.0483  -17.2355   23.1671 C   0  0  0  0  0  0  0  0  0  0  0  0
   12.3856  -18.4942   22.5155 O   0  0  0  0  0  0  0  0  0  0  0  0
   11.6942  -19.5150   22.7358 C   0  0  0  0  0  0  0  0  0  0  0  0
   10.4324  -15.9388   24.4907 O   0  0  0  0  0  0  0  0  0  0  0  0
    9.7597  -14.8330   23.9932 O   0  0  0  0  0  0  0  0  0  0  0  0
   13.4568  -18.5981   21.6512 O   0  0  0  0  0  0  0  0  0  0  0  0
  2  1  1  0
  3  5  1  0
  3  2  1  0
  3  4  1  6
  5  6  2  0
  8  7  1  0
  8  9  2  0
 10  8  1  0
 11 10  1  0
 11 12  1  0
 12 13  1  0
 14 13  1  1
 15 14  1  0
 15  5  1  0
 16 17  2  0
 16 14  1  0
 18 16  1  0
 19 23  1  0
 19 18  1  0
 19 20  1  6
 21 20  1  0
 22 21  2  0
 23 24  1  0
 25 21  1  0
 26 23  2  0
M  END
$$$$
