SRD.pdb
     RDKit          3D

 26 25  0  0  1  0  0  0  0  0999 V2000
    9.6907  -17.9745   15.4193 O   0  0  0  0  0  0  0  0  0  0  0  0
    8.6776  -17.2089   14.8582 C   0  0  0  0  0  0  0  0  0  0  0  0
    9.0911  -15.7529   14.7697 C   0  0  2  0  0  0  0  0  0  0  0  0
   10.2197  -15.6969   13.8507 N   0  0  0  0  0  0  0  0  0  0  0  0
    9.5913  -15.2744   16.0943 C   0  0  0  0  0  0  0  0  0  0  0  0
   10.8168  -15.1688   16.3525 O   0  0  0  0  0  0  0  0  0  0  0  0
    7.2785  -13.5094   25.1908 N   0  0  0  0  0  0  0  0  0  0  0  0
    7.5751  -13.8410   23.8401 C   0  0  0  0  0  0  0  0  0  0  0  0
    8.0188  -15.0186   23.5329 N   0  0  0  0  0  0  0  0  0  0  0  0
    7.4012  -12.9133   22.7846 N   0  0  0  0  0  0  0  0  0  0  0  0
    7.0345  -13.2964   21.4436 C   0  0  0  0  0  0  0  0  0  0  0  0
    8.2757  -13.8231   20.7037 C   0  0  0  0  0  0  0  0  0  0  0  0
    7.9625  -14.1305   19.2819 C   0  0  0  0  0  0  0  0  0  0  0  0
    9.1499  -14.5923   18.4759 C   0  0  2  0  0  0  0  0  0  0  0  0
    8.6849  -14.9144   17.1290 N   0  0  0  0  0  0  0  0  0  0  0  0
    9.7788  -15.7554   19.1176 C   0  0  0  0  0  0  0  0  0  0  0  0
    9.8897  -16.8852   18.5828 O   0  0  0  0  0  0  0  0  0  0  0  0
    8.1598  -15.3100   22.5285 N   0  0  0  0  0  0  0  0  0  0  0  0
   10.3362  -15.6985   20.4483 C   0  0  2  0  0  0  0  0  0  0  0  0
   11.1775  -16.7470   20.9845 C   0  0  0  0  0  0  0  0  0  0  0  0
   12.4521  -16.9224   20.1987 C   0  0  0  0  0  0  0  0  0  0  0  0
   13.3541  -17.9300   20.7407 O   0  0  0  0  0  0  0  0  0  0  0  0
   13.0275  -18.5729   21.7648 C   0  0  0  0  0  0  0  0  0  0  0  0
   11.4773  -16.4044   22.3955 O   0  0  0  0  0  0  0  0  0  0  0  0
   12.2458  -17.2246   23.2075 O   0  0  0  0  0  0  0  0  0  0  0  0
   14.5729  -18.2027   20.1528 O   0  0  0  0  0  0  0  0  0  0  0  0
  2  1  1  0
  3  5  1  0
  3  2  1  0
  3  4  1  6
  5  6  2  0
  8  7  1  0
  8  9  2  0
 10  8  1  0
 11 10  1  0
 11 12  1  0
 12 13  1  0
 14 13  1  1
 15 14  1  0
 15  5  1  0
 16 17  2  0
 16 14  1  0
 18 16  1  0
 19 23  1  0
 19 18  1  0
 19 20  1  1
 21 20  1  0
 22 21  2  0
 23 24  1  0
 25 21  1  0
 26 23  2  0
M  END
$$$$
