SRD.pdb
     RDKit          3D

 26 25  0  0  1  0  0  0  0  0999 V2000
   14.7470  -17.5926   16.5520 O   0  0  0  0  0  0  0  0  0  0  0  0
   13.7067  -16.9274   15.9172 C   0  0  0  0  0  0  0  0  0  0  0  0
   13.8853  -15.4256   16.0242 C   0  0  2  0  0  0  0  0  0  0  0  0
   15.2364  -15.1343   15.5649 N   0  0  0  0  0  0  0  0  0  0  0  0
   13.8152  -14.9954   17.4538 C   0  0  0  0  0  0  0  0  0  0  0  0
   14.8440  -14.8020   18.1493 O   0  0  0  0  0  0  0  0  0  0  0  0
    6.0803  -12.7303   19.6123 N   0  0  0  0  0  0  0  0  0  0  0  0
    6.8050  -13.5929   18.7445 C   0  0  0  0  0  0  0  0  0  0  0  0
    6.1841  -14.4519   17.9999 N   0  0  0  0  0  0  0  0  0  0  0  0
    8.2176  -13.5526   18.6552 N   0  0  0  0  0  0  0  0  0  0  0  0
    9.0331  -12.6180   19.3908 C   0  0  0  0  0  0  0  0  0  0  0  0
   10.5159  -12.8655   19.0658 C   0  0  0  0  0  0  0  0  0  0  0  0
   11.0337  -14.0546   19.7950 C   0  0  0  0  0  0  0  0  0  0  0  0
   12.4737  -14.3831   19.4928 C   0  0  2  0  0  0  0  0  0  0  0  0
   12.5616  -14.7851   18.0911 N   0  0  0  0  0  0  0  0  0  0  0  0
   12.9506  -15.4483   20.3861 C   0  0  0  0  0  0  0  0  0  0  0  0
   12.6913  -16.6669   20.2364 O   0  0  0  0  0  0  0  0  0  0  0  0
    6.7091  -15.1311   17.3862 N   0  0  0  0  0  0  0  0  0  0  0  0
   13.7774  -15.1798   21.5391 C   0  0  1  0  0  0  0  0  0  0  0  0
   14.2439  -16.2271   22.4224 C   0  0  0  0  0  0  0  0  0  0  0  0
   15.5798  -15.9060   23.0428 C   0  0  0  0  0  0  0  0  0  0  0  0
   16.6345  -15.6246   22.0778 O   0  0  0  0  0  0  0  0  0  0  0  0
   17.0631  -16.5400   21.3382 C   0  0  0  0  0  0  0  0  0  0  0  0
   13.2144  -16.4209   23.4716 O   0  0  0  0  0  0  0  0  0  0  0  0
   13.3370  -17.3889   24.4568 O   0  0  0  0  0  0  0  0  0  0  0  0
   17.1827  -14.3641   21.9508 O   0  0  0  0  0  0  0  0  0  0  0  0
  2  1  1  0
  3  5  1  0
  3  2  1  0
  3  4  1  1
  5  6  2  0
  8  7  1  0
  8  9  2  0
 10  8  1  0
 11 10  1  0
 11 12  1  0
 12 13  1  0
 14 13  1  1
 15 14  1  0
 15  5  1  0
 16 17  2  0
 16 14  1  0
 18 16  1  0
 19 23  1  0
 19 18  1  0
 19 20  1  1
 21 20  1  0
 22 21  2  0
 23 24  1  0
 25 21  1  0
 26 23  2  0
M  END
$$$$
