SRD.pdb
     RDKit          3D

 26 25  0  0  1  0  0  0  0  0999 V2000
    9.3027  -12.6887   20.9158 O   0  0  0  0  0  0  0  0  0  0  0  0
    8.1652  -12.6657   20.1202 C   0  0  0  0  0  0  0  0  0  0  0  0
    7.6504  -14.0712   19.8787 C   0  0  2  0  0  0  0  0  0  0  0  0
    6.4850  -13.9440   19.0145 N   0  0  0  0  0  0  0  0  0  0  0  0
    7.1719  -14.6755   21.1592 C   0  0  0  0  0  0  0  0  0  0  0  0
    6.0831  -14.3456   21.6933 O   0  0  0  0  0  0  0  0  0  0  0  0
    4.5597  -22.0134   23.3338 N   0  0  0  0  0  0  0  0  0  0  0  0
    5.8311  -21.3796   23.3977 C   0  0  0  0  0  0  0  0  0  0  0  0
    6.9190  -22.0827   23.3880 N   0  0  0  0  0  0  0  0  0  0  0  0
    5.9645  -19.9720   23.4732 N   0  0  0  0  0  0  0  0  0  0  0  0
    5.2844  -19.0616   22.5855 C   0  0  0  0  0  0  0  0  0  0  0  0
    6.3070  -18.1024   21.9533 C   0  0  0  0  0  0  0  0  0  0  0  0
    7.3571  -17.7156   22.9339 C   0  0  0  0  0  0  0  0  0  0  0  0
    7.5161  -16.2268   23.1105 C   0  0  2  0  0  0  0  0  0  0  0  0
    7.9429  -15.6626   21.8324 N   0  0  0  0  0  0  0  0  0  0  0  0
    8.4901  -15.9418   24.1735 C   0  0  0  0  0  0  0  0  0  0  0  0
    9.7352  -15.9712   24.0195 O   0  0  0  0  0  0  0  0  0  0  0  0
    7.8705  -21.6267   23.4042 N   0  0  0  0  0  0  0  0  0  0  0  0
    8.0910  -15.5953   25.5172 C   0  0  1  0  0  0  0  0  0  0  0  0
    9.0488  -15.3032   26.5621 C   0  0  0  0  0  0  0  0  0  0  0  0
    8.4546  -14.4783   27.6753 C   0  0  0  0  0  0  0  0  0  0  0  0
    7.9167  -13.1942   27.2456 O   0  0  0  0  0  0  0  0  0  0  0  0
    8.1670  -12.7672   26.0950 C   0  0  0  0  0  0  0  0  0  0  0  0
    9.5530  -16.5965   27.0831 O   0  0  0  0  0  0  0  0  0  0  0  0
   10.6129  -16.6711   27.9739 O   0  0  0  0  0  0  0  0  0  0  0  0
    7.1291  -12.4238   28.0772 O   0  0  0  0  0  0  0  0  0  0  0  0
  2  1  1  0
  3  5  1  0
  3  2  1  0
  3  4  1  6
  5  6  2  0
  8  7  1  0
  8  9  2  0
 10  8  1  0
 11 10  1  0
 11 12  1  0
 12 13  1  0
 14 13  1  6
 15 14  1  0
 15  5  1  0
 16 17  2  0
 16 14  1  0
 18 16  1  0
 19 23  1  0
 19 18  1  0
 19 20  1  6
 21 20  1  0
 22 21  2  0
 23 24  1  0
 25 21  1  0
 26 23  2  0
M  END
$$$$
