SRD.pdb
     RDKit          3D

 26 25  0  0  1  0  0  0  0  0999 V2000
    7.7126  -14.7292   16.7630 O   0  0  0  0  0  0  0  0  0  0  0  0
    8.5499  -14.6312   17.8661 C   0  0  0  0  0  0  0  0  0  0  0  0
    7.9197  -13.7704   18.9435 C   0  0  2  0  0  0  0  0  0  0  0  0
    8.3204  -12.3980   18.6658 N   0  0  0  0  0  0  0  0  0  0  0  0
    8.4837  -14.1201   20.2827 C   0  0  0  0  0  0  0  0  0  0  0  0
    9.6523  -13.8070   20.6232 O   0  0  0  0  0  0  0  0  0  0  0  0
    8.3893  -19.2636   25.5974 N   0  0  0  0  0  0  0  0  0  0  0  0
    7.7329  -18.7290   26.7400 C   0  0  0  0  0  0  0  0  0  0  0  0
    7.8774  -19.2826   27.9022 N   0  0  0  0  0  0  0  0  0  0  0  0
    6.9041  -17.5837   26.6614 N   0  0  0  0  0  0  0  0  0  0  0  0
    6.4299  -17.0310   25.4167 C   0  0  0  0  0  0  0  0  0  0  0  0
    7.6212  -16.4848   24.6118 C   0  0  0  0  0  0  0  0  0  0  0  0
    7.1664  -15.8447   23.3479 C   0  0  0  0  0  0  0  0  0  0  0  0
    8.2860  -15.3144   22.4888 C   0  0  2  0  0  0  0  0  0  0  0  0
    7.7067  -14.8316   21.2377 N   0  0  0  0  0  0  0  0  0  0  0  0
    9.2830  -16.3666   22.2462 C   0  0  0  0  0  0  0  0  0  0  0  0
    9.4687  -16.9240   21.1374 O   0  0  0  0  0  0  0  0  0  0  0  0
    7.3208  -18.9613   28.7391 N   0  0  0  0  0  0  0  0  0  0  0  0
   10.1551  -16.8617   23.2852 C   0  0  1  0  0  0  0  0  0  0  0  0
   11.5647  -17.1059   23.0664 C   0  0  0  0  0  0  0  0  0  0  0  0
   12.2568  -15.9397   22.4077 C   0  0  0  0  0  0  0  0  0  0  0  0
   12.9859  -16.2853   21.1946 O   0  0  0  0  0  0  0  0  0  0  0  0
   12.7810  -17.3880   20.6370 C   0  0  0  0  0  0  0  0  0  0  0  0
   12.1787  -17.4011   24.3832 O   0  0  0  0  0  0  0  0  0  0  0  0
   12.8701  -18.5776   24.6286 O   0  0  0  0  0  0  0  0  0  0  0  0
   13.9066  -15.4241   20.6325 O   0  0  0  0  0  0  0  0  0  0  0  0
  2  1  1  0
  3  5  1  0
  3  2  1  0
  3  4  1  6
  5  6  2  0
  8  7  1  0
  8  9  2  0
 10  8  1  0
 11 10  1  0
 11 12  1  0
 12 13  1  0
 14 13  1  1
 15 14  1  0
 15  5  1  0
 16 17  2  0
 16 14  1  0
 18 16  1  0
 19 23  1  0
 19 18  1  0
 19 20  1  1
 21 20  1  0
 22 21  2  0
 23 24  1  0
 25 21  1  0
 26 23  2  0
M  END
$$$$
