SRD.pdb
     RDKit          3D

 26 25  0  0  1  0  0  0  0  0999 V2000
   13.7976  -19.4292   16.5595 O   0  0  0  0  0  0  0  0  0  0  0  0
   12.5801  -18.7664   16.6353 C   0  0  0  0  0  0  0  0  0  0  0  0
   12.7723  -17.2708   16.4768 C   0  0  2  0  0  0  0  0  0  0  0  0
   14.1156  -17.0785   15.9479 N   0  0  0  0  0  0  0  0  0  0  0  0
   12.7355  -16.5987   17.8112 C   0  0  0  0  0  0  0  0  0  0  0  0
   13.7706  -16.1580   18.3713 O   0  0  0  0  0  0  0  0  0  0  0  0
    7.3710  -12.6247   19.0941 N   0  0  0  0  0  0  0  0  0  0  0  0
    7.3743  -13.4045   17.9049 C   0  0  0  0  0  0  0  0  0  0  0  0
    7.4670  -12.8362   16.7446 N   0  0  0  0  0  0  0  0  0  0  0  0
    7.2786  -14.8169   17.9340 N   0  0  0  0  0  0  0  0  0  0  0  0
    7.9655  -15.6393   18.8990 C   0  0  0  0  0  0  0  0  0  0  0  0
    9.2640  -14.9404   19.3360 C   0  0  0  0  0  0  0  0  0  0  0  0
   10.0321  -15.7841   20.2910 C   0  0  0  0  0  0  0  0  0  0  0  0
   11.4736  -15.9962   19.9033 C   0  0  2  0  0  0  0  0  0  0  0  0
   11.5079  -16.4297   18.5087 N   0  0  0  0  0  0  0  0  0  0  0  0
   12.0973  -16.9900   20.7884 C   0  0  0  0  0  0  0  0  0  0  0  0
   11.8623  -18.2219   20.7466 O   0  0  0  0  0  0  0  0  0  0  0  0
    7.4873  -13.4015   15.8537 N   0  0  0  0  0  0  0  0  0  0  0  0
   13.0562  -16.6277   21.8054 C   0  0  1  0  0  0  0  0  0  0  0  0
   13.7190  -17.6112   22.6349 C   0  0  0  0  0  0  0  0  0  0  0  0
   15.2129  -17.6243   22.4322 C   0  0  0  0  0  0  0  0  0  0  0  0
   15.8109  -16.3012   22.3113 O   0  0  0  0  0  0  0  0  0  0  0  0
   15.7397  -15.6820   21.2249 C   0  0  0  0  0  0  0  0  0  0  0  0
   13.3866  -17.3048   24.0469 O   0  0  0  0  0  0  0  0  0  0  0  0
   12.5535  -16.2536   24.3981 O   0  0  0  0  0  0  0  0  0  0  0  0
   16.4611  -15.7005   23.3704 O   0  0  0  0  0  0  0  0  0  0  0  0
  2  1  1  0
  3  5  1  0
  3  2  1  0
  3  4  1  1
  5  6  2  0
  8  7  1  0
  8  9  2  0
 10  8  1  0
 11 10  1  0
 11 12  1  0
 12 13  1  0
 14 13  1  1
 15 14  1  0
 15  5  1  0
 16 17  2  0
 16 14  1  0
 18 16  1  0
 19 23  1  0
 19 18  1  0
 19 20  1  6
 21 20  1  0
 22 21  2  0
 23 24  1  0
 25 21  1  0
 26 23  2  0
M  END
$$$$
