SRD.pdb
     RDKit          3D

 26 25  0  0  1  0  0  0  0  0999 V2000
    6.8373  -13.8769   19.0071 O   0  0  0  0  0  0  0  0  0  0  0  0
    7.5898  -12.7632   19.3550 C   0  0  0  0  0  0  0  0  0  0  0  0
    9.0313  -12.9309   18.9159 C   0  0  2  0  0  0  0  0  0  0  0  0
    8.9974  -13.2693   17.4997 N   0  0  0  0  0  0  0  0  0  0  0  0
    9.6564  -14.0914   19.6202 C   0  0  0  0  0  0  0  0  0  0  0  0
    9.6618  -14.1948   20.8727 O   0  0  0  0  0  0  0  0  0  0  0  0
    8.6249  -17.5323   14.3584 N   0  0  0  0  0  0  0  0  0  0  0  0
    7.6454  -18.0387   15.2564 C   0  0  0  0  0  0  0  0  0  0  0  0
    6.3861  -17.8124   15.0540 N   0  0  0  0  0  0  0  0  0  0  0  0
    7.9962  -18.8027   16.3958 N   0  0  0  0  0  0  0  0  0  0  0  0
    9.3007  -18.7606   17.0088 C   0  0  0  0  0  0  0  0  0  0  0  0
    9.3378  -17.6364   18.0579 C   0  0  0  0  0  0  0  0  0  0  0  0
   10.6989  -17.4920   18.6415 C   0  0  0  0  0  0  0  0  0  0  0  0
   10.8532  -16.3041   19.5569 C   0  0  2  0  0  0  0  0  0  0  0  0
   10.2786  -15.1395   18.8879 N   0  0  0  0  0  0  0  0  0  0  0  0
   12.2713  -16.0910   19.8788 C   0  0  0  0  0  0  0  0  0  0  0  0
   13.2029  -16.1392   19.0395 O   0  0  0  0  0  0  0  0  0  0  0  0
    5.6535  -18.1063   15.7542 N   0  0  0  0  0  0  0  0  0  0  0  0
   12.7264  -15.8010   21.2181 C   0  0  1  0  0  0  0  0  0  0  0  0
   14.1240  -15.8463   21.5915 C   0  0  0  0  0  0  0  0  0  0  0  0
   14.6804  -14.4820   21.9107 C   0  0  0  0  0  0  0  0  0  0  0  0
   16.1136  -14.3531   21.6826 O   0  0  0  0  0  0  0  0  0  0  0  0
   16.7628  -15.3245   21.2312 C   0  0  0  0  0  0  0  0  0  0  0  0
   14.2466  -16.7470   22.7628 O   0  0  0  0  0  0  0  0  0  0  0  0
   13.1408  -17.1934   23.4702 O   0  0  0  0  0  0  0  0  0  0  0  0
   16.7871  -13.1785   21.9511 O   0  0  0  0  0  0  0  0  0  0  0  0
  2  1  1  0
  3  5  1  0
  3  2  1  0
  3  4  1  6
  5  6  2  0
  8  7  1  0
  8  9  2  0
 10  8  1  0
 11 10  1  0
 11 12  1  0
 12 13  1  0
 14 13  1  6
 15 14  1  0
 15  5  1  0
 16 17  2  0
 16 14  1  0
 18 16  1  0
 19 23  1  0
 19 18  1  0
 19 20  1  1
 21 20  1  0
 22 21  2  0
 23 24  1  0
 25 21  1  0
 26 23  2  0
M  END
$$$$
