NAY.pdb
     RDKit          3D

 26 26  0  0  1  0  0  0  0  0999 V2000
   16.7074  -13.1494  -15.2481 N   0  0  0  0  0  0  0  0  0  0  0  0
   18.1324  -13.1732  -15.2649 C   0  0  0  0  0  0  0  0  0  0  0  0
   18.7586  -14.2486  -15.1572 O   0  0  0  0  0  0  0  0  0  0  0  0
   18.8554  -11.8901  -15.4135 C   0  0  0  0  0  0  0  0  0  0  0  0
   18.6229  -11.3557  -16.8241 C   0  0  2  0  0  0  0  0  0  0  0  0
   19.3933  -12.1124  -17.7880 N   0  0  0  0  0  0  0  0  0  0  0  0
   19.1232   -9.9580  -16.8224 C   0  0  0  0  0  0  0  0  0  0  0  0
   20.3452   -9.7151  -16.9330 O   0  0  0  0  0  0  0  0  0  0  0  0
   17.5964   -6.5246  -16.7489 C   0  0  0  0  0  0  0  0  0  0  0  0
   18.7756   -7.5042  -16.7269 C   0  0  2  0  0  0  0  0  0  0  0  0
   18.2283   -8.8427  -16.6948 N   0  0  0  0  0  0  0  0  0  0  0  0
   19.5347   -7.2158  -15.4751 C   0  0  0  0  0  0  0  0  0  0  0  0
   19.1430   -7.7683  -14.3931 O   0  0  0  0  0  0  0  0  0  0  0  0
   25.9895   -5.8665  -18.8329 O   0  0  0  0  0  0  0  0  0  0  0  0
   25.1837   -6.0894  -17.7003 C   0  0  0  0  0  0  0  0  0  0  0  0
   24.3266   -7.1653  -17.6326 C   0  0  0  0  0  0  0  0  0  0  0  0
   23.5242   -7.4140  -16.5403 C   0  0  0  0  0  0  0  0  0  0  0  0
   23.5734   -6.5451  -15.4497 C   0  0  0  0  0  0  0  0  0  0  0  0
   22.7098   -6.8243  -14.2840 C   0  0  0  0  0  0  0  0  0  0  0  0
   21.3919   -6.0770  -14.3199 C   0  0  2  0  0  0  0  0  0  0  0  0
   20.6506   -6.3532  -15.5137 N   0  0  0  0  0  0  0  0  0  0  0  0
   21.7002   -4.6299  -14.1832 C   0  0  0  0  0  0  0  0  0  0  0  0
   22.2602   -4.2072  -12.9806 O   0  0  0  0  0  0  0  0  0  0  0  0
   24.4308   -5.4694  -15.5177 C   0  0  0  0  0  0  0  0  0  0  0  0
   25.2308   -5.2326  -16.6218 C   0  0  0  0  0  0  0  0  0  0  0  0
   21.4776   -3.7986  -15.0943 O   0  0  0  0  0  0  0  0  0  0  0  0
  2  3  2  0
  2  1  1  0
  4  2  1  0
  5  4  1  0
  5  7  1  0
  5  6  1  6
  7  8  2  0
 10  9  1  1
 11  7  1  0
 11 10  1  0
 12 10  1  0
 12 21  1  0
 13 12  2  0
 15 14  1  0
 16 15  2  0
 17 16  1  0
 18 24  1  0
 18 17  2  0
 19 18  1  0
 20 21  1  0
 20 19  1  6
 22 23  1  0
 22 20  1  0
 24 25  2  0
 25 15  1  0
 26 22  2  0
M  END
$$$$
