NAY.pdb
     RDKit          3D

 26 26  0  0  1  0  0  0  0  0999 V2000
   18.6050  -15.2449  -16.7969 N   0  0  0  0  0  0  0  0  0  0  0  0
   19.4319  -14.7220  -17.8333 C   0  0  0  0  0  0  0  0  0  0  0  0
   19.4786  -15.2684  -18.9556 O   0  0  0  0  0  0  0  0  0  0  0  0
   20.2364  -13.5126  -17.5483 C   0  0  0  0  0  0  0  0  0  0  0  0
   19.4954  -12.2916  -18.0865 C   0  0  2  0  0  0  0  0  0  0  0  0
   19.3521  -12.3766  -19.5244 N   0  0  0  0  0  0  0  0  0  0  0  0
   20.3508  -11.1196  -17.7725 C   0  0  0  0  0  0  0  0  0  0  0  0
   21.0355  -11.0884  -16.7263 O   0  0  0  0  0  0  0  0  0  0  0  0
   21.2058   -7.8519  -19.4274 C   0  0  0  0  0  0  0  0  0  0  0  0
   21.2646   -8.8713  -18.2838 C   0  0  2  0  0  0  0  0  0  0  0  0
   20.4222   -9.9877  -18.6527 N   0  0  0  0  0  0  0  0  0  0  0  0
   20.7225   -8.1786  -17.0786 C   0  0  0  0  0  0  0  0  0  0  0  0
   19.4566   -8.1574  -16.9153 O   0  0  0  0  0  0  0  0  0  0  0  0
   19.1854   -5.5369   -9.0013 O   0  0  0  0  0  0  0  0  0  0  0  0
   19.8323   -5.9735  -10.1730 C   0  0  0  0  0  0  0  0  0  0  0  0
   19.6564   -7.2522  -10.6532 C   0  0  0  0  0  0  0  0  0  0  0  0
   20.2733   -7.7127  -11.7962 C   0  0  0  0  0  0  0  0  0  0  0  0
   21.1148   -6.8555  -12.5060 C   0  0  0  0  0  0  0  0  0  0  0  0
   21.7681   -7.3607  -13.7310 C   0  0  0  0  0  0  0  0  0  0  0  0
   21.0955   -6.8948  -15.0065 C   0  0  2  0  0  0  0  0  0  0  0  0
   21.6057   -7.5720  -16.1607 N   0  0  0  0  0  0  0  0  0  0  0  0
   21.2900   -5.4246  -15.0975 C   0  0  0  0  0  0  0  0  0  0  0  0
   20.2761   -4.6140  -14.5940 O   0  0  0  0  0  0  0  0  0  0  0  0
   21.2902   -5.5767  -12.0255 C   0  0  0  0  0  0  0  0  0  0  0  0
   20.6637   -5.1285  -10.8758 C   0  0  0  0  0  0  0  0  0  0  0  0
   22.3130   -4.9042  -15.6008 O   0  0  0  0  0  0  0  0  0  0  0  0
  2  3  2  0
  2  1  1  0
  4  2  1  0
  5  4  1  0
  5  7  1  0
  5  6  1  6
  7  8  2  0
 10  9  1  6
 11  7  1  0
 11 10  1  0
 12 10  1  0
 12 21  1  0
 13 12  2  0
 15 14  1  0
 16 15  2  0
 17 16  1  0
 18 24  1  0
 18 17  2  0
 19 18  1  0
 20 21  1  0
 20 19  1  1
 22 23  1  0
 22 20  1  0
 24 25  2  0
 25 15  1  0
 26 22  2  0
M  END
$$$$
