NAY.pdb
     RDKit          3D

 26 26  0  0  1  0  0  0  0  0999 V2000
   16.6272  -16.6309  -15.4997 N   0  0  0  0  0  0  0  0  0  0  0  0
   17.3649  -16.5965  -16.7186 C   0  0  0  0  0  0  0  0  0  0  0  0
   17.7818  -17.6484  -17.2476 O   0  0  0  0  0  0  0  0  0  0  0  0
   17.6265  -15.2812  -17.3454 C   0  0  0  0  0  0  0  0  0  0  0  0
   16.8882  -14.2046  -16.5546 C   0  0  2  0  0  0  0  0  0  0  0  0
   15.4887  -14.1728  -16.9228 N   0  0  0  0  0  0  0  0  0  0  0  0
   17.5024  -12.9114  -16.9474 C   0  0  0  0  0  0  0  0  0  0  0  0
   18.7188  -12.6949  -16.7532 O   0  0  0  0  0  0  0  0  0  0  0  0
   16.2927   -9.6649  -18.4115 C   0  0  0  0  0  0  0  0  0  0  0  0
   17.3640  -10.6026  -17.8426 C   0  0  2  0  0  0  0  0  0  0  0  0
   16.7270  -11.8701  -17.5602 N   0  0  0  0  0  0  0  0  0  0  0  0
   17.8503   -9.9659  -16.5838 C   0  0  0  0  0  0  0  0  0  0  0  0
   17.1799  -10.1580  -15.5145 O   0  0  0  0  0  0  0  0  0  0  0  0
   22.8638   -6.1764  -10.4677 O   0  0  0  0  0  0  0  0  0  0  0  0
   22.4002   -6.7454  -11.6691 C   0  0  0  0  0  0  0  0  0  0  0  0
   22.0345   -8.0713  -11.7383 C   0  0  0  0  0  0  0  0  0  0  0  0
   21.5766   -8.6608  -12.8967 C   0  0  0  0  0  0  0  0  0  0  0  0
   21.4750   -7.8910  -14.0560 C   0  0  0  0  0  0  0  0  0  0  0  0
   20.9805   -8.5344  -15.2905 C   0  0  0  0  0  0  0  0  0  0  0  0
   19.4699   -8.5236  -15.4100 C   0  0  2  0  0  0  0  0  0  0  0  0
   19.0210   -9.1787  -16.6019 N   0  0  0  0  0  0  0  0  0  0  0  0
   19.0325   -7.1044  -15.3613 C   0  0  0  0  0  0  0  0  0  0  0  0
   18.9583   -6.4173  -16.5700 O   0  0  0  0  0  0  0  0  0  0  0  0
   21.8408   -6.5650  -13.9863 C   0  0  0  0  0  0  0  0  0  0  0  0
   22.2989   -5.9870  -12.8153 C   0  0  0  0  0  0  0  0  0  0  0  0
   18.7355   -6.5211  -14.2926 O   0  0  0  0  0  0  0  0  0  0  0  0
  2  3  2  0
  2  1  1  0
  4  2  1  0
  5  4  1  0
  5  7  1  0
  5  6  1  6
  7  8  2  0
 10  9  1  1
 11  7  1  0
 11 10  1  0
 12 10  1  0
 12 21  1  0
 13 12  2  0
 15 14  1  0
 16 15  2  0
 17 16  1  0
 18 24  1  0
 18 17  2  0
 19 18  1  0
 20 21  1  0
 20 19  1  6
 22 23  1  0
 22 20  1  0
 24 25  2  0
 25 15  1  0
 26 22  2  0
M  END
$$$$
