NAY.pdb
     RDKit          3D

 26 26  0  0  1  0  0  0  0  0999 V2000
   17.9810  -13.7156  -19.4533 N   0  0  0  0  0  0  0  0  0  0  0  0
   17.9227  -13.3922  -18.0665 C   0  0  0  0  0  0  0  0  0  0  0  0
   16.9873  -13.8052  -17.3490 O   0  0  0  0  0  0  0  0  0  0  0  0
   18.9995  -12.5533  -17.4941 C   0  0  0  0  0  0  0  0  0  0  0  0
   20.3477  -13.1735  -17.8508 C   0  0  2  0  0  0  0  0  0  0  0  0
   20.5604  -14.3936  -17.1016 N   0  0  0  0  0  0  0  0  0  0  0  0
   21.3771  -12.1874  -17.4364 C   0  0  0  0  0  0  0  0  0  0  0  0
   21.4990  -11.8545  -16.2369 O   0  0  0  0  0  0  0  0  0  0  0  0
   24.2001  -10.3456  -19.0917 C   0  0  0  0  0  0  0  0  0  0  0  0
   23.2533  -10.6398  -17.9223 C   0  0  2  0  0  0  0  0  0  0  0  0
   22.2637  -11.5847  -18.3913 N   0  0  0  0  0  0  0  0  0  0  0  0
   22.6129   -9.3400  -17.5663 C   0  0  0  0  0  0  0  0  0  0  0  0
   21.5350   -9.0155  -18.1684 O   0  0  0  0  0  0  0  0  0  0  0  0
   20.9131   -1.6090  -13.6710 O   0  0  0  0  0  0  0  0  0  0  0  0
   21.5041   -2.8378  -14.0212 C   0  0  0  0  0  0  0  0  0  0  0  0
   20.9476   -4.0360  -13.6323 C   0  0  0  0  0  0  0  0  0  0  0  0
   21.4987   -5.2565  -13.9573 C   0  0  0  0  0  0  0  0  0  0  0  0
   22.6712   -5.2925  -14.7126 C   0  0  0  0  0  0  0  0  0  0  0  0
   23.2505   -6.6074  -15.0563 C   0  0  0  0  0  0  0  0  0  0  0  0
   22.6465   -7.2229  -16.3024 C   0  0  2  0  0  0  0  0  0  0  0  0
   23.2022   -8.5116  -16.5881 N   0  0  0  0  0  0  0  0  0  0  0  0
   22.8654   -6.2669  -17.4186 C   0  0  0  0  0  0  0  0  0  0  0  0
   21.8048   -5.4328  -17.7622 O   0  0  0  0  0  0  0  0  0  0  0  0
   23.2274   -4.0940  -15.1016 C   0  0  0  0  0  0  0  0  0  0  0  0
   22.6621   -2.8758  -14.7674 C   0  0  0  0  0  0  0  0  0  0  0  0
   23.9482   -6.1897  -18.0448 O   0  0  0  0  0  0  0  0  0  0  0  0
  2  3  2  0
  2  1  1  0
  4  2  1  0
  5  4  1  0
  5  7  1  0
  5  6  1  1
  7  8  2  0
 10  9  1  6
 11  7  1  0
 11 10  1  0
 12 10  1  0
 12 21  1  0
 13 12  2  0
 15 14  1  0
 16 15  2  0
 17 16  1  0
 18 24  1  0
 18 17  2  0
 19 18  1  0
 20 21  1  0
 20 19  1  1
 22 23  1  0
 22 20  1  0
 24 25  2  0
 25 15  1  0
 26 22  2  0
M  END
$$$$
