NAY.pdb
     RDKit          3D

 26 26  0  0  1  0  0  0  0  0999 V2000
   15.7531  -14.3204  -15.3902 N   0  0  0  0  0  0  0  0  0  0  0  0
   16.9829  -13.7528  -14.9467 C   0  0  0  0  0  0  0  0  0  0  0  0
   17.5559  -14.1806  -13.9226 O   0  0  0  0  0  0  0  0  0  0  0  0
   17.5674  -12.6413  -15.7302 C   0  0  0  0  0  0  0  0  0  0  0  0
   16.6319  -12.3130  -16.8906 C   0  0  2  0  0  0  0  0  0  0  0  0
   16.8584  -13.2174  -17.9979 N   0  0  0  0  0  0  0  0  0  0  0  0
   16.9876  -10.9404  -17.3305 C   0  0  0  0  0  0  0  0  0  0  0  0
   18.1560  -10.6623  -17.6793 O   0  0  0  0  0  0  0  0  0  0  0  0
   15.1546   -7.7098  -17.9096 C   0  0  0  0  0  0  0  0  0  0  0  0
   16.4149   -8.5790  -17.8270 C   0  0  2  0  0  0  0  0  0  0  0  0
   16.0094   -9.8904  -17.3711 N   0  0  0  0  0  0  0  0  0  0  0  0
   17.3074   -7.9262  -16.8252 C   0  0  0  0  0  0  0  0  0  0  0  0
   17.2159   -8.2956  -15.6067 O   0  0  0  0  0  0  0  0  0  0  0  0
   22.7523   -1.6627  -13.6700 O   0  0  0  0  0  0  0  0  0  0  0  0
   22.1489   -2.6741  -14.4413 C   0  0  0  0  0  0  0  0  0  0  0  0
   21.4115   -2.3732  -15.5649 C   0  0  0  0  0  0  0  0  0  0  0  0
   20.8076   -3.3372  -16.3427 C   0  0  0  0  0  0  0  0  0  0  0  0
   20.9419   -4.6794  -15.9865 C   0  0  0  0  0  0  0  0  0  0  0  0
   20.2915   -5.7031  -16.8301 C   0  0  0  0  0  0  0  0  0  0  0  0
   18.9710   -6.1925  -16.2704 C   0  0  2  0  0  0  0  0  0  0  0  0
   18.2183   -6.9314  -17.2392 N   0  0  0  0  0  0  0  0  0  0  0  0
   18.2278   -5.0012  -15.7846 C   0  0  0  0  0  0  0  0  0  0  0  0
   18.3832   -4.6542  -14.4452 O   0  0  0  0  0  0  0  0  0  0  0  0
   21.6795   -4.9799  -14.8628 C   0  0  0  0  0  0  0  0  0  0  0  0
   22.2803   -4.0006  -14.0914 C   0  0  0  0  0  0  0  0  0  0  0  0
   17.4839   -4.3159  -16.5245 O   0  0  0  0  0  0  0  0  0  0  0  0
  2  3  2  0
  2  1  1  0
  4  2  1  0
  5  4  1  0
  5  7  1  0
  5  6  1  6
  7  8  2  0
 10  9  1  1
 11  7  1  0
 11 10  1  0
 12 10  1  0
 12 21  1  0
 13 12  2  0
 15 14  1  0
 16 15  2  0
 17 16  1  0
 18 24  1  0
 18 17  2  0
 19 18  1  0
 20 21  1  0
 20 19  1  6
 22 23  1  0
 22 20  1  0
 24 25  2  0
 25 15  1  0
 26 22  2  0
M  END
$$$$
