NAY.pdb
     RDKit          3D

 26 26  0  0  1  0  0  0  0  0999 V2000
   20.2391  -16.4139  -15.5469 N   0  0  0  0  0  0  0  0  0  0  0  0
   21.5184  -16.1031  -16.0929 C   0  0  0  0  0  0  0  0  0  0  0  0
   21.7405  -14.9917  -16.6179 O   0  0  0  0  0  0  0  0  0  0  0  0
   22.5812  -17.1311  -16.0233 C   0  0  0  0  0  0  0  0  0  0  0  0
   23.3787  -17.1022  -17.3244 C   0  0  2  0  0  0  0  0  0  0  0  0
   22.5564  -17.5341  -18.4346 N   0  0  0  0  0  0  0  0  0  0  0  0
   24.4813  -18.0814  -17.1532 C   0  0  0  0  0  0  0  0  0  0  0  0
   24.3114  -19.2908  -17.4232 O   0  0  0  0  0  0  0  0  0  0  0  0
   28.1428  -18.0227  -16.8816 C   0  0  0  0  0  0  0  0  0  0  0  0
   26.8046  -18.6809  -16.5257 C   0  0  2  0  0  0  0  0  0  0  0  0
   25.7734  -17.6778  -16.6750 N   0  0  0  0  0  0  0  0  0  0  0  0
   26.9171  -19.1122  -15.1017 C   0  0  0  0  0  0  0  0  0  0  0  0
   27.6682  -18.4326  -14.3248 O   0  0  0  0  0  0  0  0  0  0  0  0
   25.7214  -20.9476   -6.8521 O   0  0  0  0  0  0  0  0  0  0  0  0
   25.7109  -20.6058   -8.2177 C   0  0  0  0  0  0  0  0  0  0  0  0
   24.5740  -20.7473   -8.9820 C   0  0  0  0  0  0  0  0  0  0  0  0
   24.5280  -20.4226  -10.3204 C   0  0  0  0  0  0  0  0  0  0  0  0
   25.6767  -19.9282  -10.9391 C   0  0  0  0  0  0  0  0  0  0  0  0
   25.6134  -19.5817  -12.3738 C   0  0  0  0  0  0  0  0  0  0  0  0
   26.2478  -20.6242  -13.2723 C   0  0  2  0  0  0  0  0  0  0  0  0
   26.2028  -20.2428  -14.6520 N   0  0  0  0  0  0  0  0  0  0  0  0
   25.5387  -21.9073  -13.0302 C   0  0  0  0  0  0  0  0  0  0  0  0
   26.0843  -22.7694  -12.0827 O   0  0  0  0  0  0  0  0  0  0  0  0
   26.8135  -19.7867  -10.1744 C   0  0  0  0  0  0  0  0  0  0  0  0
   26.8443  -20.1172   -8.8309 C   0  0  0  0  0  0  0  0  0  0  0  0
   24.4908  -22.2297  -13.6372 O   0  0  0  0  0  0  0  0  0  0  0  0
  2  3  2  0
  2  1  1  0
  4  2  1  0
  5  4  1  0
  5  7  1  0
  5  6  1  6
  7  8  2  0
 10  9  1  1
 11  7  1  0
 11 10  1  0
 12 10  1  0
 12 21  1  0
 13 12  2  0
 15 14  1  0
 16 15  2  0
 17 16  1  0
 18 24  1  0
 18 17  2  0
 19 18  1  0
 20 21  1  0
 20 19  1  1
 22 23  1  0
 22 20  1  0
 24 25  2  0
 25 15  1  0
 26 22  2  0
M  END
$$$$
