NAY.pdb
     RDKit          3D

 26 26  0  0  1  0  0  0  0  0999 V2000
   16.0614  -14.1419  -15.7666 N   0  0  0  0  0  0  0  0  0  0  0  0
   15.5794  -12.9251  -15.2022 C   0  0  0  0  0  0  0  0  0  0  0  0
   14.4663  -12.4619  -15.5284 O   0  0  0  0  0  0  0  0  0  0  0  0
   16.4310  -12.2209  -14.2173 C   0  0  0  0  0  0  0  0  0  0  0  0
   16.3544  -10.7204  -14.4856 C   0  0  2  0  0  0  0  0  0  0  0  0
   17.2027  -10.3593  -15.6016 N   0  0  0  0  0  0  0  0  0  0  0  0
   16.8814  -10.0568  -13.2666 C   0  0  0  0  0  0  0  0  0  0  0  0
   16.3381  -10.2358  -12.1544 O   0  0  0  0  0  0  0  0  0  0  0  0
   19.9207   -8.0950  -12.3295 C   0  0  0  0  0  0  0  0  0  0  0  0
   18.4769   -8.5575  -12.1015 C   0  0  2  0  0  0  0  0  0  0  0  0
   18.0259   -9.1918  -13.3207 N   0  0  0  0  0  0  0  0  0  0  0  0
   17.6825   -7.3252  -11.8244 C   0  0  0  0  0  0  0  0  0  0  0  0
   17.2699   -6.6390  -12.8187 O   0  0  0  0  0  0  0  0  0  0  0  0
   12.2510   -9.6321   -7.6718 O   0  0  0  0  0  0  0  0  0  0  0  0
   12.9873   -8.6752   -8.3957 C   0  0  0  0  0  0  0  0  0  0  0  0
   13.8176   -9.0443   -9.4307 C   0  0  0  0  0  0  0  0  0  0  0  0
   14.5523   -8.1349  -10.1601 C   0  0  0  0  0  0  0  0  0  0  0  0
   14.4592   -6.7787   -9.8458 C   0  0  0  0  0  0  0  0  0  0  0  0
   15.2502   -5.8139  -10.6371 C   0  0  0  0  0  0  0  0  0  0  0  0
   16.7029   -5.7368  -10.2126 C   0  0  2  0  0  0  0  0  0  0  0  0
   17.4089   -6.9511  -10.4918 N   0  0  0  0  0  0  0  0  0  0  0  0
   16.7235   -5.4061   -8.7642 C   0  0  0  0  0  0  0  0  0  0  0  0
   16.1275   -4.2098   -8.3738 O   0  0  0  0  0  0  0  0  0  0  0  0
   13.6287   -6.4099   -8.8108 C   0  0  0  0  0  0  0  0  0  0  0  0
   12.8969   -7.3350   -8.0871 C   0  0  0  0  0  0  0  0  0  0  0  0
   17.2475   -6.1520   -7.9041 O   0  0  0  0  0  0  0  0  0  0  0  0
  2  3  2  0
  2  1  1  0
  4  2  1  0
  5  4  1  0
  5  7  1  0
  5  6  1  6
  7  8  2  0
 10  9  1  6
 11  7  1  0
 11 10  1  0
 12 10  1  0
 12 21  1  0
 13 12  2  0
 15 14  1  0
 16 15  2  0
 17 16  1  0
 18 24  1  0
 18 17  2  0
 19 18  1  0
 20 21  1  0
 20 19  1  1
 22 23  1  0
 22 20  1  0
 24 25  2  0
 25 15  1  0
 26 22  2  0
M  END
$$$$
