NAY.pdb
     RDKit          3D

 26 26  0  0  1  0  0  0  0  0999 V2000
   19.5620  -14.1173  -20.0450 N   0  0  0  0  0  0  0  0  0  0  0  0
   19.9500  -12.7709  -19.7844 C   0  0  0  0  0  0  0  0  0  0  0  0
   20.2387  -11.9930  -20.7181 O   0  0  0  0  0  0  0  0  0  0  0  0
   20.0030  -12.3141  -18.3774 C   0  0  0  0  0  0  0  0  0  0  0  0
   21.1432  -11.3103  -18.2294 C   0  0  2  0  0  0  0  0  0  0  0  0
   22.4232  -11.9679  -18.3859 N   0  0  0  0  0  0  0  0  0  0  0  0
   21.0546  -10.7882  -16.8425 C   0  0  0  0  0  0  0  0  0  0  0  0
   20.0102  -10.2362  -16.4314 O   0  0  0  0  0  0  0  0  0  0  0  0
   23.1124  -10.9699  -13.7255 C   0  0  0  0  0  0  0  0  0  0  0  0
   22.0159  -10.3490  -14.5988 C   0  0  2  0  0  0  0  0  0  0  0  0
   22.1572  -10.8977  -15.9296 N   0  0  0  0  0  0  0  0  0  0  0  0
   22.2704   -8.8788  -14.6059 C   0  0  0  0  0  0  0  0  0  0  0  0
   22.0376   -8.2227  -13.5359 O   0  0  0  0  0  0  0  0  0  0  0  0
   24.8644   -0.8431  -17.0581 O   0  0  0  0  0  0  0  0  0  0  0  0
   24.7196   -2.2392  -16.9493 C   0  0  0  0  0  0  0  0  0  0  0  0
   23.5829   -2.8009  -16.4116 C   0  0  0  0  0  0  0  0  0  0  0  0
   23.4076   -4.1623  -16.2902 C   0  0  0  0  0  0  0  0  0  0  0  0
   24.4186   -5.0187  -16.7273 C   0  0  0  0  0  0  0  0  0  0  0  0
   24.2172   -6.4762  -16.5937 C   0  0  0  0  0  0  0  0  0  0  0  0
   22.9782   -6.8413  -15.8011 C   0  0  2  0  0  0  0  0  0  0  0  0
   22.7549   -8.2557  -15.7754 N   0  0  0  0  0  0  0  0  0  0  0  0
   21.8344   -6.1122  -16.4077 C   0  0  0  0  0  0  0  0  0  0  0  0
   21.3483   -5.0025  -15.7215 O   0  0  0  0  0  0  0  0  0  0  0  0
   25.5552   -4.4566  -17.2651 C   0  0  0  0  0  0  0  0  0  0  0  0
   25.7168   -3.0871  -17.3806 C   0  0  0  0  0  0  0  0  0  0  0  0
   21.3067   -6.4563  -17.4911 O   0  0  0  0  0  0  0  0  0  0  0  0
  2  3  2  0
  2  1  1  0
  4  2  1  0
  5  4  1  0
  5  7  1  0
  5  6  1  1
  7  8  2  0
 10  9  1  1
 11  7  1  0
 11 10  1  0
 12 10  1  0
 12 21  1  0
 13 12  2  0
 15 14  1  0
 16 15  2  0
 17 16  1  0
 18 24  1  0
 18 17  2  0
 19 18  1  0
 20 21  1  0
 20 19  1  6
 22 23  1  0
 22 20  1  0
 24 25  2  0
 25 15  1  0
 26 22  2  0
M  END
$$$$
