NAY.pdb
     RDKit          3D

 26 26  0  0  1  0  0  0  0  0999 V2000
   14.0343  -24.8409   -0.7638 N   0  0  0  0  0  0  0  0  0  0  0  0
   15.3479  -24.5993   -0.2665 C   0  0  0  0  0  0  0  0  0  0  0  0
   16.2205  -25.4926   -0.2951 O   0  0  0  0  0  0  0  0  0  0  0  0
   15.6555  -23.2610    0.2864 C   0  0  0  0  0  0  0  0  0  0  0  0
   14.4089  -22.3870    0.1795 C   0  0  2  0  0  0  0  0  0  0  0  0
   14.2930  -21.8268   -1.1502 N   0  0  0  0  0  0  0  0  0  0  0  0
   14.6048  -21.2712    1.1390 C   0  0  0  0  0  0  0  0  0  0  0  0
   15.1298  -20.1966    0.7731 O   0  0  0  0  0  0  0  0  0  0  0  0
   13.4708  -20.4885    4.6187 C   0  0  0  0  0  0  0  0  0  0  0  0
   14.3239  -20.2285    3.3717 C   0  0  2  0  0  0  0  0  0  0  0  0
   14.2013  -21.3853    2.5120 N   0  0  0  0  0  0  0  0  0  0  0  0
   15.7286  -20.0757    3.8512 C   0  0  0  0  0  0  0  0  0  0  0  0
   16.5062  -21.0845    3.7670 O   0  0  0  0  0  0  0  0  0  0  0  0
   17.2085  -12.4626    3.2345 O   0  0  0  0  0  0  0  0  0  0  0  0
   17.5107  -13.8267    3.4070 C   0  0  0  0  0  0  0  0  0  0  0  0
   17.0315  -14.7811    2.5373 C   0  0  0  0  0  0  0  0  0  0  0  0
   17.3074  -16.1242    2.6758 C   0  0  0  0  0  0  0  0  0  0  0  0
   18.1054  -16.5473    3.7391 C   0  0  0  0  0  0  0  0  0  0  0  0
   18.3955  -17.9896    3.8748 C   0  0  0  0  0  0  0  0  0  0  0  0
   17.4963  -18.6921    4.8720 C   0  0  2  0  0  0  0  0  0  0  0  0
   16.1600  -18.8401    4.3784 N   0  0  0  0  0  0  0  0  0  0  0  0
   17.5359  -17.9071    6.1329 C   0  0  0  0  0  0  0  0  0  0  0  0
   18.6927  -17.9937    6.9028 O   0  0  0  0  0  0  0  0  0  0  0  0
   18.5845  -15.5926    4.6085 C   0  0  0  0  0  0  0  0  0  0  0  0
   18.2988  -14.2471    4.4565 C   0  0  0  0  0  0  0  0  0  0  0  0
   16.5841  -17.1872    6.5154 O   0  0  0  0  0  0  0  0  0  0  0  0
  2  3  2  0
  2  1  1  0
  4  2  1  0
  5  4  1  0
  5  7  1  0
  5  6  1  6
  7  8  2  0
 10  9  1  1
 11  7  1  0
 11 10  1  0
 12 10  1  0
 12 21  1  0
 13 12  2  0
 15 14  1  0
 16 15  2  0
 17 16  1  0
 18 24  1  0
 18 17  2  0
 19 18  1  0
 20 21  1  0
 20 19  1  6
 22 23  1  0
 22 20  1  0
 24 25  2  0
 25 15  1  0
 26 22  2  0
M  END
$$$$
