NAY.pdb
     RDKit          3D

 26 26  0  0  1  0  0  0  0  0999 V2000
   19.1859  -15.4628  -15.2431 N   0  0  0  0  0  0  0  0  0  0  0  0
   18.4275  -14.4054  -15.8243 C   0  0  0  0  0  0  0  0  0  0  0  0
   17.1820  -14.3821  -15.7329 O   0  0  0  0  0  0  0  0  0  0  0  0
   19.1521  -13.3317  -16.5408 C   0  0  0  0  0  0  0  0  0  0  0  0
   18.3602  -12.0334  -16.4113 C   0  0  2  0  0  0  0  0  0  0  0  0
   17.3073  -11.9788  -17.4030 N   0  0  0  0  0  0  0  0  0  0  0  0
   19.3202  -10.9361  -16.6908 C   0  0  0  0  0  0  0  0  0  0  0  0
   20.5143  -11.0220  -16.3287 O   0  0  0  0  0  0  0  0  0  0  0  0
   19.2833   -7.6935  -18.5786 C   0  0  0  0  0  0  0  0  0  0  0  0
   19.8870   -8.6935  -17.5856 C   0  0  2  0  0  0  0  0  0  0  0  0
   18.9149   -9.7450  -17.3822 N   0  0  0  0  0  0  0  0  0  0  0  0
   20.1175   -7.9377  -16.3199 C   0  0  0  0  0  0  0  0  0  0  0  0
   19.1811   -7.9170  -15.4525 O   0  0  0  0  0  0  0  0  0  0  0  0
   26.6043   -4.7234  -18.4532 O   0  0  0  0  0  0  0  0  0  0  0  0
   25.7378   -5.2514  -17.4773 C   0  0  0  0  0  0  0  0  0  0  0  0
   25.2896   -4.4819  -16.4268 C   0  0  0  0  0  0  0  0  0  0  0  0
   24.4413   -4.9657  -15.4546 C   0  0  0  0  0  0  0  0  0  0  0  0
   24.0113   -6.2911  -15.5269 C   0  0  0  0  0  0  0  0  0  0  0  0
   23.1002   -6.7967  -14.4796 C   0  0  0  0  0  0  0  0  0  0  0  0
   21.6351   -6.6709  -14.8459 C   0  0  2  0  0  0  0  0  0  0  0  0
   21.3448   -7.2735  -16.1123 N   0  0  0  0  0  0  0  0  0  0  0  0
   21.2986   -5.2237  -14.8325 C   0  0  0  0  0  0  0  0  0  0  0  0
   21.3152   -4.5758  -13.6002 O   0  0  0  0  0  0  0  0  0  0  0  0
   24.4597   -7.0603  -16.5777 C   0  0  0  0  0  0  0  0  0  0  0  0
   25.3117   -6.5602  -17.5468 C   0  0  0  0  0  0  0  0  0  0  0  0
   21.0076   -4.5839  -15.8701 O   0  0  0  0  0  0  0  0  0  0  0  0
  2  3  2  0
  2  1  1  0
  4  2  1  0
  5  4  1  0
  5  7  1  0
  5  6  1  6
  7  8  2  0
 10  9  1  6
 11  7  1  0
 11 10  1  0
 12 10  1  0
 12 21  1  0
 13 12  2  0
 15 14  1  0
 16 15  2  0
 17 16  1  0
 18 24  1  0
 18 17  2  0
 19 18  1  0
 20 21  1  0
 20 19  1  6
 22 23  1  0
 22 20  1  0
 24 25  2  0
 25 15  1  0
 26 22  2  0
M  END
$$$$
