NAY.pdb
     RDKit          3D

 26 26  0  0  1  0  0  0  0  0999 V2000
   20.2620  -19.5451  -19.1511 N   0  0  0  0  0  0  0  0  0  0  0  0
   21.2713  -20.1134  -18.3207 C   0  0  0  0  0  0  0  0  0  0  0  0
   20.9871  -20.9736  -17.4608 O   0  0  0  0  0  0  0  0  0  0  0  0
   22.6686  -19.6595  -18.5014 C   0  0  0  0  0  0  0  0  0  0  0  0
   23.3636  -19.6559  -17.1426 C   0  0  2  0  0  0  0  0  0  0  0  0
   22.7182  -18.7228  -16.2437 N   0  0  0  0  0  0  0  0  0  0  0  0
   24.7486  -19.1818  -17.3898 C   0  0  0  0  0  0  0  0  0  0  0  0
   25.5490  -19.8665  -18.0643 O   0  0  0  0  0  0  0  0  0  0  0  0
   26.7257  -16.0664  -16.7068 C   0  0  0  0  0  0  0  0  0  0  0  0
   26.5842  -17.5361  -17.1200 C   0  0  2  0  0  0  0  0  0  0  0  0
   25.2153  -17.9289  -16.8671 N   0  0  0  0  0  0  0  0  0  0  0  0
   27.5218  -18.3061  -16.2515 C   0  0  0  0  0  0  0  0  0  0  0  0
   28.7608  -18.3098  -16.5587 O   0  0  0  0  0  0  0  0  0  0  0  0
   22.6657  -21.0105  -10.8156 O   0  0  0  0  0  0  0  0  0  0  0  0
   23.9340  -20.6482  -11.3076 C   0  0  0  0  0  0  0  0  0  0  0  0
   24.0683  -19.8782  -12.4416 C   0  0  0  0  0  0  0  0  0  0  0  0
   25.2932  -19.5051  -12.9508 C   0  0  0  0  0  0  0  0  0  0  0  0
   26.4546  -19.9193  -12.2979 C   0  0  0  0  0  0  0  0  0  0  0  0
   27.7614  -19.5105  -12.8528 C   0  0  0  0  0  0  0  0  0  0  0  0
   27.9050  -19.8062  -14.3322 C   0  0  2  0  0  0  0  0  0  0  0  0
   27.0272  -19.0017  -15.1280 N   0  0  0  0  0  0  0  0  0  0  0  0
   27.6472  -21.2574  -14.5202 C   0  0  0  0  0  0  0  0  0  0  0  0
   28.6029  -22.1442  -14.0314 O   0  0  0  0  0  0  0  0  0  0  0  0
   26.3199  -20.6892  -11.1639 C   0  0  0  0  0  0  0  0  0  0  0  0
   25.0825  -21.0560  -10.6644 C   0  0  0  0  0  0  0  0  0  0  0  0
   26.6217  -21.6971  -15.0907 O   0  0  0  0  0  0  0  0  0  0  0  0
  2  3  2  0
  2  1  1  0
  4  2  1  0
  5  4  1  0
  5  7  1  0
  5  6  1  1
  7  8  2  0
 10  9  1  1
 11  7  1  0
 11 10  1  0
 12 10  1  0
 12 21  1  0
 13 12  2  0
 15 14  1  0
 16 15  2  0
 17 16  1  0
 18 24  1  0
 18 17  2  0
 19 18  1  0
 20 21  1  0
 20 19  1  1
 22 23  1  0
 22 20  1  0
 24 25  2  0
 25 15  1  0
 26 22  2  0
M  END
$$$$
