NAY.pdb
     RDKit          3D

 26 26  0  0  1  0  0  0  0  0999 V2000
   27.7161  -21.4585   -9.0257 N   0  0  0  0  0  0  0  0  0  0  0  0
   27.3175  -20.0926   -9.1079 C   0  0  0  0  0  0  0  0  0  0  0  0
   27.8141  -19.2315   -8.3515 O   0  0  0  0  0  0  0  0  0  0  0  0
   26.2985  -19.7167  -10.1136 C   0  0  0  0  0  0  0  0  0  0  0  0
   25.8419  -20.9762  -10.8447 C   0  0  2  0  0  0  0  0  0  0  0  0
   26.9260  -21.5315  -11.6269 N   0  0  0  0  0  0  0  0  0  0  0  0
   24.7691  -20.5455  -11.7761 C   0  0  0  0  0  0  0  0  0  0  0  0
   23.8895  -19.7355  -11.4092 O   0  0  0  0  0  0  0  0  0  0  0  0
   23.8976  -21.1550  -15.3836 C   0  0  0  0  0  0  0  0  0  0  0  0
   23.6741  -20.5303  -14.0014 C   0  0  2  0  0  0  0  0  0  0  0  0
   24.7035  -21.0399  -13.1223 N   0  0  0  0  0  0  0  0  0  0  0  0
   22.3257  -20.9837  -13.5513 C   0  0  0  0  0  0  0  0  0  0  0  0
   22.2094  -22.1735  -13.1037 O   0  0  0  0  0  0  0  0  0  0  0  0
   13.9163  -20.9467  -10.9381 O   0  0  0  0  0  0  0  0  0  0  0  0
   15.1775  -20.5499  -11.4217 C   0  0  0  0  0  0  0  0  0  0  0  0
   16.2826  -20.5229  -10.6003 C   0  0  0  0  0  0  0  0  0  0  0  0
   17.5313  -20.1403  -11.0399 C   0  0  0  0  0  0  0  0  0  0  0  0
   17.6954  -19.7617  -12.3727 C   0  0  0  0  0  0  0  0  0  0  0  0
   19.0398  -19.3559  -12.8318 C   0  0  0  0  0  0  0  0  0  0  0  0
   19.9280  -20.5274  -13.1996 C   0  0  2  0  0  0  0  0  0  0  0  0
   21.2266  -20.1024  -13.6287 N   0  0  0  0  0  0  0  0  0  0  0  0
   19.2238  -21.3025  -14.2536 C   0  0  0  0  0  0  0  0  0  0  0  0
   18.4601  -22.3917  -13.8426 O   0  0  0  0  0  0  0  0  0  0  0  0
   16.5901  -19.7889  -13.1938 C   0  0  0  0  0  0  0  0  0  0  0  0
   15.3420  -20.1756  -12.7378 C   0  0  0  0  0  0  0  0  0  0  0  0
   19.2941  -21.0135  -15.4711 O   0  0  0  0  0  0  0  0  0  0  0  0
  2  3  2  0
  2  1  1  0
  4  2  1  0
  5  4  1  0
  5  7  1  0
  5  6  1  6
  7  8  2  0
 10  9  1  6
 11  7  1  0
 11 10  1  0
 12 10  1  0
 12 21  1  0
 13 12  2  0
 15 14  1  0
 16 15  2  0
 17 16  1  0
 18 24  1  0
 18 17  2  0
 19 18  1  0
 20 21  1  0
 20 19  1  6
 22 23  1  0
 22 20  1  0
 24 25  2  0
 25 15  1  0
 26 22  2  0
M  END
$$$$
