NAY.pdb
     RDKit          3D

 26 26  0  0  1  0  0  0  0  0999 V2000
   25.5718  -24.7733  -15.3839 N   0  0  0  0  0  0  0  0  0  0  0  0
   26.7002  -24.9437  -16.2378 C   0  0  0  0  0  0  0  0  0  0  0  0
   27.4174  -23.9721  -16.5568 O   0  0  0  0  0  0  0  0  0  0  0  0
   27.0035  -26.3029  -16.7395 C   0  0  0  0  0  0  0  0  0  0  0  0
   26.5035  -26.4191  -18.1768 C   0  0  2  0  0  0  0  0  0  0  0  0
   25.0612  -26.5392  -18.2054 N   0  0  0  0  0  0  0  0  0  0  0  0
   27.0858  -27.6741  -18.7152 C   0  0  0  0  0  0  0  0  0  0  0  0
   26.4827  -28.7631  -18.5949 O   0  0  0  0  0  0  0  0  0  0  0  0
   29.5358  -28.4966  -21.3161 C   0  0  0  0  0  0  0  0  0  0  0  0
   28.7879  -28.8987  -20.0396 C   0  0  2  0  0  0  0  0  0  0  0  0
   28.3537  -27.6823  -19.3886 N   0  0  0  0  0  0  0  0  0  0  0  0
   29.7744  -29.6273  -19.1896 C   0  0  0  0  0  0  0  0  0  0  0  0
   30.3396  -28.9871  -18.2407 O   0  0  0  0  0  0  0  0  0  0  0  0
   25.9502  -31.6219  -14.4642 O   0  0  0  0  0  0  0  0  0  0  0  0
   26.9948  -31.9489  -15.3494 C   0  0  0  0  0  0  0  0  0  0  0  0
   28.3017  -32.0165  -14.9200 C   0  0  0  0  0  0  0  0  0  0  0  0
   29.3483  -32.3336  -15.7584 C   0  0  0  0  0  0  0  0  0  0  0  0
   29.0851  -32.5995  -17.1026 C   0  0  0  0  0  0  0  0  0  0  0  0
   30.2158  -32.9405  -17.9902 C   0  0  0  0  0  0  0  0  0  0  0  0
   30.9118  -31.7257  -18.5702 C   0  0  2  0  0  0  0  0  0  0  0  0
   30.0565  -30.9852  -19.4484 N   0  0  0  0  0  0  0  0  0  0  0  0
   32.1344  -32.2060  -19.2647 C   0  0  0  0  0  0  0  0  0  0  0  0
   33.1311  -32.7793  -18.4795 O   0  0  0  0  0  0  0  0  0  0  0  0
   27.7781  -32.5319  -17.5315 C   0  0  0  0  0  0  0  0  0  0  0  0
   26.7372  -32.2121  -16.6775 C   0  0  0  0  0  0  0  0  0  0  0  0
   32.2924  -32.1136  -20.5045 O   0  0  0  0  0  0  0  0  0  0  0  0
  2  3  2  0
  2  1  1  0
  4  2  1  0
  5  4  1  0
  5  7  1  0
  5  6  1  1
  7  8  2  0
 10  9  1  6
 11  7  1  0
 11 10  1  0
 12 10  1  0
 12 21  1  0
 13 12  2  0
 15 14  1  0
 16 15  2  0
 17 16  1  0
 18 24  1  0
 18 17  2  0
 19 18  1  0
 20 21  1  0
 20 19  1  6
 22 23  1  0
 22 20  1  0
 24 25  2  0
 25 15  1  0
 26 22  2  0
M  END
$$$$
