NAY.pdb
     RDKit          3D

 26 26  0  0  1  0  0  0  0  0999 V2000
   27.4388  -24.7379  -15.9085 N   0  0  0  0  0  0  0  0  0  0  0  0
   26.6584  -23.5764  -15.6379 C   0  0  0  0  0  0  0  0  0  0  0  0
   27.2015  -22.4938  -15.3328 O   0  0  0  0  0  0  0  0  0  0  0  0
   25.1847  -23.6829  -15.7273 C   0  0  0  0  0  0  0  0  0  0  0  0
   24.8156  -25.1267  -16.0571 C   0  0  2  0  0  0  0  0  0  0  0  0
   25.1408  -25.4330  -17.4340 N   0  0  0  0  0  0  0  0  0  0  0  0
   23.3431  -25.2226  -15.8943 C   0  0  0  0  0  0  0  0  0  0  0  0
   22.5721  -24.6118  -16.6668 O   0  0  0  0  0  0  0  0  0  0  0  0
   20.9710  -27.3864  -14.0081 C   0  0  0  0  0  0  0  0  0  0  0  0
   21.3138  -26.1019  -14.7718 C   0  0  2  0  0  0  0  0  0  0  0  0
   22.7554  -26.0149  -14.8512 N   0  0  0  0  0  0  0  0  0  0  0  0
   20.7622  -24.9757  -13.9633 C   0  0  0  0  0  0  0  0  0  0  0  0
   21.3671  -24.6560  -12.8855 O   0  0  0  0  0  0  0  0  0  0  0  0
   24.4209  -20.4708  -16.2891 O   0  0  0  0  0  0  0  0  0  0  0  0
   23.1256  -20.8148  -15.8582 C   0  0  0  0  0  0  0  0  0  0  0  0
   22.3207  -21.6466  -16.6044 C   0  0  0  0  0  0  0  0  0  0  0  0
   21.0486  -22.0041  -16.2131 C   0  0  0  0  0  0  0  0  0  0  0  0
   20.5435  -21.5079  -15.0109 C   0  0  0  0  0  0  0  0  0  0  0  0
   19.1793  -21.9007  -14.6018 C   0  0  0  0  0  0  0  0  0  0  0  0
   19.1484  -23.1279  -13.7133 C   0  0  2  0  0  0  0  0  0  0  0  0
   19.6035  -24.2995  -14.4000 N   0  0  0  0  0  0  0  0  0  0  0  0
   17.7552  -23.2824  -13.2206 C   0  0  0  0  0  0  0  0  0  0  0  0
   17.3072  -22.3645  -12.2743 O   0  0  0  0  0  0  0  0  0  0  0  0
   21.3488  -20.6762  -14.2649 C   0  0  0  0  0  0  0  0  0  0  0  0
   22.6245  -20.3260  -14.6710 C   0  0  0  0  0  0  0  0  0  0  0  0
   16.9897  -24.1905  -13.6204 O   0  0  0  0  0  0  0  0  0  0  0  0
  2  3  2  0
  2  1  1  0
  4  2  1  0
  5  4  1  0
  5  7  1  0
  5  6  1  6
  7  8  2  0
 10  9  1  1
 11  7  1  0
 11 10  1  0
 12 10  1  0
 12 21  1  0
 13 12  2  0
 15 14  1  0
 16 15  2  0
 17 16  1  0
 18 24  1  0
 18 17  2  0
 19 18  1  0
 20 21  1  0
 20 19  1  6
 22 23  1  0
 22 20  1  0
 24 25  2  0
 25 15  1  0
 26 22  2  0
M  END
$$$$
