NAY.pdb
     RDKit          3D

 26 26  0  0  1  0  0  0  0  0999 V2000
   28.3794  -27.6376  -16.2956 N   0  0  0  0  0  0  0  0  0  0  0  0
   27.5531  -26.7413  -17.0340 C   0  0  0  0  0  0  0  0  0  0  0  0
   27.4142  -26.8648  -18.2692 O   0  0  0  0  0  0  0  0  0  0  0  0
   26.8609  -25.6574  -16.3011 C   0  0  0  0  0  0  0  0  0  0  0  0
   26.8157  -24.4159  -17.1878 C   0  0  2  0  0  0  0  0  0  0  0  0
   28.1527  -23.9215  -17.4392 N   0  0  0  0  0  0  0  0  0  0  0  0
   26.0760  -23.3856  -16.4161 C   0  0  0  0  0  0  0  0  0  0  0  0
   25.5987  -23.6487  -15.2903 O   0  0  0  0  0  0  0  0  0  0  0  0
   25.3137  -19.7288  -16.7921 C   0  0  0  0  0  0  0  0  0  0  0  0
   25.1471  -21.1034  -16.1338 C   0  0  2  0  0  0  0  0  0  0  0  0
   25.8836  -22.0594  -16.9311 N   0  0  0  0  0  0  0  0  0  0  0  0
   23.6865  -21.4068  -16.1644 C   0  0  0  0  0  0  0  0  0  0  0  0
   23.1878  -21.8555  -17.2505 O   0  0  0  0  0  0  0  0  0  0  0  0
   22.9951  -27.6697  -14.1035 O   0  0  0  0  0  0  0  0  0  0  0  0
   22.5043  -26.3515  -14.0447 C   0  0  0  0  0  0  0  0  0  0  0  0
   23.2948  -25.3126  -13.6058 C   0  0  0  0  0  0  0  0  0  0  0  0
   22.8473  -24.0111  -13.5355 C   0  0  0  0  0  0  0  0  0  0  0  0
   21.5387  -23.7211  -13.9230 C   0  0  0  0  0  0  0  0  0  0  0  0
   21.0723  -22.3215  -13.8451 C   0  0  0  0  0  0  0  0  0  0  0  0
   21.4976  -21.4795  -15.0312 C   0  0  2  0  0  0  0  0  0  0  0  0
   22.9011  -21.1949  -15.0116 N   0  0  0  0  0  0  0  0  0  0  0  0
   20.6816  -20.2381  -15.0076 C   0  0  0  0  0  0  0  0  0  0  0  0
   19.3244  -20.3605  -15.2934 O   0  0  0  0  0  0  0  0  0  0  0  0
   20.7486  -24.7603  -14.3620 C   0  0  0  0  0  0  0  0  0  0  0  0
   21.2121  -26.0626  -14.4270 C   0  0  0  0  0  0  0  0  0  0  0  0
   21.1649  -19.1120  -14.7449 O   0  0  0  0  0  0  0  0  0  0  0  0
  2  3  2  0
  2  1  1  0
  4  2  1  0
  5  4  1  0
  5  7  1  0
  5  6  1  1
  7  8  2  0
 10  9  1  6
 11  7  1  0
 11 10  1  0
 12 10  1  0
 12 21  1  0
 13 12  2  0
 15 14  1  0
 16 15  2  0
 17 16  1  0
 18 24  1  0
 18 17  2  0
 19 18  1  0
 20 21  1  0
 20 19  1  1
 22 23  1  0
 22 20  1  0
 24 25  2  0
 25 15  1  0
 26 22  2  0
M  END
$$$$
