NAY.pdb
     RDKit          3D

 26 26  0  0  1  0  0  0  0  0999 V2000
   27.9497  -23.5380  -17.9652 N   0  0  0  0  0  0  0  0  0  0  0  0
   28.7678  -23.1694  -16.8579 C   0  0  0  0  0  0  0  0  0  0  0  0
   29.5629  -23.9856  -16.3463 O   0  0  0  0  0  0  0  0  0  0  0  0
   28.6532  -21.7926  -16.3264 C   0  0  0  0  0  0  0  0  0  0  0  0
   27.6600  -21.0152  -17.1860 C   0  0  2  0  0  0  0  0  0  0  0  0
   28.3570  -20.1176  -18.0825 N   0  0  0  0  0  0  0  0  0  0  0  0
   26.8521  -20.1989  -16.2453 C   0  0  0  0  0  0  0  0  0  0  0  0
   27.3872  -19.3109  -15.5457 O   0  0  0  0  0  0  0  0  0  0  0  0
   23.5693  -18.8929  -15.9630 C   0  0  0  0  0  0  0  0  0  0  0  0
   24.7046  -19.5629  -15.1802 C   0  0  2  0  0  0  0  0  0  0  0  0
   25.4372  -20.3983  -16.1062 N   0  0  0  0  0  0  0  0  0  0  0  0
   24.0517  -20.3928  -14.1260 C   0  0  0  0  0  0  0  0  0  0  0  0
   23.5883  -21.5344  -14.4600 O   0  0  0  0  0  0  0  0  0  0  0  0
   29.3062  -21.6784   -9.7014 O   0  0  0  0  0  0  0  0  0  0  0  0
   27.9512  -21.3331   -9.8653 C   0  0  0  0  0  0  0  0  0  0  0  0
   27.1152  -22.0776  -10.6675 C   0  0  0  0  0  0  0  0  0  0  0  0
   25.7847  -21.7689  -10.8504 C   0  0  0  0  0  0  0  0  0  0  0  0
   25.2502  -20.6562  -10.2001 C   0  0  0  0  0  0  0  0  0  0  0  0
   23.8219  -20.3376  -10.4028 C   0  0  0  0  0  0  0  0  0  0  0  0
   23.3196  -20.6858  -11.7895 C   0  0  2  0  0  0  0  0  0  0  0  0
   23.9623  -19.9063  -12.8046 N   0  0  0  0  0  0  0  0  0  0  0  0
   21.8471  -20.4869  -11.7894 C   0  0  0  0  0  0  0  0  0  0  0  0
   21.0787  -21.4064  -11.0804 O   0  0  0  0  0  0  0  0  0  0  0  0
   26.0866  -19.9120   -9.3979 C   0  0  0  0  0  0  0  0  0  0  0  0
   27.4210  -20.2346   -9.2238 C   0  0  0  0  0  0  0  0  0  0  0  0
   21.2891  -19.5407  -12.3925 O   0  0  0  0  0  0  0  0  0  0  0  0
  2  3  2  0
  2  1  1  0
  4  2  1  0
  5  4  1  0
  5  7  1  0
  5  6  1  6
  7  8  2  0
 10  9  1  6
 11  7  1  0
 11 10  1  0
 12 10  1  0
 12 21  1  0
 13 12  2  0
 15 14  1  0
 16 15  2  0
 17 16  1  0
 18 24  1  0
 18 17  2  0
 19 18  1  0
 20 21  1  0
 20 19  1  1
 22 23  1  0
 22 20  1  0
 24 25  2  0
 25 15  1  0
 26 22  2  0
M  END
$$$$
