NAY.pdb
     RDKit          3D

 26 26  0  0  1  0  0  0  0  0999 V2000
   18.4108  -14.4068  -18.3046 N   0  0  0  0  0  0  0  0  0  0  0  0
   19.2985  -13.3087  -18.4979 C   0  0  0  0  0  0  0  0  0  0  0  0
   20.3944  -13.4624  -19.0772 O   0  0  0  0  0  0  0  0  0  0  0  0
   18.8906  -11.9777  -17.9950 C   0  0  0  0  0  0  0  0  0  0  0  0
   20.0283  -11.3987  -17.1585 C   0  0  2  0  0  0  0  0  0  0  0  0
   20.1311  -12.0908  -15.8913 N   0  0  0  0  0  0  0  0  0  0  0  0
   19.6629   -9.9853  -16.8885 C   0  0  0  0  0  0  0  0  0  0  0  0
   19.6090   -9.1492  -17.8172 O   0  0  0  0  0  0  0  0  0  0  0  0
   17.8651   -8.0426  -14.4094 C   0  0  0  0  0  0  0  0  0  0  0  0
   19.0692   -8.1292  -15.3545 C   0  0  2  0  0  0  0  0  0  0  0  0
   19.3601   -9.5309  -15.5608 N   0  0  0  0  0  0  0  0  0  0  0  0
   20.2001   -7.4547  -14.6527 C   0  0  0  0  0  0  0  0  0  0  0  0
   20.7066   -8.0331  -13.6337 O   0  0  0  0  0  0  0  0  0  0  0  0
   24.2010   -9.4271  -19.1498 O   0  0  0  0  0  0  0  0  0  0  0  0
   23.8782   -8.3973  -18.2458 C   0  0  0  0  0  0  0  0  0  0  0  0
   23.3681   -7.1951  -18.6832 C   0  0  0  0  0  0  0  0  0  0  0  0
   23.0411   -6.1662  -17.8268 C   0  0  0  0  0  0  0  0  0  0  0  0
   23.2306   -6.3381  -16.4553 C   0  0  0  0  0  0  0  0  0  0  0  0
   22.8738   -5.2281  -15.5479 C   0  0  0  0  0  0  0  0  0  0  0  0
   21.8260   -5.6054  -14.5202 C   0  0  2  0  0  0  0  0  0  0  0  0
   20.6775   -6.2129  -15.1227 N   0  0  0  0  0  0  0  0  0  0  0  0
   21.4709   -4.3692  -13.7762 C   0  0  0  0  0  0  0  0  0  0  0  0
   22.4569   -3.8017  -12.9734 O   0  0  0  0  0  0  0  0  0  0  0  0
   23.7406   -7.5405  -16.0183 C   0  0  0  0  0  0  0  0  0  0  0  0
   24.0644   -8.5648  -16.8906 C   0  0  0  0  0  0  0  0  0  0  0  0
   20.3397   -3.8346  -13.8471 O   0  0  0  0  0  0  0  0  0  0  0  0
  2  3  2  0
  2  1  1  0
  4  2  1  0
  5  4  1  0
  5  7  1  0
  5  6  1  1
  7  8  2  0
 10  9  1  1
 11  7  1  0
 11 10  1  0
 12 10  1  0
 12 21  1  0
 13 12  2  0
 15 14  1  0
 16 15  2  0
 17 16  1  0
 18 24  1  0
 18 17  2  0
 19 18  1  0
 20 21  1  0
 20 19  1  6
 22 23  1  0
 22 20  1  0
 24 25  2  0
 25 15  1  0
 26 22  2  0
M  END
$$$$
