KST.pdb
     RDKit          3D

 23 22  0  0  1  0  0  0  0  0999 V2000
   22.4908  -13.5513  -18.0699 N   0  0  0  0  0  0  0  0  0  0  0  0
   21.5799  -12.4337  -18.4269 C   0  0  1  0  0  0  0  0  0  0  0  0
   20.2639  -12.8407  -17.8542 C   0  0  0  0  0  0  0  0  0  0  0  0
   19.6874  -14.1231  -18.3266 C   0  0  0  0  0  0  0  0  0  0  0  0
   18.3270  -14.2540  -17.6106 C   0  0  0  0  0  0  0  0  0  0  0  0
   17.6597  -15.5539  -17.9944 C   0  0  0  0  0  0  0  0  0  0  0  0
   16.4299  -15.6549  -17.2667 N   0  0  0  0  0  0  0  0  0  0  0  0
   22.0586  -11.1849  -17.7832 C   0  0  0  0  0  0  0  0  0  0  0  0
   22.4718  -11.1886  -16.5724 O   0  0  0  0  0  0  0  0  0  0  0  0
   23.8990   -6.7793  -18.3528 O   0  0  0  0  0  0  0  0  0  0  0  0
   23.3548   -7.9516  -18.8829 C   0  0  0  0  0  0  0  0  0  0  0  0
   22.6223   -8.7317  -17.7907 C   0  0  2  0  0  0  0  0  0  0  0  0
   22.1034   -9.9246  -18.4231 N   0  0  0  0  0  0  0  0  0  0  0  0
   21.5665   -7.9086  -17.1766 C   0  0  0  0  0  0  0  0  0  0  0  0
   20.4884   -7.5944  -17.7491 O   0  0  0  0  0  0  0  0  0  0  0  0
   19.6005   -8.6092  -14.2475 C   0  0  0  0  0  0  0  0  0  0  0  0
   20.3766   -7.3705  -13.9009 C   0  0  1  0  0  0  0  0  0  0  0  0
   21.5056   -7.6891  -13.1437 O   0  0  0  0  0  0  0  0  0  0  0  0
   20.7870   -6.6119  -15.1565 C   0  0  2  0  0  0  0  0  0  0  0  0
   21.7684   -7.4358  -15.8581 N   0  0  0  0  0  0  0  0  0  0  0  0
   21.4028   -5.3390  -14.7022 C   0  0  0  0  0  0  0  0  0  0  0  0
   22.7749   -5.2083  -14.8663 O   0  0  0  0  0  0  0  0  0  0  0  0
   20.7190   -4.4233  -14.1939 O   0  0  0  0  0  0  0  0  0  0  0  0
  2  1  1  1
  3  4  1  0
  3  2  1  0
  5  4  1  0
  6  5  1  0
  7  6  1  0
  8 13  1  0
  8  2  1  0
  9  8  2  0
 11 10  1  0
 12 11  1  6
 12 14  1  0
 12 13  1  0
 14 15  2  0
 17 16  1  6
 17 19  1  0
 18 17  1  0
 19 21  1  0
 19 20  1  1
 20 14  1  0
 21 22  1  0
 23 21  2  0
M  END
$$$$
