KST.pdb
     RDKit          3D

 23 22  0  0  1  0  0  0  0  0999 V2000
   29.3126  -20.1993  -17.9871 N   0  0  0  0  0  0  0  0  0  0  0  0
   28.2250  -21.2081  -17.9114 C   0  0  1  0  0  0  0  0  0  0  0  0
   28.7178  -22.1991  -16.9110 C   0  0  0  0  0  0  0  0  0  0  0  0
   29.5379  -23.3250  -17.4206 C   0  0  0  0  0  0  0  0  0  0  0  0
   29.8217  -24.2182  -16.1950 C   0  0  0  0  0  0  0  0  0  0  0  0
   30.6933  -25.3863  -16.5928 C   0  0  0  0  0  0  0  0  0  0  0  0
   31.9637  -24.8722  -17.0099 N   0  0  0  0  0  0  0  0  0  0  0  0
   26.9837  -20.5567  -17.4239 C   0  0  0  0  0  0  0  0  0  0  0  0
   27.0098  -19.7666  -16.4180 O   0  0  0  0  0  0  0  0  0  0  0  0
   24.2496  -18.4426  -19.2724 O   0  0  0  0  0  0  0  0  0  0  0  0
   23.7380  -19.6430  -18.7737 C   0  0  0  0  0  0  0  0  0  0  0  0
   24.5164  -20.0690  -17.5285 C   0  0  2  0  0  0  0  0  0  0  0  0
   25.7069  -20.7390  -18.0040 N   0  0  0  0  0  0  0  0  0  0  0  0
   23.6899  -20.9256  -16.6610 C   0  0  0  0  0  0  0  0  0  0  0  0
   23.5663  -22.1718  -16.8044 O   0  0  0  0  0  0  0  0  0  0  0  0
   23.2025  -20.0298  -12.6582 C   0  0  0  0  0  0  0  0  0  0  0  0
   21.9306  -20.1984  -13.4397 C   0  0  1  0  0  0  0  0  0  0  0  0
   21.4184  -18.9582  -13.8257 O   0  0  0  0  0  0  0  0  0  0  0  0
   22.1527  -21.0759  -14.6649 C   0  0  2  0  0  0  0  0  0  0  0  0
   22.9858  -20.3172  -15.5949 N   0  0  0  0  0  0  0  0  0  0  0  0
   20.8132  -21.3320  -15.2531 C   0  0  0  0  0  0  0  0  0  0  0  0
   19.9942  -22.2338  -14.5880 O   0  0  0  0  0  0  0  0  0  0  0  0
   20.4364  -20.7623  -16.3010 O   0  0  0  0  0  0  0  0  0  0  0  0
  2  1  1  1
  3  4  1  0
  3  2  1  0
  5  4  1  0
  6  5  1  0
  7  6  1  0
  8 13  1  0
  8  2  1  0
  9  8  2  0
 11 10  1  0
 12 11  1  6
 12 14  1  0
 12 13  1  0
 14 15  2  0
 17 16  1  6
 17 19  1  0
 18 17  1  0
 19 21  1  0
 19 20  1  6
 20 14  1  0
 21 22  1  0
 23 21  2  0
M  END
$$$$
