KST.pdb
     RDKit          3D

 23 22  0  0  1  0  0  0  0  0999 V2000
   17.9318  -11.9397  -17.0233 N   0  0  0  0  0  0  0  0  0  0  0  0
   17.8931  -10.5094  -17.4220 C   0  0  1  0  0  0  0  0  0  0  0  0
   16.6207  -10.0020  -16.8313 C   0  0  0  0  0  0  0  0  0  0  0  0
   15.3622  -10.6479  -17.2773 C   0  0  0  0  0  0  0  0  0  0  0  0
   14.2279   -9.8742  -16.5736 C   0  0  0  0  0  0  0  0  0  0  0  0
   12.8839  -10.3954  -17.0255 C   0  0  0  0  0  0  0  0  0  0  0  0
   11.8694   -9.7316  -16.2624 N   0  0  0  0  0  0  0  0  0  0  0  0
   19.0554   -9.8023  -16.8287 C   0  0  0  0  0  0  0  0  0  0  0  0
   19.4514  -10.0729  -15.6426 O   0  0  0  0  0  0  0  0  0  0  0  0
   22.9467   -7.0031  -17.5638 O   0  0  0  0  0  0  0  0  0  0  0  0
   21.7852   -7.6053  -18.0533 C   0  0  0  0  0  0  0  0  0  0  0  0
   20.9388   -8.1336  -16.8946 C   0  0  2  0  0  0  0  0  0  0  0  0
   19.8058   -8.8047  -17.4931 N   0  0  0  0  0  0  0  0  0  0  0  0
   20.5403   -7.0381  -15.9943 C   0  0  0  0  0  0  0  0  0  0  0  0
   19.6280   -6.2065  -16.2490 O   0  0  0  0  0  0  0  0  0  0  0  0
   19.5995   -7.4533  -12.3484 C   0  0  0  0  0  0  0  0  0  0  0  0
   20.7973   -6.5498  -12.4229 C   0  0  1  0  0  0  0  0  0  0  0  0
   21.9707   -7.2607  -12.1639 O   0  0  0  0  0  0  0  0  0  0  0  0
   20.8876   -5.8709  -13.7836 C   0  0  2  0  0  0  0  0  0  0  0  0
   21.2214   -6.9042  -14.7611 N   0  0  0  0  0  0  0  0  0  0  0  0
   21.9806   -4.8699  -13.6878 C   0  0  0  0  0  0  0  0  0  0  0  0
   23.1355   -5.1255  -14.4142 O   0  0  0  0  0  0  0  0  0  0  0  0
   21.8692   -3.8412  -12.9851 O   0  0  0  0  0  0  0  0  0  0  0  0
  2  1  1  1
  3  4  1  0
  3  2  1  0
  5  4  1  0
  6  5  1  0
  7  6  1  0
  8 13  1  0
  8  2  1  0
  9  8  2  0
 11 10  1  0
 12 11  1  6
 12 14  1  0
 12 13  1  0
 14 15  2  0
 17 16  1  6
 17 19  1  0
 18 17  1  0
 19 21  1  0
 19 20  1  6
 20 14  1  0
 21 22  1  0
 23 21  2  0
M  END
$$$$
