KST.pdb
     RDKit          3D

 23 22  0  0  1  0  0  0  0  0999 V2000
   22.9428  -21.6396  -16.3518 N   0  0  0  0  0  0  0  0  0  0  0  0
   21.8472  -20.8665  -15.7128 C   0  0  1  0  0  0  0  0  0  0  0  0
   20.6768  -21.0846  -16.6117 C   0  0  0  0  0  0  0  0  0  0  0  0
   20.8313  -20.6887  -18.0328 C   0  0  0  0  0  0  0  0  0  0  0  0
   19.4816  -21.0185  -18.7034 C   0  0  0  0  0  0  0  0  0  0  0  0
   19.5301  -20.6663  -20.1717 C   0  0  0  0  0  0  0  0  0  0  0  0
   18.2651  -21.0046  -20.7527 N   0  0  0  0  0  0  0  0  0  0  0  0
   21.5735  -21.4244  -14.3649 C   0  0  0  0  0  0  0  0  0  0  0  0
   22.1808  -22.4728  -13.9540 O   0  0  0  0  0  0  0  0  0  0  0  0
   19.1157  -19.4741  -11.6157 O   0  0  0  0  0  0  0  0  0  0  0  0
   20.2115  -20.2307  -11.1936 C   0  0  0  0  0  0  0  0  0  0  0  0
   20.4184  -21.4228  -12.1284 C   0  0  2  0  0  0  0  0  0  0  0  0
   20.6543  -20.8702  -13.4442 N   0  0  0  0  0  0  0  0  0  0  0  0
   19.2557  -22.3263  -12.0914 C   0  0  0  0  0  0  0  0  0  0  0  0
   18.3293  -22.3262  -12.9461 O   0  0  0  0  0  0  0  0  0  0  0  0
   17.2230  -26.0367   -9.4332 C   0  0  0  0  0  0  0  0  0  0  0  0
   18.3746  -25.1204   -9.7348 C   0  0  1  0  0  0  0  0  0  0  0  0
   19.5190  -25.8528  -10.0566 O   0  0  0  0  0  0  0  0  0  0  0  0
   18.0309  -24.1637  -10.8692 C   0  0  2  0  0  0  0  0  0  0  0  0
   19.1659  -23.2579  -11.0300 N   0  0  0  0  0  0  0  0  0  0  0  0
   16.8214  -23.4148  -10.4423 C   0  0  0  0  0  0  0  0  0  0  0  0
   15.5943  -24.0319  -10.6420 O   0  0  0  0  0  0  0  0  0  0  0  0
   16.9010  -22.2785   -9.9255 O   0  0  0  0  0  0  0  0  0  0  0  0
  2  1  1  6
  3  4  1  0
  3  2  1  0
  5  4  1  0
  6  5  1  0
  7  6  1  0
  8 13  1  0
  8  2  1  0
  9  8  2  0
 11 10  1  0
 12 11  1  1
 12 14  1  0
 12 13  1  0
 14 15  2  0
 17 16  1  6
 17 19  1  0
 18 17  1  0
 19 21  1  0
 19 20  1  1
 20 14  1  0
 21 22  1  0
 23 21  2  0
M  END
$$$$
