KST.pdb
     RDKit          3D

 23 22  0  0  1  0  0  0  0  0999 V2000
   21.4488  -10.5155  -15.5177 N   0  0  0  0  0  0  0  0  0  0  0  0
   21.5328   -9.2988  -16.3655 C   0  0  1  0  0  0  0  0  0  0  0  0
   20.7664   -9.6584  -17.5938 C   0  0  0  0  0  0  0  0  0  0  0  0
   21.2706  -10.7989  -18.3969 C   0  0  0  0  0  0  0  0  0  0  0  0
   20.2698  -10.9608  -19.5598 C   0  0  0  0  0  0  0  0  0  0  0  0
   20.7626  -12.0102  -20.5285 C   0  0  0  0  0  0  0  0  0  0  0  0
   19.7952  -12.1374  -21.5772 N   0  0  0  0  0  0  0  0  0  0  0  0
   20.8805   -8.1651  -15.6639 C   0  0  0  0  0  0  0  0  0  0  0  0
   19.6658   -8.2491  -15.2711 O   0  0  0  0  0  0  0  0  0  0  0  0
   23.0426   -4.9376  -14.2426 O   0  0  0  0  0  0  0  0  0  0  0  0
   21.8671   -5.3634  -13.6195 C   0  0  0  0  0  0  0  0  0  0  0  0
   20.8658   -5.8543  -14.6656 C   0  0  2  0  0  0  0  0  0  0  0  0
   21.5159   -6.9357  -15.3730 N   0  0  0  0  0  0  0  0  0  0  0  0
   20.4581   -4.7555  -15.5576 C   0  0  0  0  0  0  0  0  0  0  0  0
   21.1021   -4.3945  -16.5792 O   0  0  0  0  0  0  0  0  0  0  0  0
   16.7421   -1.6437  -16.5758 C   0  0  0  0  0  0  0  0  0  0  0  0
   17.3833   -2.6080  -15.6188 C   0  0  1  0  0  0  0  0  0  0  0  0
   16.6716   -3.8085  -15.5742 O   0  0  0  0  0  0  0  0  0  0  0  0
   18.8339   -2.8749  -15.9996 C   0  0  2  0  0  0  0  0  0  0  0  0
   19.2667   -4.0546  -15.2543 N   0  0  0  0  0  0  0  0  0  0  0  0
   19.6101   -1.6794  -15.5822 C   0  0  0  0  0  0  0  0  0  0  0  0
   19.7725   -0.6725  -16.5236 O   0  0  0  0  0  0  0  0  0  0  0  0
   20.0972   -1.5807  -14.4344 O   0  0  0  0  0  0  0  0  0  0  0  0
  2  1  1  1
  3  4  1  0
  3  2  1  0
  5  4  1  0
  6  5  1  0
  7  6  1  0
  8 13  1  0
  8  2  1  0
  9  8  2  0
 11 10  1  0
 12 11  1  1
 12 14  1  0
 12 13  1  0
 14 15  2  0
 17 16  1  6
 17 19  1  0
 18 17  1  0
 19 21  1  0
 19 20  1  1
 20 14  1  0
 21 22  1  0
 23 21  2  0
M  END
$$$$
