KST.pdb
     RDKit          3D

 23 22  0  0  1  0  0  0  0  0999 V2000
   16.0305  -11.7030  -15.8835 N   0  0  0  0  0  0  0  0  0  0  0  0
   17.3265  -11.5030  -15.1859 C   0  0  1  0  0  0  0  0  0  0  0  0
   18.3336  -12.0943  -16.1140 C   0  0  0  0  0  0  0  0  0  0  0  0
   18.2015  -13.5385  -16.4256 C   0  0  0  0  0  0  0  0  0  0  0  0
   19.3919  -13.8734  -17.3481 C   0  0  0  0  0  0  0  0  0  0  0  0
   19.2833  -15.2970  -17.8419 C   0  0  0  0  0  0  0  0  0  0  0  0
   20.3458  -15.5269  -18.7748 N   0  0  0  0  0  0  0  0  0  0  0  0
   17.5732  -10.0494  -15.0150 C   0  0  0  0  0  0  0  0  0  0  0  0
   17.3459   -9.2294  -15.9704 O   0  0  0  0  0  0  0  0  0  0  0  0
   18.3489   -8.4490  -11.3298 O   0  0  0  0  0  0  0  0  0  0  0  0
   17.7899   -7.6354  -12.3183 C   0  0  0  0  0  0  0  0  0  0  0  0
   18.3195   -8.0408  -13.6942 C   0  0  2  0  0  0  0  0  0  0  0  0
   18.0610   -9.4578  -13.8268 N   0  0  0  0  0  0  0  0  0  0  0  0
   19.7486   -7.7089  -13.8246 C   0  0  0  0  0  0  0  0  0  0  0  0
   20.6889   -8.5119  -13.5799 O   0  0  0  0  0  0  0  0  0  0  0  0
   22.9427   -4.5991  -15.8911 C   0  0  0  0  0  0  0  0  0  0  0  0
   21.5605   -5.1503  -15.6852 C   0  0  1  0  0  0  0  0  0  0  0  0
   21.1715   -5.9314  -16.7752 O   0  0  0  0  0  0  0  0  0  0  0  0
   21.4824   -5.9682  -14.4025 C   0  0  2  0  0  0  0  0  0  0  0  0
   20.0965   -6.4055  -14.2521 N   0  0  0  0  0  0  0  0  0  0  0  0
   21.8660   -5.0577  -13.2935 C   0  0  0  0  0  0  0  0  0  0  0  0
   20.8399   -4.3782  -12.6517 O   0  0  0  0  0  0  0  0  0  0  0  0
   23.0593   -4.9074  -12.9503 O   0  0  0  0  0  0  0  0  0  0  0  0
  2  1  1  6
  3  4  1  0
  3  2  1  0
  5  4  1  0
  6  5  1  0
  7  6  1  0
  8 13  1  0
  8  2  1  0
  9  8  2  0
 11 10  1  0
 12 11  1  1
 12 14  1  0
 12 13  1  0
 14 15  2  0
 17 16  1  6
 17 19  1  0
 18 17  1  0
 19 21  1  0
 19 20  1  1
 20 14  1  0
 21 22  1  0
 23 21  2  0
M  END
$$$$
