KST.pdb
     RDKit          3D

 23 22  0  0  1  0  0  0  0  0999 V2000
   28.0187  -22.7825  -15.7389 N   0  0  0  0  0  0  0  0  0  0  0  0
   27.1494  -21.5883  -15.8955 C   0  0  1  0  0  0  0  0  0  0  0  0
   27.1352  -21.3399  -17.3664 C   0  0  0  0  0  0  0  0  0  0  0  0
   28.4038  -20.8897  -17.9894 C   0  0  0  0  0  0  0  0  0  0  0  0
   28.0839  -20.6958  -19.4862 C   0  0  0  0  0  0  0  0  0  0  0  0
   29.3058  -20.1935  -20.2189 C   0  0  0  0  0  0  0  0  0  0  0  0
   28.9551  -20.0095  -21.5956 N   0  0  0  0  0  0  0  0  0  0  0  0
   25.7828  -21.9087  -15.4132 C   0  0  0  0  0  0  0  0  0  0  0  0
   25.1855  -22.9733  -15.7961 O   0  0  0  0  0  0  0  0  0  0  0  0
   24.2163  -21.0645  -11.6999 O   0  0  0  0  0  0  0  0  0  0  0  0
   23.4881  -20.5844  -12.7910 C   0  0  0  0  0  0  0  0  0  0  0  0
   23.7363  -21.4643  -14.0166 C   0  0  2  0  0  0  0  0  0  0  0  0
   25.0431  -21.1007  -14.5188 N   0  0  0  0  0  0  0  0  0  0  0  0
   22.6714  -21.2816  -15.0177 C   0  0  0  0  0  0  0  0  0  0  0  0
   22.6387  -20.3401  -15.8552 O   0  0  0  0  0  0  0  0  0  0  0  0
   21.3089  -24.2570  -17.2072 C   0  0  0  0  0  0  0  0  0  0  0  0
   20.2100  -23.6228  -16.4028 C   0  0  1  0  0  0  0  0  0  0  0  0
   19.9627  -24.3540  -15.2393 O   0  0  0  0  0  0  0  0  0  0  0  0
   20.5513  -22.1806  -16.0504 C   0  0  2  0  0  0  0  0  0  0  0  0
   21.6127  -22.2201  -15.0473 N   0  0  0  0  0  0  0  0  0  0  0  0
   19.3181  -21.5783  -15.4826 C   0  0  0  0  0  0  0  0  0  0  0  0
   18.2618  -21.3616  -16.3566 O   0  0  0  0  0  0  0  0  0  0  0  0
   19.2314  -21.2783  -14.2714 O   0  0  0  0  0  0  0  0  0  0  0  0
  2  1  1  6
  3  4  1  0
  3  2  1  0
  5  4  1  0
  6  5  1  0
  7  6  1  0
  8 13  1  0
  8  2  1  0
  9  8  2  0
 11 10  1  0
 12 11  1  1
 12 14  1  0
 12 13  1  0
 14 15  2  0
 17 16  1  1
 17 19  1  0
 18 17  1  0
 19 21  1  0
 19 20  1  1
 20 14  1  0
 21 22  1  0
 23 21  2  0
M  END
$$$$
