KST.pdb
     RDKit          3D

 23 22  0  0  1  0  0  0  0  0999 V2000
   20.7923  -12.5529  -16.9153 N   0  0  0  0  0  0  0  0  0  0  0  0
   19.7883  -11.4586  -16.8860 C   0  0  1  0  0  0  0  0  0  0  0  0
   18.5009  -12.1545  -16.5969 C   0  0  0  0  0  0  0  0  0  0  0  0
   18.0164  -13.1286  -17.6052 C   0  0  0  0  0  0  0  0  0  0  0  0
   16.8058  -13.8298  -16.9548 C   0  0  0  0  0  0  0  0  0  0  0  0
   16.1889  -14.8099  -17.9250 C   0  0  0  0  0  0  0  0  0  0  0  0
   15.0852  -15.4481  -17.2717 N   0  0  0  0  0  0  0  0  0  0  0  0
   20.1221  -10.5148  -15.7902 C   0  0  0  0  0  0  0  0  0  0  0  0
   19.3756  -10.4219  -14.7554 O   0  0  0  0  0  0  0  0  0  0  0  0
   23.8091   -9.6066  -14.7363 O   0  0  0  0  0  0  0  0  0  0  0  0
   22.6986   -9.4160  -13.9106 C   0  0  0  0  0  0  0  0  0  0  0  0
   21.5632   -8.7628  -14.6994 C   0  0  2  0  0  0  0  0  0  0  0  0
   21.2528   -9.6655  -15.7861 N   0  0  0  0  0  0  0  0  0  0  0  0
   21.9537   -7.4221  -15.1677 C   0  0  0  0  0  0  0  0  0  0  0  0
   22.7043   -7.2067  -16.1572 O   0  0  0  0  0  0  0  0  0  0  0  0
   19.6788   -4.6781  -16.2171 C   0  0  0  0  0  0  0  0  0  0  0  0
   20.4302   -4.1948  -15.0094 C   0  0  1  0  0  0  0  0  0  0  0  0
   19.6654   -4.3572  -13.8526 O   0  0  0  0  0  0  0  0  0  0  0  0
   21.7595   -4.9242  -14.8631 C   0  0  2  0  0  0  0  0  0  0  0  0
   21.4578   -6.2976  -14.4663 N   0  0  0  0  0  0  0  0  0  0  0  0
   22.5130   -4.2244  -13.7915 C   0  0  0  0  0  0  0  0  0  0  0  0
   23.0278   -2.9722  -14.0970 O   0  0  0  0  0  0  0  0  0  0  0  0
   22.6783   -4.7373  -12.6627 O   0  0  0  0  0  0  0  0  0  0  0  0
  2  1  1  1
  3  4  1  0
  3  2  1  0
  5  4  1  0
  6  5  1  0
  7  6  1  0
  8 13  1  0
  8  2  1  0
  9  8  2  0
 11 10  1  0
 12 11  1  6
 12 14  1  0
 12 13  1  0
 14 15  2  0
 17 16  1  6
 17 19  1  0
 18 17  1  0
 19 21  1  0
 19 20  1  1
 20 14  1  0
 21 22  1  0
 23 21  2  0
M  END
$$$$
