KST.pdb
     RDKit          3D

 23 22  0  0  1  0  0  0  0  0999 V2000
   17.8600  -14.8492  -18.7179 N   0  0  0  0  0  0  0  0  0  0  0  0
   17.4032  -13.9799  -17.6035 C   0  0  1  0  0  0  0  0  0  0  0  0
   17.6367  -14.8031  -16.3816 C   0  0  0  0  0  0  0  0  0  0  0  0
   16.8760  -16.0710  -16.2637 C   0  0  0  0  0  0  0  0  0  0  0  0
   17.2336  -16.6407  -14.8753 C   0  0  0  0  0  0  0  0  0  0  0  0
   16.4278  -17.8890  -14.6015 C   0  0  0  0  0  0  0  0  0  0  0  0
   16.9183  -18.4791  -13.3918 N   0  0  0  0  0  0  0  0  0  0  0  0
   18.2360  -12.7520  -17.5652 C   0  0  0  0  0  0  0  0  0  0  0  0
   19.5037  -12.8146  -17.7257 O   0  0  0  0  0  0  0  0  0  0  0  0
   16.6449   -8.9513  -16.7315 O   0  0  0  0  0  0  0  0  0  0  0  0
   17.6423   -9.0939  -17.6990 C   0  0  0  0  0  0  0  0  0  0  0  0
   18.5576  -10.2654  -17.3415 C   0  0  2  0  0  0  0  0  0  0  0  0
   17.7264  -11.4491  -17.3584 N   0  0  0  0  0  0  0  0  0  0  0  0
   19.2067  -10.0450  -16.0379 C   0  0  0  0  0  0  0  0  0  0  0  0
   18.7309  -10.4262  -14.9347 O   0  0  0  0  0  0  0  0  0  0  0  0
   23.0191  -10.6624  -15.1526 C   0  0  0  0  0  0  0  0  0  0  0  0
   22.6415   -9.2119  -15.0512 C   0  0  1  0  0  0  0  0  0  0  0  0
   22.9874   -8.5274  -16.2180 O   0  0  0  0  0  0  0  0  0  0  0  0
   21.1523   -9.0516  -14.7738 C   0  0  2  0  0  0  0  0  0  0  0  0
   20.4455   -9.3613  -16.0144 N   0  0  0  0  0  0  0  0  0  0  0  0
   20.9410   -7.6318  -14.3927 C   0  0  0  0  0  0  0  0  0  0  0  0
   21.4587   -7.2227  -13.1716 O   0  0  0  0  0  0  0  0  0  0  0  0
   20.3245   -6.8370  -15.1363 O   0  0  0  0  0  0  0  0  0  0  0  0
  2  1  1  6
  3  4  1  0
  3  2  1  0
  5  4  1  0
  6  5  1  0
  7  6  1  0
  8 13  1  0
  8  2  1  0
  9  8  2  0
 11 10  1  0
 12 11  1  1
 12 14  1  0
 12 13  1  0
 14 15  2  0
 17 16  1  6
 17 19  1  0
 18 17  1  0
 19 21  1  0
 19 20  1  6
 20 14  1  0
 21 22  1  0
 23 21  2  0
M  END
$$$$
