KST.pdb
     RDKit          3D

 23 22  0  0  1  0  0  0  0  0999 V2000
   17.3951  -11.4139  -15.2310 N   0  0  0  0  0  0  0  0  0  0  0  0
   18.8590  -11.1869  -15.3410 C   0  0  1  0  0  0  0  0  0  0  0  0
   19.2736  -12.0415  -16.4913 C   0  0  0  0  0  0  0  0  0  0  0  0
   18.6602  -13.3884  -16.5899 C   0  0  0  0  0  0  0  0  0  0  0  0
   19.1968  -13.9924  -17.9043 C   0  0  0  0  0  0  0  0  0  0  0  0
   18.5121  -15.3083  -18.1903 C   0  0  0  0  0  0  0  0  0  0  0  0
   18.9812  -15.7885  -19.4557 N   0  0  0  0  0  0  0  0  0  0  0  0
   19.1130   -9.7562  -15.6433 C   0  0  0  0  0  0  0  0  0  0  0  0
   20.2941   -9.3420  -15.9079 O   0  0  0  0  0  0  0  0  0  0  0  0
   16.1748   -6.8434  -15.1922 O   0  0  0  0  0  0  0  0  0  0  0  0
   17.0385   -6.7225  -16.2834 C   0  0  0  0  0  0  0  0  0  0  0  0
   18.3870   -7.3669  -15.9601 C   0  0  2  0  0  0  0  0  0  0  0  0
   18.1127   -8.7569  -15.6687 N   0  0  0  0  0  0  0  0  0  0  0  0
   19.0461   -6.6709  -14.8418 C   0  0  0  0  0  0  0  0  0  0  0  0
   18.8218   -6.9117  -13.6250 O   0  0  0  0  0  0  0  0  0  0  0  0
   22.7808   -5.7356  -15.0846 C   0  0  0  0  0  0  0  0  0  0  0  0
   21.9945   -5.5252  -13.8219 C   0  0  1  0  0  0  0  0  0  0  0  0
   22.7182   -4.7535  -12.9107 O   0  0  0  0  0  0  0  0  0  0  0  0
   20.6532   -4.8655  -14.1154 C   0  0  2  0  0  0  0  0  0  0  0  0
   19.9941   -5.6651  -15.1453 N   0  0  0  0  0  0  0  0  0  0  0  0
   20.9517   -3.5023  -14.6237 C   0  0  0  0  0  0  0  0  0  0  0  0
   20.6781   -3.2541  -15.9616 O   0  0  0  0  0  0  0  0  0  0  0  0
   21.4286   -2.6148  -13.8824 O   0  0  0  0  0  0  0  0  0  0  0  0
  2  1  1  6
  3  4  1  0
  3  2  1  0
  5  4  1  0
  6  5  1  0
  7  6  1  0
  8 13  1  0
  8  2  1  0
  9  8  2  0
 11 10  1  0
 12 11  1  1
 12 14  1  0
 12 13  1  0
 14 15  2  0
 17 16  1  6
 17 19  1  0
 18 17  1  0
 19 21  1  0
 19 20  1  6
 20 14  1  0
 21 22  1  0
 23 21  2  0
M  END
$$$$
