KST.pdb
     RDKit          3D

 23 22  0  0  1  0  0  0  0  0999 V2000
   18.0382  -15.5439  -18.2524 N   0  0  0  0  0  0  0  0  0  0  0  0
   18.2486  -14.9540  -16.9055 C   0  0  1  0  0  0  0  0  0  0  0  0
   19.3500  -15.7715  -16.3191 C   0  0  0  0  0  0  0  0  0  0  0  0
   19.0770  -17.2115  -16.0911 C   0  0  0  0  0  0  0  0  0  0  0  0
   18.3506  -17.2849  -14.7320 C   0  0  0  0  0  0  0  0  0  0  0  0
   17.9566  -18.7115  -14.4287 C   0  0  0  0  0  0  0  0  0  0  0  0
   17.3846  -18.7458  -13.1158 N   0  0  0  0  0  0  0  0  0  0  0  0
   18.6760  -13.5400  -17.0497 C   0  0  0  0  0  0  0  0  0  0  0  0
   19.8406  -13.2493  -17.4923 O   0  0  0  0  0  0  0  0  0  0  0  0
   16.2478  -10.3144  -15.8913 O   0  0  0  0  0  0  0  0  0  0  0  0
   17.0493  -10.2102  -17.0307 C   0  0  0  0  0  0  0  0  0  0  0  0
   18.3120  -11.0562  -16.8640 C   0  0  2  0  0  0  0  0  0  0  0  0
   17.8674  -12.4258  -16.7265 N   0  0  0  0  0  0  0  0  0  0  0  0
   19.1027  -10.5964  -15.7095 C   0  0  0  0  0  0  0  0  0  0  0  0
   18.9583  -11.0272  -14.5337 O   0  0  0  0  0  0  0  0  0  0  0  0
   23.0345  -10.2217  -15.5876 C   0  0  0  0  0  0  0  0  0  0  0  0
   22.3338   -8.9020  -15.4324 C   0  0  1  0  0  0  0  0  0  0  0  0
   22.2603   -8.2335  -16.6560 O   0  0  0  0  0  0  0  0  0  0  0  0
   20.9368   -9.0882  -14.8543 C   0  0  2  0  0  0  0  0  0  0  0  0
   20.0907   -9.6068  -15.9266 N   0  0  0  0  0  0  0  0  0  0  0  0
   20.4714   -7.7446  -14.4253 C   0  0  0  0  0  0  0  0  0  0  0  0
   21.0546   -7.2096  -13.2851 O   0  0  0  0  0  0  0  0  0  0  0  0
   19.5934   -7.1200  -15.0604 O   0  0  0  0  0  0  0  0  0  0  0  0
  2  1  1  6
  3  4  1  0
  3  2  1  0
  5  4  1  0
  6  5  1  0
  7  6  1  0
  8 13  1  0
  8  2  1  0
  9  8  2  0
 11 10  1  0
 12 11  1  1
 12 14  1  0
 12 13  1  0
 14 15  2  0
 17 16  1  6
 17 19  1  0
 18 17  1  0
 19 21  1  0
 19 20  1  6
 20 14  1  0
 21 22  1  0
 23 21  2  0
M  END
$$$$
