VTH.pdb
     RDKit          3D

 25 25  0  0  1  0  0  0  0  0999 V2000
    7.2775  -12.7669   20.2842 C   0  0  0  0  0  0  0  0  0  0  0  0
    8.6966  -12.9727   19.8832 C   0  0  2  0  0  0  0  0  0  0  0  0
    9.0462  -11.9046   18.8531 C   0  0  0  0  0  0  0  0  0  0  0  0
    8.9962  -14.3556   19.3305 C   0  0  2  0  0  0  0  0  0  0  0  0
    8.1810  -14.5200   18.1099 N   0  0  0  0  0  0  0  0  0  0  0  0
    8.6466  -15.4439   20.2529 C   0  0  0  0  0  0  0  0  0  0  0  0
    7.7949  -16.3398   19.9111 O   0  0  0  0  0  0  0  0  0  0  0  0
    8.9125  -18.2704   20.4834 C   0  0  0  0  0  0  0  0  0  0  0  0
    9.4229  -17.9734   21.8691 C   0  0  1  0  0  0  0  0  0  0  0  0
   10.7915  -17.7438   21.8276 O   0  0  0  0  0  0  0  0  0  0  0  0
    8.7891  -16.7076   22.4377 C   0  0  2  0  0  0  0  0  0  0  0  0
    9.1788  -15.6251   21.5574 N   0  0  0  0  0  0  0  0  0  0  0  0
    9.4196  -16.4693   23.7577 C   0  0  0  0  0  0  0  0  0  0  0  0
   10.5535  -15.9228   23.8829 O   0  0  0  0  0  0  0  0  0  0  0  0
    8.7722  -16.8486   24.9716 N   0  0  0  0  0  0  0  0  0  0  0  0
    9.2639  -16.4248   26.2711 C   0  0  1  0  0  0  0  0  0  0  0  0
    8.0663  -15.8472   27.0028 C   0  0  0  0  0  0  0  0  0  0  0  0
    7.6936  -14.5126   26.5161 C   0  0  0  0  0  0  0  0  0  0  0  0
    8.5115  -13.4655   26.2194 C   0  0  0  0  0  0  0  0  0  0  0  0
    7.7208  -12.4503   25.8130 N   0  0  0  0  0  0  0  0  0  0  0  0
    6.4481  -12.8797   25.8645 C   0  0  0  0  0  0  0  0  0  0  0  0
    6.4086  -14.1359   26.2911 N   0  0  0  0  0  0  0  0  0  0  0  0
    9.8454  -17.5938   26.9464 C   0  0  0  0  0  0  0  0  0  0  0  0
   10.5289  -17.4277   28.1301 O   0  0  0  0  0  0  0  0  0  0  0  0
    9.7282  -18.7331   26.4619 O   0  0  0  0  0  0  0  0  0  0  0  0
  2  1  1  6
  3  2  1  0
  4  2  1  0
  4  5  1  6
  6  7  2  0
  6  4  1  0
  9  8  1  6
  9 11  1  0
 10  9  1  0
 11 12  1  6
 12  6  1  0
 13 11  1  0
 14 13  2  0
 15 13  1  0
 16 17  1  1
 16 15  1  0
 17 18  1  0
 18 22  1  0
 19 20  1  0
 19 18  2  0
 20 21  1  0
 21 22  2  0
 23 16  1  0
 24 23  1  0
 25 23  2  0
M  END
$$$$
