VTH.pdb
     RDKit          3D

 25 25  0  0  1  0  0  0  0  0999 V2000
    7.2766  -12.6611   20.3050 C   0  0  0  0  0  0  0  0  0  0  0  0
    8.6899  -12.9649   19.9479 C   0  0  2  0  0  0  0  0  0  0  0  0
    9.0699  -12.0785   18.7672 C   0  0  0  0  0  0  0  0  0  0  0  0
    8.9515  -14.4242   19.6166 C   0  0  2  0  0  0  0  0  0  0  0  0
    8.1534  -14.7455   18.4161 N   0  0  0  0  0  0  0  0  0  0  0  0
    8.5478  -15.3490   20.6839 C   0  0  0  0  0  0  0  0  0  0  0  0
    7.3478  -15.7983   20.7378 O   0  0  0  0  0  0  0  0  0  0  0  0
    9.0163  -18.7189   21.3976 C   0  0  0  0  0  0  0  0  0  0  0  0
    9.5555  -18.0283   22.6229 C   0  0  1  0  0  0  0  0  0  0  0  0
   10.9194  -17.8117   22.4794 O   0  0  0  0  0  0  0  0  0  0  0  0
    8.9177  -16.6560   22.8160 C   0  0  2  0  0  0  0  0  0  0  0  0
    9.3884  -15.8297   21.7233 N   0  0  0  0  0  0  0  0  0  0  0  0
    9.4687  -16.1016   24.0752 C   0  0  0  0  0  0  0  0  0  0  0  0
   10.5548  -15.4546   24.1175 O   0  0  0  0  0  0  0  0  0  0  0  0
    8.7942  -16.2707   25.3214 N   0  0  0  0  0  0  0  0  0  0  0  0
    9.3437  -15.7679   26.5685 C   0  0  1  0  0  0  0  0  0  0  0  0
    8.1578  -15.2836   27.3823 C   0  0  0  0  0  0  0  0  0  0  0  0
    7.5291  -14.0855   26.8113 C   0  0  0  0  0  0  0  0  0  0  0  0
    8.1300  -12.9397   26.3874 C   0  0  0  0  0  0  0  0  0  0  0  0
    7.1521  -12.1220   25.9447 N   0  0  0  0  0  0  0  0  0  0  0  0
    5.9821  -12.7653   26.0997 C   0  0  0  0  0  0  0  0  0  0  0  0
    6.1892  -13.9656   26.6271 N   0  0  0  0  0  0  0  0  0  0  0  0
   10.0838  -16.8593   27.2181 C   0  0  0  0  0  0  0  0  0  0  0  0
   10.7963  -16.6094   28.3695 O   0  0  0  0  0  0  0  0  0  0  0  0
   10.0750  -18.0074   26.7406 O   0  0  0  0  0  0  0  0  0  0  0  0
  2  1  1  6
  3  2  1  0
  4  2  1  0
  4  5  1  6
  6  7  2  0
  6  4  1  0
  9  8  1  6
  9 11  1  0
 10  9  1  0
 11 12  1  6
 12  6  1  0
 13 11  1  0
 14 13  2  0
 15 13  1  0
 16 17  1  1
 16 15  1  0
 17 18  1  0
 18 22  1  0
 19 20  1  0
 19 18  2  0
 20 21  1  0
 21 22  2  0
 23 16  1  0
 24 23  1  0
 25 23  2  0
M  END
$$$$
