VTH.pdb
     RDKit          3D

 25 25  0  0  1  0  0  0  0  0999 V2000
    9.0555  -19.1632   17.2661 C   0  0  0  0  0  0  0  0  0  0  0  0
    7.6559  -18.6550   17.2587 C   0  0  2  0  0  0  0  0  0  0  0  0
    6.9048  -19.3832   16.1497 C   0  0  0  0  0  0  0  0  0  0  0  0
    7.5372  -17.1515   17.0760 C   0  0  2  0  0  0  0  0  0  0  0  0
    8.0611  -16.8360   15.7316 N   0  0  0  0  0  0  0  0  0  0  0  0
    8.3157  -16.3791   18.0531 C   0  0  0  0  0  0  0  0  0  0  0  0
    9.5257  -16.0381   17.7993 O   0  0  0  0  0  0  0  0  0  0  0  0
    7.2601  -13.1522   20.0064 C   0  0  0  0  0  0  0  0  0  0  0  0
    7.7393  -14.2161   20.9590 C   0  0  1  0  0  0  0  0  0  0  0  0
    6.6580  -14.9500   21.4277 O   0  0  0  0  0  0  0  0  0  0  0  0
    8.6677  -15.2085   20.2659 C   0  0  2  0  0  0  0  0  0  0  0  0
    7.8496  -15.9418   19.3217 N   0  0  0  0  0  0  0  0  0  0  0  0
    9.1278  -16.1609   21.3041 C   0  0  0  0  0  0  0  0  0  0  0  0
    8.5581  -17.2710   21.5114 O   0  0  0  0  0  0  0  0  0  0  0  0
   10.2517  -15.8715   22.1346 N   0  0  0  0  0  0  0  0  0  0  0  0
   10.7525  -16.8234   23.1110 C   0  0  1  0  0  0  0  0  0  0  0  0
   12.1935  -17.1002   22.7234 C   0  0  0  0  0  0  0  0  0  0  0  0
   12.6259  -18.4578   23.0791 C   0  0  0  0  0  0  0  0  0  0  0  0
   12.0682  -19.3100   23.9827 C   0  0  0  0  0  0  0  0  0  0  0  0
   12.8081  -20.4382   23.9697 N   0  0  0  0  0  0  0  0  0  0  0  0
   13.7950  -20.2677   23.0731 C   0  0  0  0  0  0  0  0  0  0  0  0
   13.7025  -19.0657   22.5177 N   0  0  0  0  0  0  0  0  0  0  0  0
   10.6178  -16.2254   24.4471 C   0  0  0  0  0  0  0  0  0  0  0  0
   10.7263  -17.0220   25.5650 O   0  0  0  0  0  0  0  0  0  0  0  0
   10.4066  -15.0074   24.5816 O   0  0  0  0  0  0  0  0  0  0  0  0
  2  1  1  6
  3  2  1  0
  4  2  1  0
  4  5  1  6
  6  7  2  0
  6  4  1  0
  9  8  1  6
  9 11  1  0
 10  9  1  0
 11 12  1  6
 12  6  1  0
 13 11  1  0
 14 13  2  0
 15 13  1  0
 16 17  1  6
 16 15  1  0
 17 18  1  0
 18 22  1  0
 19 20  1  0
 19 18  2  0
 20 21  1  0
 21 22  2  0
 23 16  1  0
 24 23  1  0
 25 23  2  0
M  END
$$$$
