VTH.pdb
     RDKit          3D

 25 25  0  0  1  0  0  0  0  0999 V2000
    9.4208  -20.5828   17.5458 C   0  0  0  0  0  0  0  0  0  0  0  0
    9.7222  -19.3916   18.3868 C   0  0  2  0  0  0  0  0  0  0  0  0
    8.7896  -19.4279   19.5923 C   0  0  0  0  0  0  0  0  0  0  0  0
    9.5925  -18.0638   17.6602 C   0  0  2  0  0  0  0  0  0  0  0  0
   10.6345  -18.0393   16.6137 N   0  0  0  0  0  0  0  0  0  0  0  0
    9.8018  -16.8977   18.5284 C   0  0  0  0  0  0  0  0  0  0  0  0
   10.9644  -16.6395   19.0042 O   0  0  0  0  0  0  0  0  0  0  0  0
    7.9549  -12.8181   20.7430 C   0  0  0  0  0  0  0  0  0  0  0  0
    7.8730  -13.9313   19.7316 C   0  0  1  0  0  0  0  0  0  0  0  0
    7.9882  -13.4117   18.4492 O   0  0  0  0  0  0  0  0  0  0  0  0
    9.0190  -14.9240   19.9005 C   0  0  2  0  0  0  0  0  0  0  0  0
    8.8010  -15.9695   18.9217 N   0  0  0  0  0  0  0  0  0  0  0  0
    8.8700  -15.5242   21.2474 C   0  0  0  0  0  0  0  0  0  0  0  0
    7.9392  -16.3308   21.5352 O   0  0  0  0  0  0  0  0  0  0  0  0
    9.7805  -15.2197   22.3033 N   0  0  0  0  0  0  0  0  0  0  0  0
    9.7237  -15.8959   23.5876 C   0  0  1  0  0  0  0  0  0  0  0  0
   11.1127  -15.7723   24.1866 C   0  0  0  0  0  0  0  0  0  0  0  0
   12.0999  -16.6236   23.5103 C   0  0  0  0  0  0  0  0  0  0  0  0
   11.8757  -17.6356   22.6276 C   0  0  0  0  0  0  0  0  0  0  0  0
   13.0823  -18.1272   22.2765 N   0  0  0  0  0  0  0  0  0  0  0  0
   14.0171  -17.4225   22.9371 C   0  0  0  0  0  0  0  0  0  0  0  0
   13.4393  -16.4995   23.6960 N   0  0  0  0  0  0  0  0  0  0  0  0
    8.6835  -15.2505   24.4015 C   0  0  0  0  0  0  0  0  0  0  0  0
    8.1882  -15.8960   25.5123 O   0  0  0  0  0  0  0  0  0  0  0  0
    8.2439  -14.1272   24.0995 O   0  0  0  0  0  0  0  0  0  0  0  0
  2  1  1  6
  3  2  1  0
  4  2  1  0
  4  5  1  6
  6  7  2  0
  6  4  1  0
  9  8  1  1
  9 11  1  0
 10  9  1  0
 11 12  1  6
 12  6  1  0
 13 11  1  0
 14 13  2  0
 15 13  1  0
 16 17  1  1
 16 15  1  0
 17 18  1  0
 18 22  1  0
 19 20  1  0
 19 18  2  0
 20 21  1  0
 21 22  2  0
 23 16  1  0
 24 23  1  0
 25 23  2  0
M  END
$$$$
