VTH.pdb
     RDKit          3D

 25 25  0  0  1  0  0  0  0  0999 V2000
   13.9597  -16.8517   16.8423 C   0  0  0  0  0  0  0  0  0  0  0  0
   13.2460  -16.2954   18.0248 C   0  0  2  0  0  0  0  0  0  0  0  0
   12.3046  -17.3747   18.5475 C   0  0  0  0  0  0  0  0  0  0  0  0
   12.4768  -15.0154   17.7462 C   0  0  2  0  0  0  0  0  0  0  0  0
   13.4630  -14.0015   17.3208 N   0  0  0  0  0  0  0  0  0  0  0  0
   11.7705  -14.4883   18.9212 C   0  0  0  0  0  0  0  0  0  0  0  0
   12.4212  -13.9423   19.8821 O   0  0  0  0  0  0  0  0  0  0  0  0
    8.1411  -12.5645   19.1652 C   0  0  0  0  0  0  0  0  0  0  0  0
    8.2678  -13.8102   20.0025 C   0  0  1  0  0  0  0  0  0  0  0  0
    7.8088  -14.9075   19.2862 O   0  0  0  0  0  0  0  0  0  0  0  0
    9.7236  -14.1010   20.3533 C   0  0  2  0  0  0  0  0  0  0  0  0
   10.3647  -14.5174   19.1228 N   0  0  0  0  0  0  0  0  0  0  0  0
    9.7178  -15.2597   21.2774 C   0  0  0  0  0  0  0  0  0  0  0  0
   10.0810  -16.4178   20.9210 O   0  0  0  0  0  0  0  0  0  0  0  0
    9.2969  -15.1278   22.6346 N   0  0  0  0  0  0  0  0  0  0  0  0
    9.6279  -16.1196   23.6430 C   0  0  1  0  0  0  0  0  0  0  0  0
   11.1431  -16.2036   23.6646 C   0  0  0  0  0  0  0  0  0  0  0  0
   11.6480  -17.4811   23.1450 C   0  0  0  0  0  0  0  0  0  0  0  0
   10.9349  -18.5303   22.6507 C   0  0  0  0  0  0  0  0  0  0  0  0
   11.8252  -19.4808   22.2977 N   0  0  0  0  0  0  0  0  0  0  0  0
   13.0537  -19.0112   22.5752 C   0  0  0  0  0  0  0  0  0  0  0  0
   12.9687  -17.7922   23.0931 N   0  0  0  0  0  0  0  0  0  0  0  0
    9.0548  -15.6821   24.9240 C   0  0  0  0  0  0  0  0  0  0  0  0
    8.5900  -16.6196   25.8189 O   0  0  0  0  0  0  0  0  0  0  0  0
    8.9838  -14.4741   25.2106 O   0  0  0  0  0  0  0  0  0  0  0  0
  2  1  1  6
  3  2  1  0
  4  2  1  0
  4  5  1  1
  6  7  2  0
  6  4  1  0
  9  8  1  6
  9 11  1  0
 10  9  1  0
 11 12  1  6
 12  6  1  0
 13 11  1  0
 14 13  2  0
 15 13  1  0
 16 17  1  1
 16 15  1  0
 17 18  1  0
 18 22  1  0
 19 20  1  0
 19 18  2  0
 20 21  1  0
 21 22  2  0
 23 16  1  0
 24 23  1  0
 25 23  2  0
M  END
$$$$
