VTH.pdb
     RDKit          3D

 25 25  0  0  1  0  0  0  0  0999 V2000
    8.2694  -12.0981   18.4413 C   0  0  0  0  0  0  0  0  0  0  0  0
    7.9741  -13.2435   19.3458 C   0  0  2  0  0  0  0  0  0  0  0  0
    8.1698  -12.7636   20.7796 C   0  0  0  0  0  0  0  0  0  0  0  0
    8.8167  -14.4802   19.0846 C   0  0  2  0  0  0  0  0  0  0  0  0
    8.4671  -14.9649   17.7339 N   0  0  0  0  0  0  0  0  0  0  0  0
    8.5631  -15.5732   20.0325 C   0  0  0  0  0  0  0  0  0  0  0  0
    7.5105  -16.2980   19.9252 O   0  0  0  0  0  0  0  0  0  0  0  0
    9.8967  -18.7797   20.5778 C   0  0  0  0  0  0  0  0  0  0  0  0
   10.0794  -18.0833   21.9009 C   0  0  1  0  0  0  0  0  0  0  0  0
   11.3340  -17.4907   21.9516 O   0  0  0  0  0  0  0  0  0  0  0  0
    9.0631  -16.9607   22.0857 C   0  0  2  0  0  0  0  0  0  0  0  0
    9.4039  -15.9382   21.1177 N   0  0  0  0  0  0  0  0  0  0  0  0
    9.2878  -16.3986   23.4385 C   0  0  0  0  0  0  0  0  0  0  0  0
   10.1293  -15.4818   23.6648 O   0  0  0  0  0  0  0  0  0  0  0  0
    8.5571  -16.8683   24.5709 N   0  0  0  0  0  0  0  0  0  0  0  0
    8.7181  -16.2795   25.8890 C   0  0  1  0  0  0  0  0  0  0  0  0
    7.3396  -15.7976   26.3023 C   0  0  0  0  0  0  0  0  0  0  0  0
    7.1956  -14.3393   26.2047 C   0  0  0  0  0  0  0  0  0  0  0  0
    8.1584  -13.4135   25.9414 C   0  0  0  0  0  0  0  0  0  0  0  0
    7.5579  -12.2052   25.9550 N   0  0  0  0  0  0  0  0  0  0  0  0
    6.2552  -12.4008   26.2223 C   0  0  0  0  0  0  0  0  0  0  0  0
    6.0123  -13.6963   26.3783 N   0  0  0  0  0  0  0  0  0  0  0  0
    9.2651  -17.3062   26.7876 C   0  0  0  0  0  0  0  0  0  0  0  0
    9.7691  -16.9397   28.0154 O   0  0  0  0  0  0  0  0  0  0  0  0
    9.2790  -18.5038   26.4529 O   0  0  0  0  0  0  0  0  0  0  0  0
  2  1  1  6
  3  2  1  0
  4  2  1  0
  4  5  1  6
  6  7  2  0
  6  4  1  0
  9  8  1  6
  9 11  1  0
 10  9  1  0
 11 12  1  6
 12  6  1  0
 13 11  1  0
 14 13  2  0
 15 13  1  0
 16 17  1  1
 16 15  1  0
 17 18  1  0
 18 22  1  0
 19 20  1  0
 19 18  2  0
 20 21  1  0
 21 22  2  0
 23 16  1  0
 24 23  1  0
 25 23  2  0
M  END
$$$$
