VTH.pdb
     RDKit          3D

 25 25  0  0  1  0  0  0  0  0999 V2000
    3.2145  -19.6918   20.9572 C   0  0  0  0  0  0  0  0  0  0  0  0
    4.5637  -19.0618   20.9482 C   0  0  2  0  0  0  0  0  0  0  0  0
    4.7989  -18.4517   22.3255 C   0  0  0  0  0  0  0  0  0  0  0  0
    4.7567  -18.0121   19.8672 C   0  0  2  0  0  0  0  0  0  0  0  0
    4.5117  -18.6758   18.5707 N   0  0  0  0  0  0  0  0  0  0  0  0
    6.1126  -17.4484   19.8330 C   0  0  0  0  0  0  0  0  0  0  0  0
    7.1052  -18.1610   19.4433 O   0  0  0  0  0  0  0  0  0  0  0  0
    6.9858  -13.4997   21.2202 C   0  0  0  0  0  0  0  0  0  0  0  0
    7.7384  -14.1149   20.0695 C   0  0  1  0  0  0  0  0  0  0  0  0
    9.0437  -13.6420   20.0542 O   0  0  0  0  0  0  0  0  0  0  0  0
    7.8294  -15.6313   20.2092 C   0  0  2  0  0  0  0  0  0  0  0  0
    6.4671  -16.1240   20.2046 N   0  0  0  0  0  0  0  0  0  0  0  0
    8.4067  -15.9037   21.5468 C   0  0  0  0  0  0  0  0  0  0  0  0
    7.7357  -15.7966   22.6137 O   0  0  0  0  0  0  0  0  0  0  0  0
    9.7669  -16.3063   21.7029 N   0  0  0  0  0  0  0  0  0  0  0  0
   10.3569  -16.5342   23.0106 C   0  0  1  0  0  0  0  0  0  0  0  0
   10.8137  -17.9815   23.0161 C   0  0  0  0  0  0  0  0  0  0  0  0
    9.7257  -18.9187   23.3237 C   0  0  0  0  0  0  0  0  0  0  0  0
    8.4309  -18.6339   23.6335 C   0  0  0  0  0  0  0  0  0  0  0  0
    7.8060  -19.8121   23.8385 N   0  0  0  0  0  0  0  0  0  0  0  0
    8.7100  -20.7898   23.6549 C   0  0  0  0  0  0  0  0  0  0  0  0
    9.8885  -20.2667   23.3400 N   0  0  0  0  0  0  0  0  0  0  0  0
   11.4598  -15.5791   23.1904 C   0  0  0  0  0  0  0  0  0  0  0  0
   12.0935  -15.4907   24.4095 O   0  0  0  0  0  0  0  0  0  0  0  0
   11.8286  -14.8483   22.2543 O   0  0  0  0  0  0  0  0  0  0  0  0
  2  1  1  1
  3  2  1  0
  4  2  1  0
  4  5  1  6
  6  7  2  0
  6  4  1  0
  9  8  1  1
  9 11  1  0
 10  9  1  0
 11 12  1  1
 12  6  1  0
 13 11  1  0
 14 13  2  0
 15 13  1  0
 16 17  1  6
 16 15  1  0
 17 18  1  0
 18 22  1  0
 19 20  1  0
 19 18  2  0
 20 21  1  0
 21 22  2  0
 23 16  1  0
 24 23  1  0
 25 23  2  0
M  END
$$$$
