VTH.pdb
     RDKit          3D

 25 25  0  0  1  0  0  0  0  0999 V2000
    8.9855  -19.8714   17.2129 C   0  0  0  0  0  0  0  0  0  0  0  0
    9.2900  -18.9002   18.2997 C   0  0  2  0  0  0  0  0  0  0  0  0
    8.4820  -19.3094   19.5261 C   0  0  0  0  0  0  0  0  0  0  0  0
    9.0066  -17.4514   17.9415 C   0  0  2  0  0  0  0  0  0  0  0  0
    9.8659  -17.1145   16.7884 N   0  0  0  0  0  0  0  0  0  0  0  0
    9.3185  -16.5083   19.0235 C   0  0  0  0  0  0  0  0  0  0  0  0
   10.5347  -16.1998   19.2889 O   0  0  0  0  0  0  0  0  0  0  0  0
    7.4188  -13.0490   20.1000 C   0  0  0  0  0  0  0  0  0  0  0  0
    7.5370  -14.0759   21.1957 C   0  0  1  0  0  0  0  0  0  0  0  0
    6.4069  -14.8824   21.2090 O   0  0  0  0  0  0  0  0  0  0  0  0
    8.7269  -15.0025   20.9660 C   0  0  2  0  0  0  0  0  0  0  0  0
    8.3669  -15.8617   19.8566 N   0  0  0  0  0  0  0  0  0  0  0  0
    8.8493  -15.8496   22.1759 C   0  0  0  0  0  0  0  0  0  0  0  0
    8.2164  -16.9360   22.3144 O   0  0  0  0  0  0  0  0  0  0  0  0
    9.6983  -15.4793   23.2616 N   0  0  0  0  0  0  0  0  0  0  0  0
    9.8517  -16.3163   24.4389 C   0  0  1  0  0  0  0  0  0  0  0  0
   11.3052  -16.7525   24.4547 C   0  0  0  0  0  0  0  0  0  0  0  0
   11.6054  -17.7636   23.4327 C   0  0  0  0  0  0  0  0  0  0  0  0
   11.1428  -19.0414   23.3505 C   0  0  0  0  0  0  0  0  0  0  0  0
   11.6917  -19.5894   22.2464 N   0  0  0  0  0  0  0  0  0  0  0  0
   12.4718  -18.6565   21.6737 C   0  0  0  0  0  0  0  0  0  0  0  0
   12.4337  -17.5344   22.3814 N   0  0  0  0  0  0  0  0  0  0  0  0
    9.4726  -15.5250   25.6183 C   0  0  0  0  0  0  0  0  0  0  0  0
    9.4223  -16.1266   26.8558 O   0  0  0  0  0  0  0  0  0  0  0  0
    9.1960  -14.3172   25.5130 O   0  0  0  0  0  0  0  0  0  0  0  0
  2  1  1  6
  3  2  1  0
  4  2  1  0
  4  5  1  6
  6  7  2  0
  6  4  1  0
  9  8  1  6
  9 11  1  0
 10  9  1  0
 11 12  1  6
 12  6  1  0
 13 11  1  0
 14 13  2  0
 15 13  1  0
 16 17  1  1
 16 15  1  0
 17 18  1  0
 18 22  1  0
 19 20  1  0
 19 18  2  0
 20 21  1  0
 21 22  2  0
 23 16  1  0
 24 23  1  0
 25 23  2  0
M  END
$$$$
