VTH.pdb
     RDKit          3D

 25 25  0  0  1  0  0  0  0  0999 V2000
    8.2090  -13.1221   20.3957 C   0  0  0  0  0  0  0  0  0  0  0  0
    8.8423  -12.6114   19.1485 C   0  0  2  0  0  0  0  0  0  0  0  0
    7.8555  -11.6570   18.4855 C   0  0  0  0  0  0  0  0  0  0  0  0
    9.2639  -13.6957   18.1717 C   0  0  2  0  0  0  0  0  0  0  0  0
    8.0336  -14.3848   17.7324 N   0  0  0  0  0  0  0  0  0  0  0  0
   10.1550  -14.7027   18.7626 C   0  0  0  0  0  0  0  0  0  0  0  0
    9.6754  -15.7714   19.2847 O   0  0  0  0  0  0  0  0  0  0  0  0
   13.6923  -15.6032   17.2681 C   0  0  0  0  0  0  0  0  0  0  0  0
   13.7819  -15.5048   18.7685 C   0  0  1  0  0  0  0  0  0  0  0  0
   14.2675  -14.2554   19.1301 O   0  0  0  0  0  0  0  0  0  0  0  0
   12.4090  -15.6402   19.4195 C   0  0  2  0  0  0  0  0  0  0  0  0
   11.5718  -14.6197   18.8227 N   0  0  0  0  0  0  0  0  0  0  0  0
   12.5805  -15.3061   20.8532 C   0  0  0  0  0  0  0  0  0  0  0  0
   12.0903  -14.2626   21.3735 O   0  0  0  0  0  0  0  0  0  0  0  0
   13.3170  -16.1551   21.7328 N   0  0  0  0  0  0  0  0  0  0  0  0
   12.7871  -16.5774   23.0177 C   0  0  1  0  0  0  0  0  0  0  0  0
   11.5291  -17.3688   22.7109 C   0  0  0  0  0  0  0  0  0  0  0  0
   10.3016  -16.6009   22.9565 C   0  0  0  0  0  0  0  0  0  0  0  0
   10.1847  -15.3114   23.3776 C   0  0  0  0  0  0  0  0  0  0  0  0
    8.8652  -15.0423   23.4624 N   0  0  0  0  0  0  0  0  0  0  0  0
    8.1991  -16.1517   23.0984 C   0  0  0  0  0  0  0  0  0  0  0  0
    9.0566  -17.1152   22.7856 N   0  0  0  0  0  0  0  0  0  0  0  0
   13.8177  -17.3718   23.7015 C   0  0  0  0  0  0  0  0  0  0  0  0
   13.9620  -17.2713   25.0671 O   0  0  0  0  0  0  0  0  0  0  0  0
   14.5626  -18.1349   23.0617 O   0  0  0  0  0  0  0  0  0  0  0  0
  2  1  1  1
  3  2  1  0
  4  2  1  0
  4  5  1  1
  6  7  2  0
  6  4  1  0
  9  8  1  6
  9 11  1  0
 10  9  1  0
 11 12  1  6
 12  6  1  0
 13 11  1  0
 14 13  2  0
 15 13  1  0
 16 17  1  6
 16 15  1  0
 17 18  1  0
 18 22  1  0
 19 20  1  0
 19 18  2  0
 20 21  1  0
 21 22  2  0
 23 16  1  0
 24 23  1  0
 25 23  2  0
M  END
$$$$
