VTH.pdb
     RDKit          3D

 25 25  0  0  1  0  0  0  0  0999 V2000
    7.2035  -12.4500   18.5873 C   0  0  0  0  0  0  0  0  0  0  0  0
    8.3347  -13.3520   18.9395 C   0  0  2  0  0  0  0  0  0  0  0  0
    9.3088  -12.5577   19.8023 C   0  0  0  0  0  0  0  0  0  0  0  0
    9.0560  -13.9475   17.7425 C   0  0  2  0  0  0  0  0  0  0  0  0
    8.0335  -14.6059   16.9044 N   0  0  0  0  0  0  0  0  0  0  0  0
   10.0573  -14.9590   18.1053 C   0  0  0  0  0  0  0  0  0  0  0  0
    9.6970  -16.1477   18.4245 O   0  0  0  0  0  0  0  0  0  0  0  0
   12.6614  -16.6070   16.1820 C   0  0  0  0  0  0  0  0  0  0  0  0
   13.3572  -15.9609   17.3513 C   0  0  1  0  0  0  0  0  0  0  0  0
   13.7928  -14.6911   16.9969 O   0  0  0  0  0  0  0  0  0  0  0  0
   12.4100  -15.7790   18.5332 C   0  0  2  0  0  0  0  0  0  0  0  0
   11.4626  -14.7549   18.1432 N   0  0  0  0  0  0  0  0  0  0  0  0
   13.2209  -15.2452   19.6531 C   0  0  0  0  0  0  0  0  0  0  0  0
   13.5248  -14.0213   19.7519 O   0  0  0  0  0  0  0  0  0  0  0  0
   13.7073  -16.0947   20.6915 N   0  0  0  0  0  0  0  0  0  0  0  0
   14.4674  -15.5777   21.8163 C   0  0  1  0  0  0  0  0  0  0  0  0
   14.0267  -16.3840   23.0241 C   0  0  0  0  0  0  0  0  0  0  0  0
   12.6157  -16.1656   23.3680 C   0  0  0  0  0  0  0  0  0  0  0  0
   11.8452  -15.0732   23.1100 C   0  0  0  0  0  0  0  0  0  0  0  0
   10.6197  -15.3269   23.6147 N   0  0  0  0  0  0  0  0  0  0  0  0
   10.6525  -16.5518   24.1673 C   0  0  0  0  0  0  0  0  0  0  0  0
   11.8614  -17.0816   24.0280 N   0  0  0  0  0  0  0  0  0  0  0  0
   15.8978  -15.7269   21.5121 C   0  0  0  0  0  0  0  0  0  0  0  0
   16.2859  -16.3426   20.3433 O   0  0  0  0  0  0  0  0  0  0  0  0
   16.7638  -15.3038   22.2979 O   0  0  0  0  0  0  0  0  0  0  0  0
  2  1  1  6
  3  2  1  0
  4  2  1  0
  4  5  1  6
  6  7  2  0
  6  4  1  0
  9  8  1  6
  9 11  1  0
 10  9  1  0
 11 12  1  6
 12  6  1  0
 13 11  1  0
 14 13  2  0
 15 13  1  0
 16 17  1  1
 16 15  1  0
 17 18  1  0
 18 22  1  0
 19 20  1  0
 19 18  2  0
 20 21  1  0
 21 22  2  0
 23 16  1  0
 24 23  1  0
 25 23  2  0
M  END
$$$$
