EVH.pdb
     RDKit          3D

 27 27  0  0  1  0  0  0  0  0999 V2000
   21.7383  -17.0541  -15.8864 N   0  0  0  0  0  0  0  0  0  0  0  0
   21.5115  -15.8057  -16.4819 C   0  0  1  0  0  0  0  0  0  0  0  0
   20.1237  -15.5925  -16.9543 C   0  0  0  0  0  0  0  0  0  0  0  0
   19.6443  -16.5788  -17.9366 C   0  0  0  0  0  0  0  0  0  0  0  0
   20.4900  -16.6798  -19.1317 C   0  0  0  0  0  0  0  0  0  0  0  0
   21.4641  -17.4645  -19.1980 O   0  0  0  0  0  0  0  0  0  0  0  0
   21.9000  -14.6191  -15.6392 C   0  0  0  0  0  0  0  0  0  0  0  0
   21.3839  -14.5213  -14.4817 O   0  0  0  0  0  0  0  0  0  0  0  0
   20.2135  -15.8687  -20.2647 O   0  0  0  0  0  0  0  0  0  0  0  0
   24.9339  -10.9881  -14.2593 C   0  0  0  0  0  0  0  0  0  0  0  0
   24.5633  -12.1706  -15.1127 C   0  0  2  0  0  0  0  0  0  0  0  0
   25.1955  -12.0863  -16.4942 C   0  0  0  0  0  0  0  0  0  0  0  0
   23.1030  -12.4581  -15.1830 C   0  0  2  0  0  0  0  0  0  0  0  0
   22.7887  -13.6055  -16.0262 N   0  0  0  0  0  0  0  0  0  0  0  0
   22.3427  -11.2654  -15.6889 C   0  0  0  0  0  0  0  0  0  0  0  0
   22.3086  -11.0524  -16.9289 O   0  0  0  0  0  0  0  0  0  0  0  0
   21.6736  -10.3911  -14.7984 N   0  0  0  0  0  0  0  0  0  0  0  0
   20.9997   -9.1685  -15.2495 C   0  0  1  0  0  0  0  0  0  0  0  0
   19.5588   -9.1831  -14.9178 C   0  0  0  0  0  0  0  0  0  0  0  0
   18.8151  -10.1461  -15.7640 C   0  0  0  0  0  0  0  0  0  0  0  0
   19.4044  -10.9048  -16.7841 C   0  0  0  0  0  0  0  0  0  0  0  0
   18.4550  -11.6650  -17.3412 N   0  0  0  0  0  0  0  0  0  0  0  0
   17.2887  -11.4334  -16.7321 C   0  0  0  0  0  0  0  0  0  0  0  0
   17.5286  -10.5173  -15.7876 N   0  0  0  0  0  0  0  0  0  0  0  0
   21.6898   -8.0442  -14.5590 C   0  0  0  0  0  0  0  0  0  0  0  0
   22.4216   -8.2085  -13.5755 O   0  0  0  0  0  0  0  0  0  0  0  0
   21.5214   -6.7153  -15.0217 O   0  0  0  0  0  0  0  0  0  0  0  0
  2  3  1  0
  2  1  1  1
  3  4  1  0
  5  4  1  0
  6  5  2  0
  7  2  1  0
  8  7  2  0
  9  5  1  0
 11 13  1  0
 11 10  1  6
 12 11  1  0
 13 14  1  6
 14  7  1  0
 15 13  1  0
 15 16  2  0
 17 15  1  0
 18 17  1  0
 18 19  1  1
 20 19  1  0
 21 20  2  0
 22 21  1  0
 23 22  1  0
 23 24  2  0
 24 20  1  0
 25 18  1  0
 26 25  2  0
 27 25  1  0
M  END
$$$$
