EVH.pdb
     RDKit          3D

 27 27  0  0  1  0  0  0  0  0999 V2000
   19.2780  -24.6752  -14.2113 N   0  0  0  0  0  0  0  0  0  0  0  0
   19.4202  -24.3740  -12.8498 C   0  0  1  0  0  0  0  0  0  0  0  0
   19.2402  -22.9424  -12.5144 C   0  0  0  0  0  0  0  0  0  0  0  0
   18.2003  -22.2488  -13.2924 C   0  0  0  0  0  0  0  0  0  0  0  0
   17.0765  -21.7700  -12.4792 C   0  0  0  0  0  0  0  0  0  0  0  0
   16.1348  -22.5191  -12.1315 O   0  0  0  0  0  0  0  0  0  0  0  0
   18.5440  -25.1786  -11.9256 C   0  0  0  0  0  0  0  0  0  0  0  0
   17.3291  -25.3463  -12.2595 O   0  0  0  0  0  0  0  0  0  0  0  0
   17.0339  -20.4132  -12.0604 O   0  0  0  0  0  0  0  0  0  0  0  0
   20.0807  -28.1514   -9.3978 C   0  0  0  0  0  0  0  0  0  0  0  0
   18.6572  -28.0511   -9.8751 C   0  0  2  0  0  0  0  0  0  0  0  0
   18.4468  -28.8095  -11.1774 C   0  0  0  0  0  0  0  0  0  0  0  0
   18.1162  -26.6645   -9.9421 C   0  0  2  0  0  0  0  0  0  0  0  0
   18.9577  -25.7621  -10.7193 N   0  0  0  0  0  0  0  0  0  0  0  0
   17.9352  -26.0895   -8.5661 C   0  0  0  0  0  0  0  0  0  0  0  0
   18.9129  -25.5181   -8.0168 O   0  0  0  0  0  0  0  0  0  0  0  0
   16.6941  -26.1822   -7.8906 N   0  0  0  0  0  0  0  0  0  0  0  0
   16.4941  -25.6654   -6.5321 C   0  0  1  0  0  0  0  0  0  0  0  0
   15.0661  -25.4058   -6.2497 C   0  0  0  0  0  0  0  0  0  0  0  0
   14.8602  -24.9592   -4.8516 C   0  0  0  0  0  0  0  0  0  0  0  0
   15.1407  -23.6636   -4.3976 C   0  0  0  0  0  0  0  0  0  0  0  0
   14.8402  -23.6028   -3.0954 N   0  0  0  0  0  0  0  0  0  0  0  0
   14.3821  -24.7910   -2.6911 C   0  0  0  0  0  0  0  0  0  0  0  0
   14.4026  -25.5909   -3.7629 N   0  0  0  0  0  0  0  0  0  0  0  0
   17.0332  -26.7081   -5.6159 C   0  0  0  0  0  0  0  0  0  0  0  0
   16.9213  -27.9197   -5.8381 O   0  0  0  0  0  0  0  0  0  0  0  0
   17.7078  -26.3307   -4.4282 O   0  0  0  0  0  0  0  0  0  0  0  0
  2  3  1  0
  2  1  1  6
  3  4  1  0
  5  4  1  0
  6  5  2  0
  7  2  1  0
  8  7  2  0
  9  5  1  0
 11 13  1  0
 11 10  1  6
 12 11  1  0
 13 14  1  6
 14  7  1  0
 15 13  1  0
 15 16  2  0
 17 15  1  0
 18 17  1  0
 18 19  1  1
 20 19  1  0
 21 20  2  0
 22 21  1  0
 23 22  1  0
 23 24  2  0
 24 20  1  0
 25 18  1  0
 26 25  2  0
 27 25  1  0
M  END
$$$$
