EVH.pdb
     RDKit          3D

 27 27  0  0  1  0  0  0  0  0999 V2000
   20.0768  -13.0425  -18.5418 N   0  0  0  0  0  0  0  0  0  0  0  0
   20.8403  -11.8902  -18.7740 C   0  0  1  0  0  0  0  0  0  0  0  0
   20.1268  -10.8162  -19.5034 C   0  0  0  0  0  0  0  0  0  0  0  0
   19.6352  -11.1939  -20.8388 C   0  0  0  0  0  0  0  0  0  0  0  0
   18.9730  -10.0976  -21.5552 C   0  0  0  0  0  0  0  0  0  0  0  0
   19.5826   -9.3639  -22.3669 O   0  0  0  0  0  0  0  0  0  0  0  0
   21.4609  -11.2801  -17.5444 C   0  0  0  0  0  0  0  0  0  0  0  0
   20.7949  -11.3226  -16.4627 O   0  0  0  0  0  0  0  0  0  0  0  0
   17.5931   -9.8407  -21.3359 O   0  0  0  0  0  0  0  0  0  0  0  0
   24.9458  -11.8681  -15.9030 C   0  0  0  0  0  0  0  0  0  0  0  0
   24.6737  -10.3933  -16.0248 C   0  0  2  0  0  0  0  0  0  0  0  0
   25.2487   -9.6171  -14.8491 C   0  0  0  0  0  0  0  0  0  0  0  0
   23.2500  -10.0394  -16.2856 C   0  0  2  0  0  0  0  0  0  0  0  0
   22.7198  -10.6643  -17.4917 N   0  0  0  0  0  0  0  0  0  0  0  0
   23.0764   -8.5514  -16.3974 C   0  0  0  0  0  0  0  0  0  0  0  0
   23.7203   -7.9332  -17.2848 O   0  0  0  0  0  0  0  0  0  0  0  0
   22.2085   -7.8474  -15.5278 N   0  0  0  0  0  0  0  0  0  0  0  0
   22.0352   -6.3920  -15.5932 C   0  0  1  0  0  0  0  0  0  0  0  0
   20.6625   -6.0217  -15.9994 C   0  0  0  0  0  0  0  0  0  0  0  0
   20.4028   -6.3660  -17.4173 C   0  0  0  0  0  0  0  0  0  0  0  0
   19.4717   -7.3294  -17.8278 C   0  0  0  0  0  0  0  0  0  0  0  0
   19.4905   -7.3861  -19.1642 N   0  0  0  0  0  0  0  0  0  0  0  0
   20.3844   -6.5102  -19.6317 C   0  0  0  0  0  0  0  0  0  0  0  0
   20.9206   -5.9082  -18.5644 N   0  0  0  0  0  0  0  0  0  0  0  0
   22.3375   -5.8837  -14.2267 C   0  0  0  0  0  0  0  0  0  0  0  0
   22.4591   -4.6799  -13.9700 O   0  0  0  0  0  0  0  0  0  0  0  0
   22.5006   -6.7913  -13.1507 O   0  0  0  0  0  0  0  0  0  0  0  0
  2  3  1  0
  2  1  1  1
  3  4  1  0
  5  4  1  0
  6  5  2  0
  7  2  1  0
  8  7  2  0
  9  5  1  0
 11 13  1  0
 11 10  1  1
 12 11  1  0
 13 14  1  6
 14  7  1  0
 15 13  1  0
 15 16  2  0
 17 15  1  0
 18 17  1  0
 18 19  1  1
 20 19  1  0
 21 20  2  0
 22 21  1  0
 23 22  1  0
 23 24  2  0
 24 20  1  0
 25 18  1  0
 26 25  2  0
 27 25  1  0
M  END
$$$$
