EVH.pdb
     RDKit          3D

 27 27  0  0  1  0  0  0  0  0999 V2000
   29.3883  -35.3107   -5.0176 N   0  0  0  0  0  0  0  0  0  0  0  0
   28.8645  -35.4273   -3.7228 C   0  0  1  0  0  0  0  0  0  0  0  0
   29.8326  -35.9049   -2.7083 C   0  0  0  0  0  0  0  0  0  0  0  0
   30.2786  -37.2971   -2.8834 C   0  0  0  0  0  0  0  0  0  0  0  0
   31.2562  -37.7337   -1.8798 C   0  0  0  0  0  0  0  0  0  0  0  0
   31.7236  -36.9547   -1.0175 O   0  0  0  0  0  0  0  0  0  0  0  0
   28.2108  -34.1805   -3.1865 C   0  0  0  0  0  0  0  0  0  0  0  0
   28.7626  -33.0652   -3.4458 O   0  0  0  0  0  0  0  0  0  0  0  0
   31.7029  -39.0822   -1.8670 O   0  0  0  0  0  0  0  0  0  0  0  0
   24.1063  -33.5905   -2.6459 C   0  0  0  0  0  0  0  0  0  0  0  0
   25.1893  -32.5467   -2.6861 C   0  0  2  0  0  0  0  0  0  0  0  0
   25.4821  -32.0957   -4.1097 C   0  0  0  0  0  0  0  0  0  0  0  0
   26.4321  -32.9059   -1.9469 C   0  0  2  0  0  0  0  0  0  0  0  0
   27.0372  -34.1456   -2.4196 N   0  0  0  0  0  0  0  0  0  0  0  0
   26.1659  -33.0305   -0.4738 C   0  0  0  0  0  0  0  0  0  0  0  0
   25.8976  -34.1663   -0.0023 O   0  0  0  0  0  0  0  0  0  0  0  0
   26.2131  -31.9000    0.3777 N   0  0  0  0  0  0  0  0  0  0  0  0
   25.8187  -31.9579    1.7896 C   0  0  1  0  0  0  0  0  0  0  0  0
   26.1293  -30.6973    2.4972 C   0  0  0  0  0  0  0  0  0  0  0  0
   25.7670  -30.7749    3.9321 C   0  0  0  0  0  0  0  0  0  0  0  0
   26.0441  -31.8802    4.7476 C   0  0  0  0  0  0  0  0  0  0  0  0
   25.5857  -31.6182    5.9768 N   0  0  0  0  0  0  0  0  0  0  0  0
   25.0297  -30.4035    5.9920 C   0  0  0  0  0  0  0  0  0  0  0  0
   25.1499  -29.9150    4.7527 N   0  0  0  0  0  0  0  0  0  0  0  0
   24.3526  -32.2186    1.7929 C   0  0  0  0  0  0  0  0  0  0  0  0
   23.5781  -31.7067    0.9756 O   0  0  0  0  0  0  0  0  0  0  0  0
   23.7868  -33.0845    2.7615 O   0  0  0  0  0  0  0  0  0  0  0  0
  2  3  1  0
  2  1  1  6
  3  4  1  0
  5  4  1  0
  6  5  2  0
  7  2  1  0
  8  7  2  0
  9  5  1  0
 11 13  1  0
 11 10  1  6
 12 11  1  0
 13 14  1  6
 14  7  1  0
 15 13  1  0
 15 16  2  0
 17 15  1  0
 18 17  1  0
 18 19  1  6
 20 19  1  0
 21 20  2  0
 22 21  1  0
 23 22  1  0
 23 24  2  0
 24 20  1  0
 25 18  1  0
 26 25  2  0
 27 25  1  0
M  END
$$$$
