EVH.pdb
     RDKit          3D

 27 27  0  0  1  0  0  0  0  0999 V2000
   26.4090  -34.1878   -8.1282 N   0  0  0  0  0  0  0  0  0  0  0  0
   25.6753  -34.7819   -7.0921 C   0  0  1  0  0  0  0  0  0  0  0  0
   26.4370  -34.9871   -5.8382 C   0  0  0  0  0  0  0  0  0  0  0  0
   27.0761  -33.7769   -5.2953 C   0  0  0  0  0  0  0  0  0  0  0  0
   27.8819  -34.0241   -4.0940 C   0  0  0  0  0  0  0  0  0  0  0  0
   28.1221  -35.1798   -3.6752 O   0  0  0  0  0  0  0  0  0  0  0  0
   24.3885  -34.0816   -6.7415 C   0  0  0  0  0  0  0  0  0  0  0  0
   24.2523  -32.8737   -7.1130 O   0  0  0  0  0  0  0  0  0  0  0  0
   28.4183  -32.9295   -3.3644 O   0  0  0  0  0  0  0  0  0  0  0  0
   20.6008  -35.3552   -7.5655 C   0  0  0  0  0  0  0  0  0  0  0  0
   20.8889  -34.9993   -6.1322 C   0  0  2  0  0  0  0  0  0  0  0  0
   19.6282  -34.5702   -5.3959 C   0  0  0  0  0  0  0  0  0  0  0  0
   22.0051  -34.0311   -5.9404 C   0  0  2  0  0  0  0  0  0  0  0  0
   23.3206  -34.6532   -6.0346 N   0  0  0  0  0  0  0  0  0  0  0  0
   21.8941  -33.3369   -4.6128 C   0  0  0  0  0  0  0  0  0  0  0  0
   22.3892  -33.8922   -3.5975 O   0  0  0  0  0  0  0  0  0  0  0  0
   21.2479  -32.0826   -4.4935 N   0  0  0  0  0  0  0  0  0  0  0  0
   21.1193  -31.3794   -3.2123 C   0  0  1  0  0  0  0  0  0  0  0  0
   20.4888  -30.0521   -3.3770 C   0  0  0  0  0  0  0  0  0  0  0  0
   20.3077  -29.3700   -2.0738 C   0  0  0  0  0  0  0  0  0  0  0  0
   20.7026  -29.9173   -0.8457 C   0  0  0  0  0  0  0  0  0  0  0  0
   20.3948  -29.0437    0.1195 N   0  0  0  0  0  0  0  0  0  0  0  0
   19.8237  -27.9657   -0.4251 C   0  0  0  0  0  0  0  0  0  0  0  0
   19.7816  -28.1833   -1.7441 N   0  0  0  0  0  0  0  0  0  0  0  0
   20.2841  -32.2577   -2.3473 C   0  0  0  0  0  0  0  0  0  0  0  0
   19.2750  -32.8422   -2.7596 O   0  0  0  0  0  0  0  0  0  0  0  0
   20.6311  -32.4533   -0.9873 O   0  0  0  0  0  0  0  0  0  0  0  0
  2  3  1  0
  2  1  1  6
  3  4  1  0
  5  4  1  0
  6  5  2  0
  7  2  1  0
  8  7  2  0
  9  5  1  0
 11 13  1  0
 11 10  1  6
 12 11  1  0
 13 14  1  1
 14  7  1  0
 15 13  1  0
 15 16  2  0
 17 15  1  0
 18 17  1  0
 18 19  1  6
 20 19  1  0
 21 20  2  0
 22 21  1  0
 23 22  1  0
 23 24  2  0
 24 20  1  0
 25 18  1  0
 26 25  2  0
 27 25  1  0
M  END
$$$$
