EVH.pdb
     RDKit          3D

 27 27  0  0  1  0  0  0  0  0999 V2000
   25.7251  -14.1609  -19.6134 N   0  0  0  0  0  0  0  0  0  0  0  0
   25.0846  -12.9188  -19.7208 C   0  0  1  0  0  0  0  0  0  0  0  0
   24.0168  -12.8639  -20.7461 C   0  0  0  0  0  0  0  0  0  0  0  0
   24.4543  -13.1829  -22.1152 C   0  0  0  0  0  0  0  0  0  0  0  0
   23.3926  -13.0498  -23.1195 C   0  0  0  0  0  0  0  0  0  0  0  0
   23.0668  -13.9918  -23.8781 O   0  0  0  0  0  0  0  0  0  0  0  0
   24.5162  -12.3830  -18.4327 C   0  0  0  0  0  0  0  0  0  0  0  0
   23.7582  -13.1479  -17.7574 O   0  0  0  0  0  0  0  0  0  0  0  0
   22.6965  -11.8188  -23.2543 O   0  0  0  0  0  0  0  0  0  0  0  0
   26.1575   -9.1162  -16.0781 C   0  0  0  0  0  0  0  0  0  0  0  0
   25.3138  -10.2901  -15.6606 C   0  0  2  0  0  0  0  0  0  0  0  0
   26.1695  -11.4874  -15.2736 C   0  0  0  0  0  0  0  0  0  0  0  0
   24.2373  -10.6600  -16.6220 C   0  0  2  0  0  0  0  0  0  0  0  0
   24.7536  -11.1026  -17.9120 N   0  0  0  0  0  0  0  0  0  0  0  0
   23.2978   -9.5097  -16.8479 C   0  0  0  0  0  0  0  0  0  0  0  0
   23.6510   -8.5850  -17.6253 O   0  0  0  0  0  0  0  0  0  0  0  0
   22.0374   -9.4558  -16.2048 N   0  0  0  0  0  0  0  0  0  0  0  0
   21.1387   -8.3023  -16.3244 C   0  0  1  0  0  0  0  0  0  0  0  0
   19.7555   -8.6423  -15.9275 C   0  0  0  0  0  0  0  0  0  0  0  0
   18.8770   -7.4487  -15.9385 C   0  0  0  0  0  0  0  0  0  0  0  0
   19.1050   -6.3201  -16.7372 C   0  0  0  0  0  0  0  0  0  0  0  0
   18.1273   -5.4377  -16.5026 N   0  0  0  0  0  0  0  0  0  0  0  0
   17.2851   -5.9411  -15.5960 C   0  0  0  0  0  0  0  0  0  0  0  0
   17.7549   -7.1505  -15.2710 N   0  0  0  0  0  0  0  0  0  0  0  0
   21.7020   -7.2524  -15.4314 C   0  0  0  0  0  0  0  0  0  0  0  0
   22.1834   -7.5038  -14.3201 O   0  0  0  0  0  0  0  0  0  0  0  0
   21.7011   -5.8956  -15.8408 O   0  0  0  0  0  0  0  0  0  0  0  0
  2  3  1  0
  2  1  1  1
  3  4  1  0
  5  4  1  0
  6  5  2  0
  7  2  1  0
  8  7  2  0
  9  5  1  0
 11 13  1  0
 11 10  1  6
 12 11  1  0
 13 14  1  6
 14  7  1  0
 15 13  1  0
 15 16  2  0
 17 15  1  0
 18 17  1  0
 18 19  1  1
 20 19  1  0
 21 20  2  0
 22 21  1  0
 23 22  1  0
 23 24  2  0
 24 20  1  0
 25 18  1  0
 26 25  2  0
 27 25  1  0
M  END
$$$$
