EVH.pdb
     RDKit          3D

 27 27  0  0  1  0  0  0  0  0999 V2000
   20.7846  -14.8090  -17.2331 N   0  0  0  0  0  0  0  0  0  0  0  0
   20.0147  -14.5726  -16.0860 C   0  0  1  0  0  0  0  0  0  0  0  0
   20.0633  -15.6573  -15.0782 C   0  0  0  0  0  0  0  0  0  0  0  0
   19.7589  -17.0009  -15.5976 C   0  0  0  0  0  0  0  0  0  0  0  0
   19.8051  -18.0526  -14.5752 C   0  0  0  0  0  0  0  0  0  0  0  0
   19.1433  -17.9841  -13.5140 O   0  0  0  0  0  0  0  0  0  0  0  0
   20.3061  -13.2736  -15.3810 C   0  0  0  0  0  0  0  0  0  0  0  0
   19.6524  -13.0161  -14.3217 O   0  0  0  0  0  0  0  0  0  0  0  0
   20.6223  -19.1975  -14.7744 O   0  0  0  0  0  0  0  0  0  0  0  0
   23.7740  -10.6387  -16.1532 C   0  0  0  0  0  0  0  0  0  0  0  0
   23.0508  -10.9346  -14.8674 C   0  0  2  0  0  0  0  0  0  0  0  0
   23.7131  -12.0686  -14.0987 C   0  0  0  0  0  0  0  0  0  0  0  0
   21.5817  -11.1384  -15.0086 C   0  0  2  0  0  0  0  0  0  0  0  0
   21.2438  -12.3174  -15.7972 N   0  0  0  0  0  0  0  0  0  0  0  0
   20.9286   -9.9379  -15.6322 C   0  0  0  0  0  0  0  0  0  0  0  0
   20.9309   -9.8323  -16.8864 O   0  0  0  0  0  0  0  0  0  0  0  0
   20.3190   -8.9385  -14.8354 N   0  0  0  0  0  0  0  0  0  0  0  0
   19.7150   -7.7308  -15.4091 C   0  0  1  0  0  0  0  0  0  0  0  0
   18.4865   -7.3368  -14.6867 C   0  0  0  0  0  0  0  0  0  0  0  0
   17.9099   -6.0864  -15.2349 C   0  0  0  0  0  0  0  0  0  0  0  0
   17.8925   -5.7686  -16.5995 C   0  0  0  0  0  0  0  0  0  0  0  0
   17.3017   -4.5770  -16.7437 N   0  0  0  0  0  0  0  0  0  0  0  0
   16.9398   -4.1146  -15.5437 C   0  0  0  0  0  0  0  0  0  0  0  0
   17.3150   -5.0379  -14.6516 N   0  0  0  0  0  0  0  0  0  0  0  0
   20.7527   -6.6678  -15.3062 C   0  0  0  0  0  0  0  0  0  0  0  0
   21.5676   -6.6130  -14.3774 O   0  0  0  0  0  0  0  0  0  0  0  0
   20.8373   -5.6587  -16.2976 O   0  0  0  0  0  0  0  0  0  0  0  0
  2  3  1  0
  2  1  1  6
  3  4  1  0
  5  4  1  0
  6  5  2  0
  7  2  1  0
  8  7  2  0
  9  5  1  0
 11 13  1  0
 11 10  1  6
 12 11  1  0
 13 14  1  6
 14  7  1  0
 15 13  1  0
 15 16  2  0
 17 15  1  0
 18 17  1  0
 18 19  1  1
 20 19  1  0
 21 20  2  0
 22 21  1  0
 23 22  1  0
 23 24  2  0
 24 20  1  0
 25 18  1  0
 26 25  2  0
 27 25  1  0
M  END
$$$$
