EVH.pdb
     RDKit          3D

 27 27  0  0  1  0  0  0  0  0999 V2000
   17.1183  -12.5744    4.6130 N   0  0  0  0  0  0  0  0  0  0  0  0
   17.4005  -13.2139    5.8279 C   0  0  1  0  0  0  0  0  0  0  0  0
   16.8333  -14.5768    5.9519 C   0  0  0  0  0  0  0  0  0  0  0  0
   15.8745  -14.7519    7.0554 C   0  0  0  0  0  0  0  0  0  0  0  0
   14.4982  -14.3826    6.7048 C   0  0  0  0  0  0  0  0  0  0  0  0
   14.1814  -13.9929    5.5574 O   0  0  0  0  0  0  0  0  0  0  0  0
   18.8625  -13.2880    6.1831 C   0  0  0  0  0  0  0  0  0  0  0  0
   19.6766  -13.6303    5.2689 O   0  0  0  0  0  0  0  0  0  0  0  0
   13.4729  -14.4616    7.6849 O   0  0  0  0  0  0  0  0  0  0  0  0
   20.7144  -11.0246    9.2388 C   0  0  0  0  0  0  0  0  0  0  0  0
   21.3863  -11.6952    8.0714 C   0  0  2  0  0  0  0  0  0  0  0  0
   21.4631  -10.7741    6.8627 C   0  0  0  0  0  0  0  0  0  0  0  0
   20.8377  -13.0350    7.7192 C   0  0  2  0  0  0  0  0  0  0  0  0
   19.4056  -13.0098    7.4458 N   0  0  0  0  0  0  0  0  0  0  0  0
   21.1022  -14.0302    8.8129 C   0  0  0  0  0  0  0  0  0  0  0  0
   20.1719  -14.3095    9.6134 O   0  0  0  0  0  0  0  0  0  0  0  0
   22.3687  -14.6484    8.9508 N   0  0  0  0  0  0  0  0  0  0  0  0
   22.6720  -15.5949   10.0299 C   0  0  1  0  0  0  0  0  0  0  0  0
   23.1059  -16.9063    9.5023 C   0  0  0  0  0  0  0  0  0  0  0  0
   21.9925  -17.6189    8.8324 C   0  0  0  0  0  0  0  0  0  0  0  0
   20.8120  -18.0056    9.4808 C   0  0  0  0  0  0  0  0  0  0  0  0
   20.0272  -18.6204    8.5888 N   0  0  0  0  0  0  0  0  0  0  0  0
   20.6424  -18.6481    7.4032 C   0  0  0  0  0  0  0  0  0  0  0  0
   21.8219  -18.0407    7.5728 N   0  0  0  0  0  0  0  0  0  0  0  0
   23.7553  -14.9636   10.8333 C   0  0  0  0  0  0  0  0  0  0  0  0
   24.3993  -13.9840   10.4391 O   0  0  0  0  0  0  0  0  0  0  0  0
   24.0896  -15.4835   12.1085 O   0  0  0  0  0  0  0  0  0  0  0  0
  2  3  1  0
  2  1  1  6
  3  4  1  0
  5  4  1  0
  6  5  2  0
  7  2  1  0
  8  7  2  0
  9  5  1  0
 11 13  1  0
 11 10  1  1
 12 11  1  0
 13 14  1  1
 14  7  1  0
 15 13  1  0
 15 16  2  0
 17 15  1  0
 18 17  1  0
 18 19  1  6
 20 19  1  0
 21 20  2  0
 22 21  1  0
 23 22  1  0
 23 24  2  0
 24 20  1  0
 25 18  1  0
 26 25  2  0
 27 25  1  0
M  END
$$$$
