EVH.pdb
     RDKit          3D

 27 27  0  0  1  0  0  0  0  0999 V2000
   23.3242  -15.3798  -17.4256 N   0  0  0  0  0  0  0  0  0  0  0  0
   23.0983  -14.0897  -17.9249 C   0  0  1  0  0  0  0  0  0  0  0  0
   21.8536  -13.9452  -18.7151 C   0  0  0  0  0  0  0  0  0  0  0  0
   21.7386  -14.8583  -19.8643 C   0  0  0  0  0  0  0  0  0  0  0  0
   20.5140  -14.6662  -20.6498 C   0  0  0  0  0  0  0  0  0  0  0  0
   20.4990  -14.0100  -21.7165 O   0  0  0  0  0  0  0  0  0  0  0  0
   23.1185  -12.9949  -16.8905 C   0  0  0  0  0  0  0  0  0  0  0  0
   22.4520  -13.1769  -15.8236 O   0  0  0  0  0  0  0  0  0  0  0  0
   19.2910  -15.2350  -20.2038 O   0  0  0  0  0  0  0  0  0  0  0  0
   26.0044   -9.6613  -16.6250 C   0  0  0  0  0  0  0  0  0  0  0  0
   25.2305  -10.3882  -15.5589 C   0  0  2  0  0  0  0  0  0  0  0  0
   26.0183  -11.5613  -14.9943 C   0  0  0  0  0  0  0  0  0  0  0  0
   23.8465  -10.7798  -15.9477 C   0  0  2  0  0  0  0  0  0  0  0  0
   23.8148  -11.7829  -17.0056 N   0  0  0  0  0  0  0  0  0  0  0  0
   23.0532   -9.5844  -16.3930 C   0  0  0  0  0  0  0  0  0  0  0  0
   23.1964   -9.1697  -17.5727 O   0  0  0  0  0  0  0  0  0  0  0  0
   22.1588   -8.9290  -15.5123 N   0  0  0  0  0  0  0  0  0  0  0  0
   21.3095   -7.8107  -15.9375 C   0  0  1  0  0  0  0  0  0  0  0  0
   19.8785   -8.0822  -15.6828 C   0  0  0  0  0  0  0  0  0  0  0  0
   19.3434   -9.1019  -16.6157 C   0  0  0  0  0  0  0  0  0  0  0  0
   20.0862   -9.6702  -17.6592 C   0  0  0  0  0  0  0  0  0  0  0  0
   19.3048  -10.5478  -18.2987 N   0  0  0  0  0  0  0  0  0  0  0  0
   18.1008  -10.5718  -17.7202 C   0  0  0  0  0  0  0  0  0  0  0  0
   18.1466   -9.6952  -16.7110 N   0  0  0  0  0  0  0  0  0  0  0  0
   21.7705   -6.6292  -15.1573 C   0  0  0  0  0  0  0  0  0  0  0  0
   21.3445   -5.4853  -15.3568 O   0  0  0  0  0  0  0  0  0  0  0  0
   22.7398   -6.7864  -14.1355 O   0  0  0  0  0  0  0  0  0  0  0  0
  2  3  1  0
  2  1  1  1
  3  4  1  0
  5  4  1  0
  6  5  2  0
  7  2  1  0
  8  7  2  0
  9  5  1  0
 11 13  1  0
 11 10  1  6
 12 11  1  0
 13 14  1  6
 14  7  1  0
 15 13  1  0
 15 16  2  0
 17 15  1  0
 18 17  1  0
 18 19  1  1
 20 19  1  0
 21 20  2  0
 22 21  1  0
 23 22  1  0
 23 24  2  0
 24 20  1  0
 25 18  1  0
 26 25  2  0
 27 25  1  0
M  END
$$$$
