EVH.pdb
     RDKit          3D

 27 27  0  0  1  0  0  0  0  0999 V2000
   27.5459  -21.7497  -16.3915 N   0  0  0  0  0  0  0  0  0  0  0  0
   26.7242  -20.7209  -15.9107 C   0  0  1  0  0  0  0  0  0  0  0  0
   25.9598  -20.0040  -16.9577 C   0  0  0  0  0  0  0  0  0  0  0  0
   26.7834  -19.3076  -17.9600 C   0  0  0  0  0  0  0  0  0  0  0  0
   27.4081  -20.2065  -18.9373 C   0  0  0  0  0  0  0  0  0  0  0  0
   26.7354  -20.9016  -19.7330 O   0  0  0  0  0  0  0  0  0  0  0  0
   25.7564  -21.1316  -14.8318 C   0  0  0  0  0  0  0  0  0  0  0  0
   24.9611  -22.0904  -15.0845 O   0  0  0  0  0  0  0  0  0  0  0  0
   28.8236  -20.3083  -19.0012 O   0  0  0  0  0  0  0  0  0  0  0  0
   26.5244  -21.3185  -10.8186 C   0  0  0  0  0  0  0  0  0  0  0  0
   25.1841  -20.7251  -11.1583 C   0  0  2  0  0  0  0  0  0  0  0  0
   24.1311  -21.0852  -10.1205 C   0  0  0  0  0  0  0  0  0  0  0  0
   24.7150  -20.9936  -12.5468 C   0  0  2  0  0  0  0  0  0  0  0  0
   25.6574  -20.5414  -13.5635 N   0  0  0  0  0  0  0  0  0  0  0  0
   23.3839  -20.3452  -12.8008 C   0  0  0  0  0  0  0  0  0  0  0  0
   23.3086  -19.0892  -12.7718 O   0  0  0  0  0  0  0  0  0  0  0  0
   22.2300  -21.1209  -13.0687 N   0  0  0  0  0  0  0  0  0  0  0  0
   20.9264  -20.5190  -13.3702 C   0  0  1  0  0  0  0  0  0  0  0  0
   20.5152  -20.7748  -14.7673 C   0  0  0  0  0  0  0  0  0  0  0  0
   21.1304  -19.8034  -15.7024 C   0  0  0  0  0  0  0  0  0  0  0  0
   22.1492  -20.1301  -16.6073 C   0  0  0  0  0  0  0  0  0  0  0  0
   22.4684  -19.0270  -17.2934 N   0  0  0  0  0  0  0  0  0  0  0  0
   21.7081  -18.0109  -16.8761 C   0  0  0  0  0  0  0  0  0  0  0  0
   20.9113  -18.5002  -15.9197 N   0  0  0  0  0  0  0  0  0  0  0  0
   19.9633  -21.1328  -12.4148 C   0  0  0  0  0  0  0  0  0  0  0  0
   20.1189  -22.2635  -11.9383 O   0  0  0  0  0  0  0  0  0  0  0  0
   18.8067  -20.4186  -12.0142 O   0  0  0  0  0  0  0  0  0  0  0  0
  2  3  1  0
  2  1  1  6
  3  4  1  0
  5  4  1  0
  6  5  2  0
  7  2  1  0
  8  7  2  0
  9  5  1  0
 11 13  1  0
 11 10  1  1
 12 11  1  0
 13 14  1  6
 14  7  1  0
 15 13  1  0
 15 16  2  0
 17 15  1  0
 18 17  1  0
 18 19  1  6
 20 19  1  0
 21 20  2  0
 22 21  1  0
 23 22  1  0
 23 24  2  0
 24 20  1  0
 25 18  1  0
 26 25  2  0
 27 25  1  0
M  END
$$$$
