EVH.pdb
     RDKit          3D

 27 27  0  0  1  0  0  0  0  0999 V2000
   21.0239  -13.2880  -17.2728 N   0  0  0  0  0  0  0  0  0  0  0  0
   21.8451  -12.2960  -16.7195 C   0  0  1  0  0  0  0  0  0  0  0  0
   23.2375  -12.2973  -17.2253 C   0  0  0  0  0  0  0  0  0  0  0  0
   23.9843  -13.5428  -16.9831 C   0  0  0  0  0  0  0  0  0  0  0  0
   25.3109  -13.5663  -17.6103 C   0  0  0  0  0  0  0  0  0  0  0  0
   25.5618  -12.9458  -18.6690 O   0  0  0  0  0  0  0  0  0  0  0  0
   21.3127  -10.8916  -16.8362 C   0  0  0  0  0  0  0  0  0  0  0  0
   20.9341  -10.4961  -17.9833 O   0  0  0  0  0  0  0  0  0  0  0  0
   26.3624  -14.3125  -17.0138 O   0  0  0  0  0  0  0  0  0  0  0  0
   18.9614   -8.9599  -14.0052 C   0  0  0  0  0  0  0  0  0  0  0  0
   19.1568   -8.6454  -15.4636 C   0  0  2  0  0  0  0  0  0  0  0  0
   18.2563   -9.4962  -16.3472 C   0  0  0  0  0  0  0  0  0  0  0  0
   20.5737   -8.6675  -15.9239 C   0  0  2  0  0  0  0  0  0  0  0  0
   21.1988   -9.9769  -15.7792 N   0  0  0  0  0  0  0  0  0  0  0  0
   21.3977   -7.6551  -15.1804 C   0  0  0  0  0  0  0  0  0  0  0  0
   21.9919   -8.0136  -14.1303 O   0  0  0  0  0  0  0  0  0  0  0  0
   21.5115   -6.3213  -15.6420 N   0  0  0  0  0  0  0  0  0  0  0  0
   22.3562   -5.3243  -14.9749 C   0  0  1  0  0  0  0  0  0  0  0  0
   22.8976   -4.3363  -15.9326 C   0  0  0  0  0  0  0  0  0  0  0  0
   23.7845   -4.9768  -16.9325 C   0  0  0  0  0  0  0  0  0  0  0  0
   24.9079   -5.7453  -16.5995 C   0  0  0  0  0  0  0  0  0  0  0  0
   25.4753   -6.1698  -17.7341 N   0  0  0  0  0  0  0  0  0  0  0  0
   24.7748   -5.7140  -18.7765 C   0  0  0  0  0  0  0  0  0  0  0  0
   23.7632   -4.9996  -18.2714 N   0  0  0  0  0  0  0  0  0  0  0  0
   21.4844   -4.6604  -13.9667 C   0  0  0  0  0  0  0  0  0  0  0  0
   20.2500   -4.7340  -13.9943 O   0  0  0  0  0  0  0  0  0  0  0  0
   22.0611   -3.9021  -12.9176 O   0  0  0  0  0  0  0  0  0  0  0  0
  2  3  1  0
  2  1  1  6
  3  4  1  0
  5  4  1  0
  6  5  2  0
  7  2  1  0
  8  7  2  0
  9  5  1  0
 11 13  1  0
 11 10  1  1
 12 11  1  0
 13 14  1  1
 14  7  1  0
 15 13  1  0
 15 16  2  0
 17 15  1  0
 18 17  1  0
 18 19  1  6
 20 19  1  0
 21 20  2  0
 22 21  1  0
 23 22  1  0
 23 24  2  0
 24 20  1  0
 25 18  1  0
 26 25  2  0
 27 25  1  0
M  END
$$$$
