EVH.pdb
     RDKit          3D

 27 27  0  0  1  0  0  0  0  0999 V2000
   26.0626  -36.9563  -12.6549 N   0  0  0  0  0  0  0  0  0  0  0  0
   25.3287  -36.8240  -11.4681 C   0  0  1  0  0  0  0  0  0  0  0  0
   24.9302  -38.1076  -10.8450 C   0  0  0  0  0  0  0  0  0  0  0  0
   23.7252  -38.7284  -11.4195 C   0  0  0  0  0  0  0  0  0  0  0  0
   22.5080  -38.4897  -10.6352 C   0  0  0  0  0  0  0  0  0  0  0  0
   22.2712  -39.0967   -9.5655 O   0  0  0  0  0  0  0  0  0  0  0  0
   25.9830  -35.9788  -10.4066 C   0  0  0  0  0  0  0  0  0  0  0  0
   27.2494  -35.8724  -10.4326 O   0  0  0  0  0  0  0  0  0  0  0  0
   21.5505  -37.5419  -11.0858 O   0  0  0  0  0  0  0  0  0  0  0  0
   25.9545  -32.1965   -7.2610 C   0  0  0  0  0  0  0  0  0  0  0  0
   25.4412  -33.0520   -8.3873 C   0  0  2  0  0  0  0  0  0  0  0  0
   23.9212  -33.0352   -8.4576 C   0  0  0  0  0  0  0  0  0  0  0  0
   25.9868  -34.4381   -8.4188 C   0  0  2  0  0  0  0  0  0  0  0  0
   25.3089  -35.2949   -9.3846 N   0  0  0  0  0  0  0  0  0  0  0  0
   25.9048  -35.0805   -7.0634 C   0  0  0  0  0  0  0  0  0  0  0  0
   24.7819  -35.4643   -6.6439 O   0  0  0  0  0  0  0  0  0  0  0  0
   27.0606  -35.2563   -6.2645 N   0  0  0  0  0  0  0  0  0  0  0  0
   27.0556  -36.0543   -5.0334 C   0  0  1  0  0  0  0  0  0  0  0  0
   28.4271  -36.3714   -4.5808 C   0  0  0  0  0  0  0  0  0  0  0  0
   28.4169  -37.2372   -3.3779 C   0  0  0  0  0  0  0  0  0  0  0  0
   27.2573  -37.8123   -2.8411 C   0  0  0  0  0  0  0  0  0  0  0  0
   27.6053  -38.5290   -1.7664 N   0  0  0  0  0  0  0  0  0  0  0  0
   28.9263  -38.4434   -1.5863 C   0  0  0  0  0  0  0  0  0  0  0  0
   29.3936  -37.6623   -2.5663 N   0  0  0  0  0  0  0  0  0  0  0  0
   26.3405  -35.2328   -4.0180 C   0  0  0  0  0  0  0  0  0  0  0  0
   25.8456  -35.7149   -2.9922 O   0  0  0  0  0  0  0  0  0  0  0  0
   26.2015  -33.8349   -4.2046 O   0  0  0  0  0  0  0  0  0  0  0  0
  2  3  1  0
  2  1  1  6
  3  4  1  0
  5  4  1  0
  6  5  2  0
  7  2  1  0
  8  7  2  0
  9  5  1  0
 11 13  1  0
 11 10  1  1
 12 11  1  0
 13 14  1  6
 14  7  1  0
 15 13  1  0
 15 16  2  0
 17 15  1  0
 18 17  1  0
 18 19  1  1
 20 19  1  0
 21 20  2  0
 22 21  1  0
 23 22  1  0
 23 24  2  0
 24 20  1  0
 25 18  1  0
 26 25  2  0
 27 25  1  0
M  END
$$$$
