DEY.pdb
     RDKit          3D

 30 30  0  0  1  0  0  0  0  0999 V2000
   20.2994  -11.6413  -20.8563 N   0  0  0  0  0  0  0  0  0  0  0  0
   20.9726  -11.6206  -19.5952 C   0  0  1  0  0  0  0  0  0  0  0  0
   22.4757  -11.6527  -19.8330 C   0  0  0  0  0  0  0  0  0  0  0  0
   22.8481  -13.0404  -20.2140 C   0  0  0  0  0  0  0  0  0  0  0  0
   23.7269  -13.2856  -21.0868 O   0  0  0  0  0  0  0  0  0  0  0  0
   20.6864  -10.3523  -18.8378 C   0  0  0  0  0  0  0  0  0  0  0  0
   20.8541   -9.2291  -19.3762 O   0  0  0  0  0  0  0  0  0  0  0  0
   22.1714  -14.0663  -19.5528 O   0  0  0  0  0  0  0  0  0  0  0  0
   20.2173  -10.4206  -17.4891 N   0  0  0  0  0  0  0  0  0  0  0  0
   19.9939   -9.2557  -16.6709 C   0  0  1  0  0  0  0  0  0  0  0  0
   19.2645   -9.6314  -15.3769 C   0  0  0  0  0  0  0  0  0  0  0  0
   18.0867  -10.4818  -15.7365 C   0  0  0  0  0  0  0  0  0  0  0  0
   17.3698  -10.9539  -14.5184 C   0  0  0  0  0  0  0  0  0  0  0  0
   17.9039  -10.7879  -13.3902 O   0  0  0  0  0  0  0  0  0  0  0  0
   21.2606   -8.6016  -16.2641 C   0  0  0  0  0  0  0  0  0  0  0  0
   22.3854   -9.1381  -16.4629 O   0  0  0  0  0  0  0  0  0  0  0  0
   16.1349  -11.5708  -14.5627 O   0  0  0  0  0  0  0  0  0  0  0  0
   27.0028   -2.1957  -16.5071 O   0  0  0  0  0  0  0  0  0  0  0  0
   26.0030   -3.1568  -16.5950 C   0  0  0  0  0  0  0  0  0  0  0  0
   24.6983   -2.7829  -16.3617 C   0  0  0  0  0  0  0  0  0  0  0  0
   23.6808   -3.7156  -16.4415 C   0  0  0  0  0  0  0  0  0  0  0  0
   23.9134   -5.0484  -16.7537 C   0  0  0  0  0  0  0  0  0  0  0  0
   22.8231   -6.0523  -16.8309 C   0  0  0  0  0  0  0  0  0  0  0  0
   22.3096   -6.4614  -15.4576 C   0  0  2  0  0  0  0  0  0  0  0  0
   21.1724   -7.3411  -15.6370 N   0  0  0  0  0  0  0  0  0  0  0  0
   21.8909   -5.3071  -14.6350 C   0  0  0  0  0  0  0  0  0  0  0  0
   22.6888   -4.7592  -13.6423 O   0  0  0  0  0  0  0  0  0  0  0  0
   25.2401   -5.3956  -16.9840 C   0  0  0  0  0  0  0  0  0  0  0  0
   26.2636   -4.4741  -16.9073 C   0  0  0  0  0  0  0  0  0  0  0  0
   20.7640   -4.7676  -14.8118 O   0  0  0  0  0  0  0  0  0  0  0  0
  2  1  1  6
  3  2  1  0
  4  3  1  0
  4  8  1  0
  5  4  2  0
  6  7  2  0
  6  2  1  0
  9  6  1  0
 10  9  1  0
 10 11  1  1
 11 12  1  0
 12 13  1  0
 13 17  1  0
 14 13  2  0
 15 10  1  0
 16 15  2  0
 19 18  1  0
 19 20  2  0
 21 20  1  0
 22 21  2  0
 23 22  1  0
 24 23  1  6
 24 25  1  0
 25 15  1  0
 26 27  1  0
 26 24  1  0
 28 29  2  0
 28 22  1  0
 29 19  1  0
 30 26  2  0
M  END
$$$$
