DEY.pdb
     RDKit          3D

 30 30  0  0  1  0  0  0  0  0999 V2000
   10.8252   -6.5865  -17.3418 N   0  0  0  0  0  0  0  0  0  0  0  0
   11.5051   -6.8029  -16.1028 C   0  0  1  0  0  0  0  0  0  0  0  0
   10.8905   -8.0061  -15.4016 C   0  0  0  0  0  0  0  0  0  0  0  0
   11.3941   -8.0260  -14.0032 C   0  0  0  0  0  0  0  0  0  0  0  0
   12.5650   -7.6600  -13.7045 O   0  0  0  0  0  0  0  0  0  0  0  0
   12.9575   -7.1304  -16.3203 C   0  0  0  0  0  0  0  0  0  0  0  0
   13.2976   -8.1792  -16.9237 O   0  0  0  0  0  0  0  0  0  0  0  0
   10.4998   -8.4735  -13.0298 O   0  0  0  0  0  0  0  0  0  0  0  0
   13.9666   -6.2407  -15.8369 N   0  0  0  0  0  0  0  0  0  0  0  0
   15.3702   -6.4144  -16.1124 C   0  0  1  0  0  0  0  0  0  0  0  0
   16.1909   -5.2781  -15.4937 C   0  0  0  0  0  0  0  0  0  0  0  0
   17.5868   -5.3687  -16.0259 C   0  0  0  0  0  0  0  0  0  0  0  0
   18.4263   -4.2398  -15.5344 C   0  0  0  0  0  0  0  0  0  0  0  0
   17.9367   -3.4278  -14.7058 O   0  0  0  0  0  0  0  0  0  0  0  0
   15.9041   -7.6754  -15.5442 C   0  0  0  0  0  0  0  0  0  0  0  0
   15.6026   -8.0673  -14.3831 O   0  0  0  0  0  0  0  0  0  0  0  0
   19.7291   -4.0356  -15.9447 O   0  0  0  0  0  0  0  0  0  0  0  0
   19.2270  -15.8656  -15.8554 O   0  0  0  0  0  0  0  0  0  0  0  0
   18.7300  -14.6018  -16.1504 C   0  0  0  0  0  0  0  0  0  0  0  0
   17.3787  -14.3712  -16.0203 C   0  0  0  0  0  0  0  0  0  0  0  0
   16.8533  -13.1246  -16.3061 C   0  0  0  0  0  0  0  0  0  0  0  0
   17.6410  -12.0626  -16.7300 C   0  0  0  0  0  0  0  0  0  0  0  0
   17.0770  -10.7266  -17.0456 C   0  0  0  0  0  0  0  0  0  0  0  0
   17.3279   -9.7121  -15.9389 C   0  0  2  0  0  0  0  0  0  0  0  0
   16.7743   -8.4381  -16.3510 N   0  0  0  0  0  0  0  0  0  0  0  0
   18.7644   -9.5310  -15.6422 C   0  0  0  0  0  0  0  0  0  0  0  0
   19.3985  -10.1510  -14.5764 O   0  0  0  0  0  0  0  0  0  0  0  0
   19.0010  -12.3258  -16.8518 C   0  0  0  0  0  0  0  0  0  0  0  0
   19.5366  -13.5652  -16.5695 C   0  0  0  0  0  0  0  0  0  0  0  0
   19.4809   -8.7864  -16.3663 O   0  0  0  0  0  0  0  0  0  0  0  0
  2  1  1  6
  3  2  1  0
  4  3  1  0
  4  8  1  0
  5  4  2  0
  6  7  2  0
  6  2  1  0
  9  6  1  0
 10  9  1  0
 10 11  1  1
 11 12  1  0
 12 13  1  0
 13 17  1  0
 14 13  2  0
 15 10  1  0
 16 15  2  0
 19 18  1  0
 19 20  2  0
 21 20  1  0
 22 21  2  0
 23 22  1  0
 24 23  1  6
 24 25  1  0
 25 15  1  0
 26 27  1  0
 26 24  1  0
 28 29  2  0
 28 22  1  0
 29 19  1  0
 30 26  2  0
M  END
$$$$
