DEY.pdb
     RDKit          3D

 30 30  0  0  1  0  0  0  0  0999 V2000
   31.4175  -35.0174   -1.5433 N   0  0  0  0  0  0  0  0  0  0  0  0
   30.0486  -35.3336   -1.2784 C   0  0  1  0  0  0  0  0  0  0  0  0
   29.7843  -36.7773   -1.6819 C   0  0  0  0  0  0  0  0  0  0  0  0
   29.8009  -36.8467   -3.1667 C   0  0  0  0  0  0  0  0  0  0  0  0
   30.0437  -35.8369   -3.8847 O   0  0  0  0  0  0  0  0  0  0  0  0
   29.7339  -35.2354    0.1898 C   0  0  0  0  0  0  0  0  0  0  0  0
   28.6120  -35.5885    0.6327 O   0  0  0  0  0  0  0  0  0  0  0  0
   29.5323  -38.0946   -3.7308 O   0  0  0  0  0  0  0  0  0  0  0  0
   30.7201  -34.7354    1.0959 N   0  0  0  0  0  0  0  0  0  0  0  0
   30.4768  -34.5502    2.5040 C   0  0  1  0  0  0  0  0  0  0  0  0
   31.7610  -34.1322    3.2277 C   0  0  0  0  0  0  0  0  0  0  0  0
   32.5351  -35.3706    3.5550 C   0  0  0  0  0  0  0  0  0  0  0  0
   33.8215  -35.0403    4.2309 C   0  0  0  0  0  0  0  0  0  0  0  0
   34.6274  -35.9692    4.5017 O   0  0  0  0  0  0  0  0  0  0  0  0
   29.4803  -33.4848    2.7683 C   0  0  0  0  0  0  0  0  0  0  0  0
   29.4499  -32.4153    2.0992 O   0  0  0  0  0  0  0  0  0  0  0  0
   34.1805  -33.7530    4.5793 O   0  0  0  0  0  0  0  0  0  0  0  0
   21.8402  -29.6781    3.9240 O   0  0  0  0  0  0  0  0  0  0  0  0
   22.9872  -30.4198    3.6684 C   0  0  0  0  0  0  0  0  0  0  0  0
   24.2094  -29.7858    3.6962 C   0  0  0  0  0  0  0  0  0  0  0  0
   25.3691  -30.4959    3.4462 C   0  0  0  0  0  0  0  0  0  0  0  0
   25.3647  -31.8546    3.1602 C   0  0  0  0  0  0  0  0  0  0  0  0
   26.6081  -32.6161    2.8829 C   0  0  0  0  0  0  0  0  0  0  0  0
   27.4785  -32.7809    4.1206 C   0  0  2  0  0  0  0  0  0  0  0  0
   28.5512  -33.7031    3.8070 N   0  0  0  0  0  0  0  0  0  0  0  0
   26.7293  -33.3027    5.2829 C   0  0  0  0  0  0  0  0  0  0  0  0
   26.7754  -34.6317    5.6751 O   0  0  0  0  0  0  0  0  0  0  0  0
   24.1164  -32.4669    3.1394 C   0  0  0  0  0  0  0  0  0  0  0  0
   22.9527  -31.7690    3.3871 C   0  0  0  0  0  0  0  0  0  0  0  0
   26.0030  -32.5374    5.9750 O   0  0  0  0  0  0  0  0  0  0  0  0
  2  1  1  1
  3  2  1  0
  4  3  1  0
  4  8  1  0
  5  4  2  0
  6  7  2  0
  6  2  1  0
  9  6  1  0
 10  9  1  0
 10 11  1  1
 11 12  1  0
 12 13  1  0
 13 17  1  0
 14 13  2  0
 15 10  1  0
 16 15  2  0
 19 18  1  0
 19 20  2  0
 21 20  1  0
 22 21  2  0
 23 22  1  0
 24 23  1  6
 24 25  1  0
 25 15  1  0
 26 27  1  0
 26 24  1  0
 28 29  2  0
 28 22  1  0
 29 19  1  0
 30 26  2  0
M  END
$$$$
