DEY.pdb
     RDKit          3D

 30 30  0  0  1  0  0  0  0  0999 V2000
   19.4873  -10.9897  -17.2991 N   0  0  0  0  0  0  0  0  0  0  0  0
   18.2348  -10.6400  -16.7050 C   0  0  1  0  0  0  0  0  0  0  0  0
   17.9227  -11.6239  -15.5863 C   0  0  0  0  0  0  0  0  0  0  0  0
   17.6338  -12.9436  -16.2063 C   0  0  0  0  0  0  0  0  0  0  0  0
   18.4890  -13.5638  -16.8977 O   0  0  0  0  0  0  0  0  0  0  0  0
   18.2859   -9.2755  -16.0727 C   0  0  0  0  0  0  0  0  0  0  0  0
   17.2728   -8.7877  -15.5113 O   0  0  0  0  0  0  0  0  0  0  0  0
   16.3590  -13.4660  -15.9836 O   0  0  0  0  0  0  0  0  0  0  0  0
   19.4998   -8.5212  -16.1080 N   0  0  0  0  0  0  0  0  0  0  0  0
   19.6290   -7.2062  -15.5333 C   0  0  1  0  0  0  0  0  0  0  0  0
   20.9165   -7.0964  -14.7098 C   0  0  0  0  0  0  0  0  0  0  0  0
   20.9607   -5.7327  -14.0947 C   0  0  0  0  0  0  0  0  0  0  0  0
   22.1393   -5.5845  -13.1948 C   0  0  0  0  0  0  0  0  0  0  0  0
   23.0590   -4.7867  -13.5162 O   0  0  0  0  0  0  0  0  0  0  0  0
   19.6993   -6.1445  -16.5658 C   0  0  0  0  0  0  0  0  0  0  0  0
   20.2006   -6.3506  -17.7054 O   0  0  0  0  0  0  0  0  0  0  0  0
   22.2768   -6.2844  -12.0122 O   0  0  0  0  0  0  0  0  0  0  0  0
   17.9840    0.1270  -22.1455 O   0  0  0  0  0  0  0  0  0  0  0  0
   18.0455   -0.8999  -21.2113 C   0  0  0  0  0  0  0  0  0  0  0  0
   19.1793   -1.6792  -21.1530 C   0  0  0  0  0  0  0  0  0  0  0  0
   19.2714   -2.7086  -20.2345 C   0  0  0  0  0  0  0  0  0  0  0  0
   18.2498   -3.0057  -19.3423 C   0  0  0  0  0  0  0  0  0  0  0  0
   18.3438   -4.1160  -18.3620 C   0  0  0  0  0  0  0  0  0  0  0  0
   19.1854   -3.7509  -17.1473 C   0  0  2  0  0  0  0  0  0  0  0  0
   19.1821   -4.8750  -16.2330 N   0  0  0  0  0  0  0  0  0  0  0  0
   18.6777   -2.5594  -16.4354 C   0  0  0  0  0  0  0  0  0  0  0  0
   19.1069   -1.2718  -16.7184 O   0  0  0  0  0  0  0  0  0  0  0  0
   17.1182   -2.2017  -19.4249 C   0  0  0  0  0  0  0  0  0  0  0  0
   17.0149   -1.1720  -20.3369 C   0  0  0  0  0  0  0  0  0  0  0  0
   17.8151   -2.6761  -15.5218 O   0  0  0  0  0  0  0  0  0  0  0  0
  2  1  1  1
  3  2  1  0
  4  3  1  0
  4  8  1  0
  5  4  2  0
  6  7  2  0
  6  2  1  0
  9  6  1  0
 10  9  1  0
 10 11  1  6
 11 12  1  0
 12 13  1  0
 13 17  1  0
 14 13  2  0
 15 10  1  0
 16 15  2  0
 19 18  1  0
 19 20  2  0
 21 20  1  0
 22 21  2  0
 23 22  1  0
 24 23  1  6
 24 25  1  0
 25 15  1  0
 26 27  1  0
 26 24  1  0
 28 29  2  0
 28 22  1  0
 29 19  1  0
 30 26  2  0
M  END
$$$$
