DEY.pdb
     RDKit          3D

 30 30  0  0  1  0  0  0  0  0999 V2000
   17.0827  -10.5046  -17.4888 N   0  0  0  0  0  0  0  0  0  0  0  0
   17.7542  -10.4995  -16.2266 C   0  0  1  0  0  0  0  0  0  0  0  0
   19.2562  -10.4260  -16.4625 C   0  0  0  0  0  0  0  0  0  0  0  0
   19.7095  -11.7594  -16.9378 C   0  0  0  0  0  0  0  0  0  0  0  0
   19.1078  -12.8249  -16.6266 O   0  0  0  0  0  0  0  0  0  0  0  0
   17.3893   -9.2878  -15.4125 C   0  0  0  0  0  0  0  0  0  0  0  0
   17.6290   -8.1299  -15.8384 O   0  0  0  0  0  0  0  0  0  0  0  0
   20.8430  -11.7736  -17.7519 O   0  0  0  0  0  0  0  0  0  0  0  0
   16.7616   -9.4506  -14.1385 N   0  0  0  0  0  0  0  0  0  0  0  0
   16.4406   -8.3468  -13.2697 C   0  0  1  0  0  0  0  0  0  0  0  0
   14.9796   -8.4203  -12.8137 C   0  0  0  0  0  0  0  0  0  0  0  0
   14.7492   -9.7679  -12.2049 C   0  0  0  0  0  0  0  0  0  0  0  0
   13.6081   -9.7396  -11.2469 C   0  0  0  0  0  0  0  0  0  0  0  0
   13.3480  -10.7712  -10.5733 O   0  0  0  0  0  0  0  0  0  0  0  0
   17.2651   -8.3412  -12.0376 C   0  0  0  0  0  0  0  0  0  0  0  0
   17.6226   -9.4080  -11.4661 O   0  0  0  0  0  0  0  0  0  0  0  0
   12.8119   -8.6273  -11.0565 O   0  0  0  0  0  0  0  0  0  0  0  0
   22.4232   -9.1756  -15.0489 O   0  0  0  0  0  0  0  0  0  0  0  0
   21.7830   -8.4349  -14.0627 C   0  0  0  0  0  0  0  0  0  0  0  0
   21.7571   -8.9231  -12.7753 C   0  0  0  0  0  0  0  0  0  0  0  0
   21.1281   -8.2098  -11.7717 C   0  0  0  0  0  0  0  0  0  0  0  0
   20.5031   -6.9915  -12.0016 C   0  0  0  0  0  0  0  0  0  0  0  0
   19.8200   -6.2292  -10.9270 C   0  0  0  0  0  0  0  0  0  0  0  0
   18.5752   -6.9375  -10.4114 C   0  0  2  0  0  0  0  0  0  0  0  0
   17.6449   -7.0885  -11.5120 N   0  0  0  0  0  0  0  0  0  0  0  0
   17.9046   -6.1975   -9.3219 C   0  0  0  0  0  0  0  0  0  0  0  0
   18.4059   -6.1376   -8.0307 O   0  0  0  0  0  0  0  0  0  0  0  0
   20.5460   -6.5244  -13.3108 C   0  0  0  0  0  0  0  0  0  0  0  0
   21.1703   -7.2269  -14.3203 C   0  0  0  0  0  0  0  0  0  0  0  0
   16.8248   -5.5801   -9.5346 O   0  0  0  0  0  0  0  0  0  0  0  0
  2  1  1  6
  3  2  1  0
  4  3  1  0
  4  8  1  0
  5  4  2  0
  6  7  2  0
  6  2  1  0
  9  6  1  0
 10  9  1  0
 10 11  1  1
 11 12  1  0
 12 13  1  0
 13 17  1  0
 14 13  2  0
 15 10  1  0
 16 15  2  0
 19 18  1  0
 19 20  2  0
 21 20  1  0
 22 21  2  0
 23 22  1  0
 24 23  1  6
 24 25  1  0
 25 15  1  0
 26 27  1  0
 26 24  1  0
 28 29  2  0
 28 22  1  0
 29 19  1  0
 30 26  2  0
M  END
$$$$
