DEY.pdb
     RDKit          3D

 30 30  0  0  1  0  0  0  0  0999 V2000
   20.7002  -10.4699  -21.5348 N   0  0  0  0  0  0  0  0  0  0  0  0
   21.6731  -10.0972  -20.5558 C   0  0  1  0  0  0  0  0  0  0  0  0
   22.9044   -9.5475  -21.2620 C   0  0  0  0  0  0  0  0  0  0  0  0
   23.6480  -10.6958  -21.8433 C   0  0  0  0  0  0  0  0  0  0  0  0
   23.7131  -10.8942  -23.0886 O   0  0  0  0  0  0  0  0  0  0  0  0
   21.1649   -8.9972  -19.6637 C   0  0  0  0  0  0  0  0  0  0  0  0
   21.1537   -7.8033  -20.0563 O   0  0  0  0  0  0  0  0  0  0  0  0
   24.2755  -11.5500  -20.9354 O   0  0  0  0  0  0  0  0  0  0  0  0
   20.6874   -9.3090  -18.3528 N   0  0  0  0  0  0  0  0  0  0  0  0
   20.2216   -8.3107  -17.4241 C   0  0  1  0  0  0  0  0  0  0  0  0
   18.8980   -8.7399  -16.7824 C   0  0  0  0  0  0  0  0  0  0  0  0
   19.0815  -10.1100  -16.2089 C   0  0  0  0  0  0  0  0  0  0  0  0
   17.9824  -10.4505  -15.2620 C   0  0  0  0  0  0  0  0  0  0  0  0
   16.8214  -10.6368  -15.7125 O   0  0  0  0  0  0  0  0  0  0  0  0
   21.1751   -8.0881  -16.3108 C   0  0  0  0  0  0  0  0  0  0  0  0
   22.0035   -8.9699  -15.9522 O   0  0  0  0  0  0  0  0  0  0  0  0
   18.1731  -10.5744  -13.8997 O   0  0  0  0  0  0  0  0  0  0  0  0
   24.2301   -2.1322  -18.9288 O   0  0  0  0  0  0  0  0  0  0  0  0
   24.0433   -3.2016  -18.0613 C   0  0  0  0  0  0  0  0  0  0  0  0
   23.9859   -2.9577  -16.7073 C   0  0  0  0  0  0  0  0  0  0  0  0
   23.8009   -4.0003  -15.8182 C   0  0  0  0  0  0  0  0  0  0  0  0
   23.6664   -5.3187  -16.2323 C   0  0  0  0  0  0  0  0  0  0  0  0
   23.4768   -6.4398  -15.2784 C   0  0  0  0  0  0  0  0  0  0  0  0
   22.0921   -6.4389  -14.6464 C   0  0  2  0  0  0  0  0  0  0  0  0
   21.1293   -6.8420  -15.6514 N   0  0  0  0  0  0  0  0  0  0  0  0
   21.7025   -5.1134  -14.1214 C   0  0  0  0  0  0  0  0  0  0  0  0
   22.3340   -4.5140  -13.0424 O   0  0  0  0  0  0  0  0  0  0  0  0
   23.7284   -5.5336  -17.6048 C   0  0  0  0  0  0  0  0  0  0  0  0
   23.9125   -4.5017  -18.5014 C   0  0  0  0  0  0  0  0  0  0  0  0
   20.7572   -4.4658  -14.6499 O   0  0  0  0  0  0  0  0  0  0  0  0
  2  1  1  6
  3  2  1  0
  4  3  1  0
  4  8  1  0
  5  4  2  0
  6  7  2  0
  6  2  1  0
  9  6  1  0
 10  9  1  0
 10 11  1  1
 11 12  1  0
 12 13  1  0
 13 17  1  0
 14 13  2  0
 15 10  1  0
 16 15  2  0
 19 18  1  0
 19 20  2  0
 21 20  1  0
 22 21  2  0
 23 22  1  0
 24 23  1  6
 24 25  1  0
 25 15  1  0
 26 27  1  0
 26 24  1  0
 28 29  2  0
 28 22  1  0
 29 19  1  0
 30 26  2  0
M  END
$$$$
