DEY.pdb
     RDKit          3D

 30 30  0  0  1  0  0  0  0  0999 V2000
   25.1686  -19.2053  -16.3262 N   0  0  0  0  0  0  0  0  0  0  0  0
   24.2281  -18.5972  -15.4375 C   0  0  1  0  0  0  0  0  0  0  0  0
   22.8946  -18.4415  -16.1548 C   0  0  0  0  0  0  0  0  0  0  0  0
   23.1374  -17.6840  -17.4105 C   0  0  0  0  0  0  0  0  0  0  0  0
   22.2083  -17.0979  -18.0330 O   0  0  0  0  0  0  0  0  0  0  0  0
   23.9679  -19.4618  -14.2338 C   0  0  0  0  0  0  0  0  0  0  0  0
   23.0846  -19.1498  -13.3958 O   0  0  0  0  0  0  0  0  0  0  0  0
   24.4548  -17.6536  -17.8699 O   0  0  0  0  0  0  0  0  0  0  0  0
   24.7318  -20.6539  -14.0367 N   0  0  0  0  0  0  0  0  0  0  0  0
   24.5344  -21.5425  -12.9197 C   0  0  1  0  0  0  0  0  0  0  0  0
   24.6943  -23.0037  -13.3519 C   0  0  0  0  0  0  0  0  0  0  0  0
   24.3836  -23.0935  -14.8132 C   0  0  0  0  0  0  0  0  0  0  0  0
   24.4198  -24.5059  -15.2870 C   0  0  0  0  0  0  0  0  0  0  0  0
   24.6770  -25.4223  -14.4625 O   0  0  0  0  0  0  0  0  0  0  0  0
   25.5215  -21.3146  -11.8372 C   0  0  0  0  0  0  0  0  0  0  0  0
   26.7436  -21.1114  -12.0770 O   0  0  0  0  0  0  0  0  0  0  0  0
   24.1823  -24.8668  -16.5988 O   0  0  0  0  0  0  0  0  0  0  0  0
   29.5894  -19.0156   -4.5870 O   0  0  0  0  0  0  0  0  0  0  0  0
   28.9190  -19.2810   -5.7749 C   0  0  0  0  0  0  0  0  0  0  0  0
   27.8118  -18.5280   -6.0966 C   0  0  0  0  0  0  0  0  0  0  0  0
   27.1230  -18.7674   -7.2713 C   0  0  0  0  0  0  0  0  0  0  0  0
   27.5011  -19.7567   -8.1692 C   0  0  0  0  0  0  0  0  0  0  0  0
   26.7574  -20.0205   -9.4262 C   0  0  0  0  0  0  0  0  0  0  0  0
   25.9225  -21.2911   -9.3532 C   0  0  2  0  0  0  0  0  0  0  0  0
   25.0486  -21.3322  -10.5083 N   0  0  0  0  0  0  0  0  0  0  0  0
   25.0956  -21.3643   -8.1304 C   0  0  0  0  0  0  0  0  0  0  0  0
   23.7277  -21.1379   -8.1301 O   0  0  0  0  0  0  0  0  0  0  0  0
   28.6224  -20.5000   -7.8174 C   0  0  0  0  0  0  0  0  0  0  0  0
   29.3176  -20.2705   -6.6483 C   0  0  0  0  0  0  0  0  0  0  0  0
   25.6195  -21.6412   -7.0164 O   0  0  0  0  0  0  0  0  0  0  0  0
  2  1  1  6
  3  2  1  0
  4  3  1  0
  4  8  1  0
  5  4  2  0
  6  7  2  0
  6  2  1  0
  9  6  1  0
 10  9  1  0
 10 11  1  6
 11 12  1  0
 12 13  1  0
 13 17  1  0
 14 13  2  0
 15 10  1  0
 16 15  2  0
 19 18  1  0
 19 20  2  0
 21 20  1  0
 22 21  2  0
 23 22  1  0
 24 23  1  1
 24 25  1  0
 25 15  1  0
 26 27  1  0
 26 24  1  0
 28 29  2  0
 28 22  1  0
 29 19  1  0
 30 26  2  0
M  END
$$$$
