DEY.pdb
     RDKit          3D

 30 30  0  0  1  0  0  0  0  0999 V2000
   15.8384  -12.7143  -15.6110 N   0  0  0  0  0  0  0  0  0  0  0  0
   16.0126  -11.4042  -16.1563 C   0  0  1  0  0  0  0  0  0  0  0  0
   14.8309  -10.5351  -15.7502 C   0  0  0  0  0  0  0  0  0  0  0  0
   14.9556   -9.2346  -16.4593 C   0  0  0  0  0  0  0  0  0  0  0  0
   14.9493   -8.1307  -15.8463 O   0  0  0  0  0  0  0  0  0  0  0  0
   17.2437  -10.7368  -15.6057 C   0  0  0  0  0  0  0  0  0  0  0  0
   17.2720  -10.3135  -14.4226 O   0  0  0  0  0  0  0  0  0  0  0  0
   15.0809   -9.2965  -17.8478 O   0  0  0  0  0  0  0  0  0  0  0  0
   18.3979  -10.5802  -16.4345 N   0  0  0  0  0  0  0  0  0  0  0  0
   19.6499  -10.0537  -15.9533 C   0  0  1  0  0  0  0  0  0  0  0  0
   20.8298  -10.7006  -16.6860 C   0  0  0  0  0  0  0  0  0  0  0  0
   22.0953  -10.2023  -16.0614 C   0  0  0  0  0  0  0  0  0  0  0  0
   23.2795  -10.9503  -16.5704 C   0  0  0  0  0  0  0  0  0  0  0  0
   23.1132  -12.0943  -17.0696 O   0  0  0  0  0  0  0  0  0  0  0  0
   19.7687   -8.5925  -16.1741 C   0  0  0  0  0  0  0  0  0  0  0  0
   19.3447   -8.0373  -17.2250 O   0  0  0  0  0  0  0  0  0  0  0  0
   24.5651  -10.4480  -16.5231 O   0  0  0  0  0  0  0  0  0  0  0  0
   21.0554   -0.0599  -14.4423 O   0  0  0  0  0  0  0  0  0  0  0  0
   20.7745   -1.4198  -14.3905 C   0  0  0  0  0  0  0  0  0  0  0  0
   21.6888   -2.2662  -13.8040 C   0  0  0  0  0  0  0  0  0  0  0  0
   21.4386   -3.6244  -13.7368 C   0  0  0  0  0  0  0  0  0  0  0  0
   20.2794   -4.1953  -14.2449 C   0  0  0  0  0  0  0  0  0  0  0  0
   20.0138   -5.6541  -14.1814 C   0  0  0  0  0  0  0  0  0  0  0  0
   20.6952   -6.4199  -15.3065 C   0  0  2  0  0  0  0  0  0  0  0  0
   20.3805   -7.8266  -15.1597 N   0  0  0  0  0  0  0  0  0  0  0  0
   22.1645   -6.2598  -15.3011 C   0  0  0  0  0  0  0  0  0  0  0  0
   22.8217   -5.3018  -16.0577 O   0  0  0  0  0  0  0  0  0  0  0  0
   19.3754   -3.3158  -14.8307 C   0  0  0  0  0  0  0  0  0  0  0  0
   19.6140   -1.9592  -14.9036 C   0  0  0  0  0  0  0  0  0  0  0  0
   22.8895   -7.0091  -14.5904 O   0  0  0  0  0  0  0  0  0  0  0  0
  2  1  1  1
  3  2  1  0
  4  3  1  0
  4  8  1  0
  5  4  2  0
  6  7  2  0
  6  2  1  0
  9  6  1  0
 10  9  1  0
 10 11  1  6
 11 12  1  0
 12 13  1  0
 13 17  1  0
 14 13  2  0
 15 10  1  0
 16 15  2  0
 19 18  1  0
 19 20  2  0
 21 20  1  0
 22 21  2  0
 23 22  1  0
 24 23  1  1
 24 25  1  0
 25 15  1  0
 26 27  1  0
 26 24  1  0
 28 29  2  0
 28 22  1  0
 29 19  1  0
 30 26  2  0
M  END
$$$$
