DEY.pdb
     RDKit          3D

 30 30  0  0  1  0  0  0  0  0999 V2000
   45.5881  -10.9161   -6.2329 N   0  0  0  0  0  0  0  0  0  0  0  0
   44.2383  -10.5300   -6.5034 C   0  0  1  0  0  0  0  0  0  0  0  0
   43.9592   -9.1930   -5.8316 C   0  0  0  0  0  0  0  0  0  0  0  0
   42.5413   -8.8351   -6.0985 C   0  0  0  0  0  0  0  0  0  0  0  0
   41.7378   -9.6367   -6.6518 O   0  0  0  0  0  0  0  0  0  0  0  0
   44.0076  -10.3253   -7.9761 C   0  0  0  0  0  0  0  0  0  0  0  0
   44.6841   -9.4868   -8.6233 O   0  0  0  0  0  0  0  0  0  0  0  0
   42.1406   -7.5580   -5.7034 O   0  0  0  0  0  0  0  0  0  0  0  0
   43.0080  -11.0919   -8.6520 N   0  0  0  0  0  0  0  0  0  0  0  0
   42.6735  -10.9035  -10.0408 C   0  0  1  0  0  0  0  0  0  0  0  0
   42.8242  -12.2145  -10.8194 C   0  0  0  0  0  0  0  0  0  0  0  0
   42.6364  -11.9163  -12.2740 C   0  0  0  0  0  0  0  0  0  0  0  0
   42.6658  -13.1636  -13.0889 C   0  0  0  0  0  0  0  0  0  0  0  0
   43.0224  -14.2421  -12.5456 O   0  0  0  0  0  0  0  0  0  0  0  0
   41.2702  -10.4632  -10.2277 C   0  0  0  0  0  0  0  0  0  0  0  0
   40.2916  -11.1763   -9.8728 O   0  0  0  0  0  0  0  0  0  0  0  0
   42.3174  -13.1988  -14.4249 O   0  0  0  0  0  0  0  0  0  0  0  0
   38.0329  -11.1512   -5.4225 O   0  0  0  0  0  0  0  0  0  0  0  0
   38.3170  -10.3706   -6.5365 C   0  0  0  0  0  0  0  0  0  0  0  0
   39.1448   -9.2798   -6.3910 C   0  0  0  0  0  0  0  0  0  0  0  0
   39.4468   -8.4834   -7.4801 C   0  0  0  0  0  0  0  0  0  0  0  0
   38.9436   -8.7340   -8.7497 C   0  0  0  0  0  0  0  0  0  0  0  0
   39.2599   -7.8747   -9.9177 C   0  0  0  0  0  0  0  0  0  0  0  0
   39.7377   -8.6777  -11.1193 C   0  0  2  0  0  0  0  0  0  0  0  0
   41.0554   -9.2032  -10.8246 N   0  0  0  0  0  0  0  0  0  0  0  0
   39.8148   -7.8700  -12.3546 C   0  0  0  0  0  0  0  0  0  0  0  0
   38.7021   -7.2996  -12.9536 O   0  0  0  0  0  0  0  0  0  0  0  0
   38.1112   -9.8419   -8.8654 C   0  0  0  0  0  0  0  0  0  0  0  0
   37.8028  -10.6437   -7.7862 C   0  0  0  0  0  0  0  0  0  0  0  0
   40.9239   -7.6673  -12.9212 O   0  0  0  0  0  0  0  0  0  0  0  0
  2  1  1  6
  3  2  1  0
  4  3  1  0
  4  8  1  0
  5  4  2  0
  6  7  2  0
  6  2  1  0
  9  6  1  0
 10  9  1  0
 10 11  1  6
 11 12  1  0
 12 13  1  0
 13 17  1  0
 14 13  2  0
 15 10  1  0
 16 15  2  0
 19 18  1  0
 19 20  2  0
 21 20  1  0
 22 21  2  0
 23 22  1  0
 24 23  1  1
 24 25  1  0
 25 15  1  0
 26 27  1  0
 26 24  1  0
 28 29  2  0
 28 22  1  0
 29 19  1  0
 30 26  2  0
M  END
$$$$
