DEY.pdb
     RDKit          3D

 30 30  0  0  1  0  0  0  0  0999 V2000
   18.0811  -13.3839  -16.5893 N   0  0  0  0  0  0  0  0  0  0  0  0
   17.5968  -12.0700  -16.3008 C   0  0  1  0  0  0  0  0  0  0  0  0
   16.6902  -12.1310  -15.0796 C   0  0  0  0  0  0  0  0  0  0  0  0
   15.4901  -12.9300  -15.4414 C   0  0  0  0  0  0  0  0  0  0  0  0
   14.8799  -12.7700  -16.5351 O   0  0  0  0  0  0  0  0  0  0  0  0
   18.7206  -11.1319  -15.9528 C   0  0  0  0  0  0  0  0  0  0  0  0
   19.5375  -11.4161  -15.0409 O   0  0  0  0  0  0  0  0  0  0  0  0
   15.0690  -13.8733  -14.5031 O   0  0  0  0  0  0  0  0  0  0  0  0
   18.8654   -9.9012  -16.6656 N   0  0  0  0  0  0  0  0  0  0  0  0
   19.9818   -9.0090  -16.4818 C   0  0  1  0  0  0  0  0  0  0  0  0
   20.4855   -8.4828  -17.8298 C   0  0  0  0  0  0  0  0  0  0  0  0
   21.6777   -9.2943  -18.2301 C   0  0  0  0  0  0  0  0  0  0  0  0
   22.9047   -8.8385  -17.5178 C   0  0  0  0  0  0  0  0  0  0  0  0
   23.3399   -9.5179  -16.5510 O   0  0  0  0  0  0  0  0  0  0  0  0
   19.6245   -7.8186  -15.6735 C   0  0  0  0  0  0  0  0  0  0  0  0
   18.5642   -7.1651  -15.8762 O   0  0  0  0  0  0  0  0  0  0  0  0
   23.5983   -7.6965  -17.8673 O   0  0  0  0  0  0  0  0  0  0  0  0
   18.3138   -2.7267   -8.7946 O   0  0  0  0  0  0  0  0  0  0  0  0
   18.6082   -3.7230   -9.7174 C   0  0  0  0  0  0  0  0  0  0  0  0
   19.4864   -4.7219   -9.3608 C   0  0  0  0  0  0  0  0  0  0  0  0
   19.7998   -5.7275  -10.2565 C   0  0  0  0  0  0  0  0  0  0  0  0
   19.2590   -5.7836  -11.5341 C   0  0  0  0  0  0  0  0  0  0  0  0
   19.6014   -6.8575  -12.4995 C   0  0  0  0  0  0  0  0  0  0  0  0
   20.2672   -6.3190  -13.7579 C   0  0  2  0  0  0  0  0  0  0  0  0
   20.5187   -7.4293  -14.6543 N   0  0  0  0  0  0  0  0  0  0  0  0
   21.5472   -5.6341  -13.4809 C   0  0  0  0  0  0  0  0  0  0  0  0
   21.6354   -4.2741  -13.2259 O   0  0  0  0  0  0  0  0  0  0  0  0
   18.3757   -4.7619  -11.8651 C   0  0  0  0  0  0  0  0  0  0  0  0
   18.0555   -3.7535  -10.9802 C   0  0  0  0  0  0  0  0  0  0  0  0
   22.6313   -6.2797  -13.4675 O   0  0  0  0  0  0  0  0  0  0  0  0
  2  1  1  1
  3  2  1  0
  4  3  1  0
  4  8  1  0
  5  4  2  0
  6  7  2  0
  6  2  1  0
  9  6  1  0
 10  9  1  0
 10 11  1  6
 11 12  1  0
 12 13  1  0
 13 17  1  0
 14 13  2  0
 15 10  1  0
 16 15  2  0
 19 18  1  0
 19 20  2  0
 21 20  1  0
 22 21  2  0
 23 22  1  0
 24 23  1  1
 24 25  1  0
 25 15  1  0
 26 27  1  0
 26 24  1  0
 28 29  2  0
 28 22  1  0
 29 19  1  0
 30 26  2  0
M  END
$$$$
