DEY.pdb
     RDKit          3D

 30 30  0  0  1  0  0  0  0  0999 V2000
   18.2548  -10.7436  -16.6530 N   0  0  0  0  0  0  0  0  0  0  0  0
   19.6738  -10.6980  -16.4843 C   0  0  1  0  0  0  0  0  0  0  0  0
   20.3229  -11.6633  -17.4660 C   0  0  0  0  0  0  0  0  0  0  0  0
   20.0591  -13.0461  -16.9886 C   0  0  0  0  0  0  0  0  0  0  0  0
   20.8703  -13.6683  -16.2477 O   0  0  0  0  0  0  0  0  0  0  0  0
   20.2233   -9.3332  -16.7998 C   0  0  0  0  0  0  0  0  0  0  0  0
   21.4588   -9.1086  -16.7471 O   0  0  0  0  0  0  0  0  0  0  0  0
   18.8597  -13.6260  -17.4045 O   0  0  0  0  0  0  0  0  0  0  0  0
   19.3331   -8.2759  -17.1649 N   0  0  0  0  0  0  0  0  0  0  0  0
   19.7616   -6.9133  -17.3550 C   0  0  1  0  0  0  0  0  0  0  0  0
   18.7112   -6.1165  -18.1356 C   0  0  0  0  0  0  0  0  0  0  0  0
   18.7861   -6.5299  -19.5721 C   0  0  0  0  0  0  0  0  0  0  0  0
   18.0675   -7.8150  -19.8021 C   0  0  0  0  0  0  0  0  0  0  0  0
   18.6750   -8.7647  -20.3632 O   0  0  0  0  0  0  0  0  0  0  0  0
   19.9599   -6.2006  -16.0703 C   0  0  0  0  0  0  0  0  0  0  0  0
   19.1396   -6.2988  -15.1163 O   0  0  0  0  0  0  0  0  0  0  0  0
   16.7545   -8.0215  -19.4269 O   0  0  0  0  0  0  0  0  0  0  0  0
   27.1324   -5.6171  -17.6507 O   0  0  0  0  0  0  0  0  0  0  0  0
   26.0382   -5.5993  -16.7942 C   0  0  0  0  0  0  0  0  0  0  0  0
   25.7311   -4.4321  -16.1313 C   0  0  0  0  0  0  0  0  0  0  0  0
   24.6489   -4.3820  -15.2723 C   0  0  0  0  0  0  0  0  0  0  0  0
   23.8321   -5.4799  -15.0368 C   0  0  0  0  0  0  0  0  0  0  0  0
   22.6754   -5.4299  -14.1083 C   0  0  0  0  0  0  0  0  0  0  0  0
   21.4735   -4.7181  -14.7128 C   0  0  2  0  0  0  0  0  0  0  0  0
   21.1105   -5.3947  -15.9416 N   0  0  0  0  0  0  0  0  0  0  0  0
   21.7418   -3.2966  -15.0158 C   0  0  0  0  0  0  0  0  0  0  0  0
   22.0181   -2.3556  -14.0359 O   0  0  0  0  0  0  0  0  0  0  0  0
   24.1669   -6.6437  -15.7204 C   0  0  0  0  0  0  0  0  0  0  0  0
   25.2441   -6.7058  -16.5796 C   0  0  0  0  0  0  0  0  0  0  0  0
   21.7274   -2.8800  -16.2068 O   0  0  0  0  0  0  0  0  0  0  0  0
  2  1  1  6
  3  2  1  0
  4  3  1  0
  4  8  1  0
  5  4  2  0
  6  7  2  0
  6  2  1  0
  9  6  1  0
 10  9  1  0
 10 11  1  6
 11 12  1  0
 12 13  1  0
 13 17  1  0
 14 13  2  0
 15 10  1  0
 16 15  2  0
 19 18  1  0
 19 20  2  0
 21 20  1  0
 22 21  2  0
 23 22  1  0
 24 23  1  6
 24 25  1  0
 25 15  1  0
 26 27  1  0
 26 24  1  0
 28 29  2  0
 28 22  1  0
 29 19  1  0
 30 26  2  0
M  END
$$$$
