DEY.pdb
     RDKit          3D

 30 30  0  0  1  0  0  0  0  0999 V2000
   18.4807  -13.9217  -18.4033 N   0  0  0  0  0  0  0  0  0  0  0  0
   18.8512  -13.2452  -17.1994 C   0  0  1  0  0  0  0  0  0  0  0  0
   20.2996  -12.7903  -17.3099 C   0  0  0  0  0  0  0  0  0  0  0  0
   21.1649  -13.9956  -17.2188 C   0  0  0  0  0  0  0  0  0  0  0  0
   20.7406  -15.0958  -16.7676 O   0  0  0  0  0  0  0  0  0  0  0  0
   18.0278  -12.0036  -16.9885 C   0  0  0  0  0  0  0  0  0  0  0  0
   17.9503  -11.1230  -17.8820 O   0  0  0  0  0  0  0  0  0  0  0  0
   22.4803  -13.8476  -17.6608 O   0  0  0  0  0  0  0  0  0  0  0  0
   17.3228  -11.8189  -15.7587 N   0  0  0  0  0  0  0  0  0  0  0  0
   16.4726  -10.6850  -15.4985 C   0  0  1  0  0  0  0  0  0  0  0  0
   15.3949  -11.0380  -14.4682 C   0  0  0  0  0  0  0  0  0  0  0  0
   14.4965  -12.0726  -15.0702 C   0  0  0  0  0  0  0  0  0  0  0  0
   13.4625  -12.5225  -14.0959 C   0  0  0  0  0  0  0  0  0  0  0  0
   13.4205  -11.9878  -12.9566 O   0  0  0  0  0  0  0  0  0  0  0  0
   17.2234   -9.5336  -14.9430 C   0  0  0  0  0  0  0  0  0  0  0  0
   18.0773   -9.6714  -14.0242 O   0  0  0  0  0  0  0  0  0  0  0  0
   12.5364  -13.5066  -14.3810 O   0  0  0  0  0  0  0  0  0  0  0  0
   22.9059   -3.5151  -14.1168 O   0  0  0  0  0  0  0  0  0  0  0  0
   21.8582   -4.2846  -14.6080 C   0  0  0  0  0  0  0  0  0  0  0  0
   20.6937   -3.6567  -14.9900 C   0  0  0  0  0  0  0  0  0  0  0  0
   19.6330   -4.3943  -15.4827 C   0  0  0  0  0  0  0  0  0  0  0  0
   19.6831   -5.7755  -15.6157 C   0  0  0  0  0  0  0  0  0  0  0  0
   18.5421   -6.5693  -16.1360 C   0  0  0  0  0  0  0  0  0  0  0  0
   17.6137   -7.0493  -15.0294 C   0  0  2  0  0  0  0  0  0  0  0  0
   16.9515   -8.2573  -15.4787 N   0  0  0  0  0  0  0  0  0  0  0  0
   16.5853   -6.0504  -14.6705 C   0  0  0  0  0  0  0  0  0  0  0  0
   16.8198   -5.0120  -13.7823 O   0  0  0  0  0  0  0  0  0  0  0  0
   20.8715   -6.3810  -15.2221 C   0  0  0  0  0  0  0  0  0  0  0  0
   21.9362   -5.6558  -14.7292 C   0  0  0  0  0  0  0  0  0  0  0  0
   15.4289   -6.1105  -15.1720 O   0  0  0  0  0  0  0  0  0  0  0  0
  2  1  1  6
  3  2  1  0
  4  3  1  0
  4  8  1  0
  5  4  2  0
  6  7  2  0
  6  2  1  0
  9  6  1  0
 10  9  1  0
 10 11  1  1
 11 12  1  0
 12 13  1  0
 13 17  1  0
 14 13  2  0
 15 10  1  0
 16 15  2  0
 19 18  1  0
 19 20  2  0
 21 20  1  0
 22 21  2  0
 23 22  1  0
 24 23  1  6
 24 25  1  0
 25 15  1  0
 26 27  1  0
 26 24  1  0
 28 29  2  0
 28 22  1  0
 29 19  1  0
 30 26  2  0
M  END
$$$$
