DEY.pdb
     RDKit          3D

 30 30  0  0  1  0  0  0  0  0999 V2000
   18.4259  -14.3989  -15.7904 N   0  0  0  0  0  0  0  0  0  0  0  0
   18.1567  -13.0355  -16.1264 C   0  0  1  0  0  0  0  0  0  0  0  0
   17.1803  -12.4566  -15.1122 C   0  0  0  0  0  0  0  0  0  0  0  0
   15.8681  -13.1270  -15.3077 C   0  0  0  0  0  0  0  0  0  0  0  0
   15.5041  -13.5795  -16.4288 O   0  0  0  0  0  0  0  0  0  0  0  0
   19.4010  -12.1928  -16.0515 C   0  0  0  0  0  0  0  0  0  0  0  0
   20.1111  -12.1839  -15.0145 O   0  0  0  0  0  0  0  0  0  0  0  0
   15.0526  -13.2314  -14.1799 O   0  0  0  0  0  0  0  0  0  0  0  0
   19.7846  -11.3910  -17.1711 N   0  0  0  0  0  0  0  0  0  0  0  0
   20.9993  -10.6168  -17.2086 C   0  0  1  0  0  0  0  0  0  0  0  0
   21.6611  -10.7092  -18.5875 C   0  0  0  0  0  0  0  0  0  0  0  0
   22.2354  -12.0831  -18.7371 C   0  0  0  0  0  0  0  0  0  0  0  0
   22.9605  -12.2271  -20.0310 C   0  0  0  0  0  0  0  0  0  0  0  0
   22.3166  -12.1273  -21.1085 O   0  0  0  0  0  0  0  0  0  0  0  0
   20.7574   -9.1763  -16.9547 C   0  0  0  0  0  0  0  0  0  0  0  0
   19.6961   -8.6006  -17.3214 O   0  0  0  0  0  0  0  0  0  0  0  0
   24.3183  -12.4666  -20.1109 O   0  0  0  0  0  0  0  0  0  0  0  0
   22.8569   -1.0709  -13.9229 O   0  0  0  0  0  0  0  0  0  0  0  0
   22.7696   -2.4417  -14.1339 C   0  0  0  0  0  0  0  0  0  0  0  0
   23.6710   -3.0428  -14.9837 C   0  0  0  0  0  0  0  0  0  0  0  0
   23.6106   -4.4047  -15.2145 C   0  0  0  0  0  0  0  0  0  0  0  0
   22.6601   -5.2210  -14.6162 C   0  0  0  0  0  0  0  0  0  0  0  0
   22.5885   -6.6816  -14.8700 C   0  0  0  0  0  0  0  0  0  0  0  0
   21.7045   -7.0232  -16.0611 C   0  0  2  0  0  0  0  0  0  0  0  0
   21.7645   -8.4542  -16.2808 N   0  0  0  0  0  0  0  0  0  0  0  0
   22.1220   -6.3354  -17.3008 C   0  0  0  0  0  0  0  0  0  0  0  0
   23.1569   -6.7899  -18.1037 O   0  0  0  0  0  0  0  0  0  0  0  0
   21.7640   -4.5858  -13.7634 C   0  0  0  0  0  0  0  0  0  0  0  0
   21.8144   -3.2281  -13.5255 C   0  0  0  0  0  0  0  0  0  0  0  0
   21.5368   -5.2837  -17.6801 O   0  0  0  0  0  0  0  0  0  0  0  0
  2  1  1  1
  3  2  1  0
  4  3  1  0
  4  8  1  0
  5  4  2  0
  6  7  2  0
  6  2  1  0
  9  6  1  0
 10  9  1  0
 10 11  1  6
 11 12  1  0
 12 13  1  0
 13 17  1  0
 14 13  2  0
 15 10  1  0
 16 15  2  0
 19 18  1  0
 19 20  2  0
 21 20  1  0
 22 21  2  0
 23 22  1  0
 24 23  1  1
 24 25  1  0
 25 15  1  0
 26 27  1  0
 26 24  1  0
 28 29  2  0
 28 22  1  0
 29 19  1  0
 30 26  2  0
M  END
$$$$
