DEY.pdb
     RDKit          3D

 30 30  0  0  1  0  0  0  0  0999 V2000
   17.1983  -12.3209  -15.4729 N   0  0  0  0  0  0  0  0  0  0  0  0
   18.1136  -11.2910  -15.8548 C   0  0  1  0  0  0  0  0  0  0  0  0
   18.0701  -11.1224  -17.3669 C   0  0  0  0  0  0  0  0  0  0  0  0
   18.5959  -12.3699  -17.9808 C   0  0  0  0  0  0  0  0  0  0  0  0
   19.7431  -12.8217  -17.7089 O   0  0  0  0  0  0  0  0  0  0  0  0
   17.7262   -9.9621  -15.2649 C   0  0  0  0  0  0  0  0  0  0  0  0
   18.3745   -8.9214  -15.5413 O   0  0  0  0  0  0  0  0  0  0  0  0
   17.7504  -13.0211  -18.8800 O   0  0  0  0  0  0  0  0  0  0  0  0
   16.6074   -9.8770  -14.3790 N   0  0  0  0  0  0  0  0  0  0  0  0
   16.2102   -8.6567  -13.7238 C   0  0  1  0  0  0  0  0  0  0  0  0
   14.6862   -8.5865  -13.5818 C   0  0  0  0  0  0  0  0  0  0  0  0
   14.1112   -8.2154  -14.9128 C   0  0  0  0  0  0  0  0  0  0  0  0
   12.6219   -8.1888  -14.8689 C   0  0  0  0  0  0  0  0  0  0  0  0
   11.9884   -9.2765  -14.9037 O   0  0  0  0  0  0  0  0  0  0  0  0
   16.7651   -8.5465  -12.3534 C   0  0  0  0  0  0  0  0  0  0  0  0
   16.7348   -9.5100  -11.5392 O   0  0  0  0  0  0  0  0  0  0  0  0
   11.8914   -7.0193  -14.7905 O   0  0  0  0  0  0  0  0  0  0  0  0
   22.5188   -5.3102  -14.9715 O   0  0  0  0  0  0  0  0  0  0  0  0
   21.7565   -5.9170  -13.9807 C   0  0  0  0  0  0  0  0  0  0  0  0
   21.5951   -5.2703  -12.7757 C   0  0  0  0  0  0  0  0  0  0  0  0
   20.8425   -5.8477  -11.7698 C   0  0  0  0  0  0  0  0  0  0  0  0
   20.2231   -7.0817  -11.9163 C   0  0  0  0  0  0  0  0  0  0  0  0
   19.4223   -7.7066  -10.8342 C   0  0  0  0  0  0  0  0  0  0  0  0
   18.0278   -7.1070  -10.7210 C   0  0  2  0  0  0  0  0  0  0  0  0
   17.3371   -7.3129  -11.9780 N   0  0  0  0  0  0  0  0  0  0  0  0
   18.0487   -5.6596  -10.4231 C   0  0  0  0  0  0  0  0  0  0  0  0
   18.5630   -5.1391   -9.2454 O   0  0  0  0  0  0  0  0  0  0  0  0
   20.4038   -7.7101  -13.1436 C   0  0  0  0  0  0  0  0  0  0  0  0
   21.1524   -7.1441  -14.1545 C   0  0  0  0  0  0  0  0  0  0  0  0
   17.5866   -4.8268  -11.2509 O   0  0  0  0  0  0  0  0  0  0  0  0
  2  1  1  6
  3  2  1  0
  4  3  1  0
  4  8  1  0
  5  4  2  0
  6  7  2  0
  6  2  1  0
  9  6  1  0
 10  9  1  0
 10 11  1  1
 11 12  1  0
 12 13  1  0
 13 17  1  0
 14 13  2  0
 15 10  1  0
 16 15  2  0
 19 18  1  0
 19 20  2  0
 21 20  1  0
 22 21  2  0
 23 22  1  0
 24 23  1  6
 24 25  1  0
 25 15  1  0
 26 27  1  0
 26 24  1  0
 28 29  2  0
 28 22  1  0
 29 19  1  0
 30 26  2  0
M  END
$$$$
