SLA.pdb
     RDKit          3D

 20 19  0  0  1  0  0  0  0  0999 V2000
   18.1569   -9.4027  -18.2100 O   0  0  0  0  0  0  0  0  0  0  0  0
   19.0229  -10.4533  -18.5592 C   0  0  0  0  0  0  0  0  0  0  0  0
   19.1110  -11.4753  -17.4673 C   0  0  2  0  0  0  0  0  0  0  0  0
   17.8056  -11.9909  -17.1252 N   0  0  0  0  0  0  0  0  0  0  0  0
   19.7514  -10.8137  -16.2802 C   0  0  0  0  0  0  0  0  0  0  0  0
   19.1655  -10.7554  -15.1713 O   0  0  0  0  0  0  0  0  0  0  0  0
   22.8714  -11.9390  -13.6812 C   0  0  0  0  0  0  0  0  0  0  0  0
   23.3667  -11.4583  -15.0417 C   0  0  2  0  0  0  0  0  0  0  0  0
   24.8364  -11.7350  -15.1747 C   0  0  0  0  0  0  0  0  0  0  0  0
   23.1315   -9.9860  -15.1947 C   0  0  0  0  0  0  0  0  0  0  0  0
   21.6852   -9.6073  -15.1943 C   0  0  2  0  0  0  0  0  0  0  0  0
   21.0370  -10.2298  -16.3586 N   0  0  0  0  0  0  0  0  0  0  0  0
   21.4578   -8.1513  -15.2035 C   0  0  0  0  0  0  0  0  0  0  0  0
   21.8626   -7.3837  -14.3025 O   0  0  0  0  0  0  0  0  0  0  0  0
   20.0846   -5.7388  -17.7795 C   0  0  0  0  0  0  0  0  0  0  0  0
   20.5338   -6.1191  -16.3729 C   0  0  2  0  0  0  0  0  0  0  0  0
   20.7391   -7.5552  -16.2869 N   0  0  0  0  0  0  0  0  0  0  0  0
   19.5044   -5.6581  -15.4142 C   0  0  0  0  0  0  0  0  0  0  0  0
   19.3126   -4.3053  -15.1999 O   0  0  0  0  0  0  0  0  0  0  0  0
   18.7794   -6.4612  -14.7708 O   0  0  0  0  0  0  0  0  0  0  0  0
  2  1  1  0
  3  2  1  0
  3  4  1  1
  5  3  1  0
  5  6  2  0
  8  7  1  1
  8 10  1  0
  9  8  1  0
 11 10  1  6
 11 13  1  0
 11 12  1  0
 12  5  1  0
 13 17  1  0
 14 13  2  0
 16 15  1  6
 16 18  1  0
 17 16  1  0
 18 20  2  0
 18 19  1  0
M  END
$$$$
