SLA.pdb
     RDKit          3D

 20 19  0  0  1  0  0  0  0  0999 V2000
   16.6434   -9.8046  -18.8263 O   0  0  0  0  0  0  0  0  0  0  0  0
   17.3498   -9.3430  -17.7024 C   0  0  0  0  0  0  0  0  0  0  0  0
   18.1215  -10.4487  -17.0493 C   0  0  2  0  0  0  0  0  0  0  0  0
   17.2409  -11.3810  -16.3844 N   0  0  0  0  0  0  0  0  0  0  0  0
   19.0706   -9.8193  -16.0694 C   0  0  0  0  0  0  0  0  0  0  0  0
   18.7160   -9.5585  -14.8936 O   0  0  0  0  0  0  0  0  0  0  0  0
   22.5094  -11.1954  -13.8590 C   0  0  0  0  0  0  0  0  0  0  0  0
   22.7661  -10.9934  -15.3492 C   0  0  2  0  0  0  0  0  0  0  0  0
   24.1270  -11.5174  -15.7065 C   0  0  0  0  0  0  0  0  0  0  0  0
   22.6960   -9.5381  -15.7005 C   0  0  0  0  0  0  0  0  0  0  0  0
   21.3526   -8.9279  -15.4593 C   0  0  2  0  0  0  0  0  0  0  0  0
   20.3998   -9.4941  -16.4263 N   0  0  0  0  0  0  0  0  0  0  0  0
   21.3503   -7.4566  -15.5447 C   0  0  0  0  0  0  0  0  0  0  0  0
   21.7909   -6.8216  -16.5283 O   0  0  0  0  0  0  0  0  0  0  0  0
   19.5343   -4.7425  -13.7430 C   0  0  0  0  0  0  0  0  0  0  0  0
   20.7546   -5.2361  -14.5127 C   0  0  2  0  0  0  0  0  0  0  0  0
   20.8229   -6.6867  -14.4608 N   0  0  0  0  0  0  0  0  0  0  0  0
   21.9610   -4.6130  -13.9229 C   0  0  0  0  0  0  0  0  0  0  0  0
   22.8581   -5.3823  -13.2046 O   0  0  0  0  0  0  0  0  0  0  0  0
   22.2120   -3.3860  -14.0492 O   0  0  0  0  0  0  0  0  0  0  0  0
  2  1  1  0
  3  2  1  0
  3  4  1  1
  5  3  1  0
  5  6  2  0
  8  7  1  1
  8 10  1  0
  9  8  1  0
 11 10  1  6
 11 13  1  0
 11 12  1  0
 12  5  1  0
 13 17  1  0
 14 13  2  0
 16 15  1  1
 16 18  1  0
 17 16  1  0
 18 20  2  0
 18 19  1  0
M  END
$$$$
