SLA.pdb
     RDKit          3D

 20 19  0  0  1  0  0  0  0  0999 V2000
   17.5624   -7.4048  -19.0538 O   0  0  0  0  0  0  0  0  0  0  0  0
   18.1642   -8.6147  -19.4403 C   0  0  0  0  0  0  0  0  0  0  0  0
   17.9846   -9.6732  -18.3954 C   0  0  2  0  0  0  0  0  0  0  0  0
   16.5900   -9.8511  -18.0636 N   0  0  0  0  0  0  0  0  0  0  0  0
   18.7714   -9.2526  -17.1866 C   0  0  0  0  0  0  0  0  0  0  0  0
   18.2001   -8.9380  -16.1138 O   0  0  0  0  0  0  0  0  0  0  0  0
   24.1735  -10.5216  -14.7655 C   0  0  0  0  0  0  0  0  0  0  0  0
   22.8167   -9.8318  -14.6628 C   0  0  2  0  0  0  0  0  0  0  0  0
   21.8646  -10.6951  -13.8866 C   0  0  0  0  0  0  0  0  0  0  0  0
   22.2495   -9.5852  -16.0280 C   0  0  0  0  0  0  0  0  0  0  0  0
   20.9650   -8.8204  -16.0137 C   0  0  2  0  0  0  0  0  0  0  0  0
   20.1842   -9.1926  -17.2034 N   0  0  0  0  0  0  0  0  0  0  0  0
   21.1503   -7.3592  -15.9635 C   0  0  0  0  0  0  0  0  0  0  0  0
   21.7827   -6.7135  -16.8284 O   0  0  0  0  0  0  0  0  0  0  0  0
   19.5542   -4.5518  -14.0816 C   0  0  0  0  0  0  0  0  0  0  0  0
   20.7650   -5.1744  -14.7682 C   0  0  2  0  0  0  0  0  0  0  0  0
   20.5890   -6.6125  -14.8805 N   0  0  0  0  0  0  0  0  0  0  0  0
   21.9726   -4.8335  -13.9828 C   0  0  0  0  0  0  0  0  0  0  0  0
   22.5866   -5.7959  -13.2022 O   0  0  0  0  0  0  0  0  0  0  0  0
   22.4767   -3.6801  -13.9945 O   0  0  0  0  0  0  0  0  0  0  0  0
  2  1  1  0
  3  2  1  0
  3  4  1  1
  5  3  1  0
  5  6  2  0
  8  7  1  6
  8 10  1  0
  9  8  1  0
 11 10  1  6
 11 13  1  0
 11 12  1  0
 12  5  1  0
 13 17  1  0
 14 13  2  0
 16 15  1  1
 16 18  1  0
 17 16  1  0
 18 20  2  0
 18 19  1  0
M  END
$$$$
