SLA.pdb
     RDKit          3D

 20 19  0  0  1  0  0  0  0  0999 V2000
   20.9302   -6.9015  -21.1099 O   0  0  0  0  0  0  0  0  0  0  0  0
   22.1470   -7.5999  -21.1944 C   0  0  0  0  0  0  0  0  0  0  0  0
   21.9859   -9.0313  -20.7825 C   0  0  2  0  0  0  0  0  0  0  0  0
   20.9898   -9.6996  -21.5876 N   0  0  0  0  0  0  0  0  0  0  0  0
   21.5950   -9.0425  -19.3319 C   0  0  0  0  0  0  0  0  0  0  0  0
   20.4215   -9.3104  -18.9749 O   0  0  0  0  0  0  0  0  0  0  0  0
   23.6655  -10.6827  -13.9648 C   0  0  0  0  0  0  0  0  0  0  0  0
   22.7251   -9.7061  -14.6643 C   0  0  2  0  0  0  0  0  0  0  0  0
   21.2994  -10.1031  -14.4113 C   0  0  0  0  0  0  0  0  0  0  0  0
   22.9761   -9.7040  -16.1419 C   0  0  0  0  0  0  0  0  0  0  0  0
   22.1430   -8.7130  -16.8895 C   0  0  2  0  0  0  0  0  0  0  0  0
   22.5273   -8.7530  -18.3088 N   0  0  0  0  0  0  0  0  0  0  0  0
   22.2560   -7.3383  -16.3705 C   0  0  0  0  0  0  0  0  0  0  0  0
   23.3231   -6.6856  -16.3716 O   0  0  0  0  0  0  0  0  0  0  0  0
   19.7514   -4.8142  -15.0461 C   0  0  0  0  0  0  0  0  0  0  0  0
   21.1609   -5.3417  -15.2912 C   0  0  2  0  0  0  0  0  0  0  0  0
   21.1012   -6.6898  -15.8305 N   0  0  0  0  0  0  0  0  0  0  0  0
   21.9034   -5.2998  -14.0113 C   0  0  0  0  0  0  0  0  0  0  0  0
   22.7183   -4.2217  -13.7173 O   0  0  0  0  0  0  0  0  0  0  0  0
   21.8240   -6.2230  -13.1593 O   0  0  0  0  0  0  0  0  0  0  0  0
  2  1  1  0
  3  2  1  0
  3  4  1  6
  5  3  1  0
  5  6  2  0
  8  7  1  1
  8 10  1  0
  9  8  1  0
 11 10  1  1
 11 13  1  0
 11 12  1  0
 12  5  1  0
 13 17  1  0
 14 13  2  0
 16 15  1  1
 16 18  1  0
 17 16  1  0
 18 20  2  0
 18 19  1  0
M  END
$$$$
