SLA.pdb
     RDKit          3D

 20 19  0  0  1  0  0  0  0  0999 V2000
   18.2575  -11.3123  -13.8541 O   0  0  0  0  0  0  0  0  0  0  0  0
   17.4455  -10.2185  -13.5082 C   0  0  0  0  0  0  0  0  0  0  0  0
   16.7688  -10.4351  -12.1892 C   0  0  2  0  0  0  0  0  0  0  0  0
   15.8801  -11.5730  -12.2365 N   0  0  0  0  0  0  0  0  0  0  0  0
   16.0120   -9.1801  -11.8585 C   0  0  0  0  0  0  0  0  0  0  0  0
   14.9355   -8.8958  -12.4387 O   0  0  0  0  0  0  0  0  0  0  0  0
   13.3787   -6.9969   -8.7374 C   0  0  0  0  0  0  0  0  0  0  0  0
   14.7582   -7.4976   -8.3208 C   0  0  2  0  0  0  0  0  0  0  0  0
   14.9688   -7.2477   -6.8553 C   0  0  0  0  0  0  0  0  0  0  0  0
   15.8285   -6.7895   -9.0952 C   0  0  0  0  0  0  0  0  0  0  0  0
   15.7554   -7.0242  -10.5699 C   0  0  2  0  0  0  0  0  0  0  0  0
   16.4764   -8.2674  -10.8833 N   0  0  0  0  0  0  0  0  0  0  0  0
   16.2915   -5.9094  -11.3709 C   0  0  0  0  0  0  0  0  0  0  0  0
   17.4874   -5.5443  -11.3321 O   0  0  0  0  0  0  0  0  0  0  0  0
   14.8777   -3.7930  -14.1752 C   0  0  0  0  0  0  0  0  0  0  0  0
   15.9110   -4.1180  -13.1019 C   0  0  2  0  0  0  0  0  0  0  0  0
   15.4225   -5.1875  -12.2480 N   0  0  0  0  0  0  0  0  0  0  0  0
   16.1832   -2.8853  -12.3287 C   0  0  0  0  0  0  0  0  0  0  0  0
   17.0063   -1.9054  -12.8531 O   0  0  0  0  0  0  0  0  0  0  0  0
   15.6874   -2.6852  -11.1891 O   0  0  0  0  0  0  0  0  0  0  0  0
  2  1  1  0
  3  2  1  0
  3  4  1  6
  5  3  1  0
  5  6  2  0
  8  7  1  6
  8 10  1  0
  9  8  1  0
 11 10  1  1
 11 13  1  0
 11 12  1  0
 12  5  1  0
 13 17  1  0
 14 13  2  0
 16 15  1  6
 16 18  1  0
 17 16  1  0
 18 20  2  0
 18 19  1  0
M  END
$$$$
