SLA.pdb
     RDKit          3D

 20 19  0  0  1  0  0  0  0  0999 V2000
   25.8159  -17.8739  -16.9990 O   0  0  0  0  0  0  0  0  0  0  0  0
   26.4612  -17.6228  -15.7758 C   0  0  0  0  0  0  0  0  0  0  0  0
   27.2004  -18.8316  -15.2891 C   0  0  2  0  0  0  0  0  0  0  0  0
   27.9897  -19.4236  -16.3443 N   0  0  0  0  0  0  0  0  0  0  0  0
   26.1807  -19.8073  -14.7738 C   0  0  0  0  0  0  0  0  0  0  0  0
   26.0075  -20.9217  -15.3255 O   0  0  0  0  0  0  0  0  0  0  0  0
   26.0818  -22.2335  -11.2624 C   0  0  0  0  0  0  0  0  0  0  0  0
   25.7737  -20.7625  -11.0002 C   0  0  2  0  0  0  0  0  0  0  0  0
   25.7258  -20.5086   -9.5212 C   0  0  0  0  0  0  0  0  0  0  0  0
   24.4532  -20.3883  -11.6026 C   0  0  0  0  0  0  0  0  0  0  0  0
   24.4245  -20.4911  -13.0938 C   0  0  2  0  0  0  0  0  0  0  0  0
   25.3743  -19.5150  -13.6496 N   0  0  0  0  0  0  0  0  0  0  0  0
   23.0851  -20.2840  -13.6726 C   0  0  0  0  0  0  0  0  0  0  0  0
   22.4781  -19.1909  -13.6342 O   0  0  0  0  0  0  0  0  0  0  0  0
   20.8635  -22.2848  -15.9632 C   0  0  0  0  0  0  0  0  0  0  0  0
   21.0892  -21.2278  -14.8875 C   0  0  2  0  0  0  0  0  0  0  0  0
   22.4187  -21.3720  -14.3188 N   0  0  0  0  0  0  0  0  0  0  0  0
   20.0371  -21.3792  -13.8573 C   0  0  0  0  0  0  0  0  0  0  0  0
   18.7298  -21.0314  -14.1448 O   0  0  0  0  0  0  0  0  0  0  0  0
   20.2854  -21.8206  -12.7049 O   0  0  0  0  0  0  0  0  0  0  0  0
  2  1  1  0
  3  2  1  0
  3  4  1  6
  5  3  1  0
  5  6  2  0
  8  7  1  1
  8 10  1  0
  9  8  1  0
 11 10  1  1
 11 13  1  0
 11 12  1  0
 12  5  1  0
 13 17  1  0
 14 13  2  0
 16 15  1  6
 16 18  1  0
 17 16  1  0
 18 20  2  0
 18 19  1  0
M  END
$$$$
