SLA.pdb
     RDKit          3D

 20 19  0  0  1  0  0  0  0  0999 V2000
   18.6036  -12.9614  -20.2551 O   0  0  0  0  0  0  0  0  0  0  0  0
   18.4728  -12.0623  -19.1828 C   0  0  0  0  0  0  0  0  0  0  0  0
   19.3939  -12.4172  -18.0558 C   0  0  2  0  0  0  0  0  0  0  0  0
   18.9499  -13.6094  -17.3714 N   0  0  0  0  0  0  0  0  0  0  0  0
   19.4310  -11.2451  -17.1167 C   0  0  0  0  0  0  0  0  0  0  0  0
   18.4792  -11.0068  -16.3334 O   0  0  0  0  0  0  0  0  0  0  0  0
   21.2123   -9.9067  -13.2164 C   0  0  0  0  0  0  0  0  0  0  0  0
   22.1270  -10.2548  -14.3866 C   0  0  2  0  0  0  0  0  0  0  0  0
   23.5574  -10.2602  -13.9301 C   0  0  0  0  0  0  0  0  0  0  0  0
   21.9709   -9.2525  -15.4900 C   0  0  0  0  0  0  0  0  0  0  0  0
   20.6109   -9.2525  -16.1110 C   0  0  2  0  0  0  0  0  0  0  0  0
   20.5347  -10.3621  -17.0735 N   0  0  0  0  0  0  0  0  0  0  0  0
   20.2653   -7.9813  -16.7717 C   0  0  0  0  0  0  0  0  0  0  0  0
   20.8701   -7.5368  -17.7724 O   0  0  0  0  0  0  0  0  0  0  0  0
   17.4697   -5.4584  -16.3351 C   0  0  0  0  0  0  0  0  0  0  0  0
   18.8314   -5.9104  -16.8511 C   0  0  2  0  0  0  0  0  0  0  0  0
   19.1859   -7.1918  -16.2644 N   0  0  0  0  0  0  0  0  0  0  0  0
   19.8261   -4.8657  -16.5186 C   0  0  0  0  0  0  0  0  0  0  0  0
   19.9395   -3.7386  -17.3119 O   0  0  0  0  0  0  0  0  0  0  0  0
   20.5906   -4.9601  -15.5230 O   0  0  0  0  0  0  0  0  0  0  0  0
  2  1  1  0
  3  2  1  0
  3  4  1  1
  5  3  1  0
  5  6  2  0
  8  7  1  1
  8 10  1  0
  9  8  1  0
 11 10  1  6
 11 13  1  0
 11 12  1  0
 12  5  1  0
 13 17  1  0
 14 13  2  0
 16 15  1  1
 16 18  1  0
 17 16  1  0
 18 20  2  0
 18 19  1  0
M  END
$$$$
