SLA.pdb
     RDKit          3D

 20 19  0  0  1  0  0  0  0  0999 V2000
   28.5155  -25.5935  -18.6934 O   0  0  0  0  0  0  0  0  0  0  0  0
   27.2752  -26.2458  -18.5862 C   0  0  0  0  0  0  0  0  0  0  0  0
   27.0429  -26.7545  -17.1963 C   0  0  2  0  0  0  0  0  0  0  0  0
   27.1147  -25.6850  -16.2278 N   0  0  0  0  0  0  0  0  0  0  0  0
   28.0867  -27.7983  -16.9171 C   0  0  0  0  0  0  0  0  0  0  0  0
   28.9984  -27.6005  -16.0769 O   0  0  0  0  0  0  0  0  0  0  0  0
   27.4374  -31.6597  -15.0019 C   0  0  0  0  0  0  0  0  0  0  0  0
   27.1170  -31.4396  -16.4771 C   0  0  2  0  0  0  0  0  0  0  0  0
   26.2331  -32.5459  -16.9762 C   0  0  0  0  0  0  0  0  0  0  0  0
   28.3766  -31.4175  -17.2892 C   0  0  0  0  0  0  0  0  0  0  0  0
   29.0725  -30.0943  -17.2790 C   0  0  2  0  0  0  0  0  0  0  0  0
   28.0888  -29.0446  -17.5854 N   0  0  0  0  0  0  0  0  0  0  0  0
   30.2065  -30.0182  -18.2172 C   0  0  0  0  0  0  0  0  0  0  0  0
   30.1116  -29.5658  -19.3795 O   0  0  0  0  0  0  0  0  0  0  0  0
   33.9006  -30.8730  -17.9476 C   0  0  0  0  0  0  0  0  0  0  0  0
   32.6436  -30.4441  -18.6967 C   0  0  2  0  0  0  0  0  0  0  0  0
   31.4965  -30.4789  -17.8053 N   0  0  0  0  0  0  0  0  0  0  0  0
   32.4604  -31.3473  -19.8551 C   0  0  0  0  0  0  0  0  0  0  0  0
   33.0183  -31.0268  -21.0794 O   0  0  0  0  0  0  0  0  0  0  0  0
   31.8043  -32.4184  -19.7732 O   0  0  0  0  0  0  0  0  0  0  0  0
  2  1  1  0
  3  2  1  0
  3  4  1  1
  5  3  1  0
  5  6  2  0
  8  7  1  1
  8 10  1  0
  9  8  1  0
 11 10  1  6
 11 13  1  0
 11 12  1  0
 12  5  1  0
 13 17  1  0
 14 13  2  0
 16 15  1  1
 16 18  1  0
 17 16  1  0
 18 20  2  0
 18 19  1  0
M  END
$$$$
