SLA.pdb
     RDKit          3D

 20 19  0  0  1  0  0  0  0  0999 V2000
   25.2749  -39.8550   -7.5053 O   0  0  0  0  0  0  0  0  0  0  0  0
   24.6415  -38.7045   -8.0056 C   0  0  0  0  0  0  0  0  0  0  0  0
   25.5222  -37.9709   -8.9704 C   0  0  2  0  0  0  0  0  0  0  0  0
   26.4321  -38.8720   -9.6390 N   0  0  0  0  0  0  0  0  0  0  0  0
   26.2769  -36.9309   -8.1919 C   0  0  0  0  0  0  0  0  0  0  0  0
   27.5226  -36.9982   -8.0511 O   0  0  0  0  0  0  0  0  0  0  0  0
   26.7642  -32.8285   -8.9825 C   0  0  0  0  0  0  0  0  0  0  0  0
   25.4112  -33.0244   -8.3056 C   0  0  2  0  0  0  0  0  0  0  0  0
   24.6686  -31.7201   -8.2660 C   0  0  0  0  0  0  0  0  0  0  0  0
   25.5938  -33.5247   -6.9046 C   0  0  0  0  0  0  0  0  0  0  0  0
   26.3505  -34.8115   -6.8220 C   0  0  2  0  0  0  0  0  0  0  0  0
   25.6205  -35.8348   -7.5858 N   0  0  0  0  0  0  0  0  0  0  0  0
   26.5778  -35.2733   -5.4410 C   0  0  0  0  0  0  0  0  0  0  0  0
   25.6743  -35.7373   -4.7109 O   0  0  0  0  0  0  0  0  0  0  0  0
   29.7300  -35.8224   -3.4005 C   0  0  0  0  0  0  0  0  0  0  0  0
   28.2204  -35.8375   -3.6151 C   0  0  2  0  0  0  0  0  0  0  0  0
   27.8906  -35.1993   -4.8783 N   0  0  0  0  0  0  0  0  0  0  0  0
   27.5803  -35.1470   -2.4728 C   0  0  0  0  0  0  0  0  0  0  0  0
   26.8800  -33.9720   -2.6769 O   0  0  0  0  0  0  0  0  0  0  0  0
   27.6468  -35.5921   -1.2973 O   0  0  0  0  0  0  0  0  0  0  0  0
  2  1  1  0
  3  2  1  0
  3  4  1  1
  5  3  1  0
  5  6  2  0
  8  7  1  1
  8 10  1  0
  9  8  1  0
 11 10  1  1
 11 13  1  0
 11 12  1  0
 12  5  1  0
 13 17  1  0
 14 13  2  0
 16 15  1  1
 16 18  1  0
 17 16  1  0
 18 20  2  0
 18 19  1  0
M  END
$$$$
