RKQ.pdb
     RDKit          3D

 30 29  0  0  1  0  0  0  0  0999 V2000
    6.7357  -13.6391   16.5680 N   0  0  0  0  0  0  0  0  0  0  0  0
    7.4790  -13.5959   17.8041 C   0  0  0  0  0  0  0  0  0  0  0  0
    6.8718  -13.4209   18.9397 N   0  0  0  0  0  0  0  0  0  0  0  0
    8.8930  -13.7431   17.8146 N   0  0  0  0  0  0  0  0  0  0  0  0
    9.6196  -13.8013   19.0747 C   0  0  0  0  0  0  0  0  0  0  0  0
    9.8848  -15.2228   19.4955 C   0  0  0  0  0  0  0  0  0  0  0  0
   10.6246  -15.3425   20.7766 C   0  0  0  0  0  0  0  0  0  0  0  0
   10.8794  -16.7439   21.2517 C   0  0  2  0  0  0  0  0  0  0  0  0
   10.3763  -17.6939   20.2658 N   0  0  0  0  0  0  0  0  0  0  0  0
   10.2171  -17.0289   22.5431 C   0  0  0  0  0  0  0  0  0  0  0  0
   10.0680  -16.1206   23.4042 O   0  0  0  0  0  0  0  0  0  0  0  0
    7.4338  -13.4445   19.7943 N   0  0  0  0  0  0  0  0  0  0  0  0
    9.7503  -18.3393   22.8022 C   0  0  1  0  0  0  0  0  0  0  0  0
    9.1005  -18.6403   24.0749 C   0  0  0  0  0  0  0  0  0  0  0  0
    8.7641  -20.0985   24.1127 C   0  0  0  0  0  0  0  0  0  0  0  0
    7.4136  -20.3572   24.7032 C   0  0  0  0  0  0  0  0  0  0  0  0
    7.1118  -21.8521   24.7334 C   0  0  0  0  0  0  0  0  0  0  0  0
    5.7792  -22.0537   25.4348 N   0  0  0  0  0  0  0  0  0  0  0  0
    5.3962  -23.4372   25.4288 C   0  0  0  0  0  0  0  0  0  0  0  0
   10.0818  -18.3265   25.1636 O   0  0  0  0  0  0  0  0  0  0  0  0
   11.3145  -18.6157   25.0655 N   0  0  0  0  0  0  0  0  0  0  0  0
   10.7098  -13.2467   28.3831 C   0  0  0  0  0  0  0  0  0  0  0  0
    9.4602  -13.8644   28.1308 O   0  0  0  0  0  0  0  0  0  0  0  0
    8.4273  -13.1651   28.1023 C   0  0  0  0  0  0  0  0  0  0  0  0
    9.3910  -15.3199   27.9074 C   0  0  0  0  0  0  0  0  0  0  0  0
   10.7133  -15.9604   27.6873 C   0  0  1  0  0  0  0  0  0  0  0  0
   10.6096  -17.4337   27.4380 N   0  0  0  0  0  0  0  0  0  0  0  0
    9.6578  -17.6899   26.3491 C   0  0  0  0  0  0  0  0  0  0  0  0
   10.2224  -18.2059   28.6404 O   0  0  0  0  0  0  0  0  0  0  0  0
    9.1678  -18.8618   28.7627 O   0  0  0  0  0  0  0  0  0  0  0  0
  2  3  2  0
  2  1  1  0
  4  2  1  0
  5  4  1  0
  6  5  1  0
  7  6  1  0
  8  9  1  6
  8  7  1  0
 10  8  1  0
 11 10  2  0
 12 10  1  0
 13 19  1  0
 13 12  1  0
 13 14  1  1
 15 14  1  0
 16 15  1  0
 17 16  1  0
 18 17  1  0
 19 20  2  0
 22 21  1  0
 22 24  1  0
 23 22  2  0
 25 24  1  0
 26 25  1  6
 27 19  1  0
 27 26  1  0
 28 30  1  0
 28 26  1  0
 29 28  2  0
M  END
$$$$
