RKQ.pdb
     RDKit          3D

 30 29  0  0  1  0  0  0  0  0999 V2000
    8.2595  -13.6464   16.4497 N   0  0  0  0  0  0  0  0  0  0  0  0
    9.0074  -13.2093   17.6038 C   0  0  0  0  0  0  0  0  0  0  0  0
   10.3069  -13.2307   17.6016 N   0  0  0  0  0  0  0  0  0  0  0  0
    8.3456  -12.7441   18.7729 N   0  0  0  0  0  0  0  0  0  0  0  0
    6.9004  -12.8640   18.8999 C   0  0  0  0  0  0  0  0  0  0  0  0
    6.5043  -14.1961   19.4801 C   0  0  0  0  0  0  0  0  0  0  0  0
    7.0530  -14.4484   20.8359 C   0  0  0  0  0  0  0  0  0  0  0  0
    7.5850  -15.8320   21.0749 C   0  0  2  0  0  0  0  0  0  0  0  0
    6.4734  -16.7609   21.2455 N   0  0  0  0  0  0  0  0  0  0  0  0
    8.4349  -15.9066   22.2830 C   0  0  0  0  0  0  0  0  0  0  0  0
    9.4576  -15.1788   22.3964 O   0  0  0  0  0  0  0  0  0  0  0  0
   10.7948  -12.8934   18.4351 N   0  0  0  0  0  0  0  0  0  0  0  0
    8.0850  -16.8089   23.3154 C   0  0  2  0  0  0  0  0  0  0  0  0
    8.9111  -16.8937   24.5166 C   0  0  0  0  0  0  0  0  0  0  0  0
    8.2799  -17.8599   25.4700 C   0  0  0  0  0  0  0  0  0  0  0  0
    9.0996  -18.0595   26.7061 C   0  0  0  0  0  0  0  0  0  0  0  0
    8.4643  -19.1065   27.6154 C   0  0  0  0  0  0  0  0  0  0  0  0
    9.3042  -19.2127   28.8769 N   0  0  0  0  0  0  0  0  0  0  0  0
    8.8643  -20.3032   29.7003 C   0  0  0  0  0  0  0  0  0  0  0  0
   10.2550  -17.4102   24.0999 O   0  0  0  0  0  0  0  0  0  0  0  0
   10.3955  -18.5218   23.5020 N   0  0  0  0  0  0  0  0  0  0  0  0
   14.8051  -14.4498   21.3615 C   0  0  0  0  0  0  0  0  0  0  0  0
   14.0403  -15.4904   20.7794 O   0  0  0  0  0  0  0  0  0  0  0  0
   14.0267  -15.6183   19.5384 C   0  0  0  0  0  0  0  0  0  0  0  0
   13.2700  -16.4069   21.6397 C   0  0  0  0  0  0  0  0  0  0  0  0
   13.4259  -16.1439   23.0936 C   0  0  2  0  0  0  0  0  0  0  0  0
   12.7381  -17.1667   23.9447 N   0  0  0  0  0  0  0  0  0  0  0  0
   11.4231  -16.6643   24.3641 C   0  0  0  0  0  0  0  0  0  0  0  0
   13.5275  -17.5693   25.1308 O   0  0  0  0  0  0  0  0  0  0  0  0
   13.1791  -17.3964   26.3166 O   0  0  0  0  0  0  0  0  0  0  0  0
  2  3  2  0
  2  1  1  0
  4  2  1  0
  5  4  1  0
  6  5  1  0
  7  6  1  0
  8  9  1  1
  8  7  1  0
 10  8  1  0
 11 10  2  0
 12 10  1  0
 13 19  1  0
 13 12  1  0
 13 14  1  6
 15 14  1  0
 16 15  1  0
 17 16  1  0
 18 17  1  0
 19 20  2  0
 22 21  1  0
 22 24  1  0
 23 22  2  0
 25 24  1  0
 26 25  1  6
 27 19  1  0
 27 26  1  0
 28 30  1  0
 28 26  1  0
 29 28  2  0
M  END
$$$$
