RKQ.pdb
     RDKit          3D

 30 29  0  0  1  0  0  0  0  0999 V2000
   13.4354  -13.4505   17.0636 N   0  0  0  0  0  0  0  0  0  0  0  0
   14.5518  -14.0365   17.7653 C   0  0  0  0  0  0  0  0  0  0  0  0
   15.2019  -13.3598   18.6645 N   0  0  0  0  0  0  0  0  0  0  0  0
   14.9711  -15.3675   17.4937 N   0  0  0  0  0  0  0  0  0  0  0  0
   14.0023  -16.4535   17.4569 C   0  0  0  0  0  0  0  0  0  0  0  0
   13.1482  -16.4754   18.6971 C   0  0  0  0  0  0  0  0  0  0  0  0
   12.2643  -17.6635   18.7974 C   0  0  0  0  0  0  0  0  0  0  0  0
   12.8599  -18.8611   19.4799 C   0  0  2  0  0  0  0  0  0  0  0  0
   11.8564  -19.9146   19.5834 N   0  0  0  0  0  0  0  0  0  0  0  0
   13.3408  -18.5498   20.8434 C   0  0  0  0  0  0  0  0  0  0  0  0
   14.2423  -17.6882   21.0268 O   0  0  0  0  0  0  0  0  0  0  0  0
   16.0013  -13.8080   19.1191 N   0  0  0  0  0  0  0  0  0  0  0  0
   12.7745  -19.2336   21.9452 C   0  0  1  0  0  0  0  0  0  0  0  0
   13.1582  -18.8635   23.3047 C   0  0  0  0  0  0  0  0  0  0  0  0
   12.3994  -19.7188   24.2709 C   0  0  0  0  0  0  0  0  0  0  0  0
   12.8300  -19.4994   25.6872 C   0  0  0  0  0  0  0  0  0  0  0  0
   11.9678  -20.3112   26.6486 C   0  0  0  0  0  0  0  0  0  0  0  0
   12.4582  -20.0501   28.0627 N   0  0  0  0  0  0  0  0  0  0  0  0
   11.6759  -20.7755   29.0231 C   0  0  0  0  0  0  0  0  0  0  0  0
   14.6257  -19.1344   23.4449 O   0  0  0  0  0  0  0  0  0  0  0  0
   15.1478  -20.2323   23.0778 N   0  0  0  0  0  0  0  0  0  0  0  0
   18.6179  -15.2793   20.7723 C   0  0  0  0  0  0  0  0  0  0  0  0
   18.2863  -15.5563   22.1213 O   0  0  0  0  0  0  0  0  0  0  0  0
   18.6350  -14.7564   23.0131 C   0  0  0  0  0  0  0  0  0  0  0  0
   17.5381  -16.7810   22.4584 C   0  0  0  0  0  0  0  0  0  0  0  0
   17.7255  -17.2363   23.8601 C   0  0  2  0  0  0  0  0  0  0  0  0
   16.9121  -18.4503   24.1890 N   0  0  0  0  0  0  0  0  0  0  0  0
   15.4847  -18.1613   23.9981 C   0  0  0  0  0  0  0  0  0  0  0  0
   17.1462  -18.9593   25.5594 O   0  0  0  0  0  0  0  0  0  0  0  0
   16.2980  -18.9714   26.4747 O   0  0  0  0  0  0  0  0  0  0  0  0
  2  3  2  0
  2  1  1  0
  4  2  1  0
  5  4  1  0
  6  5  1  0
  7  6  1  0
  8  9  1  1
  8  7  1  0
 10  8  1  0
 11 10  2  0
 12 10  1  0
 13 19  1  0
 13 12  1  0
 13 14  1  1
 15 14  1  0
 16 15  1  0
 17 16  1  0
 18 17  1  0
 19 20  2  0
 22 21  1  0
 22 24  1  0
 23 22  2  0
 25 24  1  0
 26 25  1  6
 27 19  1  0
 27 26  1  0
 28 30  1  0
 28 26  1  0
 29 28  2  0
M  END
$$$$
