RKQ.pdb
     RDKit          3D

 30 29  0  0  1  0  0  0  0  0999 V2000
    8.9288  -14.8970   16.2670 N   0  0  0  0  0  0  0  0  0  0  0  0
    8.5611  -13.5421   16.6009 C   0  0  0  0  0  0  0  0  0  0  0  0
    8.6293  -12.5961   15.7123 N   0  0  0  0  0  0  0  0  0  0  0  0
    8.1149  -13.2047   17.9078 N   0  0  0  0  0  0  0  0  0  0  0  0
    8.2561  -14.1528   19.0035 C   0  0  0  0  0  0  0  0  0  0  0  0
    8.6297  -15.5237   18.5045 C   0  0  0  0  0  0  0  0  0  0  0  0
    9.5327  -16.2698   19.4159 C   0  0  0  0  0  0  0  0  0  0  0  0
    8.8885  -16.8396   20.6466 C   0  0  2  0  0  0  0  0  0  0  0  0
    7.4434  -16.9021   20.4582 N   0  0  0  0  0  0  0  0  0  0  0  0
    9.1593  -16.0254   21.8512 C   0  0  0  0  0  0  0  0  0  0  0  0
   10.3211  -15.6008   22.0932 O   0  0  0  0  0  0  0  0  0  0  0  0
    8.3856  -11.6457   16.0021 N   0  0  0  0  0  0  0  0  0  0  0  0
    8.0939  -15.7269   22.7334 C   0  0  1  0  0  0  0  0  0  0  0  0
    8.3616  -15.0174   23.9814 C   0  0  0  0  0  0  0  0  0  0  0  0
    7.1467  -14.2285   24.3590 C   0  0  0  0  0  0  0  0  0  0  0  0
    7.3500  -13.4313   25.6091 C   0  0  0  0  0  0  0  0  0  0  0  0
    6.1150  -12.5939   25.9256 C   0  0  0  0  0  0  0  0  0  0  0  0
    6.4044  -11.7722   27.1703 N   0  0  0  0  0  0  0  0  0  0  0  0
    5.2630  -10.9884   27.5490 C   0  0  0  0  0  0  0  0  0  0  0  0
    8.6328  -16.0497   25.0337 O   0  0  0  0  0  0  0  0  0  0  0  0
    7.7706  -16.9227   25.3613 N   0  0  0  0  0  0  0  0  0  0  0  0
   12.9396  -18.3145   23.8606 C   0  0  0  0  0  0  0  0  0  0  0  0
   13.4635  -17.8024   25.0731 O   0  0  0  0  0  0  0  0  0  0  0  0
   14.6637  -17.4660   25.1265 C   0  0  0  0  0  0  0  0  0  0  0  0
   12.5917  -17.6740   26.2549 C   0  0  0  0  0  0  0  0  0  0  0  0
   11.1881  -18.1002   26.0188 C   0  0  1  0  0  0  0  0  0  0  0  0
   10.1886  -17.1715   26.6369 N   0  0  0  0  0  0  0  0  0  0  0  0
    9.8747  -16.0826   25.7025 C   0  0  0  0  0  0  0  0  0  0  0  0
   10.6315  -16.6128   27.9344 O   0  0  0  0  0  0  0  0  0  0  0  0
   10.8056  -15.3998   28.1710 O   0  0  0  0  0  0  0  0  0  0  0  0
  2  3  2  0
  2  1  1  0
  4  2  1  0
  5  4  1  0
  6  5  1  0
  7  6  1  0
  8  9  1  6
  8  7  1  0
 10  8  1  0
 11 10  2  0
 12 10  1  0
 13 19  1  0
 13 12  1  0
 13 14  1  1
 15 14  1  0
 16 15  1  0
 17 16  1  0
 18 17  1  0
 19 20  2  0
 22 21  1  0
 22 24  1  0
 23 22  2  0
 25 24  1  0
 26 25  1  6
 27 19  1  0
 27 26  1  0
 28 30  1  0
 28 26  1  0
 29 28  2  0
M  END
$$$$
