RKQ.pdb
     RDKit          3D

 30 29  0  0  1  0  0  0  0  0999 V2000
    7.6820  -14.8124   14.4077 N   0  0  0  0  0  0  0  0  0  0  0  0
    8.1530  -13.9427   15.4585 C   0  0  0  0  0  0  0  0  0  0  0  0
    7.7349  -12.7151   15.5435 N   0  0  0  0  0  0  0  0  0  0  0  0
    9.0853  -14.4031   16.4280 N   0  0  0  0  0  0  0  0  0  0  0  0
    8.6494  -15.2556   17.5246 C   0  0  0  0  0  0  0  0  0  0  0  0
    7.5771  -14.5927   18.3485 C   0  0  0  0  0  0  0  0  0  0  0  0
    8.0569  -14.0720   19.6529 C   0  0  0  0  0  0  0  0  0  0  0  0
    8.9479  -14.9949   20.4333 C   0  0  2  0  0  0  0  0  0  0  0  0
    9.2300  -16.1875   19.6423 N   0  0  0  0  0  0  0  0  0  0  0  0
    8.3336  -15.4246   21.7082 C   0  0  0  0  0  0  0  0  0  0  0  0
    7.7164  -14.6005   22.4352 O   0  0  0  0  0  0  0  0  0  0  0  0
    8.1415  -12.1177   16.2676 N   0  0  0  0  0  0  0  0  0  0  0  0
    8.4473  -16.7782   22.1046 C   0  0  1  0  0  0  0  0  0  0  0  0
    7.8955  -17.2083   23.3864 C   0  0  0  0  0  0  0  0  0  0  0  0
    8.0300  -18.6952   23.4959 C   0  0  0  0  0  0  0  0  0  0  0  0
    7.5861  -19.2114   24.8286 C   0  0  0  0  0  0  0  0  0  0  0  0
    7.6950  -20.7318   24.8853 C   0  0  0  0  0  0  0  0  0  0  0  0
    7.2436  -21.1895   26.2619 N   0  0  0  0  0  0  0  0  0  0  0  0
    7.3198  -22.6178   26.3824 C   0  0  0  0  0  0  0  0  0  0  0  0
    8.7054  -16.5536   24.4644 O   0  0  0  0  0  0  0  0  0  0  0  0
    9.9753  -16.5689   24.4586 N   0  0  0  0  0  0  0  0  0  0  0  0
    6.9398  -11.0374   26.0916 C   0  0  0  0  0  0  0  0  0  0  0  0
    6.5583  -11.9121   27.1386 O   0  0  0  0  0  0  0  0  0  0  0  0
    5.6799  -11.5506   27.9475 C   0  0  0  0  0  0  0  0  0  0  0  0
    7.2001  -13.2333   27.2639 C   0  0  0  0  0  0  0  0  0  0  0  0
    8.1538  -13.5474   26.1688 C   0  0  1  0  0  0  0  0  0  0  0  0
    8.7977  -14.8903   26.3283 N   0  0  0  0  0  0  0  0  0  0  0  0
    8.0702  -15.8900   25.5353 C   0  0  0  0  0  0  0  0  0  0  0  0
    8.8899  -15.3325   27.7382 O   0  0  0  0  0  0  0  0  0  0  0  0
    9.6311  -14.8223   28.6029 O   0  0  0  0  0  0  0  0  0  0  0  0
  2  3  2  0
  2  1  1  0
  4  2  1  0
  5  4  1  0
  6  5  1  0
  7  6  1  0
  8  9  1  6
  8  7  1  0
 10  8  1  0
 11 10  2  0
 12 10  1  0
 13 19  1  0
 13 12  1  0
 13 14  1  1
 15 14  1  0
 16 15  1  0
 17 16  1  0
 18 17  1  0
 19 20  2  0
 22 21  1  0
 22 24  1  0
 23 22  2  0
 25 24  1  0
 26 25  1  6
 27 19  1  0
 27 26  1  0
 28 30  1  0
 28 26  1  0
 29 28  2  0
M  END
$$$$
