RKQ.pdb
     RDKit          3D

 30 29  0  0  1  0  0  0  0  0999 V2000
    7.5250  -13.4173   14.7663 N   0  0  0  0  0  0  0  0  0  0  0  0
    7.5525  -13.1224   16.1785 C   0  0  0  0  0  0  0  0  0  0  0  0
    6.6990  -12.2937   16.7019 N   0  0  0  0  0  0  0  0  0  0  0  0
    8.5116  -13.7284   17.0352 N   0  0  0  0  0  0  0  0  0  0  0  0
    8.0905  -14.6562   18.0750 C   0  0  0  0  0  0  0  0  0  0  0  0
    7.3017  -13.9593   19.1522 C   0  0  0  0  0  0  0  0  0  0  0  0
    6.9377  -14.8359   20.2932 C   0  0  0  0  0  0  0  0  0  0  0  0
    7.6949  -16.1290   20.3871 C   0  0  2  0  0  0  0  0  0  0  0  0
    6.9006  -17.2046   19.8042 N   0  0  0  0  0  0  0  0  0  0  0  0
    8.0092  -16.4964   21.7849 C   0  0  0  0  0  0  0  0  0  0  0  0
    8.5897  -15.6800   22.5498 O   0  0  0  0  0  0  0  0  0  0  0  0
    6.7430  -12.1314   17.7110 N   0  0  0  0  0  0  0  0  0  0  0  0
    7.6488  -17.7811   22.2560 C   0  0  1  0  0  0  0  0  0  0  0  0
    7.9608  -18.1644   23.6301 C   0  0  0  0  0  0  0  0  0  0  0  0
    7.1961  -19.4054   23.9711 C   0  0  0  0  0  0  0  0  0  0  0  0
    7.5076  -19.9078   25.3459 C   0  0  0  0  0  0  0  0  0  0  0  0
    6.7471  -21.1974   25.6377 C   0  0  0  0  0  0  0  0  0  0  0  0
    7.1926  -21.7149   26.9949 N   0  0  0  0  0  0  0  0  0  0  0  0
    6.4388  -22.8748   27.3785 C   0  0  0  0  0  0  0  0  0  0  0  0
    9.4306  -18.4517   23.6918 O   0  0  0  0  0  0  0  0  0  0  0  0
   10.0122  -19.1835   22.8322 N   0  0  0  0  0  0  0  0  0  0  0  0
   11.8491  -15.8026   20.6149 C   0  0  0  0  0  0  0  0  0  0  0  0
   12.9493  -15.6546   21.4949 O   0  0  0  0  0  0  0  0  0  0  0  0
   14.0868  -15.4543   21.0230 C   0  0  0  0  0  0  0  0  0  0  0  0
   12.7423  -15.7400   22.9520 C   0  0  0  0  0  0  0  0  0  0  0  0
   11.4298  -16.3164   23.3425 C   0  0  2  0  0  0  0  0  0  0  0  0
   11.5471  -17.3431   24.4268 N   0  0  0  0  0  0  0  0  0  0  0  0
   10.2244  -17.9085   24.7239 C   0  0  0  0  0  0  0  0  0  0  0  0
   12.1632  -16.8186   25.6667 O   0  0  0  0  0  0  0  0  0  0  0  0
   13.3360  -16.4035   25.7647 O   0  0  0  0  0  0  0  0  0  0  0  0
  2  3  2  0
  2  1  1  0
  4  2  1  0
  5  4  1  0
  6  5  1  0
  7  6  1  0
  8  9  1  1
  8  7  1  0
 10  8  1  0
 11 10  2  0
 12 10  1  0
 13 19  1  0
 13 12  1  0
 13 14  1  1
 15 14  1  0
 16 15  1  0
 17 16  1  0
 18 17  1  0
 19 20  2  0
 22 21  1  0
 22 24  1  0
 23 22  2  0
 25 24  1  0
 26 25  1  6
 27 19  1  0
 27 26  1  0
 28 30  1  0
 28 26  1  0
 29 28  2  0
M  END
$$$$
