RKQ.pdb
     RDKit          3D

 30 29  0  0  1  0  0  0  0  0999 V2000
    6.3369  -12.4387   19.0345 N   0  0  0  0  0  0  0  0  0  0  0  0
    6.8636  -13.2184   17.9404 C   0  0  0  0  0  0  0  0  0  0  0  0
    6.9990  -12.6980   16.7572 N   0  0  0  0  0  0  0  0  0  0  0  0
    7.2482  -14.5745   18.1254 N   0  0  0  0  0  0  0  0  0  0  0  0
    8.6002  -15.0084   17.8044 C   0  0  0  0  0  0  0  0  0  0  0  0
    9.5924  -13.8855   17.9551 C   0  0  0  0  0  0  0  0  0  0  0  0
   10.4338  -13.9861   19.1737 C   0  0  0  0  0  0  0  0  0  0  0  0
   11.5200  -15.0217   19.1300 C   0  0  2  0  0  0  0  0  0  0  0  0
   11.1057  -16.1297   18.2766 N   0  0  0  0  0  0  0  0  0  0  0  0
   11.8322  -15.5659   20.4693 C   0  0  0  0  0  0  0  0  0  0  0  0
   12.1333  -14.7976   21.4220 O   0  0  0  0  0  0  0  0  0  0  0  0
    7.4419  -13.2653   16.0301 N   0  0  0  0  0  0  0  0  0  0  0  0
   11.7887  -16.9659   20.6701 C   0  0  1  0  0  0  0  0  0  0  0  0
   12.1674  -17.5260   21.9645 C   0  0  0  0  0  0  0  0  0  0  0  0
   11.6849  -18.9411   22.0385 C   0  0  0  0  0  0  0  0  0  0  0  0
   11.4837  -19.4022   23.4479 C   0  0  0  0  0  0  0  0  0  0  0  0
   10.8900  -20.8069   23.4799 C   0  0  0  0  0  0  0  0  0  0  0  0
   10.8453  -21.2710   24.9258 N   0  0  0  0  0  0  0  0  0  0  0  0
   10.1358  -22.5129   25.0483 C   0  0  0  0  0  0  0  0  0  0  0  0
   13.6642  -17.5049   22.0405 O   0  0  0  0  0  0  0  0  0  0  0  0
   14.3947  -17.6608   21.0135 N   0  0  0  0  0  0  0  0  0  0  0  0
   17.8301  -13.9380   21.6142 C   0  0  0  0  0  0  0  0  0  0  0  0
   17.1989  -14.8068   20.6904 O   0  0  0  0  0  0  0  0  0  0  0  0
   17.6233  -14.8658   19.5185 C   0  0  0  0  0  0  0  0  0  0  0  0
   16.0515  -15.6275   21.1183 C   0  0  0  0  0  0  0  0  0  0  0  0
   15.6607  -15.4254   22.5374 C   0  0  2  0  0  0  0  0  0  0  0  0
   15.6528  -16.7002   23.3238 N   0  0  0  0  0  0  0  0  0  0  0  0
   14.3164  -17.3078   23.2760 C   0  0  0  0  0  0  0  0  0  0  0  0
   16.0782  -16.5237   24.7308 O   0  0  0  0  0  0  0  0  0  0  0  0
   15.3396  -16.6662   25.7267 O   0  0  0  0  0  0  0  0  0  0  0  0
  2  3  2  0
  2  1  1  0
  4  2  1  0
  5  4  1  0
  6  5  1  0
  7  6  1  0
  8  9  1  6
  8  7  1  0
 10  8  1  0
 11 10  2  0
 12 10  1  0
 13 19  1  0
 13 12  1  0
 13 14  1  1
 15 14  1  0
 16 15  1  0
 17 16  1  0
 18 17  1  0
 19 20  2  0
 22 21  1  0
 22 24  1  0
 23 22  2  0
 25 24  1  0
 26 25  1  6
 27 19  1  0
 27 26  1  0
 28 30  1  0
 28 26  1  0
 29 28  2  0
M  END
$$$$
