RKQ.pdb
     RDKit          3D

 30 29  0  0  1  0  0  0  0  0999 V2000
    8.5776  -13.6705   18.1794 N   0  0  0  0  0  0  0  0  0  0  0  0
    8.7390  -13.0328   19.4637 C   0  0  0  0  0  0  0  0  0  0  0  0
    8.6966  -11.7385   19.5739 N   0  0  0  0  0  0  0  0  0  0  0  0
    8.9482  -13.8004   20.6419 N   0  0  0  0  0  0  0  0  0  0  0  0
    7.8167  -14.3420   21.3805 C   0  0  0  0  0  0  0  0  0  0  0  0
    7.0536  -15.3505   20.5628 C   0  0  0  0  0  0  0  0  0  0  0  0
    7.6794  -16.6960   20.5308 C   0  0  0  0  0  0  0  0  0  0  0  0
    7.1184  -17.6971   21.4991 C   0  0  2  0  0  0  0  0  0  0  0  0
    5.6863  -17.4721   21.6607 N   0  0  0  0  0  0  0  0  0  0  0  0
    7.7507  -17.6047   22.8329 C   0  0  0  0  0  0  0  0  0  0  0  0
    7.1775  -16.9961   23.7761 O   0  0  0  0  0  0  0  0  0  0  0  0
    8.8687  -11.3284   20.4952 N   0  0  0  0  0  0  0  0  0  0  0  0
    9.0128  -18.2104   23.0391 C   0  0  2  0  0  0  0  0  0  0  0  0
    9.6038  -18.2208   24.3744 C   0  0  0  0  0  0  0  0  0  0  0  0
   10.9210  -18.9294   24.3144 C   0  0  0  0  0  0  0  0  0  0  0  0
   10.9816  -20.1006   25.2441 C   0  0  0  0  0  0  0  0  0  0  0  0
   11.0876  -21.4074   24.4646 C   0  0  0  0  0  0  0  0  0  0  0  0
   11.2425  -22.5438   25.4610 N   0  0  0  0  0  0  0  0  0  0  0  0
   11.2530  -23.8160   24.7963 C   0  0  0  0  0  0  0  0  0  0  0  0
    9.8230  -16.7939   24.7778 O   0  0  0  0  0  0  0  0  0  0  0  0
    9.4641  -15.8219   24.0436 N   0  0  0  0  0  0  0  0  0  0  0  0
    5.8466  -14.5562   26.6337 C   0  0  0  0  0  0  0  0  0  0  0  0
    6.6683  -13.6564   27.3562 O   0  0  0  0  0  0  0  0  0  0  0  0
    6.1483  -12.6737   27.9223 C   0  0  0  0  0  0  0  0  0  0  0  0
    8.1225  -13.8864   27.4310 C   0  0  0  0  0  0  0  0  0  0  0  0
    8.5956  -15.0310   26.6103 C   0  0  1  0  0  0  0  0  0  0  0  0
   10.0675  -15.2727   26.7463 N   0  0  0  0  0  0  0  0  0  0  0  0
   10.4450  -16.4836   26.0056 C   0  0  0  0  0  0  0  0  0  0  0  0
   10.5165  -15.3797   28.1530 O   0  0  0  0  0  0  0  0  0  0  0  0
   10.4006  -16.3963   28.8676 O   0  0  0  0  0  0  0  0  0  0  0  0
  2  3  2  0
  2  1  1  0
  4  2  1  0
  5  4  1  0
  6  5  1  0
  7  6  1  0
  8  9  1  1
  8  7  1  0
 10  8  1  0
 11 10  2  0
 12 10  1  0
 13 19  1  0
 13 12  1  0
 13 14  1  6
 15 14  1  0
 16 15  1  0
 17 16  1  0
 18 17  1  0
 19 20  2  0
 22 21  1  0
 22 24  1  0
 23 22  2  0
 25 24  1  0
 26 25  1  6
 27 19  1  0
 27 26  1  0
 28 30  1  0
 28 26  1  0
 29 28  2  0
M  END
$$$$
