RKQ.pdb
     RDKit          3D

 30 29  0  0  1  0  0  0  0  0999 V2000
    6.6119  -13.2961   18.1449 N   0  0  0  0  0  0  0  0  0  0  0  0
    8.0430  -13.2571   17.9645 C   0  0  0  0  0  0  0  0  0  0  0  0
    8.7112  -12.1634   18.1801 N   0  0  0  0  0  0  0  0  0  0  0  0
    8.7607  -14.4111   17.5470 N   0  0  0  0  0  0  0  0  0  0  0  0
    8.3614  -15.7341   18.0045 C   0  0  0  0  0  0  0  0  0  0  0  0
    9.2741  -16.2437   19.0887 C   0  0  0  0  0  0  0  0  0  0  0  0
    8.9783  -15.6893   20.4333 C   0  0  0  0  0  0  0  0  0  0  0  0
    9.9704  -16.0275   21.5085 C   0  0  2  0  0  0  0  0  0  0  0  0
   10.7361  -17.2050   21.1150 N   0  0  0  0  0  0  0  0  0  0  0  0
    9.3185  -16.3161   22.8043 C   0  0  0  0  0  0  0  0  0  0  0  0
    8.4228  -15.5541   23.2579 O   0  0  0  0  0  0  0  0  0  0  0  0
    9.7218  -12.1782   18.0219 N   0  0  0  0  0  0  0  0  0  0  0  0
    9.7137  -17.4630   23.5328 C   0  0  1  0  0  0  0  0  0  0  0  0
    9.2367  -17.6553   24.8995 C   0  0  0  0  0  0  0  0  0  0  0  0
    9.7016  -18.9909   25.3902 C   0  0  0  0  0  0  0  0  0  0  0  0
    9.3542  -19.2232   26.8272 C   0  0  0  0  0  0  0  0  0  0  0  0
    8.5903  -20.5327   26.9960 C   0  0  0  0  0  0  0  0  0  0  0  0
    8.3407  -20.7494   28.4789 N   0  0  0  0  0  0  0  0  0  0  0  0
    7.4887  -21.8835   28.6992 C   0  0  0  0  0  0  0  0  0  0  0  0
    9.8452  -16.5751   25.7419 O   0  0  0  0  0  0  0  0  0  0  0  0
   11.0479  -16.1969   25.5896 N   0  0  0  0  0  0  0  0  0  0  0  0
    6.8379  -11.6922   27.7432 C   0  0  0  0  0  0  0  0  0  0  0  0
    7.0256  -12.3692   26.5131 O   0  0  0  0  0  0  0  0  0  0  0  0
    6.3487  -12.0325   25.5206 C   0  0  0  0  0  0  0  0  0  0  0  0
    8.0118  -13.4607   26.4173 C   0  0  0  0  0  0  0  0  0  0  0  0
    8.7490  -13.7208   27.6807 C   0  0  2  0  0  0  0  0  0  0  0  0
    9.6874  -14.8835   27.5756 N   0  0  0  0  0  0  0  0  0  0  0  0
    9.0870  -15.9360   26.7455 C   0  0  0  0  0  0  0  0  0  0  0  0
   10.0819  -15.4391   28.8899 O   0  0  0  0  0  0  0  0  0  0  0  0
    9.8106  -16.5886   29.2933 O   0  0  0  0  0  0  0  0  0  0  0  0
  2  3  2  0
  2  1  1  0
  4  2  1  0
  5  4  1  0
  6  5  1  0
  7  6  1  0
  8  9  1  6
  8  7  1  0
 10  8  1  0
 11 10  2  0
 12 10  1  0
 13 19  1  0
 13 12  1  0
 13 14  1  1
 15 14  1  0
 16 15  1  0
 17 16  1  0
 18 17  1  0
 19 20  2  0
 22 21  1  0
 22 24  1  0
 23 22  2  0
 25 24  1  0
 26 25  1  6
 27 19  1  0
 27 26  1  0
 28 30  1  0
 28 26  1  0
 29 28  2  0
M  END
$$$$
