RKQ.pdb
     RDKit          3D

 30 29  0  0  1  0  0  0  0  0999 V2000
    8.8293  -14.0724   17.3513 N   0  0  0  0  0  0  0  0  0  0  0  0
    9.1701  -12.9693   18.2168 C   0  0  0  0  0  0  0  0  0  0  0  0
   10.3679  -12.4650   18.2116 N   0  0  0  0  0  0  0  0  0  0  0  0
    8.2076  -12.4042   19.0974 N   0  0  0  0  0  0  0  0  0  0  0  0
    8.0106  -12.9585   20.4291 C   0  0  0  0  0  0  0  0  0  0  0  0
    6.7893  -13.8378   20.4874 C   0  0  0  0  0  0  0  0  0  0  0  0
    6.6731  -14.6230   21.7415 C   0  0  0  0  0  0  0  0  0  0  0  0
    7.8365  -15.5177   22.0585 C   0  0  2  0  0  0  0  0  0  0  0  0
    8.0643  -16.4360   20.9484 N   0  0  0  0  0  0  0  0  0  0  0  0
    7.6115  -16.3210   23.2798 C   0  0  0  0  0  0  0  0  0  0  0  0
    7.1778  -15.7823   24.3335 O   0  0  0  0  0  0  0  0  0  0  0  0
   10.5732  -11.7065   18.8667 N   0  0  0  0  0  0  0  0  0  0  0  0
    7.8901  -17.7080   23.2517 C   0  0  2  0  0  0  0  0  0  0  0  0
    7.8370  -18.4845   24.4873 C   0  0  0  0  0  0  0  0  0  0  0  0
    7.6968  -19.9342   24.1413 C   0  0  0  0  0  0  0  0  0  0  0  0
    6.3497  -20.4785   24.5000 C   0  0  0  0  0  0  0  0  0  0  0  0
    6.2132  -21.9295   24.0497 C   0  0  0  0  0  0  0  0  0  0  0  0
    4.7888  -22.3805   24.3254 N   0  0  0  0  0  0  0  0  0  0  0  0
    4.6137  -23.7675   23.9995 C   0  0  0  0  0  0  0  0  0  0  0  0
    9.1328  -18.2670   25.2085 O   0  0  0  0  0  0  0  0  0  0  0  0
   10.1422  -17.7456   24.6410 N   0  0  0  0  0  0  0  0  0  0  0  0
    9.1284  -13.6590   27.2622 C   0  0  0  0  0  0  0  0  0  0  0  0
   10.0012  -14.1031   28.2858 O   0  0  0  0  0  0  0  0  0  0  0  0
   10.4567  -13.2766   29.1019 C   0  0  0  0  0  0  0  0  0  0  0  0
   10.3634  -15.5293   28.3761 C   0  0  0  0  0  0  0  0  0  0  0  0
    9.6691  -16.3923   27.3859 C   0  0  1  0  0  0  0  0  0  0  0  0
   10.0811  -17.8293   27.4796 N   0  0  0  0  0  0  0  0  0  0  0  0
    9.2717  -18.6415   26.5617 C   0  0  0  0  0  0  0  0  0  0  0  0
    9.9914  -18.3766   28.8523 O   0  0  0  0  0  0  0  0  0  0  0  0
    9.0072  -18.9860   29.3186 O   0  0  0  0  0  0  0  0  0  0  0  0
  2  3  2  0
  2  1  1  0
  4  2  1  0
  5  4  1  0
  6  5  1  0
  7  6  1  0
  8  9  1  6
  8  7  1  0
 10  8  1  0
 11 10  2  0
 12 10  1  0
 13 19  1  0
 13 12  1  0
 13 14  1  1
 15 14  1  0
 16 15  1  0
 17 16  1  0
 18 17  1  0
 19 20  2  0
 22 21  1  0
 22 24  1  0
 23 22  2  0
 25 24  1  0
 26 25  1  6
 27 19  1  0
 27 26  1  0
 28 30  1  0
 28 26  1  0
 29 28  2  0
M  END
$$$$
