RKQ.pdb
     RDKit          3D

 30 29  0  0  1  0  0  0  0  0999 V2000
    7.3918  -13.7794   13.9099 N   0  0  0  0  0  0  0  0  0  0  0  0
    7.6978  -13.3002   15.2362 C   0  0  0  0  0  0  0  0  0  0  0  0
    7.5160  -12.0525   15.5512 N   0  0  0  0  0  0  0  0  0  0  0  0
    8.2055  -14.1773   16.2333 N   0  0  0  0  0  0  0  0  0  0  0  0
    8.5620  -13.6698   17.5503 C   0  0  0  0  0  0  0  0  0  0  0  0
    7.4467  -13.8719   18.5419 C   0  0  0  0  0  0  0  0  0  0  0  0
    7.5709  -15.1164   19.3411 C   0  0  0  0  0  0  0  0  0  0  0  0
    8.9592  -15.4591   19.7990 C   0  0  2  0  0  0  0  0  0  0  0  0
    9.5819  -16.3634   18.8388 N   0  0  0  0  0  0  0  0  0  0  0  0
    8.9678  -16.1187   21.1228 C   0  0  0  0  0  0  0  0  0  0  0  0
    8.4709  -15.5467   22.1300 O   0  0  0  0  0  0  0  0  0  0  0  0
    7.7786  -11.7511   16.4929 N   0  0  0  0  0  0  0  0  0  0  0  0
    9.5430  -17.4056   21.2463 C   0  0  1  0  0  0  0  0  0  0  0  0
    9.5170  -18.0920   22.5349 C   0  0  0  0  0  0  0  0  0  0  0  0
   10.1915  -19.4204   22.3886 C   0  0  0  0  0  0  0  0  0  0  0  0
   10.1469  -20.2248   23.6497 C   0  0  0  0  0  0  0  0  0  0  0  0
   10.8423  -21.5692   23.4608 C   0  0  0  0  0  0  0  0  0  0  0  0
   10.8399  -22.2969   24.7944 N   0  0  0  0  0  0  0  0  0  0  0  0
   11.4557  -23.5885   24.6795 C   0  0  0  0  0  0  0  0  0  0  0  0
   10.2841  -17.2477   23.5072 O   0  0  0  0  0  0  0  0  0  0  0  0
   11.4090  -16.7354   23.2158 N   0  0  0  0  0  0  0  0  0  0  0  0
    9.6797  -13.4185   29.7451 C   0  0  0  0  0  0  0  0  0  0  0  0
    9.4179  -13.6464   28.3717 O   0  0  0  0  0  0  0  0  0  0  0  0
    8.4318  -13.0989   27.8383 C   0  0  0  0  0  0  0  0  0  0  0  0
   10.3064  -14.5251   27.5895 C   0  0  0  0  0  0  0  0  0  0  0  0
    9.6057  -15.3181   26.5467 C   0  0  1  0  0  0  0  0  0  0  0  0
   10.5355  -16.1871   25.7568 N   0  0  0  0  0  0  0  0  0  0  0  0
    9.7704  -16.9929   24.7963 C   0  0  0  0  0  0  0  0  0  0  0  0
   11.3741  -17.0678   26.6012 O   0  0  0  0  0  0  0  0  0  0  0  0
   12.5447  -16.8192   26.9554 O   0  0  0  0  0  0  0  0  0  0  0  0
  2  3  2  0
  2  1  1  0
  4  2  1  0
  5  4  1  0
  6  5  1  0
  7  6  1  0
  8  9  1  6
  8  7  1  0
 10  8  1  0
 11 10  2  0
 12 10  1  0
 13 19  1  0
 13 12  1  0
 13 14  1  1
 15 14  1  0
 16 15  1  0
 17 16  1  0
 18 17  1  0
 19 20  2  0
 22 21  1  0
 22 24  1  0
 23 22  2  0
 25 24  1  0
 26 25  1  6
 27 19  1  0
 27 26  1  0
 28 30  1  0
 28 26  1  0
 29 28  2  0
M  END
$$$$
