RKQ.pdb
     RDKit          3D

 30 29  0  0  1  0  0  0  0  0999 V2000
   15.5196  -13.3581   17.2775 N   0  0  0  0  0  0  0  0  0  0  0  0
   15.1766  -14.7583   17.3400 C   0  0  0  0  0  0  0  0  0  0  0  0
   16.0715  -15.6732   17.1136 N   0  0  0  0  0  0  0  0  0  0  0  0
   13.8535  -15.1756   17.6503 N   0  0  0  0  0  0  0  0  0  0  0  0
   12.8012  -14.1931   17.8659 C   0  0  0  0  0  0  0  0  0  0  0  0
   11.4535  -14.8489   18.0137 C   0  0  0  0  0  0  0  0  0  0  0  0
   10.3308  -13.8893   18.1610 C   0  0  0  0  0  0  0  0  0  0  0  0
    8.9675  -14.5013   18.3073 C   0  0  2  0  0  0  0  0  0  0  0  0
    7.9760  -13.4481   18.4949 N   0  0  0  0  0  0  0  0  0  0  0  0
    8.8849  -15.4205   19.4630 C   0  0  0  0  0  0  0  0  0  0  0  0
    8.8974  -14.9748   20.6419 O   0  0  0  0  0  0  0  0  0  0  0  0
   15.7908  -16.6529   17.2028 N   0  0  0  0  0  0  0  0  0  0  0  0
    8.7911  -16.8128   19.2290 C   0  0  2  0  0  0  0  0  0  0  0  0
    8.8993  -17.7459   20.3471 C   0  0  0  0  0  0  0  0  0  0  0  0
    8.0926  -18.9681   20.0364 C   0  0  0  0  0  0  0  0  0  0  0  0
    8.1863  -20.0025   21.1138 C   0  0  0  0  0  0  0  0  0  0  0  0
    7.4390  -21.2710   20.7147 C   0  0  0  0  0  0  0  0  0  0  0  0
    7.5300  -22.2581   21.8660 N   0  0  0  0  0  0  0  0  0  0  0  0
    7.0460  -23.5522   21.4766 C   0  0  0  0  0  0  0  0  0  0  0  0
   10.3443  -18.1222   20.4777 O   0  0  0  0  0  0  0  0  0  0  0  0
   11.0852  -18.3183   19.4650 N   0  0  0  0  0  0  0  0  0  0  0  0
   13.7492  -14.6142   19.7135 C   0  0  0  0  0  0  0  0  0  0  0  0
   14.5893  -15.1687   20.7102 O   0  0  0  0  0  0  0  0  0  0  0  0
   15.6698  -14.6066   20.9809 C   0  0  0  0  0  0  0  0  0  0  0  0
   14.1832  -16.3990   21.4135 C   0  0  0  0  0  0  0  0  0  0  0  0
   12.7306  -16.6965   21.3194 C   0  0  2  0  0  0  0  0  0  0  0  0
   12.3659  -18.0084   21.9437 N   0  0  0  0  0  0  0  0  0  0  0  0
   10.9339  -18.2720   21.7507 C   0  0  0  0  0  0  0  0  0  0  0  0
   12.7053  -18.0874   23.3826 O   0  0  0  0  0  0  0  0  0  0  0  0
   13.7183  -18.6460   23.8510 O   0  0  0  0  0  0  0  0  0  0  0  0
  2  3  2  0
  2  1  1  0
  4  2  1  0
  5  4  1  0
  6  5  1  0
  7  6  1  0
  8  9  1  1
  8  7  1  0
 10  8  1  0
 11 10  2  0
 12 10  1  0
 13 19  1  0
 13 12  1  0
 13 14  1  6
 15 14  1  0
 16 15  1  0
 17 16  1  0
 18 17  1  0
 19 20  2  0
 22 21  1  0
 22 24  1  0
 23 22  2  0
 25 24  1  0
 26 25  1  6
 27 19  1  0
 27 26  1  0
 28 30  1  0
 28 26  1  0
 29 28  2  0
M  END
$$$$
