RKQ.pdb
     RDKit          3D

 30 29  0  0  1  0  0  0  0  0999 V2000
    8.9359  -12.1587   19.9862 N   0  0  0  0  0  0  0  0  0  0  0  0
    9.3051  -13.0953   18.9524 C   0  0  0  0  0  0  0  0  0  0  0  0
   10.3616  -12.8975   18.2219 N   0  0  0  0  0  0  0  0  0  0  0  0
    8.5255  -14.2579   18.7044 N   0  0  0  0  0  0  0  0  0  0  0  0
    7.4624  -14.6431   19.6213 C   0  0  0  0  0  0  0  0  0  0  0  0
    7.8849  -15.7822   20.5114 C   0  0  0  0  0  0  0  0  0  0  0  0
    6.8152  -16.2632   21.4209 C   0  0  0  0  0  0  0  0  0  0  0  0
    7.1929  -17.4018   22.3239 C   0  0  2  0  0  0  0  0  0  0  0  0
    6.0300  -17.8170   23.1004 N   0  0  0  0  0  0  0  0  0  0  0  0
    8.2694  -17.0359   23.2697 C   0  0  0  0  0  0  0  0  0  0  0  0
    8.0925  -16.1284   24.1263 O   0  0  0  0  0  0  0  0  0  0  0  0
   10.5914  -13.5951   17.5098 N   0  0  0  0  0  0  0  0  0  0  0  0
    9.5063  -17.7198   23.2019 C   0  0  2  0  0  0  0  0  0  0  0  0
   10.6031  -17.3259   24.0819 C   0  0  0  0  0  0  0  0  0  0  0  0
   10.6624  -18.2774   25.2360 C   0  0  0  0  0  0  0  0  0  0  0  0
   11.8424  -18.0271   26.1217 C   0  0  0  0  0  0  0  0  0  0  0  0
   11.8167  -18.9521   27.3343 C   0  0  0  0  0  0  0  0  0  0  0  0
   13.0622  -18.6847   28.1623 N   0  0  0  0  0  0  0  0  0  0  0  0
   13.0461  -19.4444   29.3801 C   0  0  0  0  0  0  0  0  0  0  0  0
   11.8710  -17.4247   23.2885 O   0  0  0  0  0  0  0  0  0  0  0  0
   12.2897  -18.5280   22.8195 N   0  0  0  0  0  0  0  0  0  0  0  0
   13.3324  -13.4921   18.8952 C   0  0  0  0  0  0  0  0  0  0  0  0
   14.5576  -14.1921   19.0199 O   0  0  0  0  0  0  0  0  0  0  0  0
   15.4837  -13.9508   18.2193 C   0  0  0  0  0  0  0  0  0  0  0  0
   14.7262  -15.1954   20.0868 C   0  0  0  0  0  0  0  0  0  0  0  0
   13.5800  -15.2731   21.0288 C   0  0  1  0  0  0  0  0  0  0  0  0
   13.7624  -16.3265   22.0780 N   0  0  0  0  0  0  0  0  0  0  0  0
   12.6494  -16.2756   23.0351 C   0  0  0  0  0  0  0  0  0  0  0  0
   15.0526  -16.2211   22.7965 O   0  0  0  0  0  0  0  0  0  0  0  0
   15.1953  -15.7724   23.9523 O   0  0  0  0  0  0  0  0  0  0  0  0
  2  3  2  0
  2  1  1  0
  4  2  1  0
  5  4  1  0
  6  5  1  0
  7  6  1  0
  8  9  1  1
  8  7  1  0
 10  8  1  0
 11 10  2  0
 12 10  1  0
 13 19  1  0
 13 12  1  0
 13 14  1  6
 15 14  1  0
 16 15  1  0
 17 16  1  0
 18 17  1  0
 19 20  2  0
 22 21  1  0
 22 24  1  0
 23 22  2  0
 25 24  1  0
 26 25  1  6
 27 19  1  0
 27 26  1  0
 28 30  1  0
 28 26  1  0
 29 28  2  0
M  END
$$$$
