RKQ.pdb
     RDKit          3D

 30 29  0  0  1  0  0  0  0  0999 V2000
    7.3345  -12.2531   17.4261 N   0  0  0  0  0  0  0  0  0  0  0  0
    7.9416  -13.5240   17.1122 C   0  0  0  0  0  0  0  0  0  0  0  0
    8.0079  -13.9444   15.8842 N   0  0  0  0  0  0  0  0  0  0  0  0
    8.4831  -14.3500   18.1348 N   0  0  0  0  0  0  0  0  0  0  0  0
    8.5695  -13.8669   19.5053 C   0  0  0  0  0  0  0  0  0  0  0  0
    7.2109  -13.7853   20.1501 C   0  0  0  0  0  0  0  0  0  0  0  0
    6.9402  -14.8739   21.1219 C   0  0  0  0  0  0  0  0  0  0  0  0
    8.1517  -15.5046   21.7457 C   0  0  2  0  0  0  0  0  0  0  0  0
    8.6532  -16.5645   20.8781 N   0  0  0  0  0  0  0  0  0  0  0  0
    7.8592  -16.0953   23.0697 C   0  0  0  0  0  0  0  0  0  0  0  0
    7.3269  -15.4042   23.9794 O   0  0  0  0  0  0  0  0  0  0  0  0
    8.5439  -14.7951   15.6954 N   0  0  0  0  0  0  0  0  0  0  0  0
    8.1854  -17.4521   23.3047 C   0  0  1  0  0  0  0  0  0  0  0  0
    8.0357  -18.0133   24.6445 C   0  0  0  0  0  0  0  0  0  0  0  0
    8.0120  -19.5067   24.5430 C   0  0  0  0  0  0  0  0  0  0  0  0
    7.9928  -20.1694   25.8846 C   0  0  0  0  0  0  0  0  0  0  0  0
    8.0991  -21.6844   25.7431 C   0  0  0  0  0  0  0  0  0  0  0  0
    8.1308  -22.2906   27.1359 N   0  0  0  0  0  0  0  0  0  0  0  0
    8.3819  -23.7029   27.0792 C   0  0  0  0  0  0  0  0  0  0  0  0
    9.2295  -17.5868   25.4443 O   0  0  0  0  0  0  0  0  0  0  0  0
   10.4176  -17.7799   25.0394 N   0  0  0  0  0  0  0  0  0  0  0  0
    9.7421  -12.3778   28.3522 C   0  0  0  0  0  0  0  0  0  0  0  0
    9.4096  -12.8426   27.0561 O   0  0  0  0  0  0  0  0  0  0  0  0
    8.9736  -12.0355   26.2104 C   0  0  0  0  0  0  0  0  0  0  0  0
    9.5784  -14.2681   26.7200 C   0  0  0  0  0  0  0  0  0  0  0  0
   10.1360  -15.0872   27.8270 C   0  0  2  0  0  0  0  0  0  0  0  0
   10.2368  -16.5406   27.4789 N   0  0  0  0  0  0  0  0  0  0  0  0
    9.0657  -16.9474   26.6913 C   0  0  0  0  0  0  0  0  0  0  0  0
   10.3801  -17.4183   28.6625 O   0  0  0  0  0  0  0  0  0  0  0  0
    9.5639  -18.2976   29.0064 O   0  0  0  0  0  0  0  0  0  0  0  0
  2  3  2  0
  2  1  1  0
  4  2  1  0
  5  4  1  0
  6  5  1  0
  7  6  1  0
  8  9  1  6
  8  7  1  0
 10  8  1  0
 11 10  2  0
 12 10  1  0
 13 19  1  0
 13 12  1  0
 13 14  1  6
 15 14  1  0
 16 15  1  0
 17 16  1  0
 18 17  1  0
 19 20  2  0
 22 21  1  0
 22 24  1  0
 23 22  2  0
 25 24  1  0
 26 25  1  6
 27 19  1  0
 27 26  1  0
 28 30  1  0
 28 26  1  0
 29 28  2  0
M  END
$$$$
