RKQ.pdb
     RDKit          3D

 30 29  0  0  1  0  0  0  0  0999 V2000
    6.7155  -13.7557   14.9206 N   0  0  0  0  0  0  0  0  0  0  0  0
    7.3973  -13.4376   16.1520 C   0  0  0  0  0  0  0  0  0  0  0  0
    8.6790  -13.2225   16.1665 N   0  0  0  0  0  0  0  0  0  0  0  0
    6.6881  -13.3507   17.3810 N   0  0  0  0  0  0  0  0  0  0  0  0
    7.3821  -12.9938   18.6099 C   0  0  0  0  0  0  0  0  0  0  0  0
    8.6612  -13.7727   18.7694 C   0  0  0  0  0  0  0  0  0  0  0  0
    8.9075  -14.2471   20.1540 C   0  0  0  0  0  0  0  0  0  0  0  0
    9.5758  -15.5864   20.2731 C   0  0  2  0  0  0  0  0  0  0  0  0
    8.5653  -16.6238   20.4471 N   0  0  0  0  0  0  0  0  0  0  0  0
   10.5033  -15.6517   21.4233 C   0  0  0  0  0  0  0  0  0  0  0  0
   11.4696  -14.8480   21.5172 O   0  0  0  0  0  0  0  0  0  0  0  0
    9.1211  -13.0115   17.0646 N   0  0  0  0  0  0  0  0  0  0  0  0
   10.2923  -16.6316   22.4221 C   0  0  1  0  0  0  0  0  0  0  0  0
   11.2910  -16.8278   23.4693 C   0  0  0  0  0  0  0  0  0  0  0  0
   10.8359  -17.9333   24.3701 C   0  0  0  0  0  0  0  0  0  0  0  0
   11.7727  -18.1583   25.5153 C   0  0  0  0  0  0  0  0  0  0  0  0
   11.2279  -19.2240   26.4609 C   0  0  0  0  0  0  0  0  0  0  0  0
   12.1426  -19.2972   27.6717 N   0  0  0  0  0  0  0  0  0  0  0  0
   11.7093  -20.3157   28.5858 C   0  0  0  0  0  0  0  0  0  0  0  0
   12.5707  -17.2261   22.7982 O   0  0  0  0  0  0  0  0  0  0  0  0
   12.5883  -17.9312   21.7421 N   0  0  0  0  0  0  0  0  0  0  0  0
   13.9876  -13.9688   19.1743 C   0  0  0  0  0  0  0  0  0  0  0  0
   15.3503  -14.2390   19.4516 O   0  0  0  0  0  0  0  0  0  0  0  0
   16.2352  -13.6647   18.7854 C   0  0  0  0  0  0  0  0  0  0  0  0
   15.7090  -15.1924   20.5172 C   0  0  0  0  0  0  0  0  0  0  0  0
   14.5590  -15.6248   21.3525 C   0  0  1  0  0  0  0  0  0  0  0  0
   14.9573  -16.5738   22.4408 N   0  0  0  0  0  0  0  0  0  0  0  0
   13.8142  -16.8228   23.3289 C   0  0  0  0  0  0  0  0  0  0  0  0
   16.1189  -16.1060   23.2304 O   0  0  0  0  0  0  0  0  0  0  0  0
   17.2493  -15.8560   22.7642 O   0  0  0  0  0  0  0  0  0  0  0  0
  2  3  2  0
  2  1  1  0
  4  2  1  0
  5  4  1  0
  6  5  1  0
  7  6  1  0
  8  9  1  1
  8  7  1  0
 10  8  1  0
 11 10  2  0
 12 10  1  0
 13 19  1  0
 13 12  1  0
 13 14  1  6
 15 14  1  0
 16 15  1  0
 17 16  1  0
 18 17  1  0
 19 20  2  0
 22 21  1  0
 22 24  1  0
 23 22  2  0
 25 24  1  0
 26 25  1  6
 27 19  1  0
 27 26  1  0
 28 30  1  0
 28 26  1  0
 29 28  2  0
M  END
$$$$
