FTV.pdb
     RDKit          3D

 26 26  0  0  1  0  0  0  0  0999 V2000
    8.1922  -17.4854   18.9248 N   0  0  0  0  0  0  0  0  0  0  0  0
    8.4351  -16.3398   19.7589 C   0  0  1  0  0  0  0  0  0  0  0  0
    7.3615  -15.2890   19.5367 C   0  0  0  0  0  0  0  0  0  0  0  0
    7.5712  -14.0757   20.3310 C   0  0  0  0  0  0  0  0  0  0  0  0
    8.3475  -13.0566   19.8338 C   0  0  0  0  0  0  0  0  0  0  0  0
    8.5413  -11.9195   20.5835 C   0  0  0  0  0  0  0  0  0  0  0  0
    7.9523  -11.8007   21.8436 C   0  0  0  0  0  0  0  0  0  0  0  0
    7.1791  -12.8180   22.3366 C   0  0  0  0  0  0  0  0  0  0  0  0
    6.9788  -13.9612   21.5934 C   0  0  0  0  0  0  0  0  0  0  0  0
    8.3357  -16.7292   21.2053 C   0  0  0  0  0  0  0  0  0  0  0  0
    7.7750  -17.8046   21.5391 O   0  0  0  0  0  0  0  0  0  0  0  0
    9.7979  -18.5824   22.4586 C   0  0  0  0  0  0  0  0  0  0  0  0
   10.1845  -17.5015   23.4322 C   0  0  1  0  0  0  0  0  0  0  0  0
   11.4120  -16.9215   23.1028 O   0  0  0  0  0  0  0  0  0  0  0  0
    9.0897  -16.4847   23.5568 C   0  0  2  0  0  0  0  0  0  0  0  0
    8.8584  -15.9199   22.2418 N   0  0  0  0  0  0  0  0  0  0  0  0
    9.4637  -15.4136   24.5358 C   0  0  0  0  0  0  0  0  0  0  0  0
    9.4962  -14.2332   24.1379 O   0  0  0  0  0  0  0  0  0  0  0  0
    7.3209  -15.2917   27.5790 C   0  0  0  0  0  0  0  0  0  0  0  0
    8.3779  -14.3108   27.2075 C   0  0  2  0  0  0  0  0  0  0  0  0
    7.9266  -13.6671   25.8877 C   0  0  0  0  0  0  0  0  0  0  0  0
    9.7381  -14.8459   26.9810 C   0  0  2  0  0  0  0  0  0  0  0  0
    9.7667  -15.7534   25.8645 N   0  0  0  0  0  0  0  0  0  0  0  0
   10.3924  -15.4443   28.1682 C   0  0  0  0  0  0  0  0  0  0  0  0
   10.8410  -14.6253   29.1795 O   0  0  0  0  0  0  0  0  0  0  0  0
   10.5511  -16.6925   28.2874 O   0  0  0  0  0  0  0  0  0  0  0  0
  2 10  1  0
  2  1  1  6
  3  2  1  0
  4  3  1  0
  5  4  2  0
  6  5  1  0
  7  6  2  0
  7  8  1  0
  8  9  2  0
  9  4  1  0
 10 11  2  0
 13 12  1  6
 13 14  1  0
 15 13  1  0
 16 10  1  0
 15 16  1  6
 17 15  1  0
 17 18  2  0
 20 19  1  6
 20 22  1  0
 21 20  1  0
 22 23  1  6
 23 17  1  0
 24 25  1  0
 24 22  1  0
 26 24  2  0
M  END
$$$$
