FTV.pdb
     RDKit          3D

 26 26  0  0  1  0  0  0  0  0999 V2000
    7.4920  -16.0883   20.0071 N   0  0  0  0  0  0  0  0  0  0  0  0
    7.8499  -15.2820   21.1425 C   0  0  1  0  0  0  0  0  0  0  0  0
    6.6364  -14.5278   21.6568 C   0  0  0  0  0  0  0  0  0  0  0  0
    6.8925  -13.8121   22.9096 C   0  0  0  0  0  0  0  0  0  0  0  0
    6.4406  -14.3302   24.0995 C   0  0  0  0  0  0  0  0  0  0  0  0
    6.6837  -13.6544   25.2729 C   0  0  0  0  0  0  0  0  0  0  0  0
    7.3859  -12.4480   25.2557 C   0  0  0  0  0  0  0  0  0  0  0  0
    7.8350  -11.9341   24.0683 C   0  0  0  0  0  0  0  0  0  0  0  0
    7.5967  -12.6034   22.8872 C   0  0  0  0  0  0  0  0  0  0  0  0
    8.2974  -16.1610   22.2741 C   0  0  0  0  0  0  0  0  0  0  0  0
    7.7546  -17.2794   22.4660 O   0  0  0  0  0  0  0  0  0  0  0  0
   10.3018  -18.3396   22.2878 C   0  0  0  0  0  0  0  0  0  0  0  0
   10.9069  -17.5492   23.4168 C   0  0  1  0  0  0  0  0  0  0  0  0
   11.9829  -16.7695   22.9858 O   0  0  0  0  0  0  0  0  0  0  0  0
    9.8585  -16.7361   24.1153 C   0  0  2  0  0  0  0  0  0  0  0  0
    9.3317  -15.7798   23.1616 N   0  0  0  0  0  0  0  0  0  0  0  0
   10.4331  -16.0340   25.3080 C   0  0  0  0  0  0  0  0  0  0  0  0
   10.7626  -14.8382   25.1891 O   0  0  0  0  0  0  0  0  0  0  0  0
   10.0749  -13.7984   27.1724 C   0  0  0  0  0  0  0  0  0  0  0  0
    9.9640  -14.9837   28.0670 C   0  0  2  0  0  0  0  0  0  0  0  0
   10.2842  -14.4874   29.4850 C   0  0  0  0  0  0  0  0  0  0  0  0
   10.8745  -16.1168   27.7930 C   0  0  2  0  0  0  0  0  0  0  0  0
   10.5881  -16.7254   26.5208 N   0  0  0  0  0  0  0  0  0  0  0  0
   10.9591  -17.1383   28.8630 C   0  0  0  0  0  0  0  0  0  0  0  0
   10.2751  -18.3246   28.7230 O   0  0  0  0  0  0  0  0  0  0  0  0
   11.6470  -16.9581   29.9079 O   0  0  0  0  0  0  0  0  0  0  0  0
  2 10  1  0
  2  1  1  6
  3  2  1  0
  4  3  1  0
  5  4  2  0
  6  5  1  0
  7  6  2  0
  7  8  1  0
  8  9  2  0
  9  4  1  0
 10 11  2  0
 13 12  1  6
 13 14  1  0
 15 13  1  0
 16 10  1  0
 15 16  1  6
 17 15  1  0
 17 18  2  0
 20 19  1  6
 20 22  1  0
 21 20  1  0
 22 23  1  6
 23 17  1  0
 24 25  1  0
 24 22  1  0
 26 24  2  0
M  END
$$$$
