FTV.pdb
     RDKit          3D

 26 26  0  0  1  0  0  0  0  0999 V2000
    5.6231  -16.2432   24.7149 N   0  0  0  0  0  0  0  0  0  0  0  0
    6.8990  -15.5829   24.6562 C   0  0  1  0  0  0  0  0  0  0  0  0
    7.1010  -14.7163   25.8867 C   0  0  0  0  0  0  0  0  0  0  0  0
    6.5567  -13.3645   25.7338 C   0  0  0  0  0  0  0  0  0  0  0  0
    5.4028  -13.0119   26.3916 C   0  0  0  0  0  0  0  0  0  0  0  0
    4.8959  -11.7414   26.2447 C   0  0  0  0  0  0  0  0  0  0  0  0
    5.5500  -10.8143   25.4316 C   0  0  0  0  0  0  0  0  0  0  0  0
    6.6999  -11.1685   24.7772 C   0  0  0  0  0  0  0  0  0  0  0  0
    7.2159  -12.4388   24.9178 C   0  0  0  0  0  0  0  0  0  0  0  0
    8.0033  -16.5994   24.6837 C   0  0  0  0  0  0  0  0  0  0  0  0
    7.9078  -17.6255   25.4050 O   0  0  0  0  0  0  0  0  0  0  0  0
   10.4033  -17.8851   21.8241 C   0  0  0  0  0  0  0  0  0  0  0  0
   11.1923  -17.3231   22.9763 C   0  0  1  0  0  0  0  0  0  0  0  0
   11.7645  -16.0886   22.6599 O   0  0  0  0  0  0  0  0  0  0  0  0
   10.3490  -17.2592   24.2143 C   0  0  2  0  0  0  0  0  0  0  0  0
    9.1817  -16.4537   23.9137 N   0  0  0  0  0  0  0  0  0  0  0  0
   11.1199  -16.6702   25.3564 C   0  0  0  0  0  0  0  0  0  0  0  0
   11.7545  -15.6158   25.1609 O   0  0  0  0  0  0  0  0  0  0  0  0
    9.8682  -15.8869   28.9014 C   0  0  0  0  0  0  0  0  0  0  0  0
   11.2706  -15.7301   28.4255 C   0  0  2  0  0  0  0  0  0  0  0  0
   11.2552  -14.5831   27.4037 C   0  0  0  0  0  0  0  0  0  0  0  0
   11.8836  -16.8960   27.7527 C   0  0  2  0  0  0  0  0  0  0  0  0
   11.1141  -17.3070   26.6083 N   0  0  0  0  0  0  0  0  0  0  0  0
   12.1869  -18.0505   28.6308 C   0  0  0  0  0  0  0  0  0  0  0  0
   13.1003  -17.9049   29.6502 O   0  0  0  0  0  0  0  0  0  0  0  0
   11.6281  -19.1736   28.4771 O   0  0  0  0  0  0  0  0  0  0  0  0
  2 10  1  0
  2  1  1  1
  3  2  1  0
  4  3  1  0
  5  4  2  0
  6  5  1  0
  7  6  2  0
  7  8  1  0
  8  9  2  0
  9  4  1  0
 10 11  2  0
 13 12  1  6
 13 14  1  0
 15 13  1  0
 16 10  1  0
 15 16  1  6
 17 15  1  0
 17 18  2  0
 20 19  1  6
 20 22  1  0
 21 20  1  0
 22 23  1  6
 23 17  1  0
 24 25  1  0
 24 22  1  0
 26 24  2  0
M  END
$$$$
