FTV.pdb
     RDKit          3D

 26 26  0  0  1  0  0  0  0  0999 V2000
    6.5803  -14.5892   21.4480 N   0  0  0  0  0  0  0  0  0  0  0  0
    7.9574  -14.5271   21.8564 C   0  0  1  0  0  0  0  0  0  0  0  0
    8.2530  -13.1896   22.5119 C   0  0  0  0  0  0  0  0  0  0  0  0
    7.5938  -13.0273   23.8104 C   0  0  0  0  0  0  0  0  0  0  0  0
    6.3544  -12.4379   23.8809 C   0  0  0  0  0  0  0  0  0  0  0  0
    5.7397  -12.2878   25.1026 C   0  0  0  0  0  0  0  0  0  0  0  0
    6.3715  -12.7320   26.2654 C   0  0  0  0  0  0  0  0  0  0  0  0
    7.6067  -13.3191   26.1921 C   0  0  0  0  0  0  0  0  0  0  0  0
    8.2309  -13.4740   24.9732 C   0  0  0  0  0  0  0  0  0  0  0  0
    8.2280  -15.5671   22.9046 C   0  0  0  0  0  0  0  0  0  0  0  0
    7.4603  -16.5548   23.0362 O   0  0  0  0  0  0  0  0  0  0  0  0
    9.0342  -18.0646   22.6820 C   0  0  0  0  0  0  0  0  0  0  0  0
   10.1428  -17.7254   23.6421 C   0  0  1  0  0  0  0  0  0  0  0  0
   11.3309  -17.4179   22.9748 O   0  0  0  0  0  0  0  0  0  0  0  0
    9.7170  -16.6345   24.5784 C   0  0  2  0  0  0  0  0  0  0  0  0
    9.3389  -15.4866   23.7778 N   0  0  0  0  0  0  0  0  0  0  0  0
   10.8237  -16.2798   25.5244 C   0  0  0  0  0  0  0  0  0  0  0  0
   11.5759  -15.3320   25.2267 O   0  0  0  0  0  0  0  0  0  0  0  0
    9.4611  -15.1820   28.6388 C   0  0  0  0  0  0  0  0  0  0  0  0
   10.9055  -15.1781   28.2766 C   0  0  2  0  0  0  0  0  0  0  0  0
   11.0362  -14.2940   27.0272 C   0  0  0  0  0  0  0  0  0  0  0  0
   11.5159  -16.4838   27.9443 C   0  0  2  0  0  0  0  0  0  0  0  0
   10.9917  -17.0106   26.7120 N   0  0  0  0  0  0  0  0  0  0  0  0
   11.4667  -17.5015   29.0202 C   0  0  0  0  0  0  0  0  0  0  0  0
   12.3964  -17.4608   30.0345 O   0  0  0  0  0  0  0  0  0  0  0  0
   10.5904  -18.4120   29.0411 O   0  0  0  0  0  0  0  0  0  0  0  0
  2 10  1  0
  2  1  1  1
  3  2  1  0
  4  3  1  0
  5  4  2  0
  6  5  1  0
  7  6  2  0
  7  8  1  0
  8  9  2  0
  9  4  1  0
 10 11  2  0
 13 12  1  6
 13 14  1  0
 15 13  1  0
 16 10  1  0
 15 16  1  6
 17 15  1  0
 17 18  2  0
 20 19  1  6
 20 22  1  0
 21 20  1  0
 22 23  1  6
 23 17  1  0
 24 25  1  0
 24 22  1  0
 26 24  2  0
M  END
$$$$
