FTV.pdb
     RDKit          3D

 26 26  0  0  1  0  0  0  0  0999 V2000
    7.5799  -15.5281   20.1691 N   0  0  0  0  0  0  0  0  0  0  0  0
    7.8490  -14.8841   21.4261 C   0  0  1  0  0  0  0  0  0  0  0  0
    6.5839  -14.2468   21.9733 C   0  0  0  0  0  0  0  0  0  0  0  0
    6.7945  -13.5498   23.2448 C   0  0  0  0  0  0  0  0  0  0  0  0
    7.3871  -12.3100   23.2568 C   0  0  0  0  0  0  0  0  0  0  0  0
    7.5827  -11.6597   24.4533 C   0  0  0  0  0  0  0  0  0  0  0  0
    7.1813  -12.2560   25.6500 C   0  0  0  0  0  0  0  0  0  0  0  0
    6.5910  -13.4917   25.6351 C   0  0  0  0  0  0  0  0  0  0  0  0
    6.3906  -14.1514   24.4416 C   0  0  0  0  0  0  0  0  0  0  0  0
    8.2688  -15.9040   22.4445 C   0  0  0  0  0  0  0  0  0  0  0  0
    7.8401  -17.0848   22.3787 O   0  0  0  0  0  0  0  0  0  0  0  0
    9.6887  -18.1158   22.2960 C   0  0  0  0  0  0  0  0  0  0  0  0
   10.5639  -17.5028   23.3563 C   0  0  1  0  0  0  0  0  0  0  0  0
   11.6382  -16.8031   22.8014 O   0  0  0  0  0  0  0  0  0  0  0  0
    9.7516  -16.6538   24.2876 C   0  0  2  0  0  0  0  0  0  0  0  0
    9.1502  -15.5908   23.5065 N   0  0  0  0  0  0  0  0  0  0  0  0
   10.6077  -16.0895   25.3805 C   0  0  0  0  0  0  0  0  0  0  0  0
   11.1133  -14.9628   25.2143 O   0  0  0  0  0  0  0  0  0  0  0  0
    9.9421  -14.0442   27.4414 C   0  0  0  0  0  0  0  0  0  0  0  0
   10.0263  -15.2986   28.2396 C   0  0  2  0  0  0  0  0  0  0  0  0
   10.3205  -14.8725   29.6859 C   0  0  0  0  0  0  0  0  0  0  0  0
   11.0759  -16.2674   27.8555 C   0  0  2  0  0  0  0  0  0  0  0  0
   10.8222  -16.8291   26.5551 N   0  0  0  0  0  0  0  0  0  0  0  0
   11.3539  -17.3316   28.8484 C   0  0  0  0  0  0  0  0  0  0  0  0
   10.6760  -18.5269   28.7682 O   0  0  0  0  0  0  0  0  0  0  0  0
   12.2023  -17.1799   29.7727 O   0  0  0  0  0  0  0  0  0  0  0  0
  2 10  1  0
  2  1  1  6
  3  2  1  0
  4  3  1  0
  5  4  2  0
  6  5  1  0
  7  6  2  0
  7  8  1  0
  8  9  2  0
  9  4  1  0
 10 11  2  0
 13 12  1  6
 13 14  1  0
 15 13  1  0
 16 10  1  0
 15 16  1  6
 17 15  1  0
 17 18  2  0
 20 19  1  6
 20 22  1  0
 21 20  1  0
 22 23  1  6
 23 17  1  0
 24 25  1  0
 24 22  1  0
 26 24  2  0
M  END
$$$$
