FTV.pdb
     RDKit          3D

 26 26  0  0  1  0  0  0  0  0999 V2000
    6.1639  -15.2863   22.1032 N   0  0  0  0  0  0  0  0  0  0  0  0
    7.5650  -14.9662   22.0609 C   0  0  1  0  0  0  0  0  0  0  0  0
    7.7789  -13.4943   22.3671 C   0  0  0  0  0  0  0  0  0  0  0  0
    7.3137  -13.1112   23.7028 C   0  0  0  0  0  0  0  0  0  0  0  0
    8.1371  -12.3914   24.5349 C   0  0  0  0  0  0  0  0  0  0  0  0
    7.6956  -12.0341   25.7880 C   0  0  0  0  0  0  0  0  0  0  0  0
    6.4174  -12.4008   26.2128 C   0  0  0  0  0  0  0  0  0  0  0  0
    5.5990  -13.1182   25.3813 C   0  0  0  0  0  0  0  0  0  0  0  0
    6.0319  -13.4810   24.1241 C   0  0  0  0  0  0  0  0  0  0  0  0
    8.2950  -15.7195   23.1348 C   0  0  0  0  0  0  0  0  0  0  0  0
    7.6818  -16.1355   24.1513 O   0  0  0  0  0  0  0  0  0  0  0  0
   11.0178  -18.2508   22.0518 C   0  0  0  0  0  0  0  0  0  0  0  0
   11.4614  -17.5551   23.3108 C   0  0  1  0  0  0  0  0  0  0  0  0
   12.5008  -16.6542   23.0668 O   0  0  0  0  0  0  0  0  0  0  0  0
   10.2959  -16.9076   23.9966 C   0  0  2  0  0  0  0  0  0  0  0  0
    9.6814  -15.9919   23.0555 N   0  0  0  0  0  0  0  0  0  0  0  0
   10.7378  -16.1819   25.2310 C   0  0  0  0  0  0  0  0  0  0  0  0
   11.2352  -15.0465   25.1040 O   0  0  0  0  0  0  0  0  0  0  0  0
    9.6430  -14.0061   27.3580 C   0  0  0  0  0  0  0  0  0  0  0  0
    9.8323  -15.2353   28.1769 C   0  0  2  0  0  0  0  0  0  0  0  0
   10.1929  -14.7610   29.5929 C   0  0  0  0  0  0  0  0  0  0  0  0
   10.9004  -16.1657   27.7509 C   0  0  2  0  0  0  0  0  0  0  0  0
   10.5861  -16.7848   26.4904 N   0  0  0  0  0  0  0  0  0  0  0  0
   11.2994  -17.1794   28.7554 C   0  0  0  0  0  0  0  0  0  0  0  0
   12.1912  -16.8368   29.7463 O   0  0  0  0  0  0  0  0  0  0  0  0
   10.8423  -18.3575   28.7358 O   0  0  0  0  0  0  0  0  0  0  0  0
  2 10  1  0
  2  1  1  1
  3  2  1  0
  4  3  1  0
  5  4  2  0
  6  5  1  0
  7  6  2  0
  7  8  1  0
  8  9  2  0
  9  4  1  0
 10 11  2  0
 13 12  1  6
 13 14  1  0
 15 13  1  0
 16 10  1  0
 15 16  1  6
 17 15  1  0
 17 18  2  0
 20 19  1  6
 20 22  1  0
 21 20  1  0
 22 23  1  6
 23 17  1  0
 24 25  1  0
 24 22  1  0
 26 24  2  0
M  END
$$$$
