FTV.pdb
     RDKit          3D

 26 26  0  0  1  0  0  0  0  0999 V2000
    7.8419  -18.0496   18.6573 N   0  0  0  0  0  0  0  0  0  0  0  0
    8.1347  -16.8326   19.3646 C   0  0  1  0  0  0  0  0  0  0  0  0
    7.1173  -15.7612   19.0137 C   0  0  0  0  0  0  0  0  0  0  0  0
    7.2957  -14.5254   19.7805 C   0  0  0  0  0  0  0  0  0  0  0  0
    6.5501  -14.3086   20.9143 C   0  0  0  0  0  0  0  0  0  0  0  0
    6.7214  -13.1466   21.6306 C   0  0  0  0  0  0  0  0  0  0  0  0
    7.6481  -12.1918   21.2083 C   0  0  0  0  0  0  0  0  0  0  0  0
    8.3898  -12.4106   20.0779 C   0  0  0  0  0  0  0  0  0  0  0  0
    8.2257  -13.5714   19.3533 C   0  0  0  0  0  0  0  0  0  0  0  0
    8.0033  -17.0554   20.8433 C   0  0  0  0  0  0  0  0  0  0  0  0
    6.9617  -17.5754   21.3198 O   0  0  0  0  0  0  0  0  0  0  0  0
    9.2116  -19.3707   22.8686 C   0  0  0  0  0  0  0  0  0  0  0  0
    9.7099  -18.1189   23.5396 C   0  0  1  0  0  0  0  0  0  0  0  0
   11.0629  -17.8922   23.2756 O   0  0  0  0  0  0  0  0  0  0  0  0
    8.8536  -16.9443   23.1720 C   0  0  2  0  0  0  0  0  0  0  0  0
    9.0259  -16.6976   21.7538 N   0  0  0  0  0  0  0  0  0  0  0  0
    9.2338  -15.7347   23.9706 C   0  0  0  0  0  0  0  0  0  0  0  0
   10.1265  -14.9880   23.5253 O   0  0  0  0  0  0  0  0  0  0  0  0
    7.1868  -12.8315   25.0129 C   0  0  0  0  0  0  0  0  0  0  0  0
    7.7298  -13.4751   26.2411 C   0  0  2  0  0  0  0  0  0  0  0  0
    8.1789  -12.3335   27.1657 C   0  0  0  0  0  0  0  0  0  0  0  0
    8.8941  -14.3710   26.0686 C   0  0  2  0  0  0  0  0  0  0  0  0
    8.5876  -15.4676   25.1887 N   0  0  0  0  0  0  0  0  0  0  0  0
    9.5160  -14.8551   27.3234 C   0  0  0  0  0  0  0  0  0  0  0  0
    9.4204  -16.1871   27.6571 O   0  0  0  0  0  0  0  0  0  0  0  0
   10.1403  -14.0809   28.1034 O   0  0  0  0  0  0  0  0  0  0  0  0
  2 10  1  0
  2  1  1  6
  3  2  1  0
  4  3  1  0
  5  4  2  0
  6  5  1  0
  7  6  2  0
  7  8  1  0
  8  9  2  0
  9  4  1  0
 10 11  2  0
 13 12  1  6
 13 14  1  0
 15 13  1  0
 16 10  1  0
 15 16  1  6
 17 15  1  0
 17 18  2  0
 20 19  1  6
 20 22  1  0
 21 20  1  0
 22 23  1  6
 23 17  1  0
 24 25  1  0
 24 22  1  0
 26 24  2  0
M  END
$$$$
