FTV.pdb
     RDKit          3D

 26 26  0  0  1  0  0  0  0  0999 V2000
    5.9045  -18.0197   24.0333 N   0  0  0  0  0  0  0  0  0  0  0  0
    6.6104  -16.7946   24.2944 C   0  0  1  0  0  0  0  0  0  0  0  0
    6.1802  -16.2126   25.6294 C   0  0  0  0  0  0  0  0  0  0  0  0
    6.3753  -14.7629   25.7144 C   0  0  0  0  0  0  0  0  0  0  0  0
    5.3818  -13.9119   25.2935 C   0  0  0  0  0  0  0  0  0  0  0  0
    5.5698  -12.5515   25.3754 C   0  0  0  0  0  0  0  0  0  0  0  0
    6.7640  -12.0374   25.8837 C   0  0  0  0  0  0  0  0  0  0  0  0
    7.7524  -12.8879   26.3025 C   0  0  0  0  0  0  0  0  0  0  0  0
    7.5738  -14.2523   26.2246 C   0  0  0  0  0  0  0  0  0  0  0  0
    8.0811  -17.0679   24.4201 C   0  0  0  0  0  0  0  0  0  0  0  0
    8.4949  -18.0139   25.1386 O   0  0  0  0  0  0  0  0  0  0  0  0
   12.6103  -16.5071   22.6603 C   0  0  0  0  0  0  0  0  0  0  0  0
   11.1577  -16.1128   22.6457 C   0  0  1  0  0  0  0  0  0  0  0  0
   10.5224  -16.5169   21.4690 O   0  0  0  0  0  0  0  0  0  0  0  0
   10.4594  -16.6185   23.8723 C   0  0  2  0  0  0  0  0  0  0  0  0
    9.0531  -16.2886   23.7487 N   0  0  0  0  0  0  0  0  0  0  0  0
   11.0411  -16.0055   25.1097 C   0  0  0  0  0  0  0  0  0  0  0  0
   11.7968  -15.0227   24.9844 O   0  0  0  0  0  0  0  0  0  0  0  0
   10.3604  -13.6447   27.3560 C   0  0  0  0  0  0  0  0  0  0  0  0
   10.3151  -14.9266   28.1125 C   0  0  2  0  0  0  0  0  0  0  0  0
   10.7606  -14.5995   29.5458 C   0  0  0  0  0  0  0  0  0  0  0  0
   11.1878  -16.0195   27.6306 C   0  0  2  0  0  0  0  0  0  0  0  0
   10.7294  -16.5411   26.3702 N   0  0  0  0  0  0  0  0  0  0  0  0
   11.4324  -17.1130   28.6002 C   0  0  0  0  0  0  0  0  0  0  0  0
   11.0306  -18.3932   28.2933 O   0  0  0  0  0  0  0  0  0  0  0  0
   12.0059  -16.9097   29.7080 O   0  0  0  0  0  0  0  0  0  0  0  0
  2 10  1  0
  2  1  1  1
  3  2  1  0
  4  3  1  0
  5  4  2  0
  6  5  1  0
  7  6  2  0
  7  8  1  0
  8  9  2  0
  9  4  1  0
 10 11  2  0
 13 12  1  6
 13 14  1  0
 15 13  1  0
 16 10  1  0
 15 16  1  6
 17 15  1  0
 17 18  2  0
 20 19  1  6
 20 22  1  0
 21 20  1  0
 22 23  1  6
 23 17  1  0
 24 25  1  0
 24 22  1  0
 26 24  2  0
M  END
$$$$
