FTV.pdb
     RDKit          3D

 26 26  0  0  1  0  0  0  0  0999 V2000
    5.6496  -16.3099   24.8249 N   0  0  0  0  0  0  0  0  0  0  0  0
    6.9167  -15.6759   24.5808 C   0  0  1  0  0  0  0  0  0  0  0  0
    7.2554  -14.7218   25.7126 C   0  0  0  0  0  0  0  0  0  0  0  0
    6.6025  -13.4168   25.5797 C   0  0  0  0  0  0  0  0  0  0  0  0
    5.5874  -13.0677   26.4377 C   0  0  0  0  0  0  0  0  0  0  0  0
    4.9776  -11.8413   26.3087 C   0  0  0  0  0  0  0  0  0  0  0  0
    5.3875  -10.9551   25.3111 C   0  0  0  0  0  0  0  0  0  0  0  0
    6.3995  -11.3056   24.4573 C   0  0  0  0  0  0  0  0  0  0  0  0
    7.0168  -12.5320   24.5782 C   0  0  0  0  0  0  0  0  0  0  0  0
    8.0101  -16.7043   24.5692 C   0  0  0  0  0  0  0  0  0  0  0  0
    7.9630  -17.6939   25.3444 O   0  0  0  0  0  0  0  0  0  0  0  0
   10.5742  -17.7130   21.6216 C   0  0  0  0  0  0  0  0  0  0  0  0
   11.2718  -17.1948   22.8507 C   0  0  1  0  0  0  0  0  0  0  0  0
   11.7824  -15.9094   22.6542 O   0  0  0  0  0  0  0  0  0  0  0  0
   10.3682  -17.2721   24.0446 C   0  0  2  0  0  0  0  0  0  0  0  0
    9.1245  -16.6107   23.7019 N   0  0  0  0  0  0  0  0  0  0  0  0
   11.0022  -16.6240   25.2378 C   0  0  0  0  0  0  0  0  0  0  0  0
   11.3694  -15.4372   25.1414 O   0  0  0  0  0  0  0  0  0  0  0  0
   10.5156  -14.4861   27.3581 C   0  0  0  0  0  0  0  0  0  0  0  0
   10.5131  -15.7668   28.1179 C   0  0  2  0  0  0  0  0  0  0  0  0
   10.8268  -15.4048   29.5775 C   0  0  0  0  0  0  0  0  0  0  0  0
   11.4991  -16.7904   27.7080 C   0  0  2  0  0  0  0  0  0  0  0  0
   11.1691  -17.3543   26.4259 N   0  0  0  0  0  0  0  0  0  0  0  0
   11.7626  -17.8551   28.7043 C   0  0  0  0  0  0  0  0  0  0  0  0
   11.4428  -19.1594   28.4027 O   0  0  0  0  0  0  0  0  0  0  0  0
   12.2791  -17.6053   29.8304 O   0  0  0  0  0  0  0  0  0  0  0  0
  2 10  1  0
  2  1  1  1
  3  2  1  0
  4  3  1  0
  5  4  2  0
  6  5  1  0
  7  6  2  0
  7  8  1  0
  8  9  2  0
  9  4  1  0
 10 11  2  0
 13 12  1  6
 13 14  1  0
 15 13  1  0
 16 10  1  0
 15 16  1  6
 17 15  1  0
 17 18  2  0
 20 19  1  6
 20 22  1  0
 21 20  1  0
 22 23  1  6
 23 17  1  0
 24 25  1  0
 24 22  1  0
 26 24  2  0
M  END
$$$$
