FTV.pdb
     RDKit          3D

 26 26  0  0  1  0  0  0  0  0999 V2000
    8.4987  -16.9873   16.4290 N   0  0  0  0  0  0  0  0  0  0  0  0
    8.9269  -16.0772   17.4564 C   0  0  1  0  0  0  0  0  0  0  0  0
    8.5401  -14.6540   17.0945 C   0  0  0  0  0  0  0  0  0  0  0  0
    8.6588  -13.7221   18.2191 C   0  0  0  0  0  0  0  0  0  0  0  0
    9.9013  -13.3339   18.6593 C   0  0  0  0  0  0  0  0  0  0  0  0
   10.0073  -12.4588   19.7155 C   0  0  0  0  0  0  0  0  0  0  0  0
    8.8584  -11.9670   20.3376 C   0  0  0  0  0  0  0  0  0  0  0  0
    7.6213  -12.3556   19.8967 C   0  0  0  0  0  0  0  0  0  0  0  0
    7.5044  -13.2320   18.8393 C   0  0  0  0  0  0  0  0  0  0  0  0
    8.2132  -16.3828   18.7412 C   0  0  0  0  0  0  0  0  0  0  0  0
    6.9612  -16.5028   18.7623 O   0  0  0  0  0  0  0  0  0  0  0  0
    7.8534  -19.1574   20.4529 C   0  0  0  0  0  0  0  0  0  0  0  0
    8.3778  -18.2577   21.5398 C   0  0  1  0  0  0  0  0  0  0  0  0
    9.7124  -18.5360   21.8445 O   0  0  0  0  0  0  0  0  0  0  0  0
    8.1635  -16.8170   21.1840 C   0  0  2  0  0  0  0  0  0  0  0  0
    8.9025  -16.5473   19.9662 N   0  0  0  0  0  0  0  0  0  0  0  0
    8.6219  -15.9188   22.2924 C   0  0  0  0  0  0  0  0  0  0  0  0
    9.1418  -14.8267   21.9926 O   0  0  0  0  0  0  0  0  0  0  0  0
    7.3885  -13.5795   23.3116 C   0  0  0  0  0  0  0  0  0  0  0  0
    7.2814  -14.4194   24.5366 C   0  0  2  0  0  0  0  0  0  0  0  0
    7.3328  -13.4531   25.7298 C   0  0  0  0  0  0  0  0  0  0  0  0
    8.3435  -15.4258   24.7533 C   0  0  2  0  0  0  0  0  0  0  0  0
    8.4601  -16.3171   23.6295 N   0  0  0  0  0  0  0  0  0  0  0  0
    8.2533  -16.1828   26.0240 C   0  0  0  0  0  0  0  0  0  0  0  0
    9.2171  -16.0024   26.9900 O   0  0  0  0  0  0  0  0  0  0  0  0
    7.3113  -16.9930   26.2553 O   0  0  0  0  0  0  0  0  0  0  0  0
  2 10  1  0
  2  1  1  6
  3  2  1  0
  4  3  1  0
  5  4  2  0
  6  5  1  0
  7  6  2  0
  7  8  1  0
  8  9  2  0
  9  4  1  0
 10 11  2  0
 13 12  1  6
 13 14  1  0
 15 13  1  0
 16 10  1  0
 15 16  1  6
 17 15  1  0
 17 18  2  0
 20 19  1  6
 20 22  1  0
 21 20  1  0
 22 23  1  6
 23 17  1  0
 24 25  1  0
 24 22  1  0
 26 24  2  0
M  END
$$$$
