FTV.pdb
     RDKit          3D

 26 26  0  0  1  0  0  0  0  0999 V2000
    5.7000  -17.3391   23.2972 N   0  0  0  0  0  0  0  0  0  0  0  0
    6.7049  -16.4106   23.7390 C   0  0  1  0  0  0  0  0  0  0  0  0
    6.4618  -16.0201   25.1862 C   0  0  0  0  0  0  0  0  0  0  0  0
    6.5061  -14.5721   25.4065 C   0  0  0  0  0  0  0  0  0  0  0  0
    5.4409  -13.9359   25.9974 C   0  0  0  0  0  0  0  0  0  0  0  0
    5.4874  -12.5762   26.2020 C   0  0  0  0  0  0  0  0  0  0  0  0
    6.6110  -11.8457   25.8114 C   0  0  0  0  0  0  0  0  0  0  0  0
    7.6711  -12.4825   25.2227 C   0  0  0  0  0  0  0  0  0  0  0  0
    7.6344  -13.8442   25.0134 C   0  0  0  0  0  0  0  0  0  0  0  0
    8.0552  -17.0659   23.7115 C   0  0  0  0  0  0  0  0  0  0  0  0
    8.2865  -18.0170   22.9214 O   0  0  0  0  0  0  0  0  0  0  0  0
    9.8698  -17.5706   21.9962 C   0  0  0  0  0  0  0  0  0  0  0  0
   10.8460  -16.9328   22.9479 C   0  0  1  0  0  0  0  0  0  0  0  0
   11.0151  -15.5717   22.6827 O   0  0  0  0  0  0  0  0  0  0  0  0
   10.4446  -17.1901   24.3695 C   0  0  2  0  0  0  0  0  0  0  0  0
    9.1116  -16.6521   24.5573 N   0  0  0  0  0  0  0  0  0  0  0  0
   11.4119  -16.5548   25.3215 C   0  0  0  0  0  0  0  0  0  0  0  0
   12.1317  -15.6276   24.9031 O   0  0  0  0  0  0  0  0  0  0  0  0
   10.3648  -14.1142   26.8087 C   0  0  0  0  0  0  0  0  0  0  0  0
   10.2843  -15.2477   27.7711 C   0  0  2  0  0  0  0  0  0  0  0  0
   10.1581  -14.6214   29.1681 C   0  0  0  0  0  0  0  0  0  0  0  0
   11.4396  -16.1702   27.8171 C   0  0  2  0  0  0  0  0  0  0  0  0
   11.4896  -17.0085   26.6484 N   0  0  0  0  0  0  0  0  0  0  0  0
   11.5614  -16.9765   29.0543 C   0  0  0  0  0  0  0  0  0  0  0  0
   10.9206  -18.1919   29.1368 O   0  0  0  0  0  0  0  0  0  0  0  0
   12.2426  -16.5850   30.0443 O   0  0  0  0  0  0  0  0  0  0  0  0
  2 10  1  0
  2  1  1  1
  3  2  1  0
  4  3  1  0
  5  4  2  0
  6  5  1  0
  7  6  2  0
  7  8  1  0
  8  9  2  0
  9  4  1  0
 10 11  2  0
 13 12  1  6
 13 14  1  0
 15 13  1  0
 16 10  1  0
 15 16  1  6
 17 15  1  0
 17 18  2  0
 20 19  1  6
 20 22  1  0
 21 20  1  0
 22 23  1  6
 23 17  1  0
 24 25  1  0
 24 22  1  0
 26 24  2  0
M  END
$$$$
