LPS.pdb
     RDKit          3D

 22 22  0  0  1  0  0  0  0  0999 V2000
    7.7059  -12.3491   20.2006 C   0  0  0  0  0  0  0  0  0  0  0  0
    7.3954  -13.8018   20.5855 C   0  0  2  0  0  0  0  0  0  0  0  0
    6.1383  -14.1887   19.8656 C   0  0  0  0  0  0  0  0  0  0  0  0
    7.3506  -13.9456   22.0761 C   0  0  0  0  0  0  0  0  0  0  0  0
    8.7594  -14.1026   22.6227 C   0  0  2  0  0  0  0  0  0  0  0  0
    9.5454  -14.8684   21.7554 N   0  0  0  0  0  0  0  0  0  0  0  0
    8.7136  -14.4674   24.0477 C   0  0  0  0  0  0  0  0  0  0  0  0
    9.0243  -15.6863   24.3036 O   0  0  0  0  0  0  0  0  0  0  0  0
    8.3724  -13.6110   25.0835 N   0  0  0  0  0  0  0  0  0  0  0  0
    8.1555  -12.1497   25.0100 C   0  0  0  0  0  0  0  0  0  0  0  0
    6.7373  -12.0766   25.6324 C   0  0  0  0  0  0  0  0  0  0  0  0
    6.6034  -13.3537   26.4779 C   0  0  0  0  0  0  0  0  0  0  0  0
    8.0403  -13.8319   26.4758 C   0  0  1  0  0  0  0  0  0  0  0  0
    8.3148  -15.0885   27.0956 C   0  0  0  0  0  0  0  0  0  0  0  0
    7.4297  -15.9393   27.3293 O   0  0  0  0  0  0  0  0  0  0  0  0
   11.9094  -16.9909   27.0234 O   0  0  0  0  0  0  0  0  0  0  0  0
   10.7028  -17.6138   27.2563 C   0  0  0  0  0  0  0  0  0  0  0  0
    9.8722  -16.7431   28.2094 C   0  0  2  0  0  0  0  0  0  0  0  0
    9.6340  -15.5037   27.5145 N   0  0  0  0  0  0  0  0  0  0  0  0
   10.5457  -16.5653   29.4982 C   0  0  0  0  0  0  0  0  0  0  0  0
   10.8326  -17.5433   30.2323 O   0  0  0  0  0  0  0  0  0  0  0  0
   10.8872  -15.2994   29.9456 O   0  0  0  0  0  0  0  0  0  0  0  0
  2  1  1  1
  2  3  1  0
  4  2  1  0
  5  4  1  0
  5  6  1  6
  7  9  1  0
  7  5  1  0
  8  7  2  0
  9 13  1  0
 10 11  1  0
 10  9  1  0
 11 12  1  0
 12 13  1  0
 13 14  1  6
 14 19  1  0
 14 15  2  0
 16 17  1  0
 18 17  1  6
 18 20  1  0
 19 18  1  0
 20 22  1  0
 21 20  2  0
M  END
$$$$
