LPS.pdb
     RDKit          3D

 22 22  0  0  1  0  0  0  0  0999 V2000
    8.2111  -12.6980   26.3511 C   0  0  0  0  0  0  0  0  0  0  0  0
    6.7804  -13.1559   26.0374 C   0  0  2  0  0  0  0  0  0  0  0  0
    5.8554  -12.0964   26.5570 C   0  0  0  0  0  0  0  0  0  0  0  0
    6.5460  -14.5332   26.5787 C   0  0  0  0  0  0  0  0  0  0  0  0
    6.3259  -15.5076   25.4341 C   0  0  2  0  0  0  0  0  0  0  0  0
    5.5492  -16.5940   25.8500 N   0  0  0  0  0  0  0  0  0  0  0  0
    7.5960  -15.7686   24.7379 C   0  0  0  0  0  0  0  0  0  0  0  0
    8.5622  -16.1391   25.4974 O   0  0  0  0  0  0  0  0  0  0  0  0
    7.8010  -15.6457   23.3720 N   0  0  0  0  0  0  0  0  0  0  0  0
    6.7739  -15.5437   22.3124 C   0  0  0  0  0  0  0  0  0  0  0  0
    7.2495  -14.2355   21.6294 C   0  0  0  0  0  0  0  0  0  0  0  0
    8.7390  -14.1126   21.9900 C   0  0  0  0  0  0  0  0  0  0  0  0
    8.9932  -15.4906   22.5646 C   0  0  1  0  0  0  0  0  0  0  0  0
   10.2835  -15.7416   23.1220 C   0  0  0  0  0  0  0  0  0  0  0  0
   10.9739  -14.8530   23.6659 O   0  0  0  0  0  0  0  0  0  0  0  0
   11.1531  -19.3429   23.6665 O   0  0  0  0  0  0  0  0  0  0  0  0
   12.3585  -18.7397   23.9513 C   0  0  0  0  0  0  0  0  0  0  0  0
   12.2589  -17.2474   23.6059 C   0  0  2  0  0  0  0  0  0  0  0  0
   10.9206  -17.0385   23.1148 N   0  0  0  0  0  0  0  0  0  0  0  0
   13.2959  -16.8469   22.6517 C   0  0  0  0  0  0  0  0  0  0  0  0
   13.0215  -16.5714   21.4573 O   0  0  0  0  0  0  0  0  0  0  0  0
   14.6209  -16.7608   23.0466 O   0  0  0  0  0  0  0  0  0  0  0  0
  2  1  1  1
  2  3  1  0
  4  2  1  0
  5  4  1  0
  5  6  1  1
  7  9  1  0
  7  5  1  0
  8  7  2  0
  9 13  1  0
 10 11  1  0
 10  9  1  0
 11 12  1  0
 12 13  1  0
 13 14  1  1
 14 19  1  0
 14 15  2  0
 16 17  1  0
 18 17  1  6
 18 20  1  0
 19 18  1  0
 20 22  1  0
 21 20  2  0
M  END
$$$$
