LPS.pdb
     RDKit          3D

 22 22  0  0  1  0  0  0  0  0999 V2000
    5.5275  -12.3938   26.0798 C   0  0  0  0  0  0  0  0  0  0  0  0
    6.6171  -13.1330   26.8680 C   0  0  2  0  0  0  0  0  0  0  0  0
    7.2543  -12.1310   27.7837 C   0  0  0  0  0  0  0  0  0  0  0  0
    7.5540  -13.8301   25.9294 C   0  0  0  0  0  0  0  0  0  0  0  0
    6.9248  -15.1221   25.4363 C   0  0  2  0  0  0  0  0  0  0  0  0
    6.4021  -15.8585   26.5044 N   0  0  0  0  0  0  0  0  0  0  0  0
    7.8237  -15.7936   24.4839 C   0  0  0  0  0  0  0  0  0  0  0  0
    8.7044  -16.5584   25.0197 O   0  0  0  0  0  0  0  0  0  0  0  0
    7.7764  -15.6572   23.1048 N   0  0  0  0  0  0  0  0  0  0  0  0
    6.5798  -15.4497   22.2605 C   0  0  0  0  0  0  0  0  0  0  0  0
    7.0246  -14.1690   21.5082 C   0  0  0  0  0  0  0  0  0  0  0  0
    8.5604  -14.1738   21.5800 C   0  0  0  0  0  0  0  0  0  0  0  0
    8.8034  -15.5802   22.0865 C   0  0  1  0  0  0  0  0  0  0  0  0
   10.1505  -15.9461   22.3869 C   0  0  0  0  0  0  0  0  0  0  0  0
   11.0254  -15.1139   22.7092 O   0  0  0  0  0  0  0  0  0  0  0  0
   11.0639  -19.7811   22.8109 O   0  0  0  0  0  0  0  0  0  0  0  0
   12.0577  -18.9618   23.3001 C   0  0  0  0  0  0  0  0  0  0  0  0
   12.0296  -17.6350   22.5287 C   0  0  2  0  0  0  0  0  0  0  0  0
   10.6385  -17.3056   22.3491 N   0  0  0  0  0  0  0  0  0  0  0  0
   12.7702  -17.7311   21.2683 C   0  0  0  0  0  0  0  0  0  0  0  0
   14.0086  -17.9398   21.2460 O   0  0  0  0  0  0  0  0  0  0  0  0
   12.1163  -17.5928   20.0549 O   0  0  0  0  0  0  0  0  0  0  0  0
  2  1  1  6
  2  3  1  0
  4  2  1  0
  5  4  1  0
  5  6  1  1
  7  9  1  0
  7  5  1  0
  8  7  2  0
  9 13  1  0
 10 11  1  0
 10  9  1  0
 11 12  1  0
 12 13  1  0
 13 14  1  1
 14 19  1  0
 14 15  2  0
 16 17  1  0
 18 17  1  6
 18 20  1  0
 19 18  1  0
 20 22  1  0
 21 20  2  0
M  END
$$$$
