LPS.pdb
     RDKit          3D

 22 22  0  0  1  0  0  0  0  0999 V2000
    5.6800  -12.3838   25.9788 C   0  0  0  0  0  0  0  0  0  0  0  0
    6.8560  -13.0680   26.6885 C   0  0  2  0  0  0  0  0  0  0  0  0
    7.5896  -12.0046   27.4497 C   0  0  0  0  0  0  0  0  0  0  0  0
    7.6821  -13.8354   25.7020 C   0  0  0  0  0  0  0  0  0  0  0  0
    6.9465  -15.0969   25.2827 C   0  0  2  0  0  0  0  0  0  0  0  0
    6.4610  -15.7828   26.4009 N   0  0  0  0  0  0  0  0  0  0  0  0
    7.7348  -15.8363   24.2838 C   0  0  0  0  0  0  0  0  0  0  0  0
    8.5261  -16.7230   24.7687 O   0  0  0  0  0  0  0  0  0  0  0  0
    7.6745  -15.6424   22.9121 N   0  0  0  0  0  0  0  0  0  0  0  0
    6.4814  -15.3201   22.0994 C   0  0  0  0  0  0  0  0  0  0  0  0
    7.0012  -14.0440   21.3886 C   0  0  0  0  0  0  0  0  0  0  0  0
    8.5339  -14.1567   21.4308 C   0  0  0  0  0  0  0  0  0  0  0  0
    8.6876  -15.5953   21.8782 C   0  0  1  0  0  0  0  0  0  0  0  0
   10.0108  -16.0641   22.1385 C   0  0  0  0  0  0  0  0  0  0  0  0
   10.9352  -15.3143   22.5197 O   0  0  0  0  0  0  0  0  0  0  0  0
   10.7380  -20.0036   22.2878 O   0  0  0  0  0  0  0  0  0  0  0  0
   11.6978  -19.2282   22.9008 C   0  0  0  0  0  0  0  0  0  0  0  0
   11.7770  -17.8760   22.1786 C   0  0  2  0  0  0  0  0  0  0  0  0
   10.4159  -17.4431   21.9888 N   0  0  0  0  0  0  0  0  0  0  0  0
   12.5325  -17.9790   20.9276 C   0  0  0  0  0  0  0  0  0  0  0  0
   11.9773  -17.8429   19.8093 O   0  0  0  0  0  0  0  0  0  0  0  0
   13.8944  -18.2321   20.9463 O   0  0  0  0  0  0  0  0  0  0  0  0
  2  1  1  6
  2  3  1  0
  4  2  1  0
  5  4  1  0
  5  6  1  1
  7  9  1  0
  7  5  1  0
  8  7  2  0
  9 13  1  0
 10 11  1  0
 10  9  1  0
 11 12  1  0
 12 13  1  0
 13 14  1  1
 14 19  1  0
 14 15  2  0
 16 17  1  0
 18 17  1  6
 18 20  1  0
 19 18  1  0
 20 22  1  0
 21 20  2  0
M  END
$$$$
