LPS.pdb
     RDKit          3D

 22 22  0  0  1  0  0  0  0  0999 V2000
    5.5830  -12.3765   26.0075 C   0  0  0  0  0  0  0  0  0  0  0  0
    6.7583  -13.0297   26.7470 C   0  0  2  0  0  0  0  0  0  0  0  0
    7.4556  -11.9441   27.5109 C   0  0  0  0  0  0  0  0  0  0  0  0
    7.6186  -13.7904   25.7848 C   0  0  0  0  0  0  0  0  0  0  0  0
    6.9107  -15.0638   25.3540 C   0  0  2  0  0  0  0  0  0  0  0  0
    6.4208  -15.7590   26.4645 N   0  0  0  0  0  0  0  0  0  0  0  0
    7.7256  -15.7886   24.3659 C   0  0  0  0  0  0  0  0  0  0  0  0
    8.5231  -16.6640   24.8613 O   0  0  0  0  0  0  0  0  0  0  0  0
    7.6835  -15.5927   22.9939 N   0  0  0  0  0  0  0  0  0  0  0  0
    6.4945  -15.3114   22.1601 C   0  0  0  0  0  0  0  0  0  0  0  0
    6.9806  -14.0150   21.4622 C   0  0  0  0  0  0  0  0  0  0  0  0
    8.5154  -14.0721   21.5323 C   0  0  0  0  0  0  0  0  0  0  0  0
    8.7129  -15.5057   21.9789 C   0  0  1  0  0  0  0  0  0  0  0  0
   10.0474  -15.9270   22.2624 C   0  0  0  0  0  0  0  0  0  0  0  0
   11.0178  -15.1398   22.2892 O   0  0  0  0  0  0  0  0  0  0  0  0
   10.5971  -19.6579   23.4463 O   0  0  0  0  0  0  0  0  0  0  0  0
   11.6796  -18.8783   23.7906 C   0  0  0  0  0  0  0  0  0  0  0  0
   11.7694  -17.6972   22.8142 C   0  0  2  0  0  0  0  0  0  0  0  0
   10.4119  -17.2964   22.5448 N   0  0  0  0  0  0  0  0  0  0  0  0
   12.5190  -18.0544   21.6073 C   0  0  0  0  0  0  0  0  0  0  0  0
   11.9706  -18.0921   20.4779 O   0  0  0  0  0  0  0  0  0  0  0  0
   13.8675  -18.3632   21.6815 O   0  0  0  0  0  0  0  0  0  0  0  0
  2  1  1  6
  2  3  1  0
  4  2  1  0
  5  4  1  0
  5  6  1  1
  7  9  1  0
  7  5  1  0
  8  7  2  0
  9 13  1  0
 10 11  1  0
 10  9  1  0
 11 12  1  0
 12 13  1  0
 13 14  1  1
 14 19  1  0
 14 15  2  0
 16 17  1  0
 18 17  1  1
 18 20  1  0
 19 18  1  0
 20 22  1  0
 21 20  2  0
M  END
$$$$
