LPS.pdb
     RDKit          3D

 22 22  0  0  1  0  0  0  0  0999 V2000
    5.6511  -12.2812   25.8706 C   0  0  0  0  0  0  0  0  0  0  0  0
    6.6955  -12.9983   26.7366 C   0  0  2  0  0  0  0  0  0  0  0  0
    7.3619  -11.9522   27.5791 C   0  0  0  0  0  0  0  0  0  0  0  0
    7.6151  -13.8093   25.8756 C   0  0  0  0  0  0  0  0  0  0  0  0
    6.8862  -15.0355   25.3529 C   0  0  2  0  0  0  0  0  0  0  0  0
    6.2626  -15.7249   26.3981 N   0  0  0  0  0  0  0  0  0  0  0  0
    7.7504  -15.7833   24.4256 C   0  0  0  0  0  0  0  0  0  0  0  0
    8.5322  -16.6348   24.9835 O   0  0  0  0  0  0  0  0  0  0  0  0
    7.7678  -15.6312   23.0474 N   0  0  0  0  0  0  0  0  0  0  0  0
    6.6200  -15.3521   22.1572 C   0  0  0  0  0  0  0  0  0  0  0  0
    7.1626  -14.0896   21.4392 C   0  0  0  0  0  0  0  0  0  0  0  0
    8.6917  -14.1768   21.5739 C   0  0  0  0  0  0  0  0  0  0  0  0
    8.8390  -15.5989   22.0732 C   0  0  1  0  0  0  0  0  0  0  0  0
   10.1512  -16.0387   22.4242 C   0  0  0  0  0  0  0  0  0  0  0  0
   11.0543  -15.2576   22.7931 O   0  0  0  0  0  0  0  0  0  0  0  0
   11.1856  -19.9564   21.9510 O   0  0  0  0  0  0  0  0  0  0  0  0
   11.8259  -19.3450   23.0067 C   0  0  0  0  0  0  0  0  0  0  0  0
   11.9050  -17.8369   22.7311 C   0  0  2  0  0  0  0  0  0  0  0  0
   10.5684  -17.4218   22.3892 N   0  0  0  0  0  0  0  0  0  0  0  0
   12.8908  -17.5324   21.6910 C   0  0  0  0  0  0  0  0  0  0  0  0
   14.1208  -17.7052   21.8780 O   0  0  0  0  0  0  0  0  0  0  0  0
   12.4872  -17.0403   20.4605 O   0  0  0  0  0  0  0  0  0  0  0  0
  2  1  1  6
  2  3  1  0
  4  2  1  0
  5  4  1  0
  5  6  1  1
  7  9  1  0
  7  5  1  0
  8  7  2  0
  9 13  1  0
 10 11  1  0
 10  9  1  0
 11 12  1  0
 12 13  1  0
 13 14  1  1
 14 19  1  0
 14 15  2  0
 16 17  1  0
 18 17  1  6
 18 20  1  0
 19 18  1  0
 20 22  1  0
 21 20  2  0
M  END
$$$$
