LPS.pdb
     RDKit          3D

 22 22  0  0  1  0  0  0  0  0999 V2000
    5.4993  -12.3470   26.0841 C   0  0  0  0  0  0  0  0  0  0  0  0
    6.6208  -13.0819   26.8305 C   0  0  2  0  0  0  0  0  0  0  0  0
    7.2863  -12.0781   27.7237 C   0  0  0  0  0  0  0  0  0  0  0  0
    7.5258  -13.7732   25.8570 C   0  0  0  0  0  0  0  0  0  0  0  0
    6.9229  -15.1062   25.4478 C   0  0  2  0  0  0  0  0  0  0  0  0
    6.4360  -15.7940   26.5642 N   0  0  0  0  0  0  0  0  0  0  0  0
    7.8240  -15.8078   24.5195 C   0  0  0  0  0  0  0  0  0  0  0  0
    8.7060  -16.5519   25.0817 O   0  0  0  0  0  0  0  0  0  0  0  0
    7.7776  -15.7186   23.1366 N   0  0  0  0  0  0  0  0  0  0  0  0
    6.5751  -15.6425   22.2786 C   0  0  0  0  0  0  0  0  0  0  0  0
    6.9134  -14.3517   21.4892 C   0  0  0  0  0  0  0  0  0  0  0  0
    8.4431  -14.2201   21.5708 C   0  0  0  0  0  0  0  0  0  0  0  0
    8.8031  -15.5835   22.1229 C   0  0  1  0  0  0  0  0  0  0  0  0
   10.1742  -15.8208   22.4432 C   0  0  0  0  0  0  0  0  0  0  0  0
   10.8602  -15.0292   23.1248 O   0  0  0  0  0  0  0  0  0  0  0  0
   13.6261  -18.2784   23.9703 O   0  0  0  0  0  0  0  0  0  0  0  0
   12.3194  -17.9741   23.6575 C   0  0  0  0  0  0  0  0  0  0  0  0
   12.2955  -17.1962   22.3344 C   0  0  2  0  0  0  0  0  0  0  0  0
   10.9055  -16.9914   22.0154 N   0  0  0  0  0  0  0  0  0  0  0  0
   13.0339  -17.9014   21.2837 C   0  0  0  0  0  0  0  0  0  0  0  0
   14.2875  -17.9787   21.2977 O   0  0  0  0  0  0  0  0  0  0  0  0
   12.3608  -18.5080   20.2359 O   0  0  0  0  0  0  0  0  0  0  0  0
  2  1  1  6
  2  3  1  0
  4  2  1  0
  5  4  1  0
  5  6  1  1
  7  9  1  0
  7  5  1  0
  8  7  2  0
  9 13  1  0
 10 11  1  0
 10  9  1  0
 11 12  1  0
 12 13  1  0
 13 14  1  1
 14 19  1  0
 14 15  2  0
 16 17  1  0
 18 17  1  1
 18 20  1  0
 19 18  1  0
 20 22  1  0
 21 20  2  0
M  END
$$$$
