LPS.pdb
     RDKit          3D

 22 22  0  0  1  0  0  0  0  0999 V2000
    7.8889  -11.8403   25.9758 C   0  0  0  0  0  0  0  0  0  0  0  0
    6.6754  -12.7788   26.0159 C   0  0  2  0  0  0  0  0  0  0  0  0
    5.6681  -12.1568   26.9360 C   0  0  0  0  0  0  0  0  0  0  0  0
    7.1050  -14.1672   26.3802 C   0  0  0  0  0  0  0  0  0  0  0  0
    6.5448  -15.1613   25.3771 C   0  0  2  0  0  0  0  0  0  0  0  0
    5.6012  -15.9980   25.9820 N   0  0  0  0  0  0  0  0  0  0  0  0
    7.6370  -15.7687   24.5999 C   0  0  0  0  0  0  0  0  0  0  0  0
    8.4793  -16.4473   25.2910 O   0  0  0  0  0  0  0  0  0  0  0  0
    7.8015  -15.6584   23.2275 N   0  0  0  0  0  0  0  0  0  0  0  0
    6.7468  -15.4868   22.2046 C   0  0  0  0  0  0  0  0  0  0  0  0
    7.2845  -14.2127   21.5035 C   0  0  0  0  0  0  0  0  0  0  0  0
    8.7907  -14.1901   21.8113 C   0  0  0  0  0  0  0  0  0  0  0  0
    8.9723  -15.5825   22.3783 C   0  0  1  0  0  0  0  0  0  0  0  0
   10.2617  -15.9198   22.8903 C   0  0  0  0  0  0  0  0  0  0  0  0
   11.0371  -15.0764   23.3897 O   0  0  0  0  0  0  0  0  0  0  0  0
   11.2216  -19.7461   23.1163 O   0  0  0  0  0  0  0  0  0  0  0  0
   12.0484  -18.9980   23.9255 C   0  0  0  0  0  0  0  0  0  0  0  0
   12.1205  -17.5679   23.3724 C   0  0  2  0  0  0  0  0  0  0  0  0
   10.8004  -17.2607   22.8837 N   0  0  0  0  0  0  0  0  0  0  0  0
   13.1618  -17.4397   22.3499 C   0  0  0  0  0  0  0  0  0  0  0  0
   12.8788  -17.2407   21.1424 O   0  0  0  0  0  0  0  0  0  0  0  0
   14.5007  -17.5358   22.6923 O   0  0  0  0  0  0  0  0  0  0  0  0
  2  1  1  1
  2  3  1  0
  4  2  1  0
  5  4  1  0
  5  6  1  1
  7  9  1  0
  7  5  1  0
  8  7  2  0
  9 13  1  0
 10 11  1  0
 10  9  1  0
 11 12  1  0
 12 13  1  0
 13 14  1  1
 14 19  1  0
 14 15  2  0
 16 17  1  0
 18 17  1  6
 18 20  1  0
 19 18  1  0
 20 22  1  0
 21 20  2  0
M  END
$$$$
