LPS.pdb
     RDKit          3D

 22 22  0  0  1  0  0  0  0  0999 V2000
    3.0591  -17.8428   20.2519 C   0  0  0  0  0  0  0  0  0  0  0  0
    4.3355  -18.3009   19.5336 C   0  0  2  0  0  0  0  0  0  0  0  0
    4.2767  -19.7965   19.4429 C   0  0  0  0  0  0  0  0  0  0  0  0
    5.5456  -17.7477   20.2222 C   0  0  0  0  0  0  0  0  0  0  0  0
    6.5723  -17.3107   19.1911 C   0  0  2  0  0  0  0  0  0  0  0  0
    6.6825  -18.2585   18.1683 N   0  0  0  0  0  0  0  0  0  0  0  0
    7.7968  -16.8431   19.8601 C   0  0  0  0  0  0  0  0  0  0  0  0
    8.6042  -17.7734   20.2209 O   0  0  0  0  0  0  0  0  0  0  0  0
    8.1168  -15.5173   20.1105 N   0  0  0  0  0  0  0  0  0  0  0  0
    7.8685  -14.3500   19.2365 C   0  0  0  0  0  0  0  0  0  0  0  0
    7.0917  -13.4525   20.2339 C   0  0  0  0  0  0  0  0  0  0  0  0
    7.5096  -13.9466   21.6286 C   0  0  0  0  0  0  0  0  0  0  0  0
    8.6766  -14.8391   21.2613 C   0  0  1  0  0  0  0  0  0  0  0  0
    9.2900  -15.5840   22.3136 C   0  0  0  0  0  0  0  0  0  0  0  0
    8.6836  -15.9162   23.3547 O   0  0  0  0  0  0  0  0  0  0  0  0
   12.4654  -18.0655   21.8291 O   0  0  0  0  0  0  0  0  0  0  0  0
   11.5710  -18.1471   22.8739 C   0  0  0  0  0  0  0  0  0  0  0  0
   11.2759  -16.7299   23.3846 C   0  0  2  0  0  0  0  0  0  0  0  0
   10.6651  -16.0272   22.2850 N   0  0  0  0  0  0  0  0  0  0  0  0
   12.4873  -16.0778   23.8884 C   0  0  0  0  0  0  0  0  0  0  0  0
   13.0364  -15.1357   23.2650 O   0  0  0  0  0  0  0  0  0  0  0  0
   13.0648  -16.4883   25.0788 O   0  0  0  0  0  0  0  0  0  0  0  0
  2  1  1  1
  2  3  1  0
  4  2  1  0
  5  4  1  0
  5  6  1  6
  7  9  1  0
  7  5  1  0
  8  7  2  0
  9 13  1  0
 10 11  1  0
 10  9  1  0
 11 12  1  0
 12 13  1  0
 13 14  1  1
 14 19  1  0
 14 15  2  0
 16 17  1  0
 18 17  1  6
 18 20  1  0
 19 18  1  0
 20 22  1  0
 21 20  2  0
M  END
$$$$
