LPS.pdb
     RDKit          3D

 22 22  0  0  1  0  0  0  0  0999 V2000
    4.2760  -16.3505   19.8693 C   0  0  0  0  0  0  0  0  0  0  0  0
    5.0972  -17.4401   20.5716 C   0  0  2  0  0  0  0  0  0  0  0  0
    4.1763  -18.5987   20.8124 C   0  0  0  0  0  0  0  0  0  0  0  0
    5.7600  -16.8833   21.7945 C   0  0  0  0  0  0  0  0  0  0  0  0
    7.1528  -16.3862   21.4463 C   0  0  2  0  0  0  0  0  0  0  0  0
    7.6028  -16.9654   20.2552 N   0  0  0  0  0  0  0  0  0  0  0  0
    8.0218  -16.4374   22.6329 C   0  0  0  0  0  0  0  0  0  0  0  0
    8.5936  -17.5687   22.8353 O   0  0  0  0  0  0  0  0  0  0  0  0
    8.2510  -15.3835   23.5043 N   0  0  0  0  0  0  0  0  0  0  0  0
    8.2903  -13.9403   23.1822 C   0  0  0  0  0  0  0  0  0  0  0  0
    7.2435  -13.4280   24.2047 C   0  0  0  0  0  0  0  0  0  0  0  0
    7.2048  -14.4965   25.3096 C   0  0  0  0  0  0  0  0  0  0  0  0
    8.4260  -15.3124   24.9402 C   0  0  1  0  0  0  0  0  0  0  0  0
    8.6791  -16.4954   25.6987 C   0  0  0  0  0  0  0  0  0  0  0  0
    7.7697  -17.2497   26.1059 O   0  0  0  0  0  0  0  0  0  0  0  0
   12.3036  -18.4252   25.7366 O   0  0  0  0  0  0  0  0  0  0  0  0
   11.0983  -19.0493   25.9734 C   0  0  0  0  0  0  0  0  0  0  0  0
   10.2297  -18.1330   26.8465 C   0  0  2  0  0  0  0  0  0  0  0  0
   10.0025  -16.9396   26.0719 N   0  0  0  0  0  0  0  0  0  0  0  0
   10.8599  -17.8717   28.1430 C   0  0  0  0  0  0  0  0  0  0  0  0
   11.2498  -16.7224   28.4665 O   0  0  0  0  0  0  0  0  0  0  0  0
   11.0440  -18.8973   29.0559 O   0  0  0  0  0  0  0  0  0  0  0  0
  2  1  1  1
  2  3  1  0
  4  2  1  0
  5  4  1  0
  5  6  1  6
  7  9  1  0
  7  5  1  0
  8  7  2  0
  9 13  1  0
 10 11  1  0
 10  9  1  0
 11 12  1  0
 12 13  1  0
 13 14  1  1
 14 19  1  0
 14 15  2  0
 16 17  1  0
 18 17  1  6
 18 20  1  0
 19 18  1  0
 20 22  1  0
 21 20  2  0
M  END
$$$$
