LPS.pdb
     RDKit          3D

 22 22  0  0  1  0  0  0  0  0999 V2000
    5.6210  -12.4875   25.9163 C   0  0  0  0  0  0  0  0  0  0  0  0
    6.7025  -13.1600   26.7725 C   0  0  2  0  0  0  0  0  0  0  0  0
    7.3443  -12.0836   27.5959 C   0  0  0  0  0  0  0  0  0  0  0  0
    7.6371  -13.9462   25.9046 C   0  0  0  0  0  0  0  0  0  0  0  0
    6.9022  -15.1247   25.2888 C   0  0  2  0  0  0  0  0  0  0  0  0
    6.3171  -15.9178   26.2814 N   0  0  0  0  0  0  0  0  0  0  0  0
    7.7431  -15.7706   24.2683 C   0  0  0  0  0  0  0  0  0  0  0  0
    8.5971  -16.6127   24.7259 O   0  0  0  0  0  0  0  0  0  0  0  0
    7.6695  -15.5361   22.9036 N   0  0  0  0  0  0  0  0  0  0  0  0
    6.4629  -15.2248   22.1068 C   0  0  0  0  0  0  0  0  0  0  0  0
    6.9404  -13.9121   21.4338 C   0  0  0  0  0  0  0  0  0  0  0  0
    8.4760  -13.9799   21.4656 C   0  0  0  0  0  0  0  0  0  0  0  0
    8.6750  -15.4265   21.8671 C   0  0  1  0  0  0  0  0  0  0  0  0
   10.0132  -15.8632   22.1066 C   0  0  0  0  0  0  0  0  0  0  0  0
   10.8811  -15.9195   21.2091 O   0  0  0  0  0  0  0  0  0  0  0  0
   11.0994  -17.4958   25.6418 O   0  0  0  0  0  0  0  0  0  0  0  0
   12.0020  -16.5409   25.2276 C   0  0  0  0  0  0  0  0  0  0  0  0
   11.9034  -16.3951   23.7027 C   0  0  2  0  0  0  0  0  0  0  0  0
   10.4990  -16.2827   23.4012 N   0  0  0  0  0  0  0  0  0  0  0  0
   12.5572  -17.5105   23.0136 C   0  0  0  0  0  0  0  0  0  0  0  0
   11.8998  -18.3552   22.3563 O   0  0  0  0  0  0  0  0  0  0  0  0
   13.9328  -17.6638   23.0697 O   0  0  0  0  0  0  0  0  0  0  0  0
  2  1  1  6
  2  3  1  0
  4  2  1  0
  5  4  1  0
  5  6  1  1
  7  9  1  0
  7  5  1  0
  8  7  2  0
  9 13  1  0
 10 11  1  0
 10  9  1  0
 11 12  1  0
 12 13  1  0
 13 14  1  1
 14 19  1  0
 14 15  2  0
 16 17  1  0
 18 17  1  1
 18 20  1  0
 19 18  1  0
 20 22  1  0
 21 20  2  0
M  END
$$$$
