LPS.pdb
     RDKit          3D

 22 22  0  0  1  0  0  0  0  0999 V2000
    5.6488  -12.2499   25.5439 C   0  0  0  0  0  0  0  0  0  0  0  0
    6.4650  -12.9466   26.6409 C   0  0  2  0  0  0  0  0  0  0  0  0
    7.0127  -11.8718   27.5315 C   0  0  0  0  0  0  0  0  0  0  0  0
    7.4874  -13.8550   26.0293 C   0  0  0  0  0  0  0  0  0  0  0  0
    6.7989  -15.0365   25.3674 C   0  0  2  0  0  0  0  0  0  0  0  0
    6.0482  -15.7595   26.3003 N   0  0  0  0  0  0  0  0  0  0  0  0
    7.7478  -15.7602   24.5062 C   0  0  0  0  0  0  0  0  0  0  0  0
    8.5671  -16.5267   25.1299 O   0  0  0  0  0  0  0  0  0  0  0  0
    7.8054  -15.6691   23.1238 N   0  0  0  0  0  0  0  0  0  0  0  0
    6.6761  -15.4949   22.1846 C   0  0  0  0  0  0  0  0  0  0  0  0
    7.1741  -14.2374   21.4265 C   0  0  0  0  0  0  0  0  0  0  0  0
    8.7000  -14.2327   21.6150 C   0  0  0  0  0  0  0  0  0  0  0  0
    8.9068  -15.6206   22.1846 C   0  0  1  0  0  0  0  0  0  0  0  0
   10.2279  -15.9702   22.5984 C   0  0  0  0  0  0  0  0  0  0  0  0
   11.0917  -15.1206   22.9048 O   0  0  0  0  0  0  0  0  0  0  0  0
   11.2444  -18.8525   24.9119 O   0  0  0  0  0  0  0  0  0  0  0  0
   12.0146  -18.9986   23.7789 C   0  0  0  0  0  0  0  0  0  0  0  0
   12.0638  -17.6555   23.0373 C   0  0  2  0  0  0  0  0  0  0  0  0
   10.6999  -17.3318   22.7044 N   0  0  0  0  0  0  0  0  0  0  0  0
   12.9464  -17.7190   21.8698 C   0  0  0  0  0  0  0  0  0  0  0  0
   14.1938  -17.6217   21.9805 O   0  0  0  0  0  0  0  0  0  0  0  0
   12.4220  -17.8901   20.5990 O   0  0  0  0  0  0  0  0  0  0  0  0
  2  1  1  6
  2  3  1  0
  4  2  1  0
  5  4  1  0
  5  6  1  1
  7  9  1  0
  7  5  1  0
  8  7  2  0
  9 13  1  0
 10 11  1  0
 10  9  1  0
 11 12  1  0
 12 13  1  0
 13 14  1  1
 14 19  1  0
 14 15  2  0
 16 17  1  0
 18 17  1  6
 18 20  1  0
 19 18  1  0
 20 22  1  0
 21 20  2  0
M  END
$$$$
