SEM.pdb
     RDKit          3D

 24 23  0  0  1  0  0  0  0  0999 V2000
    8.1237  -12.4304   20.3157 O   0  0  0  0  0  0  0  0  0  0  0  0
    8.8742  -13.2344   19.4805 C   0  0  0  0  0  0  0  0  0  0  0  0
    8.2362  -14.5794   19.2495 C   0  0  2  0  0  0  0  0  0  0  0  0
    6.8639  -14.4674   18.8519 N   0  0  0  0  0  0  0  0  0  0  0  0
    8.3728  -15.3732   20.5193 C   0  0  0  0  0  0  0  0  0  0  0  0
    7.3667  -15.4363   21.2589 O   0  0  0  0  0  0  0  0  0  0  0  0
    9.5681  -16.0150   20.8644 N   0  0  0  0  0  0  0  0  0  0  0  0
    9.6774  -16.8281   22.0901 C   0  0  1  0  0  0  0  0  0  0  0  0
   10.8510  -17.7139   21.9061 C   0  0  0  0  0  0  0  0  0  0  0  0
   10.8017  -18.7691   20.8756 C   0  0  0  0  0  0  0  0  0  0  0  0
   12.1305  -19.1819   20.3591 C   0  0  0  0  0  0  0  0  0  0  0  0
   12.8571  -18.3850   19.7237 O   0  0  0  0  0  0  0  0  0  0  0  0
    9.6569  -15.9686   23.2726 C   0  0  0  0  0  0  0  0  0  0  0  0
   10.4992  -14.9919   23.3197 O   0  0  0  0  0  0  0  0  0  0  0  0
   12.6270  -20.4725   20.5582 O   0  0  0  0  0  0  0  0  0  0  0  0
    6.1751  -11.0041   25.9329 C   0  0  0  0  0  0  0  0  0  0  0  0
    6.2889  -12.3731   27.0490 S   0  0  0  0  0  0  0  0  0  0  0  0
    7.7052  -13.4440   26.8918 C   0  0  0  0  0  0  0  0  0  0  0  0
    7.7273  -14.3388   25.7036 C   0  0  0  0  0  0  0  0  0  0  0  0
    8.9260  -15.2274   25.5621 C   0  0  2  0  0  0  0  0  0  0  0  0
    8.8020  -16.0891   24.3857 N   0  0  0  0  0  0  0  0  0  0  0  0
    9.2349  -16.0117   26.7654 C   0  0  0  0  0  0  0  0  0  0  0  0
    9.6585  -15.5547   27.9795 O   0  0  0  0  0  0  0  0  0  0  0  0
    9.0896  -17.2888   26.6717 O   0  0  0  0  0  0  0  0  0  0  0  0
  2  3  1  0
  2  1  1  0
  3  4  1  1
  5  6  2  0
  5  3  1  0
  7  5  1  0
  8  7  1  0
  8 13  1  0
  8  9  1  6
 10 11  1  0
 10  9  1  0
 11 15  1  0
 12 11  2  0
 13 21  1  0
 14 13  2  0
 17 16  1  0
 18 17  1  0
 20 19  1  1
 19 18  1  0
 20 22  1  0
 21 20  1  0
 22 24  2  0
 22 23  1  0
M  END
$$$$
