SEM.pdb
     RDKit          3D

 24 23  0  0  1  0  0  0  0  0999 V2000
   11.3138  -12.7505   18.3145 O   0  0  0  0  0  0  0  0  0  0  0  0
   10.5462  -13.1656   19.3850 C   0  0  0  0  0  0  0  0  0  0  0  0
    9.2900  -13.8756   18.9520 C   0  0  2  0  0  0  0  0  0  0  0  0
    8.3329  -12.9797   18.3732 N   0  0  0  0  0  0  0  0  0  0  0  0
    8.7231  -14.5750   20.1564 C   0  0  0  0  0  0  0  0  0  0  0  0
    7.6006  -14.1957   20.5556 O   0  0  0  0  0  0  0  0  0  0  0  0
    9.4143  -15.6045   20.8063 N   0  0  0  0  0  0  0  0  0  0  0  0
    8.8065  -16.3525   21.9228 C   0  0  1  0  0  0  0  0  0  0  0  0
    8.8441  -17.7840   21.5421 C   0  0  0  0  0  0  0  0  0  0  0  0
    8.3450  -18.7952   22.4940 C   0  0  0  0  0  0  0  0  0  0  0  0
    8.4277  -20.1927   22.0009 C   0  0  0  0  0  0  0  0  0  0  0  0
    8.4965  -21.1587   22.7938 O   0  0  0  0  0  0  0  0  0  0  0  0
    9.4316  -15.9719   23.1884 C   0  0  0  0  0  0  0  0  0  0  0  0
   10.0087  -16.8994   23.8758 O   0  0  0  0  0  0  0  0  0  0  0  0
    8.4325  -20.4905   20.6360 O   0  0  0  0  0  0  0  0  0  0  0  0
    5.9822  -11.7170   28.1649 C   0  0  0  0  0  0  0  0  0  0  0  0
    6.8323  -12.0628   26.6515 S   0  0  0  0  0  0  0  0  0  0  0  0
    6.4899  -13.6207   25.8558 C   0  0  0  0  0  0  0  0  0  0  0  0
    7.3394  -13.9640   24.6839 C   0  0  0  0  0  0  0  0  0  0  0  0
    8.7604  -14.3386   24.9791 C   0  0  2  0  0  0  0  0  0  0  0  0
    9.4770  -14.6808   23.7499 N   0  0  0  0  0  0  0  0  0  0  0  0
    8.9030  -15.3956   25.9894 C   0  0  0  0  0  0  0  0  0  0  0  0
    8.5787  -16.7162   25.8743 O   0  0  0  0  0  0  0  0  0  0  0  0
    9.3949  -15.0409   27.1266 O   0  0  0  0  0  0  0  0  0  0  0  0
  2  3  1  0
  2  1  1  0
  3  4  1  1
  5  6  2  0
  5  3  1  0
  7  5  1  0
  8  7  1  0
  8 13  1  0
  8  9  1  6
 10 11  1  0
 10  9  1  0
 11 15  1  0
 12 11  2  0
 13 21  1  0
 14 13  2  0
 17 16  1  0
 18 17  1  0
 20 19  1  6
 19 18  1  0
 20 22  1  0
 21 20  1  0
 22 24  2  0
 22 23  1  0
M  END
$$$$
