SEM.pdb
     RDKit          3D

 24 23  0  0  1  0  0  0  0  0999 V2000
    7.4315  -13.1318   21.5583 O   0  0  0  0  0  0  0  0  0  0  0  0
    7.9282  -13.8575   20.4933 C   0  0  0  0  0  0  0  0  0  0  0  0
    7.5487  -15.3137   20.5616 C   0  0  2  0  0  0  0  0  0  0  0  0
    6.1298  -15.5075   20.5074 N   0  0  0  0  0  0  0  0  0  0  0  0
    8.1276  -15.8770   21.8299 C   0  0  0  0  0  0  0  0  0  0  0  0
    7.3326  -16.0844   22.7724 O   0  0  0  0  0  0  0  0  0  0  0  0
    9.4930  -16.1590   21.9574 N   0  0  0  0  0  0  0  0  0  0  0  0
   10.0195  -16.8980   23.1202 C   0  0  1  0  0  0  0  0  0  0  0  0
   11.3083  -17.4925   22.6945 C   0  0  0  0  0  0  0  0  0  0  0  0
   12.1344  -18.2063   23.6874 C   0  0  0  0  0  0  0  0  0  0  0  0
   13.4325  -18.6985   23.1624 C   0  0  0  0  0  0  0  0  0  0  0  0
   14.1069  -18.0195   22.3557 O   0  0  0  0  0  0  0  0  0  0  0  0
   10.0278  -16.0410   24.3047 C   0  0  0  0  0  0  0  0  0  0  0  0
   10.5167  -14.8528   24.1827 O   0  0  0  0  0  0  0  0  0  0  0  0
   13.9568  -19.9361   23.5434 O   0  0  0  0  0  0  0  0  0  0  0  0
    6.7864  -10.8627   25.5748 C   0  0  0  0  0  0  0  0  0  0  0  0
    6.8600  -12.4326   26.3889 S   0  0  0  0  0  0  0  0  0  0  0  0
    8.2847  -13.4556   26.0706 C   0  0  0  0  0  0  0  0  0  0  0  0
    8.4329  -14.6648   26.9243 C   0  0  0  0  0  0  0  0  0  0  0  0
    9.6833  -15.4679   26.7292 C   0  0  2  0  0  0  0  0  0  0  0  0
    9.5500  -16.3737   25.5874 N   0  0  0  0  0  0  0  0  0  0  0  0
   10.1251  -16.1886   27.9307 C   0  0  0  0  0  0  0  0  0  0  0  0
   10.7131  -15.6741   29.0497 O   0  0  0  0  0  0  0  0  0  0  0  0
    9.9371  -17.4636   27.9376 O   0  0  0  0  0  0  0  0  0  0  0  0
  2  3  1  0
  2  1  1  0
  3  4  1  1
  5  6  2  0
  5  3  1  0
  7  5  1  0
  8  7  1  0
  8 13  1  0
  8  9  1  6
 10 11  1  0
 10  9  1  0
 11 15  1  0
 12 11  2  0
 13 21  1  0
 14 13  2  0
 17 16  1  0
 18 17  1  0
 20 19  1  1
 19 18  1  0
 20 22  1  0
 21 20  1  0
 22 24  2  0
 22 23  1  0
M  END
$$$$
