SEM.pdb
     RDKit          3D

 24 23  0  0  1  0  0  0  0  0999 V2000
    7.7486  -14.3859   17.4099 O   0  0  0  0  0  0  0  0  0  0  0  0
    7.3628  -13.3740   18.2671 C   0  0  0  0  0  0  0  0  0  0  0  0
    8.3975  -13.0889   19.3243 C   0  0  2  0  0  0  0  0  0  0  0  0
    9.6966  -12.8606   18.7641 N   0  0  0  0  0  0  0  0  0  0  0  0
    8.4109  -14.2538   20.2752 C   0  0  0  0  0  0  0  0  0  0  0  0
    7.3260  -14.5530   20.8199 O   0  0  0  0  0  0  0  0  0  0  0  0
    9.5804  -14.9752   20.5433 N   0  0  0  0  0  0  0  0  0  0  0  0
    9.5970  -16.0731   21.5280 C   0  0  1  0  0  0  0  0  0  0  0  0
   10.7689  -16.9180   21.1989 C   0  0  0  0  0  0  0  0  0  0  0  0
   10.7396  -17.7447   19.9768 C   0  0  0  0  0  0  0  0  0  0  0  0
   11.9602  -18.5613   19.7616 C   0  0  0  0  0  0  0  0  0  0  0  0
   12.9120  -18.1372   19.0682 O   0  0  0  0  0  0  0  0  0  0  0  0
    9.5081  -15.5383   22.8858 C   0  0  0  0  0  0  0  0  0  0  0  0
   10.4305  -14.7221   23.2712 O   0  0  0  0  0  0  0  0  0  0  0  0
   12.1002  -19.8339   20.3207 O   0  0  0  0  0  0  0  0  0  0  0  0
    5.6505  -11.1957   26.1157 C   0  0  0  0  0  0  0  0  0  0  0  0
    7.0459  -12.1169   26.6961 S   0  0  0  0  0  0  0  0  0  0  0  0
    6.9092  -13.8942   26.7049 C   0  0  0  0  0  0  0  0  0  0  0  0
    7.1000  -14.5772   25.3972 C   0  0  0  0  0  0  0  0  0  0  0  0
    8.4597  -15.1527   25.1391 C   0  0  2  0  0  0  0  0  0  0  0  0
    8.5071  -15.8183   23.8367 N   0  0  0  0  0  0  0  0  0  0  0  0
    8.9475  -16.0370   26.2061 C   0  0  0  0  0  0  0  0  0  0  0  0
    9.2704  -17.3600   26.1180 O   0  0  0  0  0  0  0  0  0  0  0  0
    9.0920  -15.5057   27.3714 O   0  0  0  0  0  0  0  0  0  0  0  0
  2  3  1  0
  2  1  1  0
  3  4  1  6
  5  6  2  0
  5  3  1  0
  7  5  1  0
  8  7  1  0
  8 13  1  0
  8  9  1  1
 10 11  1  0
 10  9  1  0
 11 15  1  0
 12 11  2  0
 13 21  1  0
 14 13  2  0
 17 16  1  0
 18 17  1  0
 20 19  1  1
 19 18  1  0
 20 22  1  0
 21 20  1  0
 22 24  2  0
 22 23  1  0
M  END
$$$$
