SEM.pdb
     RDKit          3D

 24 23  0  0  1  0  0  0  0  0999 V2000
    9.8832  -11.7070   18.7113 O   0  0  0  0  0  0  0  0  0  0  0  0
    9.3538  -12.5305   19.6855 C   0  0  0  0  0  0  0  0  0  0  0  0
    8.7682  -13.7956   19.1145 C   0  0  2  0  0  0  0  0  0  0  0  0
    7.5449  -13.5559   18.4075 N   0  0  0  0  0  0  0  0  0  0  0  0
    8.5607  -14.7564   20.2524 C   0  0  0  0  0  0  0  0  0  0  0  0
    7.4541  -14.7166   20.8329 O   0  0  0  0  0  0  0  0  0  0  0  0
    9.5562  -15.6572   20.6496 N   0  0  0  0  0  0  0  0  0  0  0  0
    9.3360  -16.6062   21.7569 C   0  0  1  0  0  0  0  0  0  0  0  0
   10.3001  -17.7143   21.5615 C   0  0  0  0  0  0  0  0  0  0  0  0
   10.3958  -18.7737   22.5843 C   0  0  0  0  0  0  0  0  0  0  0  0
   11.4347  -19.7974   22.3090 C   0  0  0  0  0  0  0  0  0  0  0  0
   12.2659  -20.1314   23.1832 O   0  0  0  0  0  0  0  0  0  0  0  0
    9.3621  -15.9046   23.0393 C   0  0  0  0  0  0  0  0  0  0  0  0
   10.3338  -15.0828   23.2545 O   0  0  0  0  0  0  0  0  0  0  0  0
   11.5307  -20.4307   21.0674 O   0  0  0  0  0  0  0  0  0  0  0  0
    6.6529  -10.8162   26.6376 C   0  0  0  0  0  0  0  0  0  0  0  0
    5.9980  -12.4282   26.9625 S   0  0  0  0  0  0  0  0  0  0  0  0
    7.1279  -13.8044   26.8804 C   0  0  0  0  0  0  0  0  0  0  0  0
    7.2451  -14.4843   25.5625 C   0  0  0  0  0  0  0  0  0  0  0  0
    8.5182  -15.2348   25.3119 C   0  0  2  0  0  0  0  0  0  0  0  0
    8.4254  -16.0263   24.0844 N   0  0  0  0  0  0  0  0  0  0  0  0
    8.9591  -16.0601   26.4445 C   0  0  0  0  0  0  0  0  0  0  0  0
    9.5914  -15.6536   27.5835 O   0  0  0  0  0  0  0  0  0  0  0  0
    8.7226  -17.3242   26.3607 O   0  0  0  0  0  0  0  0  0  0  0  0
  2  3  1  0
  2  1  1  0
  3  4  1  1
  5  6  2  0
  5  3  1  0
  7  5  1  0
  8  7  1  0
  8 13  1  0
  8  9  1  1
 10 11  1  0
 10  9  1  0
 11 15  1  0
 12 11  2  0
 13 21  1  0
 14 13  2  0
 17 16  1  0
 18 17  1  0
 20 19  1  1
 19 18  1  0
 20 22  1  0
 21 20  1  0
 22 24  2  0
 22 23  1  0
M  END
$$$$
