SEM.pdb
     RDKit          3D

 24 23  0  0  1  0  0  0  0  0999 V2000
    9.2127  -12.3309   20.3467 O   0  0  0  0  0  0  0  0  0  0  0  0
    9.3988  -13.4083   19.5029 C   0  0  0  0  0  0  0  0  0  0  0  0
    8.1344  -14.1997   19.2918 C   0  0  2  0  0  0  0  0  0  0  0  0
    7.0435  -13.3748   18.8641 N   0  0  0  0  0  0  0  0  0  0  0  0
    7.8141  -14.9007   20.5830 C   0  0  0  0  0  0  0  0  0  0  0  0
    6.8303  -14.4776   21.2284 O   0  0  0  0  0  0  0  0  0  0  0  0
    8.5775  -15.9783   21.0479 N   0  0  0  0  0  0  0  0  0  0  0  0
    8.2644  -16.6474   22.3244 C   0  0  1  0  0  0  0  0  0  0  0  0
    8.6875  -18.0597   22.1758 C   0  0  0  0  0  0  0  0  0  0  0  0
    8.7019  -18.6690   20.8319 C   0  0  0  0  0  0  0  0  0  0  0  0
    9.1497  -20.0839   20.8067 C   0  0  0  0  0  0  0  0  0  0  0  0
    9.4990  -20.6738   21.8540 O   0  0  0  0  0  0  0  0  0  0  0  0
    8.8192  -15.8889   23.4444 C   0  0  0  0  0  0  0  0  0  0  0  0
   10.0328  -15.4625   23.3382 O   0  0  0  0  0  0  0  0  0  0  0  0
    9.2011  -20.8168   19.6184 O   0  0  0  0  0  0  0  0  0  0  0  0
    6.3916  -11.1152   27.7171 C   0  0  0  0  0  0  0  0  0  0  0  0
    5.9700  -11.7805   26.1321 S   0  0  0  0  0  0  0  0  0  0  0  0
    7.1165  -12.9278   25.3927 C   0  0  0  0  0  0  0  0  0  0  0  0
    7.8515  -13.8212   26.3278 C   0  0  0  0  0  0  0  0  0  0  0  0
    8.8124  -14.7893   25.7062 C   0  0  2  0  0  0  0  0  0  0  0  0
    8.1630  -15.5635   24.6476 N   0  0  0  0  0  0  0  0  0  0  0  0
    9.4844  -15.6689   26.6721 C   0  0  0  0  0  0  0  0  0  0  0  0
   10.4089  -15.3279   27.6164 O   0  0  0  0  0  0  0  0  0  0  0  0
    9.1669  -16.9172   26.6301 O   0  0  0  0  0  0  0  0  0  0  0  0
  2  3  1  0
  2  1  1  0
  3  4  1  1
  5  6  2  0
  5  3  1  0
  7  5  1  0
  8  7  1  0
  8 13  1  0
  8  9  1  6
 10 11  1  0
 10  9  1  0
 11 15  1  0
 12 11  2  0
 13 21  1  0
 14 13  2  0
 17 16  1  0
 18 17  1  0
 20 19  1  1
 19 18  1  0
 20 22  1  0
 21 20  1  0
 22 24  2  0
 22 23  1  0
M  END
$$$$
