SEM.pdb
     RDKit          3D

 24 23  0  0  1  0  0  0  0  0999 V2000
    7.5373  -14.0794   17.5642 O   0  0  0  0  0  0  0  0  0  0  0  0
    7.6686  -12.9785   18.3878 C   0  0  0  0  0  0  0  0  0  0  0  0
    8.8084  -13.1210   19.3624 C   0  0  2  0  0  0  0  0  0  0  0  0
   10.0491  -13.4124   18.7070 N   0  0  0  0  0  0  0  0  0  0  0  0
    8.4407  -14.2034   20.3393 C   0  0  0  0  0  0  0  0  0  0  0  0
    7.3664  -14.0624   20.9633 O   0  0  0  0  0  0  0  0  0  0  0  0
    9.2583  -15.3209   20.5463 N   0  0  0  0  0  0  0  0  0  0  0  0
    8.9611  -16.3050   21.6039 C   0  0  1  0  0  0  0  0  0  0  0  0
    9.7000  -17.5401   21.2513 C   0  0  0  0  0  0  0  0  0  0  0  0
    9.7930  -18.6304   22.2413 C   0  0  0  0  0  0  0  0  0  0  0  0
   10.6315  -19.7771   21.8111 C   0  0  0  0  0  0  0  0  0  0  0  0
   11.8757  -19.6749   21.7211 O   0  0  0  0  0  0  0  0  0  0  0  0
    9.2062  -15.7226   22.9223 C   0  0  0  0  0  0  0  0  0  0  0  0
   10.3622  -15.1908   23.1383 O   0  0  0  0  0  0  0  0  0  0  0  0
   10.0716  -21.0159   21.4888 O   0  0  0  0  0  0  0  0  0  0  0  0
    6.8776  -10.4008   26.2563 C   0  0  0  0  0  0  0  0  0  0  0  0
    6.6887  -11.8841   27.2035 S   0  0  0  0  0  0  0  0  0  0  0  0
    7.8205  -13.2201   26.8697 C   0  0  0  0  0  0  0  0  0  0  0  0
    7.6363  -13.9339   25.5776 C   0  0  0  0  0  0  0  0  0  0  0  0
    8.6305  -15.0111   25.2649 C   0  0  2  0  0  0  0  0  0  0  0  0
    8.3029  -15.6743   24.0021 N   0  0  0  0  0  0  0  0  0  0  0  0
    8.8142  -15.9882   26.3465 C   0  0  0  0  0  0  0  0  0  0  0  0
    9.4352  -15.8041   27.5477 O   0  0  0  0  0  0  0  0  0  0  0  0
    8.3316  -17.1660   26.1448 O   0  0  0  0  0  0  0  0  0  0  0  0
  2  3  1  0
  2  1  1  0
  3  4  1  6
  5  6  2  0
  5  3  1  0
  7  5  1  0
  8  7  1  0
  8 13  1  0
  8  9  1  6
 10 11  1  0
 10  9  1  0
 11 15  1  0
 12 11  2  0
 13 21  1  0
 14 13  2  0
 17 16  1  0
 18 17  1  0
 20 19  1  1
 19 18  1  0
 20 22  1  0
 21 20  1  0
 22 24  2  0
 22 23  1  0
M  END
$$$$
