SEM.pdb
     RDKit          3D

 24 23  0  0  1  0  0  0  0  0999 V2000
    9.3288  -11.8903   18.7587 O   0  0  0  0  0  0  0  0  0  0  0  0
    8.9733  -12.7954   19.7395 C   0  0  0  0  0  0  0  0  0  0  0  0
    8.6827  -14.1644   19.1819 C   0  0  2  0  0  0  0  0  0  0  0  0
    7.5168  -14.1743   18.3487 N   0  0  0  0  0  0  0  0  0  0  0  0
    8.5305  -15.1072   20.3435 C   0  0  0  0  0  0  0  0  0  0  0  0
    7.3647  -15.3697   20.7111 O   0  0  0  0  0  0  0  0  0  0  0  0
    9.6384  -15.6693   20.9889 N   0  0  0  0  0  0  0  0  0  0  0  0
    9.4768  -16.6167   22.1077 C   0  0  1  0  0  0  0  0  0  0  0  0
   10.3272  -17.7890   21.7946 C   0  0  0  0  0  0  0  0  0  0  0  0
   11.7290  -17.5730   21.3873 C   0  0  0  0  0  0  0  0  0  0  0  0
   12.6310  -18.7176   21.6692 C   0  0  0  0  0  0  0  0  0  0  0  0
   13.1424  -19.3857   20.7424 O   0  0  0  0  0  0  0  0  0  0  0  0
    9.7019  -15.9386   23.3833 C   0  0  0  0  0  0  0  0  0  0  0  0
   10.6713  -15.0891   23.4489 O   0  0  0  0  0  0  0  0  0  0  0  0
   12.9476  -19.0984   22.9755 O   0  0  0  0  0  0  0  0  0  0  0  0
    5.8855  -11.8367   25.9620 C   0  0  0  0  0  0  0  0  0  0  0  0
    7.2707  -11.8518   27.0637 S   0  0  0  0  0  0  0  0  0  0  0  0
    8.3186  -13.2937   27.0440 C   0  0  0  0  0  0  0  0  0  0  0  0
    8.2459  -14.1457   25.8267 C   0  0  0  0  0  0  0  0  0  0  0  0
    9.2016  -15.2987   25.7635 C   0  0  2  0  0  0  0  0  0  0  0  0
    8.9625  -16.1110   24.5699 N   0  0  0  0  0  0  0  0  0  0  0  0
    9.2198  -16.1279   26.9761 C   0  0  0  0  0  0  0  0  0  0  0  0
    9.5741  -15.7580   28.2410 O   0  0  0  0  0  0  0  0  0  0  0  0
    8.8569  -17.3567   26.8372 O   0  0  0  0  0  0  0  0  0  0  0  0
  2  3  1  0
  2  1  1  0
  3  4  1  1
  5  6  2  0
  5  3  1  0
  7  5  1  0
  8  7  1  0
  8 13  1  0
  8  9  1  6
 10 11  1  0
 10  9  1  0
 11 15  1  0
 12 11  2  0
 13 21  1  0
 14 13  2  0
 17 16  1  0
 18 17  1  0
 20 19  1  1
 19 18  1  0
 20 22  1  0
 21 20  1  0
 22 24  2  0
 22 23  1  0
M  END
$$$$
