SEM.pdb
     RDKit          3D

 24 23  0  0  1  0  0  0  0  0999 V2000
    7.6626  -12.7968   19.5571 O   0  0  0  0  0  0  0  0  0  0  0  0
    8.7005  -13.2634   18.7744 C   0  0  0  0  0  0  0  0  0  0  0  0
    8.5709  -14.7312   18.4612 C   0  0  2  0  0  0  0  0  0  0  0  0
    7.3899  -15.0216   17.7031 N   0  0  0  0  0  0  0  0  0  0  0  0
    8.5785  -15.4785   19.7660 C   0  0  0  0  0  0  0  0  0  0  0  0
    7.4788  -15.9037   20.1818 O   0  0  0  0  0  0  0  0  0  0  0  0
    9.7588  -15.6925   20.4880 N   0  0  0  0  0  0  0  0  0  0  0  0
    9.7752  -16.5281   21.7033 C   0  0  1  0  0  0  0  0  0  0  0  0
   11.0513  -17.2809   21.6811 C   0  0  0  0  0  0  0  0  0  0  0  0
   11.4229  -18.1017   22.8497 C   0  0  0  0  0  0  0  0  0  0  0  0
   12.7147  -18.8187   22.7075 C   0  0  0  0  0  0  0  0  0  0  0  0
   13.6631  -18.6124   23.4979 O   0  0  0  0  0  0  0  0  0  0  0  0
    9.4905  -15.7130   22.8832 C   0  0  0  0  0  0  0  0  0  0  0  0
   10.0944  -14.5773   22.9884 O   0  0  0  0  0  0  0  0  0  0  0  0
   12.9286  -19.7513   21.6895 O   0  0  0  0  0  0  0  0  0  0  0  0
    6.8578  -11.1084   27.5977 C   0  0  0  0  0  0  0  0  0  0  0  0
    7.2843  -12.1796   26.2548 S   0  0  0  0  0  0  0  0  0  0  0  0
    6.5628  -13.8096   26.2447 C   0  0  0  0  0  0  0  0  0  0  0  0
    6.9457  -14.6937   25.1113 C   0  0  0  0  0  0  0  0  0  0  0  0
    8.3789  -15.1299   25.0625 C   0  0  2  0  0  0  0  0  0  0  0  0
    8.6118  -16.0348   23.9362 N   0  0  0  0  0  0  0  0  0  0  0  0
    8.8713  -15.7085   26.3200 C   0  0  0  0  0  0  0  0  0  0  0  0
    9.3463  -15.0510   27.4175 O   0  0  0  0  0  0  0  0  0  0  0  0
    8.8553  -16.9943   26.4058 O   0  0  0  0  0  0  0  0  0  0  0  0
  2  3  1  0
  2  1  1  0
  3  4  1  1
  5  6  2  0
  5  3  1  0
  7  5  1  0
  8  7  1  0
  8 13  1  0
  8  9  1  1
 10 11  1  0
 10  9  1  0
 11 15  1  0
 12 11  2  0
 13 21  1  0
 14 13  2  0
 17 16  1  0
 18 17  1  0
 20 19  1  1
 19 18  1  0
 20 22  1  0
 21 20  1  0
 22 24  2  0
 22 23  1  0
M  END
$$$$
