SEM.pdb
     RDKit          3D

 24 23  0  0  1  0  0  0  0  0999 V2000
    8.4637  -12.1364   20.1020 O   0  0  0  0  0  0  0  0  0  0  0  0
    9.1712  -12.8064   19.1232 C   0  0  0  0  0  0  0  0  0  0  0  0
    8.4963  -14.0841   18.6972 C   0  0  2  0  0  0  0  0  0  0  0  0
    7.1834  -13.8543   18.1705 N   0  0  0  0  0  0  0  0  0  0  0  0
    8.4525  -14.9970   19.8913 C   0  0  0  0  0  0  0  0  0  0  0  0
    7.3699  -15.0649   20.5130 O   0  0  0  0  0  0  0  0  0  0  0  0
    9.5684  -15.7399   20.2947 N   0  0  0  0  0  0  0  0  0  0  0  0
    9.5114  -16.6394   21.4621 C   0  0  1  0  0  0  0  0  0  0  0  0
   10.6630  -17.5638   21.3398 C   0  0  0  0  0  0  0  0  0  0  0  0
   10.9268  -18.5319   22.4219 C   0  0  0  0  0  0  0  0  0  0  0  0
   12.1627  -19.3330   22.2378 C   0  0  0  0  0  0  0  0  0  0  0  0
   13.2957  -18.8061   22.3112 O   0  0  0  0  0  0  0  0  0  0  0  0
    9.3946  -15.8631   22.6955 C   0  0  0  0  0  0  0  0  0  0  0  0
   10.1015  -14.7881   22.7976 O   0  0  0  0  0  0  0  0  0  0  0  0
   12.1165  -20.7044   21.9755 O   0  0  0  0  0  0  0  0  0  0  0  0
    7.0947  -11.1186   27.5386 C   0  0  0  0  0  0  0  0  0  0  0  0
    7.3630  -12.1703   26.1405 S   0  0  0  0  0  0  0  0  0  0  0  0
    6.8164  -13.8621   26.2698 C   0  0  0  0  0  0  0  0  0  0  0  0
    7.0786  -14.7321   25.0920 C   0  0  0  0  0  0  0  0  0  0  0  0
    8.4716  -15.2691   24.9584 C   0  0  2  0  0  0  0  0  0  0  0  0
    8.5789  -16.1626   23.8043 N   0  0  0  0  0  0  0  0  0  0  0  0
    8.9852  -15.9100   26.1765 C   0  0  0  0  0  0  0  0  0  0  0  0
    9.3776  -17.2066   26.3414 O   0  0  0  0  0  0  0  0  0  0  0  0
    9.0812  -15.1627   27.2221 O   0  0  0  0  0  0  0  0  0  0  0  0
  2  3  1  0
  2  1  1  0
  3  4  1  1
  5  6  2  0
  5  3  1  0
  7  5  1  0
  8  7  1  0
  8 13  1  0
  8  9  1  1
 10 11  1  0
 10  9  1  0
 11 15  1  0
 12 11  2  0
 13 21  1  0
 14 13  2  0
 17 16  1  0
 18 17  1  0
 20 19  1  1
 19 18  1  0
 20 22  1  0
 21 20  1  0
 22 24  2  0
 22 23  1  0
M  END
$$$$
