SEM.pdb
     RDKit          3D

 24 23  0  0  1  0  0  0  0  0999 V2000
   12.6984  -18.6779   18.8794 O   0  0  0  0  0  0  0  0  0  0  0  0
   11.6277  -18.5163   19.7368 C   0  0  0  0  0  0  0  0  0  0  0  0
   10.4191  -17.9396   19.0467 C   0  0  2  0  0  0  0  0  0  0  0  0
   10.7699  -17.1799   17.8834 N   0  0  0  0  0  0  0  0  0  0  0  0
    9.6823  -17.0940   20.0483 C   0  0  0  0  0  0  0  0  0  0  0  0
    9.8729  -15.8594   19.9967 O   0  0  0  0  0  0  0  0  0  0  0  0
    8.8205  -17.6557   20.9980 N   0  0  0  0  0  0  0  0  0  0  0  0
    8.0745  -16.8136   21.9517 C   0  0  1  0  0  0  0  0  0  0  0  0
    6.6755  -17.3019   21.9416 C   0  0  0  0  0  0  0  0  0  0  0  0
    6.4073  -18.7102   21.5916 C   0  0  0  0  0  0  0  0  0  0  0  0
    5.6467  -19.4619   22.6208 C   0  0  0  0  0  0  0  0  0  0  0  0
    4.7388  -20.2625   22.3024 O   0  0  0  0  0  0  0  0  0  0  0  0
    8.7667  -16.7692   23.2387 C   0  0  0  0  0  0  0  0  0  0  0  0
    8.7775  -17.8448   23.9521 O   0  0  0  0  0  0  0  0  0  0  0  0
    5.9091  -19.3098   23.9846 O   0  0  0  0  0  0  0  0  0  0  0  0
    6.2391  -11.0804   27.0795 C   0  0  0  0  0  0  0  0  0  0  0  0
    5.9827  -12.6052   26.2181 S   0  0  0  0  0  0  0  0  0  0  0  0
    7.2669  -13.8365   26.3298 C   0  0  0  0  0  0  0  0  0  0  0  0
    7.7903  -14.3630   25.0407 C   0  0  0  0  0  0  0  0  0  0  0  0
    9.0855  -15.1146   25.1057 C   0  0  2  0  0  0  0  0  0  0  0  0
    9.4380  -15.6630   23.7955 N   0  0  0  0  0  0  0  0  0  0  0  0
    9.1231  -16.1531   26.1442 C   0  0  0  0  0  0  0  0  0  0  0  0
    9.8505  -16.1598   27.2989 O   0  0  0  0  0  0  0  0  0  0  0  0
    8.3798  -17.1878   25.9493 O   0  0  0  0  0  0  0  0  0  0  0  0
  2  3  1  0
  2  1  1  0
  3  4  1  6
  5  6  2  0
  5  3  1  0
  7  5  1  0
  8  7  1  0
  8 13  1  0
  8  9  1  1
 10 11  1  0
 10  9  1  0
 11 15  1  0
 12 11  2  0
 13 21  1  0
 14 13  2  0
 17 16  1  0
 18 17  1  0
 20 19  1  6
 19 18  1  0
 20 22  1  0
 21 20  1  0
 22 24  2  0
 22 23  1  0
M  END
$$$$
