SEM.pdb
     RDKit          3D

 24 23  0  0  1  0  0  0  0  0999 V2000
    9.0798  -12.4267   19.8997 O   0  0  0  0  0  0  0  0  0  0  0  0
    8.1902  -12.7840   18.9055 C   0  0  0  0  0  0  0  0  0  0  0  0
    8.4188  -14.1863   18.4047 C   0  0  2  0  0  0  0  0  0  0  0  0
    7.4213  -14.5941   17.4601 N   0  0  0  0  0  0  0  0  0  0  0  0
    8.4437  -15.0990   19.5994 C   0  0  0  0  0  0  0  0  0  0  0  0
    7.3443  -15.3654   20.1318 O   0  0  0  0  0  0  0  0  0  0  0  0
    9.6390  -15.6301   20.0987 N   0  0  0  0  0  0  0  0  0  0  0  0
    9.6524  -16.5176   21.2767 C   0  0  1  0  0  0  0  0  0  0  0  0
   10.7725  -17.4669   21.0775 C   0  0  0  0  0  0  0  0  0  0  0  0
   11.1164  -18.4111   22.1582 C   0  0  0  0  0  0  0  0  0  0  0  0
   12.3020  -19.2582   21.8758 C   0  0  0  0  0  0  0  0  0  0  0  0
   13.4468  -18.9205   22.2527 O   0  0  0  0  0  0  0  0  0  0  0  0
    9.6452  -15.7278   22.5070 C   0  0  0  0  0  0  0  0  0  0  0  0
   10.4736  -14.7419   22.5925 O   0  0  0  0  0  0  0  0  0  0  0  0
   12.1934  -20.4646   21.1798 O   0  0  0  0  0  0  0  0  0  0  0  0
    6.2084  -11.1344   27.6694 C   0  0  0  0  0  0  0  0  0  0  0  0
    6.2624  -12.2280   26.2787 S   0  0  0  0  0  0  0  0  0  0  0  0
    7.6421  -13.3516   26.1720 C   0  0  0  0  0  0  0  0  0  0  0  0
    7.7198  -14.1863   24.9432 C   0  0  0  0  0  0  0  0  0  0  0  0
    8.9109  -15.0887   24.8260 C   0  0  2  0  0  0  0  0  0  0  0  0
    8.8169  -15.9257   23.6292 N   0  0  0  0  0  0  0  0  0  0  0  0
    9.1667  -15.9004   26.0236 C   0  0  0  0  0  0  0  0  0  0  0  0
    9.6241  -15.4820   27.2394 O   0  0  0  0  0  0  0  0  0  0  0  0
    8.9320  -17.1635   25.9224 O   0  0  0  0  0  0  0  0  0  0  0  0
  2  3  1  0
  2  1  1  0
  3  4  1  6
  5  6  2  0
  5  3  1  0
  7  5  1  0
  8  7  1  0
  8 13  1  0
  8  9  1  6
 10 11  1  0
 10  9  1  0
 11 15  1  0
 12 11  2  0
 13 21  1  0
 14 13  2  0
 17 16  1  0
 18 17  1  0
 20 19  1  1
 19 18  1  0
 20 22  1  0
 21 20  1  0
 22 24  2  0
 22 23  1  0
M  END
$$$$
