SEM.pdb
     RDKit          3D

 24 23  0  0  1  0  0  0  0  0999 V2000
    7.2999  -14.2828   21.2179 O   0  0  0  0  0  0  0  0  0  0  0  0
    8.2215  -14.5247   20.2181 C   0  0  0  0  0  0  0  0  0  0  0  0
    8.4877  -15.9946   20.0236 C   0  0  2  0  0  0  0  0  0  0  0  0
    7.2889  -16.7317   19.7533 N   0  0  0  0  0  0  0  0  0  0  0  0
    9.1720  -16.5022   21.2626 C   0  0  0  0  0  0  0  0  0  0  0  0
    8.4725  -17.1507   22.0709 O   0  0  0  0  0  0  0  0  0  0  0  0
   10.5297  -16.2637   21.5072 N   0  0  0  0  0  0  0  0  0  0  0  0
   11.1697  -16.6883   22.7664 C   0  0  1  0  0  0  0  0  0  0  0  0
   12.6308  -16.6846   22.5198 C   0  0  0  0  0  0  0  0  0  0  0  0
   13.5498  -16.9771   23.6367 C   0  0  0  0  0  0  0  0  0  0  0  0
   14.9861  -16.9781   23.2625 C   0  0  0  0  0  0  0  0  0  0  0  0
   15.6096  -18.0480   23.0803 O   0  0  0  0  0  0  0  0  0  0  0  0
   10.6698  -15.8894   23.8841 C   0  0  0  0  0  0  0  0  0  0  0  0
   10.7196  -14.6044   23.7733 O   0  0  0  0  0  0  0  0  0  0  0  0
   15.7027  -15.7902   23.0978 O   0  0  0  0  0  0  0  0  0  0  0  0
    5.7830  -11.7689   27.2738 C   0  0  0  0  0  0  0  0  0  0  0  0
    6.1608  -13.2504   26.3821 S   0  0  0  0  0  0  0  0  0  0  0  0
    7.6059  -14.1647   26.8852 C   0  0  0  0  0  0  0  0  0  0  0  0
    8.2601  -14.9937   25.8376 C   0  0  0  0  0  0  0  0  0  0  0  0
    9.6433  -15.4832   26.1439 C   0  0  2  0  0  0  0  0  0  0  0  0
   10.1274  -16.3756   25.0898 N   0  0  0  0  0  0  0  0  0  0  0  0
    9.7790  -16.1029   27.4690 C   0  0  0  0  0  0  0  0  0  0  0  0
   10.2931  -17.3299   27.7733 O   0  0  0  0  0  0  0  0  0  0  0  0
    9.3650  -15.4089   28.4729 O   0  0  0  0  0  0  0  0  0  0  0  0
  2  3  1  0
  2  1  1  0
  3  4  1  1
  5  6  2  0
  5  3  1  0
  7  5  1  0
  8  7  1  0
  8 13  1  0
  8  9  1  6
 10 11  1  0
 10  9  1  0
 11 15  1  0
 12 11  2  0
 13 21  1  0
 14 13  2  0
 17 16  1  0
 18 17  1  0
 20 19  1  6
 19 18  1  0
 20 22  1  0
 21 20  1  0
 22 24  2  0
 22 23  1  0
M  END
$$$$
