EPD.pdb
     RDKit          3D

 25 25  0  0  1  0  0  0  0  0999 V2000
   22.5481  -34.8153   -1.9850 N   0  0  0  0  0  0  0  0  0  0  0  0
   23.1036  -33.7532   -1.1427 C   0  0  1  0  0  0  0  0  0  0  0  0
   21.8767  -33.1277   -0.4512 C   0  0  0  0  0  0  0  0  0  0  0  0
   21.2067  -32.2850   -1.5154 C   0  0  0  0  0  0  0  0  0  0  0  0
   19.9511  -31.6708   -1.0304 C   0  0  0  0  0  0  0  0  0  0  0  0
   19.1847  -31.0268   -1.7850 O   0  0  0  0  0  0  0  0  0  0  0  0
   23.9698  -34.3708   -0.1292 C   0  0  0  0  0  0  0  0  0  0  0  0
   23.6330  -35.5392    0.2878 O   0  0  0  0  0  0  0  0  0  0  0  0
   19.6166  -31.8163    0.3046 O   0  0  0  0  0  0  0  0  0  0  0  0
   25.1331  -33.7585    0.3994 N   0  0  0  0  0  0  0  0  0  0  0  0
   25.6024  -32.4253    0.0787 C   0  0  0  0  0  0  0  0  0  0  0  0
   27.0965  -32.4295    0.3353 C   0  0  0  0  0  0  0  0  0  0  0  0
   27.3935  -33.8058    0.8525 C   0  0  0  0  0  0  0  0  0  0  0  0
   26.0483  -34.3202    1.3293 C   0  0  1  0  0  0  0  0  0  0  0  0
   25.8167  -33.8461    2.7265 C   0  0  0  0  0  0  0  0  0  0  0  0
   25.3992  -32.7000    3.0065 O   0  0  0  0  0  0  0  0  0  0  0  0
   26.0833  -34.7385    3.7771 N   0  0  0  0  0  0  0  0  0  0  0  0
   25.8361  -34.4134    5.1936 C   0  0  1  0  0  0  0  0  0  0  0  0
   25.5388  -35.7275    5.8541 C   0  0  0  0  0  0  0  0  0  0  0  0
   25.3188  -35.6873    7.2974 C   0  0  0  0  0  0  0  0  0  0  0  0
   25.2931  -34.5199    7.8282 O   0  0  0  0  0  0  0  0  0  0  0  0
   26.9793  -33.6816    5.7543 C   0  0  0  0  0  0  0  0  0  0  0  0
   26.8467  -32.9562    6.7592 O   0  0  0  0  0  0  0  0  0  0  0  0
   25.1378  -36.7286    8.1595 O   0  0  0  0  0  0  0  0  0  0  0  0
   28.2497  -33.7658    5.1922 O   0  0  0  0  0  0  0  0  0  0  0  0
  2  7  1  0
  2  1  1  6
  3  2  1  0
  4  3  1  0
  5  4  1  0
  6  5  2  0
  7  8  2  0
  9  5  1  0
 10  7  1  0
 10 14  1  0
 11 10  1  0
 12 11  1  0
 12 13  1  0
 13 14  1  0
 14 15  1  1
 15 17  1  0
 16 15  2  0
 18 17  1  0
 18 19  1  1
 19 20  1  0
 20 24  1  0
 20 21  2  0
 22 18  1  0
 23 22  2  0
 25 22  1  0
M  END
$$$$
