EPD.pdb
     RDKit          3D

 25 25  0  0  1  0  0  0  0  0999 V2000
   18.8340  -12.4045  -17.0231 N   0  0  0  0  0  0  0  0  0  0  0  0
   20.1054  -11.6956  -17.1881 C   0  0  1  0  0  0  0  0  0  0  0  0
   19.9185  -10.8614  -18.4703 C   0  0  0  0  0  0  0  0  0  0  0  0
   19.8390  -11.8720  -19.5945 C   0  0  0  0  0  0  0  0  0  0  0  0
   19.6574  -11.2252  -20.9126 C   0  0  0  0  0  0  0  0  0  0  0  0
   18.5320  -11.1082  -21.4526 O   0  0  0  0  0  0  0  0  0  0  0  0
   20.2843  -10.7924  -16.0430 C   0  0  0  0  0  0  0  0  0  0  0  0
   19.2233  -10.4482  -15.4042 O   0  0  0  0  0  0  0  0  0  0  0  0
   20.7732  -10.7338  -21.5674 O   0  0  0  0  0  0  0  0  0  0  0  0
   21.5396  -10.2937  -15.6149 N   0  0  0  0  0  0  0  0  0  0  0  0
   22.8072  -10.5222  -16.2794 C   0  0  0  0  0  0  0  0  0  0  0  0
   23.8760  -10.3742  -15.2145 C   0  0  0  0  0  0  0  0  0  0  0  0
   23.1272  -10.0093  -13.9670 C   0  0  0  0  0  0  0  0  0  0  0  0
   21.7959   -9.4875  -14.4738 C   0  0  1  0  0  0  0  0  0  0  0  0
   21.9401   -8.0395  -14.8098 C   0  0  0  0  0  0  0  0  0  0  0  0
   22.4909   -7.6245  -15.8541 O   0  0  0  0  0  0  0  0  0  0  0  0
   21.4283   -7.0989  -13.9017 N   0  0  0  0  0  0  0  0  0  0  0  0
   21.2850   -5.6664  -14.2194 C   0  0  1  0  0  0  0  0  0  0  0  0
   19.8354   -5.3543  -13.9895 C   0  0  0  0  0  0  0  0  0  0  0  0
   19.4376   -3.9629  -14.1866 C   0  0  0  0  0  0  0  0  0  0  0  0
   20.3424   -3.1815  -14.6511 O   0  0  0  0  0  0  0  0  0  0  0  0
   22.2255   -4.8717  -13.4190 C   0  0  0  0  0  0  0  0  0  0  0  0
   22.4072   -3.6616  -13.6564 O   0  0  0  0  0  0  0  0  0  0  0  0
   18.2288   -3.3808  -13.9404 O   0  0  0  0  0  0  0  0  0  0  0  0
   22.9484   -5.4308  -12.3694 O   0  0  0  0  0  0  0  0  0  0  0  0
  2  7  1  0
  2  1  1  1
  3  2  1  0
  4  3  1  0
  5  4  1  0
  6  5  2  0
  7  8  2  0
  9  5  1  0
 10  7  1  0
 10 14  1  0
 11 10  1  0
 12 11  1  0
 12 13  1  0
 13 14  1  0
 14 15  1  6
 15 17  1  0
 16 15  2  0
 18 17  1  0
 18 19  1  1
 19 20  1  0
 20 24  1  0
 20 21  2  0
 22 18  1  0
 23 22  2  0
 25 22  1  0
M  END
$$$$
