EPD.pdb
     RDKit          3D

 25 25  0  0  1  0  0  0  0  0999 V2000
   25.7788  -22.1615  -16.5177 N   0  0  0  0  0  0  0  0  0  0  0  0
   26.5753  -21.2127  -15.7359 C   0  0  1  0  0  0  0  0  0  0  0  0
   25.6882  -19.9568  -15.6330 C   0  0  0  0  0  0  0  0  0  0  0  0
   26.6269  -18.7882  -15.8440 C   0  0  0  0  0  0  0  0  0  0  0  0
   27.0358  -18.6512  -17.2593 C   0  0  0  0  0  0  0  0  0  0  0  0
   27.2076  -19.6432  -18.0064 O   0  0  0  0  0  0  0  0  0  0  0  0
   26.7792  -21.7744  -14.3935 C   0  0  0  0  0  0  0  0  0  0  0  0
   27.4610  -22.8615  -14.3169 O   0  0  0  0  0  0  0  0  0  0  0  0
   27.2339  -17.3804  -17.7703 O   0  0  0  0  0  0  0  0  0  0  0  0
   26.2752  -21.1910  -13.2048 N   0  0  0  0  0  0  0  0  0  0  0  0
   26.9553  -20.1939  -12.4024 C   0  0  0  0  0  0  0  0  0  0  0  0
   26.3976  -20.3277  -10.9991 C   0  0  0  0  0  0  0  0  0  0  0  0
   25.3578  -21.4040  -11.1000 C   0  0  0  0  0  0  0  0  0  0  0  0
   25.0289  -21.4632  -12.5799 C   0  0  1  0  0  0  0  0  0  0  0  0
   23.9915  -20.4334  -12.8863 C   0  0  0  0  0  0  0  0  0  0  0  0
   24.2460  -19.3404  -13.4402 O   0  0  0  0  0  0  0  0  0  0  0  0
   22.6620  -20.7126  -12.5320 N   0  0  0  0  0  0  0  0  0  0  0  0
   21.5307  -20.5664  -13.4659 C   0  0  1  0  0  0  0  0  0  0  0  0
   21.9552  -21.2814  -14.7150 C   0  0  0  0  0  0  0  0  0  0  0  0
   21.0187  -21.2319  -15.8347 C   0  0  0  0  0  0  0  0  0  0  0  0
   19.9655  -20.5226  -15.6538 O   0  0  0  0  0  0  0  0  0  0  0  0
   20.2958  -21.0704  -12.8515 C   0  0  0  0  0  0  0  0  0  0  0  0
   20.2116  -22.2484  -12.4528 O   0  0  0  0  0  0  0  0  0  0  0  0
   21.1138  -21.8425  -17.0507 O   0  0  0  0  0  0  0  0  0  0  0  0
   19.1752  -20.2610  -12.6892 O   0  0  0  0  0  0  0  0  0  0  0  0
  2  7  1  0
  2  1  1  6
  3  2  1  0
  4  3  1  0
  5  4  1  0
  6  5  2  0
  7  8  2  0
  9  5  1  0
 10  7  1  0
 10 14  1  0
 11 10  1  0
 12 11  1  0
 12 13  1  0
 13 14  1  0
 14 15  1  1
 15 17  1  0
 16 15  2  0
 18 17  1  0
 18 19  1  6
 19 20  1  0
 20 24  1  0
 20 21  2  0
 22 18  1  0
 23 22  2  0
 25 22  1  0
M  END
$$$$
