EPD.pdb
     RDKit          3D

 25 25  0  0  1  0  0  0  0  0999 V2000
   17.1919  -12.0745  -14.7129 N   0  0  0  0  0  0  0  0  0  0  0  0
   18.3128  -11.5551  -15.5002 C   0  0  1  0  0  0  0  0  0  0  0  0
   17.6523  -10.9176  -16.7381 C   0  0  0  0  0  0  0  0  0  0  0  0
   17.0809  -12.0772  -17.5258 C   0  0  0  0  0  0  0  0  0  0  0  0
   16.4210  -11.6315  -18.7727 C   0  0  0  0  0  0  0  0  0  0  0  0
   16.9928  -11.6785  -19.8875 O   0  0  0  0  0  0  0  0  0  0  0  0
   18.9849  -10.5099  -14.7161 C   0  0  0  0  0  0  0  0  0  0  0  0
   18.2758   -9.8998  -13.8344 O   0  0  0  0  0  0  0  0  0  0  0  0
   15.1269  -11.1469  -18.6991 O   0  0  0  0  0  0  0  0  0  0  0  0
   20.3456  -10.1492  -14.8772 N   0  0  0  0  0  0  0  0  0  0  0  0
   21.2566  -10.7147  -15.8523 C   0  0  0  0  0  0  0  0  0  0  0  0
   22.6505  -10.5319  -15.2850 C   0  0  0  0  0  0  0  0  0  0  0  0
   22.4457   -9.8019  -13.9907 C   0  0  0  0  0  0  0  0  0  0  0  0
   21.0684   -9.1813  -14.1299 C   0  0  1  0  0  0  0  0  0  0  0  0
   21.1958   -7.8763  -14.8448 C   0  0  0  0  0  0  0  0  0  0  0  0
   21.3854   -7.7802  -16.0781 O   0  0  0  0  0  0  0  0  0  0  0  0
   21.0965   -6.6983  -14.0874 N   0  0  0  0  0  0  0  0  0  0  0  0
   21.0150   -5.3558  -14.6910 C   0  0  1  0  0  0  0  0  0  0  0  0
   19.6667   -4.8274  -14.2977 C   0  0  0  0  0  0  0  0  0  0  0  0
   19.3890   -3.4397  -14.6585 C   0  0  0  0  0  0  0  0  0  0  0  0
   19.7225   -3.0920  -15.8472 O   0  0  0  0  0  0  0  0  0  0  0  0
   22.1534   -4.5345  -14.2597 C   0  0  0  0  0  0  0  0  0  0  0  0
   22.5406   -3.5654  -14.9415 O   0  0  0  0  0  0  0  0  0  0  0  0
   18.8221   -2.4601  -13.8974 O   0  0  0  0  0  0  0  0  0  0  0  0
   22.8434   -4.8005  -13.0807 O   0  0  0  0  0  0  0  0  0  0  0  0
  2  7  1  0
  2  1  1  1
  3  2  1  0
  4  3  1  0
  5  4  1  0
  6  5  2  0
  7  8  2  0
  9  5  1  0
 10  7  1  0
 10 14  1  0
 11 10  1  0
 12 11  1  0
 12 13  1  0
 13 14  1  0
 14 15  1  6
 15 17  1  0
 16 15  2  0
 18 17  1  0
 18 19  1  1
 19 20  1  0
 20 24  1  0
 20 21  2  0
 22 18  1  0
 23 22  2  0
 25 22  1  0
M  END
$$$$
