EPD.pdb
     RDKit          3D

 25 25  0  0  1  0  0  0  0  0999 V2000
   28.4362  -22.5158  -15.7850 N   0  0  0  0  0  0  0  0  0  0  0  0
   27.9119  -21.3195  -15.1218 C   0  0  1  0  0  0  0  0  0  0  0  0
   27.7172  -20.3005  -16.2614 C   0  0  0  0  0  0  0  0  0  0  0  0
   27.2259  -19.0377  -15.5864 C   0  0  0  0  0  0  0  0  0  0  0  0
   26.8968  -17.9764  -16.5633 C   0  0  0  0  0  0  0  0  0  0  0  0
   27.6939  -17.0491  -16.8396 O   0  0  0  0  0  0  0  0  0  0  0  0
   26.6050  -21.6491  -14.5366 C   0  0  0  0  0  0  0  0  0  0  0  0
   25.8183  -22.3767  -15.2467 O   0  0  0  0  0  0  0  0  0  0  0  0
   25.6639  -18.0146  -17.1908 O   0  0  0  0  0  0  0  0  0  0  0  0
   26.1775  -21.2170  -13.2568 N   0  0  0  0  0  0  0  0  0  0  0  0
   26.8836  -20.2807  -12.4050 C   0  0  0  0  0  0  0  0  0  0  0  0
   26.4456  -20.5861  -10.9862 C   0  0  0  0  0  0  0  0  0  0  0  0
   25.4403  -21.6908  -11.1240 C   0  0  0  0  0  0  0  0  0  0  0  0
   24.9960  -21.6083  -12.5722 C   0  0  1  0  0  0  0  0  0  0  0  0
   23.9011  -20.5989  -12.6855 C   0  0  0  0  0  0  0  0  0  0  0  0
   24.1006  -19.3637  -12.7115 O   0  0  0  0  0  0  0  0  0  0  0  0
   22.5800  -21.0671  -12.7669 N   0  0  0  0  0  0  0  0  0  0  0  0
   21.4996  -20.3205  -13.4368 C   0  0  1  0  0  0  0  0  0  0  0  0
   21.3115  -21.0013  -14.7607 C   0  0  0  0  0  0  0  0  0  0  0  0
   20.2700  -20.4518  -15.6248 C   0  0  0  0  0  0  0  0  0  0  0  0
   19.6142  -19.4573  -15.1494 O   0  0  0  0  0  0  0  0  0  0  0  0
   20.3047  -20.2807  -12.5841 C   0  0  0  0  0  0  0  0  0  0  0  0
   19.9622  -21.2731  -11.9120 O   0  0  0  0  0  0  0  0  0  0  0  0
   19.8991  -20.8571  -16.8732 O   0  0  0  0  0  0  0  0  0  0  0  0
   19.5094  -19.1423  -12.4903 O   0  0  0  0  0  0  0  0  0  0  0  0
  2  7  1  0
  2  1  1  6
  3  2  1  0
  4  3  1  0
  5  4  1  0
  6  5  2  0
  7  8  2  0
  9  5  1  0
 10  7  1  0
 10 14  1  0
 11 10  1  0
 12 11  1  0
 12 13  1  0
 13 14  1  0
 14 15  1  1
 15 17  1  0
 16 15  2  0
 18 17  1  0
 18 19  1  6
 19 20  1  0
 20 24  1  0
 20 21  2  0
 22 18  1  0
 23 22  2  0
 25 22  1  0
M  END
$$$$
