EPD.pdb
     RDKit          3D

 25 25  0  0  1  0  0  0  0  0999 V2000
   12.6779  -24.9715    1.7484 N   0  0  0  0  0  0  0  0  0  0  0  0
   14.1166  -24.8568    1.9992 C   0  0  1  0  0  0  0  0  0  0  0  0
   14.6288  -23.9208    0.8872 C   0  0  0  0  0  0  0  0  0  0  0  0
   13.4269  -23.0981    0.4747 C   0  0  0  0  0  0  0  0  0  0  0  0
   13.7876  -22.0240   -0.4767 C   0  0  0  0  0  0  0  0  0  0  0  0
   12.9450  -21.2056   -0.9148 O   0  0  0  0  0  0  0  0  0  0  0  0
   14.3095  -24.2107    3.3047 C   0  0  0  0  0  0  0  0  0  0  0  0
   13.2542  -23.7858    3.9033 O   0  0  0  0  0  0  0  0  0  0  0  0
   15.1035  -21.9247   -0.8938 O   0  0  0  0  0  0  0  0  0  0  0  0
   15.5715  -24.0374    3.9251 N   0  0  0  0  0  0  0  0  0  0  0  0
   16.8437  -24.4675    3.3799 C   0  0  0  0  0  0  0  0  0  0  0  0
   17.7698  -24.6567    4.5651 C   0  0  0  0  0  0  0  0  0  0  0  0
   16.9514  -24.2621    5.7587 C   0  0  0  0  0  0  0  0  0  0  0  0
   15.8315  -23.4197    5.1775 C   0  0  1  0  0  0  0  0  0  0  0  0
   16.3078  -22.0109    5.0393 C   0  0  0  0  0  0  0  0  0  0  0  0
   17.0985  -21.6338    4.1455 O   0  0  0  0  0  0  0  0  0  0  0  0
   15.8396  -21.0641    5.9642 N   0  0  0  0  0  0  0  0  0  0  0  0
   16.2802  -19.6572    5.9712 C   0  0  1  0  0  0  0  0  0  0  0  0
   15.0204  -18.8497    6.0830 C   0  0  0  0  0  0  0  0  0  0  0  0
   15.1896  -17.4015    6.1675 C   0  0  0  0  0  0  0  0  0  0  0  0
   16.3958  -16.9725    6.0887 O   0  0  0  0  0  0  0  0  0  0  0  0
   17.2567  -19.4356    7.0454 C   0  0  0  0  0  0  0  0  0  0  0  0
   17.8555  -18.3478    7.1542 O   0  0  0  0  0  0  0  0  0  0  0  0
   14.2335  -16.4410    6.3213 O   0  0  0  0  0  0  0  0  0  0  0  0
   17.5534  -20.4228    7.9806 O   0  0  0  0  0  0  0  0  0  0  0  0
  2  7  1  0
  2  1  1  6
  3  2  1  0
  4  3  1  0
  5  4  1  0
  6  5  2  0
  7  8  2  0
  9  5  1  0
 10  7  1  0
 10 14  1  0
 11 10  1  0
 12 11  1  0
 12 13  1  0
 13 14  1  0
 14 15  1  6
 15 17  1  0
 16 15  2  0
 18 17  1  0
 18 19  1  1
 19 20  1  0
 20 24  1  0
 20 21  2  0
 22 18  1  0
 23 22  2  0
 25 22  1  0
M  END
$$$$
