EPD.pdb
     RDKit          3D

 25 25  0  0  1  0  0  0  0  0999 V2000
   13.3219   -9.1356  -12.4735 N   0  0  0  0  0  0  0  0  0  0  0  0
   14.3105   -9.2375  -11.3974 C   0  0  1  0  0  0  0  0  0  0  0  0
   15.0912  -10.5286  -11.7115 C   0  0  0  0  0  0  0  0  0  0  0  0
   14.1492  -11.6594  -11.3572 C   0  0  0  0  0  0  0  0  0  0  0  0
   14.7746  -12.9862  -11.5510 C   0  0  0  0  0  0  0  0  0  0  0  0
   15.5780  -13.4759  -10.7225 O   0  0  0  0  0  0  0  0  0  0  0  0
   15.2184   -8.0861  -11.4916 C   0  0  0  0  0  0  0  0  0  0  0  0
   15.4425   -7.6186  -12.6679 O   0  0  0  0  0  0  0  0  0  0  0  0
   14.4572  -13.7069  -12.6889 O   0  0  0  0  0  0  0  0  0  0  0  0
   15.8447   -7.4766  -10.3762 N   0  0  0  0  0  0  0  0  0  0  0  0
   15.7569   -7.9384   -9.0052 C   0  0  0  0  0  0  0  0  0  0  0  0
   16.0100   -6.7247   -8.1328 C   0  0  0  0  0  0  0  0  0  0  0  0
   16.2846   -5.6091   -9.0973 C   0  0  0  0  0  0  0  0  0  0  0  0
   16.6655   -6.3174  -10.3837 C   0  0  1  0  0  0  0  0  0  0  0  0
   18.1230   -6.6409  -10.3443 C   0  0  0  0  0  0  0  0  0  0  0  0
   18.5986   -7.6088   -9.7094 O   0  0  0  0  0  0  0  0  0  0  0  0
   19.0009   -5.8114  -11.0601 N   0  0  0  0  0  0  0  0  0  0  0  0
   20.1629   -6.3229  -11.8096 C   0  0  1  0  0  0  0  0  0  0  0  0
   19.6078   -7.3662  -12.7343 C   0  0  0  0  0  0  0  0  0  0  0  0
   20.5437   -7.9314  -13.7027 C   0  0  0  0  0  0  0  0  0  0  0  0
   21.7808   -7.6469  -13.5188 O   0  0  0  0  0  0  0  0  0  0  0  0
   20.8670   -5.2176  -12.4723 C   0  0  0  0  0  0  0  0  0  0  0  0
   22.1118   -5.1527  -12.4639 O   0  0  0  0  0  0  0  0  0  0  0  0
   20.2771   -8.7227  -14.7812 O   0  0  0  0  0  0  0  0  0  0  0  0
   20.1804   -4.2032  -13.1330 O   0  0  0  0  0  0  0  0  0  0  0  0
  2  7  1  0
  2  1  1  6
  3  2  1  0
  4  3  1  0
  5  4  1  0
  6  5  2  0
  7  8  2  0
  9  5  1  0
 10  7  1  0
 10 14  1  0
 11 10  1  0
 12 11  1  0
 12 13  1  0
 13 14  1  0
 14 15  1  1
 15 17  1  0
 16 15  2  0
 18 17  1  0
 18 19  1  6
 19 20  1  0
 20 24  1  0
 20 21  2  0
 22 18  1  0
 23 22  2  0
 25 22  1  0
M  END
$$$$
