EPD.pdb
     RDKit          3D

 25 25  0  0  1  0  0  0  0  0999 V2000
   27.2434  -19.9397  -18.2057 N   0  0  0  0  0  0  0  0  0  0  0  0
   27.7181  -19.3681  -16.9432 C   0  0  1  0  0  0  0  0  0  0  0  0
   27.0287  -17.9924  -16.8590 C   0  0  0  0  0  0  0  0  0  0  0  0
   25.5532  -18.2746  -17.0462 C   0  0  0  0  0  0  0  0  0  0  0  0
   24.7365  -17.0435  -16.9662 C   0  0  0  0  0  0  0  0  0  0  0  0
   23.9808  -16.8024  -15.9954 O   0  0  0  0  0  0  0  0  0  0  0  0
   27.2430  -20.2175  -15.8423 C   0  0  0  0  0  0  0  0  0  0  0  0
   26.2779  -21.0243  -16.1069 O   0  0  0  0  0  0  0  0  0  0  0  0
   24.8144  -16.1299  -18.0027 O   0  0  0  0  0  0  0  0  0  0  0  0
   27.7836  -20.1944  -14.5328 N   0  0  0  0  0  0  0  0  0  0  0  0
   28.7721  -19.2526  -14.0466 C   0  0  0  0  0  0  0  0  0  0  0  0
   29.4852  -19.9417  -12.8999 C   0  0  0  0  0  0  0  0  0  0  0  0
   28.8014  -21.2700  -12.7653 C   0  0  0  0  0  0  0  0  0  0  0  0
   27.4681  -21.0721  -13.4614 C   0  0  1  0  0  0  0  0  0  0  0  0
   26.5002  -20.4765  -12.4923 C   0  0  0  0  0  0  0  0  0  0  0  0
   26.4752  -19.2597  -12.2009 O   0  0  0  0  0  0  0  0  0  0  0  0
   25.5714  -21.3326  -11.8794 N   0  0  0  0  0  0  0  0  0  0  0  0
   24.4664  -20.8493  -11.0316 C   0  0  1  0  0  0  0  0  0  0  0  0
   23.2767  -21.6745  -11.4257 C   0  0  0  0  0  0  0  0  0  0  0  0
   22.1910  -20.9609  -12.0930 C   0  0  0  0  0  0  0  0  0  0  0  0
   22.3465  -19.6938  -12.2179 O   0  0  0  0  0  0  0  0  0  0  0  0
   24.8387  -20.9348   -9.6136 C   0  0  0  0  0  0  0  0  0  0  0  0
   25.6155  -21.8204   -9.2061 O   0  0  0  0  0  0  0  0  0  0  0  0
   21.0293  -21.4630  -12.6015 O   0  0  0  0  0  0  0  0  0  0  0  0
   24.3442  -20.0379   -8.6712 O   0  0  0  0  0  0  0  0  0  0  0  0
  2  7  1  0
  2  1  1  6
  3  2  1  0
  4  3  1  0
  5  4  1  0
  6  5  2  0
  7  8  2  0
  9  5  1  0
 10  7  1  0
 10 14  1  0
 11 10  1  0
 12 11  1  0
 12 13  1  0
 13 14  1  0
 14 15  1  1
 15 17  1  0
 16 15  2  0
 18 17  1  0
 18 19  1  1
 19 20  1  0
 20 24  1  0
 20 21  2  0
 22 18  1  0
 23 22  2  0
 25 22  1  0
M  END
$$$$
