EPD.pdb
     RDKit          3D

 25 25  0  0  1  0  0  0  0  0999 V2000
   24.0263  -14.9313  -17.4323 N   0  0  0  0  0  0  0  0  0  0  0  0
   24.4336  -13.5930  -17.8671 C   0  0  1  0  0  0  0  0  0  0  0  0
   23.5457  -13.2982  -19.0917 C   0  0  0  0  0  0  0  0  0  0  0  0
   24.0267  -14.2463  -20.1694 C   0  0  0  0  0  0  0  0  0  0  0  0
   23.3469  -14.0105  -21.4621 C   0  0  0  0  0  0  0  0  0  0  0  0
   23.0412  -12.8612  -21.8589 O   0  0  0  0  0  0  0  0  0  0  0  0
   24.1140  -12.6402  -16.7951 C   0  0  0  0  0  0  0  0  0  0  0  0
   23.1126  -12.9283  -16.0423 O   0  0  0  0  0  0  0  0  0  0  0  0
   23.0405  -15.1013  -22.2567 O   0  0  0  0  0  0  0  0  0  0  0  0
   24.8384  -11.4469  -16.5528 N   0  0  0  0  0  0  0  0  0  0  0  0
   25.9996  -11.0011  -17.2968 C   0  0  0  0  0  0  0  0  0  0  0  0
   26.7783  -10.0953  -16.3632 C   0  0  0  0  0  0  0  0  0  0  0  0
   25.9571  -10.0391  -15.1092 C   0  0  0  0  0  0  0  0  0  0  0  0
   24.5729  -10.4728  -15.5536 C   0  0  1  0  0  0  0  0  0  0  0  0
   23.8411   -9.2842  -16.0851 C   0  0  0  0  0  0  0  0  0  0  0  0
   23.9578   -8.8702  -17.2603 O   0  0  0  0  0  0  0  0  0  0  0  0
   22.9776   -8.5997  -15.2150 N   0  0  0  0  0  0  0  0  0  0  0  0
   21.6745   -8.0540  -15.6362 C   0  0  1  0  0  0  0  0  0  0  0  0
   20.7009   -9.1834  -15.4686 C   0  0  0  0  0  0  0  0  0  0  0  0
   19.2999   -8.8707  -15.7379 C   0  0  0  0  0  0  0  0  0  0  0  0
   18.9837   -8.7331  -16.9733 O   0  0  0  0  0  0  0  0  0  0  0  0
   21.3582   -6.8429  -14.8683 C   0  0  0  0  0  0  0  0  0  0  0  0
   21.7179   -6.7235  -13.6808 O   0  0  0  0  0  0  0  0  0  0  0  0
   18.2795   -8.7034  -14.8483 O   0  0  0  0  0  0  0  0  0  0  0  0
   20.6490   -5.7845  -15.4288 O   0  0  0  0  0  0  0  0  0  0  0  0
  2  7  1  0
  2  1  1  1
  3  2  1  0
  4  3  1  0
  5  4  1  0
  6  5  2  0
  7  8  2  0
  9  5  1  0
 10  7  1  0
 10 14  1  0
 11 10  1  0
 12 11  1  0
 12 13  1  0
 13 14  1  0
 14 15  1  6
 15 17  1  0
 16 15  2  0
 18 17  1  0
 18 19  1  1
 19 20  1  0
 20 24  1  0
 20 21  2  0
 22 18  1  0
 23 22  2  0
 25 22  1  0
M  END
$$$$
