EPD.pdb
     RDKit          3D

 25 25  0  0  1  0  0  0  0  0999 V2000
   27.9177  -23.2140  -16.6356 N   0  0  0  0  0  0  0  0  0  0  0  0
   26.9446  -22.3300  -17.2817 C   0  0  1  0  0  0  0  0  0  0  0  0
   25.6750  -22.4562  -16.4173 C   0  0  0  0  0  0  0  0  0  0  0  0
   24.6886  -23.2262  -17.2692 C   0  0  0  0  0  0  0  0  0  0  0  0
   24.5153  -24.6183  -16.7992 C   0  0  0  0  0  0  0  0  0  0  0  0
   23.7168  -25.4157  -17.3454 O   0  0  0  0  0  0  0  0  0  0  0  0
   27.4486  -20.9518  -17.2059 C   0  0  0  0  0  0  0  0  0  0  0  0
   28.3079  -20.5986  -18.0942 O   0  0  0  0  0  0  0  0  0  0  0  0
   25.2643  -25.0493  -15.7183 O   0  0  0  0  0  0  0  0  0  0  0  0
   27.0433  -20.0120  -16.2261 N   0  0  0  0  0  0  0  0  0  0  0  0
   27.6005  -18.6857  -16.0503 C   0  0  0  0  0  0  0  0  0  0  0  0
   27.3529  -18.3110  -14.6024 C   0  0  0  0  0  0  0  0  0  0  0  0
   26.5974  -19.4731  -14.0288 C   0  0  0  0  0  0  0  0  0  0  0  0
   26.0308  -20.1823  -15.2444 C   0  0  1  0  0  0  0  0  0  0  0  0
   24.7410  -19.5330  -15.6256 C   0  0  0  0  0  0  0  0  0  0  0  0
   24.6680  -18.5150  -16.3499 O   0  0  0  0  0  0  0  0  0  0  0  0
   23.5508  -20.0999  -15.1428 N   0  0  0  0  0  0  0  0  0  0  0  0
   22.2165  -19.5459  -15.4364 C   0  0  1  0  0  0  0  0  0  0  0  0
   21.6533  -20.4238  -16.5151 C   0  0  0  0  0  0  0  0  0  0  0  0
   21.2961  -19.7587  -17.7653 C   0  0  0  0  0  0  0  0  0  0  0  0
   21.5060  -18.4940  -17.8073 O   0  0  0  0  0  0  0  0  0  0  0  0
   21.4130  -19.4777  -14.2091 C   0  0  0  0  0  0  0  0  0  0  0  0
   20.4480  -18.6941  -14.1163 O   0  0  0  0  0  0  0  0  0  0  0  0
   20.7659  -20.3039  -18.8976 O   0  0  0  0  0  0  0  0  0  0  0  0
   21.6920  -20.2786  -13.1056 O   0  0  0  0  0  0  0  0  0  0  0  0
  2  7  1  0
  2  1  1  1
  3  2  1  0
  4  3  1  0
  5  4  1  0
  6  5  2  0
  7  8  2  0
  9  5  1  0
 10  7  1  0
 10 14  1  0
 11 10  1  0
 12 11  1  0
 12 13  1  0
 13 14  1  0
 14 15  1  6
 15 17  1  0
 16 15  2  0
 18 17  1  0
 18 19  1  6
 19 20  1  0
 20 24  1  0
 20 21  2  0
 22 18  1  0
 23 22  2  0
 25 22  1  0
M  END
$$$$
