EWF.pdb
     RDKit          3D

 35 37  0  0  1  0  0  0  0  0999 V2000
   26.8805  -22.3708  -16.9773 N   0  0  0  0  0  0  0  0  0  0  0  0
   26.3646  -22.8729  -15.6992 C   0  0  1  0  0  0  0  0  0  0  0  0
   26.9027  -24.2651  -15.5488 C   0  0  0  0  0  0  0  0  0  0  0  0
   26.9286  -25.0409  -16.8327 C   0  0  0  0  0  0  0  0  0  0  0  0
   25.6451  -25.8187  -16.8820 C   0  0  0  0  0  0  0  0  0  0  0  0
   24.8048  -25.5896  -15.9918 O   0  0  0  0  0  0  0  0  0  0  0  0
   26.8701  -22.0366  -14.5854 C   0  0  0  0  0  0  0  0  0  0  0  0
   28.0649  -21.7684  -14.4747 O   0  0  0  0  0  0  0  0  0  0  0  0
   25.3673  -26.7601  -17.8575 O   0  0  0  0  0  0  0  0  0  0  0  0
   25.9814  -21.5174  -13.6070 N   0  0  0  0  0  0  0  0  0  0  0  0
   26.4022  -20.5776  -12.5599 C   0  0  1  0  0  0  0  0  0  0  0  0
   25.5973  -19.3273  -12.7764 C   0  0  0  0  0  0  0  0  0  0  0  0
   25.7411  -18.7098  -14.0879 C   0  0  0  0  0  0  0  0  0  0  0  0
   24.7389  -18.3675  -14.9668 C   0  0  0  0  0  0  0  0  0  0  0  0
   25.3335  -17.8199  -16.0676 N   0  0  0  0  0  0  0  0  0  0  0  0
   26.6661  -17.8129  -15.8967 C   0  0  0  0  0  0  0  0  0  0  0  0
   27.6607  -17.3620  -16.7331 C   0  0  0  0  0  0  0  0  0  0  0  0
   28.9931  -17.4533  -16.3512 C   0  0  0  0  0  0  0  0  0  0  0  0
   29.2868  -17.9990  -15.1319 C   0  0  0  0  0  0  0  0  0  0  0  0
   28.2803  -18.4477  -14.3013 C   0  0  0  0  0  0  0  0  0  0  0  0
   26.9399  -18.3622  -14.6715 C   0  0  0  0  0  0  0  0  0  0  0  0
   26.1610  -21.2148  -11.2457 C   0  0  0  0  0  0  0  0  0  0  0  0
   25.2521  -22.0687  -11.1361 O   0  0  0  0  0  0  0  0  0  0  0  0
   26.9233  -20.8955  -10.0937 N   0  0  0  0  0  0  0  0  0  0  0  0
   26.6527  -21.4493   -8.7699 C   0  0  1  0  0  0  0  0  0  0  0  0
   27.9258  -21.5109   -7.9766 C   0  0  0  0  0  0  0  0  0  0  0  0
   27.9186  -20.5492   -6.8725 C   0  0  0  0  0  0  0  0  0  0  0  0
   28.9967  -19.6804   -6.7270 C   0  0  0  0  0  0  0  0  0  0  0  0
   29.0599  -18.7533   -5.7255 C   0  0  0  0  0  0  0  0  0  0  0  0
   28.0117  -18.6836   -4.8308 C   0  0  0  0  0  0  0  0  0  0  0  0
   26.9233  -19.5218   -4.9342 C   0  0  0  0  0  0  0  0  0  0  0  0
   26.8946  -20.4433   -5.9563 C   0  0  0  0  0  0  0  0  0  0  0  0
   25.5696  -20.6920   -8.1451 C   0  0  0  0  0  0  0  0  0  0  0  0
   24.7142  -21.1937   -7.1743 O   0  0  0  0  0  0  0  0  0  0  0  0
   25.3755  -19.4919   -8.4958 O   0  0  0  0  0  0  0  0  0  0  0  0
  2  1  1  6
  3  4  1  0
  3  2  1  0
  4  5  1  0
  5  6  2  0
  5  9  1  0
  7  8  2  0
  7  2  1  0
 10  7  1  0
 11 10  1  0
 11 12  1  1
 12 13  1  0
 13 14  2  0
 13 21  1  0
 14 15  1  0
 15 16  1  0
 16 17  2  0
 18 17  1  0
 19 18  2  0
 20 21  2  0
 20 19  1  0
 21 16  1  0
 22 11  1  0
 23 22  2  0
 24 22  1  0
 25 33  1  0
 25 24  1  0
 25 26  1  1
 26 27  1  0
 27 28  2  0
 28 29  1  0
 30 29  2  0
 31 30  1  0
 32 27  1  0
 32 31  2  0
 33 34  1  0
 35 33  2  0
M  END
$$$$
