EWF.pdb
     RDKit          3D

 35 37  0  0  1  0  0  0  0  0999 V2000
   27.8481  -20.6097  -17.3129 N   0  0  0  0  0  0  0  0  0  0  0  0
   27.7657  -21.4798  -16.1347 C   0  0  1  0  0  0  0  0  0  0  0  0
   29.1762  -21.6855  -15.6672 C   0  0  0  0  0  0  0  0  0  0  0  0
   30.0788  -22.2630  -16.7173 C   0  0  0  0  0  0  0  0  0  0  0  0
   29.6487  -23.6892  -16.9059 C   0  0  0  0  0  0  0  0  0  0  0  0
   29.0622  -24.2387  -15.9545 O   0  0  0  0  0  0  0  0  0  0  0  0
   26.9942  -20.8087  -15.0625 C   0  0  0  0  0  0  0  0  0  0  0  0
   27.2592  -19.6638  -14.7009 O   0  0  0  0  0  0  0  0  0  0  0  0
   29.8748  -24.4004  -18.0713 O   0  0  0  0  0  0  0  0  0  0  0  0
   25.9186  -21.4747  -14.4173 N   0  0  0  0  0  0  0  0  0  0  0  0
   25.0951  -20.8459  -13.3766 C   0  0  1  0  0  0  0  0  0  0  0  0
   23.6972  -21.3543  -13.5898 C   0  0  0  0  0  0  0  0  0  0  0  0
   22.7034  -20.8688  -12.6418 C   0  0  0  0  0  0  0  0  0  0  0  0
   22.6279  -19.6168  -12.0754 C   0  0  0  0  0  0  0  0  0  0  0  0
   21.5403  -19.6095  -11.2493 N   0  0  0  0  0  0  0  0  0  0  0  0
   20.9440  -20.8129  -11.2879 C   0  0  0  0  0  0  0  0  0  0  0  0
   19.8264  -21.2655  -10.6260 C   0  0  0  0  0  0  0  0  0  0  0  0
   19.3780  -22.5665  -10.8155 C   0  0  0  0  0  0  0  0  0  0  0  0
   20.0717  -23.3782  -11.6703 C   0  0  0  0  0  0  0  0  0  0  0  0
   21.1914  -22.9127  -12.3289 C   0  0  0  0  0  0  0  0  0  0  0  0
   21.6522  -21.6103  -12.1483 C   0  0  0  0  0  0  0  0  0  0  0  0
   25.6615  -21.2111  -12.0586 C   0  0  0  0  0  0  0  0  0  0  0  0
   25.9402  -22.4083  -11.8215 O   0  0  0  0  0  0  0  0  0  0  0  0
   25.9040  -20.2524  -11.0424 N   0  0  0  0  0  0  0  0  0  0  0  0
   26.4158  -20.5944   -9.7183 C   0  0  1  0  0  0  0  0  0  0  0  0
   27.4139  -19.5625   -9.2789 C   0  0  0  0  0  0  0  0  0  0  0  0
   27.8321  -19.7751   -7.8918 C   0  0  0  0  0  0  0  0  0  0  0  0
   28.8275  -20.7106   -7.6228 C   0  0  0  0  0  0  0  0  0  0  0  0
   29.2736  -20.9612   -6.3560 C   0  0  0  0  0  0  0  0  0  0  0  0
   28.7105  -20.2561   -5.3122 C   0  0  0  0  0  0  0  0  0  0  0  0
   27.7229  -19.3202   -5.5287 C   0  0  0  0  0  0  0  0  0  0  0  0
   27.2989  -19.0945   -6.8186 C   0  0  0  0  0  0  0  0  0  0  0  0
   25.2911  -20.7960   -8.8064 C   0  0  0  0  0  0  0  0  0  0  0  0
   25.2572  -21.7437   -7.7931 O   0  0  0  0  0  0  0  0  0  0  0  0
   24.2626  -20.0692   -8.9273 O   0  0  0  0  0  0  0  0  0  0  0  0
  2  1  1  6
  3  4  1  0
  3  2  1  0
  4  5  1  0
  5  6  2  0
  5  9  1  0
  7  8  2  0
  7  2  1  0
 10  7  1  0
 11 10  1  0
 11 12  1  1
 12 13  1  0
 13 14  2  0
 13 21  1  0
 14 15  1  0
 15 16  1  0
 16 17  2  0
 18 17  1  0
 19 18  2  0
 20 21  2  0
 20 19  1  0
 21 16  1  0
 22 11  1  0
 23 22  2  0
 24 22  1  0
 25 33  1  0
 25 24  1  0
 25 26  1  1
 26 27  1  0
 27 28  2  0
 28 29  1  0
 30 29  2  0
 31 30  1  0
 32 27  1  0
 32 31  2  0
 33 34  1  0
 35 33  2  0
M  END
$$$$
