EWF.pdb
     RDKit          3D

 35 37  0  0  1  0  0  0  0  0999 V2000
   28.4241  -21.9510  -14.8435 N   0  0  0  0  0  0  0  0  0  0  0  0
   27.4679  -20.8872  -14.5181 C   0  0  1  0  0  0  0  0  0  0  0  0
   26.6572  -20.6594  -15.7595 C   0  0  0  0  0  0  0  0  0  0  0  0
   27.3839  -19.8824  -16.8173 C   0  0  0  0  0  0  0  0  0  0  0  0
   27.2048  -18.4317  -16.4736 C   0  0  0  0  0  0  0  0  0  0  0  0
   26.6702  -17.7041  -17.3314 O   0  0  0  0  0  0  0  0  0  0  0  0
   26.5680  -21.3314  -13.4280 C   0  0  0  0  0  0  0  0  0  0  0  0
   26.1149  -22.4739  -13.3945 O   0  0  0  0  0  0  0  0  0  0  0  0
   27.6028  -17.8849  -15.2663 O   0  0  0  0  0  0  0  0  0  0  0  0
   26.2007  -20.4425  -12.3831 N   0  0  0  0  0  0  0  0  0  0  0  0
   25.3409  -20.8372  -11.2599 C   0  0  1  0  0  0  0  0  0  0  0  0
   25.8128  -20.0410  -10.0761 C   0  0  0  0  0  0  0  0  0  0  0  0
   27.1110  -20.4269   -9.5398 C   0  0  0  0  0  0  0  0  0  0  0  0
   28.0845  -21.1759  -10.1606 C   0  0  0  0  0  0  0  0  0  0  0  0
   29.1284  -21.2894   -9.2872 N   0  0  0  0  0  0  0  0  0  0  0  0
   28.8315  -20.6364   -8.1513 C   0  0  0  0  0  0  0  0  0  0  0  0
   29.5730  -20.4807   -7.0032 C   0  0  0  0  0  0  0  0  0  0  0  0
   29.0648  -19.7556   -5.9330 C   0  0  0  0  0  0  0  0  0  0  0  0
   27.8180  -19.2056   -6.0504 C   0  0  0  0  0  0  0  0  0  0  0  0
   27.0835  -19.3684   -7.2072 C   0  0  0  0  0  0  0  0  0  0  0  0
   27.5810  -20.0930   -8.2883 C   0  0  0  0  0  0  0  0  0  0  0  0
   23.9363  -20.5597  -11.6361 C   0  0  0  0  0  0  0  0  0  0  0  0
   23.5149  -19.3812  -11.6057 O   0  0  0  0  0  0  0  0  0  0  0  0
   23.0384  -21.5827  -12.0330 N   0  0  0  0  0  0  0  0  0  0  0  0
   21.6349  -21.3416  -12.3559 C   0  0  1  0  0  0  0  0  0  0  0  0
   21.3511  -21.8014  -13.7566 C   0  0  0  0  0  0  0  0  0  0  0  0
   21.7956  -20.8177  -14.7460 C   0  0  0  0  0  0  0  0  0  0  0  0
   21.0657  -19.6429  -14.9049 C   0  0  0  0  0  0  0  0  0  0  0  0
   21.4200  -18.6766  -15.8035 C   0  0  0  0  0  0  0  0  0  0  0  0
   22.5440  -18.8824  -16.5768 C   0  0  0  0  0  0  0  0  0  0  0  0
   23.2985  -20.0287  -16.4554 C   0  0  0  0  0  0  0  0  0  0  0  0
   22.9108  -20.9801  -15.5393 C   0  0  0  0  0  0  0  0  0  0  0  0
   20.7944  -21.9456  -11.3234 C   0  0  0  0  0  0  0  0  0  0  0  0
   21.2579  -22.7848  -10.3201 O   0  0  0  0  0  0  0  0  0  0  0  0
   19.5525  -21.7033  -11.3209 O   0  0  0  0  0  0  0  0  0  0  0  0
  2  1  1  6
  3  4  1  0
  3  2  1  0
  4  5  1  0
  5  6  2  0
  5  9  1  0
  7  8  2  0
  7  2  1  0
 10  7  1  0
 11 10  1  0
 11 12  1  1
 12 13  1  0
 13 14  2  0
 13 21  1  0
 14 15  1  0
 15 16  1  0
 16 17  2  0
 18 17  1  0
 19 18  2  0
 20 21  2  0
 20 19  1  0
 21 16  1  0
 22 11  1  0
 23 22  2  0
 24 22  1  0
 25 33  1  0
 25 24  1  0
 25 26  1  6
 26 27  1  0
 27 28  2  0
 28 29  1  0
 30 29  2  0
 31 30  1  0
 32 27  1  0
 32 31  2  0
 33 34  1  0
 35 33  2  0
M  END
$$$$
