EWF.pdb
     RDKit          3D

 35 37  0  0  1  0  0  0  0  0999 V2000
   27.6710  -22.5133  -14.7537 N   0  0  0  0  0  0  0  0  0  0  0  0
   27.4729  -21.1977  -14.1357 C   0  0  1  0  0  0  0  0  0  0  0  0
   26.6700  -20.3925  -15.1142 C   0  0  0  0  0  0  0  0  0  0  0  0
   27.3892  -20.1224  -16.4028 C   0  0  0  0  0  0  0  0  0  0  0  0
   27.6228  -18.6399  -16.4531 C   0  0  0  0  0  0  0  0  0  0  0  0
   28.7144  -18.2196  -16.0257 O   0  0  0  0  0  0  0  0  0  0  0  0
   26.7015  -21.3398  -12.8787 C   0  0  0  0  0  0  0  0  0  0  0  0
   25.8896  -22.2499  -12.7227 O   0  0  0  0  0  0  0  0  0  0  0  0
   26.6910  -17.7429  -16.9455 O   0  0  0  0  0  0  0  0  0  0  0  0
   26.8799  -20.4211  -11.8105 N   0  0  0  0  0  0  0  0  0  0  0  0
   26.0990  -20.4750  -10.5680 C   0  0  1  0  0  0  0  0  0  0  0  0
   26.8190  -19.5939   -9.5865 C   0  0  0  0  0  0  0  0  0  0  0  0
   27.2671  -20.2517   -8.3666 C   0  0  0  0  0  0  0  0  0  0  0  0
   27.3381  -21.6042   -8.1220 C   0  0  0  0  0  0  0  0  0  0  0  0
   27.8116  -21.7629   -6.8508 N   0  0  0  0  0  0  0  0  0  0  0  0
   28.0347  -20.5557   -6.3049 C   0  0  0  0  0  0  0  0  0  0  0  0
   28.5072  -20.2257   -5.0560 C   0  0  0  0  0  0  0  0  0  0  0  0
   28.6626  -18.8936   -4.6944 C   0  0  0  0  0  0  0  0  0  0  0  0
   28.3358  -17.9273   -5.6057 C   0  0  0  0  0  0  0  0  0  0  0  0
   27.8629  -18.2707   -6.8558 C   0  0  0  0  0  0  0  0  0  0  0  0
   27.7022  -19.6026   -7.2317 C   0  0  0  0  0  0  0  0  0  0  0  0
   24.7226  -20.0212  -10.8695 C   0  0  0  0  0  0  0  0  0  0  0  0
   24.5352  -18.8438  -11.2514 O   0  0  0  0  0  0  0  0  0  0  0  0
   23.5956  -20.8722  -10.7426 N   0  0  0  0  0  0  0  0  0  0  0  0
   22.3271  -20.6361  -11.4263 C   0  0  1  0  0  0  0  0  0  0  0  0
   22.1706  -21.6134  -12.5551 C   0  0  0  0  0  0  0  0  0  0  0  0
   20.8767  -21.4604  -13.2234 C   0  0  0  0  0  0  0  0  0  0  0  0
   20.6158  -20.2889  -13.9290 C   0  0  0  0  0  0  0  0  0  0  0  0
   19.4347  -20.0750  -14.5817 C   0  0  0  0  0  0  0  0  0  0  0  0
   18.4720  -21.0622  -14.5335 C   0  0  0  0  0  0  0  0  0  0  0  0
   18.6841  -22.2385  -13.8483 C   0  0  0  0  0  0  0  0  0  0  0  0
   19.8865  -22.4186  -13.2028 C   0  0  0  0  0  0  0  0  0  0  0  0
   21.2439  -20.6449  -10.4446 C   0  0  0  0  0  0  0  0  0  0  0  0
   20.1008  -19.8620  -10.5242 O   0  0  0  0  0  0  0  0  0  0  0  0
   21.3287  -21.4109   -9.4411 O   0  0  0  0  0  0  0  0  0  0  0  0
  2  1  1  6
  3  4  1  0
  3  2  1  0
  4  5  1  0
  5  6  2  0
  5  9  1  0
  7  8  2  0
  7  2  1  0
 10  7  1  0
 11 10  1  0
 11 12  1  1
 12 13  1  0
 13 14  2  0
 13 21  1  0
 14 15  1  0
 15 16  1  0
 16 17  2  0
 18 17  1  0
 19 18  2  0
 20 21  2  0
 20 19  1  0
 21 16  1  0
 22 11  1  0
 23 22  2  0
 24 22  1  0
 25 33  1  0
 25 24  1  0
 25 26  1  6
 26 27  1  0
 27 28  2  0
 28 29  1  0
 30 29  2  0
 31 30  1  0
 32 27  1  0
 32 31  2  0
 33 34  1  0
 35 33  2  0
M  END
$$$$
