EWF.pdb
     RDKit          3D

 35 37  0  0  1  0  0  0  0  0999 V2000
   27.4454  -18.2138  -17.8787 N   0  0  0  0  0  0  0  0  0  0  0  0
   26.9091  -19.3116  -17.0668 C   0  0  1  0  0  0  0  0  0  0  0  0
   27.7346  -19.3479  -15.8147 C   0  0  0  0  0  0  0  0  0  0  0  0
   29.0901  -19.9615  -16.0065 C   0  0  0  0  0  0  0  0  0  0  0  0
   28.8589  -21.4211  -16.2726 C   0  0  0  0  0  0  0  0  0  0  0  0
   27.9974  -21.9974  -15.5821 O   0  0  0  0  0  0  0  0  0  0  0  0
   25.4987  -19.0338  -16.7079 C   0  0  0  0  0  0  0  0  0  0  0  0
   25.1117  -17.8933  -16.4601 O   0  0  0  0  0  0  0  0  0  0  0  0
   29.5522  -22.1344  -17.2348 O   0  0  0  0  0  0  0  0  0  0  0  0
   24.5470  -20.0856  -16.6395 N   0  0  0  0  0  0  0  0  0  0  0  0
   23.1288  -19.8646  -16.3285 C   0  0  1  0  0  0  0  0  0  0  0  0
   22.3641  -20.2971  -17.5475 C   0  0  0  0  0  0  0  0  0  0  0  0
   21.9582  -19.2240  -18.4450 C   0  0  0  0  0  0  0  0  0  0  0  0
   22.7090  -18.6300  -19.4337 C   0  0  0  0  0  0  0  0  0  0  0  0
   21.9277  -17.6747  -20.0186 N   0  0  0  0  0  0  0  0  0  0  0  0
   20.7226  -17.6603  -19.4249 C   0  0  0  0  0  0  0  0  0  0  0  0
   19.6238  -16.8724  -19.6775 C   0  0  0  0  0  0  0  0  0  0  0  0
   18.4627  -17.0280  -18.9309 C   0  0  0  0  0  0  0  0  0  0  0  0
   18.4419  -17.9772  -17.9464 C   0  0  0  0  0  0  0  0  0  0  0  0
   19.5505  -18.7618  -17.7024 C   0  0  0  0  0  0  0  0  0  0  0  0
   20.7214  -18.6167  -18.4434 C   0  0  0  0  0  0  0  0  0  0  0  0
   22.7968  -20.6453  -15.1154 C   0  0  0  0  0  0  0  0  0  0  0  0
   22.9899  -21.8822  -15.1106 O   0  0  0  0  0  0  0  0  0  0  0  0
   22.2634  -20.0455  -13.9466 N   0  0  0  0  0  0  0  0  0  0  0  0
   22.0012  -20.7803  -12.7123 C   0  0  1  0  0  0  0  0  0  0  0  0
   22.8007  -20.1858  -11.5892 C   0  0  0  0  0  0  0  0  0  0  0  0
   24.2323  -20.4470  -11.7512 C   0  0  0  0  0  0  0  0  0  0  0  0
   24.8120  -21.4944  -11.0403 C   0  0  0  0  0  0  0  0  0  0  0  0
   26.1392  -21.8022  -11.1423 C   0  0  0  0  0  0  0  0  0  0  0  0
   26.9250  -21.0411  -11.9832 C   0  0  0  0  0  0  0  0  0  0  0  0
   26.3967  -19.9949  -12.7073 C   0  0  0  0  0  0  0  0  0  0  0  0
   25.0553  -19.7144  -12.5790 C   0  0  0  0  0  0  0  0  0  0  0  0
   20.5582  -20.8355  -12.4840 C   0  0  0  0  0  0  0  0  0  0  0  0
   19.6203  -20.0857  -13.1798 O   0  0  0  0  0  0  0  0  0  0  0  0
   20.1049  -21.6129  -11.5946 O   0  0  0  0  0  0  0  0  0  0  0  0
  2  1  1  6
  3  4  1  0
  3  2  1  0
  4  5  1  0
  5  6  2  0
  5  9  1  0
  7  8  2  0
  7  2  1  0
 10  7  1  0
 11 10  1  0
 11 12  1  6
 12 13  1  0
 13 14  2  0
 13 21  1  0
 14 15  1  0
 15 16  1  0
 16 17  2  0
 18 17  1  0
 19 18  2  0
 20 21  2  0
 20 19  1  0
 21 16  1  0
 22 11  1  0
 23 22  2  0
 24 22  1  0
 25 33  1  0
 25 24  1  0
 25 26  1  1
 26 27  1  0
 27 28  2  0
 28 29  1  0
 30 29  2  0
 31 30  1  0
 32 27  1  0
 32 31  2  0
 33 34  1  0
 35 33  2  0
M  END
$$$$
