EWF.pdb
     RDKit          3D

 35 37  0  0  1  0  0  0  0  0999 V2000
   29.8536  -24.5941  -16.7868 N   0  0  0  0  0  0  0  0  0  0  0  0
   28.7703  -23.7331  -17.2736 C   0  0  1  0  0  0  0  0  0  0  0  0
   27.6156  -24.6427  -17.5730 C   0  0  0  0  0  0  0  0  0  0  0  0
   27.9069  -26.0903  -17.3082 C   0  0  0  0  0  0  0  0  0  0  0  0
   27.0172  -26.8753  -18.2285 C   0  0  0  0  0  0  0  0  0  0  0  0
   26.2250  -26.2317  -18.9422 O   0  0  0  0  0  0  0  0  0  0  0  0
   28.3700  -22.7760  -16.2157 C   0  0  0  0  0  0  0  0  0  0  0  0
   28.4751  -23.0559  -15.0231 O   0  0  0  0  0  0  0  0  0  0  0  0
   27.0436  -28.2564  -18.3113 O   0  0  0  0  0  0  0  0  0  0  0  0
   27.8494  -21.4985  -16.5528 N   0  0  0  0  0  0  0  0  0  0  0  0
   27.4743  -20.4951  -15.5481 C   0  0  1  0  0  0  0  0  0  0  0  0
   27.3656  -19.1901  -16.2851 C   0  0  0  0  0  0  0  0  0  0  0  0
   26.8030  -18.0849  -15.5210 C   0  0  0  0  0  0  0  0  0  0  0  0
   27.2655  -17.5674  -14.3326 C   0  0  0  0  0  0  0  0  0  0  0  0
   26.4305  -16.5448  -13.9825 N   0  0  0  0  0  0  0  0  0  0  0  0
   25.4710  -16.4148  -14.9138 C   0  0  0  0  0  0  0  0  0  0  0  0
   24.4216  -15.5282  -14.9820 C   0  0  0  0  0  0  0  0  0  0  0  0
   23.5349  -15.5717  -16.0503 C   0  0  0  0  0  0  0  0  0  0  0  0
   23.7316  -16.5119  -17.0240 C   0  0  0  0  0  0  0  0  0  0  0  0
   24.7881  -17.3960  -16.9449 C   0  0  0  0  0  0  0  0  0  0  0  0
   25.6850  -17.3636  -15.8792 C   0  0  0  0  0  0  0  0  0  0  0  0
   26.2052  -20.9256  -14.9194 C   0  0  0  0  0  0  0  0  0  0  0  0
   25.2951  -21.3988  -15.6371 O   0  0  0  0  0  0  0  0  0  0  0  0
   25.9740  -20.8235  -13.5242 N   0  0  0  0  0  0  0  0  0  0  0  0
   24.7421  -21.2668  -12.8775 C   0  0  1  0  0  0  0  0  0  0  0  0
   25.0736  -22.1075  -11.6787 C   0  0  0  0  0  0  0  0  0  0  0  0
   25.7802  -21.3324  -10.6569 C   0  0  0  0  0  0  0  0  0  0  0  0
   27.1597  -21.4754  -10.5351 C   0  0  0  0  0  0  0  0  0  0  0  0
   27.8886  -20.7834   -9.6096 C   0  0  0  0  0  0  0  0  0  0  0  0
   27.2237  -19.9136   -8.7699 C   0  0  0  0  0  0  0  0  0  0  0  0
   25.8597  -19.7382   -8.8526 C   0  0  0  0  0  0  0  0  0  0  0  0
   25.1586  -20.4525   -9.7975 C   0  0  0  0  0  0  0  0  0  0  0  0
   23.8982  -20.1046  -12.6048 C   0  0  0  0  0  0  0  0  0  0  0  0
   22.5291  -20.1584  -12.3838 O   0  0  0  0  0  0  0  0  0  0  0  0
   24.4272  -18.9561  -12.5620 O   0  0  0  0  0  0  0  0  0  0  0  0
  2  1  1  1
  3  4  1  0
  3  2  1  0
  4  5  1  0
  5  6  2  0
  5  9  1  0
  7  8  2  0
  7  2  1  0
 10  7  1  0
 11 10  1  0
 11 12  1  6
 12 13  1  0
 13 14  2  0
 13 21  1  0
 14 15  1  0
 15 16  1  0
 16 17  2  0
 18 17  1  0
 19 18  2  0
 20 21  2  0
 20 19  1  0
 21 16  1  0
 22 11  1  0
 23 22  2  0
 24 22  1  0
 25 33  1  0
 25 24  1  0
 25 26  1  1
 26 27  1  0
 27 28  2  0
 28 29  1  0
 30 29  2  0
 31 30  1  0
 32 27  1  0
 32 31  2  0
 33 34  1  0
 35 33  2  0
M  END
$$$$
