EWF.pdb
     RDKit          3D

 35 37  0  0  1  0  0  0  0  0999 V2000
   26.9307  -17.9485  -18.8722 N   0  0  0  0  0  0  0  0  0  0  0  0
   26.3068  -17.4471  -17.6429 C   0  0  1  0  0  0  0  0  0  0  0  0
   25.0011  -16.8348  -18.0561 C   0  0  0  0  0  0  0  0  0  0  0  0
   24.6864  -15.5530  -17.3429 C   0  0  0  0  0  0  0  0  0  0  0  0
   25.4003  -14.4660  -18.0935 C   0  0  0  0  0  0  0  0  0  0  0  0
   24.8015  -13.9492  -19.0556 O   0  0  0  0  0  0  0  0  0  0  0  0
   26.0412  -18.5712  -16.7149 C   0  0  0  0  0  0  0  0  0  0  0  0
   25.4544  -19.5859  -17.0864 O   0  0  0  0  0  0  0  0  0  0  0  0
   26.6705  -14.0268  -17.7639 O   0  0  0  0  0  0  0  0  0  0  0  0
   26.4603  -18.5073  -15.3596 N   0  0  0  0  0  0  0  0  0  0  0  0
   26.1468  -19.5495  -14.3735 C   0  0  1  0  0  0  0  0  0  0  0  0
   27.2345  -19.4829  -13.3389 C   0  0  0  0  0  0  0  0  0  0  0  0
   27.1268  -20.4495  -12.2545 C   0  0  0  0  0  0  0  0  0  0  0  0
   27.3612  -21.8044  -12.3140 C   0  0  0  0  0  0  0  0  0  0  0  0
   27.1372  -22.3106  -11.0654 N   0  0  0  0  0  0  0  0  0  0  0  0
   26.7735  -21.3149  -10.2400 C   0  0  0  0  0  0  0  0  0  0  0  0
   26.4513  -21.3500   -8.9033 C   0  0  0  0  0  0  0  0  0  0  0  0
   26.0982  -20.1839   -8.2361 C   0  0  0  0  0  0  0  0  0  0  0  0
   26.0796  -19.0102   -8.9381 C   0  0  0  0  0  0  0  0  0  0  0  0
   26.4051  -18.9874  -10.2789 C   0  0  0  0  0  0  0  0  0  0  0  0
   26.7611  -20.1493  -10.9605 C   0  0  0  0  0  0  0  0  0  0  0  0
   24.7972  -19.2772  -13.8296 C   0  0  0  0  0  0  0  0  0  0  0  0
   24.4667  -18.0976  -13.5718 O   0  0  0  0  0  0  0  0  0  0  0  0
   23.8532  -20.3066  -13.5853 N   0  0  0  0  0  0  0  0  0  0  0  0
   22.5956  -20.0938  -12.8744 C   0  0  1  0  0  0  0  0  0  0  0  0
   21.7675  -19.0757  -13.6035 C   0  0  0  0  0  0  0  0  0  0  0  0
   21.4548  -19.5125  -14.9657 C   0  0  0  0  0  0  0  0  0  0  0  0
   20.5426  -20.5480  -15.1497 C   0  0  0  0  0  0  0  0  0  0  0  0
   20.1967  -21.0074  -16.3891 C   0  0  0  0  0  0  0  0  0  0  0  0
   20.7785  -20.4167  -17.4920 C   0  0  0  0  0  0  0  0  0  0  0  0
   21.6862  -19.3888  -17.3603 C   0  0  0  0  0  0  0  0  0  0  0  0
   22.0102  -18.9524  -16.0957 C   0  0  0  0  0  0  0  0  0  0  0  0
   21.9423  -21.3837  -12.6582 C   0  0  0  0  0  0  0  0  0  0  0  0
   20.7749  -21.5644  -11.9300 O   0  0  0  0  0  0  0  0  0  0  0  0
   22.4565  -22.4257  -13.1589 O   0  0  0  0  0  0  0  0  0  0  0  0
  2  1  1  6
  3  4  1  0
  3  2  1  0
  4  5  1  0
  5  6  2  0
  5  9  1  0
  7  8  2  0
  7  2  1  0
 10  7  1  0
 11 10  1  0
 11 12  1  1
 12 13  1  0
 13 14  2  0
 13 21  1  0
 14 15  1  0
 15 16  1  0
 16 17  2  0
 18 17  1  0
 19 18  2  0
 20 21  2  0
 20 19  1  0
 21 16  1  0
 22 11  1  0
 23 22  2  0
 24 22  1  0
 25 33  1  0
 25 24  1  0
 25 26  1  6
 26 27  1  0
 27 28  2  0
 28 29  1  0
 30 29  2  0
 31 30  1  0
 32 27  1  0
 32 31  2  0
 33 34  1  0
 35 33  2  0
M  END
$$$$
