EWF.pdb
     RDKit          3D

 35 37  0  0  1  0  0  0  0  0999 V2000
   29.1982  -21.4863  -18.6164 N   0  0  0  0  0  0  0  0  0  0  0  0
   28.6370  -22.2250  -17.4801 C   0  0  1  0  0  0  0  0  0  0  0  0
   29.7884  -22.9383  -16.8352 C   0  0  0  0  0  0  0  0  0  0  0  0
   29.8841  -24.3874  -17.2118 C   0  0  0  0  0  0  0  0  0  0  0  0
   30.0637  -24.4254  -18.7021 C   0  0  0  0  0  0  0  0  0  0  0  0
   29.0715  -24.1519  -19.4034 O   0  0  0  0  0  0  0  0  0  0  0  0
   28.0460  -21.2800  -16.5038 C   0  0  0  0  0  0  0  0  0  0  0  0
   28.7261  -20.4158  -15.9539 O   0  0  0  0  0  0  0  0  0  0  0  0
   31.2638  -24.7462  -19.3121 O   0  0  0  0  0  0  0  0  0  0  0  0
   26.6665  -21.3468  -16.1734 N   0  0  0  0  0  0  0  0  0  0  0  0
   26.0254  -20.4325  -15.2198 C   0  0  1  0  0  0  0  0  0  0  0  0
   25.1763  -19.5040  -16.0414 C   0  0  0  0  0  0  0  0  0  0  0  0
   25.8759  -18.3666  -16.6235 C   0  0  0  0  0  0  0  0  0  0  0  0
   26.2039  -18.1726  -17.9459 C   0  0  0  0  0  0  0  0  0  0  0  0
   26.8528  -16.9739  -18.0319 N   0  0  0  0  0  0  0  0  0  0  0  0
   26.9352  -16.4236  -16.8090 C   0  0  0  0  0  0  0  0  0  0  0  0
   27.4982  -15.2326  -16.4134 C   0  0  0  0  0  0  0  0  0  0  0  0
   27.4713  -14.8537  -15.0773 C   0  0  0  0  0  0  0  0  0  0  0  0
   26.8752  -15.6896  -14.1736 C   0  0  0  0  0  0  0  0  0  0  0  0
   26.3136  -16.8819  -14.5824 C   0  0  0  0  0  0  0  0  0  0  0  0
   26.3334  -17.2743  -15.9191 C   0  0  0  0  0  0  0  0  0  0  0  0
   25.2494  -21.2438  -14.2550 C   0  0  0  0  0  0  0  0  0  0  0  0
   24.4775  -22.1320  -14.6822 O   0  0  0  0  0  0  0  0  0  0  0  0
   25.3438  -21.0555  -12.8528 N   0  0  0  0  0  0  0  0  0  0  0  0
   24.4846  -21.7374  -11.8890 C   0  0  1  0  0  0  0  0  0  0  0  0
   25.3110  -22.2414  -10.7414 C   0  0  0  0  0  0  0  0  0  0  0  0
   25.9777  -21.1448  -10.0364 C   0  0  0  0  0  0  0  0  0  0  0  0
   27.2888  -20.8223  -10.3759 C   0  0  0  0  0  0  0  0  0  0  0  0
   27.9751  -19.8103   -9.7666 C   0  0  0  0  0  0  0  0  0  0  0  0
   27.3364  -19.0875   -8.7799 C   0  0  0  0  0  0  0  0  0  0  0  0
   26.0396  -19.3692   -8.4096 C   0  0  0  0  0  0  0  0  0  0  0  0
   25.3798  -20.3961   -9.0458 C   0  0  0  0  0  0  0  0  0  0  0  0
   23.3830  -20.8512  -11.5169 C   0  0  0  0  0  0  0  0  0  0  0  0
   22.1996  -21.2695  -10.9249 O   0  0  0  0  0  0  0  0  0  0  0  0
   23.4892  -19.6102  -11.7393 O   0  0  0  0  0  0  0  0  0  0  0  0
  2  1  1  6
  3  4  1  0
  3  2  1  0
  4  5  1  0
  5  6  2  0
  5  9  1  0
  7  8  2  0
  7  2  1  0
 10  7  1  0
 11 10  1  0
 11 12  1  6
 12 13  1  0
 13 14  2  0
 13 21  1  0
 14 15  1  0
 15 16  1  0
 16 17  2  0
 18 17  1  0
 19 18  2  0
 20 21  2  0
 20 19  1  0
 21 16  1  0
 22 11  1  0
 23 22  2  0
 24 22  1  0
 25 33  1  0
 25 24  1  0
 25 26  1  1
 26 27  1  0
 27 28  2  0
 28 29  1  0
 30 29  2  0
 31 30  1  0
 32 27  1  0
 32 31  2  0
 33 34  1  0
 35 33  2  0
M  END
$$$$
