EWF.pdb
     RDKit          3D

 35 37  0  0  1  0  0  0  0  0999 V2000
   28.9331  -23.1624  -16.4971 N   0  0  0  0  0  0  0  0  0  0  0  0
   28.3941  -21.8612  -16.0868 C   0  0  1  0  0  0  0  0  0  0  0  0
   27.5086  -21.4030  -17.2077 C   0  0  0  0  0  0  0  0  0  0  0  0
   28.2600  -21.0196  -18.4483 C   0  0  0  0  0  0  0  0  0  0  0  0
   28.9675  -19.7332  -18.1328 C   0  0  0  0  0  0  0  0  0  0  0  0
   30.2126  -19.7458  -18.1590 O   0  0  0  0  0  0  0  0  0  0  0  0
   27.5790  -22.0151  -14.8591 C   0  0  0  0  0  0  0  0  0  0  0  0
   26.5612  -22.7049  -14.8461 O   0  0  0  0  0  0  0  0  0  0  0  0
   28.3027  -18.5604  -17.8206 O   0  0  0  0  0  0  0  0  0  0  0  0
   27.9536  -21.3648  -13.6535 N   0  0  0  0  0  0  0  0  0  0  0  0
   27.1752  -21.4665  -12.4124 C   0  0  1  0  0  0  0  0  0  0  0  0
   27.9751  -20.7508  -11.3607 C   0  0  0  0  0  0  0  0  0  0  0  0
   27.2651  -20.4645  -10.1214 C   0  0  0  0  0  0  0  0  0  0  0  0
   25.9592  -20.0538   -9.9800 C   0  0  0  0  0  0  0  0  0  0  0  0
   25.7221  -19.9067   -8.6430 N   0  0  0  0  0  0  0  0  0  0  0  0
   26.8360  -20.2129   -7.9571 C   0  0  0  0  0  0  0  0  0  0  0  0
   27.0663  -20.2089   -6.6010 C   0  0  0  0  0  0  0  0  0  0  0  0
   28.3119  -20.5654   -6.1001 C   0  0  0  0  0  0  0  0  0  0  0  0
   29.2946  -20.9172   -6.9840 C   0  0  0  0  0  0  0  0  0  0  0  0
   29.0516  -20.9176   -8.3424 C   0  0  0  0  0  0  0  0  0  0  0  0
   27.8072  -20.5624   -8.8584 C   0  0  0  0  0  0  0  0  0  0  0  0
   25.8444  -20.8647  -12.6533 C   0  0  0  0  0  0  0  0  0  0  0  0
   25.7711  -19.7135  -13.1398 O   0  0  0  0  0  0  0  0  0  0  0  0
   24.6364  -21.5436  -12.3530 N   0  0  0  0  0  0  0  0  0  0  0  0
   23.3147  -21.0245  -12.6935 C   0  0  1  0  0  0  0  0  0  0  0  0
   22.7755  -21.7560  -13.8885 C   0  0  0  0  0  0  0  0  0  0  0  0
   21.3939  -21.3672  -14.1787 C   0  0  0  0  0  0  0  0  0  0  0  0
   20.3589  -22.2145  -13.7924 C   0  0  0  0  0  0  0  0  0  0  0  0
   19.0454  -21.9187  -14.0241 C   0  0  0  0  0  0  0  0  0  0  0  0
   18.7443  -20.7344  -14.6651 C   0  0  0  0  0  0  0  0  0  0  0  0
   19.7339  -19.8638  -15.0660 C   0  0  0  0  0  0  0  0  0  0  0  0
   21.0461  -20.1955  -14.8154 C   0  0  0  0  0  0  0  0  0  0  0  0
   22.4628  -21.0649  -11.5061 C   0  0  0  0  0  0  0  0  0  0  0  0
   21.4534  -20.1540  -11.2281 O   0  0  0  0  0  0  0  0  0  0  0  0
   22.6365  -21.9847  -10.6548 O   0  0  0  0  0  0  0  0  0  0  0  0
  2  1  1  6
  3  4  1  0
  3  2  1  0
  4  5  1  0
  5  6  2  0
  5  9  1  0
  7  8  2  0
  7  2  1  0
 10  7  1  0
 11 10  1  0
 11 12  1  1
 12 13  1  0
 13 14  2  0
 13 21  1  0
 14 15  1  0
 15 16  1  0
 16 17  2  0
 18 17  1  0
 19 18  2  0
 20 21  2  0
 20 19  1  0
 21 16  1  0
 22 11  1  0
 23 22  2  0
 24 22  1  0
 25 33  1  0
 25 24  1  0
 25 26  1  6
 26 27  1  0
 27 28  2  0
 28 29  1  0
 30 29  2  0
 31 30  1  0
 32 27  1  0
 32 31  2  0
 33 34  1  0
 35 33  2  0
M  END
$$$$
