EWF.pdb
     RDKit          3D

 35 37  0  0  1  0  0  0  0  0999 V2000
   20.2760  -13.1920  -18.3907 N   0  0  0  0  0  0  0  0  0  0  0  0
   19.4612  -12.2804  -17.5801 C   0  0  1  0  0  0  0  0  0  0  0  0
   19.5299  -12.7969  -16.1733 C   0  0  0  0  0  0  0  0  0  0  0  0
   18.7605  -14.0673  -15.9617 C   0  0  0  0  0  0  0  0  0  0  0  0
   17.3172  -13.6714  -15.8393 C   0  0  0  0  0  0  0  0  0  0  0  0
   17.0744  -12.5125  -15.4533 O   0  0  0  0  0  0  0  0  0  0  0  0
   20.0352  -10.9151  -17.6222 C   0  0  0  0  0  0  0  0  0  0  0  0
   21.2452  -10.7236  -17.5181 O   0  0  0  0  0  0  0  0  0  0  0  0
   16.2700  -14.5272  -16.1326 O   0  0  0  0  0  0  0  0  0  0  0  0
   19.1967   -9.7806  -17.7853 N   0  0  0  0  0  0  0  0  0  0  0  0
   19.7125   -8.4083  -17.8713 C   0  0  1  0  0  0  0  0  0  0  0  0
   18.6728   -7.6199  -18.6168 C   0  0  0  0  0  0  0  0  0  0  0  0
   18.9289   -6.1899  -18.7231 C   0  0  0  0  0  0  0  0  0  0  0  0
   20.0910   -5.5753  -19.1303 C   0  0  0  0  0  0  0  0  0  0  0  0
   19.8792   -4.2272  -19.0732 N   0  0  0  0  0  0  0  0  0  0  0  0
   18.6276   -3.9910  -18.6456 C   0  0  0  0  0  0  0  0  0  0  0  0
   17.9774   -2.7972  -18.4356 C   0  0  0  0  0  0  0  0  0  0  0  0
   16.6640   -2.7841  -17.9834 C   0  0  0  0  0  0  0  0  0  0  0  0
   16.0404   -3.9797  -17.7544 C   0  0  0  0  0  0  0  0  0  0  0  0
   16.7030   -5.1709  -17.9689 C   0  0  0  0  0  0  0  0  0  0  0  0
   18.0201   -5.1989  -18.4223 C   0  0  0  0  0  0  0  0  0  0  0  0
   19.9498   -7.9188  -16.4946 C   0  0  0  0  0  0  0  0  0  0  0  0
   19.0891   -8.1326  -15.6111 O   0  0  0  0  0  0  0  0  0  0  0  0
   21.1228   -7.2104  -16.1303 N   0  0  0  0  0  0  0  0  0  0  0  0
   21.3757   -6.7109  -14.7817 C   0  0  1  0  0  0  0  0  0  0  0  0
   22.7643   -7.0886  -14.3538 C   0  0  0  0  0  0  0  0  0  0  0  0
   23.7759   -6.5170  -15.2449 C   0  0  0  0  0  0  0  0  0  0  0  0
   24.1847   -5.2011  -15.0459 C   0  0  0  0  0  0  0  0  0  0  0  0
   25.1263   -4.6000  -15.8325 C   0  0  0  0  0  0  0  0  0  0  0  0
   25.6863   -5.3327  -16.8589 C   0  0  0  0  0  0  0  0  0  0  0  0
   25.3143   -6.6380  -17.0948 C   0  0  0  0  0  0  0  0  0  0  0  0
   24.3625   -7.2102  -16.2815 C   0  0  0  0  0  0  0  0  0  0  0  0
   21.0816   -5.2796  -14.7371 C   0  0  0  0  0  0  0  0  0  0  0  0
   20.9551   -4.5362  -13.5719 O   0  0  0  0  0  0  0  0  0  0  0  0
   20.9260   -4.6488  -15.8228 O   0  0  0  0  0  0  0  0  0  0  0  0
  2  1  1  6
  3  4  1  0
  3  2  1  0
  4  5  1  0
  5  6  2  0
  5  9  1  0
  7  8  2  0
  7  2  1  0
 10  7  1  0
 11 10  1  0
 11 12  1  1
 12 13  1  0
 13 14  2  0
 13 21  1  0
 14 15  1  0
 15 16  1  0
 16 17  2  0
 18 17  1  0
 19 18  2  0
 20 21  2  0
 20 19  1  0
 21 16  1  0
 22 11  1  0
 23 22  2  0
 24 22  1  0
 25 33  1  0
 25 24  1  0
 25 26  1  6
 26 27  1  0
 27 28  2  0
 28 29  1  0
 30 29  2  0
 31 30  1  0
 32 27  1  0
 32 31  2  0
 33 34  1  0
 35 33  2  0
M  END
$$$$
