EWF.pdb
     RDKit          3D

 35 37  0  0  1  0  0  0  0  0999 V2000
   15.4342  -19.8053    2.2955 N   0  0  0  0  0  0  0  0  0  0  0  0
   15.3962  -19.5638    3.7419 C   0  0  1  0  0  0  0  0  0  0  0  0
   15.4470  -20.9143    4.3929 C   0  0  0  0  0  0  0  0  0  0  0  0
   14.2047  -21.7290    4.1839 C   0  0  0  0  0  0  0  0  0  0  0  0
   13.3386  -21.4947    5.3879 C   0  0  0  0  0  0  0  0  0  0  0  0
   13.7984  -20.7676    6.2885 O   0  0  0  0  0  0  0  0  0  0  0  0
   16.5850  -18.7825    4.1563 C   0  0  0  0  0  0  0  0  0  0  0  0
   17.6013  -18.7444    3.4653 O   0  0  0  0  0  0  0  0  0  0  0  0
   12.0768  -22.0445    5.5314 O   0  0  0  0  0  0  0  0  0  0  0  0
   16.5836  -18.0502    5.3731 N   0  0  0  0  0  0  0  0  0  0  0  0
   17.7098  -17.2132    5.8063 C   0  0  1  0  0  0  0  0  0  0  0  0
   17.1199  -15.8804    6.1719 C   0  0  0  0  0  0  0  0  0  0  0  0
   17.5671  -14.7549    5.3624 C   0  0  0  0  0  0  0  0  0  0  0  0
   17.0840  -14.3616    4.1352 C   0  0  0  0  0  0  0  0  0  0  0  0
   17.7978  -13.2626    3.7508 N   0  0  0  0  0  0  0  0  0  0  0  0
   18.7028  -12.9657    4.6983 C   0  0  0  0  0  0  0  0  0  0  0  0
   19.6323  -11.9529    4.7445 C   0  0  0  0  0  0  0  0  0  0  0  0
   20.4819  -11.8299    5.8365 C   0  0  0  0  0  0  0  0  0  0  0  0
   20.3704  -12.7353    6.8556 C   0  0  0  0  0  0  0  0  0  0  0  0
   19.4339  -13.7471    6.7981 C   0  0  0  0  0  0  0  0  0  0  0  0
   18.5754  -13.8822    5.7091 C   0  0  0  0  0  0  0  0  0  0  0  0
   18.3795  -17.8928    6.9380 C   0  0  0  0  0  0  0  0  0  0  0  0
   17.6838  -18.4061    7.8434 O   0  0  0  0  0  0  0  0  0  0  0  0
   19.7904  -17.9879    7.0415 N   0  0  0  0  0  0  0  0  0  0  0  0
   20.4763  -18.5651    8.1941 C   0  0  1  0  0  0  0  0  0  0  0  0
   21.8455  -19.0290    7.7889 C   0  0  0  0  0  0  0  0  0  0  0  0
   22.5800  -19.5925    8.9234 C   0  0  0  0  0  0  0  0  0  0  0  0
   22.4791  -20.9568    9.1822 C   0  0  0  0  0  0  0  0  0  0  0  0
   23.1375  -21.5560   10.2185 C   0  0  0  0  0  0  0  0  0  0  0  0
   23.9288  -20.7715   11.0324 C   0  0  0  0  0  0  0  0  0  0  0  0
   24.0600  -19.4173   10.8159 C   0  0  0  0  0  0  0  0  0  0  0  0
   23.3816  -18.8486    9.7619 C   0  0  0  0  0  0  0  0  0  0  0  0
   20.4484  -17.6072    9.2983 C   0  0  0  0  0  0  0  0  0  0  0  0
   20.1847  -17.9354   10.6207 O   0  0  0  0  0  0  0  0  0  0  0  0
   20.6770  -16.3859    9.0597 O   0  0  0  0  0  0  0  0  0  0  0  0
  2  1  1  6
  3  4  1  0
  3  2  1  0
  4  5  1  0
  5  6  2  0
  5  9  1  0
  7  8  2  0
  7  2  1  0
 10  7  1  0
 11 10  1  0
 11 12  1  1
 12 13  1  0
 13 14  2  0
 13 21  1  0
 14 15  1  0
 15 16  1  0
 16 17  2  0
 18 17  1  0
 19 18  2  0
 20 21  2  0
 20 19  1  0
 21 16  1  0
 22 11  1  0
 23 22  2  0
 24 22  1  0
 25 33  1  0
 25 24  1  0
 25 26  1  6
 26 27  1  0
 27 28  2  0
 28 29  1  0
 30 29  2  0
 31 30  1  0
 32 27  1  0
 32 31  2  0
 33 34  1  0
 35 33  2  0
M  END
$$$$
