EWF.pdb
     RDKit          3D

 35 37  0  0  1  0  0  0  0  0999 V2000
   30.4841  -25.2825  -17.7656 N   0  0  0  0  0  0  0  0  0  0  0  0
   29.3395  -24.4806  -18.2114 C   0  0  1  0  0  0  0  0  0  0  0  0
   28.2944  -25.4577  -18.6623 C   0  0  0  0  0  0  0  0  0  0  0  0
   27.5803  -25.0386  -19.9134 C   0  0  0  0  0  0  0  0  0  0  0  0
   28.5589  -25.2177  -21.0382 C   0  0  0  0  0  0  0  0  0  0  0  0
   29.3397  -26.1852  -20.9663 O   0  0  0  0  0  0  0  0  0  0  0  0
   28.8044  -23.6888  -17.0791 C   0  0  0  0  0  0  0  0  0  0  0  0
   28.5566  -24.2082  -15.9925 O   0  0  0  0  0  0  0  0  0  0  0  0
   28.6245  -24.3665  -22.1273 O   0  0  0  0  0  0  0  0  0  0  0  0
   28.5606  -22.2967  -17.2186 N   0  0  0  0  0  0  0  0  0  0  0  0
   28.0566  -21.4575  -16.1239 C   0  0  1  0  0  0  0  0  0  0  0  0
   28.4962  -20.0556  -16.4394 C   0  0  0  0  0  0  0  0  0  0  0  0
   27.9642  -19.0208  -15.5630 C   0  0  0  0  0  0  0  0  0  0  0  0
   27.8183  -19.0750  -14.1956 C   0  0  0  0  0  0  0  0  0  0  0  0
   27.2798  -17.8848  -13.7970 N   0  0  0  0  0  0  0  0  0  0  0  0
   27.0895  -17.1004  -14.8709 C   0  0  0  0  0  0  0  0  0  0  0  0
   26.5758  -15.8271  -14.9538 C   0  0  0  0  0  0  0  0  0  0  0  0
   26.4664  -15.1937  -16.1852 C   0  0  0  0  0  0  0  0  0  0  0  0
   26.8796  -15.8645  -17.3034 C   0  0  0  0  0  0  0  0  0  0  0  0
   27.3935  -17.1416  -17.2077 C   0  0  0  0  0  0  0  0  0  0  0  0
   27.5089  -17.7887  -15.9792 C   0  0  0  0  0  0  0  0  0  0  0  0
   26.5861  -21.6154  -16.0626 C   0  0  0  0  0  0  0  0  0  0  0  0
   25.9317  -21.6818  -17.1278 O   0  0  0  0  0  0  0  0  0  0  0  0
   25.8796  -21.6950  -14.8358 N   0  0  0  0  0  0  0  0  0  0  0  0
   24.4251  -21.6116  -14.7372 C   0  0  1  0  0  0  0  0  0  0  0  0
   24.0195  -21.5217  -13.2946 C   0  0  0  0  0  0  0  0  0  0  0  0
   22.5634  -21.4729  -13.1473 C   0  0  0  0  0  0  0  0  0  0  0  0
   21.9514  -20.2485  -12.8934 C   0  0  0  0  0  0  0  0  0  0  0  0
   20.5987  -20.1223  -12.7483 C   0  0  0  0  0  0  0  0  0  0  0  0
   19.8198  -21.2558  -12.8593 C   0  0  0  0  0  0  0  0  0  0  0  0
   20.3797  -22.4893  -13.1101 C   0  0  0  0  0  0  0  0  0  0  0  0
   21.7461  -22.5777  -13.2504 C   0  0  0  0  0  0  0  0  0  0  0  0
   23.9486  -20.5192  -15.5839 C   0  0  0  0  0  0  0  0  0  0  0  0
   24.3459  -19.1952  -15.4613 O   0  0  0  0  0  0  0  0  0  0  0  0
   23.1139  -20.7703  -16.5010 O   0  0  0  0  0  0  0  0  0  0  0  0
  2  1  1  1
  3  4  1  0
  3  2  1  0
  4  5  1  0
  5  6  2  0
  5  9  1  0
  7  8  2  0
  7  2  1  0
 10  7  1  0
 11 10  1  0
 11 12  1  6
 12 13  1  0
 13 14  2  0
 13 21  1  0
 14 15  1  0
 15 16  1  0
 16 17  2  0
 18 17  1  0
 19 18  2  0
 20 21  2  0
 20 19  1  0
 21 16  1  0
 22 11  1  0
 23 22  2  0
 24 22  1  0
 25 33  1  0
 25 24  1  0
 25 26  1  1
 26 27  1  0
 27 28  2  0
 28 29  1  0
 30 29  2  0
 31 30  1  0
 32 27  1  0
 32 31  2  0
 33 34  1  0
 35 33  2  0
M  END
$$$$
