EWF.pdb
     RDKit          3D

 35 37  0  0  1  0  0  0  0  0999 V2000
   26.3246  -18.2534  -15.6657 N   0  0  0  0  0  0  0  0  0  0  0  0
   26.9667  -19.1917  -14.7388 C   0  0  1  0  0  0  0  0  0  0  0  0
   28.3397  -18.6470  -14.4766 C   0  0  0  0  0  0  0  0  0  0  0  0
   29.2344  -18.6685  -15.6806 C   0  0  0  0  0  0  0  0  0  0  0  0
   29.3893  -20.1115  -16.0659 C   0  0  0  0  0  0  0  0  0  0  0  0
   29.4216  -20.9478  -15.1435 O   0  0  0  0  0  0  0  0  0  0  0  0
   26.2138  -19.2389  -13.4635 C   0  0  0  0  0  0  0  0  0  0  0  0
   25.7161  -18.2269  -12.9738 O   0  0  0  0  0  0  0  0  0  0  0  0
   29.4955  -20.5377  -17.3782 O   0  0  0  0  0  0  0  0  0  0  0  0
   26.0450  -20.4642  -12.7658 N   0  0  0  0  0  0  0  0  0  0  0  0
   25.2745  -20.5783  -11.5209 C   0  0  1  0  0  0  0  0  0  0  0  0
   24.2489  -21.6492  -11.7640 C   0  0  0  0  0  0  0  0  0  0  0  0
   22.9966  -21.1943  -12.3529 C   0  0  0  0  0  0  0  0  0  0  0  0
   22.5913  -21.3226  -13.6618 C   0  0  0  0  0  0  0  0  0  0  0  0
   21.3542  -20.7527  -13.7617 N   0  0  0  0  0  0  0  0  0  0  0  0
   20.9840  -20.2788  -12.5603 C   0  0  0  0  0  0  0  0  0  0  0  0
   19.8300  -19.6315  -12.1844 C   0  0  0  0  0  0  0  0  0  0  0  0
   19.6525  -19.2214  -10.8692 C   0  0  0  0  0  0  0  0  0  0  0  0
   20.6475  -19.4763   -9.9660 C   0  0  0  0  0  0  0  0  0  0  0  0
   21.8007  -20.1267  -10.3549 C   0  0  0  0  0  0  0  0  0  0  0  0
   21.9919  -20.5436  -11.6705 C   0  0  0  0  0  0  0  0  0  0  0  0
   26.2161  -20.9004  -10.4249 C   0  0  0  0  0  0  0  0  0  0  0  0
   27.0239  -21.8459  -10.5688 O   0  0  0  0  0  0  0  0  0  0  0  0
   26.2418  -20.1763   -9.2062 N   0  0  0  0  0  0  0  0  0  0  0  0
   27.0178  -20.5893   -8.0403 C   0  0  1  0  0  0  0  0  0  0  0  0
   27.9975  -19.5116   -7.6761 C   0  0  0  0  0  0  0  0  0  0  0  0
   28.4513  -19.6433   -6.2901 C   0  0  0  0  0  0  0  0  0  0  0  0
   29.4973  -20.5160   -6.0024 C   0  0  0  0  0  0  0  0  0  0  0  0
   29.9786  -20.6895   -4.7356 C   0  0  0  0  0  0  0  0  0  0  0  0
   29.4001  -19.9687   -3.7111 C   0  0  0  0  0  0  0  0  0  0  0  0
   28.3630  -19.0929   -3.9465 C   0  0  0  0  0  0  0  0  0  0  0  0
   27.9045  -18.9443   -5.2358 C   0  0  0  0  0  0  0  0  0  0  0  0
   26.1032  -20.9825   -6.9698 C   0  0  0  0  0  0  0  0  0  0  0  0
   24.7272  -20.8048   -7.0029 O   0  0  0  0  0  0  0  0  0  0  0  0
   26.5723  -21.5252   -5.9275 O   0  0  0  0  0  0  0  0  0  0  0  0
  2  1  1  6
  3  4  1  0
  3  2  1  0
  4  5  1  0
  5  6  2  0
  5  9  1  0
  7  8  2  0
  7  2  1  0
 10  7  1  0
 11 10  1  0
 11 12  1  6
 12 13  1  0
 13 14  2  0
 13 21  1  0
 14 15  1  0
 15 16  1  0
 16 17  2  0
 18 17  1  0
 19 18  2  0
 20 21  2  0
 20 19  1  0
 21 16  1  0
 22 11  1  0
 23 22  2  0
 24 22  1  0
 25 33  1  0
 25 24  1  0
 25 26  1  1
 26 27  1  0
 27 28  2  0
 28 29  1  0
 30 29  2  0
 31 30  1  0
 32 27  1  0
 32 31  2  0
 33 34  1  0
 35 33  2  0
M  END
$$$$
