EWF.pdb
     RDKit          3D

 35 37  0  0  1  0  0  0  0  0999 V2000
   28.9163  -21.0549  -14.4266 N   0  0  0  0  0  0  0  0  0  0  0  0
   28.2093  -20.0483  -13.6274 C   0  0  1  0  0  0  0  0  0  0  0  0
   27.4994  -19.1603  -14.6061 C   0  0  0  0  0  0  0  0  0  0  0  0
   28.4239  -18.3052  -15.4214 C   0  0  0  0  0  0  0  0  0  0  0  0
   28.0120  -18.4854  -16.8542 C   0  0  0  0  0  0  0  0  0  0  0  0
   26.8148  -18.2852  -17.1330 O   0  0  0  0  0  0  0  0  0  0  0  0
   27.2071  -20.7058  -12.7563 C   0  0  0  0  0  0  0  0  0  0  0  0
   26.5946  -21.7066  -13.1240 O   0  0  0  0  0  0  0  0  0  0  0  0
   28.8933  -18.8576  -17.8542 O   0  0  0  0  0  0  0  0  0  0  0  0
   26.9239  -20.1942  -11.4622 N   0  0  0  0  0  0  0  0  0  0  0  0
   25.8942  -20.7629  -10.5831 C   0  0  1  0  0  0  0  0  0  0  0  0
   26.2172  -20.2783   -9.1978 C   0  0  0  0  0  0  0  0  0  0  0  0
   27.5047  -20.7077   -8.6690 C   0  0  0  0  0  0  0  0  0  0  0  0
   28.4283  -21.5274   -9.2765 C   0  0  0  0  0  0  0  0  0  0  0  0
   29.4817  -21.6594   -8.4173 N   0  0  0  0  0  0  0  0  0  0  0  0
   29.2388  -20.9495   -7.3028 C   0  0  0  0  0  0  0  0  0  0  0  0
   30.0086  -20.7873   -6.1745 C   0  0  0  0  0  0  0  0  0  0  0  0
   29.5570  -19.9975   -5.1249 C   0  0  0  0  0  0  0  0  0  0  0  0
   28.3367  -19.3909   -5.2425 C   0  0  0  0  0  0  0  0  0  0  0  0
   27.5734  -19.5609   -6.3794 C   0  0  0  0  0  0  0  0  0  0  0  0
   28.0141  -20.3501   -7.4397 C   0  0  0  0  0  0  0  0  0  0  0  0
   24.5716  -20.3130  -11.0725 C   0  0  0  0  0  0  0  0  0  0  0  0
   24.3695  -19.0915  -11.2576 O   0  0  0  0  0  0  0  0  0  0  0  0
   23.5127  -21.2163  -11.3431 N   0  0  0  0  0  0  0  0  0  0  0  0
   22.2854  -20.8341  -12.0359 C   0  0  1  0  0  0  0  0  0  0  0  0
   22.4400  -21.0743  -13.5098 C   0  0  0  0  0  0  0  0  0  0  0  0
   21.1996  -20.7895  -14.2341 C   0  0  0  0  0  0  0  0  0  0  0  0
   21.0174  -19.5262  -14.7900 C   0  0  0  0  0  0  0  0  0  0  0  0
   19.8900  -19.1870  -15.4832 C   0  0  0  0  0  0  0  0  0  0  0  0
   18.9019  -20.1385  -15.6320 C   0  0  0  0  0  0  0  0  0  0  0  0
   19.0368  -21.4022  -15.1001 C   0  0  0  0  0  0  0  0  0  0  0  0
   20.1867  -21.7076  -14.4080 C   0  0  0  0  0  0  0  0  0  0  0  0
   21.1510  -21.5141  -11.4131 C   0  0  0  0  0  0  0  0  0  0  0  0
   19.9388  -20.9102  -11.1101 O   0  0  0  0  0  0  0  0  0  0  0  0
   21.2545  -22.7402  -11.1183 O   0  0  0  0  0  0  0  0  0  0  0  0
  2  1  1  6
  3  4  1  0
  3  2  1  0
  4  5  1  0
  5  6  2  0
  5  9  1  0
  7  8  2  0
  7  2  1  0
 10  7  1  0
 11 10  1  0
 11 12  1  1
 12 13  1  0
 13 14  2  0
 13 21  1  0
 14 15  1  0
 15 16  1  0
 16 17  2  0
 18 17  1  0
 19 18  2  0
 20 21  2  0
 20 19  1  0
 21 16  1  0
 22 11  1  0
 23 22  2  0
 24 22  1  0
 25 33  1  0
 25 24  1  0
 25 26  1  6
 26 27  1  0
 27 28  2  0
 28 29  1  0
 30 29  2  0
 31 30  1  0
 32 27  1  0
 32 31  2  0
 33 34  1  0
 35 33  2  0
M  END
$$$$
