EWF.pdb
     RDKit          3D

 35 37  0  0  1  0  0  0  0  0999 V2000
   30.5341  -24.0563  -17.3603 N   0  0  0  0  0  0  0  0  0  0  0  0
   29.1707  -23.5336  -17.5017 C   0  0  1  0  0  0  0  0  0  0  0  0
   28.2592  -24.7240  -17.4516 C   0  0  0  0  0  0  0  0  0  0  0  0
   27.6419  -25.0640  -18.7760 C   0  0  0  0  0  0  0  0  0  0  0  0
   26.3756  -24.2625  -18.8699 C   0  0  0  0  0  0  0  0  0  0  0  0
   25.6736  -24.1828  -17.8442 O   0  0  0  0  0  0  0  0  0  0  0  0
   28.8533  -22.6338  -16.3682 C   0  0  0  0  0  0  0  0  0  0  0  0
   29.4695  -22.6967  -15.3061 O   0  0  0  0  0  0  0  0  0  0  0  0
   25.9682  -23.6234  -20.0277 O   0  0  0  0  0  0  0  0  0  0  0  0
   27.8200  -21.6658  -16.4780 N   0  0  0  0  0  0  0  0  0  0  0  0
   27.5436  -20.6668  -15.4377 C   0  0  1  0  0  0  0  0  0  0  0  0
   27.3306  -19.3653  -16.1581 C   0  0  0  0  0  0  0  0  0  0  0  0
   26.7619  -18.2913  -15.3549 C   0  0  0  0  0  0  0  0  0  0  0  0
   27.3542  -17.6267  -14.3054 C   0  0  0  0  0  0  0  0  0  0  0  0
   26.4568  -16.7028  -13.8511 N   0  0  0  0  0  0  0  0  0  0  0  0
   25.3334  -16.7755  -14.5845 C   0  0  0  0  0  0  0  0  0  0  0  0
   24.1704  -16.0468  -14.4919 C   0  0  0  0  0  0  0  0  0  0  0  0
   23.1181  -16.2915  -15.3650 C   0  0  0  0  0  0  0  0  0  0  0  0
   23.2682  -17.2680  -16.3109 C   0  0  0  0  0  0  0  0  0  0  0  0
   24.4398  -17.9923  -16.3942 C   0  0  0  0  0  0  0  0  0  0  0  0
   25.5032  -17.7574  -15.5252 C   0  0  0  0  0  0  0  0  0  0  0  0
   26.3607  -21.1171  -14.6700 C   0  0  0  0  0  0  0  0  0  0  0  0
   25.4254  -21.6955  -15.2683 O   0  0  0  0  0  0  0  0  0  0  0  0
   26.2406  -20.9187  -13.2712 N   0  0  0  0  0  0  0  0  0  0  0  0
   25.0799  -21.3445  -12.4942 C   0  0  1  0  0  0  0  0  0  0  0  0
   25.5324  -22.1220  -11.2923 C   0  0  0  0  0  0  0  0  0  0  0  0
   26.3204  -21.2911  -10.3797 C   0  0  0  0  0  0  0  0  0  0  0  0
   27.7097  -21.3643  -10.4298 C   0  0  0  0  0  0  0  0  0  0  0  0
   28.5121  -20.6174   -9.6142 C   0  0  0  0  0  0  0  0  0  0  0  0
   27.9135  -19.7626   -8.7115 C   0  0  0  0  0  0  0  0  0  0  0  0
   26.5427  -19.6555   -8.6251 C   0  0  0  0  0  0  0  0  0  0  0  0
   25.7666  -20.4237   -9.4631 C   0  0  0  0  0  0  0  0  0  0  0  0
   24.2455  -20.1805  -12.2009 C   0  0  0  0  0  0  0  0  0  0  0  0
   22.8875  -20.2340  -11.9202 O   0  0  0  0  0  0  0  0  0  0  0  0
   24.7729  -19.0304  -12.1963 O   0  0  0  0  0  0  0  0  0  0  0  0
  2  1  1  1
  3  4  1  0
  3  2  1  0
  4  5  1  0
  5  6  2  0
  5  9  1  0
  7  8  2  0
  7  2  1  0
 10  7  1  0
 11 10  1  0
 11 12  1  6
 12 13  1  0
 13 14  2  0
 13 21  1  0
 14 15  1  0
 15 16  1  0
 16 17  2  0
 18 17  1  0
 19 18  2  0
 20 21  2  0
 20 19  1  0
 21 16  1  0
 22 11  1  0
 23 22  2  0
 24 22  1  0
 25 33  1  0
 25 24  1  0
 25 26  1  1
 26 27  1  0
 27 28  2  0
 28 29  1  0
 30 29  2  0
 31 30  1  0
 32 27  1  0
 32 31  2  0
 33 34  1  0
 35 33  2  0
M  END
$$$$
