EWF.pdb
     RDKit          3D

 35 37  0  0  1  0  0  0  0  0999 V2000
   26.1541  -18.2121  -16.0009 N   0  0  0  0  0  0  0  0  0  0  0  0
   26.8180  -19.0891  -15.0303 C   0  0  1  0  0  0  0  0  0  0  0  0
   28.1735  -18.4940  -14.7877 C   0  0  0  0  0  0  0  0  0  0  0  0
   29.1323  -18.7011  -15.9228 C   0  0  0  0  0  0  0  0  0  0  0  0
   29.1189  -20.1722  -16.2238 C   0  0  0  0  0  0  0  0  0  0  0  0
   28.1700  -20.6067  -16.9034 O   0  0  0  0  0  0  0  0  0  0  0  0
   26.0603  -19.1005  -13.7571 C   0  0  0  0  0  0  0  0  0  0  0  0
   25.5700  -18.0732  -13.2922 O   0  0  0  0  0  0  0  0  0  0  0  0
   30.0994  -21.0440  -15.7838 O   0  0  0  0  0  0  0  0  0  0  0  0
   25.8779  -20.3081  -13.0324 N   0  0  0  0  0  0  0  0  0  0  0  0
   25.0829  -20.3915  -11.8005 C   0  0  1  0  0  0  0  0  0  0  0  0
   24.0163  -21.4168  -12.0633 C   0  0  0  0  0  0  0  0  0  0  0  0
   22.7365  -20.8870  -12.5143 C   0  0  0  0  0  0  0  0  0  0  0  0
   22.2956  -20.7533  -13.8111 C   0  0  0  0  0  0  0  0  0  0  0  0
   21.0428  -20.2120  -13.7605 N   0  0  0  0  0  0  0  0  0  0  0  0
   20.6973  -20.0082  -12.4782 C   0  0  0  0  0  0  0  0  0  0  0  0
   19.5399  -19.4871  -11.9482 C   0  0  0  0  0  0  0  0  0  0  0  0
   19.3920  -19.3637  -10.5726 C   0  0  0  0  0  0  0  0  0  0  0  0
   20.4192  -19.7706   -9.7664 C   0  0  0  0  0  0  0  0  0  0  0  0
   21.5755  -20.2921  -10.3097 C   0  0  0  0  0  0  0  0  0  0  0  0
   21.7374  -20.4216  -11.6875 C   0  0  0  0  0  0  0  0  0  0  0  0
   25.9917  -20.7562  -10.6903 C   0  0  0  0  0  0  0  0  0  0  0  0
   26.7691  -21.7277  -10.8283 O   0  0  0  0  0  0  0  0  0  0  0  0
   26.0190  -20.0447   -9.4641 N   0  0  0  0  0  0  0  0  0  0  0  0
   26.8052  -20.4639   -8.3072 C   0  0  1  0  0  0  0  0  0  0  0  0
   27.7364  -19.3588   -7.9002 C   0  0  0  0  0  0  0  0  0  0  0  0
   28.2958  -19.5906   -6.5670 C   0  0  0  0  0  0  0  0  0  0  0  0
   29.3760  -20.4580   -6.4297 C   0  0  0  0  0  0  0  0  0  0  0  0
   29.9547  -20.7211   -5.2204 C   0  0  0  0  0  0  0  0  0  0  0  0
   29.4422  -20.0992   -4.1003 C   0  0  0  0  0  0  0  0  0  0  0  0
   28.3746  -19.2327   -4.1861 C   0  0  0  0  0  0  0  0  0  0  0  0
   27.8175  -18.9920   -5.4215 C   0  0  0  0  0  0  0  0  0  0  0  0
   25.9019  -20.9310   -7.2570 C   0  0  0  0  0  0  0  0  0  0  0  0
   24.5295  -20.7251   -7.2477 O   0  0  0  0  0  0  0  0  0  0  0  0
   26.3783  -21.5708   -6.2748 O   0  0  0  0  0  0  0  0  0  0  0  0
  2  1  1  6
  3  4  1  0
  3  2  1  0
  4  5  1  0
  5  6  2  0
  5  9  1  0
  7  8  2  0
  7  2  1  0
 10  7  1  0
 11 10  1  0
 11 12  1  6
 12 13  1  0
 13 14  2  0
 13 21  1  0
 14 15  1  0
 15 16  1  0
 16 17  2  0
 18 17  1  0
 19 18  2  0
 20 21  2  0
 20 19  1  0
 21 16  1  0
 22 11  1  0
 23 22  2  0
 24 22  1  0
 25 33  1  0
 25 24  1  0
 25 26  1  1
 26 27  1  0
 27 28  2  0
 28 29  1  0
 30 29  2  0
 31 30  1  0
 32 27  1  0
 32 31  2  0
 33 34  1  0
 35 33  2  0
M  END
$$$$
