LVW.pdb
     RDKit          3D

 30 31  0  0  1  0  0  0  0  0999 V2000
    7.5731  -11.6919   19.8648 C   0  0  0  0  0  0  0  0  0  0  0  0
    7.9240  -13.0990   19.4352 C   0  0  1  0  0  0  0  0  0  0  0  0
    9.3895  -13.1539   19.1201 C   0  0  0  0  0  0  0  0  0  0  0  0
    7.5035  -14.1302   20.4481 C   0  0  0  0  0  0  0  0  0  0  0  0
    7.8280  -15.5195   20.0039 C   0  0  2  0  0  0  0  0  0  0  0  0
    7.0080  -15.9428   18.8981 N   0  0  0  0  0  0  0  0  0  0  0  0
    7.8587  -16.5010   21.1026 C   0  0  0  0  0  0  0  0  0  0  0  0
    6.8075  -16.7929   21.7386 O   0  0  0  0  0  0  0  0  0  0  0  0
    8.9447  -20.0160   20.9179 C   0  0  0  0  0  0  0  0  0  0  0  0
    9.7806  -19.3616   21.9711 C   0  0  2  0  0  0  0  0  0  0  0  0
   10.0348  -20.3907   23.0798 C   0  0  0  0  0  0  0  0  0  0  0  0
    9.1248  -18.1295   22.5488 C   0  0  2  0  0  0  0  0  0  0  0  0
    9.0461  -17.1435   21.4823 N   0  0  0  0  0  0  0  0  0  0  0  0
    9.9646  -17.5519   23.6512 C   0  0  0  0  0  0  0  0  0  0  0  0
   11.0408  -16.9809   23.3808 O   0  0  0  0  0  0  0  0  0  0  0  0
    9.5461  -17.6500   24.9996 N   0  0  0  0  0  0  0  0  0  0  0  0
   10.4783  -17.2732   26.0741 C   0  0  1  0  0  0  0  0  0  0  0  0
   10.2147  -15.8574   26.4715 C   0  0  0  0  0  0  0  0  0  0  0  0
    8.8028  -15.5043   26.4442 C   0  0  0  0  0  0  0  0  0  0  0  0
    7.7225  -16.3200   26.8194 C   0  0  0  0  0  0  0  0  0  0  0  0
    6.5731  -15.6622   26.6279 N   0  0  0  0  0  0  0  0  0  0  0  0
    6.8451  -14.4263   26.1354 C   0  0  0  0  0  0  0  0  0  0  0  0
    5.9786  -13.3886   25.7988 C   0  0  0  0  0  0  0  0  0  0  0  0
    6.4846  -12.1970   25.3299 C   0  0  0  0  0  0  0  0  0  0  0  0
    7.8492  -12.0807   25.2118 C   0  0  0  0  0  0  0  0  0  0  0  0
    8.6936  -13.1141   25.5473 C   0  0  0  0  0  0  0  0  0  0  0  0
    8.2147  -14.3227   26.0205 C   0  0  0  0  0  0  0  0  0  0  0  0
   10.4982  -18.2679   27.1261 C   0  0  0  0  0  0  0  0  0  0  0  0
    9.6711  -19.1902   27.2751 O   0  0  0  0  0  0  0  0  0  0  0  0
   11.5268  -18.2166   28.0791 O   0  0  0  0  0  0  0  0  0  0  0  0
  2  1  1  1
  3  2  1  0
  4  2  1  0
  5  4  1  0
  5  6  1  6
  7  5  1  0
  7  8  2  0
 10  9  1  6
 10 12  1  0
 11 10  1  0
 12 13  1  6
 13  7  1  0
 14 12  1  0
 15 14  2  0
 16 14  1  0
 17 16  1  0
 17 28  1  0
 18 19  1  0
 17 18  1  1
 19 27  1  0
 20 21  1  0
 20 19  2  0
 21 22  1  0
 22 27  2  0
 22 23  1  0
 23 24  2  0
 24 25  1  0
 26 25  2  0
 27 26  1  0
 28 30  1  0
 29 28  2  0
M  END
$$$$
