LVW.pdb
     RDKit          3D

 30 31  0  0  1  0  0  0  0  0999 V2000
    7.9368  -11.9240   19.7293 C   0  0  0  0  0  0  0  0  0  0  0  0
    7.9577  -13.3656   19.2722 C   0  0  1  0  0  0  0  0  0  0  0  0
    8.9224  -13.4939   18.1307 C   0  0  0  0  0  0  0  0  0  0  0  0
    8.2519  -14.3206   20.3981 C   0  0  0  0  0  0  0  0  0  0  0  0
    8.1501  -15.7474   19.9660 C   0  0  2  0  0  0  0  0  0  0  0  0
    6.8678  -16.0496   19.3837 N   0  0  0  0  0  0  0  0  0  0  0  0
    8.5477  -16.7116   21.0070 C   0  0  0  0  0  0  0  0  0  0  0  0
    7.6833  -17.2514   21.7526 O   0  0  0  0  0  0  0  0  0  0  0  0
   11.3487  -19.5234   20.6113 C   0  0  0  0  0  0  0  0  0  0  0  0
   11.5981  -18.6297   21.7839 C   0  0  2  0  0  0  0  0  0  0  0  0
   12.2047  -19.4810   22.9066 C   0  0  0  0  0  0  0  0  0  0  0  0
   10.3407  -17.9494   22.2718 C   0  0  2  0  0  0  0  0  0  0  0  0
    9.8900  -17.0643   21.2092 N   0  0  0  0  0  0  0  0  0  0  0  0
   10.6303  -17.1089   23.4817 C   0  0  0  0  0  0  0  0  0  0  0  0
   11.3227  -16.0765   23.3720 O   0  0  0  0  0  0  0  0  0  0  0  0
   10.1243  -17.4782   24.7508 N   0  0  0  0  0  0  0  0  0  0  0  0
   10.4265  -16.6386   25.9209 C   0  0  1  0  0  0  0  0  0  0  0  0
    9.9785  -15.2407   25.6443 C   0  0  0  0  0  0  0  0  0  0  0  0
    8.5547  -15.0366   25.8678 C   0  0  0  0  0  0  0  0  0  0  0  0
    7.5451  -16.0119   25.8160 C   0  0  0  0  0  0  0  0  0  0  0  0
    6.3560  -15.4425   26.0445 N   0  0  0  0  0  0  0  0  0  0  0  0
    6.5326  -14.1118   26.2499 C   0  0  0  0  0  0  0  0  0  0  0  0
    5.5968  -13.1208   26.5379 C   0  0  0  0  0  0  0  0  0  0  0  0
    6.0104  -11.8216   26.7299 C   0  0  0  0  0  0  0  0  0  0  0  0
    7.3546  -11.5534   26.6271 C   0  0  0  0  0  0  0  0  0  0  0  0
    8.2681  -12.5420   26.3414 C   0  0  0  0  0  0  0  0  0  0  0  0
    7.8827  -13.8558   26.1430 C   0  0  0  0  0  0  0  0  0  0  0  0
    9.9635  -17.2568   27.1456 C   0  0  0  0  0  0  0  0  0  0  0  0
   10.1005  -16.7923   28.2956 O   0  0  0  0  0  0  0  0  0  0  0  0
    9.2976  -18.4893   27.0654 O   0  0  0  0  0  0  0  0  0  0  0  0
  2  1  1  1
  3  2  1  0
  4  2  1  0
  5  4  1  0
  5  6  1  1
  7  5  1  0
  7  8  2  0
 10  9  1  6
 10 12  1  0
 11 10  1  0
 12 13  1  6
 13  7  1  0
 14 12  1  0
 15 14  2  0
 16 14  1  0
 17 16  1  0
 17 28  1  0
 18 19  1  0
 17 18  1  6
 19 27  1  0
 20 21  1  0
 20 19  2  0
 21 22  1  0
 22 27  2  0
 22 23  1  0
 23 24  2  0
 24 25  1  0
 26 25  2  0
 27 26  1  0
 28 30  1  0
 29 28  2  0
M  END
$$$$
