LVW.pdb
     RDKit          3D

 30 31  0  0  1  0  0  0  0  0999 V2000
   10.6354  -18.3224   14.9071 C   0  0  0  0  0  0  0  0  0  0  0  0
   10.3093  -18.6688   16.3428 C   0  0  1  0  0  0  0  0  0  0  0  0
   11.3199  -19.6597   16.8396 C   0  0  0  0  0  0  0  0  0  0  0  0
   10.2056  -17.4487   17.2184 C   0  0  0  0  0  0  0  0  0  0  0  0
    9.8958  -17.7998   18.6374 C   0  0  2  0  0  0  0  0  0  0  0  0
    8.6814  -18.5650   18.7561 N   0  0  0  0  0  0  0  0  0  0  0  0
    9.9390  -16.6482   19.5558 C   0  0  0  0  0  0  0  0  0  0  0  0
   10.9992  -15.9783   19.7036 O   0  0  0  0  0  0  0  0  0  0  0  0
    7.2810  -13.9378   19.6056 C   0  0  0  0  0  0  0  0  0  0  0  0
    7.4821  -14.4075   21.0109 C   0  0  2  0  0  0  0  0  0  0  0  0
    7.4040  -13.1847   21.9338 C   0  0  0  0  0  0  0  0  0  0  0  0
    8.8024  -15.1165   21.2015 C   0  0  2  0  0  0  0  0  0  0  0  0
    8.8146  -16.2546   20.2958 N   0  0  0  0  0  0  0  0  0  0  0  0
    8.9230  -15.6402   22.6035 C   0  0  0  0  0  0  0  0  0  0  0  0
    8.3629  -16.7097   22.9194 O   0  0  0  0  0  0  0  0  0  0  0  0
    9.6681  -14.9293   23.5742 N   0  0  0  0  0  0  0  0  0  0  0  0
    9.9471  -15.5595   24.8743 C   0  0  1  0  0  0  0  0  0  0  0  0
    8.6995  -16.2099   25.3765 C   0  0  0  0  0  0  0  0  0  0  0  0
    7.6200  -15.2671   25.6307 C   0  0  0  0  0  0  0  0  0  0  0  0
    6.2459  -15.4876   25.4398 C   0  0  0  0  0  0  0  0  0  0  0  0
    5.5639  -14.3795   25.7518 N   0  0  0  0  0  0  0  0  0  0  0  0
    6.4363  -13.4175   26.1485 C   0  0  0  0  0  0  0  0  0  0  0  0
    6.1940  -12.1152   26.5801 C   0  0  0  0  0  0  0  0  0  0  0  0
    7.2456  -11.3110   26.9584 C   0  0  0  0  0  0  0  0  0  0  0  0
    8.5135  -11.8380   26.8924 C   0  0  0  0  0  0  0  0  0  0  0  0
    8.7385  -13.1259   26.4636 C   0  0  0  0  0  0  0  0  0  0  0  0
    7.7026  -13.9572   26.0767 C   0  0  0  0  0  0  0  0  0  0  0  0
   11.1456  -16.3703   24.8195 C   0  0  0  0  0  0  0  0  0  0  0  0
   11.8842  -16.5158   23.8245 O   0  0  0  0  0  0  0  0  0  0  0  0
   11.5377  -17.0674   25.9725 O   0  0  0  0  0  0  0  0  0  0  0  0
  2  1  1  6
  3  2  1  0
  4  2  1  0
  5  4  1  0
  5  6  1  6
  7  5  1  0
  7  8  2  0
 10  9  1  6
 10 12  1  0
 11 10  1  0
 12 13  1  6
 13  7  1  0
 14 12  1  0
 15 14  2  0
 16 14  1  0
 17 16  1  0
 17 28  1  0
 18 19  1  0
 17 18  1  6
 19 27  1  0
 20 21  1  0
 20 19  2  0
 21 22  1  0
 22 27  2  0
 22 23  1  0
 23 24  2  0
 24 25  1  0
 26 25  2  0
 27 26  1  0
 28 30  1  0
 29 28  2  0
M  END
$$$$
