LVW.pdb
     RDKit          3D

 30 31  0  0  1  0  0  0  0  0999 V2000
    6.3827  -18.1798   24.6002 C   0  0  0  0  0  0  0  0  0  0  0  0
    7.3803  -18.9263   23.7427 C   0  0  1  0  0  0  0  0  0  0  0  0
    8.1651  -19.8574   24.6186 C   0  0  0  0  0  0  0  0  0  0  0  0
    6.7281  -19.6258   22.5802 C   0  0  0  0  0  0  0  0  0  0  0  0
    6.2768  -18.6657   21.5279 C   0  0  2  0  0  0  0  0  0  0  0  0
    5.6200  -19.3292   20.4312 N   0  0  0  0  0  0  0  0  0  0  0  0
    7.3291  -17.7336   21.0857 C   0  0  0  0  0  0  0  0  0  0  0  0
    8.3369  -18.1509   20.4494 O   0  0  0  0  0  0  0  0  0  0  0  0
    8.3219  -12.9715   20.1841 C   0  0  0  0  0  0  0  0  0  0  0  0
    7.4333  -14.1040   20.5890 C   0  0  2  0  0  0  0  0  0  0  0  0
    6.6870  -13.6873   21.8627 C   0  0  0  0  0  0  0  0  0  0  0  0
    8.1993  -15.3830   20.8327 C   0  0  2  0  0  0  0  0  0  0  0  0
    7.2538  -16.3587   21.3521 N   0  0  0  0  0  0  0  0  0  0  0  0
    9.2628  -15.1719   21.8712 C   0  0  0  0  0  0  0  0  0  0  0  0
   10.0020  -14.1683   21.8111 O   0  0  0  0  0  0  0  0  0  0  0  0
    9.4363  -16.1045   22.9214 N   0  0  0  0  0  0  0  0  0  0  0  0
   10.3986  -15.8117   23.9955 C   0  0  1  0  0  0  0  0  0  0  0  0
   10.1229  -14.4464   24.5356 C   0  0  0  0  0  0  0  0  0  0  0  0
    9.0203  -14.4139   25.4854 C   0  0  0  0  0  0  0  0  0  0  0  0
    8.6726  -15.4146   26.4078 C   0  0  0  0  0  0  0  0  0  0  0  0
    7.5830  -15.0411   27.0888 N   0  0  0  0  0  0  0  0  0  0  0  0
    7.1851  -13.8175   26.6543 C   0  0  0  0  0  0  0  0  0  0  0  0
    6.1199  -13.0238   27.0741 C   0  0  0  0  0  0  0  0  0  0  0  0
    5.9145  -11.7905   26.4976 C   0  0  0  0  0  0  0  0  0  0  0  0
    6.7861  -11.3879   25.5139 C   0  0  0  0  0  0  0  0  0  0  0  0
    7.8339  -12.1823   25.1085 C   0  0  0  0  0  0  0  0  0  0  0  0
    8.0652  -13.4260   25.6685 C   0  0  0  0  0  0  0  0  0  0  0  0
   10.4741  -16.9015   24.9458 C   0  0  0  0  0  0  0  0  0  0  0  0
   11.2999  -17.0042   25.8756 O   0  0  0  0  0  0  0  0  0  0  0  0
    9.5496  -17.9516   24.8377 O   0  0  0  0  0  0  0  0  0  0  0  0
  2  1  1  1
  3  2  1  0
  4  2  1  0
  5  4  1  0
  5  6  1  6
  7  5  1  0
  7  8  2  0
 10  9  1  1
 10 12  1  0
 11 10  1  0
 12 13  1  1
 13  7  1  0
 14 12  1  0
 15 14  2  0
 16 14  1  0
 17 16  1  0
 17 28  1  0
 18 19  1  0
 17 18  1  1
 19 27  1  0
 20 21  1  0
 20 19  2  0
 21 22  1  0
 22 27  2  0
 22 23  1  0
 23 24  2  0
 24 25  1  0
 26 25  2  0
 27 26  1  0
 28 30  1  0
 29 28  2  0
M  END
$$$$
