LVW.pdb
     RDKit          3D

 30 31  0  0  1  0  0  0  0  0999 V2000
    7.5953  -11.9685   19.0032 C   0  0  0  0  0  0  0  0  0  0  0  0
    8.4515  -13.1892   18.7489 C   0  0  1  0  0  0  0  0  0  0  0  0
    9.8949  -12.7875   18.8217 C   0  0  0  0  0  0  0  0  0  0  0  0
    8.1135  -14.3298   19.6714 C   0  0  0  0  0  0  0  0  0  0  0  0
    8.9183  -15.5525   19.3717 C   0  0  2  0  0  0  0  0  0  0  0  0
    8.6607  -16.0632   18.0498 N   0  0  0  0  0  0  0  0  0  0  0  0
    8.8295  -16.5906   20.4139 C   0  0  0  0  0  0  0  0  0  0  0  0
    8.1396  -17.6324   20.2318 O   0  0  0  0  0  0  0  0  0  0  0  0
   10.3233  -19.8576   22.9780 C   0  0  0  0  0  0  0  0  0  0  0  0
   10.2872  -18.6775   22.0602 C   0  0  2  0  0  0  0  0  0  0  0  0
   11.7346  -18.2738   21.7522 C   0  0  0  0  0  0  0  0  0  0  0  0
    9.5378  -17.5066   22.6513 C   0  0  2  0  0  0  0  0  0  0  0  0
    9.5013  -16.4632   21.6384 N   0  0  0  0  0  0  0  0  0  0  0  0
   10.2646  -16.9639   23.8477 C   0  0  0  0  0  0  0  0  0  0  0  0
   11.4375  -16.5541   23.7312 O   0  0  0  0  0  0  0  0  0  0  0  0
    9.6299  -16.9134   25.1117 N   0  0  0  0  0  0  0  0  0  0  0  0
   10.3928  -16.4590   26.2851 C   0  0  1  0  0  0  0  0  0  0  0  0
    9.9329  -15.0887   26.6625 C   0  0  0  0  0  0  0  0  0  0  0  0
    8.4988  -14.8974   26.5025 C   0  0  0  0  0  0  0  0  0  0  0  0
    7.5413  -15.8887   26.2311 C   0  0  0  0  0  0  0  0  0  0  0  0
    6.3311  -15.3286   26.1220 N   0  0  0  0  0  0  0  0  0  0  0  0
    6.4426  -13.9887   26.3125 C   0  0  0  0  0  0  0  0  0  0  0  0
    5.4597  -13.0014   26.3092 C   0  0  0  0  0  0  0  0  0  0  0  0
    5.8037  -11.6900   26.5492 C   0  0  0  0  0  0  0  0  0  0  0  0
    7.1277  -11.4062   26.7861 C   0  0  0  0  0  0  0  0  0  0  0  0
    8.0884  -12.3913   26.7858 C   0  0  0  0  0  0  0  0  0  0  0  0
    7.7733  -13.7171   26.5474 C   0  0  0  0  0  0  0  0  0  0  0  0
   10.4085  -17.4666   27.3248 C   0  0  0  0  0  0  0  0  0  0  0  0
   11.0362  -17.3963   28.4009 O   0  0  0  0  0  0  0  0  0  0  0  0
    9.6609  -18.6388   27.1350 O   0  0  0  0  0  0  0  0  0  0  0  0
  2  1  1  1
  3  2  1  0
  4  2  1  0
  5  4  1  0
  5  6  1  6
  7  5  1  0
  7  8  2  0
 10  9  1  1
 10 12  1  0
 11 10  1  0
 12 13  1  6
 13  7  1  0
 14 12  1  0
 15 14  2  0
 16 14  1  0
 17 16  1  0
 17 28  1  0
 18 19  1  0
 17 18  1  1
 19 27  1  0
 20 21  1  0
 20 19  2  0
 21 22  1  0
 22 27  2  0
 22 23  1  0
 23 24  2  0
 24 25  1  0
 26 25  2  0
 27 26  1  0
 28 30  1  0
 29 28  2  0
M  END
$$$$
