LVW.pdb
     RDKit          3D

 30 31  0  0  1  0  0  0  0  0999 V2000
    8.3219  -20.3566   16.3881 C   0  0  0  0  0  0  0  0  0  0  0  0
    8.4661  -20.2723   17.8913 C   0  0  1  0  0  0  0  0  0  0  0  0
    9.4368  -21.3239   18.3407 C   0  0  0  0  0  0  0  0  0  0  0  0
    8.8427  -18.8906   18.3554 C   0  0  0  0  0  0  0  0  0  0  0  0
    8.9413  -18.8051   19.8439 C   0  0  2  0  0  0  0  0  0  0  0  0
    7.7985  -19.3870   20.4994 N   0  0  0  0  0  0  0  0  0  0  0  0
    9.2598  -17.4545   20.3400 C   0  0  0  0  0  0  0  0  0  0  0  0
   10.2768  -16.8346   19.9205 O   0  0  0  0  0  0  0  0  0  0  0  0
    6.4487  -14.9588   20.4639 C   0  0  0  0  0  0  0  0  0  0  0  0
    7.2103  -14.8235   21.7437 C   0  0  2  0  0  0  0  0  0  0  0  0
    7.2907  -13.3315   22.0906 C   0  0  0  0  0  0  0  0  0  0  0  0
    8.5996  -15.4102   21.6559 C   0  0  2  0  0  0  0  0  0  0  0  0
    8.4533  -16.8102   21.2895 N   0  0  0  0  0  0  0  0  0  0  0  0
    9.2833  -15.3510   22.9913 C   0  0  0  0  0  0  0  0  0  0  0  0
   10.0045  -14.3742   23.2793 O   0  0  0  0  0  0  0  0  0  0  0  0
    9.1176  -16.3971   23.9300 N   0  0  0  0  0  0  0  0  0  0  0  0
    9.9348  -16.4053   25.1538 C   0  0  1  0  0  0  0  0  0  0  0  0
    9.0307  -16.4733   26.3410 C   0  0  0  0  0  0  0  0  0  0  0  0
    7.8759  -15.5933   26.2376 C   0  0  0  0  0  0  0  0  0  0  0  0
    6.5771  -15.9504   25.8391 C   0  0  0  0  0  0  0  0  0  0  0  0
    5.7923  -14.8667   25.8368 N   0  0  0  0  0  0  0  0  0  0  0  0
    6.5222  -13.7885   26.2226 C   0  0  0  0  0  0  0  0  0  0  0  0
    6.1355  -12.4599   26.3844 C   0  0  0  0  0  0  0  0  0  0  0  0
    7.0525  -11.5255   26.8106 C   0  0  0  0  0  0  0  0  0  0  0  0
    8.3346  -11.9522   27.0629 C   0  0  0  0  0  0  0  0  0  0  0  0
    8.7031  -13.2677   26.8983 C   0  0  0  0  0  0  0  0  0  0  0  0
    7.8044  -14.2288   26.4710 C   0  0  0  0  0  0  0  0  0  0  0  0
   10.9987  -17.3838   25.0693 C   0  0  0  0  0  0  0  0  0  0  0  0
   11.2241  -18.1360   24.0997 O   0  0  0  0  0  0  0  0  0  0  0  0
   11.8710  -17.5228   26.1596 O   0  0  0  0  0  0  0  0  0  0  0  0
  2  1  1  6
  3  2  1  0
  4  2  1  0
  5  4  1  0
  5  6  1  1
  7  5  1  0
  7  8  2  0
 10  9  1  6
 10 12  1  0
 11 10  1  0
 12 13  1  1
 13  7  1  0
 14 12  1  0
 15 14  2  0
 16 14  1  0
 17 16  1  0
 17 28  1  0
 18 19  1  0
 17 18  1  1
 19 27  1  0
 20 21  1  0
 20 19  2  0
 21 22  1  0
 22 27  2  0
 22 23  1  0
 23 24  2  0
 24 25  1  0
 26 25  2  0
 27 26  1  0
 28 30  1  0
 29 28  2  0
M  END
$$$$
