LVW.pdb
     RDKit          3D

 30 31  0  0  1  0  0  0  0  0999 V2000
    7.2955  -21.0675   16.9938 C   0  0  0  0  0  0  0  0  0  0  0  0
    7.5952  -20.8195   18.4554 C   0  0  1  0  0  0  0  0  0  0  0  0
    7.9653  -22.1234   19.0980 C   0  0  0  0  0  0  0  0  0  0  0  0
    8.6373  -19.7515   18.6546 C   0  0  0  0  0  0  0  0  0  0  0  0
    8.7318  -19.3177   20.0814 C   0  0  2  0  0  0  0  0  0  0  0  0
    7.5705  -19.6976   20.8439 N   0  0  0  0  0  0  0  0  0  0  0  0
    9.0854  -17.8966   20.2464 C   0  0  0  0  0  0  0  0  0  0  0  0
   10.0753  -17.4017   19.6383 O   0  0  0  0  0  0  0  0  0  0  0  0
    6.4827  -15.0993   19.9835 C   0  0  0  0  0  0  0  0  0  0  0  0
    7.2576  -14.9268   21.2508 C   0  0  2  0  0  0  0  0  0  0  0  0
    7.4496  -13.4232   21.4865 C   0  0  0  0  0  0  0  0  0  0  0  0
    8.5993  -15.6196   21.2083 C   0  0  2  0  0  0  0  0  0  0  0  0
    8.3435  -17.0456   21.0784 N   0  0  0  0  0  0  0  0  0  0  0  0
    9.3482  -15.3994   22.4909 C   0  0  0  0  0  0  0  0  0  0  0  0
   10.0451  -14.3747   22.6375 O   0  0  0  0  0  0  0  0  0  0  0  0
    9.2716  -16.3473   23.5391 N   0  0  0  0  0  0  0  0  0  0  0  0
   10.0729  -16.1438   24.7565 C   0  0  1  0  0  0  0  0  0  0  0  0
    9.8556  -14.7521   25.2540 C   0  0  0  0  0  0  0  0  0  0  0  0
    8.5175  -14.5312   25.7830 C   0  0  0  0  0  0  0  0  0  0  0  0
    7.4919  -15.4832   25.9056 C   0  0  0  0  0  0  0  0  0  0  0  0
    6.3950  -14.9022   26.4051 N   0  0  0  0  0  0  0  0  0  0  0  0
    6.6495  -13.5864   26.6243 C   0  0  0  0  0  0  0  0  0  0  0  0
    5.8248  -12.5921   27.1459 C   0  0  0  0  0  0  0  0  0  0  0  0
    6.3071  -11.3118   27.3003 C   0  0  0  0  0  0  0  0  0  0  0  0
    7.6065  -11.0652   26.9258 C   0  0  0  0  0  0  0  0  0  0  0  0
    8.4100  -12.0568   26.4114 C   0  0  0  0  0  0  0  0  0  0  0  0
    7.9535  -13.3520   26.2441 C   0  0  0  0  0  0  0  0  0  0  0  0
    9.8815  -17.2260   25.6992 C   0  0  0  0  0  0  0  0  0  0  0  0
    9.0592  -18.1575   25.5850 O   0  0  0  0  0  0  0  0  0  0  0  0
   10.6766  -17.2579   26.8550 O   0  0  0  0  0  0  0  0  0  0  0  0
  2  1  1  6
  3  2  1  0
  4  2  1  0
  5  4  1  0
  5  6  1  6
  7  5  1  0
  7  8  2  0
 10  9  1  6
 10 12  1  0
 11 10  1  0
 12 13  1  1
 13  7  1  0
 14 12  1  0
 15 14  2  0
 16 14  1  0
 17 16  1  0
 17 28  1  0
 18 19  1  0
 17 18  1  1
 19 27  1  0
 20 21  1  0
 20 19  2  0
 21 22  1  0
 22 27  2  0
 22 23  1  0
 23 24  2  0
 24 25  1  0
 26 25  2  0
 27 26  1  0
 28 30  1  0
 29 28  2  0
M  END
$$$$
