LVW.pdb
     RDKit          3D

 30 31  0  0  1  0  0  0  0  0999 V2000
    7.2337  -12.1949   19.0457 C   0  0  0  0  0  0  0  0  0  0  0  0
    8.4894  -13.0292   18.9239 C   0  0  1  0  0  0  0  0  0  0  0  0
    9.3546  -12.7732   20.1222 C   0  0  0  0  0  0  0  0  0  0  0  0
    8.1903  -14.4902   18.7186 C   0  0  0  0  0  0  0  0  0  0  0  0
    9.2888  -15.3658   19.2279 C   0  0  2  0  0  0  0  0  0  0  0  0
    9.7563  -16.2902   18.2272 N   0  0  0  0  0  0  0  0  0  0  0  0
    8.9783  -16.0201   20.5114 C   0  0  0  0  0  0  0  0  0  0  0  0
    8.5550  -15.3488   21.4936 O   0  0  0  0  0  0  0  0  0  0  0  0
    8.0145  -20.0963   20.5867 C   0  0  0  0  0  0  0  0  0  0  0  0
    8.9436  -19.5832   21.6400 C   0  0  2  0  0  0  0  0  0  0  0  0
    8.6906  -20.3833   22.9241 C   0  0  0  0  0  0  0  0  0  0  0  0
    8.7606  -18.1073   21.9051 C   0  0  2  0  0  0  0  0  0  0  0  0
    9.1399  -17.4016   20.6911 N   0  0  0  0  0  0  0  0  0  0  0  0
    9.6717  -17.6519   23.0082 C   0  0  0  0  0  0  0  0  0  0  0  0
   10.9076  -17.7744   22.8861 O   0  0  0  0  0  0  0  0  0  0  0  0
    9.1401  -17.0836   24.1902 N   0  0  0  0  0  0  0  0  0  0  0  0
   10.0550  -16.6552   25.2602 C   0  0  1  0  0  0  0  0  0  0  0  0
    9.8270  -15.2062   25.5430 C   0  0  0  0  0  0  0  0  0  0  0  0
    8.4314  -14.8813   25.7990 C   0  0  0  0  0  0  0  0  0  0  0  0
    7.3631  -15.7859   25.9154 C   0  0  0  0  0  0  0  0  0  0  0  0
    6.2239  -15.1143   26.1197 N   0  0  0  0  0  0  0  0  0  0  0  0
    6.4913  -13.7832   26.1455 C   0  0  0  0  0  0  0  0  0  0  0  0
    5.6332  -12.7037   26.3440 C   0  0  0  0  0  0  0  0  0  0  0  0
    6.1342  -11.4212   26.3504 C   0  0  0  0  0  0  0  0  0  0  0  0
    7.4854  -11.2583   26.1570 C   0  0  0  0  0  0  0  0  0  0  0  0
    8.3214  -12.3336   25.9615 C   0  0  0  0  0  0  0  0  0  0  0  0
    7.8473  -13.6332   25.9493 C   0  0  0  0  0  0  0  0  0  0  0  0
   10.0146  -17.5678   26.3836 C   0  0  0  0  0  0  0  0  0  0  0  0
    9.1345  -18.4265   26.5960 O   0  0  0  0  0  0  0  0  0  0  0  0
   11.0428  -17.5055   27.3365 O   0  0  0  0  0  0  0  0  0  0  0  0
  2  1  1  1
  3  2  1  0
  4  2  1  0
  5  4  1  0
  5  6  1  6
  7  5  1  0
  7  8  2  0
 10  9  1  6
 10 12  1  0
 11 10  1  0
 12 13  1  6
 13  7  1  0
 14 12  1  0
 15 14  2  0
 16 14  1  0
 17 16  1  0
 17 28  1  0
 18 19  1  0
 17 18  1  1
 19 27  1  0
 20 21  1  0
 20 19  2  0
 21 22  1  0
 22 27  2  0
 22 23  1  0
 23 24  2  0
 24 25  1  0
 26 25  2  0
 27 26  1  0
 28 30  1  0
 29 28  2  0
M  END
$$$$
