LVW.pdb
     RDKit          3D

 30 31  0  0  1  0  0  0  0  0999 V2000
    7.2007  -11.6172   20.6962 C   0  0  0  0  0  0  0  0  0  0  0  0
    7.6199  -12.9587   20.1373 C   0  0  1  0  0  0  0  0  0  0  0  0
    8.9544  -12.8055   19.4698 C   0  0  0  0  0  0  0  0  0  0  0  0
    7.6075  -14.0443   21.1801 C   0  0  0  0  0  0  0  0  0  0  0  0
    7.9325  -15.3831   20.6015 C   0  0  2  0  0  0  0  0  0  0  0  0
    6.9534  -15.8109   19.6357 N   0  0  0  0  0  0  0  0  0  0  0  0
    8.2239  -16.4120   21.6156 C   0  0  0  0  0  0  0  0  0  0  0  0
    7.2922  -17.0790   22.1463 O   0  0  0  0  0  0  0  0  0  0  0  0
   10.7715  -19.2385   21.4042 C   0  0  0  0  0  0  0  0  0  0  0  0
   11.0644  -18.4224   22.6224 C   0  0  2  0  0  0  0  0  0  0  0  0
   11.5250  -19.3768   23.7314 C   0  0  0  0  0  0  0  0  0  0  0  0
    9.8677  -17.6267   23.0882 C   0  0  2  0  0  0  0  0  0  0  0  0
    9.5356  -16.6880   22.0279 N   0  0  0  0  0  0  0  0  0  0  0  0
   10.2065  -16.8342   24.3177 C   0  0  0  0  0  0  0  0  0  0  0  0
   11.0858  -15.9503   24.2665 O   0  0  0  0  0  0  0  0  0  0  0  0
    9.5360  -17.0818   25.5391 N   0  0  0  0  0  0  0  0  0  0  0  0
   10.1330  -16.6108   26.7990 C   0  0  1  0  0  0  0  0  0  0  0  0
    9.1328  -15.7735   27.5271 C   0  0  0  0  0  0  0  0  0  0  0  0
    8.0718  -15.2661   26.6694 C   0  0  0  0  0  0  0  0  0  0  0  0
    7.1237  -16.0246   25.9631 C   0  0  0  0  0  0  0  0  0  0  0  0
    6.3294  -15.2104   25.2584 N   0  0  0  0  0  0  0  0  0  0  0  0
    6.7123  -13.9246   25.4685 C   0  0  0  0  0  0  0  0  0  0  0  0
    6.1779  -12.7403   24.9658 C   0  0  0  0  0  0  0  0  0  0  0  0
    6.7224  -11.5308   25.3353 C   0  0  0  0  0  0  0  0  0  0  0  0
    7.7903  -11.5445   26.2008 C   0  0  0  0  0  0  0  0  0  0  0  0
    8.3085  -12.7219   26.6892 C   0  0  0  0  0  0  0  0  0  0  0  0
    7.7833  -13.9520   26.3357 C   0  0  0  0  0  0  0  0  0  0  0  0
   10.7484  -17.6994   27.5288 C   0  0  0  0  0  0  0  0  0  0  0  0
   10.6067  -18.9148   27.2848 O   0  0  0  0  0  0  0  0  0  0  0  0
   11.5842  -17.3926   28.6134 O   0  0  0  0  0  0  0  0  0  0  0  0
  2  1  1  1
  3  2  1  0
  4  2  1  0
  5  4  1  0
  5  6  1  1
  7  5  1  0
  7  8  2  0
 10  9  1  6
 10 12  1  0
 11 10  1  0
 12 13  1  6
 13  7  1  0
 14 12  1  0
 15 14  2  0
 16 14  1  0
 17 16  1  0
 17 28  1  0
 18 19  1  0
 17 18  1  1
 19 27  1  0
 20 21  1  0
 20 19  2  0
 21 22  1  0
 22 27  2  0
 22 23  1  0
 23 24  2  0
 24 25  1  0
 26 25  2  0
 27 26  1  0
 28 30  1  0
 29 28  2  0
M  END
$$$$
