PWN.pdb
     RDKit          3D

 30 32  0  0  1  0  0  0  0  0999 V2000
   28.1129  -19.7185  -13.2851 N   0  0  0  0  0  0  0  0  0  0  0  0
   29.1145  -19.5901  -14.3546 C   0  0  0  0  0  0  0  0  0  0  0  0
   30.1379  -20.6396  -13.9787 C   0  0  0  0  0  0  0  0  0  0  0  0
   29.4680  -21.5186  -12.9130 C   0  0  0  0  0  0  0  0  0  0  0  0
   28.0193  -21.1558  -13.1588 C   0  0  1  0  0  0  0  0  0  0  0  0
   27.1282  -21.4847  -12.0358 C   0  0  0  0  0  0  0  0  0  0  0  0
   26.8064  -22.7014  -11.7732 O   0  0  0  0  0  0  0  0  0  0  0  0
   26.6221  -20.4231  -11.2358 N   0  0  0  0  0  0  0  0  0  0  0  0
   25.7051  -20.6649  -10.1650 C   0  0  1  0  0  0  0  0  0  0  0  0
   25.9295  -19.7671   -8.9749 C   0  0  0  0  0  0  0  0  0  0  0  0
   27.1971  -20.0251   -8.2820 C   0  0  0  0  0  0  0  0  0  0  0  0
   28.4336  -20.1799   -8.8557 C   0  0  0  0  0  0  0  0  0  0  0  0
   29.3025  -20.3974   -7.8577 N   0  0  0  0  0  0  0  0  0  0  0  0
   28.6751  -20.3884   -6.6727 C   0  0  0  0  0  0  0  0  0  0  0  0
   29.0842  -20.5557   -5.3662 C   0  0  0  0  0  0  0  0  0  0  0  0
   28.2010  -20.4947   -4.3170 C   0  0  0  0  0  0  0  0  0  0  0  0
   26.8622  -20.2611   -4.5457 C   0  0  0  0  0  0  0  0  0  0  0  0
   26.4534  -20.0942   -5.8467 C   0  0  0  0  0  0  0  0  0  0  0  0
   27.3464  -20.1551   -6.9166 C   0  0  0  0  0  0  0  0  0  0  0  0
   24.2975  -20.4014  -10.6333 C   0  0  0  0  0  0  0  0  0  0  0  0
   24.0047  -19.4141  -11.3513 O   0  0  0  0  0  0  0  0  0  0  0  0
   19.5164  -21.5259  -12.2205 N   0  0  0  0  0  0  0  0  0  0  0  0
   20.0304  -22.6699  -11.5008 C   0  0  0  0  0  0  0  0  0  0  0  0
   19.3972  -23.7371  -11.4537 O   0  0  0  0  0  0  0  0  0  0  0  0
   21.3186  -22.5076  -10.8387 C   0  0  0  0  0  0  0  0  0  0  0  0
   21.9615  -21.1500  -10.9750 C   0  0  2  0  0  0  0  0  0  0  0  0
   23.2570  -21.2877  -10.2606 N   0  0  0  0  0  0  0  0  0  0  0  0
   21.1942  -20.0447  -10.3928 C   0  0  0  0  0  0  0  0  0  0  0  0
   20.3502  -19.3538  -10.9932 O   0  0  0  0  0  0  0  0  0  0  0  0
   21.3951  -19.6987   -9.0432 O   0  0  0  0  0  0  0  0  0  0  0  0
  1  2  1  0
  2  3  1  0
  4  3  1  0
  5  1  1  0
  5  4  1  0
  5  6  1  1
  7  6  2  0
  8  6  1  0
  9  8  1  0
 10 11  1  0
  9 10  1  1
 11 12  2  0
 13 12  1  0
 14 13  1  0
 15 14  2  0
 16 15  1  0
 17 16  2  0
 17 18  1  0
 18 19  2  0
 19 14  1  0
 19 11  1  0
 20  9  1  0
 20 27  1  0
 21 20  2  0
 22 23  1  0
 23 24  2  0
 23 25  1  0
 26 25  1  1
 26 27  1  0
 26 28  1  0
 28 30  1  0
 29 28  2  0
M  END
$$$$
