PWN.pdb
     RDKit          3D

 30 32  0  0  1  0  0  0  0  0999 V2000
   27.8372  -20.9751  -16.9361 N   0  0  0  0  0  0  0  0  0  0  0  0
   28.8648  -21.1141  -17.9793 C   0  0  0  0  0  0  0  0  0  0  0  0
   29.7930  -22.1563  -17.3942 C   0  0  0  0  0  0  0  0  0  0  0  0
   29.0352  -22.7801  -16.2136 C   0  0  0  0  0  0  0  0  0  0  0  0
   27.6253  -22.3562  -16.5646 C   0  0  1  0  0  0  0  0  0  0  0  0
   26.6907  -22.4131  -15.4304 C   0  0  0  0  0  0  0  0  0  0  0  0
   26.4149  -23.5255  -14.8477 O   0  0  0  0  0  0  0  0  0  0  0  0
   26.0895  -21.2040  -14.9833 N   0  0  0  0  0  0  0  0  0  0  0  0
   25.3740  -21.1370  -13.7465 C   0  0  1  0  0  0  0  0  0  0  0  0
   25.7950  -19.9795  -12.8773 C   0  0  0  0  0  0  0  0  0  0  0  0
   26.8471  -20.3266  -11.9150 C   0  0  0  0  0  0  0  0  0  0  0  0
   28.1662  -20.5818  -12.1922 C   0  0  0  0  0  0  0  0  0  0  0  0
   28.7650  -20.8549  -11.0237 N   0  0  0  0  0  0  0  0  0  0  0  0
   27.8862  -20.7853  -10.0133 C   0  0  0  0  0  0  0  0  0  0  0  0
   27.9720  -20.9699   -8.6492 C   0  0  0  0  0  0  0  0  0  0  0  0
   26.8800  -20.8303   -7.8290 C   0  0  0  0  0  0  0  0  0  0  0  0
   25.6508  -20.4971   -8.3559 C   0  0  0  0  0  0  0  0  0  0  0  0
   25.5640  -20.3130   -9.7145 C   0  0  0  0  0  0  0  0  0  0  0  0
   26.6703  -20.4534  -10.5526 C   0  0  0  0  0  0  0  0  0  0  0  0
   23.9047  -20.9471  -14.0201 C   0  0  0  0  0  0  0  0  0  0  0  0
   23.4861  -20.2206  -14.9545 O   0  0  0  0  0  0  0  0  0  0  0  0
   20.4257  -22.4017  -15.8514 N   0  0  0  0  0  0  0  0  0  0  0  0
   20.4019  -23.2833  -14.7056 C   0  0  0  0  0  0  0  0  0  0  0  0
   19.9815  -24.4480  -14.7995 O   0  0  0  0  0  0  0  0  0  0  0  0
   20.8922  -22.7396  -13.4453 C   0  0  0  0  0  0  0  0  0  0  0  0
   21.5160  -21.3684  -13.5192 C   0  0  2  0  0  0  0  0  0  0  0  0
   22.9492  -21.6034  -13.2056 N   0  0  0  0  0  0  0  0  0  0  0  0
   20.9615  -20.3888  -12.5799 C   0  0  0  0  0  0  0  0  0  0  0  0
   21.4312  -20.1124  -11.4606 O   0  0  0  0  0  0  0  0  0  0  0  0
   19.7996  -19.6754  -12.9302 O   0  0  0  0  0  0  0  0  0  0  0  0
  1  2  1  0
  2  3  1  0
  4  3  1  0
  5  1  1  0
  5  4  1  0
  5  6  1  1
  7  6  2  0
  8  6  1  0
  9  8  1  0
 10 11  1  0
  9 10  1  1
 11 12  2  0
 13 12  1  0
 14 13  1  0
 15 14  2  0
 16 15  1  0
 17 16  2  0
 17 18  1  0
 18 19  2  0
 19 14  1  0
 19 11  1  0
 20  9  1  0
 20 27  1  0
 21 20  2  0
 22 23  1  0
 23 24  2  0
 23 25  1  0
 26 25  1  1
 26 27  1  0
 26 28  1  0
 28 30  1  0
 29 28  2  0
M  END
$$$$
