PWN.pdb
     RDKit          3D

 30 32  0  0  1  0  0  0  0  0999 V2000
   27.6924  -19.0616  -14.7835 N   0  0  0  0  0  0  0  0  0  0  0  0
   28.7101  -18.6563  -15.7651 C   0  0  0  0  0  0  0  0  0  0  0  0
   29.8168  -19.6614  -15.5302 C   0  0  0  0  0  0  0  0  0  0  0  0
   29.2009  -20.7722  -14.6677 C   0  0  0  0  0  0  0  0  0  0  0  0
   27.7326  -20.5009  -14.9150 C   0  0  1  0  0  0  0  0  0  0  0  0
   26.8424  -21.1024  -13.9105 C   0  0  0  0  0  0  0  0  0  0  0  0
   26.5719  -22.3592  -13.9254 O   0  0  0  0  0  0  0  0  0  0  0  0
   26.2787  -20.2619  -12.9109 N   0  0  0  0  0  0  0  0  0  0  0  0
   25.4710  -20.7920  -11.8561 C   0  0  1  0  0  0  0  0  0  0  0  0
   25.7304  -20.1391  -10.5223 C   0  0  0  0  0  0  0  0  0  0  0  0
   26.9620  -20.6058   -9.8754 C   0  0  0  0  0  0  0  0  0  0  0  0
   27.9694  -21.3378  -10.4512 C   0  0  0  0  0  0  0  0  0  0  0  0
   28.8949  -21.5422   -9.5025 N   0  0  0  0  0  0  0  0  0  0  0  0
   28.5226  -20.9731   -8.3469 C   0  0  0  0  0  0  0  0  0  0  0  0
   29.0883  -20.8842   -7.0921 C   0  0  0  0  0  0  0  0  0  0  0  0
   28.4681  -20.2199   -6.0632 C   0  0  0  0  0  0  0  0  0  0  0  0
   27.2454  -19.6155   -6.2606 C   0  0  0  0  0  0  0  0  0  0  0  0
   26.6809  -19.7033   -7.5100 C   0  0  0  0  0  0  0  0  0  0  0  0
   27.3065  -20.3768   -8.5592 C   0  0  0  0  0  0  0  0  0  0  0  0
   24.0152  -20.5576  -12.1651 C   0  0  0  0  0  0  0  0  0  0  0  0
   23.5925  -19.4604  -12.6050 O   0  0  0  0  0  0  0  0  0  0  0  0
   19.1358  -23.4547  -13.7760 N   0  0  0  0  0  0  0  0  0  0  0  0
   19.5922  -22.7229  -12.6154 C   0  0  0  0  0  0  0  0  0  0  0  0
   18.7903  -22.1437  -11.8647 O   0  0  0  0  0  0  0  0  0  0  0  0
   21.0293  -22.6999  -12.3739 C   0  0  0  0  0  0  0  0  0  0  0  0
   21.6718  -21.3354  -12.3596 C   0  0  2  0  0  0  0  0  0  0  0  0
   23.0779  -21.5997  -11.9587 N   0  0  0  0  0  0  0  0  0  0  0  0
   21.0661  -20.3798  -11.4273 C   0  0  0  0  0  0  0  0  0  0  0  0
   21.3179  -20.2960  -10.2109 O   0  0  0  0  0  0  0  0  0  0  0  0
   20.1132  -19.4591  -11.9024 O   0  0  0  0  0  0  0  0  0  0  0  0
  1  2  1  0
  2  3  1  0
  4  3  1  0
  5  1  1  0
  5  4  1  0
  5  6  1  1
  7  6  2  0
  8  6  1  0
  9  8  1  0
 10 11  1  0
  9 10  1  1
 11 12  2  0
 13 12  1  0
 14 13  1  0
 15 14  2  0
 16 15  1  0
 17 16  2  0
 17 18  1  0
 18 19  2  0
 19 14  1  0
 19 11  1  0
 20  9  1  0
 20 27  1  0
 21 20  2  0
 22 23  1  0
 23 24  2  0
 23 25  1  0
 26 25  1  1
 26 27  1  0
 26 28  1  0
 28 30  1  0
 29 28  2  0
M  END
$$$$
