PWN.pdb
     RDKit          3D

 30 32  0  0  1  0  0  0  0  0999 V2000
   28.0479  -19.9843  -15.7044 N   0  0  0  0  0  0  0  0  0  0  0  0
   28.8841  -19.9935  -16.9145 C   0  0  0  0  0  0  0  0  0  0  0  0
   29.6831  -21.2689  -16.7563 C   0  0  0  0  0  0  0  0  0  0  0  0
   28.9932  -22.0621  -15.6373 C   0  0  0  0  0  0  0  0  0  0  0  0
   27.6466  -21.3713  -15.6297 C   0  0  1  0  0  0  0  0  0  0  0  0
   26.8786  -21.5856  -14.3937 C   0  0  0  0  0  0  0  0  0  0  0  0
   25.9918  -22.5129  -14.3110 O   0  0  0  0  0  0  0  0  0  0  0  0
   27.1353  -20.7409  -13.2784 N   0  0  0  0  0  0  0  0  0  0  0  0
   26.5096  -20.9637  -12.0116 C   0  0  1  0  0  0  0  0  0  0  0  0
   27.3122  -20.4351  -10.8501 C   0  0  0  0  0  0  0  0  0  0  0  0
   26.6547  -20.6278   -9.5525 C   0  0  0  0  0  0  0  0  0  0  0  0
   25.4452  -21.2332   -9.3229 C   0  0  0  0  0  0  0  0  0  0  0  0
   25.2321  -21.1904   -7.9997 N   0  0  0  0  0  0  0  0  0  0  0  0
   26.2519  -20.5844   -7.3747 C   0  0  0  0  0  0  0  0  0  0  0  0
   26.5319  -20.2846   -6.0579 C   0  0  0  0  0  0  0  0  0  0  0  0
   27.6864  -19.6385   -5.6915 C   0  0  0  0  0  0  0  0  0  0  0  0
   28.6097  -19.2670   -6.6449 C   0  0  0  0  0  0  0  0  0  0  0  0
   28.3320  -19.5650   -7.9569 C   0  0  0  0  0  0  0  0  0  0  0  0
   27.1606  -20.2214   -8.3349 C   0  0  0  0  0  0  0  0  0  0  0  0
   25.1835  -20.2498  -11.9683 C   0  0  0  0  0  0  0  0  0  0  0  0
   25.0833  -19.0121  -12.1526 O   0  0  0  0  0  0  0  0  0  0  0  0
   20.8398  -19.9802  -14.9572 N   0  0  0  0  0  0  0  0  0  0  0  0
   20.9274  -20.8482  -13.8040 C   0  0  0  0  0  0  0  0  0  0  0  0
   19.9068  -21.3107  -13.2688 O   0  0  0  0  0  0  0  0  0  0  0  0
   22.2636  -21.1496  -13.3060 C   0  0  0  0  0  0  0  0  0  0  0  0
   22.7128  -20.3542  -12.1057 C   0  0  2  0  0  0  0  0  0  0  0  0
   23.9996  -20.9846  -11.7125 N   0  0  0  0  0  0  0  0  0  0  0  0
   21.7863  -20.3784  -10.9698 C   0  0  0  0  0  0  0  0  0  0  0  0
   20.8418  -19.5877  -10.7887 O   0  0  0  0  0  0  0  0  0  0  0  0
   21.9385  -21.3614   -9.9738 O   0  0  0  0  0  0  0  0  0  0  0  0
  1  2  1  0
  2  3  1  0
  4  3  1  0
  5  1  1  0
  5  4  1  0
  5  6  1  1
  7  6  2  0
  8  6  1  0
  9  8  1  0
 10 11  1  0
  9 10  1  1
 11 12  2  0
 13 12  1  0
 14 13  1  0
 15 14  2  0
 16 15  1  0
 17 16  2  0
 17 18  1  0
 18 19  2  0
 19 14  1  0
 19 11  1  0
 20  9  1  0
 20 27  1  0
 21 20  2  0
 22 23  1  0
 23 24  2  0
 23 25  1  0
 26 25  1  6
 26 27  1  0
 26 28  1  0
 28 30  1  0
 29 28  2  0
M  END
$$$$
