PWN.pdb
     RDKit          3D

 30 32  0  0  1  0  0  0  0  0999 V2000
   26.8819  -20.6565  -14.8454 N   0  0  0  0  0  0  0  0  0  0  0  0
   28.2821  -20.8194  -14.4251 C   0  0  0  0  0  0  0  0  0  0  0  0
   28.8873  -19.4728  -14.7577 C   0  0  0  0  0  0  0  0  0  0  0  0
   27.7029  -18.5331  -15.0249 C   0  0  0  0  0  0  0  0  0  0  0  0
   26.5964  -19.3244  -14.3614 C   0  0  1  0  0  0  0  0  0  0  0  0
   25.2467  -18.9322  -14.7949 C   0  0  0  0  0  0  0  0  0  0  0  0
   24.7733  -17.7664  -14.5312 O   0  0  0  0  0  0  0  0  0  0  0  0
   24.4644  -19.8742  -15.5187 N   0  0  0  0  0  0  0  0  0  0  0  0
   23.2201  -19.5074  -16.1213 C   0  0  1  0  0  0  0  0  0  0  0  0
   23.2073  -19.6885  -17.6179 C   0  0  0  0  0  0  0  0  0  0  0  0
   24.1268  -18.7867  -18.3212 C   0  0  0  0  0  0  0  0  0  0  0  0
   25.4453  -19.0215  -18.6185 C   0  0  0  0  0  0  0  0  0  0  0  0
   25.8994  -17.9368  -19.2632 N   0  0  0  0  0  0  0  0  0  0  0  0
   24.9289  -17.0203  -19.3903 C   0  0  0  0  0  0  0  0  0  0  0  0
   24.8605  -15.7633  -19.9540 C   0  0  0  0  0  0  0  0  0  0  0  0
   23.7030  -15.0253  -19.9405 C   0  0  0  0  0  0  0  0  0  0  0  0
   22.5620  -15.5291  -19.3543 C   0  0  0  0  0  0  0  0  0  0  0  0
   22.6289  -16.7810  -18.7925 C   0  0  0  0  0  0  0  0  0  0  0  0
   23.8022  -17.5354  -18.8033 C   0  0  0  0  0  0  0  0  0  0  0  0
   22.1178  -20.3808  -15.5809 C   0  0  0  0  0  0  0  0  0  0  0  0
   22.3170  -21.5691  -15.2286 O   0  0  0  0  0  0  0  0  0  0  0  0
   18.9615  -18.1141  -15.1781 N   0  0  0  0  0  0  0  0  0  0  0  0
   18.6892  -18.7459  -13.9062 C   0  0  0  0  0  0  0  0  0  0  0  0
   18.0124  -18.1738  -13.0364 O   0  0  0  0  0  0  0  0  0  0  0  0
   19.2455  -20.0769  -13.6990 C   0  0  0  0  0  0  0  0  0  0  0  0
   19.7597  -20.7742  -14.9337 C   0  0  2  0  0  0  0  0  0  0  0  0
   20.8062  -19.8594  -15.4588 N   0  0  0  0  0  0  0  0  0  0  0  0
   18.7509  -21.0136  -15.9702 C   0  0  0  0  0  0  0  0  0  0  0  0
   17.7770  -21.7826  -15.8690 O   0  0  0  0  0  0  0  0  0  0  0  0
   18.8507  -20.3388  -17.2015 O   0  0  0  0  0  0  0  0  0  0  0  0
  1  2  1  0
  2  3  1  0
  4  3  1  0
  5  1  1  0
  5  4  1  0
  5  6  1  6
  7  6  2  0
  8  6  1  0
  9  8  1  0
 10 11  1  0
  9 10  1  6
 11 12  2  0
 13 12  1  0
 14 13  1  0
 15 14  2  0
 16 15  1  0
 17 16  2  0
 17 18  1  0
 18 19  2  0
 19 14  1  0
 19 11  1  0
 20  9  1  0
 20 27  1  0
 21 20  2  0
 22 23  1  0
 23 24  2  0
 23 25  1  0
 26 25  1  1
 26 27  1  0
 26 28  1  0
 28 30  1  0
 29 28  2  0
M  END
$$$$
