PWN.pdb
     RDKit          3D

 30 32  0  0  1  0  0  0  0  0999 V2000
   27.7669  -19.2746  -13.3323 N   0  0  0  0  0  0  0  0  0  0  0  0
   28.6712  -19.0386  -14.4681 C   0  0  0  0  0  0  0  0  0  0  0  0
   29.6296  -20.2063  -14.3776 C   0  0  0  0  0  0  0  0  0  0  0  0
   28.9882  -21.2030  -13.4017 C   0  0  0  0  0  0  0  0  0  0  0  0
   27.5602  -20.7022  -13.4296 C   0  0  1  0  0  0  0  0  0  0  0  0
   26.7530  -21.1522  -12.2853 C   0  0  0  0  0  0  0  0  0  0  0  0
   26.2536  -22.3362  -12.2451 O   0  0  0  0  0  0  0  0  0  0  0  0
   26.5308  -20.2461  -11.2116 N   0  0  0  0  0  0  0  0  0  0  0  0
   25.6711  -20.5786  -10.1178 C   0  0  1  0  0  0  0  0  0  0  0  0
   26.0760  -19.9234   -8.8219 C   0  0  0  0  0  0  0  0  0  0  0  0
   27.3920  -20.3556   -8.3373 C   0  0  0  0  0  0  0  0  0  0  0  0
   28.3110  -21.1161   -9.0148 C   0  0  0  0  0  0  0  0  0  0  0  0
   29.3657  -21.2708   -8.2012 N   0  0  0  0  0  0  0  0  0  0  0  0
   29.1602  -20.6427   -7.0345 C   0  0  0  0  0  0  0  0  0  0  0  0
   29.9008  -20.4888   -5.8812 C   0  0  0  0  0  0  0  0  0  0  0  0
   29.4310  -19.7722   -4.8086 C   0  0  0  0  0  0  0  0  0  0  0  0
   28.1880  -19.1791   -4.8574 C   0  0  0  0  0  0  0  0  0  0  0  0
   27.4492  -19.3317   -6.0056 C   0  0  0  0  0  0  0  0  0  0  0  0
   27.9216  -20.0586   -7.0985 C   0  0  0  0  0  0  0  0  0  0  0  0
   24.2711  -20.1054  -10.4110 C   0  0  0  0  0  0  0  0  0  0  0  0
   24.0360  -18.9752  -10.9043 O   0  0  0  0  0  0  0  0  0  0  0  0
   20.8965  -21.6201  -14.2525 N   0  0  0  0  0  0  0  0  0  0  0  0
   20.9970  -20.7043  -13.1380 C   0  0  0  0  0  0  0  0  0  0  0  0
   20.1429  -19.8223  -12.9521 O   0  0  0  0  0  0  0  0  0  0  0  0
   22.1424  -20.8679  -12.2518 C   0  0  0  0  0  0  0  0  0  0  0  0
   21.8793  -20.6278  -10.7862 C   0  0  2  0  0  0  0  0  0  0  0  0
   23.1710  -20.9517  -10.1270 N   0  0  0  0  0  0  0  0  0  0  0  0
   20.8129  -21.4521  -10.2094 C   0  0  0  0  0  0  0  0  0  0  0  0
   20.9551  -22.5974   -9.7425 O   0  0  0  0  0  0  0  0  0  0  0  0
   19.4999  -20.9473  -10.1578 O   0  0  0  0  0  0  0  0  0  0  0  0
  1  2  1  0
  2  3  1  0
  4  3  1  0
  5  1  1  0
  5  4  1  0
  5  6  1  1
  7  6  2  0
  8  6  1  0
  9  8  1  0
 10 11  1  0
  9 10  1  1
 11 12  2  0
 13 12  1  0
 14 13  1  0
 15 14  2  0
 16 15  1  0
 17 16  2  0
 17 18  1  0
 18 19  2  0
 19 14  1  0
 19 11  1  0
 20  9  1  0
 20 27  1  0
 21 20  2  0
 22 23  1  0
 23 24  2  0
 23 25  1  0
 26 25  1  6
 26 27  1  0
 26 28  1  0
 28 30  1  0
 29 28  2  0
M  END
$$$$
