PWN.pdb
     RDKit          3D

 30 32  0  0  1  0  0  0  0  0999 V2000
   27.8024  -19.1676  -14.4427 N   0  0  0  0  0  0  0  0  0  0  0  0
   28.7680  -18.8290  -15.4994 C   0  0  0  0  0  0  0  0  0  0  0  0
   29.6841  -20.0335  -15.5105 C   0  0  0  0  0  0  0  0  0  0  0  0
   28.9651  -21.1170  -14.6942 C   0  0  0  0  0  0  0  0  0  0  0  0
   27.5564  -20.5643  -14.7240 C   0  0  1  0  0  0  0  0  0  0  0  0
   26.6807  -21.1198  -13.6809 C   0  0  0  0  0  0  0  0  0  0  0  0
   26.1987  -22.3078  -13.7769 O   0  0  0  0  0  0  0  0  0  0  0  0
   26.3717  -20.3124  -12.5514 N   0  0  0  0  0  0  0  0  0  0  0  0
   25.5249  -20.7877  -11.5012 C   0  0  1  0  0  0  0  0  0  0  0  0
   25.8381  -20.1743  -10.1602 C   0  0  0  0  0  0  0  0  0  0  0  0
   27.1149  -20.6275   -9.5967 C   0  0  0  0  0  0  0  0  0  0  0  0
   28.0581  -21.4086  -10.2151 C   0  0  0  0  0  0  0  0  0  0  0  0
   29.0599  -21.5776   -9.3398 N   0  0  0  0  0  0  0  0  0  0  0  0
   28.7977  -20.9390   -8.1903 C   0  0  0  0  0  0  0  0  0  0  0  0
   29.4718  -20.7918   -6.9960 C   0  0  0  0  0  0  0  0  0  0  0  0
   28.9529  -20.0605   -5.9566 C   0  0  0  0  0  0  0  0  0  0  0  0
   27.7260  -19.4452   -6.0815 C   0  0  0  0  0  0  0  0  0  0  0  0
   27.0535  -19.5911   -7.2706 C   0  0  0  0  0  0  0  0  0  0  0  0
   27.5760  -20.3329   -8.3302 C   0  0  0  0  0  0  0  0  0  0  0  0
   24.0926  -20.4319  -11.8042 C   0  0  0  0  0  0  0  0  0  0  0  0
   23.7555  -19.2880  -12.1962 O   0  0  0  0  0  0  0  0  0  0  0  0
   19.7203  -22.0092  -14.7920 N   0  0  0  0  0  0  0  0  0  0  0  0
   19.9090  -22.2874  -13.3857 C   0  0  0  0  0  0  0  0  0  0  0  0
   18.9416  -22.5047  -12.6381 O   0  0  0  0  0  0  0  0  0  0  0  0
   21.2811  -22.2993  -12.8945 C   0  0  0  0  0  0  0  0  0  0  0  0
   21.7230  -21.0653  -12.1481 C   0  0  2  0  0  0  0  0  0  0  0  0
   23.0790  -21.4093  -11.6474 N   0  0  0  0  0  0  0  0  0  0  0  0
   20.8643  -20.6872  -11.0216 C   0  0  0  0  0  0  0  0  0  0  0  0
   19.9576  -19.8347  -11.0565 O   0  0  0  0  0  0  0  0  0  0  0  0
   21.0432  -21.3148   -9.7743 O   0  0  0  0  0  0  0  0  0  0  0  0
  1  2  1  0
  2  3  1  0
  4  3  1  0
  5  1  1  0
  5  4  1  0
  5  6  1  1
  7  6  2  0
  8  6  1  0
  9  8  1  0
 10 11  1  0
  9 10  1  1
 11 12  2  0
 13 12  1  0
 14 13  1  0
 15 14  2  0
 16 15  1  0
 17 16  2  0
 17 18  1  0
 18 19  2  0
 19 14  1  0
 19 11  1  0
 20  9  1  0
 20 27  1  0
 21 20  2  0
 22 23  1  0
 23 24  2  0
 23 25  1  0
 26 25  1  1
 26 27  1  0
 26 28  1  0
 28 30  1  0
 29 28  2  0
M  END
$$$$
