PWN.pdb
     RDKit          3D

 30 32  0  0  1  0  0  0  0  0999 V2000
   27.8454  -19.6665  -15.1124 N   0  0  0  0  0  0  0  0  0  0  0  0
   28.8218  -19.4491  -16.1907 C   0  0  0  0  0  0  0  0  0  0  0  0
   29.6940  -20.6827  -16.1026 C   0  0  0  0  0  0  0  0  0  0  0  0
   28.9370  -21.6704  -15.2033 C   0  0  0  0  0  0  0  0  0  0  0  0
   27.5491  -21.0716  -15.2807 C   0  0  1  0  0  0  0  0  0  0  0  0
   26.6547  -21.5093  -14.1982 C   0  0  0  0  0  0  0  0  0  0  0  0
   26.1517  -22.6925  -14.1852 O   0  0  0  0  0  0  0  0  0  0  0  0
   26.3512  -20.5923  -13.1541 N   0  0  0  0  0  0  0  0  0  0  0  0
   25.5407  -20.9710  -12.0380 C   0  0  1  0  0  0  0  0  0  0  0  0
   25.8676  -20.2087  -10.7792 C   0  0  0  0  0  0  0  0  0  0  0  0
   27.1869  -20.5361  -10.2263 C   0  0  0  0  0  0  0  0  0  0  0  0
   28.2036  -21.2043  -10.8601 C   0  0  0  0  0  0  0  0  0  0  0  0
   29.2210  -21.2830   -9.9901 N   0  0  0  0  0  0  0  0  0  0  0  0
   28.8984  -20.6946   -8.8292 C   0  0  0  0  0  0  0  0  0  0  0  0
   29.5583  -20.4981   -7.6341 C   0  0  0  0  0  0  0  0  0  0  0  0
   28.9704  -19.8424   -6.5811 C   0  0  0  0  0  0  0  0  0  0  0  0
   27.6857  -19.3559   -6.6927 C   0  0  0  0  0  0  0  0  0  0  0  0
   27.0273  -19.5510   -7.8826 C   0  0  0  0  0  0  0  0  0  0  0  0
   27.6198  -20.2165   -8.9559 C   0  0  0  0  0  0  0  0  0  0  0  0
   24.0932  -20.6840  -12.3416 C   0  0  0  0  0  0  0  0  0  0  0  0
   23.6960  -19.5467  -12.6948 O   0  0  0  0  0  0  0  0  0  0  0  0
   22.3076  -24.1832  -15.1444 N   0  0  0  0  0  0  0  0  0  0  0  0
   21.9147  -22.8431  -14.7697 C   0  0  0  0  0  0  0  0  0  0  0  0
   22.0621  -21.8884  -15.5499 O   0  0  0  0  0  0  0  0  0  0  0  0
   21.3421  -22.6716  -13.4404 C   0  0  0  0  0  0  0  0  0  0  0  0
   21.7570  -21.4237  -12.7018 C   0  0  2  0  0  0  0  0  0  0  0  0
   23.1344  -21.7211  -12.2305 N   0  0  0  0  0  0  0  0  0  0  0  0
   20.9100  -21.0761  -11.5568 C   0  0  0  0  0  0  0  0  0  0  0  0
   19.7327  -20.6764  -11.6218 O   0  0  0  0  0  0  0  0  0  0  0  0
   21.4291  -21.1882  -10.2531 O   0  0  0  0  0  0  0  0  0  0  0  0
  1  2  1  0
  2  3  1  0
  4  3  1  0
  5  1  1  0
  5  4  1  0
  5  6  1  1
  7  6  2  0
  8  6  1  0
  9  8  1  0
 10 11  1  0
  9 10  1  1
 11 12  2  0
 13 12  1  0
 14 13  1  0
 15 14  2  0
 16 15  1  0
 17 16  2  0
 17 18  1  0
 18 19  2  0
 19 14  1  0
 19 11  1  0
 20  9  1  0
 20 27  1  0
 21 20  2  0
 22 23  1  0
 23 24  2  0
 23 25  1  0
 26 25  1  1
 26 27  1  0
 26 28  1  0
 28 30  1  0
 29 28  2  0
M  END
$$$$
