PWN.pdb
     RDKit          3D

 30 32  0  0  1  0  0  0  0  0999 V2000
   27.9486  -19.4669  -14.7982 N   0  0  0  0  0  0  0  0  0  0  0  0
   28.9042  -19.1334  -15.8656 C   0  0  0  0  0  0  0  0  0  0  0  0
   29.8307  -20.3299  -15.8674 C   0  0  0  0  0  0  0  0  0  0  0  0
   29.1268  -21.4091  -15.0325 C   0  0  0  0  0  0  0  0  0  0  0  0
   27.7131  -20.8691  -15.0599 C   0  0  1  0  0  0  0  0  0  0  0  0
   26.8492  -21.4188  -14.0040 C   0  0  0  0  0  0  0  0  0  0  0  0
   26.4121  -22.6265  -14.0604 O   0  0  0  0  0  0  0  0  0  0  0  0
   26.5009  -20.5833  -12.9068 N   0  0  0  0  0  0  0  0  0  0  0  0
   25.6907  -21.0621  -11.8296 C   0  0  1  0  0  0  0  0  0  0  0  0
   25.9547  -20.3532  -10.5256 C   0  0  0  0  0  0  0  0  0  0  0  0
   27.2478  -20.7009   -9.9253 C   0  0  0  0  0  0  0  0  0  0  0  0
   28.2960  -21.3396  -10.5380 C   0  0  0  0  0  0  0  0  0  0  0  0
   29.2717  -21.4528   -9.6250 N   0  0  0  0  0  0  0  0  0  0  0  0
   28.8923  -20.9147   -8.4569 C   0  0  0  0  0  0  0  0  0  0  0  0
   29.4944  -20.7676   -7.2247 C   0  0  0  0  0  0  0  0  0  0  0  0
   28.8548  -20.1582   -6.1739 C   0  0  0  0  0  0  0  0  0  0  0  0
   27.5748  -19.6703   -6.3255 C   0  0  0  0  0  0  0  0  0  0  0  0
   26.9740  -19.8162   -7.5523 C   0  0  0  0  0  0  0  0  0  0  0  0
   27.6192  -20.4344   -8.6236 C   0  0  0  0  0  0  0  0  0  0  0  0
   24.2361  -20.8328  -12.1480 C   0  0  0  0  0  0  0  0  0  0  0  0
   23.8064  -19.7257  -12.5551 O   0  0  0  0  0  0  0  0  0  0  0  0
   22.9620  -24.5288  -14.6107 N   0  0  0  0  0  0  0  0  0  0  0  0
   22.3057  -23.2477  -14.4732 C   0  0  0  0  0  0  0  0  0  0  0  0
   22.3337  -22.4097  -15.3891 O   0  0  0  0  0  0  0  0  0  0  0  0
   21.6157  -22.9923  -13.2150 C   0  0  0  0  0  0  0  0  0  0  0  0
   21.9435  -21.6844  -12.5391 C   0  0  2  0  0  0  0  0  0  0  0  0
   23.3081  -21.8913  -11.9889 N   0  0  0  0  0  0  0  0  0  0  0  0
   21.0296  -21.3049  -11.4574 C   0  0  0  0  0  0  0  0  0  0  0  0
   21.3192  -21.2591  -10.2474 O   0  0  0  0  0  0  0  0  0  0  0  0
   19.7015  -20.9544  -11.7650 O   0  0  0  0  0  0  0  0  0  0  0  0
  1  2  1  0
  2  3  1  0
  4  3  1  0
  5  1  1  0
  5  4  1  0
  5  6  1  1
  7  6  2  0
  8  6  1  0
  9  8  1  0
 10 11  1  0
  9 10  1  1
 11 12  2  0
 13 12  1  0
 14 13  1  0
 15 14  2  0
 16 15  1  0
 17 16  2  0
 17 18  1  0
 18 19  2  0
 19 14  1  0
 19 11  1  0
 20  9  1  0
 20 27  1  0
 21 20  2  0
 22 23  1  0
 23 24  2  0
 23 25  1  0
 26 25  1  1
 26 27  1  0
 26 28  1  0
 28 30  1  0
 29 28  2  0
M  END
$$$$
