PWN.pdb
     RDKit          3D

 30 32  0  0  1  0  0  0  0  0999 V2000
   27.4638  -18.2077  -13.7170 N   0  0  0  0  0  0  0  0  0  0  0  0
   27.9477  -17.1789  -14.6503 C   0  0  0  0  0  0  0  0  0  0  0  0
   29.0454  -17.9014  -15.4007 C   0  0  0  0  0  0  0  0  0  0  0  0
   28.8704  -19.3909  -15.0722 C   0  0  0  0  0  0  0  0  0  0  0  0
   27.4424  -19.3741  -14.5710 C   0  0  1  0  0  0  0  0  0  0  0  0
   27.0831  -20.5533  -13.7686 C   0  0  0  0  0  0  0  0  0  0  0  0
   26.8848  -21.6990  -14.3173 O   0  0  0  0  0  0  0  0  0  0  0  0
   26.9568  -20.4044  -12.3596 N   0  0  0  0  0  0  0  0  0  0  0  0
   26.5910  -21.5038  -11.5210 C   0  0  1  0  0  0  0  0  0  0  0  0
   27.4443  -21.6181  -10.2834 C   0  0  0  0  0  0  0  0  0  0  0  0
   27.0690  -20.6700   -9.2281 C   0  0  0  0  0  0  0  0  0  0  0  0
   26.0044  -19.8048   -9.2375 C   0  0  0  0  0  0  0  0  0  0  0  0
   26.0396  -19.1298   -8.0793 N   0  0  0  0  0  0  0  0  0  0  0  0
   27.0796  -19.5259   -7.3313 C   0  0  0  0  0  0  0  0  0  0  0  0
   27.5640  -19.1681   -6.0905 C   0  0  0  0  0  0  0  0  0  0  0  0
   28.6819  -19.7556   -5.5521 C   0  0  0  0  0  0  0  0  0  0  0  0
   29.3594  -20.7330   -6.2485 C   0  0  0  0  0  0  0  0  0  0  0  0
   28.8780  -21.0903   -7.4846 C   0  0  0  0  0  0  0  0  0  0  0  0
   27.7425  -20.4969   -8.0365 C   0  0  0  0  0  0  0  0  0  0  0  0
   25.1737  -21.3267  -11.0418 C   0  0  0  0  0  0  0  0  0  0  0  0
   24.8878  -20.6225  -10.0427 O   0  0  0  0  0  0  0  0  0  0  0  0
   21.2089  -18.6670  -11.4271 N   0  0  0  0  0  0  0  0  0  0  0  0
   21.9762  -19.0471  -12.5923 C   0  0  0  0  0  0  0  0  0  0  0  0
   21.6699  -18.6394  -13.7245 O   0  0  0  0  0  0  0  0  0  0  0  0
   23.1176  -19.9262  -12.3718 C   0  0  0  0  0  0  0  0  0  0  0  0
   22.8046  -21.2698  -11.7620 C   0  0  2  0  0  0  0  0  0  0  0  0
   24.1152  -21.9690  -11.7305 N   0  0  0  0  0  0  0  0  0  0  0  0
   21.8357  -22.0750  -12.5118 C   0  0  0  0  0  0  0  0  0  0  0  0
   20.6597  -22.2977  -12.1689 O   0  0  0  0  0  0  0  0  0  0  0  0
   22.2228  -22.6669  -13.7289 O   0  0  0  0  0  0  0  0  0  0  0  0
  1  2  1  0
  2  3  1  0
  4  3  1  0
  5  1  1  0
  5  4  1  0
  5  6  1  1
  7  6  2  0
  8  6  1  0
  9  8  1  0
 10 11  1  0
  9 10  1  1
 11 12  2  0
 13 12  1  0
 14 13  1  0
 15 14  2  0
 16 15  1  0
 17 16  2  0
 17 18  1  0
 18 19  2  0
 19 14  1  0
 19 11  1  0
 20  9  1  0
 20 27  1  0
 21 20  2  0
 22 23  1  0
 23 24  2  0
 23 25  1  0
 26 25  1  6
 26 27  1  0
 26 28  1  0
 28 30  1  0
 29 28  2  0
M  END
$$$$
