PWN.pdb
     RDKit          3D

 30 32  0  0  1  0  0  0  0  0999 V2000
   27.7316  -18.9024  -14.4944 N   0  0  0  0  0  0  0  0  0  0  0  0
   28.6837  -18.4081  -15.5007 C   0  0  0  0  0  0  0  0  0  0  0  0
   29.7967  -19.4314  -15.4356 C   0  0  0  0  0  0  0  0  0  0  0  0
   29.2325  -20.6174  -14.6404 C   0  0  0  0  0  0  0  0  0  0  0  0
   27.7528  -20.3232  -14.7615 C   0  0  1  0  0  0  0  0  0  0  0  0
   26.9280  -21.0152  -13.7594 C   0  0  0  0  0  0  0  0  0  0  0  0
   26.6988  -22.2777  -13.8399 O   0  0  0  0  0  0  0  0  0  0  0  0
   26.3814  -20.2567  -12.6874 N   0  0  0  0  0  0  0  0  0  0  0  0
   25.5665  -20.8638  -11.6807 C   0  0  1  0  0  0  0  0  0  0  0  0
   25.7675  -20.2657  -10.3116 C   0  0  0  0  0  0  0  0  0  0  0  0
   27.0642  -20.6037   -9.7133 C   0  0  0  0  0  0  0  0  0  0  0  0
   28.0891  -21.2977  -10.3047 C   0  0  0  0  0  0  0  0  0  0  0  0
   29.0783  -21.3772   -9.4028 N   0  0  0  0  0  0  0  0  0  0  0  0
   28.7299  -20.7646   -8.2621 C   0  0  0  0  0  0  0  0  0  0  0  0
   29.3561  -20.5582   -7.0507 C   0  0  0  0  0  0  0  0  0  0  0  0
   28.7468  -19.8761   -6.0269 C   0  0  0  0  0  0  0  0  0  0  0  0
   27.4739  -19.3723   -6.1858 C   0  0  0  0  0  0  0  0  0  0  0  0
   26.8489  -19.5772   -7.3920 C   0  0  0  0  0  0  0  0  0  0  0  0
   27.4633  -20.2694   -8.4357 C   0  0  0  0  0  0  0  0  0  0  0  0
   24.1116  -20.6662  -12.0185 C   0  0  0  0  0  0  0  0  0  0  0  0
   23.6206  -19.5293  -12.2244 O   0  0  0  0  0  0  0  0  0  0  0  0
   22.7117  -24.6507  -14.3303 N   0  0  0  0  0  0  0  0  0  0  0  0
   22.0973  -23.3421  -14.3617 C   0  0  0  0  0  0  0  0  0  0  0  0
   22.1347  -22.6391  -15.3846 O   0  0  0  0  0  0  0  0  0  0  0  0
   21.4378  -22.8941  -13.1416 C   0  0  0  0  0  0  0  0  0  0  0  0
   21.8760  -21.5515  -12.6123 C   0  0  2  0  0  0  0  0  0  0  0  0
   23.2543  -21.7902  -12.1114 N   0  0  0  0  0  0  0  0  0  0  0  0
   21.0453  -21.0160  -11.5295 C   0  0  0  0  0  0  0  0  0  0  0  0
   20.0652  -20.2619  -11.6738 O   0  0  0  0  0  0  0  0  0  0  0  0
   21.3431  -21.3561  -10.1964 O   0  0  0  0  0  0  0  0  0  0  0  0
  1  2  1  0
  2  3  1  0
  4  3  1  0
  5  1  1  0
  5  4  1  0
  5  6  1  1
  7  6  2  0
  8  6  1  0
  9  8  1  0
 10 11  1  0
  9 10  1  1
 11 12  2  0
 13 12  1  0
 14 13  1  0
 15 14  2  0
 16 15  1  0
 17 16  2  0
 17 18  1  0
 18 19  2  0
 19 14  1  0
 19 11  1  0
 20  9  1  0
 20 27  1  0
 21 20  2  0
 22 23  1  0
 23 24  2  0
 23 25  1  0
 26 25  1  1
 26 27  1  0
 26 28  1  0
 28 30  1  0
 29 28  2  0
M  END
$$$$
