PWN.pdb
     RDKit          3D

 30 32  0  0  1  0  0  0  0  0999 V2000
   26.5555  -17.5547  -17.5551 N   0  0  0  0  0  0  0  0  0  0  0  0
   27.6698  -18.5132  -17.6107 C   0  0  0  0  0  0  0  0  0  0  0  0
   28.7578  -17.8029  -16.8350 C   0  0  0  0  0  0  0  0  0  0  0  0
   28.0660  -16.6426  -16.1053 C   0  0  0  0  0  0  0  0  0  0  0  0
   26.6304  -17.1163  -16.1794 C   0  0  1  0  0  0  0  0  0  0  0  0
   25.6430  -16.0487  -15.9585 C   0  0  0  0  0  0  0  0  0  0  0  0
   25.5776  -15.4211  -14.8383 O   0  0  0  0  0  0  0  0  0  0  0  0
   24.7511  -15.7179  -17.0160 N   0  0  0  0  0  0  0  0  0  0  0  0
   23.8385  -14.6216  -16.9096 C   0  0  1  0  0  0  0  0  0  0  0  0
   24.0594  -13.5595  -17.9564 C   0  0  0  0  0  0  0  0  0  0  0  0
   25.3219  -12.8306  -17.7886 C   0  0  0  0  0  0  0  0  0  0  0  0
   26.5254  -13.1192  -18.3805 C   0  0  0  0  0  0  0  0  0  0  0  0
   27.4027  -12.2012  -17.9491 N   0  0  0  0  0  0  0  0  0  0  0  0
   26.8122  -11.3398  -17.1082 C   0  0  0  0  0  0  0  0  0  0  0  0
   27.2440  -10.2383  -16.3991 C   0  0  0  0  0  0  0  0  0  0  0  0
   26.3988   -9.5207  -15.5898 C   0  0  0  0  0  0  0  0  0  0  0  0
   25.0766   -9.8880  -15.4629 C   0  0  0  0  0  0  0  0  0  0  0  0
   24.6452  -10.9850  -16.1686 C   0  0  0  0  0  0  0  0  0  0  0  0
   25.4995  -11.7178  -16.9925 C   0  0  0  0  0  0  0  0  0  0  0  0
   22.4279  -15.1155  -17.1002 C   0  0  0  0  0  0  0  0  0  0  0  0
   22.1369  -16.0027  -17.9392 O   0  0  0  0  0  0  0  0  0  0  0  0
   19.9466  -18.4207  -14.9703 N   0  0  0  0  0  0  0  0  0  0  0  0
   19.2022  -17.2816  -15.4594 C   0  0  0  0  0  0  0  0  0  0  0  0
   18.1069  -17.4252  -16.0265 O   0  0  0  0  0  0  0  0  0  0  0  0
   19.7984  -15.9675  -15.2547 C   0  0  0  0  0  0  0  0  0  0  0  0
   20.0252  -15.1472  -16.5000 C   0  0  2  0  0  0  0  0  0  0  0  0
   21.3823  -14.5715  -16.3141 N   0  0  0  0  0  0  0  0  0  0  0  0
   19.0571  -14.0664  -16.7095 C   0  0  0  0  0  0  0  0  0  0  0  0
   19.2755  -12.8538  -16.5300 O   0  0  0  0  0  0  0  0  0  0  0  0
   17.7573  -14.3779  -17.1508 O   0  0  0  0  0  0  0  0  0  0  0  0
  1  2  1  0
  2  3  1  0
  4  3  1  0
  5  1  1  0
  5  4  1  0
  5  6  1  6
  7  6  2  0
  8  6  1  0
  9  8  1  0
 10 11  1  0
  9 10  1  6
 11 12  2  0
 13 12  1  0
 14 13  1  0
 15 14  2  0
 16 15  1  0
 17 16  2  0
 17 18  1  0
 18 19  2  0
 19 14  1  0
 19 11  1  0
 20  9  1  0
 20 27  1  0
 21 20  2  0
 22 23  1  0
 23 24  2  0
 23 25  1  0
 26 25  1  1
 26 27  1  0
 26 28  1  0
 28 30  1  0
 29 28  2  0
M  END
$$$$
