PWN.pdb
     RDKit          3D

 30 32  0  0  1  0  0  0  0  0999 V2000
   27.1626  -19.2687  -12.3725 N   0  0  0  0  0  0  0  0  0  0  0  0
   27.8782  -18.6827  -13.5162 C   0  0  0  0  0  0  0  0  0  0  0  0
   29.2819  -19.2203  -13.3403 C   0  0  0  0  0  0  0  0  0  0  0  0
   29.1746  -20.3468  -12.3026 C   0  0  0  0  0  0  0  0  0  0  0  0
   27.6870  -20.6161  -12.3733 C   0  0  1  0  0  0  0  0  0  0  0  0
   27.1605  -21.3397  -11.2060 C   0  0  0  0  0  0  0  0  0  0  0  0
   27.3514  -22.6029  -11.0618 O   0  0  0  0  0  0  0  0  0  0  0  0
   26.4281  -20.6114  -10.2280 N   0  0  0  0  0  0  0  0  0  0  0  0
   25.3591  -21.2133   -9.4924 C   0  0  1  0  0  0  0  0  0  0  0  0
   25.3948  -20.8917   -8.0200 C   0  0  0  0  0  0  0  0  0  0  0  0
   26.4592  -19.9495   -7.6556 C   0  0  0  0  0  0  0  0  0  0  0  0
   26.8926  -18.8725   -8.3865 C   0  0  0  0  0  0  0  0  0  0  0  0
   27.8756  -18.2927   -7.6821 N   0  0  0  0  0  0  0  0  0  0  0  0
   28.0885  -18.9523   -6.5343 C   0  0  0  0  0  0  0  0  0  0  0  0
   28.9564  -18.7852   -5.4754 C   0  0  0  0  0  0  0  0  0  0  0  0
   28.9563  -19.6354   -4.3975 C   0  0  0  0  0  0  0  0  0  0  0  0
   28.0756  -20.6940   -4.3449 C   0  0  0  0  0  0  0  0  0  0  0  0
   27.2106  -20.8616   -5.3990 C   0  0  0  0  0  0  0  0  0  0  0  0
   27.2061  -20.0008   -6.4968 C   0  0  0  0  0  0  0  0  0  0  0  0
   24.0387  -20.6999  -10.0049 C   0  0  0  0  0  0  0  0  0  0  0  0
   23.0481  -20.5317   -9.2522 O   0  0  0  0  0  0  0  0  0  0  0  0
   20.4361  -18.5357  -12.9687 N   0  0  0  0  0  0  0  0  0  0  0  0
   21.7502  -18.1046  -13.3907 C   0  0  0  0  0  0  0  0  0  0  0  0
   21.8909  -17.2177  -14.2484 O   0  0  0  0  0  0  0  0  0  0  0  0
   22.8915  -18.7589  -12.7634 C   0  0  0  0  0  0  0  0  0  0  0  0
   22.5648  -19.8934  -11.8247 C   0  0  2  0  0  0  0  0  0  0  0  0
   23.8922  -20.3910  -11.3798 N   0  0  0  0  0  0  0  0  0  0  0  0
   21.8050  -20.9922  -12.4285 C   0  0  0  0  0  0  0  0  0  0  0  0
   20.5785  -21.1730  -12.3142 O   0  0  0  0  0  0  0  0  0  0  0  0
   22.4769  -21.9488  -13.2126 O   0  0  0  0  0  0  0  0  0  0  0  0
  1  2  1  0
  2  3  1  0
  4  3  1  0
  5  1  1  0
  5  4  1  0
  5  6  1  1
  7  6  2  0
  8  6  1  0
  9  8  1  0
 10 11  1  0
  9 10  1  1
 11 12  2  0
 13 12  1  0
 14 13  1  0
 15 14  2  0
 16 15  1  0
 17 16  2  0
 17 18  1  0
 18 19  2  0
 19 14  1  0
 19 11  1  0
 20  9  1  0
 20 27  1  0
 21 20  2  0
 22 23  1  0
 23 24  2  0
 23 25  1  0
 26 25  1  6
 26 27  1  0
 26 28  1  0
 28 30  1  0
 29 28  2  0
M  END
$$$$
