PWN.pdb
     RDKit          3D

 30 32  0  0  1  0  0  0  0  0999 V2000
   27.9605  -20.6127  -16.6868 N   0  0  0  0  0  0  0  0  0  0  0  0
   28.9339  -20.6323  -17.7894 C   0  0  0  0  0  0  0  0  0  0  0  0
   29.8909  -21.7261  -17.3680 C   0  0  0  0  0  0  0  0  0  0  0  0
   29.1943  -22.4781  -16.2250 C   0  0  0  0  0  0  0  0  0  0  0  0
   27.7682  -22.0270  -16.4566 C   0  0  1  0  0  0  0  0  0  0  0  0
   26.8924  -22.2114  -15.2895 C   0  0  0  0  0  0  0  0  0  0  0  0
   26.7005  -23.3744  -14.7759 O   0  0  0  0  0  0  0  0  0  0  0  0
   26.2533  -21.0696  -14.7316 N   0  0  0  0  0  0  0  0  0  0  0  0
   25.5813  -21.1301  -13.4703 C   0  0  1  0  0  0  0  0  0  0  0  0
   25.9929  -20.0317  -12.5234 C   0  0  0  0  0  0  0  0  0  0  0  0
   27.0639  -20.4284  -11.6020 C   0  0  0  0  0  0  0  0  0  0  0  0
   28.3478  -20.7804  -11.9330 C   0  0  0  0  0  0  0  0  0  0  0  0
   28.9819  -21.0672  -10.7866 N   0  0  0  0  0  0  0  0  0  0  0  0
   28.1592  -20.9139   -9.7389 C   0  0  0  0  0  0  0  0  0  0  0  0
   28.2975  -21.0725   -8.3758 C   0  0  0  0  0  0  0  0  0  0  0  0
   27.2580  -20.8391   -7.5101 C   0  0  0  0  0  0  0  0  0  0  0  0
   26.0305  -20.4340   -7.9881 C   0  0  0  0  0  0  0  0  0  0  0  0
   25.8914  -20.2756   -9.3457 C   0  0  0  0  0  0  0  0  0  0  0  0
   26.9442  -20.5113  -10.2300 C   0  0  0  0  0  0  0  0  0  0  0  0
   24.0973  -20.9743  -13.6783 C   0  0  0  0  0  0  0  0  0  0  0  0
   23.6210  -20.2562  -14.5913 O   0  0  0  0  0  0  0  0  0  0  0  0
   18.9831  -21.6030  -13.2210 N   0  0  0  0  0  0  0  0  0  0  0  0
   19.6268  -22.6597  -12.4728 C   0  0  0  0  0  0  0  0  0  0  0  0
   18.9646  -23.5644  -11.9390 O   0  0  0  0  0  0  0  0  0  0  0  0
   21.0803  -22.6088  -12.3777 C   0  0  0  0  0  0  0  0  0  0  0  0
   21.7436  -21.4414  -13.0648 C   0  0  2  0  0  0  0  0  0  0  0  0
   23.1943  -21.6543  -12.8243 N   0  0  0  0  0  0  0  0  0  0  0  0
   21.3494  -20.1237  -12.5572 C   0  0  0  0  0  0  0  0  0  0  0  0
   21.8252  -19.5626  -11.5528 O   0  0  0  0  0  0  0  0  0  0  0  0
   20.3517  -19.3935  -13.2301 O   0  0  0  0  0  0  0  0  0  0  0  0
  1  2  1  0
  2  3  1  0
  4  3  1  0
  5  1  1  0
  5  4  1  0
  5  6  1  1
  7  6  2  0
  8  6  1  0
  9  8  1  0
 10 11  1  0
  9 10  1  1
 11 12  2  0
 13 12  1  0
 14 13  1  0
 15 14  2  0
 16 15  1  0
 17 16  2  0
 17 18  1  0
 18 19  2  0
 19 14  1  0
 19 11  1  0
 20  9  1  0
 20 27  1  0
 21 20  2  0
 22 23  1  0
 23 24  2  0
 23 25  1  0
 26 25  1  1
 26 27  1  0
 26 28  1  0
 28 30  1  0
 29 28  2  0
M  END
$$$$
