PWN.pdb
     RDKit          3D

 30 32  0  0  1  0  0  0  0  0999 V2000
   27.8463  -19.4676  -15.0903 N   0  0  0  0  0  0  0  0  0  0  0  0
   28.7394  -19.1909  -16.2257 C   0  0  0  0  0  0  0  0  0  0  0  0
   29.5878  -20.4422  -16.2934 C   0  0  0  0  0  0  0  0  0  0  0  0
   28.8820  -21.4781  -15.4069 C   0  0  0  0  0  0  0  0  0  0  0  0
   27.5062  -20.8520  -15.3312 C   0  0  1  0  0  0  0  0  0  0  0  0
   26.6901  -21.3502  -14.2135 C   0  0  0  0  0  0  0  0  0  0  0  0
   26.3450  -22.5864  -14.1379 O   0  0  0  0  0  0  0  0  0  0  0  0
   26.2838  -20.4319  -13.2060 N   0  0  0  0  0  0  0  0  0  0  0  0
   25.4973  -20.8494  -12.0866 C   0  0  1  0  0  0  0  0  0  0  0  0
   25.8696  -20.1504  -10.8038 C   0  0  0  0  0  0  0  0  0  0  0  0
   27.1370  -20.6195  -10.2319 C   0  0  0  0  0  0  0  0  0  0  0  0
   28.1087  -21.3494  -10.8685 C   0  0  0  0  0  0  0  0  0  0  0  0
   29.0882  -21.5572   -9.9765 N   0  0  0  0  0  0  0  0  0  0  0  0
   28.7844  -20.9924   -8.7989 C   0  0  0  0  0  0  0  0  0  0  0  0
   29.4227  -20.9082   -7.5791 C   0  0  0  0  0  0  0  0  0  0  0  0
   28.8640  -20.2476   -6.5132 C   0  0  0  0  0  0  0  0  0  0  0  0
   27.6320  -19.6424   -6.6364 C   0  0  0  0  0  0  0  0  0  0  0  0
   26.9952  -19.7256   -7.8508 C   0  0  0  0  0  0  0  0  0  0  0  0
   27.5581  -20.3954   -8.9373 C   0  0  0  0  0  0  0  0  0  0  0  0
   24.0470  -20.5276  -12.3373 C   0  0  0  0  0  0  0  0  0  0  0  0
   23.6694  -19.3930  -12.7192 O   0  0  0  0  0  0  0  0  0  0  0  0
   21.1950  -21.2166  -15.2243 N   0  0  0  0  0  0  0  0  0  0  0  0
   20.9552  -22.4616  -14.5292 C   0  0  0  0  0  0  0  0  0  0  0  0
   20.6418  -23.4923  -15.1467 O   0  0  0  0  0  0  0  0  0  0  0  0
   21.0985  -22.4449  -13.0788 C   0  0  0  0  0  0  0  0  0  0  0  0
   21.6615  -21.1763  -12.4884 C   0  0  2  0  0  0  0  0  0  0  0  0
   23.0627  -21.5275  -12.1409 N   0  0  0  0  0  0  0  0  0  0  0  0
   20.9650  -20.6923  -11.2925 C   0  0  0  0  0  0  0  0  0  0  0  0
   21.2354  -21.0088  -10.1192 O   0  0  0  0  0  0  0  0  0  0  0  0
   19.8926  -19.7915  -11.4338 O   0  0  0  0  0  0  0  0  0  0  0  0
  1  2  1  0
  2  3  1  0
  4  3  1  0
  5  1  1  0
  5  4  1  0
  5  6  1  1
  7  6  2  0
  8  6  1  0
  9  8  1  0
 10 11  1  0
  9 10  1  1
 11 12  2  0
 13 12  1  0
 14 13  1  0
 15 14  2  0
 16 15  1  0
 17 16  2  0
 17 18  1  0
 18 19  2  0
 19 14  1  0
 19 11  1  0
 20  9  1  0
 20 27  1  0
 21 20  2  0
 22 23  1  0
 23 24  2  0
 23 25  1  0
 26 25  1  1
 26 27  1  0
 26 28  1  0
 28 30  1  0
 29 28  2  0
M  END
$$$$
