PWN.pdb
     RDKit          3D

 30 32  0  0  1  0  0  0  0  0999 V2000
   26.9280  -18.6023  -14.5423 N   0  0  0  0  0  0  0  0  0  0  0  0
   27.6948  -17.6739  -15.3871 C   0  0  0  0  0  0  0  0  0  0  0  0
   29.0919  -18.2531  -15.3335 C   0  0  0  0  0  0  0  0  0  0  0  0
   28.9417  -19.6612  -14.7402 C   0  0  0  0  0  0  0  0  0  0  0  0
   27.4612  -19.8766  -14.9695 C   0  0  1  0  0  0  0  0  0  0  0  0
   26.8832  -20.9444  -14.1395 C   0  0  0  0  0  0  0  0  0  0  0  0
   26.6460  -22.1117  -14.6234 O   0  0  0  0  0  0  0  0  0  0  0  0
   26.5870  -20.6620  -12.7772 N   0  0  0  0  0  0  0  0  0  0  0  0
   25.8294  -21.5700  -11.9725 C   0  0  1  0  0  0  0  0  0  0  0  0
   26.4718  -21.8631  -10.6405 C   0  0  0  0  0  0  0  0  0  0  0  0
   26.5517  -20.6903   -9.7622 C   0  0  0  0  0  0  0  0  0  0  0  0
   25.7106  -19.6065   -9.7554 C   0  0  0  0  0  0  0  0  0  0  0  0
   26.1501  -18.7772   -8.7976 N   0  0  0  0  0  0  0  0  0  0  0  0
   27.2344  -19.2838   -8.1930 C   0  0  0  0  0  0  0  0  0  0  0  0
   28.0568  -18.8529   -7.1730 C   0  0  0  0  0  0  0  0  0  0  0  0
   29.1278  -19.5962   -6.7428 C   0  0  0  0  0  0  0  0  0  0  0  0
   29.4134  -20.8107   -7.3282 C   0  0  0  0  0  0  0  0  0  0  0  0
   28.5950  -21.2410   -8.3444 C   0  0  0  0  0  0  0  0  0  0  0  0
   27.5053  -20.4901   -8.7855 C   0  0  0  0  0  0  0  0  0  0  0  0
   24.4797  -20.9736  -11.6684 C   0  0  0  0  0  0  0  0  0  0  0  0
   24.3407  -19.7765  -11.3169 O   0  0  0  0  0  0  0  0  0  0  0  0
   21.2336  -18.9617  -13.8552 N   0  0  0  0  0  0  0  0  0  0  0  0
   22.2275  -19.7357  -14.5651 C   0  0  0  0  0  0  0  0  0  0  0  0
   22.6341  -19.3866  -15.6853 O   0  0  0  0  0  0  0  0  0  0  0  0
   22.7233  -20.9364  -13.9043 C   0  0  0  0  0  0  0  0  0  0  0  0
   22.1686  -21.2061  -12.5279 C   0  0  2  0  0  0  0  0  0  0  0  0
   23.3176  -21.7764  -11.7780 N   0  0  0  0  0  0  0  0  0  0  0  0
   21.0430  -22.1448  -12.4912 C   0  0  0  0  0  0  0  0  0  0  0  0
   19.9132  -21.9029  -12.0275 O   0  0  0  0  0  0  0  0  0  0  0  0
   21.2067  -23.4417  -13.0133 O   0  0  0  0  0  0  0  0  0  0  0  0
  1  2  1  0
  2  3  1  0
  4  3  1  0
  5  1  1  0
  5  4  1  0
  5  6  1  1
  7  6  2  0
  8  6  1  0
  9  8  1  0
 10 11  1  0
  9 10  1  1
 11 12  2  0
 13 12  1  0
 14 13  1  0
 15 14  2  0
 16 15  1  0
 17 16  2  0
 17 18  1  0
 18 19  2  0
 19 14  1  0
 19 11  1  0
 20  9  1  0
 20 27  1  0
 21 20  2  0
 22 23  1  0
 23 24  2  0
 23 25  1  0
 26 25  1  6
 26 27  1  0
 26 28  1  0
 28 30  1  0
 29 28  2  0
M  END
$$$$
