PQL.pdb
     RDKit          3D

 25 25  0  0  1  0  0  0  0  0999 V2000
   23.4932  -12.6399  -19.9382 N   0  0  0  0  0  0  0  0  0  0  0  0
   23.8910  -13.3343  -21.1543 C   0  0  0  0  0  0  0  0  0  0  0  0
   22.5265  -13.7183  -21.7207 C   0  0  0  0  0  0  0  0  0  0  0  0
   21.7871  -12.3833  -21.5714 C   0  0  0  0  0  0  0  0  0  0  0  0
   22.5224  -11.6903  -20.4376 C   0  0  1  0  0  0  0  0  0  0  0  0
   21.5841  -11.2410  -19.3871 C   0  0  0  0  0  0  0  0  0  0  0  0
   20.7691  -10.3380  -19.6734 O   0  0  0  0  0  0  0  0  0  0  0  0
   18.2266  -14.8095  -16.4053 N   0  0  0  0  0  0  0  0  0  0  0  0
   18.1645  -13.7698  -15.4467 C   0  0  0  0  0  0  0  0  0  0  0  0
   17.2601  -13.8678  -14.5464 O   0  0  0  0  0  0  0  0  0  0  0  0
   19.0667  -12.6069  -15.4218 C   0  0  0  0  0  0  0  0  0  0  0  0
   20.0345  -12.6091  -16.5191 C   0  0  0  0  0  0  0  0  0  0  0  0
   20.6332  -11.3788  -17.0311 C   0  0  2  0  0  0  0  0  0  0  0  0
   21.5806  -11.7924  -18.0898 N   0  0  0  0  0  0  0  0  0  0  0  0
   21.2681  -10.4056  -16.1879 C   0  0  0  0  0  0  0  0  0  0  0  0
   20.8256   -9.9544  -15.0961 O   0  0  0  0  0  0  0  0  0  0  0  0
   25.2949  -10.5421  -14.3893 C   0  0  0  0  0  0  0  0  0  0  0  0
   25.3066  -10.2857  -15.9052 C   0  0  2  0  0  0  0  0  0  0  0  0
   26.7418  -10.3419  -16.3796 C   0  0  0  0  0  0  0  0  0  0  0  0
   24.6957   -8.9226  -16.0861 C   0  0  0  0  0  0  0  0  0  0  0  0
   23.2232   -8.8596  -15.7593 C   0  0  2  0  0  0  0  0  0  0  0  0
   22.5263   -9.8610  -16.5740 N   0  0  0  0  0  0  0  0  0  0  0  0
   22.6021   -7.5574  -15.9801 C   0  0  0  0  0  0  0  0  0  0  0  0
   22.9584   -6.5658  -15.3011 O   0  0  0  0  0  0  0  0  0  0  0  0
   21.6165   -7.3775  -16.9311 O   0  0  0  0  0  0  0  0  0  0  0  0
  2  1  1  0
  3  2  1  0
  4  5  1  0
  4  3  1  0
  5  6  1  1
  5  1  1  0
  6  7  2  0
  9  8  1  0
  9 11  1  0
 10  9  2  0
 12 11  1  0
 13 12  1  1
 14 13  1  0
 14  6  1  0
 15 16  2  0
 15 13  1  0
 18 17  1  1
 18 19  1  0
 18 20  1  0
 21 20  1  6
 21 22  1  0
 21 23  1  0
 22 15  1  0
 23 25  1  0
 24 23  2  0
M  END
$$$$
