PQL.pdb
     RDKit          3D

 25 25  0  0  1  0  0  0  0  0999 V2000
   25.4890  -24.2943  -15.8235 N   0  0  0  0  0  0  0  0  0  0  0  0
   25.7210  -25.7001  -16.1222 C   0  0  0  0  0  0  0  0  0  0  0  0
   24.7886  -26.3623  -15.1111 C   0  0  0  0  0  0  0  0  0  0  0  0
   23.5203  -25.5279  -15.3270 C   0  0  0  0  0  0  0  0  0  0  0  0
   24.0453  -24.2107  -15.8709 C   0  0  1  0  0  0  0  0  0  0  0  0
   23.5231  -23.0654  -15.0954 C   0  0  0  0  0  0  0  0  0  0  0  0
   22.3603  -22.6748  -15.3338 O   0  0  0  0  0  0  0  0  0  0  0  0
   24.4324  -20.9507   -9.1645 N   0  0  0  0  0  0  0  0  0  0  0  0
   25.5556  -20.8356  -10.0183 C   0  0  0  0  0  0  0  0  0  0  0  0
   26.6590  -20.4798   -9.4760 O   0  0  0  0  0  0  0  0  0  0  0  0
   25.5305  -21.1021  -11.4658 C   0  0  0  0  0  0  0  0  0  0  0  0
   24.2009  -21.4620  -11.9591 C   0  0  0  0  0  0  0  0  0  0  0  0
   23.7987  -21.2387  -13.3457 C   0  0  2  0  0  0  0  0  0  0  0  0
   24.2862  -22.4092  -14.1084 N   0  0  0  0  0  0  0  0  0  0  0  0
   24.1160  -20.0412  -14.0712 C   0  0  0  0  0  0  0  0  0  0  0  0
   23.7527  -18.8684  -13.7810 O   0  0  0  0  0  0  0  0  0  0  0  0
   27.5780  -17.6486  -14.3648 C   0  0  0  0  0  0  0  0  0  0  0  0
   27.7146  -19.0730  -14.9270 C   0  0  2  0  0  0  0  0  0  0  0  0
   29.1798  -19.3314  -15.1997 C   0  0  0  0  0  0  0  0  0  0  0  0
   26.8858  -19.0897  -16.1827 C   0  0  0  0  0  0  0  0  0  0  0  0
   25.4035  -18.9320  -15.9442 C   0  0  2  0  0  0  0  0  0  0  0  0
   24.9188  -20.1269  -15.2445 N   0  0  0  0  0  0  0  0  0  0  0  0
   24.6064  -18.7368  -17.1511 C   0  0  0  0  0  0  0  0  0  0  0  0
   24.6482  -17.6444  -17.7644 O   0  0  0  0  0  0  0  0  0  0  0  0
   23.7926  -19.7352  -17.6503 O   0  0  0  0  0  0  0  0  0  0  0  0
  2  1  1  0
  3  2  1  0
  4  5  1  0
  4  3  1  0
  5  6  1  1
  5  1  1  0
  6  7  2  0
  9  8  1  0
  9 11  1  0
 10  9  2  0
 12 11  1  0
 13 12  1  1
 14 13  1  0
 14  6  1  0
 15 16  2  0
 15 13  1  0
 18 17  1  6
 18 19  1  0
 18 20  1  0
 21 20  1  6
 21 22  1  0
 21 23  1  0
 22 15  1  0
 23 25  1  0
 24 23  2  0
M  END
$$$$
