PQL.pdb
     RDKit          3D

 25 25  0  0  1  0  0  0  0  0999 V2000
   24.2443  -12.1196  -15.6260 N   0  0  0  0  0  0  0  0  0  0  0  0
   24.5562  -13.5394  -15.7061 C   0  0  0  0  0  0  0  0  0  0  0  0
   23.1770  -14.1155  -16.0159 C   0  0  0  0  0  0  0  0  0  0  0  0
   22.7310  -13.1624  -17.1314 C   0  0  0  0  0  0  0  0  0  0  0  0
   23.5288  -11.8982  -16.8639 C   0  0  1  0  0  0  0  0  0  0  0  0
   22.6475  -10.7130  -16.7992 C   0  0  0  0  0  0  0  0  0  0  0  0
   22.1442  -10.2953  -17.8641 O   0  0  0  0  0  0  0  0  0  0  0  0
   17.9091  -10.7507  -13.8073 N   0  0  0  0  0  0  0  0  0  0  0  0
   17.9083   -9.3533  -14.0331 C   0  0  0  0  0  0  0  0  0  0  0  0
   16.8480   -8.7160  -13.7046 O   0  0  0  0  0  0  0  0  0  0  0  0
   19.0371   -8.6031  -14.6073 C   0  0  0  0  0  0  0  0  0  0  0  0
   20.2009   -9.4445  -14.8872 C   0  0  0  0  0  0  0  0  0  0  0  0
   21.4209   -8.9103  -15.4877 C   0  0  2  0  0  0  0  0  0  0  0  0
   22.3611  -10.0483  -15.5895 N   0  0  0  0  0  0  0  0  0  0  0  0
   22.1192   -7.7707  -14.9633 C   0  0  0  0  0  0  0  0  0  0  0  0
   22.8732   -7.7515  -13.9521 O   0  0  0  0  0  0  0  0  0  0  0  0
   25.1315   -4.8800  -16.4577 C   0  0  0  0  0  0  0  0  0  0  0  0
   23.7929   -4.7814  -17.2074 C   0  0  2  0  0  0  0  0  0  0  0  0
   23.9628   -3.7978  -18.3438 C   0  0  0  0  0  0  0  0  0  0  0  0
   22.7945   -4.3100  -16.1852 C   0  0  0  0  0  0  0  0  0  0  0  0
   22.5654   -5.2830  -15.0539 C   0  0  2  0  0  0  0  0  0  0  0  0
   21.9833   -6.5092  -15.6104 N   0  0  0  0  0  0  0  0  0  0  0  0
   21.6975   -4.7905  -13.9889 C   0  0  0  0  0  0  0  0  0  0  0  0
   20.4753   -5.0690  -13.9922 O   0  0  0  0  0  0  0  0  0  0  0  0
   22.1874   -4.0137  -12.9569 O   0  0  0  0  0  0  0  0  0  0  0  0
  2  1  1  0
  3  2  1  0
  4  5  1  0
  4  3  1  0
  5  6  1  1
  5  1  1  0
  6  7  2  0
  9  8  1  0
  9 11  1  0
 10  9  2  0
 12 11  1  0
 13 12  1  1
 14 13  1  0
 14  6  1  0
 15 16  2  0
 15 13  1  0
 18 17  1  1
 18 19  1  0
 18 20  1  0
 21 20  1  6
 21 22  1  0
 21 23  1  0
 22 15  1  0
 23 25  1  0
 24 23  2  0
M  END
$$$$
