PQL.pdb
     RDKit          3D

 25 25  0  0  1  0  0  0  0  0999 V2000
   27.5648  -18.6105  -18.6373 N   0  0  0  0  0  0  0  0  0  0  0  0
   28.6783  -18.0261  -19.3708 C   0  0  0  0  0  0  0  0  0  0  0  0
   28.7595  -16.6506  -18.7140 C   0  0  0  0  0  0  0  0  0  0  0  0
   28.6842  -17.0524  -17.2361 C   0  0  0  0  0  0  0  0  0  0  0  0
   27.9586  -18.3863  -17.2632 C   0  0  1  0  0  0  0  0  0  0  0  0
   26.8034  -18.3858  -16.3405 C   0  0  0  0  0  0  0  0  0  0  0  0
   27.0210  -18.1893  -15.1258 O   0  0  0  0  0  0  0  0  0  0  0  0
   21.4586  -16.2901  -18.0199 N   0  0  0  0  0  0  0  0  0  0  0  0
   21.0147  -17.0272  -16.8959 C   0  0  0  0  0  0  0  0  0  0  0  0
   19.8392  -16.7663  -16.4619 O   0  0  0  0  0  0  0  0  0  0  0  0
   21.8090  -18.0617  -16.2134 C   0  0  0  0  0  0  0  0  0  0  0  0
   23.1694  -18.1790  -16.7391 C   0  0  0  0  0  0  0  0  0  0  0  0
   24.3037  -18.5349  -15.8899 C   0  0  2  0  0  0  0  0  0  0  0  0
   25.4819  -18.5974  -16.7829 N   0  0  0  0  0  0  0  0  0  0  0  0
   24.3078  -19.6825  -15.0273 C   0  0  0  0  0  0  0  0  0  0  0  0
   24.5070  -20.8799  -15.3707 O   0  0  0  0  0  0  0  0  0  0  0  0
   25.6993  -20.5885   -9.2578 C   0  0  0  0  0  0  0  0  0  0  0  0
   25.2247  -21.3272  -10.5198 C   0  0  2  0  0  0  0  0  0  0  0  0
   26.2710  -22.3578  -10.8819 C   0  0  0  0  0  0  0  0  0  0  0  0
   25.0771  -20.2646  -11.5748 C   0  0  0  0  0  0  0  0  0  0  0  0
   24.1280  -20.6317  -12.6899 C   0  0  2  0  0  0  0  0  0  0  0  0
   24.0688  -19.5101  -13.6338 N   0  0  0  0  0  0  0  0  0  0  0  0
   22.7722  -20.9564  -12.2582 C   0  0  0  0  0  0  0  0  0  0  0  0
   21.9278  -20.0446  -12.0933 O   0  0  0  0  0  0  0  0  0  0  0  0
   22.3804  -22.2598  -12.0217 O   0  0  0  0  0  0  0  0  0  0  0  0
  2  1  1  0
  3  2  1  0
  4  5  1  0
  4  3  1  0
  5  6  1  1
  5  1  1  0
  6  7  2  0
  9  8  1  0
  9 11  1  0
 10  9  2  0
 12 11  1  0
 13 12  1  6
 14 13  1  0
 14  6  1  0
 15 16  2  0
 15 13  1  0
 18 17  1  1
 18 19  1  0
 18 20  1  0
 21 20  1  1
 21 22  1  0
 21 23  1  0
 22 15  1  0
 23 25  1  0
 24 23  2  0
M  END
$$$$
