PQL.pdb
     RDKit          3D

 25 25  0  0  1  0  0  0  0  0999 V2000
       nan       nan       nan N   0  0  0  0  0  0  0  0  0  0  0  0
       nan       nan       nan C   0  0  0  0  0  0  0  0  0  0  0  0
       nan       nan       nan C   0  0  0  0  0  0  0  0  0  0  0  0
       nan       nan       nan C   0  0  0  0  0  0  0  0  0  0  0  0
       nan       nan       nan C   0  0  0  0  0  0  0  0  0  0  0  0
       nan       nan       nan C   0  0  0  0  0  0  0  0  0  0  0  0
       nan       nan       nan O   0  0  0  0  0  0  0  0  0  0  0  0
       nan       nan       nan N   0  0  0  0  0  0  0  0  0  0  0  0
       nan       nan       nan C   0  0  0  0  0  0  0  0  0  0  0  0
       nan       nan       nan O   0  0  0  0  0  0  0  0  0  0  0  0
       nan       nan       nan C   0  0  0  0  0  0  0  0  0  0  0  0
       nan       nan       nan C   0  0  0  0  0  0  0  0  0  0  0  0
       nan       nan       nan C   0  0  0  0  0  0  0  0  0  0  0  0
       nan       nan       nan N   0  0  0  0  0  0  0  0  0  0  0  0
       nan       nan       nan C   0  0  0  0  0  0  0  0  0  0  0  0
       nan       nan       nan O   0  0  0  0  0  0  0  0  0  0  0  0
       nan       nan       nan C   0  0  0  0  0  0  0  0  0  0  0  0
       nan       nan       nan C   0  0  0  0  0  0  0  0  0  0  0  0
       nan       nan       nan C   0  0  0  0  0  0  0  0  0  0  0  0
       nan       nan       nan C   0  0  0  0  0  0  0  0  0  0  0  0
       nan       nan       nan C   0  0  0  0  0  0  0  0  0  0  0  0
       nan       nan       nan N   0  0  0  0  0  0  0  0  0  0  0  0
       nan       nan       nan C   0  0  0  0  0  0  0  0  0  0  0  0
       nan       nan       nan O   0  0  0  0  0  0  0  0  0  0  0  0
       nan       nan       nan O   0  0  0  0  0  0  0  0  0  0  0  0
  2  1  1  0
  3  2  1  0
  4  5  1  0
  4  3  1  0
  5  6  1  6
  5  1  1  0
  6  7  2  0
  9  8  1  0
  9 11  1  0
 10  9  2  0
 12 11  1  0
 13 12  1  6
 14 13  1  0
 14  6  1  0
 15 16  2  0
 15 13  1  0
 18 17  1  6
 18 19  1  0
 18 20  1  0
 21 20  1  6
 21 22  1  0
 21 23  1  0
 22 15  1  0
 23 25  1  0
 24 23  2  0
M  END
$$$$
