PQL.pdb
     RDKit          3D

 25 25  0  0  1  0  0  0  0  0999 V2000
   26.5092  -32.3294  -17.4520 N   0  0  0  0  0  0  0  0  0  0  0  0
   26.8974  -31.0061  -17.9186 C   0  0  0  0  0  0  0  0  0  0  0  0
   27.0037  -30.2579  -16.5923 C   0  0  0  0  0  0  0  0  0  0  0  0
   27.8181  -31.2692  -15.7766 C   0  0  0  0  0  0  0  0  0  0  0  0
   27.5109  -32.5987  -16.4432 C   0  0  1  0  0  0  0  0  0  0  0  0
   27.0579  -33.6007  -15.4550 C   0  0  0  0  0  0  0  0  0  0  0  0
   25.8309  -33.7031  -15.2413 O   0  0  0  0  0  0  0  0  0  0  0  0
   27.1662  -39.4617  -14.9825 N   0  0  0  0  0  0  0  0  0  0  0  0
   27.0438  -38.7052  -13.7924 C   0  0  0  0  0  0  0  0  0  0  0  0
   25.9254  -38.7780  -13.1744 O   0  0  0  0  0  0  0  0  0  0  0  0
   28.1104  -37.8601  -13.2310 C   0  0  0  0  0  0  0  0  0  0  0  0
   28.3184  -36.6237  -13.9853 C   0  0  0  0  0  0  0  0  0  0  0  0
   27.5281  -35.4199  -13.7393 C   0  0  2  0  0  0  0  0  0  0  0  0
   27.9553  -34.4331  -14.7558 N   0  0  0  0  0  0  0  0  0  0  0  0
   27.4604  -34.7744  -12.4587 C   0  0  0  0  0  0  0  0  0  0  0  0
   27.8557  -33.6085  -12.1831 O   0  0  0  0  0  0  0  0  0  0  0  0
   24.0295  -32.0379   -9.5783 C   0  0  0  0  0  0  0  0  0  0  0  0
   25.1940  -32.9330   -9.1238 C   0  0  2  0  0  0  0  0  0  0  0  0
   26.2855  -32.0409   -8.5756 C   0  0  0  0  0  0  0  0  0  0  0  0
   25.6288  -33.6812  -10.3548 C   0  0  0  0  0  0  0  0  0  0  0  0
   26.5978  -34.8060  -10.0814 C   0  0  2  0  0  0  0  0  0  0  0  0
   26.8997  -35.4743  -11.3521 N   0  0  0  0  0  0  0  0  0  0  0  0
   26.1253  -35.8026   -9.1255 C   0  0  0  0  0  0  0  0  0  0  0  0
   25.3291  -36.6991   -9.4912 O   0  0  0  0  0  0  0  0  0  0  0  0
   26.5349  -35.7914   -7.8063 O   0  0  0  0  0  0  0  0  0  0  0  0
  2  1  1  0
  3  2  1  0
  4  5  1  0
  4  3  1  0
  5  6  1  1
  5  1  1  0
  6  7  2  0
  9  8  1  0
  9 11  1  0
 10  9  2  0
 12 11  1  0
 13 12  1  1
 14 13  1  0
 14  6  1  0
 15 16  2  0
 15 13  1  0
 18 17  1  6
 18 19  1  0
 18 20  1  0
 21 20  1  6
 21 22  1  0
 21 23  1  0
 22 15  1  0
 23 25  1  0
 24 23  2  0
M  END
$$$$
