PQL.pdb
     RDKit          3D

 25 25  0  0  1  0  0  0  0  0999 V2000
   27.6551  -20.7444  -15.0843 N   0  0  0  0  0  0  0  0  0  0  0  0
   28.1628  -20.3006  -16.3746 C   0  0  0  0  0  0  0  0  0  0  0  0
   27.9103  -18.7983  -16.2769 C   0  0  0  0  0  0  0  0  0  0  0  0
   28.4675  -18.5217  -14.8754 C   0  0  0  0  0  0  0  0  0  0  0  0
   28.3446  -19.8607  -14.1694 C   0  0  1  0  0  0  0  0  0  0  0  0
   27.6351  -19.7224  -12.8797 C   0  0  0  0  0  0  0  0  0  0  0  0
   28.0991  -18.9264  -12.0354 O   0  0  0  0  0  0  0  0  0  0  0  0
   21.6885  -21.0805  -13.0655 N   0  0  0  0  0  0  0  0  0  0  0  0
   21.7654  -20.4715  -11.7900 C   0  0  0  0  0  0  0  0  0  0  0  0
   20.6582  -20.2575  -11.1847 O   0  0  0  0  0  0  0  0  0  0  0  0
   23.0218  -20.0827  -11.1287 C   0  0  0  0  0  0  0  0  0  0  0  0
   24.2032  -20.3199  -11.9585 C   0  0  0  0  0  0  0  0  0  0  0  0
   25.5598  -20.1090  -11.4592 C   0  0  2  0  0  0  0  0  0  0  0  0
   26.4670  -20.4510  -12.5770 N   0  0  0  0  0  0  0  0  0  0  0  0
   26.0541  -20.7112  -10.2533 C   0  0  0  0  0  0  0  0  0  0  0  0
   26.5147  -21.8792  -10.1308 O   0  0  0  0  0  0  0  0  0  0  0  0
   27.9587  -18.5567   -4.8858 C   0  0  0  0  0  0  0  0  0  0  0  0
   27.6354  -19.8729   -5.6116 C   0  0  2  0  0  0  0  0  0  0  0  0
   28.8689  -20.7473   -5.5697 C   0  0  0  0  0  0  0  0  0  0  0  0
   27.2610  -19.4761   -7.0139 C   0  0  0  0  0  0  0  0  0  0  0  0
   26.4929  -20.5339   -7.7688 C   0  0  2  0  0  0  0  0  0  0  0  0
   26.0476  -19.9597   -9.0433 N   0  0  0  0  0  0  0  0  0  0  0  0
   25.3334  -21.0698   -7.0628 C   0  0  0  0  0  0  0  0  0  0  0  0
   24.1746  -20.7724   -7.4369 O   0  0  0  0  0  0  0  0  0  0  0  0
   25.4730  -21.9108   -5.9758 O   0  0  0  0  0  0  0  0  0  0  0  0
  2  1  1  0
  3  2  1  0
  4  5  1  0
  4  3  1  0
  5  6  1  1
  5  1  1  0
  6  7  2  0
  9  8  1  0
  9 11  1  0
 10  9  2  0
 12 11  1  0
 13 12  1  6
 14 13  1  0
 14  6  1  0
 15 16  2  0
 15 13  1  0
 18 17  1  1
 18 19  1  0
 18 20  1  0
 21 20  1  1
 21 22  1  0
 21 23  1  0
 22 15  1  0
 23 25  1  0
 24 23  2  0
M  END
$$$$
