PQL.pdb
     RDKit          3D

 25 25  0  0  1  0  0  0  0  0999 V2000
   20.4920  -11.1035  -19.1025 N   0  0  0  0  0  0  0  0  0  0  0  0
   20.0865  -12.4255  -19.5578 C   0  0  0  0  0  0  0  0  0  0  0  0
   19.0436  -12.7814  -18.5015 C   0  0  0  0  0  0  0  0  0  0  0  0
   18.2321  -11.4807  -18.4746 C   0  0  0  0  0  0  0  0  0  0  0  0
   19.2189  -10.4317  -18.9565 C   0  0  1  0  0  0  0  0  0  0  0  0
   19.2895   -9.2920  -18.0174 C   0  0  0  0  0  0  0  0  0  0  0  0
   18.2409   -8.6513  -17.7901 O   0  0  0  0  0  0  0  0  0  0  0  0
   23.0339   -9.2302  -13.2268 N   0  0  0  0  0  0  0  0  0  0  0  0
   21.6450   -9.0631  -13.0106 C   0  0  0  0  0  0  0  0  0  0  0  0
   21.1998   -9.3729  -11.8513 O   0  0  0  0  0  0  0  0  0  0  0  0
   20.7013   -8.5572  -14.0207 C   0  0  0  0  0  0  0  0  0  0  0  0
   21.3436   -8.2385  -15.2961 C   0  0  0  0  0  0  0  0  0  0  0  0
   20.5863   -7.7625  -16.4511 C   0  0  2  0  0  0  0  0  0  0  0  0
   20.4871   -8.9109  -17.3790 N   0  0  0  0  0  0  0  0  0  0  0  0
   20.9459   -6.5885  -17.1950 C   0  0  0  0  0  0  0  0  0  0  0  0
   21.5499   -6.5561  -18.3021 O   0  0  0  0  0  0  0  0  0  0  0  0
   19.1992   -3.2692  -20.8075 C   0  0  0  0  0  0  0  0  0  0  0  0
   20.2461   -3.0553  -19.7021 C   0  0  2  0  0  0  0  0  0  0  0  0
   21.6090   -2.9827  -20.3540 C   0  0  0  0  0  0  0  0  0  0  0  0
   20.1107   -4.2418  -18.7866 C   0  0  0  0  0  0  0  0  0  0  0  0
   20.8078   -4.0768  -17.4578 C   0  0  2  0  0  0  0  0  0  0  0  0
   20.6117   -5.3040  -16.6781 N   0  0  0  0  0  0  0  0  0  0  0  0
   20.3546   -2.9379  -16.6657 C   0  0  0  0  0  0  0  0  0  0  0  0
   20.5561   -1.7685  -17.0701 O   0  0  0  0  0  0  0  0  0  0  0  0
   19.6976   -3.1085  -15.4626 O   0  0  0  0  0  0  0  0  0  0  0  0
  2  1  1  0
  3  2  1  0
  4  5  1  0
  4  3  1  0
  5  6  1  1
  5  1  1  0
  6  7  2  0
  9  8  1  0
  9 11  1  0
 10  9  2  0
 12 11  1  0
 13 12  1  1
 14 13  1  0
 14  6  1  0
 15 16  2  0
 15 13  1  0
 18 17  1  6
 18 19  1  0
 18 20  1  0
 21 20  1  6
 21 22  1  0
 21 23  1  0
 22 15  1  0
 23 25  1  0
 24 23  2  0
M  END
$$$$
