PQL.pdb
     RDKit          3D

 25 25  0  0  1  0  0  0  0  0999 V2000
   25.0394  -16.3445  -15.5262 N   0  0  0  0  0  0  0  0  0  0  0  0
   25.2827  -14.9307  -15.2786 C   0  0  0  0  0  0  0  0  0  0  0  0
   26.7848  -14.9450  -15.0069 C   0  0  0  0  0  0  0  0  0  0  0  0
   27.2621  -15.8146  -16.1762 C   0  0  0  0  0  0  0  0  0  0  0  0
   26.0438  -16.6532  -16.5209 C   0  0  1  0  0  0  0  0  0  0  0  0
   26.3775  -18.0931  -16.5543 C   0  0  0  0  0  0  0  0  0  0  0  0
   27.1257  -18.5025  -17.4677 O   0  0  0  0  0  0  0  0  0  0  0  0
   28.4615  -21.8550  -17.5683 N   0  0  0  0  0  0  0  0  0  0  0  0
   28.9242  -22.2103  -16.2785 C   0  0  0  0  0  0  0  0  0  0  0  0
   29.5450  -23.3247  -16.1746 O   0  0  0  0  0  0  0  0  0  0  0  0
   28.7417  -21.3851  -15.0732 C   0  0  0  0  0  0  0  0  0  0  0  0
   27.8641  -20.2353  -15.2935 C   0  0  0  0  0  0  0  0  0  0  0  0
   26.4168  -20.3767  -15.4327 C   0  0  2  0  0  0  0  0  0  0  0  0
   25.8843  -19.0063  -15.6004 N   0  0  0  0  0  0  0  0  0  0  0  0
   25.6029  -21.0829  -14.4840 C   0  0  0  0  0  0  0  0  0  0  0  0
   25.5559  -22.3325  -14.3175 O   0  0  0  0  0  0  0  0  0  0  0  0
   25.9869  -22.0932  -10.6858 C   0  0  0  0  0  0  0  0  0  0  0  0
   25.7843  -20.5838  -10.8961 C   0  0  2  0  0  0  0  0  0  0  0  0
   26.1561  -19.8769   -9.6116 C   0  0  0  0  0  0  0  0  0  0  0  0
   24.3290  -20.4188  -11.2411 C   0  0  0  0  0  0  0  0  0  0  0  0
   23.9428  -21.0048  -12.5776 C   0  0  2  0  0  0  0  0  0  0  0  0
   24.7429  -20.3489  -13.6178 N   0  0  0  0  0  0  0  0  0  0  0  0
   22.5296  -20.8746  -12.9181 C   0  0  0  0  0  0  0  0  0  0  0  0
   22.1795  -20.1821  -13.9026 O   0  0  0  0  0  0  0  0  0  0  0  0
   21.5460  -21.5018  -12.1781 O   0  0  0  0  0  0  0  0  0  0  0  0
  2  1  1  0
  3  2  1  0
  4  5  1  0
  4  3  1  0
  5  6  1  1
  5  1  1  0
  6  7  2  0
  9  8  1  0
  9 11  1  0
 10  9  2  0
 12 11  1  0
 13 12  1  1
 14 13  1  0
 14  6  1  0
 15 16  2  0
 15 13  1  0
 18 17  1  1
 18 19  1  0
 18 20  1  0
 21 20  1  1
 21 22  1  0
 21 23  1  0
 22 15  1  0
 23 25  1  0
 24 23  2  0
M  END
$$$$
