PQL.pdb
     RDKit          3D

 25 25  0  0  1  0  0  0  0  0999 V2000
   24.5043  -12.2931  -15.6382 N   0  0  0  0  0  0  0  0  0  0  0  0
   25.0119  -13.6452  -15.8213 C   0  0  0  0  0  0  0  0  0  0  0  0
   23.9302  -14.2343  -16.7229 C   0  0  0  0  0  0  0  0  0  0  0  0
   23.7958  -13.1076  -17.7544 C   0  0  0  0  0  0  0  0  0  0  0  0
   24.2643  -11.8743  -17.0022 C   0  0  1  0  0  0  0  0  0  0  0  0
   23.2688  -10.7846  -17.0885 C   0  0  0  0  0  0  0  0  0  0  0  0
   23.0509  -10.2742  -18.2082 O   0  0  0  0  0  0  0  0  0  0  0  0
   17.8696  -11.1969  -15.1466 N   0  0  0  0  0  0  0  0  0  0  0  0
   17.8839   -9.7845  -15.2391 C   0  0  0  0  0  0  0  0  0  0  0  0
   16.7659   -9.1837  -15.0738 O   0  0  0  0  0  0  0  0  0  0  0  0
   19.0885   -8.9807  -15.5034 C   0  0  0  0  0  0  0  0  0  0  0  0
   20.2901   -9.7942  -15.6914 C   0  0  0  0  0  0  0  0  0  0  0  0
   21.5857   -9.2041  -16.0193 C   0  0  2  0  0  0  0  0  0  0  0  0
   22.5672  -10.3100  -15.9618 N   0  0  0  0  0  0  0  0  0  0  0  0
   22.1241   -8.0635  -15.3335 C   0  0  0  0  0  0  0  0  0  0  0  0
   22.7026   -8.0647  -14.2125 O   0  0  0  0  0  0  0  0  0  0  0  0
   25.1356   -5.0147  -16.6156 C   0  0  0  0  0  0  0  0  0  0  0  0
   23.8092   -4.8958  -17.3840 C   0  0  2  0  0  0  0  0  0  0  0  0
   23.9751   -3.8303  -18.4447 C   0  0  0  0  0  0  0  0  0  0  0  0
   22.7799   -4.5225  -16.3519 C   0  0  0  0  0  0  0  0  0  0  0  0
   22.5637   -5.5733  -15.2898 C   0  0  2  0  0  0  0  0  0  0  0  0
   22.0227   -6.7756  -15.9333 N   0  0  0  0  0  0  0  0  0  0  0  0
   21.6693   -5.1750  -14.2075 C   0  0  0  0  0  0  0  0  0  0  0  0
   20.4684   -5.5343  -14.2176 O   0  0  0  0  0  0  0  0  0  0  0  0
   22.1105   -4.4015  -13.1514 O   0  0  0  0  0  0  0  0  0  0  0  0
  2  1  1  0
  3  2  1  0
  4  5  1  0
  4  3  1  0
  5  6  1  1
  5  1  1  0
  6  7  2  0
  9  8  1  0
  9 11  1  0
 10  9  2  0
 12 11  1  0
 13 12  1  1
 14 13  1  0
 14  6  1  0
 15 16  2  0
 15 13  1  0
 18 17  1  1
 18 19  1  0
 18 20  1  0
 21 20  1  6
 21 22  1  0
 21 23  1  0
 22 15  1  0
 23 25  1  0
 24 23  2  0
M  END
$$$$
