PQL.pdb
     RDKit          3D

 25 25  0  0  1  0  0  0  0  0999 V2000
   29.3838  -20.7988  -15.6054 N   0  0  0  0  0  0  0  0  0  0  0  0
   29.6583  -21.1018  -17.0027 C   0  0  0  0  0  0  0  0  0  0  0  0
   28.2424  -21.1160  -17.5729 C   0  0  0  0  0  0  0  0  0  0  0  0
   27.6908  -19.8244  -16.9575 C   0  0  0  0  0  0  0  0  0  0  0  0
   28.5370  -19.6304  -15.7115 C   0  0  1  0  0  0  0  0  0  0  0  0
   27.6908  -19.4393  -14.5143 C   0  0  0  0  0  0  0  0  0  0  0  0
   28.0114  -18.5433  -13.7043 O   0  0  0  0  0  0  0  0  0  0  0  0
   21.3918  -21.5931  -13.9704 N   0  0  0  0  0  0  0  0  0  0  0  0
   21.8318  -20.3061  -13.5781 C   0  0  0  0  0  0  0  0  0  0  0  0
   21.0793  -19.3188  -13.8900 O   0  0  0  0  0  0  0  0  0  0  0  0
   23.0781  -20.0424  -12.8404 C   0  0  0  0  0  0  0  0  0  0  0  0
   24.2736  -20.1577  -13.6760 C   0  0  0  0  0  0  0  0  0  0  0  0
   25.6195  -19.9764  -13.1376 C   0  0  2  0  0  0  0  0  0  0  0  0
   26.5488  -20.2260  -14.2617 N   0  0  0  0  0  0  0  0  0  0  0  0
   26.0975  -20.6655  -11.9724 C   0  0  0  0  0  0  0  0  0  0  0  0
   27.2362  -21.1875  -11.8224 O   0  0  0  0  0  0  0  0  0  0  0  0
   27.7299  -18.7563   -7.3360 C   0  0  0  0  0  0  0  0  0  0  0  0
   27.3422  -20.1839   -7.7548 C   0  0  2  0  0  0  0  0  0  0  0  0
   28.5858  -21.0432   -7.7002 C   0  0  0  0  0  0  0  0  0  0  0  0
   26.7933  -20.0573   -9.1501 C   0  0  0  0  0  0  0  0  0  0  0  0
   25.7636  -21.1031   -9.5039 C   0  0  2  0  0  0  0  0  0  0  0  0
   25.2420  -20.8033  -10.8419 N   0  0  0  0  0  0  0  0  0  0  0  0
   24.6441  -21.1999   -8.5725 C   0  0  0  0  0  0  0  0  0  0  0  0
   23.5603  -20.6240   -8.8275 O   0  0  0  0  0  0  0  0  0  0  0  0
   24.7404  -21.9197   -7.3974 O   0  0  0  0  0  0  0  0  0  0  0  0
  2  1  1  0
  3  2  1  0
  4  5  1  0
  4  3  1  0
  5  6  1  1
  5  1  1  0
  6  7  2  0
  9  8  1  0
  9 11  1  0
 10  9  2  0
 12 11  1  0
 13 12  1  6
 14 13  1  0
 14  6  1  0
 15 16  2  0
 15 13  1  0
 18 17  1  6
 18 19  1  0
 18 20  1  0
 21 20  1  1
 21 22  1  0
 21 23  1  0
 22 15  1  0
 23 25  1  0
 24 23  2  0
M  END
$$$$
