RWS.pdb
     RDKit          3D

 32 33  0  0  1  0  0  0  0  0999 V2000
   31.4445  -25.5428  -15.5934 N   0  0  0  0  0  0  0  0  0  0  0  0
   31.8755  -24.6745  -16.6507 C   0  0  0  0  0  0  0  0  0  0  0  0
   32.4912  -25.2665  -17.6314 N   0  0  0  0  0  0  0  0  0  0  0  0
   31.6513  -23.2768  -16.6366 N   0  0  0  0  0  0  0  0  0  0  0  0
   30.4321  -22.7498  -16.0956 C   0  0  0  0  0  0  0  0  0  0  0  0
   29.1945  -23.3220  -16.7878 C   0  0  0  0  0  0  0  0  0  0  0  0
   28.1283  -23.4511  -15.7508 C   0  0  0  0  0  0  0  0  0  0  0  0
   27.3160  -22.2006  -15.5704 C   0  0  2  0  0  0  0  0  0  0  0  0
   28.1445  -21.0314  -15.6005 N   0  0  0  0  0  0  0  0  0  0  0  0
   26.4395  -22.2527  -14.3765 C   0  0  0  0  0  0  0  0  0  0  0  0
   25.8496  -23.3228  -14.0853 O   0  0  0  0  0  0  0  0  0  0  0  0
   32.9701  -24.6712  -18.3303 N   0  0  0  0  0  0  0  0  0  0  0  0
   26.3035  -21.0704  -13.6021 C   0  0  1  0  0  0  0  0  0  0  0  0
   25.4155  -20.9989  -12.4898 C   0  0  0  0  0  0  0  0  0  0  0  0
   25.8944  -20.0972  -11.3854 C   0  0  0  0  0  0  0  0  0  0  0  0
   27.0841  -20.6307  -10.6756 C   0  0  0  0  0  0  0  0  0  0  0  0
   28.1412  -21.3415  -11.2346 N   0  0  0  0  0  0  0  0  0  0  0  0
   28.9770  -21.6193  -10.2220 C   0  0  0  0  0  0  0  0  0  0  0  0
   28.5004  -21.1218   -9.0642 C   0  0  0  0  0  0  0  0  0  0  0  0
   28.9687  -21.1331   -7.7585 C   0  0  0  0  0  0  0  0  0  0  0  0
   28.2805  -20.5387   -6.7224 C   0  0  0  0  0  0  0  0  0  0  0  0
   27.0717  -19.9062   -7.0062 C   0  0  0  0  0  0  0  0  0  0  0  0
   26.5829  -19.8793   -8.2910 C   0  0  0  0  0  0  0  0  0  0  0  0
   27.2986  -20.4840   -9.3000 C   0  0  0  0  0  0  0  0  0  0  0  0
   24.0527  -20.5736  -12.8990 O   0  0  0  0  0  0  0  0  0  0  0  0
   23.8369  -19.3884  -13.2562 O   0  0  0  0  0  0  0  0  0  0  0  0
   20.8595  -23.1362  -12.6324 C   0  0  0  0  0  0  0  0  0  0  0  0
   20.8633  -22.2948  -13.7510 C   0  0  1  0  0  0  0  0  0  0  0  0
   21.6185  -21.0314  -13.3316 N   0  0  0  0  0  0  0  0  0  0  0  0
   22.9391  -21.4571  -12.9118 C   0  0  0  0  0  0  0  0  0  0  0  0
   20.9418  -20.3281  -12.2437 O   0  0  0  0  0  0  0  0  0  0  0  0
   21.4772  -20.2425  -11.1149 O   0  0  0  0  0  0  0  0  0  0  0  0
  1  2  1  0
  2  3  2  0
  4  5  1  0
  4  2  1  0
  6  5  1  0
  7  6  1  0
  8  9  1  1
  8  7  1  0
 10  8  1  0
 11 10  2  0
 12 10  1  0
 13 12  1  0
 13 24  1  0
 13 14  1  1
 15 14  1  0
 16 15  2  0
 17 16  1  0
 18 17  1  0
 18 23  2  0
 19 18  1  0
 20 19  2  0
 20 21  1  0
 21 22  2  0
 22 23  1  0
 23 15  1  0
 24 25  2  0
 27 26  1  0
 28 27  1  6
 29 24  1  0
 29 28  1  0
 30 28  1  0
 30 32  1  0
 31 30  2  0
M  END
$$$$
