RWS.pdb
     RDKit          3D

 32 33  0  0  1  0  0  0  0  0999 V2000
   24.9838  -18.7421  -14.6336 N   0  0  0  0  0  0  0  0  0  0  0  0
   25.5434  -19.2939  -15.8336 C   0  0  0  0  0  0  0  0  0  0  0  0
   24.9020  -18.9980  -16.9256 N   0  0  0  0  0  0  0  0  0  0  0  0
   26.7066  -20.1008  -15.8385 N   0  0  0  0  0  0  0  0  0  0  0  0
   27.2992  -20.5153  -14.6000 C   0  0  0  0  0  0  0  0  0  0  0  0
   28.5759  -19.7376  -14.2782 C   0  0  0  0  0  0  0  0  0  0  0  0
   28.5643  -19.4564  -12.8121 C   0  0  0  0  0  0  0  0  0  0  0  0
   28.9940  -20.6276  -11.9758 C   0  0  2  0  0  0  0  0  0  0  0  0
   29.8352  -21.5189  -12.7190 N   0  0  0  0  0  0  0  0  0  0  0  0
   27.8545  -21.3196  -11.3284 C   0  0  0  0  0  0  0  0  0  0  0  0
   27.6847  -22.5495  -11.5199 O   0  0  0  0  0  0  0  0  0  0  0  0
   25.2636  -19.3816  -17.8168 N   0  0  0  0  0  0  0  0  0  0  0  0
   26.9908  -20.5482  -10.5068 C   0  0  2  0  0  0  0  0  0  0  0  0
   25.7202  -21.0368  -10.0855 C   0  0  0  0  0  0  0  0  0  0  0  0
   25.4632  -20.8743   -8.6126 C   0  0  0  0  0  0  0  0  0  0  0  0
   26.4687  -20.0140   -7.9396 C   0  0  0  0  0  0  0  0  0  0  0  0
   26.8475  -18.7272   -8.3080 N   0  0  0  0  0  0  0  0  0  0  0  0
   27.7804  -18.3477   -7.4210 C   0  0  0  0  0  0  0  0  0  0  0  0
   28.0040  -19.3252   -6.5211 C   0  0  0  0  0  0  0  0  0  0  0  0
   28.8480  -19.4365   -5.4259 C   0  0  0  0  0  0  0  0  0  0  0  0
   28.8938  -20.5692   -4.6415 C   0  0  0  0  0  0  0  0  0  0  0  0
   28.0587  -21.6358   -4.9679 C   0  0  0  0  0  0  0  0  0  0  0  0
   27.2117  -21.5539   -6.0479 C   0  0  0  0  0  0  0  0  0  0  0  0
   27.1939  -20.4060   -6.8082 C   0  0  0  0  0  0  0  0  0  0  0  0
   24.6085  -20.4025  -10.8389 O   0  0  0  0  0  0  0  0  0  0  0  0
   24.8347  -19.4438  -11.6191 O   0  0  0  0  0  0  0  0  0  0  0  0
   22.5583  -22.2118  -13.1021 C   0  0  0  0  0  0  0  0  0  0  0  0
   22.6941  -20.8197  -13.0503 C   0  0  1  0  0  0  0  0  0  0  0  0
   22.2300  -20.3976  -11.6543 N   0  0  0  0  0  0  0  0  0  0  0  0
   23.2571  -20.8295  -10.7270 C   0  0  0  0  0  0  0  0  0  0  0  0
   20.9441  -20.9972  -11.3033 O   0  0  0  0  0  0  0  0  0  0  0  0
   20.8721  -21.8538  -10.3927 O   0  0  0  0  0  0  0  0  0  0  0  0
  1  2  1  0
  2  3  2  0
  4  5  1  0
  4  2  1  0
  6  5  1  0
  7  6  1  0
  8  9  1  6
  8  7  1  0
 10  8  1  0
 11 10  2  0
 12 10  1  0
 13 12  1  0
 13 24  1  0
 13 14  1  6
 15 14  1  0
 16 15  2  0
 17 16  1  0
 18 17  1  0
 18 23  2  0
 19 18  1  0
 20 19  2  0
 20 21  1  0
 21 22  2  0
 22 23  1  0
 23 15  1  0
 24 25  2  0
 27 26  1  0
 28 27  1  6
 29 24  1  0
 29 28  1  0
 30 28  1  0
 30 32  1  0
 31 30  2  0
M  END
$$$$
