RWS.pdb
     RDKit          3D

 32 33  0  0  1  0  0  0  0  0999 V2000
   20.3472  -24.9308  -14.8648 N   0  0  0  0  0  0  0  0  0  0  0  0
   18.9921  -24.4873  -14.7079 C   0  0  0  0  0  0  0  0  0  0  0  0
   18.0881  -25.3253  -15.1223 N   0  0  0  0  0  0  0  0  0  0  0  0
   18.6546  -23.2332  -14.1445 N   0  0  0  0  0  0  0  0  0  0  0  0
   19.6884  -22.3291  -13.7312 C   0  0  0  0  0  0  0  0  0  0  0  0
   19.8875  -21.1822  -14.7227 C   0  0  0  0  0  0  0  0  0  0  0  0
   21.3589  -20.9941  -14.8913 C   0  0  0  0  0  0  0  0  0  0  0  0
   22.1173  -21.0250  -13.5953 C   0  0  2  0  0  0  0  0  0  0  0  0
   21.2466  -20.8171  -12.4760 N   0  0  0  0  0  0  0  0  0  0  0  0
   23.2851  -20.1123  -13.5916 C   0  0  0  0  0  0  0  0  0  0  0  0
   23.1492  -18.9315  -13.1853 O   0  0  0  0  0  0  0  0  0  0  0  0
   17.0970  -25.0293  -15.0738 N   0  0  0  0  0  0  0  0  0  0  0  0
   24.5263  -20.6224  -14.0557 C   0  0  1  0  0  0  0  0  0  0  0  0
   25.7118  -19.8317  -14.0521 C   0  0  0  0  0  0  0  0  0  0  0  0
   26.8847  -20.4959  -13.3849 C   0  0  0  0  0  0  0  0  0  0  0  0
   26.5296  -21.1425  -12.0966 C   0  0  0  0  0  0  0  0  0  0  0  0
   26.1999  -22.4789  -11.8956 N   0  0  0  0  0  0  0  0  0  0  0  0
   25.9515  -22.6055  -10.5828 C   0  0  0  0  0  0  0  0  0  0  0  0
   26.1077  -21.4237   -9.9549 C   0  0  0  0  0  0  0  0  0  0  0  0
   25.9749  -21.0225   -8.6337 C   0  0  0  0  0  0  0  0  0  0  0  0
   26.1954  -19.7225   -8.2315 C   0  0  0  0  0  0  0  0  0  0  0  0
   26.5647  -18.7845   -9.1935 C   0  0  0  0  0  0  0  0  0  0  0  0
   26.7040  -19.1534  -10.5106 C   0  0  0  0  0  0  0  0  0  0  0  0
   26.4752  -20.4615  -10.8746 C   0  0  0  0  0  0  0  0  0  0  0  0
   26.1078  -19.4260  -15.4249 O   0  0  0  0  0  0  0  0  0  0  0  0
   25.9654  -20.2198  -16.3885 O   0  0  0  0  0  0  0  0  0  0  0  0
   28.1572  -16.0393  -15.9634 C   0  0  0  0  0  0  0  0  0  0  0  0
   27.2863  -16.2536  -17.0380 C   0  0  1  0  0  0  0  0  0  0  0  0
   27.0161  -17.7596  -17.0741 N   0  0  0  0  0  0  0  0  0  0  0  0
   26.6568  -18.1495  -15.7249 C   0  0  0  0  0  0  0  0  0  0  0  0
   28.1849  -18.5120  -17.5260 O   0  0  0  0  0  0  0  0  0  0  0  0
   28.5746  -18.4244  -18.7128 O   0  0  0  0  0  0  0  0  0  0  0  0
  1  2  1  0
  2  3  2  0
  4  5  1  0
  4  2  1  0
  6  5  1  0
  7  6  1  0
  8  9  1  1
  8  7  1  0
 10  8  1  0
 11 10  2  0
 12 10  1  0
 13 12  1  0
 13 24  1  0
 13 14  1  1
 15 14  1  0
 16 15  2  0
 17 16  1  0
 18 17  1  0
 18 23  2  0
 19 18  1  0
 20 19  2  0
 20 21  1  0
 21 22  2  0
 22 23  1  0
 23 15  1  0
 24 25  2  0
 27 26  1  0
 28 27  1  6
 29 24  1  0
 29 28  1  0
 30 28  1  0
 30 32  1  0
 31 30  2  0
M  END
$$$$
