RWS.pdb
     RDKit          3D

 32 33  0  0  1  0  0  0  0  0999 V2000
   27.9258  -24.6453  -16.8899 N   0  0  0  0  0  0  0  0  0  0  0  0
   27.5651  -23.3312  -17.3377 C   0  0  0  0  0  0  0  0  0  0  0  0
   26.5119  -23.2798  -18.0989 N   0  0  0  0  0  0  0  0  0  0  0  0
   28.2947  -22.1712  -16.9822 N   0  0  0  0  0  0  0  0  0  0  0  0
   29.3589  -22.2567  -16.0246 C   0  0  0  0  0  0  0  0  0  0  0  0
   29.1426  -21.3254  -14.8313 C   0  0  0  0  0  0  0  0  0  0  0  0
   28.2384  -22.0327  -13.8769 C   0  0  0  0  0  0  0  0  0  0  0  0
   27.0439  -21.2178  -13.4705 C   0  0  2  0  0  0  0  0  0  0  0  0
   27.3205  -19.8135  -13.5444 N   0  0  0  0  0  0  0  0  0  0  0  0
   26.4905  -21.6258  -12.1575 C   0  0  0  0  0  0  0  0  0  0  0  0
   26.2562  -22.8391  -11.9321 O   0  0  0  0  0  0  0  0  0  0  0  0
   26.1742  -22.3463  -18.3933 N   0  0  0  0  0  0  0  0  0  0  0  0
   26.2459  -20.6093  -11.1968 C   0  0  1  0  0  0  0  0  0  0  0  0
   25.5395  -20.8730   -9.9875 C   0  0  0  0  0  0  0  0  0  0  0  0
   25.9513  -19.9949   -8.8379 C   0  0  0  0  0  0  0  0  0  0  0  0
   27.3379  -20.2561   -8.3761 C   0  0  0  0  0  0  0  0  0  0  0  0
   28.3620  -20.8537   -9.1036 N   0  0  0  0  0  0  0  0  0  0  0  0
   29.4267  -20.8845   -8.2874 C   0  0  0  0  0  0  0  0  0  0  0  0
   29.1238  -20.3399   -7.0928 C   0  0  0  0  0  0  0  0  0  0  0  0
   29.8499  -20.1328   -5.9291 C   0  0  0  0  0  0  0  0  0  0  0  0
   29.3009  -19.5393   -4.8125 C   0  0  0  0  0  0  0  0  0  0  0  0
   27.9680  -19.1362   -4.8636 C   0  0  0  0  0  0  0  0  0  0  0  0
   27.2239  -19.3287   -6.0036 C   0  0  0  0  0  0  0  0  0  0  0  0
   27.8068  -19.9251   -7.0993 C   0  0  0  0  0  0  0  0  0  0  0  0
   24.0700  -20.7628  -10.1724 O   0  0  0  0  0  0  0  0  0  0  0  0
   23.5934  -19.9611  -11.0145 O   0  0  0  0  0  0  0  0  0  0  0  0
   21.5104  -22.2138   -7.4487 C   0  0  0  0  0  0  0  0  0  0  0  0
   21.0588  -22.4970   -8.7429 C   0  0  1  0  0  0  0  0  0  0  0  0
   21.7087  -21.4569   -9.6584 N   0  0  0  0  0  0  0  0  0  0  0  0
   23.1377  -21.5366   -9.4287 C   0  0  0  0  0  0  0  0  0  0  0  0
   21.2239  -20.1066   -9.3791 O   0  0  0  0  0  0  0  0  0  0  0  0
   21.9877  -19.2504   -8.8776 O   0  0  0  0  0  0  0  0  0  0  0  0
  1  2  1  0
  2  3  2  0
  4  5  1  0
  4  2  1  0
  6  5  1  0
  7  6  1  0
  8  9  1  1
  8  7  1  0
 10  8  1  0
 11 10  2  0
 12 10  1  0
 13 12  1  0
 13 24  1  0
 13 14  1  1
 15 14  1  0
 16 15  2  0
 17 16  1  0
 18 17  1  0
 18 23  2  0
 19 18  1  0
 20 19  2  0
 20 21  1  0
 21 22  2  0
 22 23  1  0
 23 15  1  0
 24 25  2  0
 27 26  1  0
 28 27  1  6
 29 24  1  0
 29 28  1  0
 30 28  1  0
 30 32  1  0
 31 30  2  0
M  END
$$$$
