RWS.pdb
     RDKit          3D

 32 33  0  0  1  0  0  0  0  0999 V2000
   18.7559  -24.6470   -8.3295 N   0  0  0  0  0  0  0  0  0  0  0  0
   18.7819  -24.7670   -9.7586 C   0  0  0  0  0  0  0  0  0  0  0  0
   17.8781  -25.5560  -10.2604 N   0  0  0  0  0  0  0  0  0  0  0  0
   19.7174  -24.0811  -10.5702 N   0  0  0  0  0  0  0  0  0  0  0  0
   19.4680  -22.7254  -10.9659 C   0  0  0  0  0  0  0  0  0  0  0  0
   19.1886  -22.5997  -12.4640 C   0  0  0  0  0  0  0  0  0  0  0  0
   20.5027  -22.6841  -13.1672 C   0  0  0  0  0  0  0  0  0  0  0  0
   21.3515  -21.4568  -12.9963 C   0  0  2  0  0  0  0  0  0  0  0  0
   20.5921  -20.2619  -13.2194 N   0  0  0  0  0  0  0  0  0  0  0  0
   22.5968  -21.5038  -13.7985 C   0  0  0  0  0  0  0  0  0  0  0  0
   22.6369  -20.9340  -14.9172 O   0  0  0  0  0  0  0  0  0  0  0  0
   17.9536  -25.7999  -11.2640 N   0  0  0  0  0  0  0  0  0  0  0  0
   23.7078  -22.2030  -13.2572 C   0  0  2  0  0  0  0  0  0  0  0  0
   24.9280  -22.3482  -13.9788 C   0  0  0  0  0  0  0  0  0  0  0  0
   26.1587  -22.1059  -13.1488 C   0  0  0  0  0  0  0  0  0  0  0  0
   26.3176  -20.6853  -12.7479 C   0  0  0  0  0  0  0  0  0  0  0  0
   25.9968  -20.1241  -11.5161 N   0  0  0  0  0  0  0  0  0  0  0  0
   26.3034  -18.8211  -11.6119 C   0  0  0  0  0  0  0  0  0  0  0  0
   26.7969  -18.5390  -12.8335 C   0  0  0  0  0  0  0  0  0  0  0  0
   27.2532  -17.3728  -13.4301 C   0  0  0  0  0  0  0  0  0  0  0  0
   27.7211  -17.3413  -14.7264 C   0  0  0  0  0  0  0  0  0  0  0  0
   27.7326  -18.5283  -15.4561 C   0  0  0  0  0  0  0  0  0  0  0  0
   27.2864  -19.6995  -14.8907 C   0  0  0  0  0  0  0  0  0  0  0  0
   26.8261  -19.6918  -13.5930 C   0  0  0  0  0  0  0  0  0  0  0  0
   25.0354  -23.6852  -14.6164 O   0  0  0  0  0  0  0  0  0  0  0  0
   24.0837  -24.5024  -14.5443 O   0  0  0  0  0  0  0  0  0  0  0  0
   25.0282  -25.5821  -18.3944 C   0  0  0  0  0  0  0  0  0  0  0  0
   25.1595  -24.5706  -17.4359 C   0  0  2  0  0  0  0  0  0  0  0  0
   26.1271  -25.1079  -16.3789 N   0  0  0  0  0  0  0  0  0  0  0  0
   26.1899  -24.1109  -15.3284 C   0  0  0  0  0  0  0  0  0  0  0  0
   27.4588  -25.3482  -16.9313 O   0  0  0  0  0  0  0  0  0  0  0  0
   28.3707  -24.5041  -16.7762 O   0  0  0  0  0  0  0  0  0  0  0  0
  1  2  1  0
  2  3  2  0
  4  5  1  0
  4  2  1  0
  6  5  1  0
  7  6  1  0
  8  9  1  6
  8  7  1  0
 10  8  1  0
 11 10  2  0
 12 10  1  0
 13 12  1  0
 13 24  1  0
 13 14  1  6
 15 14  1  0
 16 15  2  0
 17 16  1  0
 18 17  1  0
 18 23  2  0
 19 18  1  0
 20 19  2  0
 20 21  1  0
 21 22  2  0
 22 23  1  0
 23 15  1  0
 24 25  2  0
 27 26  1  0
 28 27  1  1
 29 24  1  0
 29 28  1  0
 30 28  1  0
 30 32  1  0
 31 30  2  0
M  END
$$$$
