RWS.pdb
     RDKit          3D

 32 33  0  0  1  0  0  0  0  0999 V2000
   21.0473  -20.0862  -16.9257 N   0  0  0  0  0  0  0  0  0  0  0  0
   22.3578  -19.6916  -17.3550 C   0  0  0  0  0  0  0  0  0  0  0  0
   22.4265  -19.2515  -18.5769 N   0  0  0  0  0  0  0  0  0  0  0  0
   23.4968  -19.7713  -16.5181 N   0  0  0  0  0  0  0  0  0  0  0  0
   23.3593  -20.1968  -15.1555 C   0  0  0  0  0  0  0  0  0  0  0  0
   24.7031  -20.2605  -14.4286 C   0  0  0  0  0  0  0  0  0  0  0  0
   24.4388  -20.7862  -13.0565 C   0  0  0  0  0  0  0  0  0  0  0  0
   25.6579  -20.8057  -12.1793 C   0  0  2  0  0  0  0  0  0  0  0  0
   26.7417  -21.5021  -12.8076 N   0  0  0  0  0  0  0  0  0  0  0  0
   25.3732  -21.3008  -10.8117 C   0  0  0  0  0  0  0  0  0  0  0  0
   25.5694  -22.5105  -10.5357 O   0  0  0  0  0  0  0  0  0  0  0  0
   23.3535  -18.9580  -18.9329 N   0  0  0  0  0  0  0  0  0  0  0  0
   24.8828  -20.3697   -9.8586 C   0  0  2  0  0  0  0  0  0  0  0  0
   24.6325  -20.7410   -8.5057 C   0  0  0  0  0  0  0  0  0  0  0  0
   25.1274  -19.7400   -7.4981 C   0  0  0  0  0  0  0  0  0  0  0  0
   26.6083  -19.6958   -7.4033 C   0  0  0  0  0  0  0  0  0  0  0  0
   27.5136  -19.7084   -8.4594 N   0  0  0  0  0  0  0  0  0  0  0  0
   28.7334  -19.6595   -7.9019 C   0  0  0  0  0  0  0  0  0  0  0  0
   28.6390  -19.6171   -6.5586 C   0  0  0  0  0  0  0  0  0  0  0  0
   29.5782  -19.5596   -5.5394 C   0  0  0  0  0  0  0  0  0  0  0  0
   29.2215  -19.5239   -4.2082 C   0  0  0  0  0  0  0  0  0  0  0  0
   27.8664  -19.5468   -3.8842 C   0  0  0  0  0  0  0  0  0  0  0  0
   26.9132  -19.6036   -4.8734 C   0  0  0  0  0  0  0  0  0  0  0  0
   27.3079  -19.6380   -6.1921 C   0  0  0  0  0  0  0  0  0  0  0  0
   23.1895  -20.9936   -8.2615 O   0  0  0  0  0  0  0  0  0  0  0  0
   22.3194  -20.2226   -8.7383 O   0  0  0  0  0  0  0  0  0  0  0  0
   22.0395  -23.6504   -5.5054 C   0  0  0  0  0  0  0  0  0  0  0  0
   21.2012  -23.7241   -6.6239 C   0  0  1  0  0  0  0  0  0  0  0  0
   21.3036  -22.3668   -7.3236 N   0  0  0  0  0  0  0  0  0  0  0  0
   22.7169  -22.0934   -7.4947 C   0  0  0  0  0  0  0  0  0  0  0  0
   20.6711  -21.3035   -6.5454 O   0  0  0  0  0  0  0  0  0  0  0  0
   21.3584  -20.3686   -6.0746 O   0  0  0  0  0  0  0  0  0  0  0  0
  1  2  1  0
  2  3  2  0
  4  5  1  0
  4  2  1  0
  6  5  1  0
  7  6  1  0
  8  9  1  6
  8  7  1  0
 10  8  1  0
 11 10  2  0
 12 10  1  0
 13 12  1  0
 13 24  1  0
 13 14  1  6
 15 14  1  0
 16 15  2  0
 17 16  1  0
 18 17  1  0
 18 23  2  0
 19 18  1  0
 20 19  2  0
 20 21  1  0
 21 22  2  0
 22 23  1  0
 23 15  1  0
 24 25  2  0
 27 26  1  0
 28 27  1  6
 29 24  1  0
 29 28  1  0
 30 28  1  0
 30 32  1  0
 31 30  2  0
M  END
$$$$
