RWS.pdb
     RDKit          3D

 32 33  0  0  1  0  0  0  0  0999 V2000
   23.3761  -19.0050  -18.2878 N   0  0  0  0  0  0  0  0  0  0  0  0
   22.1261  -19.4672  -17.7574 C   0  0  0  0  0  0  0  0  0  0  0  0
   21.2052  -19.7012  -18.6454 N   0  0  0  0  0  0  0  0  0  0  0  0
   21.9026  -19.6577  -16.3725 N   0  0  0  0  0  0  0  0  0  0  0  0
   22.7798  -19.0525  -15.4128 C   0  0  0  0  0  0  0  0  0  0  0  0
   24.1603  -19.7099  -15.3922 C   0  0  0  0  0  0  0  0  0  0  0  0
   24.2391  -20.5333  -14.1494 C   0  0  0  0  0  0  0  0  0  0  0  0
   24.0508  -19.7351  -12.8911 C   0  0  2  0  0  0  0  0  0  0  0  0
   24.5260  -18.3922  -13.0490 N   0  0  0  0  0  0  0  0  0  0  0  0
   24.6136  -20.4065  -11.6957 C   0  0  0  0  0  0  0  0  0  0  0  0
   24.5034  -21.6518  -11.5732 O   0  0  0  0  0  0  0  0  0  0  0  0
   20.2627  -19.9632  -18.3059 N   0  0  0  0  0  0  0  0  0  0  0  0
   25.2632  -19.5982  -10.7259 C   0  0  1  0  0  0  0  0  0  0  0  0
   25.8108  -20.1510   -9.5320 C   0  0  0  0  0  0  0  0  0  0  0  0
   26.9547  -19.3578   -8.9626 C   0  0  0  0  0  0  0  0  0  0  0  0
   27.7181  -20.1010   -7.9287 C   0  0  0  0  0  0  0  0  0  0  0  0
   28.1640  -21.4166   -8.0041 N   0  0  0  0  0  0  0  0  0  0  0  0
   28.7978  -21.6595   -6.8465 C   0  0  0  0  0  0  0  0  0  0  0  0
   28.7721  -20.5699   -6.0544 C   0  0  0  0  0  0  0  0  0  0  0  0
   29.2702  -20.3013   -4.7879 C   0  0  0  0  0  0  0  0  0  0  0  0
   29.1101  -19.0761   -4.1765 C   0  0  0  0  0  0  0  0  0  0  0  0
   28.4218  -18.0776   -4.8627 C   0  0  0  0  0  0  0  0  0  0  0  0
   27.9170  -18.3153   -6.1194 C   0  0  0  0  0  0  0  0  0  0  0  0
   28.0967  -19.5518   -6.6979 C   0  0  0  0  0  0  0  0  0  0  0  0
   24.7768  -20.3240   -8.4801 O   0  0  0  0  0  0  0  0  0  0  0  0
   24.0221  -19.3693   -8.1671 O   0  0  0  0  0  0  0  0  0  0  0  0
   24.5402  -23.8277   -6.5392 C   0  0  0  0  0  0  0  0  0  0  0  0
   23.3029  -23.1750   -6.5871 C   0  0  1  0  0  0  0  0  0  0  0  0
   23.6132  -21.6815   -6.7123 N   0  0  0  0  0  0  0  0  0  0  0  0
   24.5823  -21.5470   -7.7819 C   0  0  0  0  0  0  0  0  0  0  0  0
   24.1491  -21.1304   -5.4691 O   0  0  0  0  0  0  0  0  0  0  0  0
   25.3449  -20.7652   -5.4018 O   0  0  0  0  0  0  0  0  0  0  0  0
  1  2  1  0
  2  3  2  0
  4  5  1  0
  4  2  1  0
  6  5  1  0
  7  6  1  0
  8  9  1  6
  8  7  1  0
 10  8  1  0
 11 10  2  0
 12 10  1  0
 13 12  1  0
 13 24  1  0
 13 14  1  1
 15 14  1  0
 16 15  2  0
 17 16  1  0
 18 17  1  0
 18 23  2  0
 19 18  1  0
 20 19  2  0
 20 21  1  0
 21 22  2  0
 22 23  1  0
 23 15  1  0
 24 25  2  0
 27 26  1  0
 28 27  1  6
 29 24  1  0
 29 28  1  0
 30 28  1  0
 30 32  1  0
 31 30  2  0
M  END
$$$$
