RWS.pdb
     RDKit          3D

 32 33  0  0  1  0  0  0  0  0999 V2000
   30.0993  -18.7185  -17.7442 N   0  0  0  0  0  0  0  0  0  0  0  0
   29.1413  -17.6986  -18.0600 C   0  0  0  0  0  0  0  0  0  0  0  0
   28.8996  -17.5456  -19.3286 N   0  0  0  0  0  0  0  0  0  0  0  0
   28.5013  -16.9131  -17.0713 N   0  0  0  0  0  0  0  0  0  0  0  0
   27.9455  -17.5372  -15.9058 C   0  0  0  0  0  0  0  0  0  0  0  0
   26.7198  -18.3910  -16.2330 C   0  0  0  0  0  0  0  0  0  0  0  0
   26.2130  -18.9487  -14.9443 C   0  0  0  0  0  0  0  0  0  0  0  0
   27.0953  -20.0193  -14.3688 C   0  0  2  0  0  0  0  0  0  0  0  0
   27.4241  -21.0090  -15.3520 N   0  0  0  0  0  0  0  0  0  0  0  0
   26.5472  -20.6070  -13.1235 C   0  0  0  0  0  0  0  0  0  0  0  0
   25.6484  -21.4818  -13.1927 O   0  0  0  0  0  0  0  0  0  0  0  0
   28.3103  -16.7435  -19.6144 N   0  0  0  0  0  0  0  0  0  0  0  0
   27.0716  -20.1468  -11.8868 C   0  0  2  0  0  0  0  0  0  0  0  0
   26.4926  -20.5209  -10.6396 C   0  0  0  0  0  0  0  0  0  0  0  0
   27.1932  -19.9372   -9.4435 C   0  0  0  0  0  0  0  0  0  0  0  0
   26.6306  -20.4100   -8.1536 C   0  0  0  0  0  0  0  0  0  0  0  0
   25.5259  -21.2369   -7.9772 N   0  0  0  0  0  0  0  0  0  0  0  0
   25.3871  -21.3914   -6.6514 C   0  0  0  0  0  0  0  0  0  0  0  0
   26.3427  -20.7076   -5.9921 C   0  0  0  0  0  0  0  0  0  0  0  0
   26.6380  -20.5408   -4.6470 C   0  0  0  0  0  0  0  0  0  0  0  0
   27.6970  -19.7719   -4.2138 C   0  0  0  0  0  0  0  0  0  0  0  0
   28.4940  -19.1432   -5.1684 C   0  0  0  0  0  0  0  0  0  0  0  0
   28.2252  -19.2906   -6.5087 C   0  0  0  0  0  0  0  0  0  0  0  0
   27.1585  -20.0667   -6.9034 C   0  0  0  0  0  0  0  0  0  0  0  0
   25.0521  -20.1654  -10.5721 O   0  0  0  0  0  0  0  0  0  0  0  0
   24.6921  -18.9619  -10.6014 O   0  0  0  0  0  0  0  0  0  0  0  0
   22.1962  -21.3785  -12.8808 C   0  0  0  0  0  0  0  0  0  0  0  0
   22.0288  -21.8639  -11.5786 C   0  0  2  0  0  0  0  0  0  0  0  0
   22.6211  -20.8026  -10.6485 N   0  0  0  0  0  0  0  0  0  0  0  0
   24.0203  -21.1383  -10.4731 C   0  0  0  0  0  0  0  0  0  0  0  0
   21.9405  -20.7705   -9.3554 O   0  0  0  0  0  0  0  0  0  0  0  0
   22.4722  -21.2880   -8.3467 O   0  0  0  0  0  0  0  0  0  0  0  0
  1  2  1  0
  2  3  2  0
  4  5  1  0
  4  2  1  0
  6  5  1  0
  7  6  1  0
  8  9  1  6
  8  7  1  0
 10  8  1  0
 11 10  2  0
 12 10  1  0
 13 12  1  0
 13 24  1  0
 13 14  1  6
 15 14  1  0
 16 15  2  0
 17 16  1  0
 18 17  1  0
 18 23  2  0
 19 18  1  0
 20 19  2  0
 20 21  1  0
 21 22  2  0
 22 23  1  0
 23 15  1  0
 24 25  2  0
 27 26  1  0
 28 27  1  6
 29 24  1  0
 29 28  1  0
 30 28  1  0
 30 32  1  0
 31 30  2  0
M  END
$$$$
