RWS.pdb
     RDKit          3D

 32 33  0  0  1  0  0  0  0  0999 V2000
   27.7364  -26.0152  -15.9873 N   0  0  0  0  0  0  0  0  0  0  0  0
   26.5776  -25.7197  -16.7794 C   0  0  0  0  0  0  0  0  0  0  0  0
   25.7323  -26.7001  -16.9035 N   0  0  0  0  0  0  0  0  0  0  0  0
   26.3617  -24.4580  -17.3841 N   0  0  0  0  0  0  0  0  0  0  0  0
   27.3290  -23.4108  -17.2275 C   0  0  0  0  0  0  0  0  0  0  0  0
   27.3441  -22.8416  -15.8083 C   0  0  0  0  0  0  0  0  0  0  0  0
   27.3880  -21.3543  -15.9292 C   0  0  0  0  0  0  0  0  0  0  0  0
   26.3282  -20.7972  -16.8361 C   0  0  2  0  0  0  0  0  0  0  0  0
   26.8955  -20.2845  -18.0483 N   0  0  0  0  0  0  0  0  0  0  0  0
   25.4468  -19.8190  -16.1558 C   0  0  0  0  0  0  0  0  0  0  0  0
   25.9548  -18.8594  -15.5242 O   0  0  0  0  0  0  0  0  0  0  0  0
   24.8543  -26.5179  -17.4215 N   0  0  0  0  0  0  0  0  0  0  0  0
   24.0435  -20.0138  -16.2501 C   0  0  2  0  0  0  0  0  0  0  0  0
   23.1208  -19.1782  -15.5565 C   0  0  0  0  0  0  0  0  0  0  0  0
   22.5579  -18.0644  -16.3961 C   0  0  0  0  0  0  0  0  0  0  0  0
   23.6066  -17.1875  -16.9750 C   0  0  0  0  0  0  0  0  0  0  0  0
   24.2572  -17.3556  -18.1931 N   0  0  0  0  0  0  0  0  0  0  0  0
   25.1199  -16.3328  -18.2961 C   0  0  0  0  0  0  0  0  0  0  0  0
   25.0435  -15.5373  -17.2114 C   0  0  0  0  0  0  0  0  0  0  0  0
   25.7035  -14.3775  -16.8327 C   0  0  0  0  0  0  0  0  0  0  0  0
   25.4405  -13.7339  -15.6423 C   0  0  0  0  0  0  0  0  0  0  0  0
   24.4755  -14.2750  -14.7952 C   0  0  0  0  0  0  0  0  0  0  0  0
   23.8052  -15.4235  -15.1445 C   0  0  0  0  0  0  0  0  0  0  0  0
   24.0951  -16.0385  -16.3419 C   0  0  0  0  0  0  0  0  0  0  0  0
   21.9967  -19.9586  -14.9794 O   0  0  0  0  0  0  0  0  0  0  0  0
   21.4414  -20.8646  -15.6499 O   0  0  0  0  0  0  0  0  0  0  0  0
   20.6040  -19.0359  -11.3021 C   0  0  0  0  0  0  0  0  0  0  0  0
   20.4837  -20.3970  -11.6056 C   0  0  1  0  0  0  0  0  0  0  0  0
   20.3773  -20.4862  -13.1297 N   0  0  0  0  0  0  0  0  0  0  0  0
   21.4938  -19.7350  -13.6686 C   0  0  0  0  0  0  0  0  0  0  0  0
   19.1135  -19.9400  -13.6205 O   0  0  0  0  0  0  0  0  0  0  0  0
   18.0252  -20.4581  -13.2811 O   0  0  0  0  0  0  0  0  0  0  0  0
  1  2  1  0
  2  3  2  0
  4  5  1  0
  4  2  1  0
  6  5  1  0
  7  6  1  0
  8  9  1  6
  8  7  1  0
 10  8  1  0
 11 10  2  0
 12 10  1  0
 13 12  1  0
 13 24  1  0
 13 14  1  1
 15 14  1  0
 16 15  2  0
 17 16  1  0
 18 17  1  0
 18 23  2  0
 19 18  1  0
 20 19  2  0
 20 21  1  0
 21 22  2  0
 22 23  1  0
 23 15  1  0
 24 25  2  0
 27 26  1  0
 28 27  1  1
 29 24  1  0
 29 28  1  0
 30 28  1  0
 30 32  1  0
 31 30  2  0
M  END
$$$$
