RWS.pdb
     RDKit          3D

 32 33  0  0  1  0  0  0  0  0999 V2000
   27.5939  -18.9173  -16.4242 N   0  0  0  0  0  0  0  0  0  0  0  0
   26.2926  -18.3622  -16.6605 C   0  0  0  0  0  0  0  0  0  0  0  0
   26.1048  -17.8925  -17.8586 N   0  0  0  0  0  0  0  0  0  0  0  0
   25.2820  -18.3247  -15.6699 N   0  0  0  0  0  0  0  0  0  0  0  0
   25.3040  -19.2619  -14.5845 C   0  0  0  0  0  0  0  0  0  0  0  0
   24.9067  -20.6710  -15.0258 C   0  0  0  0  0  0  0  0  0  0  0  0
   24.8171  -21.5108  -13.7948 C   0  0  0  0  0  0  0  0  0  0  0  0
   25.8286  -21.1442  -12.7468 C   0  0  2  0  0  0  0  0  0  0  0  0
   27.1405  -21.5951  -13.1072 N   0  0  0  0  0  0  0  0  0  0  0  0
   25.4272  -21.5741  -11.3864 C   0  0  0  0  0  0  0  0  0  0  0  0
   25.4594  -22.7932  -11.0855 O   0  0  0  0  0  0  0  0  0  0  0  0
   26.9138  -17.8806  -18.5047 N   0  0  0  0  0  0  0  0  0  0  0  0
   25.0173  -20.5714  -10.4685 C   0  0  2  0  0  0  0  0  0  0  0  0
   24.5476  -20.8951   -9.1625 C   0  0  0  0  0  0  0  0  0  0  0  0
   24.8258  -19.8329   -8.1347 C   0  0  0  0  0  0  0  0  0  0  0  0
   26.2701  -19.6933   -7.8210 C   0  0  0  0  0  0  0  0  0  0  0  0
   27.2902  -19.3681   -8.7092 N   0  0  0  0  0  0  0  0  0  0  0  0
   28.4214  -19.3606   -7.9871 C   0  0  0  0  0  0  0  0  0  0  0  0
   28.1636  -19.6627   -6.6996 C   0  0  0  0  0  0  0  0  0  0  0  0
   28.9621  -19.7851   -5.5719 C   0  0  0  0  0  0  0  0  0  0  0  0
   28.4478  -20.1120   -4.3354 C   0  0  0  0  0  0  0  0  0  0  0  0
   27.0753  -20.3254   -4.2236 C   0  0  0  0  0  0  0  0  0  0  0  0
   26.2593  -20.2110   -5.3242 C   0  0  0  0  0  0  0  0  0  0  0  0
   26.8094  -19.8828   -6.5431 C   0  0  0  0  0  0  0  0  0  0  0  0
   23.0934  -21.1966   -9.1589 O   0  0  0  0  0  0  0  0  0  0  0  0
   22.3383  -20.6971  -10.0302 O   0  0  0  0  0  0  0  0  0  0  0  0
   21.3983  -22.8215   -5.9493 C   0  0  0  0  0  0  0  0  0  0  0  0
   20.8159  -23.3635   -7.1009 C   0  0  1  0  0  0  0  0  0  0  0  0
   21.0664  -22.3520   -8.2219 N   0  0  0  0  0  0  0  0  0  0  0  0
   22.4830  -22.0459   -8.1960 C   0  0  0  0  0  0  0  0  0  0  0  0
   20.2800  -21.1332   -8.0416 O   0  0  0  0  0  0  0  0  0  0  0  0
   20.8474  -20.0428   -7.8030 O   0  0  0  0  0  0  0  0  0  0  0  0
  1  2  1  0
  2  3  2  0
  4  5  1  0
  4  2  1  0
  6  5  1  0
  7  6  1  0
  8  9  1  6
  8  7  1  0
 10  8  1  0
 11 10  2  0
 12 10  1  0
 13 12  1  0
 13 24  1  0
 13 14  1  6
 15 14  1  0
 16 15  2  0
 17 16  1  0
 18 17  1  0
 18 23  2  0
 19 18  1  0
 20 19  2  0
 20 21  1  0
 21 22  2  0
 22 23  1  0
 23 15  1  0
 24 25  2  0
 27 26  1  0
 28 27  1  6
 29 24  1  0
 29 28  1  0
 30 28  1  0
 30 32  1  0
 31 30  2  0
M  END
$$$$
