RWS.pdb
     RDKit          3D

 32 33  0  0  1  0  0  0  0  0999 V2000
   30.8807  -23.3739  -14.7798 N   0  0  0  0  0  0  0  0  0  0  0  0
   31.2589  -23.8523  -16.0781 C   0  0  0  0  0  0  0  0  0  0  0  0
   32.0346  -24.8962  -16.0746 N   0  0  0  0  0  0  0  0  0  0  0  0
   30.8248  -23.2408  -17.2787 N   0  0  0  0  0  0  0  0  0  0  0  0
   29.7687  -22.2708  -17.2504 C   0  0  0  0  0  0  0  0  0  0  0  0
   29.6072  -21.6281  -15.8723 C   0  0  0  0  0  0  0  0  0  0  0  0
   28.3351  -22.1477  -15.2888 C   0  0  0  0  0  0  0  0  0  0  0  0
   27.3648  -21.0649  -14.9119 C   0  0  2  0  0  0  0  0  0  0  0  0
   28.0465  -19.8666  -14.5200 N   0  0  0  0  0  0  0  0  0  0  0  0
   26.3668  -21.5112  -13.9113 C   0  0  0  0  0  0  0  0  0  0  0  0
   25.7755  -22.6080  -14.0703 O   0  0  0  0  0  0  0  0  0  0  0  0
   32.3741  -25.2484  -16.9872 N   0  0  0  0  0  0  0  0  0  0  0  0
   26.1194  -20.6644  -12.7987 C   0  0  1  0  0  0  0  0  0  0  0  0
   25.1421  -20.9858  -11.8127 C   0  0  0  0  0  0  0  0  0  0  0  0
   25.4541  -20.4412  -10.4459 C   0  0  0  0  0  0  0  0  0  0  0  0
   26.8008  -20.8326   -9.9589 C   0  0  0  0  0  0  0  0  0  0  0  0
   27.7016  -21.6853  -10.5888 N   0  0  0  0  0  0  0  0  0  0  0  0
   28.7756  -21.7473   -9.7865 C   0  0  0  0  0  0  0  0  0  0  0  0
   28.5948  -20.9816   -8.6928 C   0  0  0  0  0  0  0  0  0  0  0  0
   29.3802  -20.7055   -7.5833 C   0  0  0  0  0  0  0  0  0  0  0  0
   28.9610  -19.8672   -6.5724 C   0  0  0  0  0  0  0  0  0  0  0  0
   27.7014  -19.2805   -6.6773 C   0  0  0  0  0  0  0  0  0  0  0  0
   26.9010  -19.5359   -7.7656 C   0  0  0  0  0  0  0  0  0  0  0  0
   27.3540  -20.3789   -8.7556 C   0  0  0  0  0  0  0  0  0  0  0  0
   23.7860  -20.5307  -12.2120 O   0  0  0  0  0  0  0  0  0  0  0  0
   23.6007  -19.3511  -12.6033 O   0  0  0  0  0  0  0  0  0  0  0  0
   20.7120  -23.1913  -12.8392 C   0  0  0  0  0  0  0  0  0  0  0  0
   20.8342  -22.0220  -13.5988 C   0  0  1  0  0  0  0  0  0  0  0  0
   21.3429  -20.9424  -12.6407 N   0  0  0  0  0  0  0  0  0  0  0  0
   22.6453  -21.3785  -12.1774 C   0  0  0  0  0  0  0  0  0  0  0  0
   20.4393  -20.7494  -11.5082 O   0  0  0  0  0  0  0  0  0  0  0  0
   20.8035  -21.0513  -10.3487 O   0  0  0  0  0  0  0  0  0  0  0  0
  1  2  1  0
  2  3  2  0
  4  5  1  0
  4  2  1  0
  6  5  1  0
  7  6  1  0
  8  9  1  1
  8  7  1  0
 10  8  1  0
 11 10  2  0
 12 10  1  0
 13 12  1  0
 13 24  1  0
 13 14  1  1
 15 14  1  0
 16 15  2  0
 17 16  1  0
 18 17  1  0
 18 23  2  0
 19 18  1  0
 20 19  2  0
 20 21  1  0
 21 22  2  0
 22 23  1  0
 23 15  1  0
 24 25  2  0
 27 26  1  0
 28 27  1  6
 29 24  1  0
 29 28  1  0
 30 28  1  0
 30 32  1  0
 31 30  2  0
M  END
$$$$
