ICY.pdb
     RDKit          3D

 27 27  0  0  1  0  0  0  0  0999 V2000
    5.2222  -13.1331   26.4081 C   0  0  0  0  0  0  0  0  0  0  0  0
    6.0332  -13.2048   25.1625 C   0  0  0  0  0  0  0  0  0  0  0  0
    7.5381  -13.2163   25.4447 C   0  0  2  0  0  0  0  0  0  0  0  0
    7.9110  -11.9466   26.1480 C   0  0  0  0  0  0  0  0  0  0  0  0
    8.1944  -13.3882   24.0911 C   0  0  2  0  0  0  0  0  0  0  0  0
    7.4359  -12.4902   23.1993 N   0  0  0  0  0  0  0  0  0  0  0  0
    8.0574  -14.7514   23.5320 C   0  0  0  0  0  0  0  0  0  0  0  0
    7.0663  -15.4558   23.8637 O   0  0  0  0  0  0  0  0  0  0  0  0
    8.9701  -15.3550   22.6270 N   0  0  0  0  0  0  0  0  0  0  0  0
    8.8090  -16.7065   22.1286 C   0  0  1  0  0  0  0  0  0  0  0  0
    8.8811  -16.6510   20.6058 C   0  0  0  0  0  0  0  0  0  0  0  0
    7.4358  -15.7696   19.9432 S   0  0  0  0  0  0  0  0  0  0  0  0
    9.9133  -17.5901   22.5791 C   0  0  0  0  0  0  0  0  0  0  0  0
   10.7507  -17.9625   21.7208 O   0  0  0  0  0  0  0  0  0  0  0  0
   10.5079  -14.8259   30.5945 O   0  0  0  0  0  0  0  0  0  0  0  0
   10.5682  -15.0953   29.2335 C   0  0  0  0  0  0  0  0  0  0  0  0
   10.7583  -14.0832   28.3035 C   0  0  0  0  0  0  0  0  0  0  0  0
   10.8218  -14.3220   26.9515 C   0  0  0  0  0  0  0  0  0  0  0  0
   10.6953  -15.5977   26.4848 C   0  0  0  0  0  0  0  0  0  0  0  0
   10.7484  -15.9682   25.0463 C   0  0  0  0  0  0  0  0  0  0  0  0
   10.9660  -17.4579   24.8662 C   0  0  2  0  0  0  0  0  0  0  0  0
   10.0631  -18.0241   23.9063 N   0  0  0  0  0  0  0  0  0  0  0  0
   10.7869  -18.1709   26.1565 C   0  0  0  0  0  0  0  0  0  0  0  0
   11.8775  -18.5347   26.9327 O   0  0  0  0  0  0  0  0  0  0  0  0
   10.5037  -16.6401   27.3813 C   0  0  0  0  0  0  0  0  0  0  0  0
   10.4430  -16.3781   28.7344 C   0  0  0  0  0  0  0  0  0  0  0  0
    9.6365  -18.4769   26.6038 O   0  0  0  0  0  0  0  0  0  0  0  0
  2  1  1  0
  3  2  1  0
  3  4  1  6
  5  3  1  0
  5  6  1  6
  7  5  1  0
  8  7  2  0
  9  7  1  0
 10  9  1  0
 10 11  1  6
 12 11  1  0
 13 10  1  0
 13 22  1  0
 14 13  2  0
 16 15  1  0
 17 16  2  0
 18 17  1  0
 19 25  1  0
 19 18  2  0
 20 19  1  0
 21 20  1  1
 21 22  1  0
 23 21  1  0
 24 23  1  0
 25 26  2  0
 26 16  1  0
 27 23  2  0
M  END
$$$$
