ICY.pdb
     RDKit          3D

 27 27  0  0  1  0  0  0  0  0999 V2000
   15.8408  -13.1289   17.9351 C   0  0  0  0  0  0  0  0  0  0  0  0
   15.0987  -14.4179   17.8911 C   0  0  0  0  0  0  0  0  0  0  0  0
   14.1727  -14.6007   19.0967 C   0  0  2  0  0  0  0  0  0  0  0  0
   14.8950  -15.3837   20.1508 C   0  0  0  0  0  0  0  0  0  0  0  0
   12.9409  -15.2910   18.5501 C   0  0  2  0  0  0  0  0  0  0  0  0
   12.3108  -14.2808   17.6786 N   0  0  0  0  0  0  0  0  0  0  0  0
   11.9423  -15.6351   19.5865 C   0  0  0  0  0  0  0  0  0  0  0  0
   11.2390  -14.7193   20.0915 O   0  0  0  0  0  0  0  0  0  0  0  0
   11.6975  -16.9450   20.0772 N   0  0  0  0  0  0  0  0  0  0  0  0
   10.8526  -17.2123   21.2241 C   0  0  1  0  0  0  0  0  0  0  0  0
   10.2359  -18.5947   21.0339 C   0  0  0  0  0  0  0  0  0  0  0  0
    9.4371  -18.7039   19.4045 S   0  0  0  0  0  0  0  0  0  0  0  0
   11.6388  -17.2621   22.4821 C   0  0  0  0  0  0  0  0  0  0  0  0
   12.7310  -16.6433   22.5133 O   0  0  0  0  0  0  0  0  0  0  0  0
   10.5406  -13.8633   30.2699 O   0  0  0  0  0  0  0  0  0  0  0  0
   10.5044  -14.4466   29.0101 C   0  0  0  0  0  0  0  0  0  0  0  0
   11.4936  -15.3249   28.5911 C   0  0  0  0  0  0  0  0  0  0  0  0
   11.4821  -15.9159   27.3502 C   0  0  0  0  0  0  0  0  0  0  0  0
   10.4668  -15.6414   26.4814 C   0  0  0  0  0  0  0  0  0  0  0  0
   10.3559  -16.2236   25.1182 C   0  0  0  0  0  0  0  0  0  0  0  0
   11.2400  -17.4459   24.9647 C   0  0  2  0  0  0  0  0  0  0  0  0
   11.2222  -17.9615   23.6264 N   0  0  0  0  0  0  0  0  0  0  0  0
   10.8045  -18.5238   25.8888 C   0  0  0  0  0  0  0  0  0  0  0  0
   11.5880  -18.9028   26.9690 O   0  0  0  0  0  0  0  0  0  0  0  0
    9.4568  -14.7680   26.8607 C   0  0  0  0  0  0  0  0  0  0  0  0
    9.4877  -14.1857   28.1110 C   0  0  0  0  0  0  0  0  0  0  0  0
    9.7042  -19.1420   25.7329 O   0  0  0  0  0  0  0  0  0  0  0  0
  2  1  1  0
  3  2  1  0
  3  4  1  1
  5  3  1  0
  5  6  1  6
  7  5  1  0
  8  7  2  0
  9  7  1  0
 10  9  1  0
 10 11  1  6
 12 11  1  0
 13 10  1  0
 13 22  1  0
 14 13  2  0
 16 15  1  0
 17 16  2  0
 18 17  1  0
 19 25  1  0
 19 18  2  0
 20 19  1  0
 21 20  1  6
 21 22  1  0
 23 21  1  0
 24 23  1  0
 25 26  2  0
 26 16  1  0
 27 23  2  0
M  END
$$$$
