ICY.pdb
     RDKit          3D

 27 27  0  0  1  0  0  0  0  0999 V2000
    7.0351  -11.9410   19.0059 C   0  0  0  0  0  0  0  0  0  0  0  0
    6.9661  -13.4141   19.2047 C   0  0  0  0  0  0  0  0  0  0  0  0
    7.2929  -13.8258   20.6428 C   0  0  2  0  0  0  0  0  0  0  0  0
    8.6970  -13.4094   20.9608 C   0  0  0  0  0  0  0  0  0  0  0  0
    7.0674  -15.3224   20.6882 C   0  0  2  0  0  0  0  0  0  0  0  0
    5.6178  -15.4816   20.4635 N   0  0  0  0  0  0  0  0  0  0  0  0
    7.3584  -15.9283   22.0065 C   0  0  0  0  0  0  0  0  0  0  0  0
    6.5072  -15.8294   22.9307 O   0  0  0  0  0  0  0  0  0  0  0  0
    8.5469  -16.6335   22.3331 N   0  0  0  0  0  0  0  0  0  0  0  0
    8.8844  -17.0255   23.6871 C   0  0  1  0  0  0  0  0  0  0  0  0
    8.5355  -18.5024   23.8432 C   0  0  0  0  0  0  0  0  0  0  0  0
    9.0386  -19.0931   25.4871 S   0  0  0  0  0  0  0  0  0  0  0  0
   10.3405  -16.8984   23.9456 C   0  0  0  0  0  0  0  0  0  0  0  0
   11.1290  -17.3859   23.0987 O   0  0  0  0  0  0  0  0  0  0  0  0
    9.5573  -15.8210   31.0599 O   0  0  0  0  0  0  0  0  0  0  0  0
   10.2647  -15.5740   29.8907 C   0  0  0  0  0  0  0  0  0  0  0  0
   11.4726  -16.2049   29.6292 C   0  0  0  0  0  0  0  0  0  0  0  0
   12.1928  -15.9787   28.4806 C   0  0  0  0  0  0  0  0  0  0  0  0
   11.7187  -15.1030   27.5482 C   0  0  0  0  0  0  0  0  0  0  0  0
   12.4145  -14.7846   26.2738 C   0  0  0  0  0  0  0  0  0  0  0  0
   12.2464  -15.8980   25.2583 C   0  0  2  0  0  0  0  0  0  0  0  0
   10.8712  -16.2651   25.0812 N   0  0  0  0  0  0  0  0  0  0  0  0
   13.0042  -17.1045   25.6771 C   0  0  0  0  0  0  0  0  0  0  0  0
   12.3569  -18.3032   25.9390 O   0  0  0  0  0  0  0  0  0  0  0  0
   10.5140  -14.4503   27.7703 C   0  0  0  0  0  0  0  0  0  0  0  0
    9.8071  -14.6919   28.9301 C   0  0  0  0  0  0  0  0  0  0  0  0
   14.2685  -17.0933   25.8131 O   0  0  0  0  0  0  0  0  0  0  0  0
  2  1  1  0
  3  2  1  0
  3  4  1  6
  5  3  1  0
  5  6  1  1
  7  5  1  0
  8  7  2  0
  9  7  1  0
 10  9  1  0
 10 11  1  6
 12 11  1  0
 13 10  1  0
 13 22  1  0
 14 13  2  0
 16 15  1  0
 17 16  2  0
 18 17  1  0
 19 25  1  0
 19 18  2  0
 20 19  1  0
 21 20  1  1
 21 22  1  0
 23 21  1  0
 24 23  1  0
 25 26  2  0
 26 16  1  0
 27 23  2  0
M  END
$$$$
