ICY.pdb
     RDKit          3D

 27 27  0  0  1  0  0  0  0  0999 V2000
    7.2155  -11.6903   18.6250 C   0  0  0  0  0  0  0  0  0  0  0  0
    7.9928  -12.8642   18.1431 C   0  0  0  0  0  0  0  0  0  0  0  0
    8.0803  -13.9773   19.1908 C   0  0  2  0  0  0  0  0  0  0  0  0
    8.6828  -13.4192   20.4444 C   0  0  0  0  0  0  0  0  0  0  0  0
    8.9050  -15.0690   18.5422 C   0  0  2  0  0  0  0  0  0  0  0  0
    8.0672  -15.5468   17.4255 N   0  0  0  0  0  0  0  0  0  0  0  0
    9.1427  -16.2363   19.4200 C   0  0  0  0  0  0  0  0  0  0  0  0
    8.7111  -17.3675   19.0701 O   0  0  0  0  0  0  0  0  0  0  0  0
    9.8355  -16.1948   20.6589 N   0  0  0  0  0  0  0  0  0  0  0  0
   10.1710  -17.3849   21.4151 C   0  0  1  0  0  0  0  0  0  0  0  0
   11.0742  -18.2503   20.5418 C   0  0  0  0  0  0  0  0  0  0  0  0
   11.6312  -19.7095   21.4719 S   0  0  0  0  0  0  0  0  0  0  0  0
   10.9443  -17.0549   22.6383 C   0  0  0  0  0  0  0  0  0  0  0  0
   11.9401  -16.3002   22.5141 O   0  0  0  0  0  0  0  0  0  0  0  0
   10.6677  -14.2588   30.9695 O   0  0  0  0  0  0  0  0  0  0  0  0
   10.3999  -14.8149   29.7254 C   0  0  0  0  0  0  0  0  0  0  0  0
   10.1098  -14.0206   28.6253 C   0  0  0  0  0  0  0  0  0  0  0  0
    9.8412  -14.5448   27.3835 C   0  0  0  0  0  0  0  0  0  0  0  0
    9.8554  -15.8971   27.2043 C   0  0  0  0  0  0  0  0  0  0  0  0
    9.5801  -16.5692   25.9074 C   0  0  0  0  0  0  0  0  0  0  0  0
   10.8618  -16.8576   25.1504 C   0  0  2  0  0  0  0  0  0  0  0  0
   10.6173  -17.5424   23.9141 N   0  0  0  0  0  0  0  0  0  0  0  0
   11.7780  -17.6875   25.9734 C   0  0  0  0  0  0  0  0  0  0  0  0
   12.8235  -17.1143   26.6825 O   0  0  0  0  0  0  0  0  0  0  0  0
   10.1410  -16.7283   28.2788 C   0  0  0  0  0  0  0  0  0  0  0  0
   10.4077  -16.1812   29.5168 C   0  0  0  0  0  0  0  0  0  0  0  0
   11.6466  -18.9491   26.0643 O   0  0  0  0  0  0  0  0  0  0  0  0
  2  1  1  0
  3  2  1  0
  3  4  1  1
  5  3  1  0
  5  6  1  6
  7  5  1  0
  8  7  2  0
  9  7  1  0
 10  9  1  0
 10 11  1  6
 12 11  1  0
 13 10  1  0
 13 22  1  0
 14 13  2  0
 16 15  1  0
 17 16  2  0
 18 17  1  0
 19 25  1  0
 19 18  2  0
 20 19  1  0
 21 20  1  1
 21 22  1  0
 23 21  1  0
 24 23  1  0
 25 26  2  0
 26 16  1  0
 27 23  2  0
M  END
$$$$
