ICY.pdb
     RDKit          3D

 27 27  0  0  1  0  0  0  0  0999 V2000
    7.2910  -12.1376   18.8119 C   0  0  0  0  0  0  0  0  0  0  0  0
    7.6744  -13.5644   18.6342 C   0  0  0  0  0  0  0  0  0  0  0  0
    8.1107  -14.2203   19.9472 C   0  0  2  0  0  0  0  0  0  0  0  0
    9.2697  -13.4558   20.5113 C   0  0  0  0  0  0  0  0  0  0  0  0
    8.4342  -15.6547   19.5860 C   0  0  2  0  0  0  0  0  0  0  0  0
    7.1468  -16.2191   19.1376 N   0  0  0  0  0  0  0  0  0  0  0  0
    8.8750  -16.4733   20.7372 C   0  0  0  0  0  0  0  0  0  0  0  0
    8.0381  -16.7868   21.6258 O   0  0  0  0  0  0  0  0  0  0  0  0
   10.1968  -16.9526   20.9359 N   0  0  0  0  0  0  0  0  0  0  0  0
   10.6303  -17.5834   22.1667 C   0  0  1  0  0  0  0  0  0  0  0  0
   11.9818  -18.2393   21.9010 C   0  0  0  0  0  0  0  0  0  0  0  0
   11.7544  -19.7851   20.9716 S   0  0  0  0  0  0  0  0  0  0  0  0
   10.8413  -16.5869   23.2463 C   0  0  0  0  0  0  0  0  0  0  0  0
   11.4143  -15.5111   22.9446 O   0  0  0  0  0  0  0  0  0  0  0  0
    6.0122  -11.4095   27.9818 O   0  0  0  0  0  0  0  0  0  0  0  0
    6.6161  -12.3594   27.1683 C   0  0  0  0  0  0  0  0  0  0  0  0
    5.8704  -13.3259   26.5087 C   0  0  0  0  0  0  0  0  0  0  0  0
    6.4424  -14.2771   25.6980 C   0  0  0  0  0  0  0  0  0  0  0  0
    7.7951  -14.2887   25.5218 C   0  0  0  0  0  0  0  0  0  0  0  0
    8.5164  -15.2698   24.6693 C   0  0  0  0  0  0  0  0  0  0  0  0
    9.7308  -15.8337   25.3808 C   0  0  2  0  0  0  0  0  0  0  0  0
   10.4343  -16.7893   24.5751 N   0  0  0  0  0  0  0  0  0  0  0  0
    9.3320  -16.4931   26.6502 C   0  0  0  0  0  0  0  0  0  0  0  0
    8.6210  -17.6843   26.6474 O   0  0  0  0  0  0  0  0  0  0  0  0
    8.5785  -13.3392   26.1635 C   0  0  0  0  0  0  0  0  0  0  0  0
    7.9839  -12.3933   26.9728 C   0  0  0  0  0  0  0  0  0  0  0  0
    9.6216  -16.0002   27.7862 O   0  0  0  0  0  0  0  0  0  0  0  0
  2  1  1  0
  3  2  1  0
  3  4  1  6
  5  3  1  0
  5  6  1  1
  7  5  1  0
  8  7  2  0
  9  7  1  0
 10  9  1  0
 10 11  1  6
 12 11  1  0
 13 10  1  0
 13 22  1  0
 14 13  2  0
 16 15  1  0
 17 16  2  0
 18 17  1  0
 19 25  1  0
 19 18  2  0
 20 19  1  0
 21 20  1  6
 21 22  1  0
 23 21  1  0
 24 23  1  0
 25 26  2  0
 26 16  1  0
 27 23  2  0
M  END
$$$$
