ICY.pdb
     RDKit          3D

 27 27  0  0  1  0  0  0  0  0999 V2000
    6.8719  -11.8751   20.0795 C   0  0  0  0  0  0  0  0  0  0  0  0
    7.4013  -13.2593   19.9457 C   0  0  0  0  0  0  0  0  0  0  0  0
    7.4949  -13.9820   21.2923 C   0  0  2  0  0  0  0  0  0  0  0  0
    8.4210  -13.2193   22.1904 C   0  0  0  0  0  0  0  0  0  0  0  0
    7.9700  -15.3808   20.9599 C   0  0  2  0  0  0  0  0  0  0  0  0
    6.8672  -15.9651   20.1728 N   0  0  0  0  0  0  0  0  0  0  0  0
    8.1458  -16.2472   22.1465 C   0  0  0  0  0  0  0  0  0  0  0  0
    7.1312  -16.7629   22.6878 O   0  0  0  0  0  0  0  0  0  0  0  0
    9.3937  -16.5598   22.7477 N   0  0  0  0  0  0  0  0  0  0  0  0
    9.5112  -17.3603   23.9503 C   0  0  1  0  0  0  0  0  0  0  0  0
   10.4687  -18.5096   23.6509 C   0  0  0  0  0  0  0  0  0  0  0  0
    9.6815  -19.7025   22.5274 S   0  0  0  0  0  0  0  0  0  0  0  0
   10.1068  -16.5847   25.0668 C   0  0  0  0  0  0  0  0  0  0  0  0
   11.0928  -15.8514   24.8081 O   0  0  0  0  0  0  0  0  0  0  0  0
    6.5219  -11.3981   24.8802 O   0  0  0  0  0  0  0  0  0  0  0  0
    7.1528  -12.3200   25.7052 C   0  0  0  0  0  0  0  0  0  0  0  0
    6.6210  -13.5841   25.9167 C   0  0  0  0  0  0  0  0  0  0  0  0
    7.2245  -14.5152   26.7278 C   0  0  0  0  0  0  0  0  0  0  0  0
    8.3932  -14.2041   27.3590 C   0  0  0  0  0  0  0  0  0  0  0  0
    9.1290  -15.1331   28.2563 C   0  0  0  0  0  0  0  0  0  0  0  0
   10.1807  -15.9186   27.4974 C   0  0  2  0  0  0  0  0  0  0  0  0
    9.6241  -16.6325   26.3847 N   0  0  0  0  0  0  0  0  0  0  0  0
   10.8502  -16.8950   28.3939 C   0  0  0  0  0  0  0  0  0  0  0  0
   10.8154  -18.2557   28.1266 O   0  0  0  0  0  0  0  0  0  0  0  0
    8.9594  -12.9502   27.1748 C   0  0  0  0  0  0  0  0  0  0  0  0
    8.3370  -12.0305   26.3563 C   0  0  0  0  0  0  0  0  0  0  0  0
   11.4797  -16.5309   29.4372 O   0  0  0  0  0  0  0  0  0  0  0  0
  2  1  1  0
  3  2  1  0
  3  4  1  1
  5  3  1  0
  5  6  1  6
  7  5  1  0
  8  7  2  0
  9  7  1  0
 10  9  1  0
 10 11  1  6
 12 11  1  0
 13 10  1  0
 13 22  1  0
 14 13  2  0
 16 15  1  0
 17 16  2  0
 18 17  1  0
 19 25  1  0
 19 18  2  0
 20 19  1  0
 21 20  1  1
 21 22  1  0
 23 21  1  0
 24 23  1  0
 25 26  2  0
 26 16  1  0
 27 23  2  0
M  END
$$$$
