ICY.pdb
     RDKit          3D

 27 27  0  0  1  0  0  0  0  0999 V2000
    5.7214  -11.6166   26.4405 C   0  0  0  0  0  0  0  0  0  0  0  0
    5.5248  -12.9741   25.8637 C   0  0  0  0  0  0  0  0  0  0  0  0
    6.8288  -13.5803   25.3380 C   0  0  2  0  0  0  0  0  0  0  0  0
    7.4796  -12.6023   24.4075 C   0  0  0  0  0  0  0  0  0  0  0  0
    6.4243  -14.8829   24.6804 C   0  0  2  0  0  0  0  0  0  0  0  0
    6.0258  -15.7524   25.8040 N   0  0  0  0  0  0  0  0  0  0  0  0
    7.5370  -15.5712   23.9892 C   0  0  0  0  0  0  0  0  0  0  0  0
    8.2541  -16.3826   24.6341 O   0  0  0  0  0  0  0  0  0  0  0  0
    7.8790  -15.3946   22.6224 N   0  0  0  0  0  0  0  0  0  0  0  0
    8.9771  -16.0956   21.9872 C   0  0  1  0  0  0  0  0  0  0  0  0
    9.0024  -15.6844   20.5183 C   0  0  0  0  0  0  0  0  0  0  0  0
    7.4387  -16.1443   19.7134 S   0  0  0  0  0  0  0  0  0  0  0  0
   10.2854  -15.7006   22.5665 C   0  0  0  0  0  0  0  0  0  0  0  0
   10.7008  -14.5388   22.3332 O   0  0  0  0  0  0  0  0  0  0  0  0
   11.5033  -15.2642   31.0267 O   0  0  0  0  0  0  0  0  0  0  0  0
   11.1758  -15.5200   29.7016 C   0  0  0  0  0  0  0  0  0  0  0  0
   11.1221  -16.8153   29.2070 C   0  0  0  0  0  0  0  0  0  0  0  0
   10.8009  -17.0964   27.9005 C   0  0  0  0  0  0  0  0  0  0  0  0
   10.5205  -16.0758   27.0398 C   0  0  0  0  0  0  0  0  0  0  0  0
   10.1622  -16.2659   25.6097 C   0  0  0  0  0  0  0  0  0  0  0  0
   11.3983  -16.3445   24.7352 C   0  0  2  0  0  0  0  0  0  0  0  0
   11.0714  -16.5567   23.3548 N   0  0  0  0  0  0  0  0  0  0  0  0
   12.2844  -17.4490   25.1828 C   0  0  0  0  0  0  0  0  0  0  0  0
   13.3891  -17.2025   25.9849 O   0  0  0  0  0  0  0  0  0  0  0  0
   10.5629  -14.7647   27.4937 C   0  0  0  0  0  0  0  0  0  0  0  0
   10.8876  -14.5048   28.8091 C   0  0  0  0  0  0  0  0  0  0  0  0
   12.0724  -18.6590   24.8540 O   0  0  0  0  0  0  0  0  0  0  0  0
  2  1  1  0
  3  2  1  0
  3  4  1  6
  5  3  1  0
  5  6  1  1
  7  5  1  0
  8  7  2  0
  9  7  1  0
 10  9  1  0
 10 11  1  6
 12 11  1  0
 13 10  1  0
 13 22  1  0
 14 13  2  0
 16 15  1  0
 17 16  2  0
 18 17  1  0
 19 25  1  0
 19 18  2  0
 20 19  1  0
 21 20  1  1
 21 22  1  0
 23 21  1  0
 24 23  1  0
 25 26  2  0
 26 16  1  0
 27 23  2  0
M  END
$$$$
