ICY.pdb
     RDKit          3D

 27 27  0  0  1  0  0  0  0  0999 V2000
    7.6593  -12.1029   19.0406 C   0  0  0  0  0  0  0  0  0  0  0  0
    7.9581  -13.5593   18.9791 C   0  0  0  0  0  0  0  0  0  0  0  0
    7.9546  -14.2156   20.3625 C   0  0  2  0  0  0  0  0  0  0  0  0
    8.9968  -13.5583   21.2155 C   0  0  0  0  0  0  0  0  0  0  0  0
    8.2054  -15.6865   20.1046 C   0  0  2  0  0  0  0  0  0  0  0  0
    7.0138  -16.1365   19.3600 N   0  0  0  0  0  0  0  0  0  0  0  0
    8.2665  -16.5046   21.3362 C   0  0  0  0  0  0  0  0  0  0  0  0
    7.2201  -16.6668   22.0197 O   0  0  0  0  0  0  0  0  0  0  0  0
    9.4340  -17.1433   21.8314 N   0  0  0  0  0  0  0  0  0  0  0  0
    9.5310  -17.6771   23.1754 C   0  0  1  0  0  0  0  0  0  0  0  0
   10.3447  -18.9657   23.1053 C   0  0  0  0  0  0  0  0  0  0  0  0
   10.6477  -19.6056   24.7796 S   0  0  0  0  0  0  0  0  0  0  0  0
   10.2643  -16.7547   24.0780 C   0  0  0  0  0  0  0  0  0  0  0  0
   11.1515  -16.0245   23.5717 O   0  0  0  0  0  0  0  0  0  0  0  0
    5.2302  -12.6991   27.3449 O   0  0  0  0  0  0  0  0  0  0  0  0
    6.5246  -13.0957   27.0355 C   0  0  0  0  0  0  0  0  0  0  0  0
    7.5831  -12.8460   27.8973 C   0  0  0  0  0  0  0  0  0  0  0  0
    8.8732  -13.2275   27.6158 C   0  0  0  0  0  0  0  0  0  0  0  0
    9.1449  -13.8784   26.4481 C   0  0  0  0  0  0  0  0  0  0  0  0
   10.5006  -14.3350   26.0441 C   0  0  0  0  0  0  0  0  0  0  0  0
   10.7105  -15.8011   26.3688 C   0  0  2  0  0  0  0  0  0  0  0  0
   10.0144  -16.6619   25.4568 N   0  0  0  0  0  0  0  0  0  0  0  0
   10.2446  -16.1020   27.7465 C   0  0  0  0  0  0  0  0  0  0  0  0
    9.2874  -17.0777   27.9832 O   0  0  0  0  0  0  0  0  0  0  0  0
    8.1149  -14.1481   25.5575 C   0  0  0  0  0  0  0  0  0  0  0  0
    6.8271  -13.7564   25.8598 C   0  0  0  0  0  0  0  0  0  0  0  0
   10.6980  -15.4845   28.7615 O   0  0  0  0  0  0  0  0  0  0  0  0
  2  1  1  0
  3  2  1  0
  3  4  1  1
  5  3  1  0
  5  6  1  6
  7  5  1  0
  8  7  2  0
  9  7  1  0
 10  9  1  0
 10 11  1  6
 12 11  1  0
 13 10  1  0
 13 22  1  0
 14 13  2  0
 16 15  1  0
 17 16  2  0
 18 17  1  0
 19 25  1  0
 19 18  2  0
 20 19  1  0
 21 20  1  6
 21 22  1  0
 23 21  1  0
 24 23  1  0
 25 26  2  0
 26 16  1  0
 27 23  2  0
M  END
$$$$
