ICY.pdb
     RDKit          3D

 27 27  0  0  1  0  0  0  0  0999 V2000
    7.1003  -11.9841   19.8831 C   0  0  0  0  0  0  0  0  0  0  0  0
    7.5312  -13.4064   19.8078 C   0  0  0  0  0  0  0  0  0  0  0  0
    7.7092  -14.0372   21.1916 C   0  0  2  0  0  0  0  0  0  0  0  0
    8.6340  -13.1802   22.0016 C   0  0  0  0  0  0  0  0  0  0  0  0
    8.2336  -15.4329   20.9271 C   0  0  2  0  0  0  0  0  0  0  0  0
    7.1388  -16.1043   20.2007 N   0  0  0  0  0  0  0  0  0  0  0  0
    8.4702  -16.2225   22.1560 C   0  0  0  0  0  0  0  0  0  0  0  0
    7.4887  -16.7410   22.7528 O   0  0  0  0  0  0  0  0  0  0  0  0
    9.7431  -16.4560   22.7404 N   0  0  0  0  0  0  0  0  0  0  0  0
    9.9230  -17.2169   23.9609 C   0  0  1  0  0  0  0  0  0  0  0  0
   11.0682  -18.1983   23.7313 C   0  0  0  0  0  0  0  0  0  0  0  0
   10.4648  -19.6670   22.8460 S   0  0  0  0  0  0  0  0  0  0  0  0
   10.3243  -16.3457   25.0936 C   0  0  0  0  0  0  0  0  0  0  0  0
   11.1959  -15.4685   24.8756 O   0  0  0  0  0  0  0  0  0  0  0  0
    6.0971  -11.5456   25.0511 O   0  0  0  0  0  0  0  0  0  0  0  0
    6.8341  -12.4099   25.8501 C   0  0  0  0  0  0  0  0  0  0  0  0
    7.9519  -11.9742   26.5474 C   0  0  0  0  0  0  0  0  0  0  0  0
    8.6988  -12.8081   27.3448 C   0  0  0  0  0  0  0  0  0  0  0  0
    8.3440  -14.1194   27.4690 C   0  0  0  0  0  0  0  0  0  0  0  0
    9.0790  -15.1066   28.3027 C   0  0  0  0  0  0  0  0  0  0  0  0
   10.2291  -15.7306   27.5368 C   0  0  2  0  0  0  0  0  0  0  0  0
    9.7804  -16.4560   26.3836 N   0  0  0  0  0  0  0  0  0  0  0  0
   10.9927  -16.6598   28.4080 C   0  0  0  0  0  0  0  0  0  0  0  0
   11.1483  -17.9960   28.0695 O   0  0  0  0  0  0  0  0  0  0  0  0
    7.2323  -14.5966   26.7884 C   0  0  0  0  0  0  0  0  0  0  0  0
    6.4966  -13.7424   25.9933 C   0  0  0  0  0  0  0  0  0  0  0  0
   11.5331  -16.2759   29.4932 O   0  0  0  0  0  0  0  0  0  0  0  0
  2  1  1  0
  3  2  1  0
  3  4  1  1
  5  3  1  0
  5  6  1  6
  7  5  1  0
  8  7  2  0
  9  7  1  0
 10  9  1  0
 10 11  1  6
 12 11  1  0
 13 10  1  0
 13 22  1  0
 14 13  2  0
 16 15  1  0
 17 16  2  0
 18 17  1  0
 19 25  1  0
 19 18  2  0
 20 19  1  0
 21 20  1  1
 21 22  1  0
 23 21  1  0
 24 23  1  0
 25 26  2  0
 26 16  1  0
 27 23  2  0
M  END
$$$$
