ICY.pdb
     RDKit          3D

 27 27  0  0  1  0  0  0  0  0999 V2000
    7.2735  -12.1632   19.0372 C   0  0  0  0  0  0  0  0  0  0  0  0
    7.1674  -13.6366   19.2166 C   0  0  0  0  0  0  0  0  0  0  0  0
    7.8463  -14.1193   20.5013 C   0  0  2  0  0  0  0  0  0  0  0  0
    9.2822  -13.6905   20.4835 C   0  0  0  0  0  0  0  0  0  0  0  0
    7.6503  -15.6207   20.5139 C   0  0  2  0  0  0  0  0  0  0  0  0
    6.1873  -15.7987   20.5845 N   0  0  0  0  0  0  0  0  0  0  0  0
    8.2137  -16.2844   21.7104 C   0  0  0  0  0  0  0  0  0  0  0  0
    7.6378  -16.1410   22.8222 O   0  0  0  0  0  0  0  0  0  0  0  0
    9.3805  -17.0938   21.7181 N   0  0  0  0  0  0  0  0  0  0  0  0
   10.0246  -17.5373   22.9383 C   0  0  1  0  0  0  0  0  0  0  0  0
   10.5767  -18.9374   22.6891 C   0  0  0  0  0  0  0  0  0  0  0  0
   11.3171  -19.5977   24.2125 S   0  0  0  0  0  0  0  0  0  0  0  0
   11.1811  -16.6758   23.2898 C   0  0  0  0  0  0  0  0  0  0  0  0
   11.9175  -16.2761   22.3546 O   0  0  0  0  0  0  0  0  0  0  0  0
   10.1375  -17.3545   30.5677 O   0  0  0  0  0  0  0  0  0  0  0  0
   10.6040  -16.6359   29.4748 C   0  0  0  0  0  0  0  0  0  0  0  0
   11.9606  -16.4252   29.2734 C   0  0  0  0  0  0  0  0  0  0  0  0
   12.4490  -15.7180   28.2007 C   0  0  0  0  0  0  0  0  0  0  0  0
   11.5824  -15.1944   27.2865 C   0  0  0  0  0  0  0  0  0  0  0  0
   12.0011  -14.4148   26.0922 C   0  0  0  0  0  0  0  0  0  0  0  0
   12.4786  -15.3244   24.9770 C   0  0  2  0  0  0  0  0  0  0  0  0
   11.4864  -16.2912   24.6056 N   0  0  0  0  0  0  0  0  0  0  0  0
   13.7094  -16.0481   25.3854 C   0  0  0  0  0  0  0  0  0  0  0  0
   13.7293  -17.4318   25.4827 O   0  0  0  0  0  0  0  0  0  0  0  0
   10.2168  -15.3819   27.4503 C   0  0  0  0  0  0  0  0  0  0  0  0
    9.7479  -16.0950   28.5342 C   0  0  0  0  0  0  0  0  0  0  0  0
   14.7903  -15.4377   25.6617 O   0  0  0  0  0  0  0  0  0  0  0  0
  2  1  1  0
  3  2  1  0
  3  4  1  6
  5  3  1  0
  5  6  1  1
  7  5  1  0
  8  7  2  0
  9  7  1  0
 10  9  1  0
 10 11  1  6
 12 11  1  0
 13 10  1  0
 13 22  1  0
 14 13  2  0
 16 15  1  0
 17 16  2  0
 18 17  1  0
 19 25  1  0
 19 18  2  0
 20 19  1  0
 21 20  1  1
 21 22  1  0
 23 21  1  0
 24 23  1  0
 25 26  2  0
 26 16  1  0
 27 23  2  0
M  END
$$$$
