ICY.pdb
     RDKit          3D

 27 27  0  0  1  0  0  0  0  0999 V2000
    7.7956  -12.1091   18.6787 C   0  0  0  0  0  0  0  0  0  0  0  0
    8.1363  -13.5575   18.6662 C   0  0  0  0  0  0  0  0  0  0  0  0
    7.7426  -14.2619   19.9674 C   0  0  2  0  0  0  0  0  0  0  0  0
    8.4458  -13.5979   21.1121 C   0  0  0  0  0  0  0  0  0  0  0  0
    8.1259  -15.7127   19.7651 C   0  0  2  0  0  0  0  0  0  0  0  0
    7.3022  -16.1537   18.6232 N   0  0  0  0  0  0  0  0  0  0  0  0
    7.7691  -16.5870   20.9045 C   0  0  0  0  0  0  0  0  0  0  0  0
    6.5674  -16.6494   21.2795 O   0  0  0  0  0  0  0  0  0  0  0  0
    8.6873  -17.3868   21.6349 N   0  0  0  0  0  0  0  0  0  0  0  0
    8.4498  -17.8134   22.9995 C   0  0  1  0  0  0  0  0  0  0  0  0
    8.5455  -19.3356   23.0332 C   0  0  0  0  0  0  0  0  0  0  0  0
   10.2749  -19.8483   23.2592 S   0  0  0  0  0  0  0  0  0  0  0  0
    9.4913  -17.2969   23.9224 C   0  0  0  0  0  0  0  0  0  0  0  0
   10.6751  -17.2600   23.5054 O   0  0  0  0  0  0  0  0  0  0  0  0
    5.3948  -12.1448   26.8939 O   0  0  0  0  0  0  0  0  0  0  0  0
    6.5968  -12.8059   26.6776 C   0  0  0  0  0  0  0  0  0  0  0  0
    6.7744  -13.6455   25.5872 C   0  0  0  0  0  0  0  0  0  0  0  0
    7.9530  -14.3116   25.3497 C   0  0  0  0  0  0  0  0  0  0  0  0
    9.0018  -14.1545   26.2078 C   0  0  0  0  0  0  0  0  0  0  0  0
   10.3184  -14.8255   26.0468 C   0  0  0  0  0  0  0  0  0  0  0  0
   10.1872  -16.3328   26.1456 C   0  0  2  0  0  0  0  0  0  0  0  0
    9.2169  -16.8525   25.2261 N   0  0  0  0  0  0  0  0  0  0  0  0
    9.7926  -16.7328   27.5203 C   0  0  0  0  0  0  0  0  0  0  0  0
    8.6109  -17.4200   27.7562 O   0  0  0  0  0  0  0  0  0  0  0  0
    8.8665  -13.3235   27.3115 C   0  0  0  0  0  0  0  0  0  0  0  0
    7.6746  -12.6644   27.5312 C   0  0  0  0  0  0  0  0  0  0  0  0
   10.5135  -16.4660   28.5333 O   0  0  0  0  0  0  0  0  0  0  0  0
  2  1  1  0
  3  2  1  0
  3  4  1  1
  5  3  1  0
  5  6  1  6
  7  5  1  0
  8  7  2  0
  9  7  1  0
 10  9  1  0
 10 11  1  6
 12 11  1  0
 13 10  1  0
 13 22  1  0
 14 13  2  0
 16 15  1  0
 17 16  2  0
 18 17  1  0
 19 25  1  0
 19 18  2  0
 20 19  1  0
 21 20  1  1
 21 22  1  0
 23 21  1  0
 24 23  1  0
 25 26  2  0
 26 16  1  0
 27 23  2  0
M  END
$$$$
