ICY.pdb
     RDKit          3D

 27 27  0  0  1  0  0  0  0  0999 V2000
    5.8703  -11.5178   26.7941 C   0  0  0  0  0  0  0  0  0  0  0  0
    5.6078  -12.8810   26.2582 C   0  0  0  0  0  0  0  0  0  0  0  0
    6.8637  -13.5291   25.6688 C   0  0  2  0  0  0  0  0  0  0  0  0
    7.5113  -12.5636   24.7231 C   0  0  0  0  0  0  0  0  0  0  0  0
    6.3811  -14.8059   25.0133 C   0  0  2  0  0  0  0  0  0  0  0  0
    5.8384  -15.6072   26.1271 N   0  0  0  0  0  0  0  0  0  0  0  0
    7.4650  -15.6092   24.4054 C   0  0  0  0  0  0  0  0  0  0  0  0
    8.1127  -16.4146   25.1266 O   0  0  0  0  0  0  0  0  0  0  0  0
    7.8518  -15.5525   23.0403 N   0  0  0  0  0  0  0  0  0  0  0  0
    8.9038  -16.3798   22.4837 C   0  0  1  0  0  0  0  0  0  0  0  0
    8.8764  -16.2079   20.9681 C   0  0  0  0  0  0  0  0  0  0  0  0
    7.3003  -16.8177   20.2982 S   0  0  0  0  0  0  0  0  0  0  0  0
   10.2452  -15.9395   22.9419 C   0  0  0  0  0  0  0  0  0  0  0  0
   10.6352  -14.7974   22.5952 O   0  0  0  0  0  0  0  0  0  0  0  0
    9.6337  -16.2955   30.0654 O   0  0  0  0  0  0  0  0  0  0  0  0
   10.2819  -16.0252   28.8673 C   0  0  0  0  0  0  0  0  0  0  0  0
   10.7775  -17.0448   28.0672 C   0  0  0  0  0  0  0  0  0  0  0  0
   11.4227  -16.8052   26.8774 C   0  0  0  0  0  0  0  0  0  0  0  0
   11.5927  -15.5215   26.4484 C   0  0  0  0  0  0  0  0  0  0  0  0
   12.2740  -15.1494   25.1807 C   0  0  0  0  0  0  0  0  0  0  0  0
   12.3721  -16.3324   24.2373 C   0  0  2  0  0  0  0  0  0  0  0  0
   11.0890  -16.7325   23.7364 N   0  0  0  0  0  0  0  0  0  0  0  0
   12.9922  -17.4953   24.9219 C   0  0  0  0  0  0  0  0  0  0  0  0
   14.2848  -17.4286   25.4209 O   0  0  0  0  0  0  0  0  0  0  0  0
   11.1119  -14.4715   27.2187 C   0  0  0  0  0  0  0  0  0  0  0  0
   10.4673  -14.7343   28.4097 C   0  0  0  0  0  0  0  0  0  0  0  0
   12.3718  -18.5941   25.0800 O   0  0  0  0  0  0  0  0  0  0  0  0
  2  1  1  0
  3  2  1  0
  3  4  1  6
  5  3  1  0
  5  6  1  1
  7  5  1  0
  8  7  2  0
  9  7  1  0
 10  9  1  0
 10 11  1  6
 12 11  1  0
 13 10  1  0
 13 22  1  0
 14 13  2  0
 16 15  1  0
 17 16  2  0
 18 17  1  0
 19 25  1  0
 19 18  2  0
 20 19  1  0
 21 20  1  1
 21 22  1  0
 23 21  1  0
 24 23  1  0
 25 26  2  0
 26 16  1  0
 27 23  2  0
M  END
$$$$
