ICY.pdb
     RDKit          3D

 27 27  0  0  1  0  0  0  0  0999 V2000
    3.0112  -19.4583   22.1381 C   0  0  0  0  0  0  0  0  0  0  0  0
    3.7384  -18.7075   21.0790 C   0  0  0  0  0  0  0  0  0  0  0  0
    5.0642  -18.1274   21.5793 C   0  0  2  0  0  0  0  0  0  0  0  0
    4.7841  -17.1613   22.6902 C   0  0  0  0  0  0  0  0  0  0  0  0
    5.7071  -17.4983   20.3612 C   0  0  2  0  0  0  0  0  0  0  0  0
    5.9811  -18.6360   19.4626 N   0  0  0  0  0  0  0  0  0  0  0  0
    7.0117  -16.8584   20.6406 C   0  0  0  0  0  0  0  0  0  0  0  0
    8.0243  -17.5837   20.8329 O   0  0  0  0  0  0  0  0  0  0  0  0
    7.2317  -15.4574   20.7128 N   0  0  0  0  0  0  0  0  0  0  0  0
    8.4967  -14.8776   21.1183 C   0  0  1  0  0  0  0  0  0  0  0  0
    8.5096  -13.4234   20.6573 C   0  0  0  0  0  0  0  0  0  0  0  0
    8.1760  -13.3304   18.8727 S   0  0  0  0  0  0  0  0  0  0  0  0
    8.6416  -14.8613   22.5954 C   0  0  0  0  0  0  0  0  0  0  0  0
    8.0214  -13.9754   23.2336 O   0  0  0  0  0  0  0  0  0  0  0  0
    5.8437  -11.0138   26.7925 O   0  0  0  0  0  0  0  0  0  0  0  0
    6.4659  -12.2143   26.4761 C   0  0  0  0  0  0  0  0  0  0  0  0
    7.8465  -12.3465   26.5183 C   0  0  0  0  0  0  0  0  0  0  0  0
    8.4876  -13.5226   26.2102 C   0  0  0  0  0  0  0  0  0  0  0  0
    7.7559  -14.6149   25.8463 C   0  0  0  0  0  0  0  0  0  0  0  0
    8.3451  -15.9332   25.4935 C   0  0  0  0  0  0  0  0  0  0  0  0
    9.6411  -15.7719   24.7234 C   0  0  2  0  0  0  0  0  0  0  0  0
    9.4316  -15.7807   23.3044 N   0  0  0  0  0  0  0  0  0  0  0  0
   10.5897  -16.8625   25.0645 C   0  0  0  0  0  0  0  0  0  0  0  0
   11.0790  -17.7191   24.0892 O   0  0  0  0  0  0  0  0  0  0  0  0
    6.3717  -14.5258   25.7913 C   0  0  0  0  0  0  0  0  0  0  0  0
    5.7484  -13.3356   26.1045 C   0  0  0  0  0  0  0  0  0  0  0  0
   10.9922  -17.0583   26.2548 O   0  0  0  0  0  0  0  0  0  0  0  0
  2  1  1  0
  3  2  1  0
  3  4  1  1
  5  3  1  0
  5  6  1  6
  7  5  1  0
  8  7  2  0
  9  7  1  0
 10  9  1  0
 10 11  1  1
 12 11  1  0
 13 10  1  0
 13 22  1  0
 14 13  2  0
 16 15  1  0
 17 16  2  0
 18 17  1  0
 19 25  1  0
 19 18  2  0
 20 19  1  0
 21 20  1  1
 21 22  1  0
 23 21  1  0
 24 23  1  0
 25 26  2  0
 26 16  1  0
 27 23  2  0
M  END
$$$$
