ICY.pdb
     RDKit          3D

 27 27  0  0  1  0  0  0  0  0999 V2000
    6.7650  -11.9445   20.3436 C   0  0  0  0  0  0  0  0  0  0  0  0
    7.3730  -13.2874   20.1409 C   0  0  0  0  0  0  0  0  0  0  0  0
    7.5586  -14.0496   21.4558 C   0  0  2  0  0  0  0  0  0  0  0  0
    8.3864  -13.2176   22.3877 C   0  0  0  0  0  0  0  0  0  0  0  0
    8.2011  -15.3640   21.0655 C   0  0  2  0  0  0  0  0  0  0  0  0
    7.1753  -16.0466   20.2538 N   0  0  0  0  0  0  0  0  0  0  0  0
    8.4876  -16.2508   22.2150 C   0  0  0  0  0  0  0  0  0  0  0  0
    7.5514  -16.9283   22.7179 O   0  0  0  0  0  0  0  0  0  0  0  0
    9.7621  -16.4121   22.8200 N   0  0  0  0  0  0  0  0  0  0  0  0
    9.9725  -17.2022   24.0168 C   0  0  1  0  0  0  0  0  0  0  0  0
   11.1031  -18.1857   23.7306 C   0  0  0  0  0  0  0  0  0  0  0  0
   11.3637  -19.2730   25.1640 S   0  0  0  0  0  0  0  0  0  0  0  0
   10.4139  -16.3602   25.1567 C   0  0  0  0  0  0  0  0  0  0  0  0
   11.2906  -15.4892   24.9346 O   0  0  0  0  0  0  0  0  0  0  0  0
    6.1836  -11.6783   24.8097 O   0  0  0  0  0  0  0  0  0  0  0  0
    6.9148  -12.4977   25.6597 C   0  0  0  0  0  0  0  0  0  0  0  0
    8.2198  -12.1890   26.0162 C   0  0  0  0  0  0  0  0  0  0  0  0
    8.9657  -12.9821   26.8552 C   0  0  0  0  0  0  0  0  0  0  0  0
    8.4198  -14.1220   27.3685 C   0  0  0  0  0  0  0  0  0  0  0  0
    9.1349  -15.0504   28.2830 C   0  0  0  0  0  0  0  0  0  0  0  0
   10.3103  -15.7127   27.5911 C   0  0  2  0  0  0  0  0  0  0  0  0
    9.9019  -16.4912   26.4578 N   0  0  0  0  0  0  0  0  0  0  0  0
   11.0371  -16.6011   28.5334 C   0  0  0  0  0  0  0  0  0  0  0  0
   11.1616  -17.9605   28.2867 O   0  0  0  0  0  0  0  0  0  0  0  0
    7.1168  -14.4680   27.0374 C   0  0  0  0  0  0  0  0  0  0  0  0
    6.3859  -13.6577   26.1934 C   0  0  0  0  0  0  0  0  0  0  0  0
   11.5730  -16.1597   29.5989 O   0  0  0  0  0  0  0  0  0  0  0  0
  2  1  1  0
  3  2  1  0
  3  4  1  1
  5  3  1  0
  5  6  1  6
  7  5  1  0
  8  7  2  0
  9  7  1  0
 10  9  1  0
 10 11  1  6
 12 11  1  0
 13 10  1  0
 13 22  1  0
 14 13  2  0
 16 15  1  0
 17 16  2  0
 18 17  1  0
 19 25  1  0
 19 18  2  0
 20 19  1  0
 21 20  1  1
 21 22  1  0
 23 21  1  0
 24 23  1  0
 25 26  2  0
 26 16  1  0
 27 23  2  0
M  END
$$$$
