GQQ.pdb
     RDKit          3D

 23 22  0  0  1  0  0  0  0  0999 V2000
   27.4940  -15.8016  -16.0416 N   0  0  0  0  0  0  0  0  0  0  0  0
   26.6936  -15.1415  -15.0341 C   0  0  0  0  0  0  0  0  0  0  0  0
   25.4524  -14.6001  -15.6607 C   0  0  0  0  0  0  0  0  0  0  0  0
   25.4119  -14.2859  -16.8908 O   0  0  0  0  0  0  0  0  0  0  0  0
   19.6887  -16.1323  -14.7296 N   0  0  0  0  0  0  0  0  0  0  0  0
   19.4423  -14.8651  -15.2994 C   0  0  0  0  0  0  0  0  0  0  0  0
   18.2838  -14.4868  -15.5091 O   0  0  0  0  0  0  0  0  0  0  0  0
   20.5933  -13.9952  -15.6423 C   0  0  0  0  0  0  0  0  0  0  0  0
   21.8554  -14.6544  -15.2079 C   0  0  0  0  0  0  0  0  0  0  0  0
   23.0566  -13.8415  -15.4890 C   0  0  2  0  0  0  0  0  0  0  0  0
   24.2678  -14.4111  -14.9228 N   0  0  0  0  0  0  0  0  0  0  0  0
   23.0196  -12.4348  -15.0438 C   0  0  0  0  0  0  0  0  0  0  0  0
   23.3785  -12.1204  -13.8881 O   0  0  0  0  0  0  0  0  0  0  0  0
   22.7317   -7.2693  -18.6126 N   0  0  0  0  0  0  0  0  0  0  0  0
   22.6378   -6.6524  -17.3338 C   0  0  0  0  0  0  0  0  0  0  0  0
   22.5967   -5.3985  -17.2733 O   0  0  0  0  0  0  0  0  0  0  0  0
   22.5963   -7.5597  -16.1612 C   0  0  0  0  0  0  0  0  0  0  0  0
   22.5750   -9.0202  -16.5237 C   0  0  0  0  0  0  0  0  0  0  0  0
   22.5890   -9.9656  -15.3740 C   0  0  2  0  0  0  0  0  0  0  0  0
   22.5837  -11.3549  -15.8743 N   0  0  0  0  0  0  0  0  0  0  0  0
   21.3783   -9.7632  -14.5505 C   0  0  0  0  0  0  0  0  0  0  0  0
   21.2988   -8.9055  -13.4706 O   0  0  0  0  0  0  0  0  0  0  0  0
   20.3406  -10.4373  -14.8720 O   0  0  0  0  0  0  0  0  0  0  0  0
  2  1  1  0
  3  2  1  0
  3  4  2  0
  5  6  1  0
  6  7  2  0
  8  9  1  0
  8  6  1  0
 10  9  1  1
 10 11  1  0
 10 12  1  0
 11  3  1  0
 12 13  2  0
 12 20  1  0
 15 17  1  0
 15 14  1  0
 16 15  2  0
 19 18  1  6
 18 17  1  0
 19 21  1  0
 20 19  1  0
 21 23  2  0
 21 22  1  0
M  END
$$$$
