GQQ.pdb
     RDKit          3D

 23 22  0  0  1  0  0  0  0  0999 V2000
   15.9383  -12.5910  -13.2695 N   0  0  0  0  0  0  0  0  0  0  0  0
   16.3356  -12.1401  -11.9541 C   0  0  0  0  0  0  0  0  0  0  0  0
   15.8652  -10.7396  -11.7451 C   0  0  0  0  0  0  0  0  0  0  0  0
   15.5297   -9.9990  -12.7210 O   0  0  0  0  0  0  0  0  0  0  0  0
   11.9193   -8.7561   -7.7770 N   0  0  0  0  0  0  0  0  0  0  0  0
   12.5187   -7.5013   -8.0164 C   0  0  0  0  0  0  0  0  0  0  0  0
   12.0667   -6.4794   -7.4867 O   0  0  0  0  0  0  0  0  0  0  0  0
   13.6980   -7.4275   -8.9126 C   0  0  0  0  0  0  0  0  0  0  0  0
   14.1628   -8.8059   -9.2293 C   0  0  0  0  0  0  0  0  0  0  0  0
   15.2621   -8.8310  -10.2160 C   0  0  2  0  0  0  0  0  0  0  0  0
   15.7697  -10.1707  -10.4603 N   0  0  0  0  0  0  0  0  0  0  0  0
   16.4407   -7.9967   -9.9111 C   0  0  0  0  0  0  0  0  0  0  0  0
   17.2703   -8.3537   -9.0464 O   0  0  0  0  0  0  0  0  0  0  0  0
   20.6908   -6.7496  -13.4622 N   0  0  0  0  0  0  0  0  0  0  0  0
   21.1054   -5.7461  -12.5425 C   0  0  0  0  0  0  0  0  0  0  0  0
   22.2152   -5.1866  -12.7238 O   0  0  0  0  0  0  0  0  0  0  0  0
   20.1746   -5.4422  -11.4284 C   0  0  0  0  0  0  0  0  0  0  0  0
   18.9381   -6.3001  -11.4189 C   0  0  0  0  0  0  0  0  0  0  0  0
   17.9815   -6.0325  -10.3101 C   0  0  2  0  0  0  0  0  0  0  0  0
   16.7173   -6.7529  -10.5611 N   0  0  0  0  0  0  0  0  0  0  0  0
   17.6875   -4.5853  -10.2471 C   0  0  0  0  0  0  0  0  0  0  0  0
   18.4734   -3.6528   -9.5981 O   0  0  0  0  0  0  0  0  0  0  0  0
   16.6274   -4.1840  -10.8384 O   0  0  0  0  0  0  0  0  0  0  0  0
  2  1  1  0
  3  2  1  0
  3  4  2  0
  5  6  1  0
  6  7  2  0
  8  9  1  0
  8  6  1  0
 10  9  1  1
 10 11  1  0
 10 12  1  0
 11  3  1  0
 12 13  2  0
 12 20  1  0
 15 17  1  0
 15 14  1  0
 16 15  2  0
 19 18  1  6
 18 17  1  0
 19 21  1  0
 20 19  1  0
 21 23  2  0
 21 22  1  0
M  END
$$$$
