GQQ.pdb
     RDKit          3D

 23 22  0  0  1  0  0  0  0  0999 V2000
   23.4935  -20.4895   -8.0352 N   0  0  0  0  0  0  0  0  0  0  0  0
   24.5569  -21.2768   -8.6188 C   0  0  0  0  0  0  0  0  0  0  0  0
   24.9662  -20.6730   -9.9205 C   0  0  0  0  0  0  0  0  0  0  0  0
   24.4211  -19.6141  -10.3621 O   0  0  0  0  0  0  0  0  0  0  0  0
   30.1896  -22.0971  -12.8652 N   0  0  0  0  0  0  0  0  0  0  0  0
   30.1302  -21.1012  -11.8673 C   0  0  0  0  0  0  0  0  0  0  0  0
   31.1663  -20.6787  -11.3409 O   0  0  0  0  0  0  0  0  0  0  0  0
   28.8068  -20.5698  -11.4603 C   0  0  0  0  0  0  0  0  0  0  0  0
   27.7606  -21.0976  -12.3785 C   0  0  0  0  0  0  0  0  0  0  0  0
   26.3951  -20.6843  -11.9948 C   0  0  2  0  0  0  0  0  0  0  0  0
   25.9734  -21.2446  -10.7219 N   0  0  0  0  0  0  0  0  0  0  0  0
   25.3181  -20.9948  -12.9549 C   0  0  0  0  0  0  0  0  0  0  0  0
   24.8456  -22.1498  -13.0340 O   0  0  0  0  0  0  0  0  0  0  0  0
   20.3398  -17.8559  -13.8146 N   0  0  0  0  0  0  0  0  0  0  0  0
   20.0848  -18.8144  -14.8349 C   0  0  0  0  0  0  0  0  0  0  0  0
   18.9698  -18.7942  -15.4129 O   0  0  0  0  0  0  0  0  0  0  0  0
   21.1772  -19.7723  -15.1330 C   0  0  0  0  0  0  0  0  0  0  0  0
   22.4197  -19.5510  -14.3130 C   0  0  0  0  0  0  0  0  0  0  0  0
   23.5976  -20.3746  -14.7003 C   0  0  2  0  0  0  0  0  0  0  0  0
   24.7484  -20.0285  -13.8423 N   0  0  0  0  0  0  0  0  0  0  0  0
   23.9620  -20.0899  -16.1043 C   0  0  0  0  0  0  0  0  0  0  0  0
   23.3479  -20.6566  -17.2043 O   0  0  0  0  0  0  0  0  0  0  0  0
   24.9150  -19.2599  -16.2977 O   0  0  0  0  0  0  0  0  0  0  0  0
  2  1  1  0
  3  2  1  0
  3  4  2  0
  5  6  1  0
  6  7  2  0
  8  9  1  0
  8  6  1  0
 10  9  1  6
 10 11  1  0
 10 12  1  0
 11  3  1  0
 12 13  2  0
 12 20  1  0
 15 17  1  0
 15 14  1  0
 16 15  2  0
 19 18  1  1
 18 17  1  0
 19 21  1  0
 20 19  1  0
 21 23  2  0
 21 22  1  0
M  END
$$$$
