GQQ.pdb
     RDKit          3D

 23 22  0  0  1  0  0  0  0  0999 V2000
   21.8762  -17.9079  -15.7027 N   0  0  0  0  0  0  0  0  0  0  0  0
   22.7723  -16.9358  -15.1164 C   0  0  0  0  0  0  0  0  0  0  0  0
   22.6212  -15.6304  -15.8230 C   0  0  0  0  0  0  0  0  0  0  0  0
   23.5182  -15.1925  -16.6086 O   0  0  0  0  0  0  0  0  0  0  0  0
   17.8113  -14.5368  -15.3309 N   0  0  0  0  0  0  0  0  0  0  0  0
   17.9912  -14.8521  -16.6945 C   0  0  0  0  0  0  0  0  0  0  0  0
   17.2441  -15.6632  -17.2541 O   0  0  0  0  0  0  0  0  0  0  0  0
   19.0890  -14.1959  -17.4450 C   0  0  0  0  0  0  0  0  0  0  0  0
   19.8184  -13.2669  -16.5389 C   0  0  0  0  0  0  0  0  0  0  0  0
   21.2521  -13.5981  -16.4063 C   0  0  2  0  0  0  0  0  0  0  0  0
   21.4809  -14.8210  -15.6552 N   0  0  0  0  0  0  0  0  0  0  0  0
   22.1114  -12.5708  -15.7865 C   0  0  0  0  0  0  0  0  0  0  0  0
   22.1367  -12.4225  -14.5452 O   0  0  0  0  0  0  0  0  0  0  0  0
   27.8721  -11.6512  -16.3052 N   0  0  0  0  0  0  0  0  0  0  0  0
   27.6272  -10.4210  -15.6333 C   0  0  0  0  0  0  0  0  0  0  0  0
   28.6103   -9.7410  -15.2478 O   0  0  0  0  0  0  0  0  0  0  0  0
   26.2062  -10.0412  -15.4422 C   0  0  0  0  0  0  0  0  0  0  0  0
   25.2300  -11.0325  -16.0160 C   0  0  0  0  0  0  0  0  0  0  0  0
   23.7922  -10.6834  -15.8524 C   0  0  2  0  0  0  0  0  0  0  0  0
   22.9564  -11.6918  -16.5343 N   0  0  0  0  0  0  0  0  0  0  0  0
   23.5282   -9.3664  -16.4693 C   0  0  0  0  0  0  0  0  0  0  0  0
   23.6152   -8.1579  -15.8057 O   0  0  0  0  0  0  0  0  0  0  0  0
   23.1958   -9.3620  -17.7038 O   0  0  0  0  0  0  0  0  0  0  0  0
  2  1  1  0
  3  2  1  0
  3  4  2  0
  5  6  1  0
  6  7  2  0
  8  9  1  0
  8  6  1  0
 10  9  1  1
 10 11  1  0
 10 12  1  0
 11  3  1  0
 12 13  2  0
 12 20  1  0
 15 17  1  0
 15 14  1  0
 16 15  2  0
 19 18  1  6
 18 17  1  0
 19 21  1  0
 20 19  1  0
 21 23  2  0
 21 22  1  0
M  END
$$$$
