GQQ.pdb
     RDKit          3D

 23 22  0  0  1  0  0  0  0  0999 V2000
   18.5273  -15.5687  -17.2863 N   0  0  0  0  0  0  0  0  0  0  0  0
   18.2720  -14.1825  -17.6098 C   0  0  0  0  0  0  0  0  0  0  0  0
   19.2349  -13.3140  -16.8716 C   0  0  0  0  0  0  0  0  0  0  0  0
   19.4277  -13.4476  -15.6233 O   0  0  0  0  0  0  0  0  0  0  0  0
   21.9770  -12.2018  -20.0755 N   0  0  0  0  0  0  0  0  0  0  0  0
   22.9283  -12.7618  -19.1965 C   0  0  0  0  0  0  0  0  0  0  0  0
   23.6585  -13.6871  -19.5702 O   0  0  0  0  0  0  0  0  0  0  0  0
   23.0382  -12.2236  -17.8191 C   0  0  0  0  0  0  0  0  0  0  0  0
   22.0877  -11.0895  -17.6561 C   0  0  0  0  0  0  0  0  0  0  0  0
   20.9132  -11.4361  -16.8296 C   0  0  2  0  0  0  0  0  0  0  0  0
   19.9756  -12.3063  -17.5193 N   0  0  0  0  0  0  0  0  0  0  0  0
   20.1168  -10.3075  -16.3097 C   0  0  0  0  0  0  0  0  0  0  0  0
   19.1365   -9.8684  -16.9497 O   0  0  0  0  0  0  0  0  0  0  0  0
   17.3680   -9.8173  -11.1928 N   0  0  0  0  0  0  0  0  0  0  0  0
   17.2469   -8.4308  -11.4889 C   0  0  0  0  0  0  0  0  0  0  0  0
   16.5387   -7.7158  -10.7374 O   0  0  0  0  0  0  0  0  0  0  0  0
   17.9802   -7.9409  -12.6813 C   0  0  0  0  0  0  0  0  0  0  0  0
   18.7880   -9.0034  -13.3766 C   0  0  0  0  0  0  0  0  0  0  0  0
   19.5321   -8.5539  -14.5850 C   0  0  2  0  0  0  0  0  0  0  0  0
   20.3958   -9.6484  -15.0713 N   0  0  0  0  0  0  0  0  0  0  0  0
   20.3914   -7.4022  -14.2387 C   0  0  0  0  0  0  0  0  0  0  0  0
   19.9307   -6.1194  -14.0146 O   0  0  0  0  0  0  0  0  0  0  0  0
   21.6469   -7.6247  -14.1449 O   0  0  0  0  0  0  0  0  0  0  0  0
  2  1  1  0
  3  2  1  0
  3  4  2  0
  5  6  1  0
  6  7  2  0
  8  9  1  0
  8  6  1  0
 10  9  1  6
 10 11  1  0
 10 12  1  0
 11  3  1  0
 12 13  2  0
 12 20  1  0
 15 17  1  0
 15 14  1  0
 16 15  2  0
 19 18  1  1
 18 17  1  0
 19 21  1  0
 20 19  1  0
 21 23  2  0
 21 22  1  0
M  END
$$$$
