GQQ.pdb
     RDKit          3D

 23 22  0  0  1  0  0  0  0  0999 V2000
   15.1041  -13.8163  -14.4933 N   0  0  0  0  0  0  0  0  0  0  0  0
   14.8386  -12.3951  -14.5289 C   0  0  0  0  0  0  0  0  0  0  0  0
   15.9576  -11.6973  -15.2269 C   0  0  0  0  0  0  0  0  0  0  0  0
   17.1583  -12.0985  -15.1231 O   0  0  0  0  0  0  0  0  0  0  0  0
   18.1527  -11.4317  -19.3288 N   0  0  0  0  0  0  0  0  0  0  0  0
   18.4009  -10.0687  -19.5968 C   0  0  0  0  0  0  0  0  0  0  0  0
   19.3437   -9.7345  -20.3239 O   0  0  0  0  0  0  0  0  0  0  0  0
   17.5142   -9.0446  -18.9934 C   0  0  0  0  0  0  0  0  0  0  0  0
   16.4406   -9.7202  -18.2142 C   0  0  0  0  0  0  0  0  0  0  0  0
   16.7922   -9.9085  -16.7917 C   0  0  2  0  0  0  0  0  0  0  0  0
   15.7397  -10.5630  -16.0328 N   0  0  0  0  0  0  0  0  0  0  0  0
   17.1471   -8.6929  -16.0338 C   0  0  0  0  0  0  0  0  0  0  0  0
   16.2702   -8.0372  -15.4300 O   0  0  0  0  0  0  0  0  0  0  0  0
   22.7981   -6.9655  -13.9087 N   0  0  0  0  0  0  0  0  0  0  0  0
   22.0322   -5.8633  -13.4360 C   0  0  0  0  0  0  0  0  0  0  0  0
   22.5867   -5.0257  -12.6821 O   0  0  0  0  0  0  0  0  0  0  0  0
   20.6191   -5.7979  -13.8821 C   0  0  0  0  0  0  0  0  0  0  0  0
   20.1925   -6.9711  -14.7225 C   0  0  0  0  0  0  0  0  0  0  0  0
   18.7694   -6.9624  -15.1589 C   0  0  2  0  0  0  0  0  0  0  0  0
   18.4808   -8.1856  -15.9341 N   0  0  0  0  0  0  0  0  0  0  0  0
   18.5242   -5.7923  -16.0282 C   0  0  0  0  0  0  0  0  0  0  0  0
   18.3218   -4.5045  -15.5712 O   0  0  0  0  0  0  0  0  0  0  0  0
   18.4994   -6.0032  -17.2889 O   0  0  0  0  0  0  0  0  0  0  0  0
  2  1  1  0
  3  2  1  0
  3  4  2  0
  5  6  1  0
  6  7  2  0
  8  9  1  0
  8  6  1  0
 10  9  1  6
 10 11  1  0
 10 12  1  0
 11  3  1  0
 12 13  2  0
 12 20  1  0
 15 17  1  0
 15 14  1  0
 16 15  2  0
 19 18  1  6
 18 17  1  0
 19 21  1  0
 20 19  1  0
 21 23  2  0
 21 22  1  0
M  END
$$$$
