GQQ.pdb
     RDKit          3D

 23 22  0  0  1  0  0  0  0  0999 V2000
   14.0768  -12.1626  -11.3956 N   0  0  0  0  0  0  0  0  0  0  0  0
   15.1307  -11.7060  -10.5168 C   0  0  0  0  0  0  0  0  0  0  0  0
   15.5444  -10.3276  -10.9107 C   0  0  0  0  0  0  0  0  0  0  0  0
   15.4384   -9.9190  -12.1087 O   0  0  0  0  0  0  0  0  0  0  0  0
   15.0961   -5.3526   -7.3907 N   0  0  0  0  0  0  0  0  0  0  0  0
   14.0650   -5.9990   -8.1049 C   0  0  0  0  0  0  0  0  0  0  0  0
   12.8793   -5.7684   -7.8403 O   0  0  0  0  0  0  0  0  0  0  0  0
   14.4256   -6.9584   -9.1768 C   0  0  0  0  0  0  0  0  0  0  0  0
   15.9069   -7.0921   -9.2402 C   0  0  0  0  0  0  0  0  0  0  0  0
   16.3569   -8.0243  -10.2943 C   0  0  2  0  0  0  0  0  0  0  0  0
   16.0713   -9.4137   -9.9776 N   0  0  0  0  0  0  0  0  0  0  0  0
   17.7875   -7.9726  -10.6532 C   0  0  0  0  0  0  0  0  0  0  0  0
   18.6575   -8.4294   -9.8800 O   0  0  0  0  0  0  0  0  0  0  0  0
   22.8003  -10.0768  -15.1963 N   0  0  0  0  0  0  0  0  0  0  0  0
   21.4779   -9.8265  -14.7345 C   0  0  0  0  0  0  0  0  0  0  0  0
   20.5303  -10.4715  -15.2479 O   0  0  0  0  0  0  0  0  0  0  0  0
   21.3298   -8.8066  -13.6679 C   0  0  0  0  0  0  0  0  0  0  0  0
   19.9041   -8.5674  -13.2498 C   0  0  0  0  0  0  0  0  0  0  0  0
   19.7059   -7.5007  -12.2307 C   0  0  2  0  0  0  0  0  0  0  0  0
   18.2753   -7.4132  -11.8759 N   0  0  0  0  0  0  0  0  0  0  0  0
   20.1275   -6.1980  -12.7876 C   0  0  0  0  0  0  0  0  0  0  0  0
   21.4343   -5.7534  -12.8401 O   0  0  0  0  0  0  0  0  0  0  0  0
   19.2063   -5.4403  -13.2481 O   0  0  0  0  0  0  0  0  0  0  0  0
  2  1  1  0
  3  2  1  0
  3  4  2  0
  5  6  1  0
  6  7  2  0
  8  9  1  0
  8  6  1  0
 10  9  1  1
 10 11  1  0
 10 12  1  0
 11  3  1  0
 12 13  2  0
 12 20  1  0
 15 17  1  0
 15 14  1  0
 16 15  2  0
 19 18  1  6
 18 17  1  0
 19 21  1  0
 20 19  1  0
 21 23  2  0
 21 22  1  0
M  END
$$$$
