GQQ.pdb
     RDKit          3D

 23 22  0  0  1  0  0  0  0  0999 V2000
   24.6497  -12.8064  -17.0993 N   0  0  0  0  0  0  0  0  0  0  0  0
   23.9505  -12.5049  -15.8698 C   0  0  0  0  0  0  0  0  0  0  0  0
   22.8591  -11.5255  -16.1455 C   0  0  0  0  0  0  0  0  0  0  0  0
   22.8883  -10.7678  -17.1646 O   0  0  0  0  0  0  0  0  0  0  0  0
   17.5792  -11.9736  -16.8277 N   0  0  0  0  0  0  0  0  0  0  0  0
   17.2915  -10.6865  -16.3261 C   0  0  0  0  0  0  0  0  0  0  0  0
   16.2877  -10.0744  -16.7094 O   0  0  0  0  0  0  0  0  0  0  0  0
   18.2111  -10.0801  -15.3332 C   0  0  0  0  0  0  0  0  0  0  0  0
   19.3441  -11.0114  -15.0782 C   0  0  0  0  0  0  0  0  0  0  0  0
   20.6394  -10.4889  -15.5599 C   0  0  2  0  0  0  0  0  0  0  0  0
   21.7460  -11.3924  -15.2931 N   0  0  0  0  0  0  0  0  0  0  0  0
   21.0531   -9.1712  -15.0398 C   0  0  0  0  0  0  0  0  0  0  0  0
   21.6475   -9.0742  -13.9440 O   0  0  0  0  0  0  0  0  0  0  0  0
   23.3744   -4.4802  -18.1141 N   0  0  0  0  0  0  0  0  0  0  0  0
   23.3706   -3.8783  -16.8248 C   0  0  0  0  0  0  0  0  0  0  0  0
   23.9927   -2.7991  -16.6638 O   0  0  0  0  0  0  0  0  0  0  0  0
   22.6191   -4.5905  -15.7627 C   0  0  0  0  0  0  0  0  0  0  0  0
   22.0153   -5.8927  -16.2148 C   0  0  0  0  0  0  0  0  0  0  0  0
   21.2830   -6.6568  -15.1680 C   0  0  2  0  0  0  0  0  0  0  0  0
   20.8137   -7.9401  -15.7276 N   0  0  0  0  0  0  0  0  0  0  0  0
   20.1039   -5.8842  -14.7236 C   0  0  0  0  0  0  0  0  0  0  0  0
   20.1396   -4.8651  -13.7917 O   0  0  0  0  0  0  0  0  0  0  0  0
   18.9789   -6.1935  -15.2466 O   0  0  0  0  0  0  0  0  0  0  0  0
  2  1  1  0
  3  2  1  0
  3  4  2  0
  5  6  1  0
  6  7  2  0
  8  9  1  0
  8  6  1  0
 10  9  1  1
 10 11  1  0
 10 12  1  0
 11  3  1  0
 12 13  2  0
 12 20  1  0
 15 17  1  0
 15 14  1  0
 16 15  2  0
 19 18  1  6
 18 17  1  0
 19 21  1  0
 20 19  1  0
 21 23  2  0
 21 22  1  0
M  END
$$$$
