GQQ.pdb
     RDKit          3D

 23 22  0  0  1  0  0  0  0  0999 V2000
   14.7788  -13.1253    4.7578 N   0  0  0  0  0  0  0  0  0  0  0  0
   15.6862  -13.8871    3.9285 C   0  0  0  0  0  0  0  0  0  0  0  0
   16.0883  -15.1326    4.6450 C   0  0  0  0  0  0  0  0  0  0  0  0
   15.7492  -15.3442    5.8508 O   0  0  0  0  0  0  0  0  0  0  0  0
   15.4323  -21.2481    2.3853 N   0  0  0  0  0  0  0  0  0  0  0  0
   16.5659  -20.5729    2.8856 C   0  0  0  0  0  0  0  0  0  0  0  0
   17.6963  -20.8531    2.4700 O   0  0  0  0  0  0  0  0  0  0  0  0
   16.3802  -19.5232    3.9166 C   0  0  0  0  0  0  0  0  0  0  0  0
   17.4407  -18.4897    3.7637 C   0  0  0  0  0  0  0  0  0  0  0  0
   17.2763  -17.3532    4.6932 C   0  0  2  0  0  0  0  0  0  0  0  0
   16.8609  -16.1324    4.0230 N   0  0  0  0  0  0  0  0  0  0  0  0
   18.4529  -16.9923    5.5078 C   0  0  0  0  0  0  0  0  0  0  0  0
   19.2790  -16.1476    5.0985 O   0  0  0  0  0  0  0  0  0  0  0  0
   19.7049  -13.5222   10.1358 N   0  0  0  0  0  0  0  0  0  0  0  0
   20.7101  -14.3657    9.5855 C   0  0  0  0  0  0  0  0  0  0  0  0
   21.7151  -13.8336    9.0524 O   0  0  0  0  0  0  0  0  0  0  0  0
   20.4797  -15.8272    9.6904 C   0  0  0  0  0  0  0  0  0  0  0  0
   19.4050  -16.3403    8.7703 C   0  0  0  0  0  0  0  0  0  0  0  0
   19.8863  -17.1050    7.5873 C   0  0  2  0  0  0  0  0  0  0  0  0
   18.7313  -17.5631    6.7894 N   0  0  0  0  0  0  0  0  0  0  0  0
   20.6407  -18.2934    8.0381 C   0  0  0  0  0  0  0  0  0  0  0  0
   21.9566  -18.2742    8.4582 O   0  0  0  0  0  0  0  0  0  0  0  0
   20.0185  -19.4103    8.0320 O   0  0  0  0  0  0  0  0  0  0  0  0
  2  1  1  0
  3  2  1  0
  3  4  2  0
  5  6  1  0
  6  7  2  0
  8  9  1  0
  8  6  1  0
 10  9  1  6
 10 11  1  0
 10 12  1  0
 11  3  1  0
 12 13  2  0
 12 20  1  0
 15 17  1  0
 15 14  1  0
 16 15  2  0
 19 18  1  1
 18 17  1  0
 19 21  1  0
 20 19  1  0
 21 23  2  0
 21 22  1  0
M  END
$$$$
