GQQ.pdb
     RDKit          3D

 23 22  0  0  1  0  0  0  0  0999 V2000
   15.5823  -13.1535  -15.9872 N   0  0  0  0  0  0  0  0  0  0  0  0
   16.5230  -12.3600  -16.7466 C   0  0  0  0  0  0  0  0  0  0  0  0
   16.8517  -11.1175  -15.9886 C   0  0  0  0  0  0  0  0  0  0  0  0
   16.2239  -10.7988  -14.9314 O   0  0  0  0  0  0  0  0  0  0  0  0
   22.3189   -9.0305  -14.7598 N   0  0  0  0  0  0  0  0  0  0  0  0
   21.5695   -7.9703  -14.2072 C   0  0  0  0  0  0  0  0  0  0  0  0
   22.1149   -7.1264  -13.4863 O   0  0  0  0  0  0  0  0  0  0  0  0
   20.1192   -7.8842  -14.5042 C   0  0  0  0  0  0  0  0  0  0  0  0
   19.7133   -9.0603  -15.3217 C   0  0  0  0  0  0  0  0  0  0  0  0
   18.2724   -9.0656  -15.6483 C   0  0  2  0  0  0  0  0  0  0  0  0
   17.8705  -10.2391  -16.4055 N   0  0  0  0  0  0  0  0  0  0  0  0
   17.7620   -7.9011  -16.3975 C   0  0  0  0  0  0  0  0  0  0  0  0
   18.0255   -7.7562  -17.6112 O   0  0  0  0  0  0  0  0  0  0  0  0
   13.3421   -5.2148  -14.0143 N   0  0  0  0  0  0  0  0  0  0  0  0
   12.9884   -6.0200  -15.1329 C   0  0  0  0  0  0  0  0  0  0  0  0
   11.8955   -6.6383  -15.1064 O   0  0  0  0  0  0  0  0  0  0  0  0
   13.9589   -6.0609  -16.2538 C   0  0  0  0  0  0  0  0  0  0  0  0
   15.1902   -5.2271  -16.0220 C   0  0  0  0  0  0  0  0  0  0  0  0
   16.4443   -5.7556  -16.6252 C   0  0  2  0  0  0  0  0  0  0  0  0
   16.9510   -6.8788  -15.8117 N   0  0  0  0  0  0  0  0  0  0  0  0
   17.4720   -4.6934  -16.6431 C   0  0  0  0  0  0  0  0  0  0  0  0
   18.6542   -4.7338  -15.9295 O   0  0  0  0  0  0  0  0  0  0  0  0
   17.2352   -3.6714  -17.3739 O   0  0  0  0  0  0  0  0  0  0  0  0
  2  1  1  0
  3  2  1  0
  3  4  2  0
  5  6  1  0
  6  7  2  0
  8  9  1  0
  8  6  1  0
 10  9  1  6
 10 11  1  0
 10 12  1  0
 11  3  1  0
 12 13  2  0
 12 20  1  0
 15 17  1  0
 15 14  1  0
 16 15  2  0
 19 18  1  1
 18 17  1  0
 19 21  1  0
 20 19  1  0
 21 23  2  0
 21 22  1  0
M  END
$$$$
