NHV.pdb
     RDKit          3D

 26 26  0  0  1  0  0  0  0  0999 V2000
   20.5812  -15.4758  -22.5303 N   0  0  0  0  0  0  0  0  0  0  0  0
   19.9689  -14.2002  -22.6485 C   0  0  0  0  0  0  0  0  0  0  0  0
   20.1454  -13.5689  -23.7201 O   0  0  0  0  0  0  0  0  0  0  0  0
   19.1586  -13.6566  -21.5376 C   0  0  0  0  0  0  0  0  0  0  0  0
   19.1384  -14.6401  -20.3930 C   0  0  2  0  0  0  0  0  0  0  0  0
   18.2271  -15.7220  -20.6512 N   0  0  0  0  0  0  0  0  0  0  0  0
   18.7638  -13.9061  -19.1405 C   0  0  0  0  0  0  0  0  0  0  0  0
   17.5846  -13.4999  -19.0152 O   0  0  0  0  0  0  0  0  0  0  0  0
   19.7495  -13.6938  -18.1390 N   0  0  0  0  0  0  0  0  0  0  0  0
   19.4483  -13.0049  -16.9275 C   0  0  1  0  0  0  0  0  0  0  0  0
   20.2752  -13.4763  -15.7541 C   0  0  0  0  0  0  0  0  0  0  0  0
   19.7815  -14.7895  -15.2921 C   0  0  0  0  0  0  0  0  0  0  0  0
   18.6698  -15.4812  -15.7033 C   0  0  0  0  0  0  0  0  0  0  0  0
   18.6181  -16.6413  -14.9999 N   0  0  0  0  0  0  0  0  0  0  0  0
   19.6669  -16.6796  -14.1695 C   0  0  0  0  0  0  0  0  0  0  0  0
   20.3571  -15.5575  -14.3578 N   0  0  0  0  0  0  0  0  0  0  0  0
   19.5918  -11.5532  -17.1661 C   0  0  0  0  0  0  0  0  0  0  0  0
   20.6138  -11.0154  -17.6603 O   0  0  0  0  0  0  0  0  0  0  0  0
   17.4648   -7.4955  -18.4287 C   0  0  0  0  0  0  0  0  0  0  0  0
   17.5558   -8.9690  -18.1312 C   0  0  2  0  0  0  0  0  0  0  0  0
   16.1976   -9.4821  -17.7366 C   0  0  0  0  0  0  0  0  0  0  0  0
   18.5437   -9.2818  -17.0416 C   0  0  2  0  0  0  0  0  0  0  0  0
   18.4912  -10.7159  -16.8082 N   0  0  0  0  0  0  0  0  0  0  0  0
   18.2284   -8.5762  -15.7829 C   0  0  0  0  0  0  0  0  0  0  0  0
   17.5652   -9.1433  -14.8773 O   0  0  0  0  0  0  0  0  0  0  0  0
   18.6443   -7.2735  -15.5462 O   0  0  0  0  0  0  0  0  0  0  0  0
  2  1  1  0
  2  3  2  0
  4  2  1  0
  5  4  1  0
  5  6  1  6
  7  5  1  0
  8  7  2  0
  9  7  1  0
 10  9  1  0
 11 12  1  0
 10 11  1  1
 12 13  2  0
 13 14  1  0
 15 14  1  0
 16 12  1  0
 16 15  2  0
 17 23  1  0
 17 10  1  0
 18 17  2  0
 20 19  1  1
 21 20  1  0
 22 20  1  0
 22 23  1  1
 24 22  1  0
 25 24  2  0
 26 24  1  0
M  END
$$$$
