NHV.pdb
     RDKit          3D

 26 26  0  0  1  0  0  0  0  0999 V2000
   15.1529  -13.2753  -14.8613 N   0  0  0  0  0  0  0  0  0  0  0  0
   16.5129  -13.1698  -14.4673 C   0  0  0  0  0  0  0  0  0  0  0  0
   17.0013  -14.1207  -13.8075 O   0  0  0  0  0  0  0  0  0  0  0  0
   17.3041  -11.9752  -14.8321 C   0  0  0  0  0  0  0  0  0  0  0  0
   16.4259  -10.9841  -15.5561 C   0  0  2  0  0  0  0  0  0  0  0  0
   16.0257  -11.4851  -16.8432 N   0  0  0  0  0  0  0  0  0  0  0  0
   17.1745   -9.6920  -15.6889 C   0  0  0  0  0  0  0  0  0  0  0  0
   17.9615   -9.5531  -16.6546 O   0  0  0  0  0  0  0  0  0  0  0  0
   16.9716   -8.6695  -14.7230 N   0  0  0  0  0  0  0  0  0  0  0  0
   17.5612   -7.3790  -14.8648 C   0  0  1  0  0  0  0  0  0  0  0  0
   16.6359   -6.2549  -14.4613 C   0  0  0  0  0  0  0  0  0  0  0  0
   15.5980   -6.0682  -15.4955 C   0  0  0  0  0  0  0  0  0  0  0  0
   15.7571   -5.8506  -16.8412 C   0  0  0  0  0  0  0  0  0  0  0  0
   14.5218   -5.7397  -17.3935 N   0  0  0  0  0  0  0  0  0  0  0  0
   13.6106   -5.8834  -16.4239 C   0  0  0  0  0  0  0  0  0  0  0  0
   14.2748   -6.0804  -15.2878 N   0  0  0  0  0  0  0  0  0  0  0  0
   18.8305   -7.3583  -14.1076 C   0  0  0  0  0  0  0  0  0  0  0  0
   18.9146   -7.5136  -12.8639 O   0  0  0  0  0  0  0  0  0  0  0  0
   21.6863   -9.5033  -15.3611 C   0  0  0  0  0  0  0  0  0  0  0  0
   22.1961   -8.1020  -15.1497 C   0  0  2  0  0  0  0  0  0  0  0  0
   23.5995   -8.1588  -14.6103 C   0  0  0  0  0  0  0  0  0  0  0  0
   21.3325   -7.3050  -14.2118 C   0  0  2  0  0  0  0  0  0  0  0  0
   20.0342   -7.1473  -14.8472 N   0  0  0  0  0  0  0  0  0  0  0  0
   21.8977   -5.9697  -13.9311 C   0  0  0  0  0  0  0  0  0  0  0  0
   21.6220   -4.9877  -14.6669 O   0  0  0  0  0  0  0  0  0  0  0  0
   22.7470   -5.7416  -12.8574 O   0  0  0  0  0  0  0  0  0  0  0  0
  2  1  1  0
  2  3  2  0
  4  2  1  0
  5  4  1  0
  5  6  1  6
  7  5  1  0
  8  7  2  0
  9  7  1  0
 10  9  1  0
 11 12  1  0
 10 11  1  1
 12 13  2  0
 13 14  1  0
 15 14  1  0
 16 12  1  0
 16 15  2  0
 17 23  1  0
 17 10  1  0
 18 17  2  0
 20 19  1  1
 21 20  1  0
 22 20  1  0
 22 23  1  6
 24 22  1  0
 25 24  2  0
 26 24  1  0
M  END
$$$$
