NHV.pdb
     RDKit          3D

 26 26  0  0  1  0  0  0  0  0999 V2000
   24.7219  -14.8930  -20.1829 N   0  0  0  0  0  0  0  0  0  0  0  0
   23.4698  -14.8180  -20.8482 C   0  0  0  0  0  0  0  0  0  0  0  0
   23.2688  -15.6151  -21.7981 O   0  0  0  0  0  0  0  0  0  0  0  0
   22.4565  -13.8299  -20.4205 C   0  0  0  0  0  0  0  0  0  0  0  0
   23.0086  -12.9880  -19.2961 C   0  0  2  0  0  0  0  0  0  0  0  0
   23.4248  -13.8053  -18.1887 N   0  0  0  0  0  0  0  0  0  0  0  0
   21.9575  -12.0049  -18.8762 C   0  0  0  0  0  0  0  0  0  0  0  0
   21.5279  -11.1892  -19.7255 O   0  0  0  0  0  0  0  0  0  0  0  0
   21.4822  -12.0261  -17.5371 N   0  0  0  0  0  0  0  0  0  0  0  0
   20.4306  -11.1666  -17.1030 C   0  0  1  0  0  0  0  0  0  0  0  0
   19.4581  -11.8434  -16.1656 C   0  0  0  0  0  0  0  0  0  0  0  0
   18.3730  -10.9058  -15.8113 C   0  0  0  0  0  0  0  0  0  0  0  0
   18.2155   -9.5950  -16.1858 C   0  0  0  0  0  0  0  0  0  0  0  0
   17.0701   -9.1355  -15.6198 N   0  0  0  0  0  0  0  0  0  0  0  0
   16.5218  -10.1281  -14.9091 C   0  0  0  0  0  0  0  0  0  0  0  0
   17.3184  -11.1867  -15.0348 N   0  0  0  0  0  0  0  0  0  0  0  0
   21.0320   -9.9552  -16.5065 C   0  0  0  0  0  0  0  0  0  0  0  0
   22.0177   -9.9650  -15.7279 O   0  0  0  0  0  0  0  0  0  0  0  0
   21.3223   -5.0539  -16.9787 C   0  0  0  0  0  0  0  0  0  0  0  0
   20.7354   -6.3878  -17.3583 C   0  0  2  0  0  0  0  0  0  0  0  0
   19.2487   -6.2442  -17.5397 C   0  0  0  0  0  0  0  0  0  0  0  0
   21.0130   -7.4563  -16.3374 C   0  0  2  0  0  0  0  0  0  0  0  0
   20.4471   -8.6963  -16.8436 N   0  0  0  0  0  0  0  0  0  0  0  0
   20.4048   -7.1480  -15.0272 C   0  0  0  0  0  0  0  0  0  0  0  0
   19.3177   -7.6781  -14.6828 O   0  0  0  0  0  0  0  0  0  0  0  0
   20.9977   -6.2712  -14.1294 O   0  0  0  0  0  0  0  0  0  0  0  0
  2  1  1  0
  2  3  2  0
  4  2  1  0
  5  4  1  0
  5  6  1  1
  7  5  1  0
  8  7  2  0
  9  7  1  0
 10  9  1  0
 11 12  1  0
 10 11  1  1
 12 13  2  0
 13 14  1  0
 15 14  1  0
 16 12  1  0
 16 15  2  0
 17 23  1  0
 17 10  1  0
 18 17  2  0
 20 19  1  1
 21 20  1  0
 22 20  1  0
 22 23  1  6
 24 22  1  0
 25 24  2  0
 26 24  1  0
M  END
$$$$
