NHV.pdb
     RDKit          3D

 26 26  0  0  1  0  0  0  0  0999 V2000
   19.2530  -20.8237  -11.9644 N   0  0  0  0  0  0  0  0  0  0  0  0
   20.3708  -20.9201  -11.0941 C   0  0  0  0  0  0  0  0  0  0  0  0
   20.1647  -21.3440   -9.9297 O   0  0  0  0  0  0  0  0  0  0  0  0
   21.7173  -20.5301  -11.5642 C   0  0  0  0  0  0  0  0  0  0  0  0
   21.6119  -19.8597  -12.9123 C   0  0  2  0  0  0  0  0  0  0  0  0
   20.9914  -20.7256  -13.8781 N   0  0  0  0  0  0  0  0  0  0  0  0
   22.9871  -19.4571  -13.3533 C   0  0  0  0  0  0  0  0  0  0  0  0
   23.7056  -18.8101  -12.5557 O   0  0  0  0  0  0  0  0  0  0  0  0
   23.4329  -19.8183  -14.6535 N   0  0  0  0  0  0  0  0  0  0  0  0
   24.7226  -19.4442  -15.1326 C   0  0  1  0  0  0  0  0  0  0  0  0
   25.5021  -20.6030  -15.7090 C   0  0  0  0  0  0  0  0  0  0  0  0
   26.0783  -21.4097  -14.6141 C   0  0  0  0  0  0  0  0  0  0  0  0
   27.3783  -21.4585  -14.1768 C   0  0  0  0  0  0  0  0  0  0  0  0
   27.4376  -22.3407  -13.1464 N   0  0  0  0  0  0  0  0  0  0  0  0
   26.2106  -22.8335  -12.9403 C   0  0  0  0  0  0  0  0  0  0  0  0
   25.4042  -22.2629  -13.8320 N   0  0  0  0  0  0  0  0  0  0  0  0
   24.5598  -18.3412  -16.1032 C   0  0  0  0  0  0  0  0  0  0  0  0
   23.5907  -18.2334  -16.8950 O   0  0  0  0  0  0  0  0  0  0  0  0
   27.1104  -14.3068  -17.0502 C   0  0  0  0  0  0  0  0  0  0  0  0
   26.0152  -15.0007  -16.2839 C   0  0  2  0  0  0  0  0  0  0  0  0
   26.5459  -15.4433  -14.9474 C   0  0  0  0  0  0  0  0  0  0  0  0
   25.4557  -16.1882  -17.0172 C   0  0  2  0  0  0  0  0  0  0  0  0
   25.5759  -17.3377  -16.1351 N   0  0  0  0  0  0  0  0  0  0  0  0
   26.1852  -16.4642  -18.2714 C   0  0  0  0  0  0  0  0  0  0  0  0
   27.2101  -17.1929  -18.2715 O   0  0  0  0  0  0  0  0  0  0  0  0
   25.7779  -15.9388  -19.4897 O   0  0  0  0  0  0  0  0  0  0  0  0
  2  1  1  0
  2  3  2  0
  4  2  1  0
  5  4  1  0
  5  6  1  6
  7  5  1  0
  8  7  2  0
  9  7  1  0
 10  9  1  0
 11 12  1  0
 10 11  1  6
 12 13  2  0
 13 14  1  0
 15 14  1  0
 16 12  1  0
 16 15  2  0
 17 23  1  0
 17 10  1  0
 18 17  2  0
 20 19  1  6
 21 20  1  0
 22 20  1  0
 22 23  1  1
 24 22  1  0
 25 24  2  0
 26 24  1  0
M  END
$$$$
