NHV.pdb
     RDKit          3D

 26 26  0  0  1  0  0  0  0  0999 V2000
   15.7970  -28.6063   -9.1536 N   0  0  0  0  0  0  0  0  0  0  0  0
   17.0232  -29.0222   -8.5709 C   0  0  0  0  0  0  0  0  0  0  0  0
   17.4865  -30.1346   -8.9258 O   0  0  0  0  0  0  0  0  0  0  0  0
   17.7103  -28.1604   -7.5854 C   0  0  0  0  0  0  0  0  0  0  0  0
   16.8555  -26.9548   -7.2793 C   0  0  2  0  0  0  0  0  0  0  0  0
   17.1724  -25.8561   -8.1512 N   0  0  0  0  0  0  0  0  0  0  0  0
   17.0581  -26.5792   -5.8421 C   0  0  0  0  0  0  0  0  0  0  0  0
   18.1904  -26.1801   -5.4821 O   0  0  0  0  0  0  0  0  0  0  0  0
   15.9683  -26.6859   -4.9363 N   0  0  0  0  0  0  0  0  0  0  0  0
   16.0920  -26.3011   -3.5689 C   0  0  1  0  0  0  0  0  0  0  0  0
   14.7835  -25.8626   -2.9538 C   0  0  0  0  0  0  0  0  0  0  0  0
   14.4201  -24.5228   -3.4584 C   0  0  0  0  0  0  0  0  0  0  0  0
   15.1423  -23.6881   -4.2740 C   0  0  0  0  0  0  0  0  0  0  0  0
   14.4088  -22.5629   -4.4717 N   0  0  0  0  0  0  0  0  0  0  0  0
   13.2577  -22.6848   -3.8002 C   0  0  0  0  0  0  0  0  0  0  0  0
   13.2803  -23.8701   -3.1957 N   0  0  0  0  0  0  0  0  0  0  0  0
   16.7153  -27.4151   -2.8235 C   0  0  0  0  0  0  0  0  0  0  0  0
   16.3021  -28.6011   -2.8481 O   0  0  0  0  0  0  0  0  0  0  0  0
   20.3766  -26.5303   -0.7639 C   0  0  0  0  0  0  0  0  0  0  0  0
   20.0192  -27.8685   -1.3553 C   0  0  2  0  0  0  0  0  0  0  0  0
   20.4697  -27.9151   -2.7901 C   0  0  0  0  0  0  0  0  0  0  0  0
   18.5458  -28.1599   -1.2847 C   0  0  2  0  0  0  0  0  0  0  0  0
   17.8614  -27.1131   -2.0262 N   0  0  0  0  0  0  0  0  0  0  0  0
   18.0453  -28.1730    0.1048 C   0  0  0  0  0  0  0  0  0  0  0  0
   17.4388  -27.1784    0.5786 O   0  0  0  0  0  0  0  0  0  0  0  0
   18.2194  -29.2686    0.9388 O   0  0  0  0  0  0  0  0  0  0  0  0
  2  1  1  0
  2  3  2  0
  4  2  1  0
  5  4  1  0
  5  6  1  6
  7  5  1  0
  8  7  2  0
  9  7  1  0
 10  9  1  0
 11 12  1  0
 10 11  1  1
 12 13  2  0
 13 14  1  0
 15 14  1  0
 16 12  1  0
 16 15  2  0
 17 23  1  0
 17 10  1  0
 18 17  2  0
 20 19  1  6
 21 20  1  0
 22 20  1  0
 22 23  1  6
 24 22  1  0
 25 24  2  0
 26 24  1  0
M  END
$$$$
