NHV.pdb
     RDKit          3D

 26 26  0  0  1  0  0  0  0  0999 V2000
   18.3280  -20.1195  -15.5156 N   0  0  0  0  0  0  0  0  0  0  0  0
   19.0260  -18.8933  -15.6753 C   0  0  0  0  0  0  0  0  0  0  0  0
   18.3592  -17.8872  -16.0234 O   0  0  0  0  0  0  0  0  0  0  0  0
   20.4834  -18.8284  -15.4349 C   0  0  0  0  0  0  0  0  0  0  0  0
   20.9978  -20.1944  -15.0510 C   0  0  2  0  0  0  0  0  0  0  0  0
   20.5708  -20.5590  -13.7272 N   0  0  0  0  0  0  0  0  0  0  0  0
   22.4935  -20.1864  -15.1526 C   0  0  0  0  0  0  0  0  0  0  0  0
   23.1444  -19.4856  -14.3426 O   0  0  0  0  0  0  0  0  0  0  0  0
   23.1253  -20.9681  -16.1574 N   0  0  0  0  0  0  0  0  0  0  0  0
   24.5452  -21.0422  -16.2647 C   0  0  1  0  0  0  0  0  0  0  0  0
   25.0342  -22.3788  -16.7716 C   0  0  0  0  0  0  0  0  0  0  0  0
   26.5108  -22.3869  -16.8108 C   0  0  0  0  0  0  0  0  0  0  0  0
   27.3840  -21.3904  -16.4532 C   0  0  0  0  0  0  0  0  0  0  0  0
   28.6452  -21.8492  -16.6583 N   0  0  0  0  0  0  0  0  0  0  0  0
   28.5690  -23.0987  -17.1315 C   0  0  0  0  0  0  0  0  0  0  0  0
   27.2774  -23.4072  -17.2174 N   0  0  0  0  0  0  0  0  0  0  0  0
   25.0104  -19.9199  -17.1067 C   0  0  0  0  0  0  0  0  0  0  0  0
   24.3516  -19.4280  -18.0565 O   0  0  0  0  0  0  0  0  0  0  0  0
   28.8301  -18.2048  -16.0934 C   0  0  0  0  0  0  0  0  0  0  0  0
   27.6489  -17.4178  -16.5968 C   0  0  2  0  0  0  0  0  0  0  0  0
   26.8209  -16.9595  -15.4271 C   0  0  0  0  0  0  0  0  0  0  0  0
   26.7852  -18.2068  -17.5414 C   0  0  2  0  0  0  0  0  0  0  0  0
   26.2938  -19.3656  -16.8134 N   0  0  0  0  0  0  0  0  0  0  0  0
   27.5322  -18.6651  -18.7302 C   0  0  0  0  0  0  0  0  0  0  0  0
   27.8655  -17.8540  -19.6317 O   0  0  0  0  0  0  0  0  0  0  0  0
   27.8951  -19.9934  -18.9036 O   0  0  0  0  0  0  0  0  0  0  0  0
  2  1  1  0
  2  3  2  0
  4  2  1  0
  5  4  1  0
  5  6  1  1
  7  5  1  0
  8  7  2  0
  9  7  1  0
 10  9  1  0
 11 12  1  0
 10 11  1  6
 12 13  2  0
 13 14  1  0
 15 14  1  0
 16 12  1  0
 16 15  2  0
 17 23  1  0
 17 10  1  0
 18 17  2  0
 20 19  1  1
 21 20  1  0
 22 20  1  0
 22 23  1  1
 24 22  1  0
 25 24  2  0
 26 24  1  0
M  END
$$$$
