NHV.pdb
     RDKit          3D

 26 26  0  0  1  0  0  0  0  0999 V2000
   28.6339  -18.7088  -17.4888 N   0  0  0  0  0  0  0  0  0  0  0  0
   27.9684  -17.5608  -16.9834 C   0  0  0  0  0  0  0  0  0  0  0  0
   28.1574  -16.4713  -17.5793 O   0  0  0  0  0  0  0  0  0  0  0  0
   27.0909  -17.6693  -15.7984 C   0  0  0  0  0  0  0  0  0  0  0  0
   27.1568  -19.0708  -15.2422 C   0  0  2  0  0  0  0  0  0  0  0  0
   26.7591  -20.0413  -16.2258 N   0  0  0  0  0  0  0  0  0  0  0  0
   26.2808  -19.1432  -14.0276 C   0  0  0  0  0  0  0  0  0  0  0  0
   26.3855  -18.2446  -13.1601 O   0  0  0  0  0  0  0  0  0  0  0  0
   25.3639  -20.2210  -13.8961 N   0  0  0  0  0  0  0  0  0  0  0  0
   24.4409  -20.2895  -12.8115 C   0  0  1  0  0  0  0  0  0  0  0  0
   23.1250  -20.9282  -13.1900 C   0  0  0  0  0  0  0  0  0  0  0  0
   22.3549  -20.0092  -14.0527 C   0  0  0  0  0  0  0  0  0  0  0  0
   22.6288  -18.7037  -14.3754 C   0  0  0  0  0  0  0  0  0  0  0  0
   21.6421  -18.2626  -15.1970 N   0  0  0  0  0  0  0  0  0  0  0  0
   20.7716  -19.2613  -15.3867 C   0  0  0  0  0  0  0  0  0  0  0  0
   21.2153  -20.3053  -14.6910 N   0  0  0  0  0  0  0  0  0  0  0  0
   25.0956  -20.9834  -11.6825 C   0  0  0  0  0  0  0  0  0  0  0  0
   25.6871  -22.0874  -11.7782 O   0  0  0  0  0  0  0  0  0  0  0  0
   26.1822  -18.9539   -8.0956 C   0  0  0  0  0  0  0  0  0  0  0  0
   26.5755  -20.3260   -8.5758 C   0  0  2  0  0  0  0  0  0  0  0  0
   27.6959  -20.2026   -9.5724 C   0  0  0  0  0  0  0  0  0  0  0  0
   25.4303  -21.0727   -9.2019 C   0  0  2  0  0  0  0  0  0  0  0  0
   25.0470  -20.3493  -10.4034 N   0  0  0  0  0  0  0  0  0  0  0  0
   24.2638  -21.1634   -8.3005 C   0  0  0  0  0  0  0  0  0  0  0  0
   23.2222  -20.4967   -8.5287 O   0  0  0  0  0  0  0  0  0  0  0  0
   24.2646  -21.9775   -7.1765 O   0  0  0  0  0  0  0  0  0  0  0  0
  2  1  1  0
  2  3  2  0
  4  2  1  0
  5  4  1  0
  5  6  1  6
  7  5  1  0
  8  7  2  0
  9  7  1  0
 10  9  1  0
 11 12  1  0
 10 11  1  6
 12 13  2  0
 13 14  1  0
 15 14  1  0
 16 12  1  0
 16 15  2  0
 17 23  1  0
 17 10  1  0
 18 17  2  0
 20 19  1  6
 21 20  1  0
 22 20  1  0
 22 23  1  6
 24 22  1  0
 25 24  2  0
 26 24  1  0
M  END
$$$$
