NHV.pdb
     RDKit          3D

 26 26  0  0  1  0  0  0  0  0999 V2000
   25.1677  -35.1996  -14.9489 N   0  0  0  0  0  0  0  0  0  0  0  0
   25.0182  -33.7887  -14.8946 C   0  0  0  0  0  0  0  0  0  0  0  0
   25.1000  -33.1545  -15.9759 O   0  0  0  0  0  0  0  0  0  0  0  0
   24.7759  -33.1140  -13.6015 C   0  0  0  0  0  0  0  0  0  0  0  0
   24.6956  -34.1408  -12.4983 C   0  0  2  0  0  0  0  0  0  0  0  0
   23.4331  -34.8288  -12.5173 N   0  0  0  0  0  0  0  0  0  0  0  0
   24.9135  -33.4488  -11.1863 C   0  0  0  0  0  0  0  0  0  0  0  0
   26.0153  -32.8874  -10.9818 O   0  0  0  0  0  0  0  0  0  0  0  0
   23.8719  -33.4496  -10.2195 N   0  0  0  0  0  0  0  0  0  0  0  0
   24.0546  -32.8853   -8.9229 C   0  0  1  0  0  0  0  0  0  0  0  0
   22.7711  -32.3758   -8.3099 C   0  0  0  0  0  0  0  0  0  0  0  0
   22.4161  -31.0728   -8.9081 C   0  0  0  0  0  0  0  0  0  0  0  0
   23.1448  -30.3012   -9.7783 C   0  0  0  0  0  0  0  0  0  0  0  0
   22.4178  -29.1888  -10.0565 N   0  0  0  0  0  0  0  0  0  0  0  0
   21.2645  -29.2574   -9.3813 C   0  0  0  0  0  0  0  0  0  0  0  0
   21.2792  -30.3974   -8.6951 N   0  0  0  0  0  0  0  0  0  0  0  0
   24.7249  -33.8865   -8.0666 C   0  0  0  0  0  0  0  0  0  0  0  0
   24.3190  -35.0642   -7.9051 O   0  0  0  0  0  0  0  0  0  0  0  0
   29.0364  -35.1130   -6.1204 C   0  0  0  0  0  0  0  0  0  0  0  0
   28.1166  -34.2819   -6.9756 C   0  0  2  0  0  0  0  0  0  0  0  0
   28.5168  -32.8349   -6.8767 C   0  0  0  0  0  0  0  0  0  0  0  0
   26.6716  -34.4280   -6.5865 C   0  0  2  0  0  0  0  0  0  0  0  0
   25.9107  -33.4786   -7.3825 N   0  0  0  0  0  0  0  0  0  0  0  0
   26.4478  -34.1454   -5.1542 C   0  0  0  0  0  0  0  0  0  0  0  0
   26.0624  -33.0096   -4.7760 O   0  0  0  0  0  0  0  0  0  0  0  0
   26.6501  -35.1074   -4.1745 O   0  0  0  0  0  0  0  0  0  0  0  0
  2  1  1  0
  2  3  2  0
  4  2  1  0
  5  4  1  0
  5  6  1  1
  7  5  1  0
  8  7  2  0
  9  7  1  0
 10  9  1  0
 11 12  1  0
 10 11  1  1
 12 13  2  0
 13 14  1  0
 15 14  1  0
 16 12  1  0
 16 15  2  0
 17 23  1  0
 17 10  1  0
 18 17  2  0
 20 19  1  1
 21 20  1  0
 22 20  1  0
 22 23  1  6
 24 22  1  0
 25 24  2  0
 26 24  1  0
M  END
$$$$
