NHV.pdb
     RDKit          3D

 26 26  0  0  1  0  0  0  0  0999 V2000
   13.3443  -19.4351    2.6616 N   0  0  0  0  0  0  0  0  0  0  0  0
   14.5872  -19.9517    2.2097 C   0  0  0  0  0  0  0  0  0  0  0  0
   14.5569  -20.8672    1.3500 O   0  0  0  0  0  0  0  0  0  0  0  0
   15.8565  -19.4158    2.7461 C   0  0  0  0  0  0  0  0  0  0  0  0
   15.5654  -18.3607    3.7852 C   0  0  2  0  0  0  0  0  0  0  0  0
   14.8797  -17.2361    3.2084 N   0  0  0  0  0  0  0  0  0  0  0  0
   16.8602  -17.9396    4.4127 C   0  0  0  0  0  0  0  0  0  0  0  0
   17.9318  -18.3249    3.8892 O   0  0  0  0  0  0  0  0  0  0  0  0
   16.8350  -17.1215    5.5746 N   0  0  0  0  0  0  0  0  0  0  0  0
   18.0330  -16.7430    6.2487 C   0  0  1  0  0  0  0  0  0  0  0  0
   17.9546  -15.3702    6.8747 C   0  0  0  0  0  0  0  0  0  0  0  0
   18.3088  -14.3446    5.8724 C   0  0  0  0  0  0  0  0  0  0  0  0
   18.6248  -14.5128    4.5475 C   0  0  0  0  0  0  0  0  0  0  0  0
   18.8789  -13.2872    4.0217 N   0  0  0  0  0  0  0  0  0  0  0  0
   18.7274  -12.3730    4.9873 C   0  0  0  0  0  0  0  0  0  0  0  0
   18.3842  -13.0259    6.0949 N   0  0  0  0  0  0  0  0  0  0  0  0
   18.3651  -17.7907    7.2372 C   0  0  0  0  0  0  0  0  0  0  0  0
   17.5274  -18.3366    7.9975 O   0  0  0  0  0  0  0  0  0  0  0  0
   21.8182  -19.8795    6.5491 C   0  0  0  0  0  0  0  0  0  0  0  0
   20.7554  -20.3452    7.5091 C   0  0  2  0  0  0  0  0  0  0  0  0
   19.6811  -21.0731    6.7477 C   0  0  0  0  0  0  0  0  0  0  0  0
   20.1386  -19.2151    8.2858 C   0  0  2  0  0  0  0  0  0  0  0  0
   19.7301  -18.2023    7.3259 N   0  0  0  0  0  0  0  0  0  0  0  0
   21.0866  -18.6150    9.2463 C   0  0  0  0  0  0  0  0  0  0  0  0
   21.6756  -17.5365    8.9790 O   0  0  0  0  0  0  0  0  0  0  0  0
   21.3664  -19.2064   10.4702 O   0  0  0  0  0  0  0  0  0  0  0  0
  2  1  1  0
  2  3  2  0
  4  2  1  0
  5  4  1  0
  5  6  1  6
  7  5  1  0
  8  7  2  0
  9  7  1  0
 10  9  1  0
 11 12  1  0
 10 11  1  1
 12 13  2  0
 13 14  1  0
 15 14  1  0
 16 12  1  0
 16 15  2  0
 17 23  1  0
 17 10  1  0
 18 17  2  0
 20 19  1  6
 21 20  1  0
 22 20  1  0
 22 23  1  6
 24 22  1  0
 25 24  2  0
 26 24  1  0
M  END
$$$$
