NHV.pdb
     RDKit          3D

 26 26  0  0  1  0  0  0  0  0999 V2000
   35.1826  -36.7451  -10.3455 N   0  0  0  0  0  0  0  0  0  0  0  0
   36.1000  -35.6766  -10.5260 C   0  0  0  0  0  0  0  0  0  0  0  0
   37.0202  -35.5526   -9.6798 O   0  0  0  0  0  0  0  0  0  0  0  0
   35.9568  -34.7573  -11.6751 C   0  0  0  0  0  0  0  0  0  0  0  0
   34.8650  -35.2534  -12.5915 C   0  0  2  0  0  0  0  0  0  0  0  0
   35.3079  -36.3797  -13.3681 N   0  0  0  0  0  0  0  0  0  0  0  0
   34.4355  -34.1225  -13.4771 C   0  0  0  0  0  0  0  0  0  0  0  0
   33.7896  -33.1764  -12.9683 O   0  0  0  0  0  0  0  0  0  0  0  0
   34.7707  -34.1559  -14.8577 N   0  0  0  0  0  0  0  0  0  0  0  0
   34.3506  -33.1299  -15.7543 C   0  0  1  0  0  0  0  0  0  0  0  0
   35.4070  -32.7568  -16.7679 C   0  0  0  0  0  0  0  0  0  0  0  0
   36.3030  -31.7296  -16.1987 C   0  0  0  0  0  0  0  0  0  0  0  0
   36.2019  -31.0733  -14.9977 C   0  0  0  0  0  0  0  0  0  0  0  0
   37.2521  -30.2181  -14.9015 N   0  0  0  0  0  0  0  0  0  0  0  0
   37.9934  -30.3323  -16.0097 C   0  0  0  0  0  0  0  0  0  0  0  0
   37.4085  -31.2461  -16.7802 N   0  0  0  0  0  0  0  0  0  0  0  0
   33.0871  -33.5548  -16.3932 C   0  0  0  0  0  0  0  0  0  0  0  0
   32.8869  -34.6984  -16.8728 O   0  0  0  0  0  0  0  0  0  0  0  0
   29.7941  -31.0088  -15.8001 C   0  0  0  0  0  0  0  0  0  0  0  0
   29.6738  -32.4702  -16.1437 C   0  0  2  0  0  0  0  0  0  0  0  0
   29.7155  -33.2841  -14.8790 C   0  0  0  0  0  0  0  0  0  0  0  0
   30.7571  -32.9389  -17.0752 C   0  0  2  0  0  0  0  0  0  0  0  0
   32.0314  -32.5953  -16.4651 N   0  0  0  0  0  0  0  0  0  0  0  0
   30.6687  -32.2967  -18.4022 C   0  0  0  0  0  0  0  0  0  0  0  0
   31.3066  -31.2413  -18.6490 O   0  0  0  0  0  0  0  0  0  0  0  0
   29.8884  -32.8218  -19.4228 O   0  0  0  0  0  0  0  0  0  0  0  0
  2  1  1  0
  2  3  2  0
  4  2  1  0
  5  4  1  0
  5  6  1  6
  7  5  1  0
  8  7  2  0
  9  7  1  0
 10  9  1  0
 11 12  1  0
 10 11  1  6
 12 13  2  0
 13 14  1  0
 15 14  1  0
 16 12  1  0
 16 15  2  0
 17 23  1  0
 17 10  1  0
 18 17  2  0
 20 19  1  1
 21 20  1  0
 22 20  1  0
 22 23  1  1
 24 22  1  0
 25 24  2  0
 26 24  1  0
M  END
$$$$
