MPK.pdb
     RDKit          3D

 25 25  0  0  1  0  0  0  0  0999 V2000
    6.7487  -11.7692   26.6440 C   0  0  0  0  0  0  0  0  0  0  0  0
    7.1114  -13.3116   27.4872 S   0  0  0  0  0  0  0  0  0  0  0  0
    7.0304  -14.7289   26.3579 C   0  0  0  0  0  0  0  0  0  0  0  0
    6.1018  -14.4597   25.1983 C   0  0  0  0  0  0  0  0  0  0  0  0
    5.7998  -15.8208   24.5496 C   0  0  2  0  0  0  0  0  0  0  0  0
    5.6716  -16.7553   25.6860 N   0  0  0  0  0  0  0  0  0  0  0  0
    6.9258  -16.2368   23.6778 C   0  0  0  0  0  0  0  0  0  0  0  0
    7.3003  -17.4323   23.7125 O   0  0  0  0  0  0  0  0  0  0  0  0
    7.5644  -15.3277   22.8293 N   0  0  0  0  0  0  0  0  0  0  0  0
    7.2601  -13.8897   22.8015 C   0  0  0  0  0  0  0  0  0  0  0  0
    8.0549  -13.3084   21.6761 C   0  0  0  0  0  0  0  0  0  0  0  0
    8.4851  -14.4759   20.8427 C   0  0  0  0  0  0  0  0  0  0  0  0
    8.6075  -15.6003   21.8864 C   0  0  1  0  0  0  0  0  0  0  0  0
    9.9661  -15.3825   22.4949 C   0  0  0  0  0  0  0  0  0  0  0  0
   10.1357  -14.3481   23.1865 O   0  0  0  0  0  0  0  0  0  0  0  0
   11.0350  -16.2645   22.3299 N   0  0  0  0  0  0  0  0  0  0  0  0
   12.2324  -16.2709   23.1944 C   0  0  1  0  0  0  0  0  0  0  0  0
   12.3456  -17.5773   23.9124 C   0  0  0  0  0  0  0  0  0  0  0  0
   11.3192  -17.7385   24.9726 C   0  0  0  0  0  0  0  0  0  0  0  0
   11.4079  -19.0733   25.6842 C   0  0  0  0  0  0  0  0  0  0  0  0
   10.3667  -19.1862   26.7759 C   0  0  0  0  0  0  0  0  0  0  0  0
   10.3300  -20.4831   27.3784 N   0  0  0  0  0  0  0  0  0  0  0  0
   13.3798  -16.0117   22.3115 C   0  0  0  0  0  0  0  0  0  0  0  0
   14.5035  -15.7745   22.7985 O   0  0  0  0  0  0  0  0  0  0  0  0
   13.2472  -16.0235   20.9375 O   0  0  0  0  0  0  0  0  0  0  0  0
  2  1  1  0
  3  2  1  0
  4  3  1  0
  4  5  1  0
  5  6  1  1
  7  5  1  0
  7  8  2  0
  9  7  1  0
 10  9  1  0
 11 12  1  0
 11 10  1  0
 12 13  1  0
 13  9  1  0
 14 16  1  0
 13 14  1  1
 15 14  2  0
 17 16  1  0
 17 23  1  0
 17 18  1  6
 19 18  1  0
 20 19  1  0
 21 20  1  0
 22 21  1  0
 23 24  2  0
 23 25  1  0
M  END
$$$$
