MPK.pdb
     RDKit          3D

 25 25  0  0  1  0  0  0  0  0999 V2000
    6.7887  -11.8493   19.2208 C   0  0  0  0  0  0  0  0  0  0  0  0
    8.4243  -12.5538   19.4445 S   0  0  0  0  0  0  0  0  0  0  0  0
    8.3984  -13.9597   20.5905 C   0  0  0  0  0  0  0  0  0  0  0  0
    7.1376  -13.9730   21.4209 C   0  0  0  0  0  0  0  0  0  0  0  0
    7.3683  -14.9832   22.5572 C   0  0  2  0  0  0  0  0  0  0  0  0
    6.0465  -15.1303   23.1994 N   0  0  0  0  0  0  0  0  0  0  0  0
    8.3475  -14.4454   23.5333 C   0  0  0  0  0  0  0  0  0  0  0  0
    9.5634  -14.4562   23.2299 O   0  0  0  0  0  0  0  0  0  0  0  0
    7.9387  -13.9325   24.7678 N   0  0  0  0  0  0  0  0  0  0  0  0
    6.5304  -13.7329   25.1392 C   0  0  0  0  0  0  0  0  0  0  0  0
    6.5340  -13.0484   26.4687 C   0  0  0  0  0  0  0  0  0  0  0  0
    7.9239  -12.5195   26.6448 C   0  0  0  0  0  0  0  0  0  0  0  0
    8.7690  -13.5452   25.8687 C   0  0  1  0  0  0  0  0  0  0  0  0
    8.9490  -14.6770   26.8434 C   0  0  0  0  0  0  0  0  0  0  0  0
    7.9164  -15.2620   27.2539 O   0  0  0  0  0  0  0  0  0  0  0  0
   10.1938  -15.1036   27.3082 N   0  0  0  0  0  0  0  0  0  0  0  0
   10.4964  -16.5023   27.6729 C   0  0  1  0  0  0  0  0  0  0  0  0
   11.6585  -17.0049   26.8779 C   0  0  0  0  0  0  0  0  0  0  0  0
   11.2565  -17.5413   25.5534 C   0  0  0  0  0  0  0  0  0  0  0  0
   12.4385  -17.9327   24.6899 C   0  0  0  0  0  0  0  0  0  0  0  0
   11.9877  -18.5798   23.3989 C   0  0  0  0  0  0  0  0  0  0  0  0
   13.0786  -18.9478   22.5499 N   0  0  0  0  0  0  0  0  0  0  0  0
   10.7610  -16.5032   29.1198 C   0  0  0  0  0  0  0  0  0  0  0  0
   10.9551  -17.5793   29.7201 O   0  0  0  0  0  0  0  0  0  0  0  0
   10.8012  -15.3288   29.8443 O   0  0  0  0  0  0  0  0  0  0  0  0
  2  1  1  0
  3  2  1  0
  4  3  1  0
  4  5  1  0
  5  6  1  1
  7  5  1  0
  7  8  2  0
  9  7  1  0
 10  9  1  0
 11 12  1  0
 11 10  1  0
 12 13  1  0
 13  9  1  0
 14 16  1  0
 13 14  1  1
 15 14  2  0
 17 16  1  0
 17 23  1  0
 17 18  1  6
 19 18  1  0
 20 19  1  0
 21 20  1  0
 22 21  1  0
 23 24  2  0
 23 25  1  0
M  END
$$$$
