MPK.pdb
     RDKit          3D

 25 25  0  0  1  0  0  0  0  0999 V2000
    8.5252  -13.1712   27.9192 C   0  0  0  0  0  0  0  0  0  0  0  0
    7.0843  -12.5061   27.0807 S   0  0  0  0  0  0  0  0  0  0  0  0
    6.6018  -13.5287   25.6623 C   0  0  0  0  0  0  0  0  0  0  0  0
    6.9769  -14.9762   25.8711 C   0  0  0  0  0  0  0  0  0  0  0  0
    6.2299  -15.7849   24.7974 C   0  0  2  0  0  0  0  0  0  0  0  0
    5.7025  -16.9619   25.5168 N   0  0  0  0  0  0  0  0  0  0  0  0
    7.1692  -16.2210   23.7351 C   0  0  0  0  0  0  0  0  0  0  0  0
    7.5481  -17.4155   23.7238 O   0  0  0  0  0  0  0  0  0  0  0  0
    7.6292  -15.3316   22.7596 N   0  0  0  0  0  0  0  0  0  0  0  0
    7.3633  -13.8860   22.7870 C   0  0  0  0  0  0  0  0  0  0  0  0
    7.9067  -13.3293   21.5099 C   0  0  0  0  0  0  0  0  0  0  0  0
    8.1134  -14.5100   20.6124 C   0  0  0  0  0  0  0  0  0  0  0  0
    8.4328  -15.6346   21.6133 C   0  0  1  0  0  0  0  0  0  0  0  0
    9.8969  -15.4520   21.9074 C   0  0  0  0  0  0  0  0  0  0  0  0
   10.7125  -15.7128   20.9888 O   0  0  0  0  0  0  0  0  0  0  0  0
   10.3871  -15.0116   23.1375 N   0  0  0  0  0  0  0  0  0  0  0  0
   11.5343  -15.6311   23.8313 C   0  0  1  0  0  0  0  0  0  0  0  0
   11.0532  -16.5791   24.8824 C   0  0  0  0  0  0  0  0  0  0  0  0
   12.1457  -17.4114   25.4456 C   0  0  0  0  0  0  0  0  0  0  0  0
   11.6610  -18.3966   26.4899 C   0  0  0  0  0  0  0  0  0  0  0  0
   12.7917  -19.2653   26.9950 C   0  0  0  0  0  0  0  0  0  0  0  0
   12.4303  -20.0375   28.1437 N   0  0  0  0  0  0  0  0  0  0  0  0
   12.3326  -16.2994   22.7924 C   0  0  0  0  0  0  0  0  0  0  0  0
   13.4889  -15.9050   22.5407 O   0  0  0  0  0  0  0  0  0  0  0  0
   11.8311  -17.3677   22.0760 O   0  0  0  0  0  0  0  0  0  0  0  0
  2  1  1  0
  3  2  1  0
  4  3  1  0
  4  5  1  0
  5  6  1  1
  7  5  1  0
  7  8  2  0
  9  7  1  0
 10  9  1  0
 11 12  1  0
 11 10  1  0
 12 13  1  0
 13  9  1  0
 14 16  1  0
 13 14  1  1
 15 14  2  0
 17 16  1  0
 17 23  1  0
 17 18  1  1
 19 18  1  0
 20 19  1  0
 21 20  1  0
 22 21  1  0
 23 24  2  0
 23 25  1  0
M  END
$$$$
