MPK.pdb
     RDKit          3D

 25 25  0  0  1  0  0  0  0  0999 V2000
    9.0734  -12.0705   27.5652 C   0  0  0  0  0  0  0  0  0  0  0  0
    9.3898  -13.8366   27.5153 S   0  0  0  0  0  0  0  0  0  0  0  0
    7.9949  -14.7483   26.7986 C   0  0  0  0  0  0  0  0  0  0  0  0
    7.3742  -13.9939   25.6475 C   0  0  0  0  0  0  0  0  0  0  0  0
    6.2013  -14.8495   25.1405 C   0  0  2  0  0  0  0  0  0  0  0  0
    5.8221  -15.6854   26.2974 N   0  0  0  0  0  0  0  0  0  0  0  0
    6.6413  -15.7119   24.0165 C   0  0  0  0  0  0  0  0  0  0  0  0
    6.3528  -16.9311   24.0482 O   0  0  0  0  0  0  0  0  0  0  0  0
    7.3612  -15.1910   22.9372 N   0  0  0  0  0  0  0  0  0  0  0  0
    7.9652  -13.8507   22.9339 C   0  0  0  0  0  0  0  0  0  0  0  0
    8.5172  -13.6363   21.5608 C   0  0  0  0  0  0  0  0  0  0  0  0
    7.8768  -14.6827   20.7021 C   0  0  0  0  0  0  0  0  0  0  0  0
    7.6600  -15.8384   21.6951 C   0  0  1  0  0  0  0  0  0  0  0  0
    8.9962  -16.5280   21.7446 C   0  0  0  0  0  0  0  0  0  0  0  0
    9.4002  -17.0913   20.6975 O   0  0  0  0  0  0  0  0  0  0  0  0
    9.7994  -16.5714   22.8850 N   0  0  0  0  0  0  0  0  0  0  0  0
   11.1058  -17.2580   22.9409 C   0  0  1  0  0  0  0  0  0  0  0  0
   11.9964  -16.7663   21.8454 C   0  0  0  0  0  0  0  0  0  0  0  0
   11.9648  -17.6408   20.6463 C   0  0  0  0  0  0  0  0  0  0  0  0
   13.0709  -17.3305   19.6582 C   0  0  0  0  0  0  0  0  0  0  0  0
   12.9705  -18.2030   18.4265 C   0  0  0  0  0  0  0  0  0  0  0  0
   13.8712  -17.8065   17.3882 N   0  0  0  0  0  0  0  0  0  0  0  0
   11.6562  -16.9891   24.2781 C   0  0  0  0  0  0  0  0  0  0  0  0
   12.7431  -17.4958   24.6213 O   0  0  0  0  0  0  0  0  0  0  0  0
   10.9940  -16.1791   25.1788 O   0  0  0  0  0  0  0  0  0  0  0  0
  2  1  1  0
  3  2  1  0
  4  3  1  0
  4  5  1  0
  5  6  1  1
  7  5  1  0
  7  8  2  0
  9  7  1  0
 10  9  1  0
 11 12  1  0
 11 10  1  0
 12 13  1  0
 13  9  1  0
 14 16  1  0
 13 14  1  1
 15 14  2  0
 17 16  1  0
 17 23  1  0
 17 18  1  6
 19 18  1  0
 20 19  1  0
 21 20  1  0
 22 21  1  0
 23 24  2  0
 23 25  1  0
M  END
$$$$
