MPK.pdb
     RDKit          3D

 25 25  0  0  1  0  0  0  0  0999 V2000
    7.4624  -12.0736   28.1826 C   0  0  0  0  0  0  0  0  0  0  0  0
    6.7686  -12.4835   26.5787 S   0  0  0  0  0  0  0  0  0  0  0  0
    6.7137  -14.2766   26.3097 C   0  0  0  0  0  0  0  0  0  0  0  0
    6.1391  -14.6151   24.9552 C   0  0  0  0  0  0  0  0  0  0  0  0
    6.2183  -16.1442   24.8119 C   0  0  2  0  0  0  0  0  0  0  0  0
    6.7366  -16.6142   26.1124 N   0  0  0  0  0  0  0  0  0  0  0  0
    7.1630  -16.5114   23.7287 C   0  0  0  0  0  0  0  0  0  0  0  0
    7.5857  -17.6901   23.6764 O   0  0  0  0  0  0  0  0  0  0  0  0
    7.5809  -15.5754   22.7782 N   0  0  0  0  0  0  0  0  0  0  0  0
    7.0988  -14.1872   22.7376 C   0  0  0  0  0  0  0  0  0  0  0  0
    7.6794  -13.5712   21.5049 C   0  0  0  0  0  0  0  0  0  0  0  0
    8.1522  -14.7184   20.6665 C   0  0  0  0  0  0  0  0  0  0  0  0
    8.5336  -15.7674   21.7260 C   0  0  1  0  0  0  0  0  0  0  0  0
    9.9158  -15.3593   22.1578 C   0  0  0  0  0  0  0  0  0  0  0  0
   10.0186  -14.3662   22.9195 O   0  0  0  0  0  0  0  0  0  0  0  0
   11.0760  -16.0234   21.7575 N   0  0  0  0  0  0  0  0  0  0  0  0
   12.1905  -16.3477   22.6706 C   0  0  1  0  0  0  0  0  0  0  0  0
   11.6901  -17.1338   23.8397 C   0  0  0  0  0  0  0  0  0  0  0  0
   11.7399  -18.5990   23.6075 C   0  0  0  0  0  0  0  0  0  0  0  0
   11.2868  -19.4042   24.8085 C   0  0  0  0  0  0  0  0  0  0  0  0
   11.4737  -20.8879   24.5797 C   0  0  0  0  0  0  0  0  0  0  0  0
   11.1107  -21.6768   25.7165 N   0  0  0  0  0  0  0  0  0  0  0  0
   13.1755  -17.0919   21.8712 C   0  0  0  0  0  0  0  0  0  0  0  0
   12.8193  -17.6871   20.8344 O   0  0  0  0  0  0  0  0  0  0  0  0
   14.5042  -17.1519   22.2410 O   0  0  0  0  0  0  0  0  0  0  0  0
  2  1  1  0
  3  2  1  0
  4  3  1  0
  4  5  1  0
  5  6  1  1
  7  5  1  0
  7  8  2  0
  9  7  1  0
 10  9  1  0
 11 12  1  0
 11 10  1  0
 12 13  1  0
 13  9  1  0
 14 16  1  0
 13 14  1  1
 15 14  2  0
 17 16  1  0
 17 23  1  0
 17 18  1  1
 19 18  1  0
 20 19  1  0
 21 20  1  0
 22 21  1  0
 23 24  2  0
 23 25  1  0
M  END
$$$$
