MPK.pdb
     RDKit          3D

 25 25  0  0  1  0  0  0  0  0999 V2000
    6.4431  -12.7337   26.9753 C   0  0  0  0  0  0  0  0  0  0  0  0
    7.7965  -13.8822   26.7095 S   0  0  0  0  0  0  0  0  0  0  0  0
    7.2138  -15.4607   26.0317 C   0  0  0  0  0  0  0  0  0  0  0  0
    6.1414  -15.2527   24.9895 C   0  0  0  0  0  0  0  0  0  0  0  0
    6.0205  -16.5734   24.2110 C   0  0  2  0  0  0  0  0  0  0  0  0
    6.1553  -17.6256   25.2386 N   0  0  0  0  0  0  0  0  0  0  0  0
    7.1194  -16.6899   23.2211 C   0  0  0  0  0  0  0  0  0  0  0  0
    7.5534  -17.8314   22.9394 O   0  0  0  0  0  0  0  0  0  0  0  0
    7.6682  -15.5611   22.6058 N   0  0  0  0  0  0  0  0  0  0  0  0
    7.3856  -14.1834   23.0341 C   0  0  0  0  0  0  0  0  0  0  0  0
    8.0518  -13.2844   22.0421 C   0  0  0  0  0  0  0  0  0  0  0  0
    8.3625  -14.1500   20.8602 C   0  0  0  0  0  0  0  0  0  0  0  0
    8.5887  -15.5271   21.5090 C   0  0  1  0  0  0  0  0  0  0  0  0
   10.0128  -15.4701   21.9911 C   0  0  0  0  0  0  0  0  0  0  0  0
   10.9074  -15.2438   21.1394 O   0  0  0  0  0  0  0  0  0  0  0  0
   10.3834  -15.6543   23.3238 N   0  0  0  0  0  0  0  0  0  0  0  0
   11.7776  -15.5759   23.8045 C   0  0  1  0  0  0  0  0  0  0  0  0
   11.8082  -15.5230   25.2983 C   0  0  0  0  0  0  0  0  0  0  0  0
   11.3023  -16.7696   25.9255 C   0  0  0  0  0  0  0  0  0  0  0  0
   11.1830  -16.6676   27.4326 C   0  0  0  0  0  0  0  0  0  0  0  0
   10.6988  -17.9673   28.0365 C   0  0  0  0  0  0  0  0  0  0  0  0
   10.6113  -17.9199   29.4635 N   0  0  0  0  0  0  0  0  0  0  0  0
   12.4659  -16.7601   23.2684 C   0  0  0  0  0  0  0  0  0  0  0  0
   13.6976  -16.8895   23.4177 O   0  0  0  0  0  0  0  0  0  0  0  0
   11.7773  -17.7483   22.5938 O   0  0  0  0  0  0  0  0  0  0  0  0
  2  1  1  0
  3  2  1  0
  4  3  1  0
  4  5  1  0
  5  6  1  1
  7  5  1  0
  7  8  2  0
  9  7  1  0
 10  9  1  0
 11 12  1  0
 11 10  1  0
 12 13  1  0
 13  9  1  0
 14 16  1  0
 13 14  1  1
 15 14  2  0
 17 16  1  0
 17 23  1  0
 17 18  1  1
 19 18  1  0
 20 19  1  0
 21 20  1  0
 22 21  1  0
 23 24  2  0
 23 25  1  0
M  END
$$$$
