MPK.pdb
     RDKit          3D

 25 25  0  0  1  0  0  0  0  0999 V2000
    6.8131  -10.9684   26.0994 C   0  0  0  0  0  0  0  0  0  0  0  0
    6.2313  -12.2088   27.2588 S   0  0  0  0  0  0  0  0  0  0  0  0
    5.7291  -13.7337   26.4144 C   0  0  0  0  0  0  0  0  0  0  0  0
    6.8480  -14.2910   25.5676 C   0  0  0  0  0  0  0  0  0  0  0  0
    6.2745  -15.5092   24.8249 C   0  0  2  0  0  0  0  0  0  0  0  0
    5.9947  -16.4960   25.8875 N   0  0  0  0  0  0  0  0  0  0  0  0
    7.2789  -16.0555   23.8796 C   0  0  0  0  0  0  0  0  0  0  0  0
    7.7463  -17.1981   24.0962 O   0  0  0  0  0  0  0  0  0  0  0  0
    7.7038  -15.3253   22.7658 N   0  0  0  0  0  0  0  0  0  0  0  0
    7.2347  -13.9666   22.4573 C   0  0  0  0  0  0  0  0  0  0  0  0
    7.8188  -13.6065   21.1286 C   0  0  0  0  0  0  0  0  0  0  0  0
    8.2792  -14.8988   20.5282 C   0  0  0  0  0  0  0  0  0  0  0  0
    8.6526  -15.7265   21.7708 C   0  0  1  0  0  0  0  0  0  0  0  0
   10.0394  -15.2557   22.1154 C   0  0  0  0  0  0  0  0  0  0  0  0
   10.1624  -14.0947   22.5778 O   0  0  0  0  0  0  0  0  0  0  0  0
   11.1829  -16.0380   21.9480 N   0  0  0  0  0  0  0  0  0  0  0  0
   12.0907  -16.4084   23.0525 C   0  0  1  0  0  0  0  0  0  0  0  0
   11.3564  -17.2083   24.0801 C   0  0  0  0  0  0  0  0  0  0  0  0
   12.2468  -17.7155   25.1541 C   0  0  0  0  0  0  0  0  0  0  0  0
   11.5060  -18.5073   26.2124 C   0  0  0  0  0  0  0  0  0  0  0  0
   12.4381  -18.9625   27.3135 C   0  0  0  0  0  0  0  0  0  0  0  0
   11.7498  -19.5729   28.4090 N   0  0  0  0  0  0  0  0  0  0  0  0
   13.1992  -17.1575   22.4416 C   0  0  0  0  0  0  0  0  0  0  0  0
   14.3486  -17.0758   22.9196 O   0  0  0  0  0  0  0  0  0  0  0  0
   13.0015  -17.9614   21.3368 O   0  0  0  0  0  0  0  0  0  0  0  0
  2  1  1  0
  3  2  1  0
  4  3  1  0
  4  5  1  0
  5  6  1  1
  7  5  1  0
  7  8  2  0
  9  7  1  0
 10  9  1  0
 11 12  1  0
 11 10  1  0
 12 13  1  0
 13  9  1  0
 14 16  1  0
 13 14  1  1
 15 14  2  0
 17 16  1  0
 17 23  1  0
 17 18  1  1
 19 18  1  0
 20 19  1  0
 21 20  1  0
 22 21  1  0
 23 24  2  0
 23 25  1  0
M  END
$$$$
