MPK.pdb
     RDKit          3D

 25 25  0  0  1  0  0  0  0  0999 V2000
    5.9110  -11.5457   26.8678 C   0  0  0  0  0  0  0  0  0  0  0  0
    7.3604  -12.6043   26.8749 S   0  0  0  0  0  0  0  0  0  0  0  0
    6.9581  -14.2964   26.3595 C   0  0  0  0  0  0  0  0  0  0  0  0
    6.1889  -14.3106   25.0604 C   0  0  0  0  0  0  0  0  0  0  0  0
    5.9361  -15.7872   24.7135 C   0  0  2  0  0  0  0  0  0  0  0  0
    6.0362  -16.4962   26.0051 N   0  0  0  0  0  0  0  0  0  0  0  0
    6.9793  -16.2832   23.7825 C   0  0  0  0  0  0  0  0  0  0  0  0
    7.2725  -17.5015   23.8054 O   0  0  0  0  0  0  0  0  0  0  0  0
    7.6289  -15.4237   22.8918 N   0  0  0  0  0  0  0  0  0  0  0  0
    7.3574  -13.9812   22.8098 C   0  0  0  0  0  0  0  0  0  0  0  0
    8.1527  -13.4638   21.6539 C   0  0  0  0  0  0  0  0  0  0  0  0
    8.5466  -14.6731   20.8634 C   0  0  0  0  0  0  0  0  0  0  0  0
    8.6548  -15.7578   21.9498 C   0  0  1  0  0  0  0  0  0  0  0  0
   10.0249  -15.5479   22.5351 C   0  0  0  0  0  0  0  0  0  0  0  0
   10.2199  -14.5009   23.2004 O   0  0  0  0  0  0  0  0  0  0  0  0
   11.0775  -16.4502   22.3761 N   0  0  0  0  0  0  0  0  0  0  0  0
   12.2739  -16.4735   23.2417 C   0  0  1  0  0  0  0  0  0  0  0  0
   12.4025  -17.8040   23.9114 C   0  0  0  0  0  0  0  0  0  0  0  0
   11.5117  -17.9392   25.0911 C   0  0  0  0  0  0  0  0  0  0  0  0
   11.6364  -19.2853   25.7755 C   0  0  0  0  0  0  0  0  0  0  0  0
   10.7391  -19.3711   26.9905 C   0  0  0  0  0  0  0  0  0  0  0  0
   10.8144  -20.6383   27.6500 N   0  0  0  0  0  0  0  0  0  0  0  0
   13.4190  -16.1680   22.3707 C   0  0  0  0  0  0  0  0  0  0  0  0
   13.3315  -16.3393   21.1382 O   0  0  0  0  0  0  0  0  0  0  0  0
   14.6070  -15.6895   22.8860 O   0  0  0  0  0  0  0  0  0  0  0  0
  2  1  1  0
  3  2  1  0
  4  3  1  0
  4  5  1  0
  5  6  1  1
  7  5  1  0
  7  8  2  0
  9  7  1  0
 10  9  1  0
 11 12  1  0
 11 10  1  0
 12 13  1  0
 13  9  1  0
 14 16  1  0
 13 14  1  1
 15 14  2  0
 17 16  1  0
 17 23  1  0
 17 18  1  6
 19 18  1  0
 20 19  1  0
 21 20  1  0
 22 21  1  0
 23 24  2  0
 23 25  1  0
M  END
$$$$
