MPK.pdb
     RDKit          3D

 25 25  0  0  1  0  0  0  0  0999 V2000
    5.1202  -12.7363   26.0824 C   0  0  0  0  0  0  0  0  0  0  0  0
    6.5683  -11.8425   25.5116 S   0  0  0  0  0  0  0  0  0  0  0  0
    7.7801  -12.9505   24.7407 C   0  0  0  0  0  0  0  0  0  0  0  0
    7.3149  -13.4203   23.3834 C   0  0  0  0  0  0  0  0  0  0  0  0
    8.3099  -14.4995   22.9250 C   0  0  2  0  0  0  0  0  0  0  0  0
    7.7877  -14.9589   21.6222 N   0  0  0  0  0  0  0  0  0  0  0  0
    8.3265  -15.6271   23.8889 C   0  0  0  0  0  0  0  0  0  0  0  0
    8.3867  -15.3676   25.1136 O   0  0  0  0  0  0  0  0  0  0  0  0
    8.2748  -16.9556   23.4568 N   0  0  0  0  0  0  0  0  0  0  0  0
    8.2183  -17.3485   22.0413 C   0  0  0  0  0  0  0  0  0  0  0  0
    8.0382  -18.8328   22.0187 C   0  0  0  0  0  0  0  0  0  0  0  0
    7.6017  -19.2059   23.4018 C   0  0  0  0  0  0  0  0  0  0  0  0
    8.2930  -18.1368   24.2666 C   0  0  1  0  0  0  0  0  0  0  0  0
    9.6927  -18.6608   24.4391 C   0  0  0  0  0  0  0  0  0  0  0  0
   10.4336  -18.6879   23.4255 O   0  0  0  0  0  0  0  0  0  0  0  0
   10.2018  -19.1130   25.6572 N   0  0  0  0  0  0  0  0  0  0  0  0
   11.4695  -18.6334   26.2436 C   0  0  1  0  0  0  0  0  0  0  0  0
   11.4422  -17.1457   26.3898 C   0  0  0  0  0  0  0  0  0  0  0  0
   10.7706  -16.7057   27.6383 C   0  0  0  0  0  0  0  0  0  0  0  0
   10.7507  -15.1993   27.8004 C   0  0  0  0  0  0  0  0  0  0  0  0
   10.0386  -14.7909   29.0711 C   0  0  0  0  0  0  0  0  0  0  0  0
   10.0961  -13.3823   29.3136 N   0  0  0  0  0  0  0  0  0  0  0  0
   11.6143  -19.3239   27.5341 C   0  0  0  0  0  0  0  0  0  0  0  0
   12.6867  -19.2497   28.1671 O   0  0  0  0  0  0  0  0  0  0  0  0
   10.5813  -20.0638   28.0738 O   0  0  0  0  0  0  0  0  0  0  0  0
  2  1  1  0
  3  2  1  0
  4  3  1  0
  4  5  1  0
  5  6  1  6
  7  5  1  0
  7  8  2  0
  9  7  1  0
 10  9  1  0
 11 12  1  0
 11 10  1  0
 12 13  1  0
 13  9  1  0
 14 16  1  0
 13 14  1  6
 15 14  2  0
 17 16  1  0
 17 23  1  0
 17 18  1  1
 19 18  1  0
 20 19  1  0
 21 20  1  0
 22 21  1  0
 23 24  2  0
 23 25  1  0
M  END
$$$$
