MPK.pdb
     RDKit          3D

 25 25  0  0  1  0  0  0  0  0999 V2000
    9.2084  -13.3233   27.7173 C   0  0  0  0  0  0  0  0  0  0  0  0
    7.7792  -12.8538   26.7383 S   0  0  0  0  0  0  0  0  0  0  0  0
    7.2342  -14.2039   25.6561 C   0  0  0  0  0  0  0  0  0  0  0  0
    6.0719  -13.7829   24.7894 C   0  0  0  0  0  0  0  0  0  0  0  0
    5.6253  -15.0327   24.0126 C   0  0  2  0  0  0  0  0  0  0  0  0
    5.1517  -15.9685   25.0523 N   0  0  0  0  0  0  0  0  0  0  0  0
    6.7748  -15.6247   23.2853 C   0  0  0  0  0  0  0  0  0  0  0  0
    7.0592  -16.8277   23.4920 O   0  0  0  0  0  0  0  0  0  0  0  0
    7.5330  -14.8713   22.3843 N   0  0  0  0  0  0  0  0  0  0  0  0
    7.4943  -13.4032   22.3181 C   0  0  0  0  0  0  0  0  0  0  0  0
    8.3352  -13.0080   21.1464 C   0  0  0  0  0  0  0  0  0  0  0  0
    8.5116  -14.2566   20.3388 C   0  0  0  0  0  0  0  0  0  0  0  0
    8.4699  -15.3556   21.4153 C   0  0  1  0  0  0  0  0  0  0  0  0
    9.8691  -15.3738   21.9680 C   0  0  0  0  0  0  0  0  0  0  0  0
   10.2305  -14.3978   22.6707 O   0  0  0  0  0  0  0  0  0  0  0  0
   10.7744  -16.4110   21.7402 N   0  0  0  0  0  0  0  0  0  0  0  0
   11.9115  -16.7162   22.6319 C   0  0  1  0  0  0  0  0  0  0  0  0
   12.0342  -18.1933   22.8274 C   0  0  0  0  0  0  0  0  0  0  0  0
   10.8773  -18.7723   23.5552 C   0  0  0  0  0  0  0  0  0  0  0  0
   10.8849  -20.2875   23.5690 C   0  0  0  0  0  0  0  0  0  0  0  0
    9.6963  -20.8378   24.3259 C   0  0  0  0  0  0  0  0  0  0  0  0
    9.5471  -22.2526   24.1759 N   0  0  0  0  0  0  0  0  0  0  0  0
   13.1021  -16.1309   21.9971 C   0  0  0  0  0  0  0  0  0  0  0  0
   14.1695  -16.0361   22.6358 O   0  0  0  0  0  0  0  0  0  0  0  0
   13.0722  -15.6759   20.6941 O   0  0  0  0  0  0  0  0  0  0  0  0
  2  1  1  0
  3  2  1  0
  4  3  1  0
  4  5  1  0
  5  6  1  1
  7  5  1  0
  7  8  2  0
  9  7  1  0
 10  9  1  0
 11 12  1  0
 11 10  1  0
 12 13  1  0
 13  9  1  0
 14 16  1  0
 13 14  1  1
 15 14  2  0
 17 16  1  0
 17 23  1  0
 17 18  1  6
 19 18  1  0
 20 19  1  0
 21 20  1  0
 22 21  1  0
 23 24  2  0
 23 25  1  0
M  END
$$$$
