MPK.pdb
     RDKit          3D

 25 25  0  0  1  0  0  0  0  0999 V2000
    7.2200  -12.0715   25.8008 C   0  0  0  0  0  0  0  0  0  0  0  0
    7.3310  -13.4856   26.9006 S   0  0  0  0  0  0  0  0  0  0  0  0
    7.2236  -15.0522   25.9925 C   0  0  0  0  0  0  0  0  0  0  0  0
    5.8907  -15.1988   25.2987 C   0  0  0  0  0  0  0  0  0  0  0  0
    5.8923  -16.5826   24.6278 C   0  0  2  0  0  0  0  0  0  0  0  0
    5.8928  -17.5415   25.7510 N   0  0  0  0  0  0  0  0  0  0  0  0
    7.1195  -16.7582   23.8129 C   0  0  0  0  0  0  0  0  0  0  0  0
    7.7529  -17.8354   23.9081 O   0  0  0  0  0  0  0  0  0  0  0  0
    7.5716  -15.7543   22.9514 N   0  0  0  0  0  0  0  0  0  0  0  0
    6.9688  -14.4157   22.8756 C   0  0  0  0  0  0  0  0  0  0  0  0
    7.6506  -13.7052   21.7502 C   0  0  0  0  0  0  0  0  0  0  0  0
    8.3413  -14.7735   20.9601 C   0  0  0  0  0  0  0  0  0  0  0  0
    8.6731  -15.8203   22.0383 C   0  0  1  0  0  0  0  0  0  0  0  0
    9.9378  -15.3027   22.6678 C   0  0  0  0  0  0  0  0  0  0  0  0
    9.8597  -14.2547   23.3552 O   0  0  0  0  0  0  0  0  0  0  0  0
   11.1794  -15.9238   22.5263 N   0  0  0  0  0  0  0  0  0  0  0  0
   12.1229  -16.1322   23.6433 C   0  0  1  0  0  0  0  0  0  0  0  0
   11.8162  -17.4147   24.3477 C   0  0  0  0  0  0  0  0  0  0  0  0
   12.7823  -17.7164   25.4336 C   0  0  0  0  0  0  0  0  0  0  0  0
   12.5446  -19.0665   26.0790 C   0  0  0  0  0  0  0  0  0  0  0  0
   13.5292  -19.3234   27.1984 C   0  0  0  0  0  0  0  0  0  0  0  0
   13.3806  -20.6199   27.7842 N   0  0  0  0  0  0  0  0  0  0  0  0
   13.4699  -16.1218   23.0528 C   0  0  0  0  0  0  0  0  0  0  0  0
   13.6396  -16.4919   21.8737 O   0  0  0  0  0  0  0  0  0  0  0  0
   14.5696  -15.7076   23.7772 O   0  0  0  0  0  0  0  0  0  0  0  0
  2  1  1  0
  3  2  1  0
  4  3  1  0
  4  5  1  0
  5  6  1  1
  7  5  1  0
  7  8  2  0
  9  7  1  0
 10  9  1  0
 11 12  1  0
 11 10  1  0
 12 13  1  0
 13  9  1  0
 14 16  1  0
 13 14  1  1
 15 14  2  0
 17 16  1  0
 17 23  1  0
 17 18  1  6
 19 18  1  0
 20 19  1  0
 21 20  1  0
 22 21  1  0
 23 24  2  0
 23 25  1  0
M  END
$$$$
