MPK.pdb
     RDKit          3D

 25 25  0  0  1  0  0  0  0  0999 V2000
    7.0328  -10.5239   26.0229 C   0  0  0  0  0  0  0  0  0  0  0  0
    6.4745  -11.7825   27.1743 S   0  0  0  0  0  0  0  0  0  0  0  0
    5.7844  -13.2218   26.3125 C   0  0  0  0  0  0  0  0  0  0  0  0
    6.8494  -13.9728   25.5502 C   0  0  0  0  0  0  0  0  0  0  0  0
    6.1462  -15.1492   24.8528 C   0  0  2  0  0  0  0  0  0  0  0  0
    5.7385  -16.0454   25.9535 N   0  0  0  0  0  0  0  0  0  0  0  0
    7.0915  -15.8530   23.9518 C   0  0  0  0  0  0  0  0  0  0  0  0
    7.2842  -17.0792   24.1253 O   0  0  0  0  0  0  0  0  0  0  0  0
    7.7591  -15.1780   22.9256 N   0  0  0  0  0  0  0  0  0  0  0  0
    7.6215  -13.7356   22.6773 C   0  0  0  0  0  0  0  0  0  0  0  0
    8.3834  -13.4452   21.4238 C   0  0  0  0  0  0  0  0  0  0  0  0
    8.6064  -14.7748   20.7717 C   0  0  0  0  0  0  0  0  0  0  0  0
    8.6832  -15.7265   21.9787 C   0  0  1  0  0  0  0  0  0  0  0  0
   10.1031  -15.5900   22.4571 C   0  0  0  0  0  0  0  0  0  0  0  0
   10.4074  -14.5479   23.0884 O   0  0  0  0  0  0  0  0  0  0  0  0
   11.0871  -16.5544   22.2359 N   0  0  0  0  0  0  0  0  0  0  0  0
   12.1952  -16.8240   23.1742 C   0  0  1  0  0  0  0  0  0  0  0  0
   12.0770  -18.2062   23.7316 C   0  0  0  0  0  0  0  0  0  0  0  0
   11.4704  -18.2271   25.0862 C   0  0  0  0  0  0  0  0  0  0  0  0
   11.2938  -19.6287   25.6341 C   0  0  0  0  0  0  0  0  0  0  0  0
   10.5718  -19.6141   26.9634 C   0  0  0  0  0  0  0  0  0  0  0  0
   10.1964  -20.9210   27.4077 N   0  0  0  0  0  0  0  0  0  0  0  0
   13.4379  -16.6280   22.4123 C   0  0  0  0  0  0  0  0  0  0  0  0
   14.5307  -16.5429   23.0077 O   0  0  0  0  0  0  0  0  0  0  0  0
   13.4298  -16.5339   21.0350 O   0  0  0  0  0  0  0  0  0  0  0  0
  2  1  1  0
  3  2  1  0
  4  3  1  0
  4  5  1  0
  5  6  1  1
  7  5  1  0
  7  8  2  0
  9  7  1  0
 10  9  1  0
 11 12  1  0
 11 10  1  0
 12 13  1  0
 13  9  1  0
 14 16  1  0
 13 14  1  1
 15 14  2  0
 17 16  1  0
 17 23  1  0
 17 18  1  6
 19 18  1  0
 20 19  1  0
 21 20  1  0
 22 21  1  0
 23 24  2  0
 23 25  1  0
M  END
$$$$
