VDY.pdb
     RDKit          3D

 28 28  0  0  1  0  0  0  0  0999 V2000
   19.1699  -19.2369  -15.7450 C   0  0  0  0  0  0  0  0  0  0  0  0
   19.9072  -20.2609  -14.9440 C   0  0  1  0  0  0  0  0  0  0  0  0
   20.7254  -21.1817  -15.8336 C   0  0  0  0  0  0  0  0  0  0  0  0
   20.8913  -19.6317  -13.9493 C   0  0  2  0  0  0  0  0  0  0  0  0
   21.5348  -18.5567  -14.6536 N   0  0  0  0  0  0  0  0  0  0  0  0
   21.8857  -20.6718  -13.5674 C   0  0  0  0  0  0  0  0  0  0  0  0
   21.5580  -21.7267  -12.9944 O   0  0  0  0  0  0  0  0  0  0  0  0
   23.2693  -20.4794  -13.8561 N   0  0  0  0  0  0  0  0  0  0  0  0
   24.2736  -21.4552  -13.4055 C   0  0  1  0  0  0  0  0  0  0  0  0
   25.1478  -21.7105  -14.6429 C   0  0  0  0  0  0  0  0  0  0  0  0
   24.5210  -22.7364  -15.4854 C   0  0  0  0  0  0  0  0  0  0  0  0
   24.2481  -23.8889  -15.0446 O   0  0  0  0  0  0  0  0  0  0  0  0
   25.1499  -20.8001  -12.4124 C   0  0  0  0  0  0  0  0  0  0  0  0
   25.4892  -19.6079  -12.6462 O   0  0  0  0  0  0  0  0  0  0  0  0
   24.1958  -22.4910  -16.8136 O   0  0  0  0  0  0  0  0  0  0  0  0
   29.0768  -18.5257   -4.9108 O   0  0  0  0  0  0  0  0  0  0  0  0
   28.4644  -19.2565   -5.9208 C   0  0  0  0  0  0  0  0  0  0  0  0
   29.1306  -20.2260   -6.6407 C   0  0  0  0  0  0  0  0  0  0  0  0
   28.5167  -20.9366   -7.6305 C   0  0  0  0  0  0  0  0  0  0  0  0
   27.1903  -20.6595   -7.9010 C   0  0  0  0  0  0  0  0  0  0  0  0
   26.4284  -21.3670   -8.9554 C   0  0  0  0  0  0  0  0  0  0  0  0
   26.5586  -20.7619  -10.3226 C   0  0  2  0  0  0  0  0  0  0  0  0
   25.6313  -21.3965  -11.2371 N   0  0  0  0  0  0  0  0  0  0  0  0
   27.9204  -20.8354  -10.8898 C   0  0  0  0  0  0  0  0  0  0  0  0
   28.3336  -21.8996  -11.4103 O   0  0  0  0  0  0  0  0  0  0  0  0
   26.5188  -19.6905   -7.1844 C   0  0  0  0  0  0  0  0  0  0  0  0
   27.1392  -18.9726   -6.1841 C   0  0  0  0  0  0  0  0  0  0  0  0
   28.8207  -19.7729  -10.8946 O   0  0  0  0  0  0  0  0  0  0  0  0
  2  1  1  6
  2  4  1  0
  3  2  1  0
  4  5  1  6
  6  4  1  0
  7  6  2  0
  8  6  1  0
  9 13  1  0
  9  8  1  0
  9 10  1  6
 11 10  1  0
 12 11  2  0
 13 23  1  0
 14 13  2  0
 15 11  1  0
 17 18  2  0
 17 16  1  0
 19 18  1  0
 20 19  2  0
 22 21  1  1
 21 20  1  0
 22 24  1  0
 23 22  1  0
 24 25  2  0
 24 28  1  0
 26 20  1  0
 26 27  2  0
 27 17  1  0
M  END
$$$$
