VDY.pdb
     RDKit          3D

 28 28  0  0  1  0  0  0  0  0999 V2000
   27.3079  -19.1618  -16.6787 C   0  0  0  0  0  0  0  0  0  0  0  0
   28.0036  -18.5633  -15.4991 C   0  0  1  0  0  0  0  0  0  0  0  0
   27.1432  -17.5121  -14.8183 C   0  0  0  0  0  0  0  0  0  0  0  0
   28.3441  -19.6061  -14.4265 C   0  0  2  0  0  0  0  0  0  0  0  0
   28.1964  -20.8885  -15.0585 N   0  0  0  0  0  0  0  0  0  0  0  0
   27.3644  -19.4582  -13.3153 C   0  0  0  0  0  0  0  0  0  0  0  0
   27.2980  -18.4285  -12.6196 O   0  0  0  0  0  0  0  0  0  0  0  0
   26.4576  -20.5177  -13.0149 N   0  0  0  0  0  0  0  0  0  0  0  0
   25.4901  -20.3891  -11.9145 C   0  0  1  0  0  0  0  0  0  0  0  0
   24.4290  -21.4617  -12.2046 C   0  0  0  0  0  0  0  0  0  0  0  0
   23.0949  -20.8491  -12.1975 C   0  0  0  0  0  0  0  0  0  0  0  0
   22.5620  -20.4189  -11.1355 O   0  0  0  0  0  0  0  0  0  0  0  0
   26.1529  -20.7973  -10.6585 C   0  0  0  0  0  0  0  0  0  0  0  0
   27.2048  -21.4854  -10.7636 O   0  0  0  0  0  0  0  0  0  0  0  0
   22.3490  -20.7116  -13.3614 O   0  0  0  0  0  0  0  0  0  0  0  0
   30.0032  -20.0588   -2.9280 O   0  0  0  0  0  0  0  0  0  0  0  0
   29.3265  -19.9084   -4.1317 C   0  0  0  0  0  0  0  0  0  0  0  0
   28.3089  -18.9927   -4.2989 C   0  0  0  0  0  0  0  0  0  0  0  0
   27.6525  -18.8553   -5.4871 C   0  0  0  0  0  0  0  0  0  0  0  0
   28.0356  -19.6671   -6.5375 C   0  0  0  0  0  0  0  0  0  0  0  0
   27.3890  -19.6049   -7.8683 C   0  0  0  0  0  0  0  0  0  0  0  0
   26.4593  -20.7470   -8.1572 C   0  0  2  0  0  0  0  0  0  0  0  0
   25.7067  -20.4814   -9.3663 N   0  0  0  0  0  0  0  0  0  0  0  0
   25.5175  -21.0529   -7.0613 C   0  0  0  0  0  0  0  0  0  0  0  0
   24.3116  -20.7177   -7.1498 O   0  0  0  0  0  0  0  0  0  0  0  0
   29.0526  -20.5852   -6.3761 C   0  0  0  0  0  0  0  0  0  0  0  0
   29.7161  -20.7239   -5.1754 C   0  0  0  0  0  0  0  0  0  0  0  0
   25.8752  -21.7122   -5.8880 O   0  0  0  0  0  0  0  0  0  0  0  0
  2  1  1  6
  2  4  1  0
  3  2  1  0
  4  5  1  6
  6  4  1  0
  7  6  2  0
  8  6  1  0
  9 13  1  0
  9  8  1  0
  9 10  1  6
 11 10  1  0
 12 11  2  0
 13 23  1  0
 14 13  2  0
 15 11  1  0
 17 18  2  0
 17 16  1  0
 19 18  1  0
 20 19  2  0
 22 21  1  1
 21 20  1  0
 22 24  1  0
 23 22  1  0
 24 25  2  0
 24 28  1  0
 26 20  1  0
 26 27  2  0
 27 17  1  0
M  END
$$$$
