VDY.pdb
     RDKit          3D

 28 28  0  0  1  0  0  0  0  0999 V2000
   22.1088  -17.6418  -17.0405 C   0  0  0  0  0  0  0  0  0  0  0  0
   22.4127  -18.9587  -16.4022 C   0  0  1  0  0  0  0  0  0  0  0  0
   23.1809  -19.8709  -17.3439 C   0  0  0  0  0  0  0  0  0  0  0  0
   23.2726  -18.8153  -15.1398 C   0  0  2  0  0  0  0  0  0  0  0  0
   24.4165  -18.0348  -15.5252 N   0  0  0  0  0  0  0  0  0  0  0  0
   23.6931  -20.1784  -14.7137 C   0  0  0  0  0  0  0  0  0  0  0  0
   22.8731  -21.0556  -14.3868 O   0  0  0  0  0  0  0  0  0  0  0  0
   25.0776  -20.5191  -14.6689 N   0  0  0  0  0  0  0  0  0  0  0  0
   25.5116  -21.8367  -14.1800 C   0  0  1  0  0  0  0  0  0  0  0  0
   26.7146  -22.2006  -15.0637 C   0  0  0  0  0  0  0  0  0  0  0  0
   26.2943  -22.2555  -16.4692 C   0  0  0  0  0  0  0  0  0  0  0  0
   26.9365  -21.6644  -17.3831 O   0  0  0  0  0  0  0  0  0  0  0  0
   26.0426  -21.6760  -12.8105 C   0  0  0  0  0  0  0  0  0  0  0  0
   27.2930  -21.7618  -12.6674 O   0  0  0  0  0  0  0  0  0  0  0  0
   25.1658  -22.9618  -16.8662 O   0  0  0  0  0  0  0  0  0  0  0  0
   29.2590  -19.5650   -5.2679 O   0  0  0  0  0  0  0  0  0  0  0  0
   28.6385  -19.6973   -6.5035 C   0  0  0  0  0  0  0  0  0  0  0  0
   27.5988  -18.8828   -6.9002 C   0  0  0  0  0  0  0  0  0  0  0  0
   26.9981  -19.0237   -8.1172 C   0  0  0  0  0  0  0  0  0  0  0  0
   27.4617  -20.0172   -8.9582 C   0  0  0  0  0  0  0  0  0  0  0  0
   26.8807  -20.2607  -10.2984 C   0  0  0  0  0  0  0  0  0  0  0  0
   25.8135  -21.3155  -10.3264 C   0  0  2  0  0  0  0  0  0  0  0  0
   25.2700  -21.4369  -11.6639 N   0  0  0  0  0  0  0  0  0  0  0  0
   24.7069  -21.0822   -9.3764 C   0  0  0  0  0  0  0  0  0  0  0  0
   23.7036  -20.4136   -9.7239 O   0  0  0  0  0  0  0  0  0  0  0  0
   28.5012  -20.8353   -8.5666 C   0  0  0  0  0  0  0  0  0  0  0  0
   29.1083  -20.6927   -7.3370 C   0  0  0  0  0  0  0  0  0  0  0  0
   24.6859  -21.5661   -8.0708 O   0  0  0  0  0  0  0  0  0  0  0  0
  2  1  1  6
  2  4  1  0
  3  2  1  0
  4  5  1  6
  6  4  1  0
  7  6  2  0
  8  6  1  0
  9 13  1  0
  9  8  1  0
  9 10  1  6
 11 10  1  0
 12 11  2  0
 13 23  1  0
 14 13  2  0
 15 11  1  0
 17 18  2  0
 17 16  1  0
 19 18  1  0
 20 19  2  0
 22 21  1  6
 21 20  1  0
 22 24  1  0
 23 22  1  0
 24 25  2  0
 24 28  1  0
 26 20  1  0
 26 27  2  0
 27 17  1  0
M  END
$$$$
