VDY.pdb
     RDKit          3D

 28 28  0  0  1  0  0  0  0  0999 V2000
   31.6267  -24.8562  -17.4762 C   0  0  0  0  0  0  0  0  0  0  0  0
   30.8136  -23.6062  -17.3754 C   0  0  1  0  0  0  0  0  0  0  0  0
   30.5341  -23.0106  -18.7450 C   0  0  0  0  0  0  0  0  0  0  0  0
   29.4475  -23.8453  -16.7194 C   0  0  2  0  0  0  0  0  0  0  0  0
   28.7525  -24.7681  -17.5746 N   0  0  0  0  0  0  0  0  0  0  0  0
   28.7289  -22.5424  -16.6677 C   0  0  0  0  0  0  0  0  0  0  0  0
   29.1650  -21.5672  -16.0294 O   0  0  0  0  0  0  0  0  0  0  0  0
   27.4953  -22.3773  -17.3647 N   0  0  0  0  0  0  0  0  0  0  0  0
   26.6716  -21.1760  -17.1598 C   0  0  1  0  0  0  0  0  0  0  0  0
   26.3567  -20.6759  -18.5780 C   0  0  0  0  0  0  0  0  0  0  0  0
   25.6175  -19.4099  -18.5008 C   0  0  0  0  0  0  0  0  0  0  0  0
   25.4106  -18.8220  -17.4014 O   0  0  0  0  0  0  0  0  0  0  0  0
   25.3793  -21.5890  -16.5743 C   0  0  0  0  0  0  0  0  0  0  0  0
   24.8279  -22.6110  -17.0671 O   0  0  0  0  0  0  0  0  0  0  0  0
   25.1065  -18.7930  -19.6359 O   0  0  0  0  0  0  0  0  0  0  0  0
   18.0794  -21.4188  -11.4811 O   0  0  0  0  0  0  0  0  0  0  0  0
   19.3563  -21.3089  -12.0165 C   0  0  0  0  0  0  0  0  0  0  0  0
   20.1371  -22.4099  -12.2995 C   0  0  0  0  0  0  0  0  0  0  0  0
   21.3901  -22.2876  -12.8254 C   0  0  0  0  0  0  0  0  0  0  0  0
   21.8684  -21.0151  -13.0728 C   0  0  0  0  0  0  0  0  0  0  0  0
   23.2145  -20.7668  -13.6379 C   0  0  0  0  0  0  0  0  0  0  0  0
   23.4125  -21.3098  -15.0229 C   0  0  2  0  0  0  0  0  0  0  0  0
   24.7215  -20.9376  -15.5200 N   0  0  0  0  0  0  0  0  0  0  0  0
   22.3877  -20.8775  -15.9947 C   0  0  0  0  0  0  0  0  0  0  0  0
   22.5458  -19.8227  -16.6556 O   0  0  0  0  0  0  0  0  0  0  0  0
   21.0921  -19.9100  -12.7914 C   0  0  0  0  0  0  0  0  0  0  0  0
   19.8258  -20.0336  -12.2601 C   0  0  0  0  0  0  0  0  0  0  0  0
   21.2104  -21.5768  -16.2482 O   0  0  0  0  0  0  0  0  0  0  0  0
  2  1  1  6
  2  4  1  0
  3  2  1  0
  4  5  1  6
  6  4  1  0
  7  6  2  0
  8  6  1  0
  9 13  1  0
  9  8  1  0
  9 10  1  6
 11 10  1  0
 12 11  2  0
 13 23  1  0
 14 13  2  0
 15 11  1  0
 17 18  2  0
 17 16  1  0
 19 18  1  0
 20 19  2  0
 22 21  1  1
 21 20  1  0
 22 24  1  0
 23 22  1  0
 24 25  2  0
 24 28  1  0
 26 20  1  0
 26 27  2  0
 27 17  1  0
M  END
$$$$
