VDY.pdb
     RDKit          3D

 28 28  0  0  1  0  0  0  0  0999 V2000
   24.3036  -13.4110  -17.5499 C   0  0  0  0  0  0  0  0  0  0  0  0
   23.2922  -12.5568  -16.8562 C   0  0  1  0  0  0  0  0  0  0  0  0
   23.8839  -11.8710  -15.6362 C   0  0  0  0  0  0  0  0  0  0  0  0
   22.7466  -11.4421  -17.7583 C   0  0  2  0  0  0  0  0  0  0  0  0
   23.8911  -10.6929  -18.1999 N   0  0  0  0  0  0  0  0  0  0  0  0
   21.8495  -10.5843  -16.9362 C   0  0  0  0  0  0  0  0  0  0  0  0
   20.7714  -11.0002  -16.4742 O   0  0  0  0  0  0  0  0  0  0  0  0
   22.2127   -9.2345  -16.6521 N   0  0  0  0  0  0  0  0  0  0  0  0
   21.2973   -8.3491  -15.9160 C   0  0  1  0  0  0  0  0  0  0  0  0
   21.8908   -8.2684  -14.5012 C   0  0  0  0  0  0  0  0  0  0  0  0
   20.9824   -7.5146  -13.6284 C   0  0  0  0  0  0  0  0  0  0  0  0
   21.0529   -6.2580  -13.5151 O   0  0  0  0  0  0  0  0  0  0  0  0
   21.4041   -6.9891  -16.4837 C   0  0  0  0  0  0  0  0  0  0  0  0
   22.5528   -6.6037  -16.8347 O   0  0  0  0  0  0  0  0  0  0  0  0
   19.9968   -8.1469  -12.8808 O   0  0  0  0  0  0  0  0  0  0  0  0
   21.0397    0.3516  -20.9266 O   0  0  0  0  0  0  0  0  0  0  0  0
   20.8471   -0.9079  -20.3735 C   0  0  0  0  0  0  0  0  0  0  0  0
   19.5978   -1.4789  -20.2509 C   0  0  0  0  0  0  0  0  0  0  0  0
   19.4228   -2.7173  -19.7055 C   0  0  0  0  0  0  0  0  0  0  0  0
   20.5435   -3.3989  -19.2711 C   0  0  0  0  0  0  0  0  0  0  0  0
   20.4688   -4.7461  -18.6607 C   0  0  0  0  0  0  0  0  0  0  0  0
   20.4764   -4.7452  -17.1600 C   0  0  2  0  0  0  0  0  0  0  0  0
   20.3348   -6.0983  -16.6617 N   0  0  0  0  0  0  0  0  0  0  0  0
   19.4332   -3.8960  -16.5499 C   0  0  0  0  0  0  0  0  0  0  0  0
   18.3712   -4.4072  -16.1196 O   0  0  0  0  0  0  0  0  0  0  0  0
   21.7958   -2.8326  -19.3908 C   0  0  0  0  0  0  0  0  0  0  0  0
   21.9725   -1.5813  -19.9421 C   0  0  0  0  0  0  0  0  0  0  0  0
   19.5383   -2.5148  -16.4069 O   0  0  0  0  0  0  0  0  0  0  0  0
  2  1  1  6
  2  4  1  0
  3  2  1  0
  4  5  1  1
  6  4  1  0
  7  6  2  0
  8  6  1  0
  9 13  1  0
  9  8  1  0
  9 10  1  1
 11 10  1  0
 12 11  2  0
 13 23  1  0
 14 13  2  0
 15 11  1  0
 17 18  2  0
 17 16  1  0
 19 18  1  0
 20 19  2  0
 22 21  1  6
 21 20  1  0
 22 24  1  0
 23 22  1  0
 24 25  2  0
 24 28  1  0
 26 20  1  0
 26 27  2  0
 27 17  1  0
M  END
$$$$
