VDY.pdb
     RDKit          3D

 28 28  0  0  1  0  0  0  0  0999 V2000
   21.8010  -12.1565  -20.7893 C   0  0  0  0  0  0  0  0  0  0  0  0
   20.8334  -11.9520  -19.6688 C   0  0  1  0  0  0  0  0  0  0  0  0
   19.9403  -13.1659  -19.4744 C   0  0  0  0  0  0  0  0  0  0  0  0
   21.5332  -11.7088  -18.3252 C   0  0  2  0  0  0  0  0  0  0  0  0
   21.1420  -12.7968  -17.4713 N   0  0  0  0  0  0  0  0  0  0  0  0
   21.0394  -10.4152  -17.7782 C   0  0  0  0  0  0  0  0  0  0  0  0
   21.2970   -9.3235  -18.3172 O   0  0  0  0  0  0  0  0  0  0  0  0
   20.2410  -10.3960  -16.5963 N   0  0  0  0  0  0  0  0  0  0  0  0
   19.6994   -9.1313  -16.0759 C   0  0  1  0  0  0  0  0  0  0  0  0
   18.6073   -9.5573  -15.0828 C   0  0  0  0  0  0  0  0  0  0  0  0
   17.4005   -9.9545  -15.8185 C   0  0  0  0  0  0  0  0  0  0  0  0
   16.9222  -11.1214  -15.7387 O   0  0  0  0  0  0  0  0  0  0  0  0
   20.7478   -8.4684  -15.2730 C   0  0  0  0  0  0  0  0  0  0  0  0
   21.4342   -9.2017  -14.5099 O   0  0  0  0  0  0  0  0  0  0  0  0
   16.7222   -9.0648  -16.6421 O   0  0  0  0  0  0  0  0  0  0  0  0
   21.9535   -1.8958  -18.9238 O   0  0  0  0  0  0  0  0  0  0  0  0
   22.2562   -2.9595  -18.0835 C   0  0  0  0  0  0  0  0  0  0  0  0
   22.1649   -4.2737  -18.4913 C   0  0  0  0  0  0  0  0  0  0  0  0
   22.4655   -5.3093  -17.6552 C   0  0  0  0  0  0  0  0  0  0  0  0
   22.8703   -5.0079  -16.3689 C   0  0  0  0  0  0  0  0  0  0  0  0
   23.2167   -6.0527  -15.3783 C   0  0  0  0  0  0  0  0  0  0  0  0
   22.0758   -6.4713  -14.4977 C   0  0  2  0  0  0  0  0  0  0  0  0
   21.0379   -7.0957  -15.2926 N   0  0  0  0  0  0  0  0  0  0  0  0
   21.4831   -5.3706  -13.7110 C   0  0  0  0  0  0  0  0  0  0  0  0
   20.3155   -4.9781  -13.9499 O   0  0  0  0  0  0  0  0  0  0  0  0
   22.9632   -3.6951  -15.9552 C   0  0  0  0  0  0  0  0  0  0  0  0
   22.6596   -2.6487  -16.8002 C   0  0  0  0  0  0  0  0  0  0  0  0
   22.1435   -4.7059  -12.6808 O   0  0  0  0  0  0  0  0  0  0  0  0
  2  1  1  6
  2  4  1  0
  3  2  1  0
  4  5  1  1
  6  4  1  0
  7  6  2  0
  8  6  1  0
  9 13  1  0
  9  8  1  0
  9 10  1  1
 11 10  1  0
 12 11  2  0
 13 23  1  0
 14 13  2  0
 15 11  1  0
 17 18  2  0
 17 16  1  0
 19 18  1  0
 20 19  2  0
 22 21  1  6
 21 20  1  0
 22 24  1  0
 23 22  1  0
 24 25  2  0
 24 28  1  0
 26 20  1  0
 26 27  2  0
 27 17  1  0
M  END
$$$$
