VDY.pdb
     RDKit          3D

 28 28  0  0  1  0  0  0  0  0999 V2000
   19.0378  -17.9149  -16.3538 C   0  0  0  0  0  0  0  0  0  0  0  0
   19.4948  -19.0714  -15.5247 C   0  0  1  0  0  0  0  0  0  0  0  0
   20.0443  -20.1943  -16.3883 C   0  0  0  0  0  0  0  0  0  0  0  0
   20.6140  -18.6881  -14.5478 C   0  0  2  0  0  0  0  0  0  0  0  0
   21.4408  -17.7402  -15.2436 N   0  0  0  0  0  0  0  0  0  0  0  0
   21.3885  -19.9195  -14.2313 C   0  0  0  0  0  0  0  0  0  0  0  0
   20.8734  -20.9030  -13.6691 O   0  0  0  0  0  0  0  0  0  0  0  0
   22.7710  -20.0031  -14.5728 N   0  0  0  0  0  0  0  0  0  0  0  0
   23.5903  -21.1363  -14.1165 C   0  0  1  0  0  0  0  0  0  0  0  0
   24.3421  -21.6013  -15.3731 C   0  0  0  0  0  0  0  0  0  0  0  0
   23.4471  -22.4074  -16.2123 C   0  0  0  0  0  0  0  0  0  0  0  0
   23.3199  -22.1945  -17.4514 O   0  0  0  0  0  0  0  0  0  0  0  0
   24.6201  -20.6254  -13.1881 C   0  0  0  0  0  0  0  0  0  0  0  0
   25.0856  -19.4771  -13.4249 O   0  0  0  0  0  0  0  0  0  0  0  0
   22.6925  -23.4476  -15.6845 O   0  0  0  0  0  0  0  0  0  0  0  0
   29.4846  -19.2433   -6.0007 O   0  0  0  0  0  0  0  0  0  0  0  0
   28.5596  -19.7271   -6.9170 C   0  0  0  0  0  0  0  0  0  0  0  0
   27.2367  -19.3377   -6.9086 C   0  0  0  0  0  0  0  0  0  0  0  0
   26.3385  -19.8210   -7.8148 C   0  0  0  0  0  0  0  0  0  0  0  0
   26.7903  -20.7245   -8.7575 C   0  0  0  0  0  0  0  0  0  0  0  0
   25.9015  -21.3147   -9.7844 C   0  0  0  0  0  0  0  0  0  0  0  0
   26.1230  -20.7851  -11.1710 C   0  0  2  0  0  0  0  0  0  0  0  0
   25.1178  -21.3130  -12.0709 N   0  0  0  0  0  0  0  0  0  0  0  0
   27.4624  -21.0741  -11.7224 C   0  0  0  0  0  0  0  0  0  0  0  0
   27.7125  -22.1966  -12.2242 O   0  0  0  0  0  0  0  0  0  0  0  0
   28.1125  -21.1181   -8.7705 C   0  0  0  0  0  0  0  0  0  0  0  0
   29.0202  -20.6296   -7.8549 C   0  0  0  0  0  0  0  0  0  0  0  0
   28.5145  -20.1619  -11.7317 O   0  0  0  0  0  0  0  0  0  0  0  0
  2  1  1  6
  2  4  1  0
  3  2  1  0
  4  5  1  6
  6  4  1  0
  7  6  2  0
  8  6  1  0
  9 13  1  0
  9  8  1  0
  9 10  1  6
 11 10  1  0
 12 11  2  0
 13 23  1  0
 14 13  2  0
 15 11  1  0
 17 18  2  0
 17 16  1  0
 19 18  1  0
 20 19  2  0
 22 21  1  1
 21 20  1  0
 22 24  1  0
 23 22  1  0
 24 25  2  0
 24 28  1  0
 26 20  1  0
 26 27  2  0
 27 17  1  0
M  END
$$$$
