VDY.pdb
     RDKit          3D

 28 28  0  0  1  0  0  0  0  0999 V2000
   36.0840  -10.7133  -13.8469 C   0  0  0  0  0  0  0  0  0  0  0  0
   35.4211   -9.5914  -14.5790 C   0  0  1  0  0  0  0  0  0  0  0  0
   36.3679   -8.4201  -14.7799 C   0  0  0  0  0  0  0  0  0  0  0  0
   34.9399  -10.0046  -15.9760 C   0  0  2  0  0  0  0  0  0  0  0  0
   36.1179  -10.3898  -16.7039 N   0  0  0  0  0  0  0  0  0  0  0  0
   34.3011   -8.8190  -16.6105 C   0  0  0  0  0  0  0  0  0  0  0  0
   34.9195   -8.0638  -17.3825 O   0  0  0  0  0  0  0  0  0  0  0  0
   32.9337   -8.5135  -16.3425 N   0  0  0  0  0  0  0  0  0  0  0  0
   32.2443   -7.4440  -17.0804 C   0  0  1  0  0  0  0  0  0  0  0  0
   30.7780   -7.8987  -17.1411 C   0  0  0  0  0  0  0  0  0  0  0  0
   30.6436   -9.0009  -18.1016 C   0  0  0  0  0  0  0  0  0  0  0  0
   29.7352   -9.8730  -17.9962 O   0  0  0  0  0  0  0  0  0  0  0  0
   32.2599   -6.2197  -16.2533 C   0  0  0  0  0  0  0  0  0  0  0  0
   31.9941   -6.3532  -15.0274 O   0  0  0  0  0  0  0  0  0  0  0  0
   31.5113   -9.1409  -19.1775 O   0  0  0  0  0  0  0  0  0  0  0  0
   32.8352   -0.6023  -21.4152 O   0  0  0  0  0  0  0  0  0  0  0  0
   33.0778   -1.2035  -20.1868 C   0  0  0  0  0  0  0  0  0  0  0  0
   33.5989   -2.4755  -20.0757 C   0  0  0  0  0  0  0  0  0  0  0  0
   33.8323   -3.0542  -18.8623 C   0  0  0  0  0  0  0  0  0  0  0  0
   33.5303   -2.3260  -17.7275 C   0  0  0  0  0  0  0  0  0  0  0  0
   33.7398   -2.8579  -16.3615 C   0  0  0  0  0  0  0  0  0  0  0  0
   32.6418   -3.7573  -15.8739 C   0  0  2  0  0  0  0  0  0  0  0  0
   32.5455   -4.9282  -16.7216 N   0  0  0  0  0  0  0  0  0  0  0  0
   31.3172   -3.1084  -15.7970 C   0  0  0  0  0  0  0  0  0  0  0  0
   30.3896   -3.4686  -16.5613 O   0  0  0  0  0  0  0  0  0  0  0  0
   33.0085   -1.0532  -17.8324 C   0  0  0  0  0  0  0  0  0  0  0  0
   32.7728   -0.4684  -19.0585 C   0  0  0  0  0  0  0  0  0  0  0  0
   31.0011   -2.0861  -14.9057 O   0  0  0  0  0  0  0  0  0  0  0  0
  2  1  1  6
  2  4  1  0
  3  2  1  0
  4  5  1  6
  6  4  1  0
  7  6  2  0
  8  6  1  0
  9 13  1  0
  9  8  1  0
  9 10  1  1
 11 10  1  0
 12 11  2  0
 13 23  1  0
 14 13  2  0
 15 11  1  0
 17 18  2  0
 17 16  1  0
 19 18  1  0
 20 19  2  0
 22 21  1  6
 21 20  1  0
 22 24  1  0
 23 22  1  0
 24 25  2  0
 24 28  1  0
 26 20  1  0
 26 27  2  0
 27 17  1  0
M  END
$$$$
