VDY.pdb
     RDKit          3D

 28 28  0  0  1  0  0  0  0  0999 V2000
   19.4901  -24.6199  -19.1468 C   0  0  0  0  0  0  0  0  0  0  0  0
   19.1057  -23.6416  -18.0843 C   0  0  1  0  0  0  0  0  0  0  0  0
   17.6657  -23.8371  -17.6407 C   0  0  0  0  0  0  0  0  0  0  0  0
   19.9698  -23.7738  -16.8234 C   0  0  2  0  0  0  0  0  0  0  0  0
   19.9344  -25.1645  -16.4620 N   0  0  0  0  0  0  0  0  0  0  0  0
   19.3513  -22.9429  -15.7541 C   0  0  0  0  0  0  0  0  0  0  0  0
   19.2493  -21.7062  -15.8480 O   0  0  0  0  0  0  0  0  0  0  0  0
   18.8493  -23.5588  -14.5694 N   0  0  0  0  0  0  0  0  0  0  0  0
   18.2711  -22.7469  -13.4877 C   0  0  1  0  0  0  0  0  0  0  0  0
   16.9598  -22.2001  -14.0726 C   0  0  0  0  0  0  0  0  0  0  0  0
   16.3143  -21.3170  -13.0935 C   0  0  0  0  0  0  0  0  0  0  0  0
   15.0627  -21.3126  -12.9195 O   0  0  0  0  0  0  0  0  0  0  0  0
   17.8829  -23.6477  -12.3826 C   0  0  0  0  0  0  0  0  0  0  0  0
   17.0617  -24.5660  -12.6539 O   0  0  0  0  0  0  0  0  0  0  0  0
   17.0495  -20.4389  -12.3070 O   0  0  0  0  0  0  0  0  0  0  0  0
   17.6621  -27.6201   -4.4608 O   0  0  0  0  0  0  0  0  0  0  0  0
   18.0010  -26.8786   -5.5854 C   0  0  0  0  0  0  0  0  0  0  0  0
   18.5575  -27.4519   -6.7094 C   0  0  0  0  0  0  0  0  0  0  0  0
   18.8858  -26.7116   -7.8075 C   0  0  0  0  0  0  0  0  0  0  0  0
   18.6446  -25.3516   -7.7687 C   0  0  0  0  0  0  0  0  0  0  0  0
   18.9654  -24.4538   -8.9018 C   0  0  0  0  0  0  0  0  0  0  0  0
   17.9324  -24.4400   -9.9903 C   0  0  2  0  0  0  0  0  0  0  0  0
   18.3532  -23.5622  -11.0634 N   0  0  0  0  0  0  0  0  0  0  0  0
   16.5843  -24.0382   -9.5403 C   0  0  0  0  0  0  0  0  0  0  0  0
   16.2264  -22.8372   -9.6043 O   0  0  0  0  0  0  0  0  0  0  0  0
   18.0884  -24.7724   -6.6468 C   0  0  0  0  0  0  0  0  0  0  0  0
   17.7566  -25.5206   -5.5373 C   0  0  0  0  0  0  0  0  0  0  0  0
   15.6375  -24.9227   -9.0299 O   0  0  0  0  0  0  0  0  0  0  0  0
  2  1  1  6
  2  4  1  0
  3  2  1  0
  4  5  1  1
  6  4  1  0
  7  6  2  0
  8  6  1  0
  9 13  1  0
  9  8  1  0
  9 10  1  6
 11 10  1  0
 12 11  2  0
 13 23  1  0
 14 13  2  0
 15 11  1  0
 17 18  2  0
 17 16  1  0
 19 18  1  0
 20 19  2  0
 22 21  1  1
 21 20  1  0
 22 24  1  0
 23 22  1  0
 24 25  2  0
 24 28  1  0
 26 20  1  0
 26 27  2  0
 27 17  1  0
M  END
$$$$
