VDY.pdb
     RDKit          3D

 28 28  0  0  1  0  0  0  0  0999 V2000
   24.9488  -14.4597  -15.1881 C   0  0  0  0  0  0  0  0  0  0  0  0
   24.1679  -13.2349  -15.5401 C   0  0  1  0  0  0  0  0  0  0  0  0
   24.7774  -12.5065  -16.7262 C   0  0  0  0  0  0  0  0  0  0  0  0
   22.7174  -13.5536  -15.9256 C   0  0  2  0  0  0  0  0  0  0  0  0
   22.7923  -14.4433  -17.0520 N   0  0  0  0  0  0  0  0  0  0  0  0
   22.0550  -12.2780  -16.3137 C   0  0  0  0  0  0  0  0  0  0  0  0
   22.1160  -11.8219  -17.4699 O   0  0  0  0  0  0  0  0  0  0  0  0
   21.3178  -11.5315  -15.3473 N   0  0  0  0  0  0  0  0  0  0  0  0
   20.6152  -10.2966  -15.7283 C   0  0  1  0  0  0  0  0  0  0  0  0
   19.4281  -10.2111  -14.7567 C   0  0  0  0  0  0  0  0  0  0  0  0
   18.3961  -11.1766  -15.1541 C   0  0  0  0  0  0  0  0  0  0  0  0
   18.1860  -11.4709  -16.3649 O   0  0  0  0  0  0  0  0  0  0  0  0
   21.4869   -9.1459  -15.4129 C   0  0  0  0  0  0  0  0  0  0  0  0
   22.1940   -9.2316  -14.3718 O   0  0  0  0  0  0  0  0  0  0  0  0
   17.5960  -11.8168  -14.2160 O   0  0  0  0  0  0  0  0  0  0  0  0
   26.1892   -1.7162  -16.5004 O   0  0  0  0  0  0  0  0  0  0  0  0
   25.3076   -2.7786  -16.6537 C   0  0  0  0  0  0  0  0  0  0  0  0
   23.9526   -2.6539  -16.4292 C   0  0  0  0  0  0  0  0  0  0  0  0
   23.0977   -3.7060  -16.5836 C   0  0  0  0  0  0  0  0  0  0  0  0
   23.6275   -4.9201  -16.9766 C   0  0  0  0  0  0  0  0  0  0  0  0
   22.7925   -6.1275  -17.1704 C   0  0  0  0  0  0  0  0  0  0  0  0
   22.5421   -6.9130  -15.9163 C   0  0  2  0  0  0  0  0  0  0  0  0
   21.5890   -7.9728  -16.1759 N   0  0  0  0  0  0  0  0  0  0  0  0
   22.0619   -6.1014  -14.7796 C   0  0  0  0  0  0  0  0  0  0  0  0
   20.8340   -5.8991  -14.6192 O   0  0  0  0  0  0  0  0  0  0  0  0
   24.9822   -5.0509  -17.2023 C   0  0  0  0  0  0  0  0  0  0  0  0
   25.8461   -3.9877  -17.0464 C   0  0  0  0  0  0  0  0  0  0  0  0
   22.8977   -5.5185  -13.8304 O   0  0  0  0  0  0  0  0  0  0  0  0
  2  1  1  6
  2  4  1  0
  3  2  1  0
  4  5  1  6
  6  4  1  0
  7  6  2  0
  8  6  1  0
  9 13  1  0
  9  8  1  0
  9 10  1  1
 11 10  1  0
 12 11  2  0
 13 23  1  0
 14 13  2  0
 15 11  1  0
 17 18  2  0
 17 16  1  0
 19 18  1  0
 20 19  2  0
 22 21  1  6
 21 20  1  0
 22 24  1  0
 23 22  1  0
 24 25  2  0
 24 28  1  0
 26 20  1  0
 26 27  2  0
 27 17  1  0
M  END
$$$$
