VDY.pdb
     RDKit          3D

 28 28  0  0  1  0  0  0  0  0999 V2000
   23.3112  -22.6042  -23.8551 C   0  0  0  0  0  0  0  0  0  0  0  0
   23.1434  -22.2360  -22.4163 C   0  0  1  0  0  0  0  0  0  0  0  0
   23.2408  -20.7337  -22.2100 C   0  0  0  0  0  0  0  0  0  0  0  0
   21.7808  -22.6634  -21.8555 C   0  0  2  0  0  0  0  0  0  0  0  0
   20.7994  -22.1893  -22.7925 N   0  0  0  0  0  0  0  0  0  0  0  0
   21.6004  -22.0014  -20.5342 C   0  0  0  0  0  0  0  0  0  0  0  0
   22.3434  -22.2384  -19.5645 O   0  0  0  0  0  0  0  0  0  0  0  0
   20.5473  -21.0581  -20.3442 N   0  0  0  0  0  0  0  0  0  0  0  0
   20.2391  -20.5361  -19.0040 C   0  0  1  0  0  0  0  0  0  0  0  0
   20.3305  -19.0097  -19.1526 C   0  0  0  0  0  0  0  0  0  0  0  0
   20.0506  -18.3715  -17.8604 C   0  0  0  0  0  0  0  0  0  0  0  0
   19.2024  -17.4421  -17.7432 O   0  0  0  0  0  0  0  0  0  0  0  0
   18.8243  -20.8344  -18.6995 C   0  0  0  0  0  0  0  0  0  0  0  0
   17.9688  -20.4930  -19.5614 O   0  0  0  0  0  0  0  0  0  0  0  0
   20.7063  -18.7584  -16.6984 O   0  0  0  0  0  0  0  0  0  0  0  0
   11.4261  -23.9551  -15.0859 O   0  0  0  0  0  0  0  0  0  0  0  0
   12.7550  -23.6367  -15.3349 C   0  0  0  0  0  0  0  0  0  0  0  0
   13.4900  -22.8230  -14.4985 C   0  0  0  0  0  0  0  0  0  0  0  0
   14.7949  -22.5183  -14.7551 C   0  0  0  0  0  0  0  0  0  0  0  0
   15.3744  -23.0515  -15.8904 C   0  0  0  0  0  0  0  0  0  0  0  0
   16.7813  -22.7834  -16.2669 C   0  0  0  0  0  0  0  0  0  0  0  0
   16.9610  -21.6159  -17.1927 C   0  0  2  0  0  0  0  0  0  0  0  0
   18.3607  -21.4636  -17.5342 N   0  0  0  0  0  0  0  0  0  0  0  0
   16.4539  -20.3359  -16.6581 C   0  0  0  0  0  0  0  0  0  0  0  0
   17.1788  -19.6253  -15.9206 O   0  0  0  0  0  0  0  0  0  0  0  0
   14.6440  -23.8658  -16.7311 C   0  0  0  0  0  0  0  0  0  0  0  0
   13.3254  -24.1739  -16.4716 C   0  0  0  0  0  0  0  0  0  0  0  0
   15.1820  -19.8321  -16.9186 O   0  0  0  0  0  0  0  0  0  0  0  0
  2  1  1  6
  2  4  1  0
  3  2  1  0
  4  5  1  6
  6  4  1  0
  7  6  2  0
  8  6  1  0
  9 13  1  0
  9  8  1  0
  9 10  1  6
 11 10  1  0
 12 11  2  0
 13 23  1  0
 14 13  2  0
 15 11  1  0
 17 18  2  0
 17 16  1  0
 19 18  1  0
 20 19  2  0
 22 21  1  1
 21 20  1  0
 22 24  1  0
 23 22  1  0
 24 25  2  0
 24 28  1  0
 26 20  1  0
 26 27  2  0
 27 17  1  0
M  END
$$$$
