VDY.pdb
     RDKit          3D

 28 28  0  0  1  0  0  0  0  0999 V2000
   18.2691  -12.8150  -16.8683 C   0  0  0  0  0  0  0  0  0  0  0  0
   18.5500  -11.9172  -15.7069 C   0  0  1  0  0  0  0  0  0  0  0  0
   19.0692  -10.5634  -16.1612 C   0  0  0  0  0  0  0  0  0  0  0  0
   17.2995  -11.6408  -14.8620 C   0  0  2  0  0  0  0  0  0  0  0  0
   16.2544  -11.3164  -15.7940 N   0  0  0  0  0  0  0  0  0  0  0  0
   17.5895  -10.4768  -13.9803 C   0  0  0  0  0  0  0  0  0  0  0  0
   18.4732  -10.5095  -13.1047 O   0  0  0  0  0  0  0  0  0  0  0  0
   16.8443   -9.2687  -14.1215 N   0  0  0  0  0  0  0  0  0  0  0  0
   17.1566   -8.0924  -13.2956 C   0  0  1  0  0  0  0  0  0  0  0  0
   17.1382   -6.9125  -14.2795 C   0  0  0  0  0  0  0  0  0  0  0  0
   18.5149   -6.5014  -14.5811 C   0  0  0  0  0  0  0  0  0  0  0  0
   19.5144   -7.1063  -14.0993 O   0  0  0  0  0  0  0  0  0  0  0  0
   16.0343   -7.8649  -12.3617 C   0  0  0  0  0  0  0  0  0  0  0  0
   14.8758   -8.1338  -12.7823 O   0  0  0  0  0  0  0  0  0  0  0  0
   18.7887   -5.4233  -15.4134 O   0  0  0  0  0  0  0  0  0  0  0  0
   11.2547   -6.8924   -5.0293 O   0  0  0  0  0  0  0  0  0  0  0  0
   12.2454   -7.1196   -5.9760 C   0  0  0  0  0  0  0  0  0  0  0  0
   12.2386   -8.2225   -6.8038 C   0  0  0  0  0  0  0  0  0  0  0  0
   13.2184   -8.4335   -7.7297 C   0  0  0  0  0  0  0  0  0  0  0  0
   14.2351   -7.5024   -7.8218 C   0  0  0  0  0  0  0  0  0  0  0  0
   15.3499   -7.6343   -8.7877 C   0  0  0  0  0  0  0  0  0  0  0  0
   15.0347   -7.1330  -10.1667 C   0  0  2  0  0  0  0  0  0  0  0  0
   16.1554   -7.3764  -11.0519 N   0  0  0  0  0  0  0  0  0  0  0  0
   14.6786   -5.7007  -10.2233 C   0  0  0  0  0  0  0  0  0  0  0  0
   15.5765   -4.8262  -10.2810 O   0  0  0  0  0  0  0  0  0  0  0  0
   14.2474   -6.3973   -6.9961 C   0  0  0  0  0  0  0  0  0  0  0  0
   13.2572   -6.1840   -6.0607 C   0  0  0  0  0  0  0  0  0  0  0  0
   13.3708   -5.2223  -10.2187 O   0  0  0  0  0  0  0  0  0  0  0  0
  2  1  1  6
  2  4  1  0
  3  2  1  0
  4  5  1  6
  6  4  1  0
  7  6  2  0
  8  6  1  0
  9 13  1  0
  9  8  1  0
  9 10  1  6
 11 10  1  0
 12 11  2  0
 13 23  1  0
 14 13  2  0
 15 11  1  0
 17 18  2  0
 17 16  1  0
 19 18  1  0
 20 19  2  0
 22 21  1  1
 21 20  1  0
 22 24  1  0
 23 22  1  0
 24 25  2  0
 24 28  1  0
 26 20  1  0
 26 27  2  0
 27 17  1  0
M  END
$$$$
