VDY.pdb
     RDKit          3D

 28 28  0  0  1  0  0  0  0  0999 V2000
   31.1469  -26.4172  -17.6063 C   0  0  0  0  0  0  0  0  0  0  0  0
   30.2167  -25.2797  -17.3330 C   0  0  1  0  0  0  0  0  0  0  0  0
   30.7903  -24.3264  -16.2981 C   0  0  0  0  0  0  0  0  0  0  0  0
   29.9313  -24.4402  -18.5850 C   0  0  2  0  0  0  0  0  0  0  0  0
   31.2106  -24.1696  -19.1817 N   0  0  0  0  0  0  0  0  0  0  0  0
   29.2823  -23.1730  -18.1497 C   0  0  0  0  0  0  0  0  0  0  0  0
   29.9361  -22.1485  -17.8825 O   0  0  0  0  0  0  0  0  0  0  0  0
   27.8630  -23.1017  -18.0257 N   0  0  0  0  0  0  0  0  0  0  0  0
   27.2076  -21.8550  -17.6017 C   0  0  1  0  0  0  0  0  0  0  0  0
   26.0024  -21.7114  -18.5438 C   0  0  0  0  0  0  0  0  0  0  0  0
   25.6149  -20.2983  -18.6357 C   0  0  0  0  0  0  0  0  0  0  0  0
   25.4498  -19.5818  -17.6079 O   0  0  0  0  0  0  0  0  0  0  0  0
   26.6486  -22.0567  -16.2489 C   0  0  0  0  0  0  0  0  0  0  0  0
   26.1369  -23.1831  -16.0027 O   0  0  0  0  0  0  0  0  0  0  0  0
   25.4092  -19.6764  -19.8608 O   0  0  0  0  0  0  0  0  0  0  0  0
   24.6370  -20.7851   -7.7367 O   0  0  0  0  0  0  0  0  0  0  0  0
   25.1937  -20.6923   -9.0058 C   0  0  0  0  0  0  0  0  0  0  0  0
   26.5018  -21.0423   -9.2672 C   0  0  0  0  0  0  0  0  0  0  0  0
   27.0361  -20.9462  -10.5190 C   0  0  0  0  0  0  0  0  0  0  0  0
   26.2247  -20.4826  -11.5368 C   0  0  0  0  0  0  0  0  0  0  0  0
   26.7022  -20.3349  -12.9307 C   0  0  0  0  0  0  0  0  0  0  0  0
   26.1310  -21.3390  -13.8888 C   0  0  2  0  0  0  0  0  0  0  0  0
   26.6424  -21.0995  -15.2229 N   0  0  0  0  0  0  0  0  0  0  0  0
   24.6549  -21.3592  -13.9355 C   0  0  0  0  0  0  0  0  0  0  0  0
   24.0297  -20.4951  -14.5964 O   0  0  0  0  0  0  0  0  0  0  0  0
   24.9155  -20.1305  -11.2812 C   0  0  0  0  0  0  0  0  0  0  0  0
   24.3755  -20.2279  -10.0163 C   0  0  0  0  0  0  0  0  0  0  0  0
   23.8675  -22.3009  -13.2778 O   0  0  0  0  0  0  0  0  0  0  0  0
  2  1  1  6
  2  4  1  0
  3  2  1  0
  4  5  1  1
  6  4  1  0
  7  6  2  0
  8  6  1  0
  9 13  1  0
  9  8  1  0
  9 10  1  6
 11 10  1  0
 12 11  2  0
 13 23  1  0
 14 13  2  0
 15 11  1  0
 17 18  2  0
 17 16  1  0
 19 18  1  0
 20 19  2  0
 22 21  1  1
 21 20  1  0
 22 24  1  0
 23 22  1  0
 24 25  2  0
 24 28  1  0
 26 20  1  0
 26 27  2  0
 27 17  1  0
M  END
$$$$
