ALL.pdb
     RDKit          3D

 22 21  0  0  1  0  0  0  0  0999 V2000
   26.5533  -18.3542  -17.4254 C   0  0  0  0  0  0  0  0  0  0  0  0
   27.3545  -19.2476  -16.5140 C   0  0  2  0  0  0  0  0  0  0  0  0
   28.1381  -20.1902  -17.2972 N   0  0  0  0  0  0  0  0  0  0  0  0
   26.4803  -19.9314  -15.5478 C   0  0  0  0  0  0  0  0  0  0  0  0
   25.9772  -21.0322  -15.8888 O   0  0  0  0  0  0  0  0  0  0  0  0
   25.5619  -22.1261  -10.9873 C   0  0  0  0  0  0  0  0  0  0  0  0
   24.9428  -20.7483  -10.9415 C   0  0  1  0  0  0  0  0  0  0  0  0
   25.2498  -20.1945   -9.5402 C   0  0  0  0  0  0  0  0  0  0  0  0
   25.6486  -19.8590  -11.9261 C   0  0  0  0  0  0  0  0  0  0  0  0
   25.2806  -20.1259  -13.3601 C   0  0  2  0  0  0  0  0  0  0  0  0
   26.1816  -19.4161  -14.2647 N   0  0  0  0  0  0  0  0  0  0  0  0
   23.8989  -19.6895  -13.6741 C   0  0  0  0  0  0  0  0  0  0  0  0
   23.6357  -18.4624  -13.5498 O   0  0  0  0  0  0  0  0  0  0  0  0
   22.4936  -21.2610  -17.6493 C   0  0  0  0  0  0  0  0  0  0  0  0
   22.0929  -20.0968  -16.8147 C   0  0  1  0  0  0  0  0  0  0  0  0
   21.6862  -18.9229  -17.7143 C   0  0  0  0  0  0  0  0  0  0  0  0
   21.1538  -20.3200  -15.7171 C   0  0  0  0  0  0  0  0  0  0  0  0
   21.4947  -20.0577  -14.3081 C   0  0  2  0  0  0  0  0  0  0  0  0
   22.8889  -20.5659  -14.0965 N   0  0  0  0  0  0  0  0  0  0  0  0
   20.7112  -20.7036  -13.2537 C   0  0  0  0  0  0  0  0  0  0  0  0
   21.0019  -21.8414  -12.8134 O   0  0  0  0  0  0  0  0  0  0  0  0
   19.5972  -20.0715  -12.6899 O   0  0  0  0  0  0  0  0  0  0  0  0
  2  1  1  6
  2  3  1  0
  4  2  1  0
  4  5  2  0
  7  6  1  1
  7  8  1  0
  7  9  1  0
 10  9  1  1
 10 11  1  0
 10 12  1  0
 11  4  1  0
 12 13  2  0
 12 19  1  0
 15 14  1  6
 15 16  1  0
 17 15  1  0
 18 17  1  6
 19 18  1  0
 20 22  1  0
 20 18  1  0
 21 20  2  0
M  END
$$$$
