ALL.pdb
     RDKit          3D

 22 21  0  0  1  0  0  0  0  0999 V2000
   22.8878  -18.6702  -18.5449 C   0  0  0  0  0  0  0  0  0  0  0  0
   22.7375  -18.9128  -17.0653 C   0  0  2  0  0  0  0  0  0  0  0  0
   22.6748  -17.6460  -16.3530 N   0  0  0  0  0  0  0  0  0  0  0  0
   23.8208  -19.7717  -16.5614 C   0  0  0  0  0  0  0  0  0  0  0  0
   23.8707  -20.9574  -16.9770 O   0  0  0  0  0  0  0  0  0  0  0  0
   28.6970  -17.6963  -15.9927 C   0  0  0  0  0  0  0  0  0  0  0  0
   27.5103  -18.5754  -16.3125 C   0  0  1  0  0  0  0  0  0  0  0  0
   27.9848  -19.5408  -17.4115 C   0  0  0  0  0  0  0  0  0  0  0  0
   27.1801  -19.4130  -15.1092 C   0  0  0  0  0  0  0  0  0  0  0  0
   25.9068  -20.2021  -15.2476 C   0  0  2  0  0  0  0  0  0  0  0  0
   24.8010  -19.3325  -15.6409 N   0  0  0  0  0  0  0  0  0  0  0  0
   25.5209  -20.8687  -13.9807 C   0  0  0  0  0  0  0  0  0  0  0  0
   26.2564  -21.8080  -13.5720 O   0  0  0  0  0  0  0  0  0  0  0  0
   26.4778  -19.8507   -9.2224 C   0  0  0  0  0  0  0  0  0  0  0  0
   25.9984  -20.6875  -10.3549 C   0  0  1  0  0  0  0  0  0  0  0  0
   26.2944  -22.1663  -10.0751 C   0  0  0  0  0  0  0  0  0  0  0  0
   24.6432  -20.4669  -10.8559 C   0  0  0  0  0  0  0  0  0  0  0  0
   24.0654  -21.2440  -11.9662 C   0  0  2  0  0  0  0  0  0  0  0  0
   24.3935  -20.5067  -13.2293 N   0  0  0  0  0  0  0  0  0  0  0  0
   22.6150  -21.4324  -12.0245 C   0  0  0  0  0  0  0  0  0  0  0  0
   21.9086  -20.8783  -12.9004 O   0  0  0  0  0  0  0  0  0  0  0  0
   21.9532  -22.2455  -11.0976 O   0  0  0  0  0  0  0  0  0  0  0  0
  2  1  1  6
  2  3  1  0
  4  2  1  0
  4  5  2  0
  7  6  1  1
  7  8  1  0
  7  9  1  0
 10  9  1  1
 10 11  1  0
 10 12  1  0
 11  4  1  0
 12 13  2  0
 12 19  1  0
 15 14  1  1
 15 16  1  0
 17 15  1  0
 18 17  1  1
 19 18  1  0
 20 22  1  0
 20 18  1  0
 21 20  2  0
M  END
$$$$
