ALL.pdb
     RDKit          3D

 22 21  0  0  1  0  0  0  0  0999 V2000
   21.1577  -37.4980   -5.7669 C   0  0  0  0  0  0  0  0  0  0  0  0
   21.7549  -36.8433   -6.9857 C   0  0  2  0  0  0  0  0  0  0  0  0
   21.6963  -37.7500   -8.1217 N   0  0  0  0  0  0  0  0  0  0  0  0
   23.1286  -36.3888   -6.7177 C   0  0  0  0  0  0  0  0  0  0  0  0
   24.0369  -37.2575   -6.6798 O   0  0  0  0  0  0  0  0  0  0  0  0
   25.0498  -31.6094   -8.6173 C   0  0  0  0  0  0  0  0  0  0  0  0
   24.9731  -33.0770   -8.2656 C   0  0  1  0  0  0  0  0  0  0  0  0
   26.2214  -33.7254   -8.8871 C   0  0  0  0  0  0  0  0  0  0  0  0
   25.0967  -33.2329   -6.7760 C   0  0  0  0  0  0  0  0  0  0  0  0
   24.8641  -34.6374   -6.2895 C   0  0  2  0  0  0  0  0  0  0  0  0
   23.4746  -35.0340   -6.5035 N   0  0  0  0  0  0  0  0  0  0  0  0
   25.1515  -34.7834   -4.8424 C   0  0  0  0  0  0  0  0  0  0  0  0
   24.3011  -34.3233   -4.0328 O   0  0  0  0  0  0  0  0  0  0  0  0
   26.1417  -38.0644   -0.6544 C   0  0  0  0  0  0  0  0  0  0  0  0
   27.3264  -37.5554   -1.3959 C   0  0  1  0  0  0  0  0  0  0  0  0
   28.4286  -38.6219   -1.4172 C   0  0  0  0  0  0  0  0  0  0  0  0
   27.1140  -36.9355   -2.7023 C   0  0  0  0  0  0  0  0  0  0  0  0
   26.4597  -35.6260   -2.8686 C   0  0  2  0  0  0  0  0  0  0  0  0
   26.3073  -35.4005   -4.3425 N   0  0  0  0  0  0  0  0  0  0  0  0
   27.1415  -34.4231   -2.3879 C   0  0  0  0  0  0  0  0  0  0  0  0
   27.1719  -34.1190   -1.1715 O   0  0  0  0  0  0  0  0  0  0  0  0
   27.7922  -33.5574   -3.2740 O   0  0  0  0  0  0  0  0  0  0  0  0
  2  1  1  1
  2  3  1  0
  4  2  1  0
  4  5  2  0
  7  6  1  1
  7  8  1  0
  7  9  1  0
 10  9  1  1
 10 11  1  0
 10 12  1  0
 11  4  1  0
 12 13  2  0
 12 19  1  0
 15 14  1  6
 15 16  1  0
 17 15  1  0
 18 17  1  6
 19 18  1  0
 20 22  1  0
 20 18  1  0
 21 20  2  0
M  END
$$$$
