ALL.pdb
     RDKit          3D

 22 21  0  0  1  0  0  0  0  0999 V2000
   21.7681  -19.6638  -12.9511 C   0  0  0  0  0  0  0  0  0  0  0  0
   22.5040  -19.3399  -14.2255 C   0  0  2  0  0  0  0  0  0  0  0  0
   21.7431  -19.8023  -15.3757 N   0  0  0  0  0  0  0  0  0  0  0  0
   23.8631  -19.9038  -14.2048 C   0  0  0  0  0  0  0  0  0  0  0  0
   24.0087  -21.0968  -14.5743 O   0  0  0  0  0  0  0  0  0  0  0  0
   28.2741  -17.1472  -15.7566 C   0  0  0  0  0  0  0  0  0  0  0  0
   27.1823  -18.1630  -15.5124 C   0  0  1  0  0  0  0  0  0  0  0  0
   27.4001  -19.2744  -16.5526 C   0  0  0  0  0  0  0  0  0  0  0  0
   27.3840  -18.7862  -14.1598 C   0  0  0  0  0  0  0  0  0  0  0  0
   26.3284  -19.7919  -13.7894 C   0  0  2  0  0  0  0  0  0  0  0  0
   25.0041  -19.1754  -13.7942 N   0  0  0  0  0  0  0  0  0  0  0  0
   26.5490  -20.3637  -12.4393 C   0  0  0  0  0  0  0  0  0  0  0  0
   27.4733  -21.2122  -12.3127 O   0  0  0  0  0  0  0  0  0  0  0  0
   28.2102  -21.0808   -7.5733 C   0  0  0  0  0  0  0  0  0  0  0  0
   27.1096  -20.0982   -7.7624 C   0  0  1  0  0  0  0  0  0  0  0  0
   27.3596  -18.8585   -6.8945 C   0  0  0  0  0  0  0  0  0  0  0  0
   26.7062  -19.7617   -9.1264 C   0  0  0  0  0  0  0  0  0  0  0  0
   26.0065  -20.7105  -10.0098 C   0  0  2  0  0  0  0  0  0  0  0  0
   25.7886  -20.0083  -11.3159 N   0  0  0  0  0  0  0  0  0  0  0  0
   24.6758  -21.1882   -9.6303 C   0  0  0  0  0  0  0  0  0  0  0  0
   24.4897  -21.8913   -8.6085 O   0  0  0  0  0  0  0  0  0  0  0  0
   23.5488  -20.8765  -10.3991 O   0  0  0  0  0  0  0  0  0  0  0  0
  2  1  1  1
  2  3  1  0
  4  2  1  0
  4  5  2  0
  7  6  1  6
  7  8  1  0
  7  9  1  0
 10  9  1  1
 10 11  1  0
 10 12  1  0
 11  4  1  0
 12 13  2  0
 12 19  1  0
 15 14  1  6
 15 16  1  0
 17 15  1  0
 18 17  1  1
 19 18  1  0
 20 22  1  0
 20 18  1  0
 21 20  2  0
M  END
$$$$
