ALL.pdb
     RDKit          3D

 22 21  0  0  1  0  0  0  0  0999 V2000
   22.3745  -19.1318  -15.9565 C   0  0  0  0  0  0  0  0  0  0  0  0
   22.5625  -19.5593  -14.5238 C   0  0  2  0  0  0  0  0  0  0  0  0
   22.3126  -18.4398  -13.6293 N   0  0  0  0  0  0  0  0  0  0  0  0
   23.9007  -20.1361  -14.3192 C   0  0  0  0  0  0  0  0  0  0  0  0
   24.1652  -21.2226  -14.8941 O   0  0  0  0  0  0  0  0  0  0  0  0
   28.0111  -17.3471  -15.3461 C   0  0  0  0  0  0  0  0  0  0  0  0
   26.9714  -18.4177  -15.1086 C   0  0  1  0  0  0  0  0  0  0  0  0
   27.1566  -19.4434  -16.2394 C   0  0  0  0  0  0  0  0  0  0  0  0
   27.2817  -19.1277  -13.8210 C   0  0  0  0  0  0  0  0  0  0  0  0
   26.2295  -20.1184  -13.4032 C   0  0  2  0  0  0  0  0  0  0  0  0
   24.8960  -19.5328  -13.5152 N   0  0  0  0  0  0  0  0  0  0  0  0
   26.4048  -20.5627  -11.9996 C   0  0  0  0  0  0  0  0  0  0  0  0
   27.3962  -21.2988  -11.7437 O   0  0  0  0  0  0  0  0  0  0  0  0
   27.7870  -18.6430   -7.1255 C   0  0  0  0  0  0  0  0  0  0  0  0
   27.4700  -19.7250   -8.0958 C   0  0  1  0  0  0  0  0  0  0  0  0
   27.8839  -21.0841   -7.5179 C   0  0  0  0  0  0  0  0  0  0  0  0
   26.1388  -19.7485   -8.6989 C   0  0  0  0  0  0  0  0  0  0  0  0
   25.6903  -20.8211   -9.6037 C   0  0  2  0  0  0  0  0  0  0  0  0
   25.5320  -20.2062  -10.9615 N   0  0  0  0  0  0  0  0  0  0  0  0
   24.4051  -21.4749   -9.3513 C   0  0  0  0  0  0  0  0  0  0  0  0
   23.4348  -21.3564  -10.1371 O   0  0  0  0  0  0  0  0  0  0  0  0
   24.2065  -22.2650   -8.2136 O   0  0  0  0  0  0  0  0  0  0  0  0
  2  1  1  6
  2  3  1  0
  4  2  1  0
  4  5  2  0
  7  6  1  6
  7  8  1  0
  7  9  1  0
 10  9  1  1
 10 11  1  0
 10 12  1  0
 11  4  1  0
 12 13  2  0
 12 19  1  0
 15 14  1  1
 15 16  1  0
 17 15  1  0
 18 17  1  1
 19 18  1  0
 20 22  1  0
 20 18  1  0
 21 20  2  0
M  END
$$$$
