ALL.pdb
     RDKit          3D

 22 21  0  0  1  0  0  0  0  0999 V2000
   29.3557  -25.9127  -17.5400 C   0  0  0  0  0  0  0  0  0  0  0  0
   29.9642  -24.8691  -16.6393 C   0  0  2  0  0  0  0  0  0  0  0  0
   29.5190  -23.5424  -17.0365 N   0  0  0  0  0  0  0  0  0  0  0  0
   31.4319  -24.9747  -16.6300 C   0  0  0  0  0  0  0  0  0  0  0  0
   32.0628  -24.4621  -17.5893 O   0  0  0  0  0  0  0  0  0  0  0  0
   36.3500  -24.8255  -14.7409 C   0  0  0  0  0  0  0  0  0  0  0  0
   35.6756  -26.0839  -14.2457 C   0  0  1  0  0  0  0  0  0  0  0  0
   36.0831  -26.2278  -12.7698 C   0  0  0  0  0  0  0  0  0  0  0  0
   34.1862  -25.8856  -14.2694 C   0  0  0  0  0  0  0  0  0  0  0  0
   33.6197  -25.6924  -15.6496 C   0  0  2  0  0  0  0  0  0  0  0  0
   32.1616  -25.6182  -15.6031 N   0  0  0  0  0  0  0  0  0  0  0  0
   33.9806  -26.8027  -16.5634 C   0  0  0  0  0  0  0  0  0  0  0  0
   33.3111  -27.8677  -16.4751 O   0  0  0  0  0  0  0  0  0  0  0  0
   32.3082  -28.7318  -21.0434 C   0  0  0  0  0  0  0  0  0  0  0  0
   33.5532  -28.8711  -20.2415 C   0  0  1  0  0  0  0  0  0  0  0  0
   34.7043  -29.3417  -21.1392 C   0  0  0  0  0  0  0  0  0  0  0  0
   33.9375  -27.7709  -19.3593 C   0  0  0  0  0  0  0  0  0  0  0  0
   35.1667  -27.7895  -18.5476 C   0  0  2  0  0  0  0  0  0  0  0  0
   35.0158  -26.7222  -17.5060 N   0  0  0  0  0  0  0  0  0  0  0  0
   36.4481  -27.4897  -19.1886 C   0  0  0  0  0  0  0  0  0  0  0  0
   36.8071  -26.3138  -19.4362 O   0  0  0  0  0  0  0  0  0  0  0  0
   37.3312  -28.5121  -19.5535 O   0  0  0  0  0  0  0  0  0  0  0  0
  2  1  1  6
  2  3  1  0
  4  2  1  0
  4  5  2  0
  7  6  1  1
  7  8  1  0
  7  9  1  0
 10  9  1  1
 10 11  1  0
 10 12  1  0
 11  4  1  0
 12 13  2  0
 12 19  1  0
 15 14  1  6
 15 16  1  0
 17 15  1  0
 18 17  1  6
 19 18  1  0
 20 22  1  0
 20 18  1  0
 21 20  2  0
M  END
$$$$
