ALL.pdb
     RDKit          3D

 22 21  0  0  1  0  0  0  0  0999 V2000
   26.2705  -18.0202  -19.7621 C   0  0  0  0  0  0  0  0  0  0  0  0
   26.7473  -19.4421  -19.9084 C   0  0  2  0  0  0  0  0  0  0  0  0
   26.3628  -19.9689  -21.2087 N   0  0  0  0  0  0  0  0  0  0  0  0
   26.2457  -20.2800  -18.8077 C   0  0  0  0  0  0  0  0  0  0  0  0
   25.1229  -20.8272  -18.9517 O   0  0  0  0  0  0  0  0  0  0  0  0
   29.5400  -23.2859  -15.4904 C   0  0  0  0  0  0  0  0  0  0  0  0
   28.4316  -22.8548  -16.4227 C   0  0  1  0  0  0  0  0  0  0  0  0
   27.6152  -24.1232  -16.7219 C   0  0  0  0  0  0  0  0  0  0  0  0
   27.5174  -21.9093  -15.6957 C   0  0  0  0  0  0  0  0  0  0  0  0
   26.4138  -21.3505  -16.5518 C   0  0  2  0  0  0  0  0  0  0  0  0
   26.9593  -20.4991  -17.6060 N   0  0  0  0  0  0  0  0  0  0  0  0
   25.4571  -20.5324  -15.7685 C   0  0  0  0  0  0  0  0  0  0  0  0
   25.8175  -19.3674  -15.4472 O   0  0  0  0  0  0  0  0  0  0  0  0
   20.8268  -19.6754  -16.7848 C   0  0  0  0  0  0  0  0  0  0  0  0
   22.2374  -19.2034  -16.7851 C   0  0  1  0  0  0  0  0  0  0  0  0
   22.3906  -18.0122  -17.7392 C   0  0  0  0  0  0  0  0  0  0  0  0
   22.8971  -18.9865  -15.4991 C   0  0  0  0  0  0  0  0  0  0  0  0
   23.2765  -20.0898  -14.5995 C   0  0  2  0  0  0  0  0  0  0  0  0
   24.1905  -20.9887  -15.3761 N   0  0  0  0  0  0  0  0  0  0  0  0
   22.2354  -20.9848  -14.0919 C   0  0  0  0  0  0  0  0  0  0  0  0
   22.1076  -22.1596  -14.5121 O   0  0  0  0  0  0  0  0  0  0  0  0
   21.3339  -20.5617  -13.1088 O   0  0  0  0  0  0  0  0  0  0  0  0
  2  1  1  1
  2  3  1  0
  4  2  1  0
  4  5  2  0
  7  6  1  1
  7  8  1  0
  7  9  1  0
 10  9  1  1
 10 11  1  0
 10 12  1  0
 11  4  1  0
 12 13  2  0
 12 19  1  0
 15 14  1  1
 15 16  1  0
 17 15  1  0
 18 17  1  6
 19 18  1  0
 20 22  1  0
 20 18  1  0
 21 20  2  0
M  END
$$$$
