ALL.pdb
     RDKit          3D

 22 21  0  0  1  0  0  0  0  0999 V2000
   28.4047  -22.3829  -16.5792 C   0  0  0  0  0  0  0  0  0  0  0  0
   27.3482  -21.3195  -16.4250 C   0  0  2  0  0  0  0  0  0  0  0  0
   27.9672  -20.0061  -16.3381 N   0  0  0  0  0  0  0  0  0  0  0  0
   26.4885  -21.5981  -15.2637 C   0  0  0  0  0  0  0  0  0  0  0  0
   25.8500  -22.6812  -15.2530 O   0  0  0  0  0  0  0  0  0  0  0  0
   25.3148  -22.0850  -10.1033 C   0  0  0  0  0  0  0  0  0  0  0  0
   25.1125  -20.6644  -10.5773 C   0  0  1  0  0  0  0  0  0  0  0  0
   25.6373  -19.7640   -9.4465 C   0  0  0  0  0  0  0  0  0  0  0  0
   25.9870  -20.4159  -11.7739 C   0  0  0  0  0  0  0  0  0  0  0  0
   25.4786  -21.0474  -13.0411 C   0  0  2  0  0  0  0  0  0  0  0  0
   26.3470  -20.7150  -14.1677 N   0  0  0  0  0  0  0  0  0  0  0  0
   24.1100  -20.5918  -13.3837 C   0  0  0  0  0  0  0  0  0  0  0  0
   23.9461  -19.3605  -13.6018 O   0  0  0  0  0  0  0  0  0  0  0  0
   21.8033  -21.8741  -17.6569 C   0  0  0  0  0  0  0  0  0  0  0  0
   21.9581  -21.0378  -16.4365 C   0  0  1  0  0  0  0  0  0  0  0  0
   21.6086  -19.5785  -16.7541 C   0  0  0  0  0  0  0  0  0  0  0  0
   21.3516  -21.5068  -15.1921 C   0  0  0  0  0  0  0  0  0  0  0  0
   21.6676  -20.9199  -13.8784 C   0  0  2  0  0  0  0  0  0  0  0  0
   23.0084  -21.4548  -13.4748 N   0  0  0  0  0  0  0  0  0  0  0  0
   20.8010  -21.2196  -12.7373 C   0  0  0  0  0  0  0  0  0  0  0  0
   20.9175  -22.2788  -12.0759 O   0  0  0  0  0  0  0  0  0  0  0  0
   19.7998  -20.3284  -12.3356 O   0  0  0  0  0  0  0  0  0  0  0  0
  2  1  1  1
  2  3  1  0
  4  2  1  0
  4  5  2  0
  7  6  1  1
  7  8  1  0
  7  9  1  0
 10  9  1  1
 10 11  1  0
 10 12  1  0
 11  4  1  0
 12 13  2  0
 12 19  1  0
 15 14  1  6
 15 16  1  0
 17 15  1  0
 18 17  1  6
 19 18  1  0
 20 22  1  0
 20 18  1  0
 21 20  2  0
M  END
$$$$
