ALL.pdb
     RDKit          3D

 22 21  0  0  1  0  0  0  0  0999 V2000
   21.2520  -18.3257  -15.4109 C   0  0  0  0  0  0  0  0  0  0  0  0
   22.5390  -17.9243  -16.0840 C   0  0  2  0  0  0  0  0  0  0  0  0
   22.2930  -17.5903  -17.4783 N   0  0  0  0  0  0  0  0  0  0  0  0
   23.5558  -18.9788  -15.9443 C   0  0  0  0  0  0  0  0  0  0  0  0
   23.3919  -20.0416  -16.5960 O   0  0  0  0  0  0  0  0  0  0  0  0
   28.6295  -17.7295  -15.8427 C   0  0  0  0  0  0  0  0  0  0  0  0
   27.2463  -18.3104  -16.0241 C   0  0  1  0  0  0  0  0  0  0  0  0
   27.2221  -18.9073  -17.4410 C   0  0  0  0  0  0  0  0  0  0  0  0
   27.0635  -19.4538  -15.0661 C   0  0  0  0  0  0  0  0  0  0  0  0
   25.6486  -19.9579  -14.9828 C   0  0  2  0  0  0  0  0  0  0  0  0
   24.6994  -18.8562  -15.1207 N   0  0  0  0  0  0  0  0  0  0  0  0
   25.3684  -20.6285  -13.6905 C   0  0  0  0  0  0  0  0  0  0  0  0
   25.9290  -21.7382  -13.4793 O   0  0  0  0  0  0  0  0  0  0  0  0
   27.0127  -21.6022  -10.2639 C   0  0  0  0  0  0  0  0  0  0  0  0
   25.8933  -20.9265   -9.5547 C   0  0  1  0  0  0  0  0  0  0  0  0
   26.4440  -20.0466   -8.4255 C   0  0  0  0  0  0  0  0  0  0  0  0
   24.8737  -20.2492  -10.3535 C   0  0  0  0  0  0  0  0  0  0  0  0
   24.1883  -20.8936  -11.4872 C   0  0  2  0  0  0  0  0  0  0  0  0
   24.5223  -20.0923  -12.7091 N   0  0  0  0  0  0  0  0  0  0  0  0
   22.7261  -20.9627  -11.4894 C   0  0  0  0  0  0  0  0  0  0  0  0
   22.0335  -20.3367  -12.3269 O   0  0  0  0  0  0  0  0  0  0  0  0
   22.0371  -21.7368  -10.5491 O   0  0  0  0  0  0  0  0  0  0  0  0
  2  1  1  6
  2  3  1  0
  4  2  1  0
  4  5  2  0
  7  6  1  1
  7  8  1  0
  7  9  1  0
 10  9  1  1
 10 11  1  0
 10 12  1  0
 11  4  1  0
 12 13  2  0
 12 19  1  0
 15 14  1  6
 15 16  1  0
 17 15  1  0
 18 17  1  1
 19 18  1  0
 20 22  1  0
 20 18  1  0
 21 20  2  0
M  END
$$$$
