ALL.pdb
     RDKit          3D

 22 21  0  0  1  0  0  0  0  0999 V2000
   18.9659  -27.5960  -14.2382 C   0  0  0  0  0  0  0  0  0  0  0  0
   18.9393  -26.3920  -13.3324 C   0  0  2  0  0  0  0  0  0  0  0  0
   19.6788  -25.2940  -13.9354 N   0  0  0  0  0  0  0  0  0  0  0  0
   19.4527  -26.7295  -11.9953 C   0  0  0  0  0  0  0  0  0  0  0  0
   20.6939  -26.8827  -11.8652 O   0  0  0  0  0  0  0  0  0  0  0  0
   17.0329  -25.1307   -7.1940 C   0  0  0  0  0  0  0  0  0  0  0  0
   18.0349  -25.3777   -8.2979 C   0  0  1  0  0  0  0  0  0  0  0  0
   19.3648  -24.7877   -7.7999 C   0  0  0  0  0  0  0  0  0  0  0  0
   18.2444  -26.8581   -8.4497 C   0  0  0  0  0  0  0  0  0  0  0  0
   19.1935  -27.2282   -9.5567 C   0  0  2  0  0  0  0  0  0  0  0  0
   18.6256  -26.8876  -10.8587 N   0  0  0  0  0  0  0  0  0  0  0  0
   19.5000  -28.6787   -9.5698 C   0  0  0  0  0  0  0  0  0  0  0  0
   18.6630  -29.4435  -10.1218 O   0  0  0  0  0  0  0  0  0  0  0  0
   24.0480  -32.4255  -10.4992 C   0  0  0  0  0  0  0  0  0  0  0  0
   22.7480  -32.2950   -9.7882 C   0  0  1  0  0  0  0  0  0  0  0  0
   22.7574  -33.1546   -8.5180 C   0  0  0  0  0  0  0  0  0  0  0  0
   22.2134  -30.9540   -9.5598 C   0  0  0  0  0  0  0  0  0  0  0  0
   20.8669  -30.7131   -9.0126 C   0  0  2  0  0  0  0  0  0  0  0  0
   20.6601  -29.2285   -9.0055 N   0  0  0  0  0  0  0  0  0  0  0  0
   20.5720  -31.1253   -7.6393 C   0  0  0  0  0  0  0  0  0  0  0  0
   20.2662  -32.3074   -7.3526 O   0  0  0  0  0  0  0  0  0  0  0  0
   20.6203  -30.2090   -6.5828 O   0  0  0  0  0  0  0  0  0  0  0  0
  2  1  1  6
  2  3  1  0
  4  2  1  0
  4  5  2  0
  7  6  1  1
  7  8  1  0
  7  9  1  0
 10  9  1  1
 10 11  1  0
 10 12  1  0
 11  4  1  0
 12 13  2  0
 12 19  1  0
 15 14  1  1
 15 16  1  0
 17 15  1  0
 18 17  1  1
 19 18  1  0
 20 22  1  0
 20 18  1  0
 21 20  2  0
M  END
$$$$
