ALL.pdb
     RDKit          3D

 22 21  0  0  1  0  0  0  0  0999 V2000
   22.0517  -19.5537  -12.5338 C   0  0  0  0  0  0  0  0  0  0  0  0
   23.1611  -19.5545  -13.5535 C   0  0  2  0  0  0  0  0  0  0  0  0
   22.6354  -19.8937  -14.8667 N   0  0  0  0  0  0  0  0  0  0  0  0
   24.2471  -20.4606  -13.1473 C   0  0  0  0  0  0  0  0  0  0  0  0
   24.0652  -21.6962  -13.2926 O   0  0  0  0  0  0  0  0  0  0  0  0
   29.2110  -19.2152  -14.4913 C   0  0  0  0  0  0  0  0  0  0  0  0
   27.8968  -19.9056  -14.2087 C   0  0  1  0  0  0  0  0  0  0  0  0
   27.8858  -21.1675  -15.0875 C   0  0  0  0  0  0  0  0  0  0  0  0
   27.8824  -20.3696  -12.7794 C   0  0  0  0  0  0  0  0  0  0  0  0
   26.5652  -20.9492  -12.3408 C   0  0  2  0  0  0  0  0  0  0  0  0
   25.4756  -20.0135  -12.6068 N   0  0  0  0  0  0  0  0  0  0  0  0
   26.5442  -21.2572  -10.8907 C   0  0  0  0  0  0  0  0  0  0  0  0
   27.1638  -22.2866  -10.5073 O   0  0  0  0  0  0  0  0  0  0  0  0
   28.2075  -18.5408   -6.6476 C   0  0  0  0  0  0  0  0  0  0  0  0
   27.7503  -19.6969   -7.4644 C   0  0  1  0  0  0  0  0  0  0  0  0
   28.4460  -20.9795   -6.9917 C   0  0  0  0  0  0  0  0  0  0  0  0
   26.3146  -19.8757   -7.6719 C   0  0  0  0  0  0  0  0  0  0  0  0
   25.7569  -20.9395   -8.5250 C   0  0  2  0  0  0  0  0  0  0  0  0
   25.8777  -20.4677   -9.9425 N   0  0  0  0  0  0  0  0  0  0  0  0
   24.3451  -21.2992   -8.3833 C   0  0  0  0  0  0  0  0  0  0  0  0
   23.8947  -21.8181   -7.3340 O   0  0  0  0  0  0  0  0  0  0  0  0
   23.4340  -21.0763   -9.4217 O   0  0  0  0  0  0  0  0  0  0  0  0
  2  1  1  1
  2  3  1  0
  4  2  1  0
  4  5  2  0
  7  6  1  1
  7  8  1  0
  7  9  1  0
 10  9  1  1
 10 11  1  0
 10 12  1  0
 11  4  1  0
 12 13  2  0
 12 19  1  0
 15 14  1  1
 15 16  1  0
 17 15  1  0
 18 17  1  1
 19 18  1  0
 20 22  1  0
 20 18  1  0
 21 20  2  0
M  END
$$$$
