ALL.pdb
     RDKit          3D

 22 21  0  0  1  0  0  0  0  0999 V2000
   24.7436  -18.2204  -16.4193 C   0  0  0  0  0  0  0  0  0  0  0  0
   24.2973  -18.5155  -15.0106 C   0  0  2  0  0  0  0  0  0  0  0  0
   24.5429  -17.3650  -14.1550 N   0  0  0  0  0  0  0  0  0  0  0  0
   24.9501  -19.7300  -14.4965 C   0  0  0  0  0  0  0  0  0  0  0  0
   24.7798  -20.8013  -15.1323 O   0  0  0  0  0  0  0  0  0  0  0  0
   29.9524  -19.6535  -13.6758 C   0  0  0  0  0  0  0  0  0  0  0  0
   28.5213  -20.0248  -13.9884 C   0  0  1  0  0  0  0  0  0  0  0  0
   28.5924  -21.0556  -15.1274 C   0  0  0  0  0  0  0  0  0  0  0  0
   27.9250  -20.7273  -12.8013 C   0  0  0  0  0  0  0  0  0  0  0  0
   26.4447  -20.9691  -12.9174 C   0  0  2  0  0  0  0  0  0  0  0  0
   25.7539  -19.7509  -13.3326 N   0  0  0  0  0  0  0  0  0  0  0  0
   25.8462  -21.4052  -11.6329 C   0  0  0  0  0  0  0  0  0  0  0  0
   25.9438  -22.6260  -11.3323 O   0  0  0  0  0  0  0  0  0  0  0  0
   26.8215  -19.0970   -7.2261 C   0  0  0  0  0  0  0  0  0  0  0  0
   26.3858  -20.2249   -8.0925 C   0  0  1  0  0  0  0  0  0  0  0  0
   27.0274  -21.5325   -7.6117 C   0  0  0  0  0  0  0  0  0  0  0  0
   24.9603  -20.3673   -8.3820 C   0  0  0  0  0  0  0  0  0  0  0  0
   24.4529  -21.0821   -9.5661 C   0  0  2  0  0  0  0  0  0  0  0  0
   25.1882  -20.5347  -10.7520 N   0  0  0  0  0  0  0  0  0  0  0  0
   23.0399  -20.9514   -9.9256 C   0  0  0  0  0  0  0  0  0  0  0  0
   22.6756  -20.4262  -11.0047 O   0  0  0  0  0  0  0  0  0  0  0  0
   22.0308  -21.4116   -9.0722 O   0  0  0  0  0  0  0  0  0  0  0  0
  2  1  1  6
  2  3  1  0
  4  2  1  0
  4  5  2  0
  7  6  1  1
  7  8  1  0
  7  9  1  0
 10  9  1  1
 10 11  1  0
 10 12  1  0
 11  4  1  0
 12 13  2  0
 12 19  1  0
 15 14  1  1
 15 16  1  0
 17 15  1  0
 18 17  1  1
 19 18  1  0
 20 22  1  0
 20 18  1  0
 21 20  2  0
M  END
$$$$
