ALL.pdb
     RDKit          3D

 22 21  0  0  1  0  0  0  0  0999 V2000
   27.1645  -18.2382  -15.3490 C   0  0  0  0  0  0  0  0  0  0  0  0
   27.6383  -19.5067  -14.6880 C   0  0  2  0  0  0  0  0  0  0  0  0
   28.3297  -20.3473  -15.6531 N   0  0  0  0  0  0  0  0  0  0  0  0
   26.5187  -20.2149  -14.0474 C   0  0  0  0  0  0  0  0  0  0  0  0
   25.9885  -21.1652  -14.6773 O   0  0  0  0  0  0  0  0  0  0  0  0
   26.1846  -20.2835   -8.5719 C   0  0  0  0  0  0  0  0  0  0  0  0
   26.2985  -20.5387  -10.0570 C   0  0  1  0  0  0  0  0  0  0  0  0
   26.8000  -21.9855  -10.1989 C   0  0  0  0  0  0  0  0  0  0  0  0
   24.9277  -20.4902  -10.6709 C   0  0  0  0  0  0  0  0  0  0  0  0
   24.9249  -20.6472  -12.1671 C   0  0  2  0  0  0  0  0  0  0  0  0
   26.0146  -19.8824  -12.7682 N   0  0  0  0  0  0  0  0  0  0  0  0
   23.6590  -20.1743  -12.7772 C   0  0  0  0  0  0  0  0  0  0  0  0
   23.6614  -19.0284  -13.3038 O   0  0  0  0  0  0  0  0  0  0  0  0
   21.6078  -20.7896  -17.6092 C   0  0  0  0  0  0  0  0  0  0  0  0
   21.0217  -20.5162  -16.2696 C   0  0  1  0  0  0  0  0  0  0  0  0
   19.5949  -21.0746  -16.1986 C   0  0  0  0  0  0  0  0  0  0  0  0
   21.8153  -20.8397  -15.0856 C   0  0  0  0  0  0  0  0  0  0  0  0
   21.3580  -20.5538  -13.7147 C   0  0  2  0  0  0  0  0  0  0  0  0
   22.4793  -20.9323  -12.7949 N   0  0  0  0  0  0  0  0  0  0  0  0
   20.1985  -21.2740  -13.1859 C   0  0  0  0  0  0  0  0  0  0  0  0
   20.2775  -22.4635  -12.7962 O   0  0  0  0  0  0  0  0  0  0  0  0
   18.9452  -20.6585  -13.0932 O   0  0  0  0  0  0  0  0  0  0  0  0
  2  1  1  6
  2  3  1  0
  4  2  1  0
  4  5  2  0
  7  6  1  1
  7  8  1  0
  7  9  1  0
 10  9  1  1
 10 11  1  0
 10 12  1  0
 11  4  1  0
 12 13  2  0
 12 19  1  0
 15 14  1  6
 15 16  1  0
 17 15  1  0
 18 17  1  6
 19 18  1  0
 20 22  1  0
 20 18  1  0
 21 20  2  0
M  END
$$$$
