ALL.pdb
     RDKit          3D

 22 21  0  0  1  0  0  0  0  0999 V2000
   23.7953  -37.6183   -4.6957 C   0  0  0  0  0  0  0  0  0  0  0  0
   24.6535  -37.3443   -5.9037 C   0  0  2  0  0  0  0  0  0  0  0  0
   25.3529  -38.5543   -6.3071 N   0  0  0  0  0  0  0  0  0  0  0  0
   25.5838  -36.2337   -5.6460 C   0  0  0  0  0  0  0  0  0  0  0  0
   26.6862  -36.5055   -5.1057 O   0  0  0  0  0  0  0  0  0  0  0  0
   25.6671  -31.7884   -8.8305 C   0  0  0  0  0  0  0  0  0  0  0  0
   26.0159  -33.0142   -8.0186 C   0  0  1  0  0  0  0  0  0  0  0  0
   27.4497  -33.3945   -8.4240 C   0  0  0  0  0  0  0  0  0  0  0  0
   26.0581  -32.6441   -6.5627 C   0  0  0  0  0  0  0  0  0  0  0  0
   26.2406  -33.8189   -5.6409 C   0  0  2  0  0  0  0  0  0  0  0  0
   25.3016  -34.8870   -5.9743 N   0  0  0  0  0  0  0  0  0  0  0  0
   26.0174  -33.4563   -4.2208 C   0  0  0  0  0  0  0  0  0  0  0  0
   26.8216  -32.6377   -3.6978 O   0  0  0  0  0  0  0  0  0  0  0  0
   23.7311  -30.9732   -0.1521 C   0  0  0  0  0  0  0  0  0  0  0  0
   23.0409  -32.1547   -0.7354 C   0  0  1  0  0  0  0  0  0  0  0  0
   21.5290  -31.9027   -0.7920 C   0  0  0  0  0  0  0  0  0  0  0  0
   23.5662  -32.7235   -1.9751 C   0  0  0  0  0  0  0  0  0  0  0  0
   24.7969  -33.5318   -2.0249 C   0  0  2  0  0  0  0  0  0  0  0  0
   24.9690  -33.9740   -3.4466 N   0  0  0  0  0  0  0  0  0  0  0  0
   24.8663  -34.7718   -1.2501 C   0  0  0  0  0  0  0  0  0  0  0  0
   24.3465  -35.8383   -1.6569 O   0  0  0  0  0  0  0  0  0  0  0  0
   25.5213  -34.8170   -0.0143 O   0  0  0  0  0  0  0  0  0  0  0  0
  2  1  1  1
  2  3  1  0
  4  2  1  0
  4  5  2  0
  7  6  1  6
  7  8  1  0
  7  9  1  0
 10  9  1  6
 10 11  1  0
 10 12  1  0
 11  4  1  0
 12 13  2  0
 12 19  1  0
 15 14  1  6
 15 16  1  0
 17 15  1  0
 18 17  1  6
 19 18  1  0
 20 22  1  0
 20 18  1  0
 21 20  2  0
M  END
$$$$
