ALL.pdb
     RDKit          3D

 22 21  0  0  1  0  0  0  0  0999 V2000
   27.1023  -18.1621  -13.3891 C   0  0  0  0  0  0  0  0  0  0  0  0
   28.3000  -18.9834  -13.7910 C   0  0  2  0  0  0  0  0  0  0  0  0
   28.2871  -19.2203  -15.2262 N   0  0  0  0  0  0  0  0  0  0  0  0
   28.3542  -20.2409  -13.0286 C   0  0  0  0  0  0  0  0  0  0  0  0
   27.7102  -21.2249  -13.4736 O   0  0  0  0  0  0  0  0  0  0  0  0
   32.7833  -21.9341  -10.3186 C   0  0  0  0  0  0  0  0  0  0  0  0
   31.5531  -21.8694  -11.1937 C   0  0  1  0  0  0  0  0  0  0  0  0
   31.5266  -23.1895  -11.9821 C   0  0  0  0  0  0  0  0  0  0  0  0
   30.3292  -21.8578  -10.3216 C   0  0  0  0  0  0  0  0  0  0  0  0
   29.0455  -21.6466  -11.0769 C   0  0  2  0  0  0  0  0  0  0  0  0
   29.0899  -20.3959  -11.8303 N   0  0  0  0  0  0  0  0  0  0  0  0
   27.8698  -21.5828  -10.1759 C   0  0  0  0  0  0  0  0  0  0  0  0
   27.5305  -22.6461   -9.5889 O   0  0  0  0  0  0  0  0  0  0  0  0
   27.6330  -18.2650   -6.1150 C   0  0  0  0  0  0  0  0  0  0  0  0
   27.2642  -19.4751   -6.8976 C   0  0  1  0  0  0  0  0  0  0  0  0
   26.9096  -20.6254   -5.9470 C   0  0  0  0  0  0  0  0  0  0  0  0
   26.3053  -19.3290   -7.9910 C   0  0  0  0  0  0  0  0  0  0  0  0
   26.0159  -20.4095   -8.9497 C   0  0  2  0  0  0  0  0  0  0  0  0
   27.1312  -20.4122   -9.9510 N   0  0  0  0  0  0  0  0  0  0  0  0
   24.8010  -20.3337   -9.7627 C   0  0  0  0  0  0  0  0  0  0  0  0
   24.8297  -19.9885  -10.9681 O   0  0  0  0  0  0  0  0  0  0  0  0
   23.5484  -20.6465   -9.2227 O   0  0  0  0  0  0  0  0  0  0  0  0
  2  1  1  1
  2  3  1  0
  4  2  1  0
  4  5  2  0
  7  6  1  1
  7  8  1  0
  7  9  1  0
 10  9  1  1
 10 11  1  0
 10 12  1  0
 11  4  1  0
 12 13  2  0
 12 19  1  0
 15 14  1  1
 15 16  1  0
 17 15  1  0
 18 17  1  1
 19 18  1  0
 20 22  1  0
 20 18  1  0
 21 20  2  0
M  END
$$$$
