ALL.pdb
     RDKit          3D

 22 21  0  0  1  0  0  0  0  0999 V2000
   21.7960  -19.7828  -12.0040 C   0  0  0  0  0  0  0  0  0  0  0  0
   22.7291  -19.7142  -13.1852 C   0  0  2  0  0  0  0  0  0  0  0  0
   22.0396  -20.1367  -14.3944 N   0  0  0  0  0  0  0  0  0  0  0  0
   23.9439  -20.5080  -12.9414 C   0  0  0  0  0  0  0  0  0  0  0  0
   23.8891  -21.7455  -13.1571 O   0  0  0  0  0  0  0  0  0  0  0  0
   28.7934  -18.9326  -14.6122 C   0  0  0  0  0  0  0  0  0  0  0  0
   27.5570  -19.7285  -14.2639 C   0  0  1  0  0  0  0  0  0  0  0  0
   27.6892  -21.0633  -15.0160 C   0  0  0  0  0  0  0  0  0  0  0  0
   27.5771  -20.0513  -12.7963 C   0  0  0  0  0  0  0  0  0  0  0  0
   26.3519  -20.7806  -12.3166 C   0  0  2  0  0  0  0  0  0  0  0  0
   25.1604  -19.9517  -12.4812 N   0  0  0  0  0  0  0  0  0  0  0  0
   26.4446  -21.1483  -10.8833 C   0  0  0  0  0  0  0  0  0  0  0  0
   27.1434  -22.1553  -10.5868 O   0  0  0  0  0  0  0  0  0  0  0  0
   27.9015  -18.4195   -6.7041 C   0  0  0  0  0  0  0  0  0  0  0  0
   27.5542  -19.6157   -7.5172 C   0  0  1  0  0  0  0  0  0  0  0  0
   28.5436  -20.7513   -7.2269 C   0  0  0  0  0  0  0  0  0  0  0  0
   26.1639  -20.0665   -7.5303 C   0  0  0  0  0  0  0  0  0  0  0  0
   25.6519  -21.0502   -8.5001 C   0  0  2  0  0  0  0  0  0  0  0  0
   25.8008  -20.4376   -9.8600 N   0  0  0  0  0  0  0  0  0  0  0  0
   24.2447  -21.4480   -8.4355 C   0  0  0  0  0  0  0  0  0  0  0  0
   23.7688  -22.0442   -7.4399 O   0  0  0  0  0  0  0  0  0  0  0  0
   23.3669  -21.1764   -9.4909 O   0  0  0  0  0  0  0  0  0  0  0  0
  2  1  1  1
  2  3  1  0
  4  2  1  0
  4  5  2  0
  7  6  1  1
  7  8  1  0
  7  9  1  0
 10  9  1  1
 10 11  1  0
 10 12  1  0
 11  4  1  0
 12 13  2  0
 12 19  1  0
 15 14  1  1
 15 16  1  0
 17 15  1  0
 18 17  1  1
 19 18  1  0
 20 22  1  0
 20 18  1  0
 21 20  2  0
M  END
$$$$
