DQC.pdb
     RDKit          3D

 24 23  0  0  1  0  0  0  0  0999 V2000
   11.3927  -16.5009   17.1070 N   0  0  0  0  0  0  0  0  0  0  0  0
   12.6222  -15.7796   17.4231 C   0  0  1  0  0  0  0  0  0  0  0  0
   13.0168  -15.0345   16.1682 C   0  0  0  0  0  0  0  0  0  0  0  0
   13.3652  -15.9705   15.0665 C   0  0  0  0  0  0  0  0  0  0  0  0
   12.4924  -16.4574   14.3002 O   0  0  0  0  0  0  0  0  0  0  0  0
   12.2945  -14.7944   18.4836 C   0  0  0  0  0  0  0  0  0  0  0  0
   13.2240  -14.0497   18.9131 O   0  0  0  0  0  0  0  0  0  0  0  0
   14.6770  -16.3464   14.8389 O   0  0  0  0  0  0  0  0  0  0  0  0
    6.7273  -13.2666   20.0492 N   0  0  0  0  0  0  0  0  0  0  0  0
    7.3357  -13.3440   18.7416 C   0  0  0  0  0  0  0  0  0  0  0  0
    6.5739  -13.6319   17.8211 O   0  0  0  0  0  0  0  0  0  0  0  0
    8.7644  -13.0938   18.5567 C   0  0  0  0  0  0  0  0  0  0  0  0
    9.5692  -12.7949   19.7572 C   0  0  0  0  0  0  0  0  0  0  0  0
   10.7078  -13.6825   20.0899 C   0  0  2  0  0  0  0  0  0  0  0  0
   11.0077  -14.6320   19.0480 N   0  0  0  0  0  0  0  0  0  0  0  0
   10.7409  -14.3134   21.4162 C   0  0  0  0  0  0  0  0  0  0  0  0
   10.4310  -13.6748   22.4742 O   0  0  0  0  0  0  0  0  0  0  0  0
   11.1150  -15.6858   21.5988 N   0  0  0  0  0  0  0  0  0  0  0  0
   11.2895  -16.3835   22.8160 C   0  0  1  0  0  0  0  0  0  0  0  0
   10.0926  -17.1100   23.3487 C   0  0  0  0  0  0  0  0  0  0  0  0
    9.4286  -18.1546   21.9941 S   0  0  0  0  0  0  0  0  0  0  0  0
   12.5421  -17.1974   22.9178 C   0  0  0  0  0  0  0  0  0  0  0  0
   12.9271  -17.6966   24.1252 O   0  0  0  0  0  0  0  0  0  0  0  0
   13.2182  -17.4098   21.9008 O   0  0  0  0  0  0  0  0  0  0  0  0
  2  1  1  6
  2  3  1  0
  4  3  1  0
  4  8  1  0
  5  4  2  0
  6  2  1  0
  7  6  2  0
  9 10  1  0
 10 12  1  0
 11 10  2  0
 12 13  1  0
 14 13  1  6
 14 15  1  0
 15  6  1  0
 16 14  1  0
 16 18  1  0
 17 16  2  0
 19 18  1  0
 19 22  1  0
 19 20  1  6
 20 21  1  0
 22 23  1  0
 24 22  2  0
M  END
$$$$
