DQC.pdb
     RDKit          3D

 24 23  0  0  1  0  0  0  0  0999 V2000
    9.6564  -16.3346   20.0993 N   0  0  0  0  0  0  0  0  0  0  0  0
   10.6205  -16.8937   21.0427 C   0  0  1  0  0  0  0  0  0  0  0  0
   11.9070  -16.1241   20.8474 C   0  0  0  0  0  0  0  0  0  0  0  0
   12.6089  -16.5436   19.6054 C   0  0  0  0  0  0  0  0  0  0  0  0
   12.7292  -17.7544   19.2806 O   0  0  0  0  0  0  0  0  0  0  0  0
   10.1046  -16.6281   22.4087 C   0  0  0  0  0  0  0  0  0  0  0  0
    9.8503  -15.4294   22.7272 O   0  0  0  0  0  0  0  0  0  0  0  0
   13.1630  -15.6085   18.7494 O   0  0  0  0  0  0  0  0  0  0  0  0
    7.5785  -20.9894   26.4899 N   0  0  0  0  0  0  0  0  0  0  0  0
    7.4167  -19.7104   27.1409 C   0  0  0  0  0  0  0  0  0  0  0  0
    6.7860  -19.7309   28.1956 O   0  0  0  0  0  0  0  0  0  0  0  0
    7.9747  -18.4904   26.5594 C   0  0  0  0  0  0  0  0  0  0  0  0
    8.6499  -18.6007   25.2516 C   0  0  0  0  0  0  0  0  0  0  0  0
    9.2338  -17.3808   24.6469 C   0  0  2  0  0  0  0  0  0  0  0  0
    9.8775  -17.6294   23.3816 N   0  0  0  0  0  0  0  0  0  0  0  0
   10.0431  -16.4958   25.4955 C   0  0  0  0  0  0  0  0  0  0  0  0
   11.3008  -16.3724   25.3339 O   0  0  0  0  0  0  0  0  0  0  0  0
    9.4662  -15.7127   26.5493 N   0  0  0  0  0  0  0  0  0  0  0  0
   10.1214  -14.8120   27.4200 C   0  0  1  0  0  0  0  0  0  0  0  0
    9.8199  -13.3570   27.2288 C   0  0  0  0  0  0  0  0  0  0  0  0
    8.0070  -13.1373   27.4073 S   0  0  0  0  0  0  0  0  0  0  0  0
   10.1335  -15.2064   28.8644 C   0  0  0  0  0  0  0  0  0  0  0  0
   10.8882  -14.4998   29.7512 O   0  0  0  0  0  0  0  0  0  0  0  0
    9.4556  -16.1736   29.2404 O   0  0  0  0  0  0  0  0  0  0  0  0
  2  1  1  6
  2  3  1  0
  4  3  1  0
  4  8  1  0
  5  4  2  0
  6  2  1  0
  7  6  2  0
  9 10  1  0
 10 12  1  0
 11 10  2  0
 12 13  1  0
 14 13  1  1
 14 15  1  0
 15  6  1  0
 16 14  1  0
 16 18  1  0
 17 16  2  0
 19 18  1  0
 19 22  1  0
 19 20  1  1
 20 21  1  0
 22 23  1  0
 24 22  2  0
M  END
$$$$
