DQC.pdb
     RDKit          3D

 24 23  0  0  1  0  0  0  0  0999 V2000
   12.1216  -16.5965   19.6814 N   0  0  0  0  0  0  0  0  0  0  0  0
   12.6027  -15.8126   20.8153 C   0  0  1  0  0  0  0  0  0  0  0  0
   12.7535  -14.3918   20.3210 C   0  0  0  0  0  0  0  0  0  0  0  0
   13.9967  -14.2225   19.5229 C   0  0  0  0  0  0  0  0  0  0  0  0
   15.1088  -14.6666   19.9132 O   0  0  0  0  0  0  0  0  0  0  0  0
   11.5454  -15.8492   21.8563 C   0  0  0  0  0  0  0  0  0  0  0  0
   10.4463  -15.2711   21.6099 O   0  0  0  0  0  0  0  0  0  0  0  0
   13.9787  -13.5628   18.3070 O   0  0  0  0  0  0  0  0  0  0  0  0
    9.9054  -20.6014   21.3987 N   0  0  0  0  0  0  0  0  0  0  0  0
    9.9508  -19.8327   22.6206 C   0  0  0  0  0  0  0  0  0  0  0  0
   10.1964  -20.4747   23.6394 O   0  0  0  0  0  0  0  0  0  0  0  0
    9.7142  -18.3898   22.6149 C   0  0  0  0  0  0  0  0  0  0  0  0
    9.7200  -17.6888   23.9138 C   0  0  0  0  0  0  0  0  0  0  0  0
   10.6393  -16.5421   24.0997 C   0  0  2  0  0  0  0  0  0  0  0  0
   11.6853  -16.4897   23.1096 N   0  0  0  0  0  0  0  0  0  0  0  0
   11.1615  -16.2730   25.4463 C   0  0  0  0  0  0  0  0  0  0  0  0
   12.3436  -16.6023   25.7888 O   0  0  0  0  0  0  0  0  0  0  0  0
   10.3769  -15.6170   26.4516 N   0  0  0  0  0  0  0  0  0  0  0  0
   10.6539  -15.5054   27.8334 C   0  0  1  0  0  0  0  0  0  0  0  0
    9.9677  -14.3933   28.5661 C   0  0  0  0  0  0  0  0  0  0  0  0
   10.1217  -12.8770   27.5444 S   0  0  0  0  0  0  0  0  0  0  0  0
   10.6330  -16.7912   28.6002 C   0  0  0  0  0  0  0  0  0  0  0  0
   10.1866  -17.9290   27.9992 O   0  0  0  0  0  0  0  0  0  0  0  0
   11.0228  -16.8085   29.7767 O   0  0  0  0  0  0  0  0  0  0  0  0
  2  1  1  6
  2  3  1  0
  4  3  1  0
  4  8  1  0
  5  4  2  0
  6  2  1  0
  7  6  2  0
  9 10  1  0
 10 12  1  0
 11 10  2  0
 12 13  1  0
 14 13  1  1
 14 15  1  0
 15  6  1  0
 16 14  1  0
 16 18  1  0
 17 16  2  0
 19 18  1  0
 19 22  1  0
 19 20  1  1
 20 21  1  0
 22 23  1  0
 24 22  2  0
M  END
$$$$
