DQC.pdb
     RDKit          3D

 24 23  0  0  1  0  0  0  0  0999 V2000
   13.8773  -16.4321   17.5845 N   0  0  0  0  0  0  0  0  0  0  0  0
   14.4025  -15.1019   17.8788 C   0  0  1  0  0  0  0  0  0  0  0  0
   14.7890  -14.4903   16.5513 C   0  0  0  0  0  0  0  0  0  0  0  0
   15.8560  -15.2783   15.8792 C   0  0  0  0  0  0  0  0  0  0  0  0
   16.7480  -15.8870   16.5273 O   0  0  0  0  0  0  0  0  0  0  0  0
   13.2931  -14.3108   18.4672 C   0  0  0  0  0  0  0  0  0  0  0  0
   13.5631  -13.1703   18.9463 O   0  0  0  0  0  0  0  0  0  0  0  0
   15.9099  -15.3739   14.5001 O   0  0  0  0  0  0  0  0  0  0  0  0
    7.2477  -13.9345   16.6659 N   0  0  0  0  0  0  0  0  0  0  0  0
    7.3138  -13.1377   17.8687 C   0  0  0  0  0  0  0  0  0  0  0  0
    6.3020  -12.4905   18.1294 O   0  0  0  0  0  0  0  0  0  0  0  0
    8.5173  -13.1206   18.6988 C   0  0  0  0  0  0  0  0  0  0  0  0
    9.6718  -13.9228   18.2493 C   0  0  0  0  0  0  0  0  0  0  0  0
   10.8820  -13.9689   19.1026 C   0  0  2  0  0  0  0  0  0  0  0  0
   11.9494  -14.7485   18.5282 N   0  0  0  0  0  0  0  0  0  0  0  0
   10.7199  -14.2545   20.5345 C   0  0  0  0  0  0  0  0  0  0  0  0
    9.8959  -13.6095   21.2613 O   0  0  0  0  0  0  0  0  0  0  0  0
   11.4716  -15.2802   21.1975 N   0  0  0  0  0  0  0  0  0  0  0  0
   11.2936  -15.7766   22.5092 C   0  0  1  0  0  0  0  0  0  0  0  0
    9.8882  -16.0932   22.9202 C   0  0  0  0  0  0  0  0  0  0  0  0
    9.9104  -16.4950   24.7105 S   0  0  0  0  0  0  0  0  0  0  0  0
   12.2639  -16.8347   22.9345 C   0  0  0  0  0  0  0  0  0  0  0  0
   12.3018  -17.2325   24.2366 O   0  0  0  0  0  0  0  0  0  0  0  0
   13.0247  -17.3398   22.0964 O   0  0  0  0  0  0  0  0  0  0  0  0
  2  1  1  6
  2  3  1  0
  4  3  1  0
  4  8  1  0
  5  4  2  0
  6  2  1  0
  7  6  2  0
  9 10  1  0
 10 12  1  0
 11 10  2  0
 12 13  1  0
 14 13  1  6
 14 15  1  0
 15  6  1  0
 16 14  1  0
 16 18  1  0
 17 16  2  0
 19 18  1  0
 19 22  1  0
 19 20  1  6
 20 21  1  0
 22 23  1  0
 24 22  2  0
M  END
$$$$
