DQC.pdb
     RDKit          3D

 24 23  0  0  1  0  0  0  0  0999 V2000
    7.0382  -18.0821   20.1393 N   0  0  0  0  0  0  0  0  0  0  0  0
    7.7719  -16.9093   20.6063 C   0  0  1  0  0  0  0  0  0  0  0  0
    7.3962  -15.7729   19.6828 C   0  0  0  0  0  0  0  0  0  0  0  0
    8.1147  -15.8667   18.3843 C   0  0  0  0  0  0  0  0  0  0  0  0
    7.6070  -15.4572   17.3069 O   0  0  0  0  0  0  0  0  0  0  0  0
    7.2829  -16.5994   21.9729 C   0  0  0  0  0  0  0  0  0  0  0  0
    6.0912  -16.1914   22.1012 O   0  0  0  0  0  0  0  0  0  0  0  0
    9.3831  -16.4139   18.3096 O   0  0  0  0  0  0  0  0  0  0  0  0
    7.4140  -20.1656   26.8761 N   0  0  0  0  0  0  0  0  0  0  0  0
    6.7529  -20.1186   25.5929 C   0  0  0  0  0  0  0  0  0  0  0  0
    6.1266  -21.1300   25.2844 O   0  0  0  0  0  0  0  0  0  0  0  0
    6.8425  -18.9348   24.7394 C   0  0  0  0  0  0  0  0  0  0  0  0
    7.5035  -17.7375   25.2947 C   0  0  0  0  0  0  0  0  0  0  0  0
    7.5508  -16.5054   24.4736 C   0  0  2  0  0  0  0  0  0  0  0  0
    8.0631  -16.7302   23.1455 N   0  0  0  0  0  0  0  0  0  0  0  0
    8.1184  -15.2877   25.0683 C   0  0  0  0  0  0  0  0  0  0  0  0
    9.3616  -15.0188   24.9956 O   0  0  0  0  0  0  0  0  0  0  0  0
    7.3078  -14.3262   25.7575 N   0  0  0  0  0  0  0  0  0  0  0  0
    7.7223  -13.3582   26.7008 C   0  0  1  0  0  0  0  0  0  0  0  0
    6.6777  -12.3939   27.1734 C   0  0  0  0  0  0  0  0  0  0  0  0
    5.7663  -11.7951   25.6977 S   0  0  0  0  0  0  0  0  0  0  0  0
    8.5711  -13.8733   27.8215 C   0  0  0  0  0  0  0  0  0  0  0  0
    8.8078  -15.2102   27.9303 O   0  0  0  0  0  0  0  0  0  0  0  0
    9.0514  -13.0772   28.6412 O   0  0  0  0  0  0  0  0  0  0  0  0
  2  1  1  6
  2  3  1  0
  4  3  1  0
  4  8  1  0
  5  4  2  0
  6  2  1  0
  7  6  2  0
  9 10  1  0
 10 12  1  0
 11 10  2  0
 12 13  1  0
 14 13  1  1
 14 15  1  0
 15  6  1  0
 16 14  1  0
 16 18  1  0
 17 16  2  0
 19 18  1  0
 19 22  1  0
 19 20  1  1
 20 21  1  0
 22 23  1  0
 24 22  2  0
M  END
$$$$
