DQC.pdb
     RDKit          3D

 24 23  0  0  1  0  0  0  0  0999 V2000
   12.8602  -17.2982   17.7064 N   0  0  0  0  0  0  0  0  0  0  0  0
   11.8478  -17.5917   18.7167 C   0  0  1  0  0  0  0  0  0  0  0  0
   12.4571  -18.6132   19.6499 C   0  0  0  0  0  0  0  0  0  0  0  0
   12.1230  -20.0004   19.2312 C   0  0  0  0  0  0  0  0  0  0  0  0
   11.4928  -20.2458   18.1688 O   0  0  0  0  0  0  0  0  0  0  0  0
   11.6024  -16.3376   19.4716 C   0  0  0  0  0  0  0  0  0  0  0  0
   12.5712  -15.5379   19.6297 O   0  0  0  0  0  0  0  0  0  0  0  0
   12.4962  -21.0869   20.0020 O   0  0  0  0  0  0  0  0  0  0  0  0
    6.6345  -12.6629   19.0357 N   0  0  0  0  0  0  0  0  0  0  0  0
    7.4471  -13.5009   18.1852 C   0  0  0  0  0  0  0  0  0  0  0  0
    7.0687  -13.5948   17.0197 O   0  0  0  0  0  0  0  0  0  0  0  0
    8.6330  -14.1807   18.7045 C   0  0  0  0  0  0  0  0  0  0  0  0
    8.9855  -13.9589   20.1205 C   0  0  0  0  0  0  0  0  0  0  0  0
   10.1127  -14.7247   20.7017 C   0  0  2  0  0  0  0  0  0  0  0  0
   10.3533  -15.9757   20.0279 N   0  0  0  0  0  0  0  0  0  0  0  0
   10.1757  -14.8809   22.1611 C   0  0  0  0  0  0  0  0  0  0  0  0
    9.7280  -13.9900   22.9542 O   0  0  0  0  0  0  0  0  0  0  0  0
   10.7360  -16.0471   22.7798 N   0  0  0  0  0  0  0  0  0  0  0  0
   10.7892  -16.3580   24.1579 C   0  0  1  0  0  0  0  0  0  0  0  0
    9.5382  -16.1193   24.9469 C   0  0  0  0  0  0  0  0  0  0  0  0
    9.9166  -16.4705   26.7077 S   0  0  0  0  0  0  0  0  0  0  0  0
   11.4376  -17.6638   24.4989 C   0  0  0  0  0  0  0  0  0  0  0  0
   11.7247  -17.9566   25.7978 O   0  0  0  0  0  0  0  0  0  0  0  0
   11.7075  -18.4676   23.5948 O   0  0  0  0  0  0  0  0  0  0  0  0
  2  1  1  6
  2  3  1  0
  4  3  1  0
  4  8  1  0
  5  4  2  0
  6  2  1  0
  7  6  2  0
  9 10  1  0
 10 12  1  0
 11 10  2  0
 12 13  1  0
 14 13  1  1
 14 15  1  0
 15  6  1  0
 16 14  1  0
 16 18  1  0
 17 16  2  0
 19 18  1  0
 19 22  1  0
 19 20  1  6
 20 21  1  0
 22 23  1  0
 24 22  2  0
M  END
$$$$
