DQC.pdb
     RDKit          3D

 24 23  0  0  1  0  0  0  0  0999 V2000
   11.5662  -17.9696   19.6656 N   0  0  0  0  0  0  0  0  0  0  0  0
   12.4324  -17.8010   20.8288 C   0  0  1  0  0  0  0  0  0  0  0  0
   13.3406  -16.6322   20.5211 C   0  0  0  0  0  0  0  0  0  0  0  0
   14.5950  -17.0776   19.8583 C   0  0  0  0  0  0  0  0  0  0  0  0
   15.1576  -18.1654   20.1517 O   0  0  0  0  0  0  0  0  0  0  0  0
   11.5628  -17.4441   21.9774 C   0  0  0  0  0  0  0  0  0  0  0  0
   10.5653  -16.6954   21.7596 O   0  0  0  0  0  0  0  0  0  0  0  0
   15.1986  -16.3046   18.8825 O   0  0  0  0  0  0  0  0  0  0  0  0
    8.5333  -21.0331   25.6840 N   0  0  0  0  0  0  0  0  0  0  0  0
    9.8126  -21.2299   25.0433 C   0  0  0  0  0  0  0  0  0  0  0  0
   10.1283  -22.4007   24.8433 O   0  0  0  0  0  0  0  0  0  0  0  0
   10.6543  -20.0936   24.6713 C   0  0  0  0  0  0  0  0  0  0  0  0
   10.0980  -18.7389   24.8550 C   0  0  0  0  0  0  0  0  0  0  0  0
   10.8937  -17.5750   24.4000 C   0  0  2  0  0  0  0  0  0  0  0  0
   11.7757  -17.8868   23.3038 N   0  0  0  0  0  0  0  0  0  0  0  0
   11.5659  -16.7470   25.4104 C   0  0  0  0  0  0  0  0  0  0  0  0
   12.5704  -16.0175   25.1241 O   0  0  0  0  0  0  0  0  0  0  0  0
   11.1276  -16.7033   26.7752 N   0  0  0  0  0  0  0  0  0  0  0  0
   10.7715  -15.5666   27.5366 C   0  0  1  0  0  0  0  0  0  0  0  0
    9.7732  -14.6344   26.9211 C   0  0  0  0  0  0  0  0  0  0  0  0
    9.6458  -13.1612   28.0076 S   0  0  0  0  0  0  0  0  0  0  0  0
   10.4938  -15.8232   28.9854 C   0  0  0  0  0  0  0  0  0  0  0  0
   11.1546  -15.1071   29.9370 O   0  0  0  0  0  0  0  0  0  0  0  0
    9.6638  -16.6863   29.3059 O   0  0  0  0  0  0  0  0  0  0  0  0
  2  1  1  6
  2  3  1  0
  4  3  1  0
  4  8  1  0
  5  4  2  0
  6  2  1  0
  7  6  2  0
  9 10  1  0
 10 12  1  0
 11 10  2  0
 12 13  1  0
 14 13  1  1
 14 15  1  0
 15  6  1  0
 16 14  1  0
 16 18  1  0
 17 16  2  0
 19 18  1  0
 19 22  1  0
 19 20  1  6
 20 21  1  0
 22 23  1  0
 24 22  2  0
M  END
$$$$
