DQC.pdb
     RDKit          3D

 24 23  0  0  1  0  0  0  0  0999 V2000
   11.8557  -19.2690   20.7782 N   0  0  0  0  0  0  0  0  0  0  0  0
   12.5943  -18.0130   20.8718 C   0  0  1  0  0  0  0  0  0  0  0  0
   12.6457  -17.4408   19.4734 C   0  0  0  0  0  0  0  0  0  0  0  0
   13.9306  -17.7658   18.7993 C   0  0  0  0  0  0  0  0  0  0  0  0
   14.7553  -18.5826   19.2880 O   0  0  0  0  0  0  0  0  0  0  0  0
   11.8039  -17.1007   21.7353 C   0  0  0  0  0  0  0  0  0  0  0  0
   12.3069  -15.9777   22.0337 O   0  0  0  0  0  0  0  0  0  0  0  0
   14.2730  -17.1763   17.5955 O   0  0  0  0  0  0  0  0  0  0  0  0
    6.7193  -17.8438   24.7261 N   0  0  0  0  0  0  0  0  0  0  0  0
    6.5442  -16.4308   24.4838 C   0  0  0  0  0  0  0  0  0  0  0  0
    5.6981  -15.8763   25.1818 O   0  0  0  0  0  0  0  0  0  0  0  0
    7.3331  -15.7346   23.4685 C   0  0  0  0  0  0  0  0  0  0  0  0
    8.2822  -16.5345   22.6699 C   0  0  0  0  0  0  0  0  0  0  0  0
    9.7239  -16.4718   23.0050 C   0  0  2  0  0  0  0  0  0  0  0  0
   10.5213  -17.4041   22.2487 N   0  0  0  0  0  0  0  0  0  0  0  0
   10.1147  -16.4575   24.4212 C   0  0  0  0  0  0  0  0  0  0  0  0
    9.7683  -15.5158   25.2063 O   0  0  0  0  0  0  0  0  0  0  0  0
   10.9006  -17.5048   25.0061 N   0  0  0  0  0  0  0  0  0  0  0  0
   11.3466  -17.6120   26.3434 C   0  0  1  0  0  0  0  0  0  0  0  0
   10.3194  -17.3914   27.4114 C   0  0  0  0  0  0  0  0  0  0  0  0
    9.1255  -18.7824   27.3294 S   0  0  0  0  0  0  0  0  0  0  0  0
   12.2296  -18.7854   26.6356 C   0  0  0  0  0  0  0  0  0  0  0  0
   12.9025  -18.8464   27.8182 O   0  0  0  0  0  0  0  0  0  0  0  0
   12.3401  -19.6918   25.7974 O   0  0  0  0  0  0  0  0  0  0  0  0
  2  1  1  6
  2  3  1  0
  4  3  1  0
  4  8  1  0
  5  4  2  0
  6  2  1  0
  7  6  2  0
  9 10  1  0
 10 12  1  0
 11 10  2  0
 12 13  1  0
 14 13  1  1
 14 15  1  0
 15  6  1  0
 16 14  1  0
 16 18  1  0
 17 16  2  0
 19 18  1  0
 19 22  1  0
 19 20  1  1
 20 21  1  0
 22 23  1  0
 24 22  2  0
M  END
$$$$
