DQC.pdb
     RDKit          3D

 24 23  0  0  1  0  0  0  0  0999 V2000
   11.3256  -18.0525   20.4056 N   0  0  0  0  0  0  0  0  0  0  0  0
   11.9284  -17.1947   21.4217 C   0  0  1  0  0  0  0  0  0  0  0  0
   12.1661  -15.8540   20.7648 C   0  0  0  0  0  0  0  0  0  0  0  0
   13.3674  -15.8826   19.8888 C   0  0  0  0  0  0  0  0  0  0  0  0
   13.2815  -15.8457   18.6329 O   0  0  0  0  0  0  0  0  0  0  0  0
   10.9291  -17.0276   22.5063 C   0  0  0  0  0  0  0  0  0  0  0  0
    9.7464  -16.7113   22.1834 O   0  0  0  0  0  0  0  0  0  0  0  0
   14.6402  -15.9517   20.4267 O   0  0  0  0  0  0  0  0  0  0  0  0
   10.3307  -21.1357   22.9195 N   0  0  0  0  0  0  0  0  0  0  0  0
    9.6488  -20.5254   24.0368 C   0  0  0  0  0  0  0  0  0  0  0  0
    8.4631  -20.8246   24.1590 O   0  0  0  0  0  0  0  0  0  0  0  0
   10.3477  -19.6154   24.9431 C   0  0  0  0  0  0  0  0  0  0  0  0
    9.6523  -18.3758   25.3410 C   0  0  0  0  0  0  0  0  0  0  0  0
   10.2215  -17.0741   24.9210 C   0  0  2  0  0  0  0  0  0  0  0  0
   11.2118  -17.1991   23.8815 N   0  0  0  0  0  0  0  0  0  0  0  0
   10.6512  -16.1286   25.9602 C   0  0  0  0  0  0  0  0  0  0  0  0
   11.8745  -16.0039   26.2936 O   0  0  0  0  0  0  0  0  0  0  0  0
    9.7226  -15.2846   26.6544 N   0  0  0  0  0  0  0  0  0  0  0  0
    9.9876  -14.3951   27.7209 C   0  0  1  0  0  0  0  0  0  0  0  0
    9.0119  -13.2754   27.9169 C   0  0  0  0  0  0  0  0  0  0  0  0
    8.5729  -12.6246   26.2584 S   0  0  0  0  0  0  0  0  0  0  0  0
   10.3832  -15.0392   29.0134 C   0  0  0  0  0  0  0  0  0  0  0  0
   10.8204  -14.2670   30.0468 O   0  0  0  0  0  0  0  0  0  0  0  0
   10.3091  -16.2708   29.1313 O   0  0  0  0  0  0  0  0  0  0  0  0
  2  1  1  6
  2  3  1  0
  4  3  1  0
  4  8  1  0
  5  4  2  0
  6  2  1  0
  7  6  2  0
  9 10  1  0
 10 12  1  0
 11 10  2  0
 12 13  1  0
 14 13  1  1
 14 15  1  0
 15  6  1  0
 16 14  1  0
 16 18  1  0
 17 16  2  0
 19 18  1  0
 19 22  1  0
 19 20  1  1
 20 21  1  0
 22 23  1  0
 24 22  2  0
M  END
$$$$
