DQC.pdb
     RDKit          3D

 24 23  0  0  1  0  0  0  0  0999 V2000
   14.5001  -20.2576   13.9976 N   0  0  0  0  0  0  0  0  0  0  0  0
   15.2462  -20.3253   15.2508 C   0  0  1  0  0  0  0  0  0  0  0  0
   15.9618  -19.0014   15.3957 C   0  0  0  0  0  0  0  0  0  0  0  0
   16.9975  -18.8247   14.3435 C   0  0  0  0  0  0  0  0  0  0  0  0
   17.8748  -19.6987   14.1138 O   0  0  0  0  0  0  0  0  0  0  0  0
   14.2545  -20.4578   16.3471 C   0  0  0  0  0  0  0  0  0  0  0  0
   13.6944  -19.4057   16.7743 O   0  0  0  0  0  0  0  0  0  0  0  0
   17.0373  -17.6799   13.5678 O   0  0  0  0  0  0  0  0  0  0  0  0
   11.9237  -25.7399   16.9788 N   0  0  0  0  0  0  0  0  0  0  0  0
   11.4065  -24.6903   16.1323 C   0  0  0  0  0  0  0  0  0  0  0  0
   10.9256  -25.0623   15.0642 O   0  0  0  0  0  0  0  0  0  0  0  0
   11.4668  -23.2885   16.5440 C   0  0  0  0  0  0  0  0  0  0  0  0
   12.0463  -22.9869   17.8675 C   0  0  0  0  0  0  0  0  0  0  0  0
   12.9223  -21.8004   18.0073 C   0  0  2  0  0  0  0  0  0  0  0  0
   13.8927  -21.6860   16.9480 N   0  0  0  0  0  0  0  0  0  0  0  0
   13.5246  -21.5240   19.3185 C   0  0  0  0  0  0  0  0  0  0  0  0
   14.5769  -20.8162   19.4409 O   0  0  0  0  0  0  0  0  0  0  0  0
   12.9609  -22.0260   20.5378 N   0  0  0  0  0  0  0  0  0  0  0  0
   13.4093  -21.7997   21.8593 C   0  0  1  0  0  0  0  0  0  0  0  0
   13.2176  -20.4173   22.4039 C   0  0  0  0  0  0  0  0  0  0  0  0
   14.0542  -20.3421   24.0353 S   0  0  0  0  0  0  0  0  0  0  0  0
   13.0458  -22.8591   22.8530 C   0  0  0  0  0  0  0  0  0  0  0  0
   14.0216  -23.4522   23.5955 O   0  0  0  0  0  0  0  0  0  0  0  0
   11.8585  -23.1872   22.9909 O   0  0  0  0  0  0  0  0  0  0  0  0
  2  1  1  6
  2  3  1  0
  4  3  1  0
  4  8  1  0
  5  4  2  0
  6  2  1  0
  7  6  2  0
  9 10  1  0
 10 12  1  0
 11 10  2  0
 12 13  1  0
 14 13  1  1
 14 15  1  0
 15  6  1  0
 16 14  1  0
 16 18  1  0
 17 16  2  0
 19 18  1  0
 19 22  1  0
 19 20  1  1
 20 21  1  0
 22 23  1  0
 24 22  2  0
M  END
$$$$
