DQC.pdb
     RDKit          3D

 24 23  0  0  1  0  0  0  0  0999 V2000
   13.1222  -17.1949   17.2529 N   0  0  0  0  0  0  0  0  0  0  0  0
   11.6931  -16.9354   17.4018 C   0  0  1  0  0  0  0  0  0  0  0  0
   10.9848  -17.8858   16.4633 C   0  0  0  0  0  0  0  0  0  0  0  0
   11.2058  -17.5117   15.0412 C   0  0  0  0  0  0  0  0  0  0  0  0
   12.3010  -17.0409   14.6349 O   0  0  0  0  0  0  0  0  0  0  0  0
   11.3266  -17.2777   18.7987 C   0  0  0  0  0  0  0  0  0  0  0  0
   10.1117  -17.1719   19.1391 O   0  0  0  0  0  0  0  0  0  0  0  0
   10.2048  -17.6686   14.0992 O   0  0  0  0  0  0  0  0  0  0  0  0
   14.1673  -21.3714   22.8132 N   0  0  0  0  0  0  0  0  0  0  0  0
   12.8397  -21.6015   22.2932 C   0  0  0  0  0  0  0  0  0  0  0  0
   12.4372  -22.7604   22.3671 O   0  0  0  0  0  0  0  0  0  0  0  0
   12.0523  -20.5102   21.7213 C   0  0  0  0  0  0  0  0  0  0  0  0
   12.6613  -19.1659   21.6948 C   0  0  0  0  0  0  0  0  0  0  0  0
   11.8785  -18.0408   21.1326 C   0  0  2  0  0  0  0  0  0  0  0  0
   12.2483  -17.7159   19.7781 N   0  0  0  0  0  0  0  0  0  0  0  0
   11.7069  -16.8300   21.9467 C   0  0  0  0  0  0  0  0  0  0  0  0
   12.5073  -15.8423   21.8625 O   0  0  0  0  0  0  0  0  0  0  0  0
   10.6255  -16.6836   22.8772 N   0  0  0  0  0  0  0  0  0  0  0  0
   10.5338  -15.7886   23.9677 C   0  0  1  0  0  0  0  0  0  0  0  0
    9.4400  -14.7668   23.9050 C   0  0  0  0  0  0  0  0  0  0  0  0
    7.8395  -15.6614   23.9783 S   0  0  0  0  0  0  0  0  0  0  0  0
   10.6547  -16.4115   25.3239 C   0  0  0  0  0  0  0  0  0  0  0  0
   10.9921  -15.6396   26.3942 O   0  0  0  0  0  0  0  0  0  0  0  0
   10.4462  -17.6257   25.4604 O   0  0  0  0  0  0  0  0  0  0  0  0
  2  1  1  1
  2  3  1  0
  4  3  1  0
  4  8  1  0
  5  4  2  0
  6  2  1  0
  7  6  2  0
  9 10  1  0
 10 12  1  0
 11 10  2  0
 12 13  1  0
 14 13  1  1
 14 15  1  0
 15  6  1  0
 16 14  1  0
 16 18  1  0
 17 16  2  0
 19 18  1  0
 19 22  1  0
 19 20  1  1
 20 21  1  0
 22 23  1  0
 24 22  2  0
M  END
$$$$
