DQC.pdb
     RDKit          3D

 24 23  0  0  1  0  0  0  0  0999 V2000
    7.2593  -16.5513   21.9275 N   0  0  0  0  0  0  0  0  0  0  0  0
    7.8146  -17.8602   22.2595 C   0  0  1  0  0  0  0  0  0  0  0  0
    7.9419  -18.6150   20.9557 C   0  0  0  0  0  0  0  0  0  0  0  0
    6.6902  -18.5362   20.1569 C   0  0  0  0  0  0  0  0  0  0  0  0
    5.5530  -18.6829   20.6777 O   0  0  0  0  0  0  0  0  0  0  0  0
    9.1709  -17.6343   22.8181 C   0  0  0  0  0  0  0  0  0  0  0  0
    9.8764  -18.6476   23.0984 O   0  0  0  0  0  0  0  0  0  0  0  0
    6.7279  -18.2959   18.7949 O   0  0  0  0  0  0  0  0  0  0  0  0
   13.3711  -15.9849   19.3205 N   0  0  0  0  0  0  0  0  0  0  0  0
   13.6756  -15.7577   20.7139 C   0  0  0  0  0  0  0  0  0  0  0  0
   14.6309  -15.0156   20.9313 O   0  0  0  0  0  0  0  0  0  0  0  0
   12.8845  -16.3836   21.7723 C   0  0  0  0  0  0  0  0  0  0  0  0
   11.9610  -15.5237   22.5380 C   0  0  0  0  0  0  0  0  0  0  0  0
   11.0713  -16.1517   23.5423 C   0  0  2  0  0  0  0  0  0  0  0  0
    9.7292  -16.3572   23.0589 N   0  0  0  0  0  0  0  0  0  0  0  0
   11.0723  -15.6183   24.9112 C   0  0  0  0  0  0  0  0  0  0  0  0
   12.1409  -15.2172   25.4773 O   0  0  0  0  0  0  0  0  0  0  0  0
    9.8719  -15.5091   25.6881 N   0  0  0  0  0  0  0  0  0  0  0  0
    9.7404  -15.0715   27.0259 C   0  0  1  0  0  0  0  0  0  0  0  0
    8.5971  -14.1489   27.3192 C   0  0  0  0  0  0  0  0  0  0  0  0
    8.4649  -12.9667   25.9221 S   0  0  0  0  0  0  0  0  0  0  0  0
    9.8976  -16.1338   28.0694 C   0  0  0  0  0  0  0  0  0  0  0  0
   10.0242  -15.7810   29.3788 O   0  0  0  0  0  0  0  0  0  0  0  0
    9.9111  -17.3263   27.7314 O   0  0  0  0  0  0  0  0  0  0  0  0
  2  1  1  6
  2  3  1  0
  4  3  1  0
  4  8  1  0
  5  4  2  0
  6  2  1  0
  7  6  2  0
  9 10  1  0
 10 12  1  0
 11 10  2  0
 12 13  1  0
 14 13  1  6
 14 15  1  0
 15  6  1  0
 16 14  1  0
 16 18  1  0
 17 16  2  0
 19 18  1  0
 19 22  1  0
 19 20  1  6
 20 21  1  0
 22 23  1  0
 24 22  2  0
M  END
$$$$
