GSQ.pdb
     RDKit          3D

 20 19  0  0  1  0  0  0  0  0999 V2000
    4.6820  -19.5446   16.6152 N   0  0  0  0  0  0  0  0  0  0  0  0
    3.7614  -20.2092   17.4838 C   0  0  0  0  0  0  0  0  0  0  0  0
    3.8606  -19.6381   18.8690 C   0  0  0  0  0  0  0  0  0  0  0  0
    4.7713  -18.8265   19.1754 O   0  0  0  0  0  0  0  0  0  0  0  0
    0.7085  -19.0497   21.2863 O   0  0  0  0  0  0  0  0  0  0  0  0
    1.7195  -19.6898   21.9778 C   0  0  0  0  0  0  0  0  0  0  0  0
    3.0224  -19.4864   21.2583 C   0  0  2  0  0  0  0  0  0  0  0  0
    2.9382  -19.9862   19.8865 N   0  0  0  0  0  0  0  0  0  0  0  0
    4.1079  -20.1468   21.9885 C   0  0  0  0  0  0  0  0  0  0  0  0
    4.5246  -21.3139   21.6728 O   0  0  0  0  0  0  0  0  0  0  0  0
    8.0301  -18.9211   27.9581 N   0  0  0  0  0  0  0  0  0  0  0  0
    7.4845  -18.5371   26.7031 C   0  0  0  0  0  0  0  0  0  0  0  0
    7.7254  -17.3964   26.2779 O   0  0  0  0  0  0  0  0  0  0  0  0
    6.6506  -19.5294   25.9654 C   0  0  0  0  0  0  0  0  0  0  0  0
    6.6032  -19.1484   24.5224 C   0  0  0  0  0  0  0  0  0  0  0  0
    5.9324  -20.2095   23.7126 C   0  0  2  0  0  0  0  0  0  0  0  0
    4.7665  -19.5444   23.0824 N   0  0  0  0  0  0  0  0  0  0  0  0
    5.4072  -21.3391   24.5206 C   0  0  0  0  0  0  0  0  0  0  0  0
    6.2710  -22.3277   25.0242 O   0  0  0  0  0  0  0  0  0  0  0  0
    4.1881  -21.4878   24.8040 O   0  0  0  0  0  0  0  0  0  0  0  0
  2  1  1  0
  3  2  1  0
  4  3  2  0
  6  5  1  0
  7  8  1  0
  7  6  1  1
  8  3  1  0
  9  7  1  0
 10  9  2  0
 12 14  1  0
 12 11  1  0
 13 12  2  0
 15 14  1  0
 16 15  1  1
 16 17  1  0
 17  9  1  0
 18 19  1  0
 18 16  1  0
 20 18  2  0
M  END
$$$$
