GSQ.pdb
     RDKit          3D

 20 19  0  0  1  0  0  0  0  0999 V2000
    8.3113  -11.8840   19.7210 N   0  0  0  0  0  0  0  0  0  0  0  0
    8.8577  -13.1577   19.3706 C   0  0  0  0  0  0  0  0  0  0  0  0
    8.7117  -14.1118   20.5210 C   0  0  0  0  0  0  0  0  0  0  0  0
    8.3337  -13.7145   21.6529 O   0  0  0  0  0  0  0  0  0  0  0  0
    7.9062  -18.1581   20.0921 O   0  0  0  0  0  0  0  0  0  0  0  0
    8.9582  -17.8677   20.9402 C   0  0  0  0  0  0  0  0  0  0  0  0
    8.8077  -16.4663   21.4598 C   0  0  2  0  0  0  0  0  0  0  0  0
    8.9917  -15.4938   20.3832 N   0  0  0  0  0  0  0  0  0  0  0  0
    9.7616  -16.2284   22.5466 C   0  0  0  0  0  0  0  0  0  0  0  0
   10.9382  -15.7773   22.3284 O   0  0  0  0  0  0  0  0  0  0  0  0
    9.9409  -13.5502   29.2488 N   0  0  0  0  0  0  0  0  0  0  0  0
    9.3799  -14.0951   28.0619 C   0  0  0  0  0  0  0  0  0  0  0  0
    8.1719  -13.9153   27.8424 O   0  0  0  0  0  0  0  0  0  0  0  0
   10.2772  -14.8547   27.1442 C   0  0  0  0  0  0  0  0  0  0  0  0
    9.4809  -15.3442   25.9797 C   0  0  0  0  0  0  0  0  0  0  0  0
   10.3613  -16.0136   24.9755 C   0  0  2  0  0  0  0  0  0  0  0  0
    9.4502  -16.4766   23.9011 N   0  0  0  0  0  0  0  0  0  0  0  0
   11.0651  -17.2119   25.4984 C   0  0  0  0  0  0  0  0  0  0  0  0
   12.2591  -17.0843   26.2300 O   0  0  0  0  0  0  0  0  0  0  0  0
   10.6555  -18.3919   25.3293 O   0  0  0  0  0  0  0  0  0  0  0  0
  2  1  1  0
  3  2  1  0
  4  3  2  0
  6  5  1  0
  7  8  1  0
  7  6  1  6
  8  3  1  0
  9  7  1  0
 10  9  2  0
 12 14  1  0
 12 11  1  0
 13 12  2  0
 15 14  1  0
 16 15  1  1
 16 17  1  0
 17  9  1  0
 18 19  1  0
 18 16  1  0
 20 18  2  0
M  END
$$$$
