GSQ.pdb
     RDKit          3D

 20 19  0  0  1  0  0  0  0  0999 V2000
    9.0630  -14.1304   16.1752 N   0  0  0  0  0  0  0  0  0  0  0  0
    8.1329  -14.5121   17.1915 C   0  0  0  0  0  0  0  0  0  0  0  0
    8.6796  -14.1597   18.5449 C   0  0  0  0  0  0  0  0  0  0  0  0
    9.9086  -13.9562   18.7182 O   0  0  0  0  0  0  0  0  0  0  0  0
    6.3652  -14.7907   21.9904 O   0  0  0  0  0  0  0  0  0  0  0  0
    7.2141  -13.7001   22.0121 C   0  0  0  0  0  0  0  0  0  0  0  0
    8.3437  -13.9280   21.0484 C   0  0  2  0  0  0  0  0  0  0  0  0
    7.8402  -14.0415   19.6801 N   0  0  0  0  0  0  0  0  0  0  0  0
    9.0945  -15.1275   21.4293 C   0  0  0  0  0  0  0  0  0  0  0  0
    9.1783  -16.1464   20.6611 O   0  0  0  0  0  0  0  0  0  0  0  0
   13.7525  -14.1217   20.2560 N   0  0  0  0  0  0  0  0  0  0  0  0
   14.2416  -15.2810   20.9172 C   0  0  0  0  0  0  0  0  0  0  0  0
   15.4176  -15.6232   20.7179 O   0  0  0  0  0  0  0  0  0  0  0  0
   13.3114  -16.0232   21.8161 C   0  0  0  0  0  0  0  0  0  0  0  0
   11.9974  -15.3145   21.8489 C   0  0  0  0  0  0  0  0  0  0  0  0
   11.0356  -16.0164   22.7512 C   0  0  2  0  0  0  0  0  0  0  0  0
    9.7751  -15.2407   22.6611 N   0  0  0  0  0  0  0  0  0  0  0  0
   11.4453  -16.0207   24.1783 C   0  0  0  0  0  0  0  0  0  0  0  0
   12.4057  -16.9332   24.6496 O   0  0  0  0  0  0  0  0  0  0  0  0
   10.9764  -15.2316   25.0421 O   0  0  0  0  0  0  0  0  0  0  0  0
  2  1  1  0
  3  2  1  0
  4  3  2  0
  6  5  1  0
  7  8  1  0
  7  6  1  1
  8  3  1  0
  9  7  1  0
 10  9  2  0
 12 14  1  0
 12 11  1  0
 13 12  2  0
 15 14  1  0
 16 15  1  6
 16 17  1  0
 17  9  1  0
 18 19  1  0
 18 16  1  0
 20 18  2  0
M  END
$$$$
