GSQ.pdb
     RDKit          3D

 20 19  0  0  1  0  0  0  0  0999 V2000
    8.3585  -13.6403   17.7203 N   0  0  0  0  0  0  0  0  0  0  0  0
    7.5610  -14.0664   18.8276 C   0  0  0  0  0  0  0  0  0  0  0  0
    8.3653  -13.9995   20.0940 C   0  0  0  0  0  0  0  0  0  0  0  0
    9.6171  -13.8804   20.0651 O   0  0  0  0  0  0  0  0  0  0  0  0
    6.5355  -14.5845   23.8128 O   0  0  0  0  0  0  0  0  0  0  0  0
    7.6064  -13.7115   23.7780 C   0  0  0  0  0  0  0  0  0  0  0  0
    8.5025  -14.0669   22.6259 C   0  0  2  0  0  0  0  0  0  0  0  0
    7.7533  -14.0670   21.3700 N   0  0  0  0  0  0  0  0  0  0  0  0
    9.1286  -15.3710   22.8602 C   0  0  0  0  0  0  0  0  0  0  0  0
    8.6533  -16.4494   22.3637 O   0  0  0  0  0  0  0  0  0  0  0  0
   13.3433  -19.3973   21.6512 N   0  0  0  0  0  0  0  0  0  0  0  0
   13.7854  -18.2269   22.3257 C   0  0  0  0  0  0  0  0  0  0  0  0
   14.6681  -17.5358   21.7937 O   0  0  0  0  0  0  0  0  0  0  0  0
   13.1618  -17.8940   23.6389 C   0  0  0  0  0  0  0  0  0  0  0  0
   12.3849  -16.6262   23.5014 C   0  0  0  0  0  0  0  0  0  0  0  0
   10.9344  -16.8576   23.7737 C   0  0  2  0  0  0  0  0  0  0  0  0
   10.2932  -15.5269   23.6429 N   0  0  0  0  0  0  0  0  0  0  0  0
   10.6520  -17.3459   25.1471 C   0  0  0  0  0  0  0  0  0  0  0  0
   10.2208  -16.4618   26.1519 O   0  0  0  0  0  0  0  0  0  0  0  0
   10.7748  -18.5498   25.4995 O   0  0  0  0  0  0  0  0  0  0  0  0
  2  1  1  0
  3  2  1  0
  4  3  2  0
  6  5  1  0
  7  8  1  0
  7  6  1  1
  8  3  1  0
  9  7  1  0
 10  9  2  0
 12 14  1  0
 12 11  1  0
 13 12  2  0
 15 14  1  0
 16 15  1  1
 16 17  1  0
 17  9  1  0
 18 19  1  0
 18 16  1  0
 20 18  2  0
M  END
$$$$
