GSQ.pdb
     RDKit          3D

 20 19  0  0  1  0  0  0  0  0999 V2000
    8.5702  -17.1903   18.0728 N   0  0  0  0  0  0  0  0  0  0  0  0
    7.7729  -16.8304   19.2036 C   0  0  0  0  0  0  0  0  0  0  0  0
    8.6232  -16.1403   20.2311 C   0  0  0  0  0  0  0  0  0  0  0  0
    9.8711  -16.0600   20.0965 O   0  0  0  0  0  0  0  0  0  0  0  0
    6.9048  -14.7010   23.7349 O   0  0  0  0  0  0  0  0  0  0  0  0
    7.9889  -13.9875   23.2597 C   0  0  0  0  0  0  0  0  0  0  0  0
    8.8533  -14.8898   22.4259 C   0  0  2  0  0  0  0  0  0  0  0  0
    8.0606  -15.5524   21.3909 N   0  0  0  0  0  0  0  0  0  0  0  0
    9.5230  -15.8742   23.2805 C   0  0  0  0  0  0  0  0  0  0  0  0
    9.0536  -17.0510   23.4540 O   0  0  0  0  0  0  0  0  0  0  0  0
   15.7415  -16.4609   22.2905 N   0  0  0  0  0  0  0  0  0  0  0  0
   14.9298  -16.1720   23.4210 C   0  0  0  0  0  0  0  0  0  0  0  0
   15.4315  -15.5380   24.3624 O   0  0  0  0  0  0  0  0  0  0  0  0
   13.5165  -16.6482   23.4123 C   0  0  0  0  0  0  0  0  0  0  0  0
   12.8691  -16.2748   24.7051 C   0  0  0  0  0  0  0  0  0  0  0  0
   11.4275  -16.6667   24.7121 C   0  0  2  0  0  0  0  0  0  0  0  0
   10.7256  -15.5951   23.9654 N   0  0  0  0  0  0  0  0  0  0  0  0
   10.8267  -16.7199   26.0689 C   0  0  0  0  0  0  0  0  0  0  0  0
   10.9128  -17.8859   26.8500 O   0  0  0  0  0  0  0  0  0  0  0  0
   10.2157  -15.7542   26.6006 O   0  0  0  0  0  0  0  0  0  0  0  0
  2  1  1  0
  3  2  1  0
  4  3  2  0
  6  5  1  0
  7  8  1  0
  7  6  1  1
  8  3  1  0
  9  7  1  0
 10  9  2  0
 12 14  1  0
 12 11  1  0
 13 12  2  0
 15 14  1  0
 16 15  1  1
 16 17  1  0
 17  9  1  0
 18 19  1  0
 18 16  1  0
 20 18  2  0
M  END
$$$$
