GSQ.pdb
     RDKit          3D

 20 19  0  0  1  0  0  0  0  0999 V2000
   -1.4421  -27.1083   28.5219 N   0  0  0  0  0  0  0  0  0  0  0  0
   -2.6327  -27.8384   28.2164 C   0  0  0  0  0  0  0  0  0  0  0  0
   -3.7605  -26.8864   27.9393 C   0  0  0  0  0  0  0  0  0  0  0  0
   -3.6237  -25.6476   28.1085 O   0  0  0  0  0  0  0  0  0  0  0  0
   -7.4688  -28.3440   26.7677 O   0  0  0  0  0  0  0  0  0  0  0  0
   -7.1117  -27.1167   26.2419 C   0  0  0  0  0  0  0  0  0  0  0  0
   -6.1347  -26.4443   27.1638 C   0  0  2  0  0  0  0  0  0  0  0  0
   -5.0212  -27.3388   27.4777 N   0  0  0  0  0  0  0  0  0  0  0  0
   -6.8155  -26.0095   28.3866 C   0  0  0  0  0  0  0  0  0  0  0  0
   -6.9666  -26.7871   29.3906 O   0  0  0  0  0  0  0  0  0  0  0  0
   -6.2459  -20.5761   30.5945 N   0  0  0  0  0  0  0  0  0  0  0  0
   -5.5096  -21.6918   31.0775 C   0  0  0  0  0  0  0  0  0  0  0  0
   -4.4776  -21.4799   31.7331 O   0  0  0  0  0  0  0  0  0  0  0  0
   -6.0199  -23.0586   30.7682 C   0  0  0  0  0  0  0  0  0  0  0  0
   -7.3580  -22.9424   30.1157 C   0  0  0  0  0  0  0  0  0  0  0  0
   -7.9343  -24.2923   29.8372 C   0  0  2  0  0  0  0  0  0  0  0  0
   -7.3464  -24.7106   28.5418 N   0  0  0  0  0  0  0  0  0  0  0  0
   -9.4095  -24.2918   29.6681 C   0  0  0  0  0  0  0  0  0  0  0  0
   -9.9884  -24.1859   28.3910 O   0  0  0  0  0  0  0  0  0  0  0  0
  -10.2226  -24.3834   30.6268 O   0  0  0  0  0  0  0  0  0  0  0  0
  2  1  1  0
  3  2  1  0
  4  3  2  0
  6  5  1  0
  7  8  1  0
  7  6  1  6
  8  3  1  0
  9  7  1  0
 10  9  2  0
 12 14  1  0
 12 11  1  0
 13 12  2  0
 15 14  1  0
 16 15  1  6
 16 17  1  0
 17  9  1  0
 18 19  1  0
 18 16  1  0
 20 18  2  0
M  END
$$$$
