GSQ.pdb
     RDKit          3D

 20 19  0  0  1  0  0  0  0  0999 V2000
    8.2497  -13.7781   17.2197 N   0  0  0  0  0  0  0  0  0  0  0  0
    7.5645  -14.4235   18.2956 C   0  0  0  0  0  0  0  0  0  0  0  0
    8.2995  -14.1903   19.5842 C   0  0  0  0  0  0  0  0  0  0  0  0
    9.4724  -13.7363   19.5922 O   0  0  0  0  0  0  0  0  0  0  0  0
    6.5272  -15.0885   23.3007 O   0  0  0  0  0  0  0  0  0  0  0  0
    7.4038  -14.0231   23.2188 C   0  0  0  0  0  0  0  0  0  0  0  0
    8.3939  -14.2753   22.1176 C   0  0  2  0  0  0  0  0  0  0  0  0
    7.7077  -14.4696   20.8408 N   0  0  0  0  0  0  0  0  0  0  0  0
    9.2248  -15.4370   22.4455 C   0  0  0  0  0  0  0  0  0  0  0  0
    8.9476  -16.6101   22.0186 O   0  0  0  0  0  0  0  0  0  0  0  0
   15.9168  -17.4516   22.8810 N   0  0  0  0  0  0  0  0  0  0  0  0
   14.7839  -16.5936   22.8601 C   0  0  0  0  0  0  0  0  0  0  0  0
   14.9599  -15.3877   22.6266 O   0  0  0  0  0  0  0  0  0  0  0  0
   13.4431  -17.1925   23.1207 C   0  0  0  0  0  0  0  0  0  0  0  0
   12.5550  -16.1542   23.7232 C   0  0  0  0  0  0  0  0  0  0  0  0
   11.1214  -16.5666   23.6421 C   0  0  2  0  0  0  0  0  0  0  0  0
   10.3825  -15.3429   23.2481 N   0  0  0  0  0  0  0  0  0  0  0  0
   10.5539  -17.0225   24.9362 C   0  0  0  0  0  0  0  0  0  0  0  0
   10.8440  -18.3032   25.4391 O   0  0  0  0  0  0  0  0  0  0  0  0
    9.7955  -16.3165   25.6538 O   0  0  0  0  0  0  0  0  0  0  0  0
  2  1  1  0
  3  2  1  0
  4  3  2  0
  6  5  1  0
  7  8  1  0
  7  6  1  1
  8  3  1  0
  9  7  1  0
 10  9  2  0
 12 14  1  0
 12 11  1  0
 13 12  2  0
 15 14  1  0
 16 15  1  1
 16 17  1  0
 17  9  1  0
 18 19  1  0
 18 16  1  0
 20 18  2  0
M  END
$$$$
