GSQ.pdb
     RDKit          3D

 20 19  0  0  1  0  0  0  0  0999 V2000
    9.1083  -16.1084   15.1592 N   0  0  0  0  0  0  0  0  0  0  0  0
    8.0215  -15.7781   16.0272 C   0  0  0  0  0  0  0  0  0  0  0  0
    8.5438  -15.1399   17.2822 C   0  0  0  0  0  0  0  0  0  0  0  0
    9.7637  -15.1972   17.5830 O   0  0  0  0  0  0  0  0  0  0  0  0
    7.5063  -12.5674   21.2904 O   0  0  0  0  0  0  0  0  0  0  0  0
    7.0286  -13.1456   20.1295 C   0  0  0  0  0  0  0  0  0  0  0  0
    8.1309  -13.9243   19.4698 C   0  0  2  0  0  0  0  0  0  0  0  0
    7.6906  -14.4491   18.1777 N   0  0  0  0  0  0  0  0  0  0  0  0
    8.5755  -15.0089   20.3494 C   0  0  0  0  0  0  0  0  0  0  0  0
    8.0170  -16.1593   20.3416 O   0  0  0  0  0  0  0  0  0  0  0  0
   14.1499  -16.8382   21.4282 N   0  0  0  0  0  0  0  0  0  0  0  0
   13.5831  -17.1989   22.6808 C   0  0  0  0  0  0  0  0  0  0  0  0
   14.3474  -17.5051   23.6092 O   0  0  0  0  0  0  0  0  0  0  0  0
   12.0973  -17.1890   22.8095 C   0  0  0  0  0  0  0  0  0  0  0  0
   11.5445  -16.0759   21.9817 C   0  0  0  0  0  0  0  0  0  0  0  0
   10.0589  -15.9973   22.1180 C   0  0  2  0  0  0  0  0  0  0  0  0
    9.6453  -14.8617   21.2588 N   0  0  0  0  0  0  0  0  0  0  0  0
    9.5978  -15.6934   23.4962 C   0  0  0  0  0  0  0  0  0  0  0  0
    9.1676  -14.4005   23.8436 O   0  0  0  0  0  0  0  0  0  0  0  0
    9.5603  -16.5456   24.4242 O   0  0  0  0  0  0  0  0  0  0  0  0
  2  1  1  0
  3  2  1  0
  4  3  2  0
  6  5  1  0
  7  8  1  0
  7  6  1  1
  8  3  1  0
  9  7  1  0
 10  9  2  0
 12 14  1  0
 12 11  1  0
 13 12  2  0
 15 14  1  0
 16 15  1  1
 16 17  1  0
 17  9  1  0
 18 19  1  0
 18 16  1  0
 20 18  2  0
M  END
$$$$
