GSQ.pdb
     RDKit          3D

 20 19  0  0  1  0  0  0  0  0999 V2000
    3.8789  -18.7306   21.4216 N   0  0  0  0  0  0  0  0  0  0  0  0
    4.0295  -17.3217   21.6114 C   0  0  0  0  0  0  0  0  0  0  0  0
    5.4343  -16.9074   21.2796 C   0  0  0  0  0  0  0  0  0  0  0  0
    6.3756  -17.7415   21.2753 O   0  0  0  0  0  0  0  0  0  0  0  0
    8.4675  -13.4346   19.7779 O   0  0  0  0  0  0  0  0  0  0  0  0
    7.1567  -13.8231   19.9809 C   0  0  0  0  0  0  0  0  0  0  0  0
    7.1309  -15.0850   20.7955 C   0  0  2  0  0  0  0  0  0  0  0  0
    5.7596  -15.5664   20.9586 N   0  0  0  0  0  0  0  0  0  0  0  0
    7.7616  -14.8549   22.0982 C   0  0  0  0  0  0  0  0  0  0  0  0
    7.2453  -14.0777   22.9727 O   0  0  0  0  0  0  0  0  0  0  0  0
    6.7021  -18.6113   25.1490 N   0  0  0  0  0  0  0  0  0  0  0  0
    7.1811  -17.2851   25.3277 C   0  0  0  0  0  0  0  0  0  0  0  0
    6.4334  -16.4540   25.8663 O   0  0  0  0  0  0  0  0  0  0  0  0
    8.5596  -16.9657   24.8564 C   0  0  0  0  0  0  0  0  0  0  0  0
    8.7344  -15.4829   24.8323 C   0  0  0  0  0  0  0  0  0  0  0  0
    9.6567  -15.0727   23.7310 C   0  0  2  0  0  0  0  0  0  0  0  0
    8.9733  -15.4724   22.4772 N   0  0  0  0  0  0  0  0  0  0  0  0
   10.9678  -15.7692   23.7555 C   0  0  0  0  0  0  0  0  0  0  0  0
   11.3610  -16.6027   22.6935 O   0  0  0  0  0  0  0  0  0  0  0  0
   11.7959  -15.6664   24.7001 O   0  0  0  0  0  0  0  0  0  0  0  0
  2  1  1  0
  3  2  1  0
  4  3  2  0
  6  5  1  0
  7  8  1  0
  7  6  1  6
  8  3  1  0
  9  7  1  0
 10  9  2  0
 12 14  1  0
 12 11  1  0
 13 12  2  0
 15 14  1  0
 16 15  1  1
 16 17  1  0
 17  9  1  0
 18 19  1  0
 18 16  1  0
 20 18  2  0
M  END
$$$$
