GSQ.pdb
     RDKit          3D

 20 19  0  0  1  0  0  0  0  0999 V2000
    1.7675  -20.5453   22.2363 N   0  0  0  0  0  0  0  0  0  0  0  0
    2.6582  -19.4547   21.9893 C   0  0  0  0  0  0  0  0  0  0  0  0
    4.0811  -19.9300   22.0564 C   0  0  0  0  0  0  0  0  0  0  0  0
    4.3641  -21.0816   22.4756 O   0  0  0  0  0  0  0  0  0  0  0  0
    7.3454  -17.4051   21.0600 O   0  0  0  0  0  0  0  0  0  0  0  0
    7.3844  -18.7438   20.7183 C   0  0  0  0  0  0  0  0  0  0  0  0
    6.5601  -19.5323   21.6959 C   0  0  2  0  0  0  0  0  0  0  0  0
    5.1615  -19.1072   21.6529 N   0  0  0  0  0  0  0  0  0  0  0  0
    7.1084  -19.3871   23.0471 C   0  0  0  0  0  0  0  0  0  0  0  0
    6.4599  -18.8033   23.9820 O   0  0  0  0  0  0  0  0  0  0  0  0
    6.9882  -22.8092   26.9165 N   0  0  0  0  0  0  0  0  0  0  0  0
    7.9595  -22.0728   27.6476 C   0  0  0  0  0  0  0  0  0  0  0  0
    8.1808  -22.3934   28.8258 O   0  0  0  0  0  0  0  0  0  0  0  0
    8.6602  -20.9527   26.9558 C   0  0  0  0  0  0  0  0  0  0  0  0
    8.1473  -20.8475   25.5574 C   0  0  0  0  0  0  0  0  0  0  0  0
    8.8565  -19.7660   24.8094 C   0  0  2  0  0  0  0  0  0  0  0  0
    8.3808  -19.8798   23.4096 N   0  0  0  0  0  0  0  0  0  0  0  0
   10.3327  -19.9228   24.7837 C   0  0  0  0  0  0  0  0  0  0  0  0
   10.9505  -20.7780   23.8541 O   0  0  0  0  0  0  0  0  0  0  0  0
   11.1131  -19.3196   25.5685 O   0  0  0  0  0  0  0  0  0  0  0  0
  2  1  1  0
  3  2  1  0
  4  3  2  0
  6  5  1  0
  7  8  1  0
  7  6  1  6
  8  3  1  0
  9  7  1  0
 10  9  2  0
 12 14  1  0
 12 11  1  0
 13 12  2  0
 15 14  1  0
 16 15  1  1
 16 17  1  0
 17  9  1  0
 18 19  1  0
 18 16  1  0
 20 18  2  0
M  END
$$$$
