GSQ.pdb
     RDKit          3D

 20 19  0  0  1  0  0  0  0  0999 V2000
    6.2990  -19.2846   18.8562 N   0  0  0  0  0  0  0  0  0  0  0  0
    7.1204  -19.6351   19.9725 C   0  0  0  0  0  0  0  0  0  0  0  0
    6.5798  -19.0055   21.2240 C   0  0  0  0  0  0  0  0  0  0  0  0
    5.5821  -18.2404   21.1897 O   0  0  0  0  0  0  0  0  0  0  0  0
    8.1114  -19.9779   25.0375 O   0  0  0  0  0  0  0  0  0  0  0  0
    6.7917  -19.6010   24.8745 C   0  0  0  0  0  0  0  0  0  0  0  0
    6.6870  -18.6328   23.7307 C   0  0  2  0  0  0  0  0  0  0  0  0
    7.1661  -19.2439   22.4915 N   0  0  0  0  0  0  0  0  0  0  0  0
    7.4388  -17.4123   24.0353 C   0  0  0  0  0  0  0  0  0  0  0  0
    8.6221  -17.2172   23.5914 O   0  0  0  0  0  0  0  0  0  0  0  0
    5.1110  -12.3667   26.7198 N   0  0  0  0  0  0  0  0  0  0  0  0
    6.4594  -11.9355   26.5929 C   0  0  0  0  0  0  0  0  0  0  0  0
    6.7526  -10.7916   26.9740 O   0  0  0  0  0  0  0  0  0  0  0  0
    7.4492  -12.8849   26.0071 C   0  0  0  0  0  0  0  0  0  0  0  0
    6.7603  -14.1705   25.6874 C   0  0  0  0  0  0  0  0  0  0  0  0
    7.7186  -15.1590   25.1074 C   0  0  2  0  0  0  0  0  0  0  0  0
    6.9124  -16.3728   24.8325 N   0  0  0  0  0  0  0  0  0  0  0  0
    8.8058  -15.5574   26.0368 C   0  0  0  0  0  0  0  0  0  0  0  0
    8.5842  -16.5254   27.0323 O   0  0  0  0  0  0  0  0  0  0  0  0
    9.9683  -15.0717   26.0011 O   0  0  0  0  0  0  0  0  0  0  0  0
  2  1  1  0
  3  2  1  0
  4  3  2  0
  6  5  1  0
  7  8  1  0
  7  6  1  1
  8  3  1  0
  9  7  1  0
 10  9  2  0
 12 14  1  0
 12 11  1  0
 13 12  2  0
 15 14  1  0
 16 15  1  1
 16 17  1  0
 17  9  1  0
 18 19  1  0
 18 16  1  0
 20 18  2  0
M  END
$$$$
