GSQ.pdb
     RDKit          3D

 20 19  0  0  1  0  0  0  0  0999 V2000
    7.6969  -17.6932   17.7653 N   0  0  0  0  0  0  0  0  0  0  0  0
    7.1148  -17.3071   19.0126 C   0  0  0  0  0  0  0  0  0  0  0  0
    8.0541  -16.4035   19.7584 C   0  0  0  0  0  0  0  0  0  0  0  0
    9.2160  -16.1776   19.3330 O   0  0  0  0  0  0  0  0  0  0  0  0
    7.0228  -14.8939   23.5418 O   0  0  0  0  0  0  0  0  0  0  0  0
    7.8388  -14.1106   22.7475 C   0  0  0  0  0  0  0  0  0  0  0  0
    8.5964  -14.9882   21.7923 C   0  0  2  0  0  0  0  0  0  0  0  0
    7.6754  -15.7690   20.9672 N   0  0  0  0  0  0  0  0  0  0  0  0
    9.5071  -15.8665   22.5318 C   0  0  0  0  0  0  0  0  0  0  0  0
    9.1925  -17.0688   22.8334 O   0  0  0  0  0  0  0  0  0  0  0  0
   16.6446  -16.9309   23.8767 N   0  0  0  0  0  0  0  0  0  0  0  0
   15.4930  -16.2006   23.4755 C   0  0  0  0  0  0  0  0  0  0  0  0
   15.6496  -15.1869   22.7772 O   0  0  0  0  0  0  0  0  0  0  0  0
   14.1573  -16.6950   23.9177 C   0  0  0  0  0  0  0  0  0  0  0  0
   13.0958  -15.8368   23.3123 C   0  0  0  0  0  0  0  0  0  0  0  0
   11.7426  -16.4327   23.5254 C   0  0  2  0  0  0  0  0  0  0  0  0
   10.7873  -15.4508   22.9579 N   0  0  0  0  0  0  0  0  0  0  0  0
   11.3851  -16.6145   24.9550 C   0  0  0  0  0  0  0  0  0  0  0  0
   10.6373  -15.6407   25.6403 O   0  0  0  0  0  0  0  0  0  0  0  0
   11.7160  -17.6228   25.6351 O   0  0  0  0  0  0  0  0  0  0  0  0
  2  1  1  0
  3  2  1  0
  4  3  2  0
  6  5  1  0
  7  8  1  0
  7  6  1  1
  8  3  1  0
  9  7  1  0
 10  9  2  0
 12 14  1  0
 12 11  1  0
 13 12  2  0
 15 14  1  0
 16 15  1  1
 16 17  1  0
 17  9  1  0
 18 19  1  0
 18 16  1  0
 20 18  2  0
M  END
$$$$
