GSQ.pdb
     RDKit          3D

 20 19  0  0  1  0  0  0  0  0999 V2000
   10.9228  -20.5701   16.0119 N   0  0  0  0  0  0  0  0  0  0  0  0
   10.6887  -20.8965   17.3838 C   0  0  0  0  0  0  0  0  0  0  0  0
   11.6755  -20.1766   18.2573 C   0  0  0  0  0  0  0  0  0  0  0  0
   12.5829  -19.4604   17.7618 O   0  0  0  0  0  0  0  0  0  0  0  0
   11.1098  -20.1703   22.3175 O   0  0  0  0  0  0  0  0  0  0  0  0
   11.8559  -19.1236   21.8094 C   0  0  0  0  0  0  0  0  0  0  0  0
   12.5558  -19.5714   20.5579 C   0  0  2  0  0  0  0  0  0  0  0  0
   11.6284  -20.2717   19.6701 N   0  0  0  0  0  0  0  0  0  0  0  0
   13.6972  -20.4251   20.8987 C   0  0  0  0  0  0  0  0  0  0  0  0
   13.5959  -21.6984   20.9603 O   0  0  0  0  0  0  0  0  0  0  0  0
   19.1442  -18.6485   19.6116 N   0  0  0  0  0  0  0  0  0  0  0  0
   18.3983  -19.4867   18.7390 C   0  0  0  0  0  0  0  0  0  0  0  0
   18.6495  -19.4483   17.5245 O   0  0  0  0  0  0  0  0  0  0  0  0
   17.3525  -20.3680   19.3339 C   0  0  0  0  0  0  0  0  0  0  0  0
   17.3061  -20.1409   20.8090 C   0  0  0  0  0  0  0  0  0  0  0  0
   16.1223  -20.8205   21.4160 C   0  0  2  0  0  0  0  0  0  0  0  0
   14.9797  -19.9056   21.1786 N   0  0  0  0  0  0  0  0  0  0  0  0
   16.2291  -21.0147   22.8842 C   0  0  0  0  0  0  0  0  0  0  0  0
   16.8320  -22.1681   23.4165 O   0  0  0  0  0  0  0  0  0  0  0  0
   15.8007  -20.1858   23.7315 O   0  0  0  0  0  0  0  0  0  0  0  0
  2  1  1  0
  3  2  1  0
  4  3  2  0
  6  5  1  0
  7  8  1  0
  7  6  1  1
  8  3  1  0
  9  7  1  0
 10  9  2  0
 12 14  1  0
 12 11  1  0
 13 12  2  0
 15 14  1  0
 16 15  1  1
 16 17  1  0
 17  9  1  0
 18 19  1  0
 18 16  1  0
 20 18  2  0
M  END
$$$$
