GSQ.pdb
     RDKit          3D

 20 19  0  0  1  0  0  0  0  0999 V2000
    7.5495  -18.3661   12.3282 N   0  0  0  0  0  0  0  0  0  0  0  0
    8.8159  -17.8805   11.8764 C   0  0  0  0  0  0  0  0  0  0  0  0
    9.9030  -18.8368   12.2747 C   0  0  0  0  0  0  0  0  0  0  0  0
    9.7161  -19.6987   13.1715 O   0  0  0  0  0  0  0  0  0  0  0  0
   12.9739  -19.8563    9.7276 O   0  0  0  0  0  0  0  0  0  0  0  0
   13.3956  -19.6007   11.0187 C   0  0  0  0  0  0  0  0  0  0  0  0
   12.2405  -19.7714   11.9638 C   0  0  2  0  0  0  0  0  0  0  0  0
   11.1800  -18.8107   11.6617 N   0  0  0  0  0  0  0  0  0  0  0  0
   12.6983  -19.6250   13.3482 C   0  0  0  0  0  0  0  0  0  0  0  0
   12.9422  -18.4803   13.8634 O   0  0  0  0  0  0  0  0  0  0  0  0
   10.2045  -22.3963   17.7548 N   0  0  0  0  0  0  0  0  0  0  0  0
   10.9661  -21.4494   18.4921 C   0  0  0  0  0  0  0  0  0  0  0  0
   10.7026  -21.2856   19.6935 O   0  0  0  0  0  0  0  0  0  0  0  0
   12.0424  -20.7036   17.7782 C   0  0  0  0  0  0  0  0  0  0  0  0
   12.1872  -21.2587   16.3996 C   0  0  0  0  0  0  0  0  0  0  0  0
   13.2336  -20.5171   15.6335 C   0  0  2  0  0  0  0  0  0  0  0  0
   12.8985  -20.7293   14.2047 N   0  0  0  0  0  0  0  0  0  0  0  0
   14.6096  -21.0348   15.8415 C   0  0  0  0  0  0  0  0  0  0  0  0
   15.0339  -22.2232   15.2210 O   0  0  0  0  0  0  0  0  0  0  0  0
   15.4686  -20.4642   16.5661 O   0  0  0  0  0  0  0  0  0  0  0  0
  2  1  1  0
  3  2  1  0
  4  3  2  0
  6  5  1  0
  7  8  1  0
  7  6  1  6
  8  3  1  0
  9  7  1  0
 10  9  2  0
 12 14  1  0
 12 11  1  0
 13 12  2  0
 15 14  1  0
 16 15  1  1
 16 17  1  0
 17  9  1  0
 18 19  1  0
 18 16  1  0
 20 18  2  0
M  END
$$$$
