DQW.pdb
     RDKit          3D

 32 33  0  0  1  0  0  0  0  0999 V2000
   27.4892  -20.2556  -16.9695 N   0  0  0  0  0  0  0  0  0  0  0  0
   28.2981  -19.2362  -16.3342 C   0  0  1  0  0  0  0  0  0  0  0  0
   28.3970  -18.0550  -17.2447 C   0  0  0  0  0  0  0  0  0  0  0  0
   29.2272  -18.3489  -18.4433 C   0  0  0  0  0  0  0  0  0  0  0  0
   28.8526  -19.3024  -19.1719 O   0  0  0  0  0  0  0  0  0  0  0  0
   27.6922  -18.8295  -15.0293 C   0  0  0  0  0  0  0  0  0  0  0  0
   28.0891  -17.8270  -14.4131 O   0  0  0  0  0  0  0  0  0  0  0  0
   30.3617  -17.6162  -18.7535 O   0  0  0  0  0  0  0  0  0  0  0  0
   23.2409  -20.5804  -16.8804 N   0  0  0  0  0  0  0  0  0  0  0  0
   23.0022  -19.6751  -15.8347 C   0  0  0  0  0  0  0  0  0  0  0  0
   21.8292  -19.5364  -15.4058 O   0  0  0  0  0  0  0  0  0  0  0  0
   24.0775  -18.8775  -15.2153 C   0  0  0  0  0  0  0  0  0  0  0  0
   24.3278  -19.1672  -13.7831 C   0  0  0  0  0  0  0  0  0  0  0  0
   25.7909  -19.2523  -13.3915 C   0  0  2  0  0  0  0  0  0  0  0  0
   26.6484  -19.6129  -14.5004 N   0  0  0  0  0  0  0  0  0  0  0  0
   25.9186  -20.1956  -12.2722 C   0  0  0  0  0  0  0  0  0  0  0  0
   25.9997  -21.4138  -12.4833 O   0  0  0  0  0  0  0  0  0  0  0  0
   25.9518  -19.7054  -10.9399 N   0  0  0  0  0  0  0  0  0  0  0  0
   26.0384  -20.6034   -9.8172 C   0  0  1  0  0  0  0  0  0  0  0  0
   27.0410  -20.1550   -8.8276 C   0  0  0  0  0  0  0  0  0  0  0  0
   26.8645  -20.7683   -7.5041 C   0  0  0  0  0  0  0  0  0  0  0  0
   26.0943  -21.7984   -7.0351 C   0  0  0  0  0  0  0  0  0  0  0  0
   26.2901  -21.9642   -5.6974 N   0  0  0  0  0  0  0  0  0  0  0  0
   27.1836  -21.0478   -5.2904 C   0  0  0  0  0  0  0  0  0  0  0  0
   27.7494  -20.7506   -4.0454 C   0  0  0  0  0  0  0  0  0  0  0  0
   28.6618  -19.7286   -3.9000 C   0  0  0  0  0  0  0  0  0  0  0  0
   29.0291  -18.9775   -5.0094 C   0  0  0  0  0  0  0  0  0  0  0  0
   28.4698  -19.2814   -6.2060 C   0  0  0  0  0  0  0  0  0  0  0  0
   27.5504  -20.3003   -6.3872 C   0  0  0  0  0  0  0  0  0  0  0  0
   24.6913  -20.8256   -9.1980 C   0  0  0  0  0  0  0  0  0  0  0  0
   24.4166  -21.9996   -8.5582 O   0  0  0  0  0  0  0  0  0  0  0  0
   23.8098  -19.9336   -9.2627 O   0  0  0  0  0  0  0  0  0  0  0  0
  2  1  1  6
  2  6  1  0
  3  4  1  0
  3  2  1  0
  4  5  2  0
  6  7  2  0
  8  4  1  0
 10 11  2  0
 10  9  1  0
 12 10  1  0
 13 12  1  0
 14 13  1  6
 14 16  1  0
 15  6  1  0
 15 14  1  0
 16 17  2  0
 18 16  1  0
 19 30  1  0
 19 18  1  0
 19 20  1  1
 21 20  1  0
 21 29  1  0
 22 23  1  0
 22 21  2  0
 23 24  1  0
 24 29  2  0
 24 25  1  0
 25 26  2  0
 26 27  1  0
 28 27  2  0
 29 28  1  0
 30 31  1  0
 32 30  2  0
M  END
$$$$
