DQW.pdb
     RDKit          3D

 32 33  0  0  1  0  0  0  0  0999 V2000
   17.5829  -14.9458  -16.6494 N   0  0  0  0  0  0  0  0  0  0  0  0
   17.0416  -13.6092  -16.5164 C   0  0  1  0  0  0  0  0  0  0  0  0
   16.0483  -13.5947  -15.3997 C   0  0  0  0  0  0  0  0  0  0  0  0
   14.9156  -14.5241  -15.6552 C   0  0  0  0  0  0  0  0  0  0  0  0
   14.3405  -14.4237  -16.7686 O   0  0  0  0  0  0  0  0  0  0  0  0
   18.1369  -12.6292  -16.2423 C   0  0  0  0  0  0  0  0  0  0  0  0
   19.0991  -12.9177  -15.5123 O   0  0  0  0  0  0  0  0  0  0  0  0
   14.5026  -15.4597  -14.7201 O   0  0  0  0  0  0  0  0  0  0  0  0
   21.9369  -10.0481  -18.2157 N   0  0  0  0  0  0  0  0  0  0  0  0
   21.5577   -8.7150  -17.9942 C   0  0  0  0  0  0  0  0  0  0  0  0
   22.4431   -7.8232  -17.9900 O   0  0  0  0  0  0  0  0  0  0  0  0
   20.1557   -8.3166  -17.7665 C   0  0  0  0  0  0  0  0  0  0  0  0
   19.1648   -9.4126  -17.8873 C   0  0  0  0  0  0  0  0  0  0  0  0
   19.0016  -10.2701  -16.6466 C   0  0  2  0  0  0  0  0  0  0  0  0
   18.0598  -11.3532  -16.8332 N   0  0  0  0  0  0  0  0  0  0  0  0
   18.6186   -9.3994  -15.5267 C   0  0  0  0  0  0  0  0  0  0  0  0
   17.4588   -8.9745  -15.4292 O   0  0  0  0  0  0  0  0  0  0  0  0
   19.5856   -9.0458  -14.5486 N   0  0  0  0  0  0  0  0  0  0  0  0
   19.2761   -8.1092  -13.4992 C   0  0  1  0  0  0  0  0  0  0  0  0
   20.3143   -8.0962  -12.4468 C   0  0  0  0  0  0  0  0  0  0  0  0
   20.0150   -7.1678  -11.3479 C   0  0  0  0  0  0  0  0  0  0  0  0
   19.2566   -7.2613  -10.2120 C   0  0  0  0  0  0  0  0  0  0  0  0
   19.2976   -6.0899   -9.5183 N   0  0  0  0  0  0  0  0  0  0  0  0
   20.0784   -5.2319  -10.1953 C   0  0  0  0  0  0  0  0  0  0  0  0
   20.4695   -3.9082   -9.9643 C   0  0  0  0  0  0  0  0  0  0  0  0
   21.2944   -3.2422  -10.8441 C   0  0  0  0  0  0  0  0  0  0  0  0
   21.7483   -3.8955  -11.9830 C   0  0  0  0  0  0  0  0  0  0  0  0
   21.3582   -5.1771  -12.1881 C   0  0  0  0  0  0  0  0  0  0  0  0
   20.5304   -5.8752  -11.3258 C   0  0  0  0  0  0  0  0  0  0  0  0
   19.0160   -6.7414  -14.0553 C   0  0  0  0  0  0  0  0  0  0  0  0
   17.9796   -5.9930  -13.5769 O   0  0  0  0  0  0  0  0  0  0  0  0
   19.7501   -6.2765  -14.9618 O   0  0  0  0  0  0  0  0  0  0  0  0
  2  1  1  1
  2  6  1  0
  3  4  1  0
  3  2  1  0
  4  5  2  0
  6  7  2  0
  8  4  1  0
 10 11  2  0
 10  9  1  0
 12 10  1  0
 13 12  1  0
 14 13  1  6
 14 16  1  0
 15  6  1  0
 15 14  1  0
 16 17  2  0
 18 16  1  0
 19 30  1  0
 19 18  1  0
 19 20  1  1
 21 20  1  0
 21 29  1  0
 22 23  1  0
 22 21  2  0
 23 24  1  0
 24 29  2  0
 24 25  1  0
 25 26  2  0
 26 27  1  0
 28 27  2  0
 29 28  1  0
 30 31  1  0
 32 30  2  0
M  END
$$$$
