DQW.pdb
     RDKit          3D

 32 33  0  0  1  0  0  0  0  0999 V2000
   28.2010  -20.4406  -18.2699 N   0  0  0  0  0  0  0  0  0  0  0  0
   28.3380  -21.4086  -17.2015 C   0  0  1  0  0  0  0  0  0  0  0  0
   29.7352  -21.9393  -17.2011 C   0  0  0  0  0  0  0  0  0  0  0  0
   29.9644  -22.8940  -18.3184 C   0  0  0  0  0  0  0  0  0  0  0  0
   29.0182  -23.0531  -19.1305 O   0  0  0  0  0  0  0  0  0  0  0  0
   28.0286  -20.7755  -15.8830 C   0  0  0  0  0  0  0  0  0  0  0  0
   28.9128  -20.2364  -15.1977 O   0  0  0  0  0  0  0  0  0  0  0  0
   31.1577  -23.5823  -18.4685 O   0  0  0  0  0  0  0  0  0  0  0  0
   21.9942  -19.0987  -14.6293 N   0  0  0  0  0  0  0  0  0  0  0  0
   22.9902  -18.4205  -15.3491 C   0  0  0  0  0  0  0  0  0  0  0  0
   22.6624  -17.4442  -16.0693 O   0  0  0  0  0  0  0  0  0  0  0  0
   24.4124  -18.8081  -15.2931 C   0  0  0  0  0  0  0  0  0  0  0  0
   24.7451  -19.8252  -14.2672 C   0  0  0  0  0  0  0  0  0  0  0  0
   26.2114  -20.2077  -14.1943 C   0  0  2  0  0  0  0  0  0  0  0  0
   26.6982  -20.8003  -15.4218 N   0  0  0  0  0  0  0  0  0  0  0  0
   26.4024  -21.1001  -13.0428 C   0  0  0  0  0  0  0  0  0  0  0  0
   26.0663  -22.2909  -13.1082 O   0  0  0  0  0  0  0  0  0  0  0  0
   26.9792  -20.5929  -11.8484 N   0  0  0  0  0  0  0  0  0  0  0  0
   26.8052  -21.2717  -10.5901 C   0  0  1  0  0  0  0  0  0  0  0  0
   27.8403  -20.8867   -9.6073 C   0  0  0  0  0  0  0  0  0  0  0  0
   27.2918  -20.5670   -8.2821 C   0  0  0  0  0  0  0  0  0  0  0  0
   26.0204  -20.4747   -7.7828 C   0  0  0  0  0  0  0  0  0  0  0  0
   26.0534  -20.1258   -6.4666 N   0  0  0  0  0  0  0  0  0  0  0  0
   27.3394  -19.9894   -6.1039 C   0  0  0  0  0  0  0  0  0  0  0  0
   27.9620  -19.6466   -4.8984 C   0  0  0  0  0  0  0  0  0  0  0  0
   29.3340  -19.5723   -4.7977 C   0  0  0  0  0  0  0  0  0  0  0  0
   30.1167  -19.8428   -5.9132 C   0  0  0  0  0  0  0  0  0  0  0  0
   29.4943  -20.1729   -7.0710 C   0  0  0  0  0  0  0  0  0  0  0  0
   28.1192  -20.2562   -7.2070 C   0  0  0  0  0  0  0  0  0  0  0  0
   25.4175  -21.0754  -10.0577 C   0  0  0  0  0  0  0  0  0  0  0  0
   24.8145  -22.0643   -9.3355 O   0  0  0  0  0  0  0  0  0  0  0  0
   24.8036  -20.0010  -10.2713 O   0  0  0  0  0  0  0  0  0  0  0  0
  2  1  1  6
  2  6  1  0
  3  4  1  0
  3  2  1  0
  4  5  2  0
  6  7  2  0
  8  4  1  0
 10 11  2  0
 10  9  1  0
 12 10  1  0
 13 12  1  0
 14 13  1  6
 14 16  1  0
 15  6  1  0
 15 14  1  0
 16 17  2  0
 18 16  1  0
 19 30  1  0
 19 18  1  0
 19 20  1  1
 21 20  1  0
 21 29  1  0
 22 23  1  0
 22 21  2  0
 23 24  1  0
 24 29  2  0
 24 25  1  0
 25 26  2  0
 26 27  1  0
 28 27  2  0
 29 28  1  0
 30 31  1  0
 32 30  2  0
M  END
$$$$
