DQW.pdb
     RDKit          3D

 32 33  0  0  1  0  0  0  0  0999 V2000
   25.2046  -35.2632   -7.9079 N   0  0  0  0  0  0  0  0  0  0  0  0
   26.2167  -34.5330   -7.1733 C   0  0  1  0  0  0  0  0  0  0  0  0
   26.2479  -33.1202   -7.6602 C   0  0  0  0  0  0  0  0  0  0  0  0
   26.8069  -33.0214   -9.0350 C   0  0  0  0  0  0  0  0  0  0  0  0
   27.1274  -34.1003   -9.5950 O   0  0  0  0  0  0  0  0  0  0  0  0
   25.9208  -34.5649   -5.7082 C   0  0  0  0  0  0  0  0  0  0  0  0
   24.7595  -34.4755   -5.2778 O   0  0  0  0  0  0  0  0  0  0  0  0
   26.9731  -31.8058   -9.6790 O   0  0  0  0  0  0  0  0  0  0  0  0
   30.8466  -35.2705   -1.5601 N   0  0  0  0  0  0  0  0  0  0  0  0
   30.1559  -36.3283   -2.1717 C   0  0  0  0  0  0  0  0  0  0  0  0
   30.6836  -37.4686   -2.1919 O   0  0  0  0  0  0  0  0  0  0  0  0
   28.8293  -36.1551   -2.7931 C   0  0  0  0  0  0  0  0  0  0  0  0
   28.2622  -34.7893   -2.6905 C   0  0  0  0  0  0  0  0  0  0  0  0
   26.9176  -34.5999   -3.3669 C   0  0  2  0  0  0  0  0  0  0  0  0
   26.9961  -34.6994   -4.8088 N   0  0  0  0  0  0  0  0  0  0  0  0
   26.3585  -33.3108   -2.9374 C   0  0  0  0  0  0  0  0  0  0  0  0
   26.5655  -32.2842   -3.5995 O   0  0  0  0  0  0  0  0  0  0  0  0
   25.5732  -33.2437   -1.7561 N   0  0  0  0  0  0  0  0  0  0  0  0
   24.8056  -32.0675   -1.4373 C   0  0  1  0  0  0  0  0  0  0  0  0
   23.8448  -31.7280   -2.5083 C   0  0  0  0  0  0  0  0  0  0  0  0
   23.0471  -30.5297   -2.2138 C   0  0  0  0  0  0  0  0  0  0  0  0
   23.2918  -29.1858   -2.3045 C   0  0  0  0  0  0  0  0  0  0  0  0
   22.2056  -28.4781   -1.8866 N   0  0  0  0  0  0  0  0  0  0  0  0
   21.2532  -29.3527   -1.5231 C   0  0  0  0  0  0  0  0  0  0  0  0
   19.9560  -29.2002   -1.0208 C   0  0  0  0  0  0  0  0  0  0  0  0
   19.1731  -30.2926   -0.7181 C   0  0  0  0  0  0  0  0  0  0  0  0
   19.6790  -31.5714   -0.9150 C   0  0  0  0  0  0  0  0  0  0  0  0
   20.9373  -31.6975   -1.4025 C   0  0  0  0  0  0  0  0  0  0  0  0
   21.7506  -30.6221   -1.7163 C   0  0  0  0  0  0  0  0  0  0  0  0
   24.1396  -32.2030   -0.1009 C   0  0  0  0  0  0  0  0  0  0  0  0
   23.9552  -31.1039    0.6872 O   0  0  0  0  0  0  0  0  0  0  0  0
   23.7467  -33.3263    0.2996 O   0  0  0  0  0  0  0  0  0  0  0  0
  2  1  1  6
  2  6  1  0
  3  4  1  0
  3  2  1  0
  4  5  2  0
  6  7  2  0
  8  4  1  0
 10 11  2  0
 10  9  1  0
 12 10  1  0
 13 12  1  0
 14 13  1  1
 14 16  1  0
 15  6  1  0
 15 14  1  0
 16 17  2  0
 18 16  1  0
 19 30  1  0
 19 18  1  0
 19 20  1  6
 21 20  1  0
 21 29  1  0
 22 23  1  0
 22 21  2  0
 23 24  1  0
 24 29  2  0
 24 25  1  0
 25 26  2  0
 26 27  1  0
 28 27  2  0
 29 28  1  0
 30 31  1  0
 32 30  2  0
M  END
$$$$
