DQW.pdb
     RDKit          3D

 32 33  0  0  1  0  0  0  0  0999 V2000
   26.8686  -18.9363  -17.0283 N   0  0  0  0  0  0  0  0  0  0  0  0
   27.8371  -18.9627  -15.9520 C   0  0  1  0  0  0  0  0  0  0  0  0
   28.7833  -17.8179  -16.1198 C   0  0  0  0  0  0  0  0  0  0  0  0
   29.5165  -17.8914  -17.4119 C   0  0  0  0  0  0  0  0  0  0  0  0
   29.1939  -18.8211  -18.1941 O   0  0  0  0  0  0  0  0  0  0  0  0
   27.1473  -18.8693  -14.6289 C   0  0  0  0  0  0  0  0  0  0  0  0
   27.2925  -17.8827  -13.8888 O   0  0  0  0  0  0  0  0  0  0  0  0
   30.5100  -16.9864  -17.7497 O   0  0  0  0  0  0  0  0  0  0  0  0
   21.4776  -21.6929  -14.0157 N   0  0  0  0  0  0  0  0  0  0  0  0
   21.7186  -21.0934  -12.7696 C   0  0  0  0  0  0  0  0  0  0  0  0
   20.7877  -21.0465  -11.9268 O   0  0  0  0  0  0  0  0  0  0  0  0
   23.0264  -20.5150  -12.4075 C   0  0  0  0  0  0  0  0  0  0  0  0
   24.0557  -20.5761  -13.4726 C   0  0  0  0  0  0  0  0  0  0  0  0
   25.3755  -19.9117  -13.1289 C   0  0  2  0  0  0  0  0  0  0  0  0
   26.3176  -19.9339  -14.2275 N   0  0  0  0  0  0  0  0  0  0  0  0
   25.9217  -20.5568  -11.9270 C   0  0  0  0  0  0  0  0  0  0  0  0
   26.5383  -21.6280  -12.0140 O   0  0  0  0  0  0  0  0  0  0  0  0
   25.7429  -19.9451  -10.6580 N   0  0  0  0  0  0  0  0  0  0  0  0
   26.1220  -20.6218   -9.4444 C   0  0  1  0  0  0  0  0  0  0  0  0
   27.1362  -19.8625   -8.6826 C   0  0  0  0  0  0  0  0  0  0  0  0
   27.4439  -20.4564   -7.3743 C   0  0  0  0  0  0  0  0  0  0  0  0
   27.2695  -21.7040   -6.8384 C   0  0  0  0  0  0  0  0  0  0  0  0
   27.7200  -21.7339   -5.5534 N   0  0  0  0  0  0  0  0  0  0  0  0
   28.1872  -20.5124   -5.2472 C   0  0  0  0  0  0  0  0  0  0  0  0
   28.7554  -19.9681   -4.0899 C   0  0  0  0  0  0  0  0  0  0  0  0
   29.1542  -18.6503   -4.0406 C   0  0  0  0  0  0  0  0  0  0  0  0
   28.9905  -17.8445   -5.1603 C   0  0  0  0  0  0  0  0  0  0  0  0
   28.4384  -18.3908   -6.2710 C   0  0  0  0  0  0  0  0  0  0  0  0
   28.0265  -19.7097   -6.3545 C   0  0  0  0  0  0  0  0  0  0  0  0
   24.9196  -20.9532   -8.6125 C   0  0  0  0  0  0  0  0  0  0  0  0
   23.7168  -20.3672   -8.8828 O   0  0  0  0  0  0  0  0  0  0  0  0
   25.0116  -21.7718   -7.6648 O   0  0  0  0  0  0  0  0  0  0  0  0
  2  1  1  6
  2  6  1  0
  3  4  1  0
  3  2  1  0
  4  5  2  0
  6  7  2  0
  8  4  1  0
 10 11  2  0
 10  9  1  0
 12 10  1  0
 13 12  1  0
 14 13  1  6
 14 16  1  0
 15  6  1  0
 15 14  1  0
 16 17  2  0
 18 16  1  0
 19 30  1  0
 19 18  1  0
 19 20  1  1
 21 20  1  0
 21 29  1  0
 22 23  1  0
 22 21  2  0
 23 24  1  0
 24 29  2  0
 24 25  1  0
 25 26  2  0
 26 27  1  0
 28 27  2  0
 29 28  1  0
 30 31  1  0
 32 30  2  0
M  END
$$$$
