DQW.pdb
     RDKit          3D

 32 33  0  0  1  0  0  0  0  0999 V2000
   31.8927  -37.6156   -5.8779 N   0  0  0  0  0  0  0  0  0  0  0  0
   30.5616  -38.1614   -6.0428 C   0  0  1  0  0  0  0  0  0  0  0  0
   30.6286  -39.6505   -5.9328 C   0  0  0  0  0  0  0  0  0  0  0  0
   31.2934  -40.2629   -7.1140 C   0  0  0  0  0  0  0  0  0  0  0  0
   31.6558  -39.4805   -8.0288 O   0  0  0  0  0  0  0  0  0  0  0  0
   29.6406  -37.6104   -5.0020 C   0  0  0  0  0  0  0  0  0  0  0  0
   28.4602  -37.9859   -4.9145 O   0  0  0  0  0  0  0  0  0  0  0  0
   31.5083  -41.6281   -7.2152 O   0  0  0  0  0  0  0  0  0  0  0  0
   28.9833  -38.4280    0.5867 N   0  0  0  0  0  0  0  0  0  0  0  0
   29.6299  -37.2394    0.2136 C   0  0  0  0  0  0  0  0  0  0  0  0
   29.5897  -36.2544    0.9928 O   0  0  0  0  0  0  0  0  0  0  0  0
   30.3590  -37.0997   -1.0611 C   0  0  0  0  0  0  0  0  0  0  0  0
   30.1284  -35.8232   -1.7788 C   0  0  0  0  0  0  0  0  0  0  0  0
   29.3775  -35.9508   -3.0907 C   0  0  2  0  0  0  0  0  0  0  0  0
   30.1394  -36.6432   -4.1081 N   0  0  0  0  0  0  0  0  0  0  0  0
   28.9749  -34.6073   -3.5287 C   0  0  0  0  0  0  0  0  0  0  0  0
   29.7969  -33.8464   -4.0583 O   0  0  0  0  0  0  0  0  0  0  0  0
   27.6329  -34.1807   -3.3451 N   0  0  0  0  0  0  0  0  0  0  0  0
   26.9368  -33.4481   -4.3712 C   0  0  1  0  0  0  0  0  0  0  0  0
   26.9702  -34.1514   -5.6711 C   0  0  0  0  0  0  0  0  0  0  0  0
   26.6092  -33.2907   -6.8060 C   0  0  0  0  0  0  0  0  0  0  0  0
   27.3361  -32.6302   -7.7597 C   0  0  0  0  0  0  0  0  0  0  0  0
   26.5075  -31.9433   -8.5944 N   0  0  0  0  0  0  0  0  0  0  0  0
   25.2434  -32.1514   -8.1906 C   0  0  0  0  0  0  0  0  0  0  0  0
   24.0035  -31.7026   -8.6591 C   0  0  0  0  0  0  0  0  0  0  0  0
   22.8290  -32.0721   -8.0412 C   0  0  0  0  0  0  0  0  0  0  0  0
   22.8739  -32.9068   -6.9315 C   0  0  0  0  0  0  0  0  0  0  0  0
   24.0845  -33.3305   -6.4938 C   0  0  0  0  0  0  0  0  0  0  0  0
   25.2831  -32.9782   -7.0901 C   0  0  0  0  0  0  0  0  0  0  0  0
   25.5391  -33.1148   -3.9432 C   0  0  0  0  0  0  0  0  0  0  0  0
   25.2088  -31.8298   -3.6225 O   0  0  0  0  0  0  0  0  0  0  0  0
   24.6652  -34.0142   -3.8790 O   0  0  0  0  0  0  0  0  0  0  0  0
  2  1  1  1
  2  6  1  0
  3  4  1  0
  3  2  1  0
  4  5  2  0
  6  7  2  0
  8  4  1  0
 10 11  2  0
 10  9  1  0
 12 10  1  0
 13 12  1  0
 14 13  1  1
 14 16  1  0
 15  6  1  0
 15 14  1  0
 16 17  2  0
 18 16  1  0
 19 30  1  0
 19 18  1  0
 19 20  1  6
 21 20  1  0
 21 29  1  0
 22 23  1  0
 22 21  2  0
 23 24  1  0
 24 29  2  0
 24 25  1  0
 25 26  2  0
 26 27  1  0
 28 27  2  0
 29 28  1  0
 30 31  1  0
 32 30  2  0
M  END
$$$$
