DQW.pdb
     RDKit          3D

 32 33  0  0  1  0  0  0  0  0999 V2000
   16.7602  -10.9337  -13.5421 N   0  0  0  0  0  0  0  0  0  0  0  0
   17.5148  -10.4269  -14.6694 C   0  0  1  0  0  0  0  0  0  0  0  0
   16.7405  -10.6724  -15.9240 C   0  0  0  0  0  0  0  0  0  0  0  0
   16.5702  -12.1253  -16.1933 C   0  0  0  0  0  0  0  0  0  0  0  0
   15.5937  -12.6930  -15.6416 O   0  0  0  0  0  0  0  0  0  0  0  0
   17.7763   -8.9641  -14.5052 C   0  0  0  0  0  0  0  0  0  0  0  0
   17.8124   -8.1970  -15.4810 O   0  0  0  0  0  0  0  0  0  0  0  0
   17.4388  -12.8317  -17.0098 O   0  0  0  0  0  0  0  0  0  0  0  0
   16.3698   -5.9170   -9.1259 N   0  0  0  0  0  0  0  0  0  0  0  0
   15.6032   -6.1962  -10.2681 C   0  0  0  0  0  0  0  0  0  0  0  0
   14.3521   -6.1011  -10.1995 O   0  0  0  0  0  0  0  0  0  0  0  0
   16.2097   -6.5971  -11.5517 C   0  0  0  0  0  0  0  0  0  0  0  0
   17.6913   -6.6470  -11.5568 C   0  0  0  0  0  0  0  0  0  0  0  0
   18.3141   -7.0931  -12.8661 C   0  0  2  0  0  0  0  0  0  0  0  0
   17.9851   -8.4609  -13.2066 N   0  0  0  0  0  0  0  0  0  0  0  0
   19.7662   -6.8838  -12.7855 C   0  0  0  0  0  0  0  0  0  0  0  0
   20.3878   -7.1822  -11.7560 O   0  0  0  0  0  0  0  0  0  0  0  0
   20.4607   -6.3381  -13.8974 N   0  0  0  0  0  0  0  0  0  0  0  0
   21.8847   -6.1261  -13.8558 C   0  0  1  0  0  0  0  0  0  0  0  0
   22.5799   -6.8287  -14.9552 C   0  0  0  0  0  0  0  0  0  0  0  0
   22.5631   -8.2910  -14.8116 C   0  0  0  0  0  0  0  0  0  0  0  0
   21.6137   -9.1897  -14.4056 C   0  0  0  0  0  0  0  0  0  0  0  0
   22.1155  -10.4555  -14.4394 N   0  0  0  0  0  0  0  0  0  0  0  0
   23.3877  -10.3880  -14.8649 C   0  0  0  0  0  0  0  0  0  0  0  0
   24.3753  -11.3548  -15.0849 C   0  0  0  0  0  0  0  0  0  0  0  0
   25.6316  -11.0058  -15.5297 C   0  0  0  0  0  0  0  0  0  0  0  0
   25.9259   -9.6687  -15.7656 C   0  0  0  0  0  0  0  0  0  0  0  0
   24.9556   -8.7481  -15.5465 C   0  0  0  0  0  0  0  0  0  0  0  0
   23.6841   -9.0639  -15.0996 C   0  0  0  0  0  0  0  0  0  0  0  0
   22.2123   -4.6636  -13.8216 C   0  0  0  0  0  0  0  0  0  0  0  0
   23.4793   -4.2520  -13.5240 O   0  0  0  0  0  0  0  0  0  0  0  0
   21.3248   -3.8100  -14.0678 O   0  0  0  0  0  0  0  0  0  0  0  0
  2  1  1  1
  2  6  1  0
  3  4  1  0
  3  2  1  0
  4  5  2  0
  6  7  2  0
  8  4  1  0
 10 11  2  0
 10  9  1  0
 12 10  1  0
 13 12  1  0
 14 13  1  1
 14 16  1  0
 15  6  1  0
 15 14  1  0
 16 17  2  0
 18 16  1  0
 19 30  1  0
 19 18  1  0
 19 20  1  6
 21 20  1  0
 21 29  1  0
 22 23  1  0
 22 21  2  0
 23 24  1  0
 24 29  2  0
 24 25  1  0
 25 26  2  0
 26 27  1  0
 28 27  2  0
 29 28  1  0
 30 31  1  0
 32 30  2  0
M  END
$$$$
