DQW.pdb
     RDKit          3D

 32 33  0  0  1  0  0  0  0  0999 V2000
   13.4190  -10.4188  -10.3351 N   0  0  0  0  0  0  0  0  0  0  0  0
   14.6980   -9.8858   -9.9142 C   0  0  1  0  0  0  0  0  0  0  0  0
   15.7907  -10.6569  -10.5815 C   0  0  0  0  0  0  0  0  0  0  0  0
   15.7440  -12.1008  -10.2277 C   0  0  0  0  0  0  0  0  0  0  0  0
   14.8276  -12.4635   -9.4474 O   0  0  0  0  0  0  0  0  0  0  0  0
   14.8005   -8.4373  -10.2698 C   0  0  0  0  0  0  0  0  0  0  0  0
   14.4420   -8.0141  -11.3808 O   0  0  0  0  0  0  0  0  0  0  0  0
   16.6605  -13.0132  -10.7257 O   0  0  0  0  0  0  0  0  0  0  0  0
   12.1226   -4.4101   -6.1727 N   0  0  0  0  0  0  0  0  0  0  0  0
   13.4370   -4.5786   -6.6353 C   0  0  0  0  0  0  0  0  0  0  0  0
   14.3842   -4.0934   -5.9670 O   0  0  0  0  0  0  0  0  0  0  0  0
   13.7529   -5.3063   -7.8790 C   0  0  0  0  0  0  0  0  0  0  0  0
   15.1879   -5.3188   -8.2510 C   0  0  0  0  0  0  0  0  0  0  0  0
   15.5222   -6.1240   -9.4925 C   0  0  2  0  0  0  0  0  0  0  0  0
   15.3187   -7.5454   -9.3110 N   0  0  0  0  0  0  0  0  0  0  0  0
   16.9030   -5.8155   -9.8889 C   0  0  0  0  0  0  0  0  0  0  0  0
   17.7583   -5.5505   -9.0324 O   0  0  0  0  0  0  0  0  0  0  0  0
   17.2585   -5.8244  -11.2637 N   0  0  0  0  0  0  0  0  0  0  0  0
   18.6162   -5.5917  -11.6840 C   0  0  1  0  0  0  0  0  0  0  0  0
   19.4165   -6.8347  -11.6791 C   0  0  0  0  0  0  0  0  0  0  0  0
   20.7143   -6.6919  -12.3532 C   0  0  0  0  0  0  0  0  0  0  0  0
   21.5321   -5.6250  -12.6124 C   0  0  0  0  0  0  0  0  0  0  0  0
   22.6385   -6.0320  -13.2946 N   0  0  0  0  0  0  0  0  0  0  0  0
   22.5474   -7.3588  -13.4826 C   0  0  0  0  0  0  0  0  0  0  0  0
   23.3758   -8.2948  -14.1118 C   0  0  0  0  0  0  0  0  0  0  0  0
   23.0345   -9.6284  -14.1683 C   0  0  0  0  0  0  0  0  0  0  0  0
   21.8454  -10.0545  -13.5898 C   0  0  0  0  0  0  0  0  0  0  0  0
   21.0574   -9.1323  -12.9853 C   0  0  0  0  0  0  0  0  0  0  0  0
   21.3696   -7.7857  -12.9109 C   0  0  0  0  0  0  0  0  0  0  0  0
   18.6590   -4.8956  -13.0112 C   0  0  0  0  0  0  0  0  0  0  0  0
   19.6497   -3.9963  -13.2815 O   0  0  0  0  0  0  0  0  0  0  0  0
   17.7862   -5.1368  -13.8810 O   0  0  0  0  0  0  0  0  0  0  0  0
  2  1  1  6
  2  6  1  0
  3  4  1  0
  3  2  1  0
  4  5  2  0
  6  7  2  0
  8  4  1  0
 10 11  2  0
 10  9  1  0
 12 10  1  0
 13 12  1  0
 14 13  1  1
 14 16  1  0
 15  6  1  0
 15 14  1  0
 16 17  2  0
 18 16  1  0
 19 30  1  0
 19 18  1  0
 19 20  1  6
 21 20  1  0
 21 29  1  0
 22 23  1  0
 22 21  2  0
 23 24  1  0
 24 29  2  0
 24 25  1  0
 25 26  2  0
 26 27  1  0
 28 27  2  0
 29 28  1  0
 30 31  1  0
 32 30  2  0
M  END
$$$$
