DQW.pdb
     RDKit          3D

 32 33  0  0  1  0  0  0  0  0999 V2000
   23.1328   -5.3202  -19.5044 N   0  0  0  0  0  0  0  0  0  0  0  0
   21.7787   -5.3922  -18.9963 C   0  0  1  0  0  0  0  0  0  0  0  0
   21.1583   -6.6765  -19.4432 C   0  0  0  0  0  0  0  0  0  0  0  0
   20.8693   -6.6727  -20.9022 C   0  0  0  0  0  0  0  0  0  0  0  0
   21.2248   -5.6540  -21.5474 O   0  0  0  0  0  0  0  0  0  0  0  0
   21.7782   -5.3137  -17.5033 C   0  0  0  0  0  0  0  0  0  0  0  0
   22.7680   -5.6530  -16.8346 O   0  0  0  0  0  0  0  0  0  0  0  0
   20.2385   -7.7331  -21.5328 O   0  0  0  0  0  0  0  0  0  0  0  0
   19.6310   -0.5336  -14.2931 N   0  0  0  0  0  0  0  0  0  0  0  0
   20.7854   -0.8562  -15.0234 C   0  0  0  0  0  0  0  0  0  0  0  0
   21.5824    0.0627  -15.3389 O   0  0  0  0  0  0  0  0  0  0  0  0
   21.1029   -2.2363  -15.4362 C   0  0  0  0  0  0  0  0  0  0  0  0
   20.1049   -3.2563  -15.0345 C   0  0  0  0  0  0  0  0  0  0  0  0
   20.4485   -4.6805  -15.4279 C   0  0  2  0  0  0  0  0  0  0  0  0
   20.6198   -4.8423  -16.8560 N   0  0  0  0  0  0  0  0  0  0  0  0
   19.4090   -5.5732  -14.8973 C   0  0  0  0  0  0  0  0  0  0  0  0
   18.4161   -5.8580  -15.5815 O   0  0  0  0  0  0  0  0  0  0  0  0
   19.5465   -6.1144  -13.5916 N   0  0  0  0  0  0  0  0  0  0  0  0
   18.5217   -6.9487  -13.0189 C   0  0  1  0  0  0  0  0  0  0  0  0
   19.0212   -7.7208  -11.8613 C   0  0  0  0  0  0  0  0  0  0  0  0
   18.0100   -8.6144  -11.2800 C   0  0  0  0  0  0  0  0  0  0  0  0
   17.5762   -9.8763  -11.5859 C   0  0  0  0  0  0  0  0  0  0  0  0
   16.5869  -10.2567  -10.7305 N   0  0  0  0  0  0  0  0  0  0  0  0
   16.3719   -9.2497   -9.8680 C   0  0  0  0  0  0  0  0  0  0  0  0
   15.4887   -9.0809   -8.7958 C   0  0  0  0  0  0  0  0  0  0  0  0
   15.4711   -7.9162   -8.0601 C   0  0  0  0  0  0  0  0  0  0  0  0
   16.3465   -6.8882   -8.3870 C   0  0  0  0  0  0  0  0  0  0  0  0
   17.1939   -7.0717   -9.4287 C   0  0  0  0  0  0  0  0  0  0  0  0
   17.2376   -8.2279  -10.1887 C   0  0  0  0  0  0  0  0  0  0  0  0
   17.2997   -6.1485  -12.6814 C   0  0  0  0  0  0  0  0  0  0  0  0
   17.4189   -4.9658  -12.0104 O   0  0  0  0  0  0  0  0  0  0  0  0
   16.1613   -6.5602  -13.0150 O   0  0  0  0  0  0  0  0  0  0  0  0
  2  1  1  1
  2  6  1  0
  3  4  1  0
  3  2  1  0
  4  5  2  0
  6  7  2  0
  8  4  1  0
 10 11  2  0
 10  9  1  0
 12 10  1  0
 13 12  1  0
 14 13  1  6
 14 16  1  0
 15  6  1  0
 15 14  1  0
 16 17  2  0
 18 16  1  0
 19 30  1  0
 19 18  1  0
 19 20  1  1
 21 20  1  0
 21 29  1  0
 22 23  1  0
 22 21  2  0
 23 24  1  0
 24 29  2  0
 24 25  1  0
 25 26  2  0
 26 27  1  0
 28 27  2  0
 29 28  1  0
 30 31  1  0
 32 30  2  0
M  END
$$$$
