DQW.pdb
     RDKit          3D

 32 33  0  0  1  0  0  0  0  0999 V2000
   26.0247  -18.9968  -18.4947 N   0  0  0  0  0  0  0  0  0  0  0  0
   26.5632  -19.2967  -17.1843 C   0  0  1  0  0  0  0  0  0  0  0  0
   27.7244  -18.3945  -16.9167 C   0  0  0  0  0  0  0  0  0  0  0  0
   28.8591  -18.6652  -17.8394 C   0  0  0  0  0  0  0  0  0  0  0  0
   28.7063  -19.5997  -18.6662 O   0  0  0  0  0  0  0  0  0  0  0  0
   25.5146  -19.1091  -16.1354 C   0  0  0  0  0  0  0  0  0  0  0  0
   25.1272  -17.9783  -15.7989 O   0  0  0  0  0  0  0  0  0  0  0  0
   30.0341  -17.9316  -17.8000 O   0  0  0  0  0  0  0  0  0  0  0  0
   20.8876  -18.0880  -16.5541 N   0  0  0  0  0  0  0  0  0  0  0  0
   21.0236  -19.2636  -15.7993 C   0  0  0  0  0  0  0  0  0  0  0  0
   20.3146  -19.4128  -14.7726 O   0  0  0  0  0  0  0  0  0  0  0  0
   21.9683  -20.3359  -16.1648 C   0  0  0  0  0  0  0  0  0  0  0  0
   22.6584  -20.9802  -15.0218 C   0  0  0  0  0  0  0  0  0  0  0  0
   23.9049  -20.2637  -14.5378 C   0  0  2  0  0  0  0  0  0  0  0  0
   24.9640  -20.2522  -15.5242 N   0  0  0  0  0  0  0  0  0  0  0  0
   24.3378  -20.8833  -13.2778 C   0  0  0  0  0  0  0  0  0  0  0  0
   24.9278  -21.9728  -13.2837 O   0  0  0  0  0  0  0  0  0  0  0  0
   24.0795  -20.2259  -12.0459 N   0  0  0  0  0  0  0  0  0  0  0  0
   24.4677  -20.8157  -10.7906 C   0  0  1  0  0  0  0  0  0  0  0  0
   25.3690  -19.9322  -10.0208 C   0  0  0  0  0  0  0  0  0  0  0  0
   26.7360  -20.4580   -9.9034 C   0  0  0  0  0  0  0  0  0  0  0  0
   27.5226  -21.2340  -10.7117 C   0  0  0  0  0  0  0  0  0  0  0  0
   28.7309  -21.4560  -10.1237 N   0  0  0  0  0  0  0  0  0  0  0  0
   28.7375  -20.8295   -8.9356 C   0  0  0  0  0  0  0  0  0  0  0  0
   29.6921  -20.7175   -7.9185 C   0  0  0  0  0  0  0  0  0  0  0  0
   29.4338  -20.0007   -6.7707 C   0  0  0  0  0  0  0  0  0  0  0  0
   28.2025  -19.3757   -6.6180 C   0  0  0  0  0  0  0  0  0  0  0  0
   27.2919  -19.4962   -7.6145 C   0  0  0  0  0  0  0  0  0  0  0  0
   27.5182  -20.2087   -8.7796 C   0  0  0  0  0  0  0  0  0  0  0  0
   23.2671  -21.2321   -9.9951 C   0  0  0  0  0  0  0  0  0  0  0  0
   23.4252  -21.8894   -8.8094 O   0  0  0  0  0  0  0  0  0  0  0  0
   22.1110  -20.9774  -10.4136 O   0  0  0  0  0  0  0  0  0  0  0  0
  2  1  1  6
  2  6  1  0
  3  4  1  0
  3  2  1  0
  4  5  2  0
  6  7  2  0
  8  4  1  0
 10 11  2  0
 10  9  1  0
 12 10  1  0
 13 12  1  0
 14 13  1  6
 14 16  1  0
 15  6  1  0
 15 14  1  0
 16 17  2  0
 18 16  1  0
 19 30  1  0
 19 18  1  0
 19 20  1  1
 21 20  1  0
 21 29  1  0
 22 23  1  0
 22 21  2  0
 23 24  1  0
 24 29  2  0
 24 25  1  0
 25 26  2  0
 26 27  1  0
 28 27  2  0
 29 28  1  0
 30 31  1  0
 32 30  2  0
M  END
$$$$
