HPR.pdb
     RDKit          3D

 29 30  0  0  1  0  0  0  0  0999 V2000
   11.7715  -14.0025   17.3266 N   0  0  0  0  0  0  0  0  0  0  0  0
   10.4038  -14.2565   17.8278 C   0  0  1  0  0  0  0  0  0  0  0  0
    9.9959  -15.5927   17.2426 C   0  0  0  0  0  0  0  0  0  0  0  0
   10.0309  -15.5493   15.7568 C   0  0  0  0  0  0  0  0  0  0  0  0
    9.1104  -14.9600   14.8934 C   0  0  0  0  0  0  0  0  0  0  0  0
    9.5086  -15.1402   13.6227 N   0  0  0  0  0  0  0  0  0  0  0  0
   10.6430  -15.8203   13.6715 C   0  0  0  0  0  0  0  0  0  0  0  0
   10.9750  -16.0772   14.9600 N   0  0  0  0  0  0  0  0  0  0  0  0
   10.3898  -14.2326   19.3041 C   0  0  0  0  0  0  0  0  0  0  0  0
   11.5015  -14.1998   19.9146 O   0  0  0  0  0  0  0  0  0  0  0  0
    9.1594  -14.2440   19.9891 N   0  0  0  0  0  0  0  0  0  0  0  0
    7.8459  -14.2826   19.3886 C   0  0  0  0  0  0  0  0  0  0  0  0
    6.9685  -13.4670   20.3407 C   0  0  0  0  0  0  0  0  0  0  0  0
    7.7384  -13.4198   21.6272 C   0  0  0  0  0  0  0  0  0  0  0  0
    9.0089  -14.2027   21.4258 C   0  0  1  0  0  0  0  0  0  0  0  0
    8.9385  -15.5607   22.0242 C   0  0  0  0  0  0  0  0  0  0  0  0
    8.4525  -16.5279   21.3858 O   0  0  0  0  0  0  0  0  0  0  0  0
   16.9307  -16.6484   21.5127 N   0  0  0  0  0  0  0  0  0  0  0  0
   16.0341  -15.5664   21.7327 C   0  0  0  0  0  0  0  0  0  0  0  0
   16.3341  -14.4052   21.2171 N   0  0  0  0  0  0  0  0  0  0  0  0
   14.8450  -15.7046   22.4816 N   0  0  0  0  0  0  0  0  0  0  0  0
   13.6672  -16.4528   21.9670 C   0  0  0  0  0  0  0  0  0  0  0  0
   12.5683  -16.4154   22.9504 C   0  0  0  0  0  0  0  0  0  0  0  0
   11.3292  -17.1272   22.7302 C   0  0  0  0  0  0  0  0  0  0  0  0
   10.1536  -17.1170   23.6269 C   0  0  2  0  0  0  0  0  0  0  0  0
    9.4122  -15.8258   23.3303 N   0  0  0  0  0  0  0  0  0  0  0  0
   10.3959  -17.0634   25.0720 C   0  0  0  0  0  0  0  0  0  0  0  0
   10.9294  -17.9698   25.7194 O   0  0  0  0  0  0  0  0  0  0  0  0
    9.9960  -15.8979   25.7873 O   0  0  0  0  0  0  0  0  0  0  0  0
  2  1  1  1
  2  3  1  0
  3  4  1  0
  4  8  1  0
  5  4  2  0
  5  6  1  0
  6  7  1  0
  8  7  2  0
  9  2  1  0
  9 10  2  0
 11  9  1  0
 12 11  1  0
 13 12  1  0
 14 15  1  0
 14 13  1  0
 15 11  1  0
 15 16  1  6
 16 17  2  0
 19 18  1  0
 20 19  2  0
 21 19  1  0
 22 21  1  0
 23 22  1  0
 25 24  1  6
 24 23  1  0
 25 26  1  0
 26 16  1  0
 27 25  1  0
 28 27  2  0
 29 27  1  0
M  END
$$$$
