HPR.pdb
     RDKit          3D

 29 30  0  0  1  0  0  0  0  0999 V2000
    8.6897  -15.1321   13.8767 N   0  0  0  0  0  0  0  0  0  0  0  0
    8.2424  -15.3922   15.2618 C   0  0  1  0  0  0  0  0  0  0  0  0
    8.1305  -16.8981   15.3790 C   0  0  0  0  0  0  0  0  0  0  0  0
    7.1094  -17.4250   14.4355 C   0  0  0  0  0  0  0  0  0  0  0  0
    5.7233  -17.3175   14.5230 C   0  0  0  0  0  0  0  0  0  0  0  0
    5.1589  -17.9269   13.4667 N   0  0  0  0  0  0  0  0  0  0  0  0
    6.1482  -18.4070   12.7300 C   0  0  0  0  0  0  0  0  0  0  0  0
    7.3398  -18.1112   13.3037 N   0  0  0  0  0  0  0  0  0  0  0  0
    9.1914  -14.7967   16.2237 C   0  0  0  0  0  0  0  0  0  0  0  0
   10.4010  -14.6592   15.8668 O   0  0  0  0  0  0  0  0  0  0  0  0
    8.7361  -14.3991   17.4956 N   0  0  0  0  0  0  0  0  0  0  0  0
    7.3824  -14.4998   17.9901 C   0  0  0  0  0  0  0  0  0  0  0  0
    7.2210  -13.2854   18.9069 C   0  0  0  0  0  0  0  0  0  0  0  0
    8.6224  -12.8520   19.2206 C   0  0  0  0  0  0  0  0  0  0  0  0
    9.5592  -13.8022   18.5226 C   0  0  1  0  0  0  0  0  0  0  0  0
   10.1306  -14.8156   19.4465 C   0  0  0  0  0  0  0  0  0  0  0  0
    9.4739  -15.8334   19.7814 O   0  0  0  0  0  0  0  0  0  0  0  0
   16.6694  -13.0728   16.5882 N   0  0  0  0  0  0  0  0  0  0  0  0
   16.8099  -13.1914   17.9986 C   0  0  0  0  0  0  0  0  0  0  0  0
   17.9375  -12.8147   18.5378 N   0  0  0  0  0  0  0  0  0  0  0  0
   15.7827  -13.6973   18.8250 N   0  0  0  0  0  0  0  0  0  0  0  0
   15.9773  -14.8918   19.6893 C   0  0  0  0  0  0  0  0  0  0  0  0
   14.7356  -15.1987   20.4243 C   0  0  0  0  0  0  0  0  0  0  0  0
   13.5700  -15.7308   19.7544 C   0  0  0  0  0  0  0  0  0  0  0  0
   12.2334  -15.9168   20.3590 C   0  0  2  0  0  0  0  0  0  0  0  0
   11.4307  -14.6830   19.9875 N   0  0  0  0  0  0  0  0  0  0  0  0
   12.1457  -15.9705   21.8216 C   0  0  0  0  0  0  0  0  0  0  0  0
   11.6172  -15.0972   22.5168 O   0  0  0  0  0  0  0  0  0  0  0  0
   12.7008  -17.0957   22.4967 O   0  0  0  0  0  0  0  0  0  0  0  0
  2  1  1  6
  2  3  1  0
  3  4  1  0
  4  8  1  0
  5  4  2  0
  5  6  1  0
  6  7  1  0
  8  7  2  0
  9  2  1  0
  9 10  2  0
 11  9  1  0
 12 11  1  0
 13 12  1  0
 14 15  1  0
 14 13  1  0
 15 11  1  0
 15 16  1  1
 16 17  2  0
 19 18  1  0
 20 19  2  0
 21 19  1  0
 22 21  1  0
 23 22  1  0
 25 24  1  1
 24 23  1  0
 25 26  1  0
 26 16  1  0
 27 25  1  0
 28 27  2  0
 29 27  1  0
M  END
$$$$
