HPR.pdb
     RDKit          3D

 29 30  0  0  1  0  0  0  0  0999 V2000
    8.5426  -12.7916   18.3201 N   0  0  0  0  0  0  0  0  0  0  0  0
    8.2526  -14.2211   18.5622 C   0  0  1  0  0  0  0  0  0  0  0  0
    9.2652  -14.9887   17.7379 C   0  0  0  0  0  0  0  0  0  0  0  0
    8.9099  -14.9464   16.2948 C   0  0  0  0  0  0  0  0  0  0  0  0
    9.1426  -13.9192   15.3833 C   0  0  0  0  0  0  0  0  0  0  0  0
    8.6700  -14.2750   14.1766 N   0  0  0  0  0  0  0  0  0  0  0  0
    8.1537  -15.4863   14.3115 C   0  0  0  0  0  0  0  0  0  0  0  0
    8.2908  -15.9093   15.5916 N   0  0  0  0  0  0  0  0  0  0  0  0
    8.3244  -14.5179   20.0068 C   0  0  0  0  0  0  0  0  0  0  0  0
    9.1092  -13.8252   20.7237 O   0  0  0  0  0  0  0  0  0  0  0  0
    7.5289  -15.5469   20.5467 N   0  0  0  0  0  0  0  0  0  0  0  0
    6.5677  -16.3518   19.8287 C   0  0  0  0  0  0  0  0  0  0  0  0
    5.4694  -16.6381   20.8549 C   0  0  0  0  0  0  0  0  0  0  0  0
    6.1070  -16.3682   22.1856 C   0  0  0  0  0  0  0  0  0  0  0  0
    7.5342  -15.9603   21.9315 C   0  0  1  0  0  0  0  0  0  0  0  0
    8.4934  -17.0660   22.1857 C   0  0  0  0  0  0  0  0  0  0  0  0
    8.5547  -18.0618   21.4217 O   0  0  0  0  0  0  0  0  0  0  0  0
   14.2900  -13.9438   18.1567 N   0  0  0  0  0  0  0  0  0  0  0  0
   15.0139  -14.6824   19.1331 C   0  0  0  0  0  0  0  0  0  0  0  0
   16.2666  -14.9585   18.8909 N   0  0  0  0  0  0  0  0  0  0  0  0
   14.4295  -15.1220   20.3411 N   0  0  0  0  0  0  0  0  0  0  0  0
   12.9684  -15.3676   20.4710 C   0  0  0  0  0  0  0  0  0  0  0  0
   12.6252  -15.6812   21.8710 C   0  0  0  0  0  0  0  0  0  0  0  0
   11.2744  -16.0149   22.2639 C   0  0  0  0  0  0  0  0  0  0  0  0
   10.8725  -17.1833   23.0762 C   0  0  2  0  0  0  0  0  0  0  0  0
    9.3757  -17.0488   23.2910 N   0  0  0  0  0  0  0  0  0  0  0  0
   11.4176  -17.2933   24.4329 C   0  0  0  0  0  0  0  0  0  0  0  0
   12.5702  -17.6550   24.6895 O   0  0  0  0  0  0  0  0  0  0  0  0
   10.5755  -16.9651   25.5342 O   0  0  0  0  0  0  0  0  0  0  0  0
  2  1  1  1
  2  3  1  0
  3  4  1  0
  4  8  1  0
  5  4  2  0
  5  6  1  0
  6  7  1  0
  8  7  2  0
  9  2  1  0
  9 10  2  0
 11  9  1  0
 12 11  1  0
 13 12  1  0
 14 15  1  0
 14 13  1  0
 15 11  1  0
 15 16  1  6
 16 17  2  0
 19 18  1  0
 20 19  2  0
 21 19  1  0
 22 21  1  0
 23 22  1  0
 25 24  1  1
 24 23  1  0
 25 26  1  0
 26 16  1  0
 27 25  1  0
 28 27  2  0
 29 27  1  0
M  END
$$$$
