HPR.pdb
     RDKit          3D

 29 30  0  0  1  0  0  0  0  0999 V2000
    7.0412  -13.9862   17.7829 N   0  0  0  0  0  0  0  0  0  0  0  0
    7.9229  -15.1541   17.9948 C   0  0  1  0  0  0  0  0  0  0  0  0
    9.3141  -14.6895   17.6167 C   0  0  0  0  0  0  0  0  0  0  0  0
    9.4231  -14.4964   16.1465 C   0  0  0  0  0  0  0  0  0  0  0  0
    9.5906  -15.4687   15.1632 C   0  0  0  0  0  0  0  0  0  0  0  0
    9.6403  -14.8811   13.9557 N   0  0  0  0  0  0  0  0  0  0  0  0
    9.5093  -13.5798   14.1593 C   0  0  0  0  0  0  0  0  0  0  0  0
    9.3763  -13.3285   15.4842 N   0  0  0  0  0  0  0  0  0  0  0  0
    7.8193  -15.6239   19.3908 C   0  0  0  0  0  0  0  0  0  0  0  0
    7.3240  -14.8369   20.2539 O   0  0  0  0  0  0  0  0  0  0  0  0
    8.2644  -16.9174   19.7250 N   0  0  0  0  0  0  0  0  0  0  0  0
    8.8826  -17.8678   18.8295 C   0  0  0  0  0  0  0  0  0  0  0  0
    8.4084  -19.2316   19.3360 C   0  0  0  0  0  0  0  0  0  0  0  0
    7.9400  -18.9790   20.7384 C   0  0  0  0  0  0  0  0  0  0  0  0
    8.1590  -17.5188   21.0349 C   0  0  1  0  0  0  0  0  0  0  0  0
    9.3707  -17.2841   21.8618 C   0  0  0  0  0  0  0  0  0  0  0  0
   10.5227  -17.3851   21.3701 O   0  0  0  0  0  0  0  0  0  0  0  0
    5.2467  -11.9807   26.7631 N   0  0  0  0  0  0  0  0  0  0  0  0
    6.4897  -12.5435   27.1645 C   0  0  0  0  0  0  0  0  0  0  0  0
    7.1047  -12.0102   28.1851 N   0  0  0  0  0  0  0  0  0  0  0  0
    7.0738  -13.6462   26.5036 N   0  0  0  0  0  0  0  0  0  0  0  0
    8.4039  -13.5606   25.8436 C   0  0  0  0  0  0  0  0  0  0  0  0
    8.7870  -14.8745   25.2933 C   0  0  0  0  0  0  0  0  0  0  0  0
    9.9940  -15.0484   24.5167 C   0  0  0  0  0  0  0  0  0  0  0  0
   10.4765  -16.3216   23.9397 C   0  0  2  0  0  0  0  0  0  0  0  0
    9.2842  -16.9381   23.2304 N   0  0  0  0  0  0  0  0  0  0  0  0
   10.9189  -17.3683   24.8663 C   0  0  0  0  0  0  0  0  0  0  0  0
   11.9390  -17.2952   25.5585 O   0  0  0  0  0  0  0  0  0  0  0  0
   10.1316  -18.5497   24.9858 O   0  0  0  0  0  0  0  0  0  0  0  0
  2  1  1  1
  2  3  1  0
  3  4  1  0
  4  8  1  0
  5  4  2  0
  5  6  1  0
  6  7  1  0
  8  7  2  0
  9  2  1  0
  9 10  2  0
 11  9  1  0
 12 11  1  0
 13 12  1  0
 14 15  1  0
 14 13  1  0
 15 11  1  0
 15 16  1  1
 16 17  2  0
 19 18  1  0
 20 19  2  0
 21 19  1  0
 22 21  1  0
 23 22  1  0
 25 24  1  1
 24 23  1  0
 25 26  1  0
 26 16  1  0
 27 25  1  0
 28 27  2  0
 29 27  1  0
M  END
$$$$
