HPR.pdb
     RDKit          3D

 29 30  0  0  1  0  0  0  0  0999 V2000
   10.3310  -14.8218   16.0712 N   0  0  0  0  0  0  0  0  0  0  0  0
    9.3247  -15.2083   17.0832 C   0  0  1  0  0  0  0  0  0  0  0  0
    9.1633  -16.7082   16.9468 C   0  0  0  0  0  0  0  0  0  0  0  0
    8.5413  -17.0541   15.6414 C   0  0  0  0  0  0  0  0  0  0  0  0
    9.1429  -17.0857   14.3855 C   0  0  0  0  0  0  0  0  0  0  0  0
    8.2362  -17.4504   13.4632 N   0  0  0  0  0  0  0  0  0  0  0  0
    7.0957  -17.6451   14.1059 C   0  0  0  0  0  0  0  0  0  0  0  0
    7.2629  -17.4088   15.4298 N   0  0  0  0  0  0  0  0  0  0  0  0
    9.7652  -14.7844   18.4272 C   0  0  0  0  0  0  0  0  0  0  0  0
   11.0056  -14.6036   18.6232 O   0  0  0  0  0  0  0  0  0  0  0  0
    8.8105  -14.5913   19.4443 N   0  0  0  0  0  0  0  0  0  0  0  0
    7.3833  -14.7826   19.3259 C   0  0  0  0  0  0  0  0  0  0  0  0
    6.7797  -13.7246   20.2520 C   0  0  0  0  0  0  0  0  0  0  0  0
    7.9020  -13.3276   21.1647 C   0  0  0  0  0  0  0  0  0  0  0  0
    9.1068  -14.1486   20.7877 C   0  0  1  0  0  0  0  0  0  0  0  0
    9.3322  -15.2845   21.7184 C   0  0  0  0  0  0  0  0  0  0  0  0
    8.3786  -16.0034   22.1094 O   0  0  0  0  0  0  0  0  0  0  0  0
   11.1469  -15.1625   30.4379 N   0  0  0  0  0  0  0  0  0  0  0  0
   10.5264  -14.7176   29.2379 C   0  0  0  0  0  0  0  0  0  0  0  0
   10.4791  -13.4330   29.0103 N   0  0  0  0  0  0  0  0  0  0  0  0
    9.9664  -15.6083   28.2962 N   0  0  0  0  0  0  0  0  0  0  0  0
    9.5005  -15.1565   26.9580 C   0  0  0  0  0  0  0  0  0  0  0  0
    9.9852  -16.0755   25.9109 C   0  0  0  0  0  0  0  0  0  0  0  0
   10.2744  -15.6139   24.5715 C   0  0  0  0  0  0  0  0  0  0  0  0
   10.7773  -16.4470   23.4582 C   0  0  2  0  0  0  0  0  0  0  0  0
   10.6210  -15.6071   22.2033 N   0  0  0  0  0  0  0  0  0  0  0  0
   10.0547  -17.6848   23.1495 C   0  0  0  0  0  0  0  0  0  0  0  0
    8.9234  -17.7221   22.6554 O   0  0  0  0  0  0  0  0  0  0  0  0
   10.6854  -18.9307   23.4320 O   0  0  0  0  0  0  0  0  0  0  0  0
  2  1  1  6
  2  3  1  0
  3  4  1  0
  4  8  1  0
  5  4  2  0
  5  6  1  0
  6  7  1  0
  8  7  2  0
  9  2  1  0
  9 10  2  0
 11  9  1  0
 12 11  1  0
 13 12  1  0
 14 15  1  0
 14 13  1  0
 15 11  1  0
 15 16  1  1
 16 17  2  0
 19 18  1  0
 20 19  2  0
 21 19  1  0
 22 21  1  0
 23 22  1  0
 25 24  1  1
 24 23  1  0
 25 26  1  0
 26 16  1  0
 27 25  1  0
 28 27  2  0
 29 27  1  0
M  END
$$$$
