HPR.pdb
     RDKit          3D

 29 30  0  0  1  0  0  0  0  0999 V2000
   11.2655  -13.2654   17.6287 N   0  0  0  0  0  0  0  0  0  0  0  0
   10.0765  -13.9369   18.1958 C   0  0  1  0  0  0  0  0  0  0  0  0
   10.1321  -15.3630   17.6886 C   0  0  0  0  0  0  0  0  0  0  0  0
   10.0481  -15.3975   16.2046 C   0  0  0  0  0  0  0  0  0  0  0  0
    9.2917  -14.5796   15.3685 C   0  0  0  0  0  0  0  0  0  0  0  0
    9.4978  -14.9339   14.0887 N   0  0  0  0  0  0  0  0  0  0  0  0
   10.3552  -15.9421   14.1055 C   0  0  0  0  0  0  0  0  0  0  0  0
   10.7000  -16.2367   15.3826 N   0  0  0  0  0  0  0  0  0  0  0  0
   10.0887  -13.8360   19.6688 C   0  0  0  0  0  0  0  0  0  0  0  0
   11.1491  -13.4290   20.2340 O   0  0  0  0  0  0  0  0  0  0  0  0
    8.9376  -14.1870   20.4003 N   0  0  0  0  0  0  0  0  0  0  0  0
    7.6552  -14.5615   19.8504 C   0  0  0  0  0  0  0  0  0  0  0  0
    6.6376  -14.0267   20.8602 C   0  0  0  0  0  0  0  0  0  0  0  0
    7.4253  -13.8013   22.1168 C   0  0  0  0  0  0  0  0  0  0  0  0
    8.8471  -14.2146   21.8424 C   0  0  1  0  0  0  0  0  0  0  0  0
    9.1658  -15.5537   22.4014 C   0  0  0  0  0  0  0  0  0  0  0  0
    8.7627  -16.6043   21.8418 O   0  0  0  0  0  0  0  0  0  0  0  0
   17.0287  -15.6404   22.4547 N   0  0  0  0  0  0  0  0  0  0  0  0
   16.0585  -15.4318   21.4358 C   0  0  0  0  0  0  0  0  0  0  0  0
   16.4709  -15.0074   20.2721 N   0  0  0  0  0  0  0  0  0  0  0  0
   14.6807  -15.6655   21.6386 N   0  0  0  0  0  0  0  0  0  0  0  0
   14.1499  -16.2153   22.9145 C   0  0  0  0  0  0  0  0  0  0  0  0
   12.6884  -16.3946   22.8250 C   0  0  0  0  0  0  0  0  0  0  0  0
   11.9296  -16.9853   23.9047 C   0  0  0  0  0  0  0  0  0  0  0  0
   10.4555  -17.0751   23.9791 C   0  0  2  0  0  0  0  0  0  0  0  0
    9.9322  -15.7070   23.5801 N   0  0  0  0  0  0  0  0  0  0  0  0
    9.8504  -17.3177   25.2924 C   0  0  0  0  0  0  0  0  0  0  0  0
    9.1971  -16.4784   25.9202 O   0  0  0  0  0  0  0  0  0  0  0  0
   10.0184  -18.5982   25.8940 O   0  0  0  0  0  0  0  0  0  0  0  0
  2  1  1  6
  2  3  1  0
  3  4  1  0
  4  8  1  0
  5  4  2  0
  5  6  1  0
  6  7  1  0
  8  7  2  0
  9  2  1  0
  9 10  2  0
 11  9  1  0
 12 11  1  0
 13 12  1  0
 14 15  1  0
 14 13  1  0
 15 11  1  0
 15 16  1  6
 16 17  2  0
 19 18  1  0
 20 19  2  0
 21 19  1  0
 22 21  1  0
 23 22  1  0
 25 24  1  1
 24 23  1  0
 25 26  1  0
 26 16  1  0
 27 25  1  0
 28 27  2  0
 29 27  1  0
M  END
$$$$
