HPR.pdb
     RDKit          3D

 29 30  0  0  1  0  0  0  0  0999 V2000
   16.4667  -20.5101   24.2097 N   0  0  0  0  0  0  0  0  0  0  0  0
   15.4180  -21.2393   24.9545 C   0  0  1  0  0  0  0  0  0  0  0  0
   15.7892  -22.7043   24.8537 C   0  0  0  0  0  0  0  0  0  0  0  0
   15.7062  -23.1726   23.4450 C   0  0  0  0  0  0  0  0  0  0  0  0
   14.5766  -23.2602   22.6348 C   0  0  0  0  0  0  0  0  0  0  0  0
   14.9276  -23.7299   21.4256 N   0  0  0  0  0  0  0  0  0  0  0  0
   16.2346  -23.9354   21.4611 C   0  0  0  0  0  0  0  0  0  0  0  0
   16.7238  -23.6021   22.6802 N   0  0  0  0  0  0  0  0  0  0  0  0
   15.3440  -20.7460   26.3443 C   0  0  0  0  0  0  0  0  0  0  0  0
   16.4264  -20.4415   26.9318 O   0  0  0  0  0  0  0  0  0  0  0  0
   14.0903  -20.6249   26.9743 N   0  0  0  0  0  0  0  0  0  0  0  0
   12.8054  -20.9318   26.3895 C   0  0  0  0  0  0  0  0  0  0  0  0
   11.8477  -19.9207   27.0234 C   0  0  0  0  0  0  0  0  0  0  0  0
   12.5632  -19.4287   28.2467 C   0  0  0  0  0  0  0  0  0  0  0  0
   13.8819  -20.1517   28.3238 C   0  0  1  0  0  0  0  0  0  0  0  0
   13.8635  -21.2600   29.3130 C   0  0  0  0  0  0  0  0  0  0  0  0
   13.2093  -22.3115   29.0988 O   0  0  0  0  0  0  0  0  0  0  0  0
   20.5877  -21.0043   34.2151 N   0  0  0  0  0  0  0  0  0  0  0  0
   19.4329  -20.4308   34.8155 C   0  0  0  0  0  0  0  0  0  0  0  0
   19.5751  -19.8179   35.9594 N   0  0  0  0  0  0  0  0  0  0  0  0
   18.1532  -20.5016   34.2228 N   0  0  0  0  0  0  0  0  0  0  0  0
   17.9484  -21.0022   32.8374 C   0  0  0  0  0  0  0  0  0  0  0  0
   16.5216  -20.9239   32.4713 C   0  0  0  0  0  0  0  0  0  0  0  0
   15.6790  -22.0986   32.4494 C   0  0  0  0  0  0  0  0  0  0  0  0
   14.5917  -22.3666   31.4837 C   0  0  2  0  0  0  0  0  0  0  0  0
   14.5764  -21.1838   30.5321 N   0  0  0  0  0  0  0  0  0  0  0  0
   13.2198  -22.4268   31.9976 C   0  0  0  0  0  0  0  0  0  0  0  0
   12.4152  -21.4919   31.9367 O   0  0  0  0  0  0  0  0  0  0  0  0
   12.7733  -23.6342   32.6080 O   0  0  0  0  0  0  0  0  0  0  0  0
  2  1  1  6
  2  3  1  0
  3  4  1  0
  4  8  1  0
  5  4  2  0
  5  6  1  0
  6  7  1  0
  8  7  2  0
  9  2  1  0
  9 10  2  0
 11  9  1  0
 12 11  1  0
 13 12  1  0
 14 15  1  0
 14 13  1  0
 15 11  1  0
 15 16  1  1
 16 17  2  0
 19 18  1  0
 20 19  2  0
 21 19  1  0
 22 21  1  0
 23 22  1  0
 25 24  1  1
 24 23  1  0
 25 26  1  0
 26 16  1  0
 27 25  1  0
 28 27  2  0
 29 27  1  0
M  END
$$$$
