HPR.pdb
     RDKit          3D

 29 30  0  0  1  0  0  0  0  0999 V2000
    9.6187  -18.9993   16.5756 N   0  0  0  0  0  0  0  0  0  0  0  0
    8.6458  -17.9152   16.8287 C   0  0  1  0  0  0  0  0  0  0  0  0
    7.5239  -18.1328   15.8346 C   0  0  0  0  0  0  0  0  0  0  0  0
    7.6197  -17.1627   14.7121 C   0  0  0  0  0  0  0  0  0  0  0  0
    7.5516  -15.7726   14.7708 C   0  0  0  0  0  0  0  0  0  0  0  0
    7.6847  -15.2647   13.5338 N   0  0  0  0  0  0  0  0  0  0  0  0
    7.8326  -16.2927   12.7134 C   0  0  0  0  0  0  0  0  0  0  0  0
    7.7955  -17.4532   13.4122 N   0  0  0  0  0  0  0  0  0  0  0  0
    8.1992  -17.9498   18.2357 C   0  0  0  0  0  0  0  0  0  0  0  0
    7.5813  -16.9412   18.6945 O   0  0  0  0  0  0  0  0  0  0  0  0
    8.4644  -19.0872   19.0226 N   0  0  0  0  0  0  0  0  0  0  0  0
    9.1015  -20.3055   18.5787 C   0  0  0  0  0  0  0  0  0  0  0  0
    8.4301  -21.4074   19.4011 C   0  0  0  0  0  0  0  0  0  0  0  0
    7.8024  -20.6926   20.5610 C   0  0  0  0  0  0  0  0  0  0  0  0
    8.1226  -19.2279   20.4197 C   0  0  1  0  0  0  0  0  0  0  0  0
    9.2277  -18.8004   21.3159 C   0  0  0  0  0  0  0  0  0  0  0  0
   10.4174  -19.1325   21.0847 O   0  0  0  0  0  0  0  0  0  0  0  0
    7.4675  -12.3127   20.1824 N   0  0  0  0  0  0  0  0  0  0  0  0
    8.7456  -12.5660   19.6121 C   0  0  0  0  0  0  0  0  0  0  0  0
    8.9376  -12.2369   18.3635 N   0  0  0  0  0  0  0  0  0  0  0  0
    9.8009  -13.1548   20.3427 N   0  0  0  0  0  0  0  0  0  0  0  0
    9.6138  -13.6784   21.7221 C   0  0  0  0  0  0  0  0  0  0  0  0
    9.9781  -15.1067   21.7804 C   0  0  0  0  0  0  0  0  0  0  0  0
    9.8995  -15.8595   23.0124 C   0  0  0  0  0  0  0  0  0  0  0  0
   10.1492  -17.3096   23.1585 C   0  0  2  0  0  0  0  0  0  0  0  0
    8.9936  -18.0054   22.4620 N   0  0  0  0  0  0  0  0  0  0  0  0
   10.1388  -17.8724   24.5124 C   0  0  0  0  0  0  0  0  0  0  0  0
   11.0828  -17.7903   25.3044 O   0  0  0  0  0  0  0  0  0  0  0  0
    8.9723  -18.5600   24.9555 O   0  0  0  0  0  0  0  0  0  0  0  0
  2  1  1  1
  2  3  1  0
  3  4  1  0
  4  8  1  0
  5  4  2  0
  5  6  1  0
  6  7  1  0
  8  7  2  0
  9  2  1  0
  9 10  2  0
 11  9  1  0
 12 11  1  0
 13 12  1  0
 14 15  1  0
 14 13  1  0
 15 11  1  0
 15 16  1  1
 16 17  2  0
 19 18  1  0
 20 19  2  0
 21 19  1  0
 22 21  1  0
 23 22  1  0
 25 24  1  1
 24 23  1  0
 25 26  1  0
 26 16  1  0
 27 25  1  0
 28 27  2  0
 29 27  1  0
M  END
$$$$
