HPR.pdb
     RDKit          3D

 29 30  0  0  1  0  0  0  0  0999 V2000
   10.0450  -16.0779   15.9871 N   0  0  0  0  0  0  0  0  0  0  0  0
    9.1376  -16.2852   17.1360 C   0  0  1  0  0  0  0  0  0  0  0  0
    9.1239  -17.7798   17.3812 C   0  0  0  0  0  0  0  0  0  0  0  0
    7.9362  -18.1703   18.1856 C   0  0  0  0  0  0  0  0  0  0  0  0
    7.8308  -18.2631   19.5715 C   0  0  0  0  0  0  0  0  0  0  0  0
    6.5860  -18.6466   19.9018 N   0  0  0  0  0  0  0  0  0  0  0  0
    5.9190  -18.7939   18.7680 C   0  0  0  0  0  0  0  0  0  0  0  0
    6.7238  -18.5087   17.7157 N   0  0  0  0  0  0  0  0  0  0  0  0
    9.6017  -15.5030   18.2991 C   0  0  0  0  0  0  0  0  0  0  0  0
   10.8500  -15.4284   18.5131 O   0  0  0  0  0  0  0  0  0  0  0  0
    8.6602  -14.8653   19.1299 N   0  0  0  0  0  0  0  0  0  0  0  0
    7.2226  -14.9721   19.0335 C   0  0  0  0  0  0  0  0  0  0  0  0
    6.7091  -13.5986   19.4704 C   0  0  0  0  0  0  0  0  0  0  0  0
    7.8553  -12.9783   20.2132 C   0  0  0  0  0  0  0  0  0  0  0  0
    8.9846  -13.9746   20.2207 C   0  0  1  0  0  0  0  0  0  0  0  0
    9.1000  -14.6904   21.5174 C   0  0  0  0  0  0  0  0  0  0  0  0
    9.4018  -14.0788   22.5729 O   0  0  0  0  0  0  0  0  0  0  0  0
    7.6305  -21.4033   24.1904 N   0  0  0  0  0  0  0  0  0  0  0  0
    6.2171  -21.2467   24.2207 C   0  0  0  0  0  0  0  0  0  0  0  0
    5.5315  -22.0088   25.0290 N   0  0  0  0  0  0  0  0  0  0  0  0
    5.5391  -20.3059   23.4149 N   0  0  0  0  0  0  0  0  0  0  0  0
    6.2324  -19.5226   22.3577 C   0  0  0  0  0  0  0  0  0  0  0  0
    6.8662  -18.3252   22.9414 C   0  0  0  0  0  0  0  0  0  0  0  0
    8.2842  -18.0766   22.8077 C   0  0  0  0  0  0  0  0  0  0  0  0
    8.9536  -16.7689   22.9754 C   0  0  2  0  0  0  0  0  0  0  0  0
    8.8768  -16.0830   21.6232 N   0  0  0  0  0  0  0  0  0  0  0  0
   10.3850  -16.7688   23.2928 C   0  0  0  0  0  0  0  0  0  0  0  0
   10.8974  -16.0838   24.1836 O   0  0  0  0  0  0  0  0  0  0  0  0
   11.2513  -17.6075   22.5339 O   0  0  0  0  0  0  0  0  0  0  0  0
  2  1  1  6
  2  3  1  0
  3  4  1  0
  4  8  1  0
  5  4  2  0
  5  6  1  0
  6  7  1  0
  8  7  2  0
  9  2  1  0
  9 10  2  0
 11  9  1  0
 12 11  1  0
 13 12  1  0
 14 15  1  0
 14 13  1  0
 15 11  1  0
 15 16  1  1
 16 17  2  0
 19 18  1  0
 20 19  2  0
 21 19  1  0
 22 21  1  0
 23 22  1  0
 25 24  1  6
 24 23  1  0
 25 26  1  0
 26 16  1  0
 27 25  1  0
 28 27  2  0
 29 27  1  0
M  END
$$$$
