HPR.pdb
     RDKit          3D

 29 30  0  0  1  0  0  0  0  0999 V2000
    7.8447  -14.3103   16.5532 N   0  0  0  0  0  0  0  0  0  0  0  0
    8.6051  -15.4436   17.1218 C   0  0  1  0  0  0  0  0  0  0  0  0
   10.0636  -15.0463   17.0253 C   0  0  0  0  0  0  0  0  0  0  0  0
   10.5504  -15.1671   15.6257 C   0  0  0  0  0  0  0  0  0  0  0  0
   10.9706  -16.3157   14.9591 C   0  0  0  0  0  0  0  0  0  0  0  0
   11.3308  -15.9991   13.7038 N   0  0  0  0  0  0  0  0  0  0  0  0
   11.1477  -14.6949   13.5721 C   0  0  0  0  0  0  0  0  0  0  0  0
   10.6741  -14.1735   14.7298 N   0  0  0  0  0  0  0  0  0  0  0  0
    8.1597  -15.7137   18.5035 C   0  0  0  0  0  0  0  0  0  0  0  0
    7.7495  -14.7384   19.2035 O   0  0  0  0  0  0  0  0  0  0  0  0
    8.1983  -17.0299   19.0028 N   0  0  0  0  0  0  0  0  0  0  0  0
    8.8831  -18.1525   18.4044 C   0  0  0  0  0  0  0  0  0  0  0  0
    8.0042  -19.3585   18.7429 C   0  0  0  0  0  0  0  0  0  0  0  0
    7.1459  -18.9000   19.8845 C   0  0  0  0  0  0  0  0  0  0  0  0
    7.5357  -17.4812   20.2052 C   0  0  1  0  0  0  0  0  0  0  0  0
    8.4140  -17.3912   21.4001 C   0  0  0  0  0  0  0  0  0  0  0  0
    9.6629  -17.4858   21.2974 O   0  0  0  0  0  0  0  0  0  0  0  0
    6.5908  -10.2284   26.3563 N   0  0  0  0  0  0  0  0  0  0  0  0
    6.6326  -11.3942   27.1699 C   0  0  0  0  0  0  0  0  0  0  0  0
    6.0349  -11.3559   28.3299 N   0  0  0  0  0  0  0  0  0  0  0  0
    7.2913  -12.5774   26.7697 N   0  0  0  0  0  0  0  0  0  0  0  0
    6.9224  -13.3083   25.5281 C   0  0  0  0  0  0  0  0  0  0  0  0
    7.6771  -14.5724   25.4358 C   0  0  0  0  0  0  0  0  0  0  0  0
    7.5099  -15.4753   24.3189 C   0  0  0  0  0  0  0  0  0  0  0  0
    8.5834  -16.2590   23.6709 C   0  0  2  0  0  0  0  0  0  0  0  0
    7.8890  -17.1959   22.6988 N   0  0  0  0  0  0  0  0  0  0  0  0
    9.3832  -17.1521   24.5150 C   0  0  0  0  0  0  0  0  0  0  0  0
   10.2944  -16.7725   25.2572 O   0  0  0  0  0  0  0  0  0  0  0  0
    9.1021  -18.5486   24.4874 O   0  0  0  0  0  0  0  0  0  0  0  0
  2  1  1  1
  2  3  1  0
  3  4  1  0
  4  8  1  0
  5  4  2  0
  5  6  1  0
  6  7  1  0
  8  7  2  0
  9  2  1  0
  9 10  2  0
 11  9  1  0
 12 11  1  0
 13 12  1  0
 14 15  1  0
 14 13  1  0
 15 11  1  0
 15 16  1  1
 16 17  2  0
 19 18  1  0
 20 19  2  0
 21 19  1  0
 22 21  1  0
 23 22  1  0
 25 24  1  1
 24 23  1  0
 25 26  1  0
 26 16  1  0
 27 25  1  0
 28 27  2  0
 29 27  1  0
M  END
$$$$
