YLS.pdb
     RDKit          3D

 27 27  0  0  1  0  0  0  0  0999 V2000
   18.1542  -12.3658  -24.1928 O   0  0  0  0  0  0  0  0  0  0  0  0
   18.6946  -11.8186  -23.0562 C   0  0  0  0  0  0  0  0  0  0  0  0
   17.8820  -11.4971  -21.9619 C   0  0  0  0  0  0  0  0  0  0  0  0
   18.4329  -10.9484  -20.8256 C   0  0  0  0  0  0  0  0  0  0  0  0
   19.7843  -10.7102  -20.7524 C   0  0  0  0  0  0  0  0  0  0  0  0
   20.3600  -10.1357  -19.5558 C   0  0  0  0  0  0  0  0  0  0  0  0
   21.1564  -11.0704  -18.6898 C   0  0  2  0  0  0  0  0  0  0  0  0
   20.2833  -12.1542  -18.1909 N   0  0  0  0  0  0  0  0  0  0  0  0
   21.8728  -10.4252  -17.5781 C   0  0  0  0  0  0  0  0  0  0  0  0
   21.2412  -10.2541  -16.4938 O   0  0  0  0  0  0  0  0  0  0  0  0
   20.5989  -11.0206  -21.8200 C   0  0  0  0  0  0  0  0  0  0  0  0
   20.0429  -11.5798  -22.9799 C   0  0  0  0  0  0  0  0  0  0  0  0
   27.5264  -10.5104  -15.7698 C   0  0  0  0  0  0  0  0  0  0  0  0
   26.0917  -10.1873  -15.5838 C   0  0  2  0  0  0  0  0  0  0  0  0
   25.3602  -11.5100  -15.2417 C   0  0  0  0  0  0  0  0  0  0  0  0
   25.3587   -9.5684  -16.7056 C   0  0  0  0  0  0  0  0  0  0  0  0
   23.9174   -9.3324  -16.5106 C   0  0  2  0  0  0  0  0  0  0  0  0
   23.1899   -9.9950  -17.6345 N   0  0  0  0  0  0  0  0  0  0  0  0
   23.3987   -7.9799  -16.4943 C   0  0  0  0  0  0  0  0  0  0  0  0
   23.1088   -7.4166  -17.6137 O   0  0  0  0  0  0  0  0  0  0  0  0
   20.3579   -4.9060  -16.0149 O   0  0  0  0  0  0  0  0  0  0  0  0
   21.0619   -6.0953  -15.9058 C   0  0  0  0  0  0  0  0  0  0  0  0
   22.5160   -5.8546  -15.4808 C   0  0  2  0  0  0  0  0  0  0  0  0
   23.1404   -7.1472  -15.3621 N   0  0  0  0  0  0  0  0  0  0  0  0
   22.4593   -5.0590  -14.2531 C   0  0  0  0  0  0  0  0  0  0  0  0
   22.6471   -5.4514  -13.0947 O   0  0  0  0  0  0  0  0  0  0  0  0
   22.1549   -3.6921  -14.4293 O   0  0  0  0  0  0  0  0  0  0  0  0
  2  1  1  0
  3  2  2  0
  4  3  1  0
  5 11  1  0
  5  4  2  0
  6  5  1  0
  7  9  1  0
  7  6  1  0
  7  8  1  1
  9 10  2  0
 11 12  2  0
 12  2  1  0
 14 13  1  6
 15 14  1  0
 16 14  1  0
 17 16  1  6
 18  9  1  0
 18 17  1  0
 19 24  1  0
 19 17  1  0
 20 19  2  0
 22 21  1  0
 23 22  1  1
 23 24  1  0
 25 23  1  0
 25 27  1  0
 26 25  2  0
M  END
$$$$
