YLS.pdb
     RDKit          3D

 27 27  0  0  1  0  0  0  0  0999 V2000
   23.2396  -33.2610  -16.5649 O   0  0  0  0  0  0  0  0  0  0  0  0
   22.9215  -31.9679  -16.2334 C   0  0  0  0  0  0  0  0  0  0  0  0
   23.7816  -31.2024  -15.4360 C   0  0  0  0  0  0  0  0  0  0  0  0
   23.4543  -29.9058  -15.1084 C   0  0  0  0  0  0  0  0  0  0  0  0
   22.2817  -29.3487  -15.5592 C   0  0  0  0  0  0  0  0  0  0  0  0
   21.9422  -27.9851  -15.2149 C   0  0  0  0  0  0  0  0  0  0  0  0
   22.3760  -26.9283  -16.1910 C   0  0  2  0  0  0  0  0  0  0  0  0
   23.8524  -26.8840  -16.2550 N   0  0  0  0  0  0  0  0  0  0  0  0
   21.8251  -25.5875  -15.9372 C   0  0  0  0  0  0  0  0  0  0  0  0
   22.6115  -24.7076  -15.4774 O   0  0  0  0  0  0  0  0  0  0  0  0
   21.4236  -30.0877  -16.3450 C   0  0  0  0  0  0  0  0  0  0  0  0
   21.7522  -31.4090  -16.6818 C   0  0  0  0  0  0  0  0  0  0  0  0
   18.0731  -21.4067  -16.7029 C   0  0  0  0  0  0  0  0  0  0  0  0
   19.3609  -21.8167  -17.3120 C   0  0  2  0  0  0  0  0  0  0  0  0
   19.3247  -21.3902  -18.8015 C   0  0  0  0  0  0  0  0  0  0  0  0
   19.7296  -23.2457  -17.2829 C   0  0  0  0  0  0  0  0  0  0  0  0
   19.9573  -23.8483  -15.9578 C   0  0  2  0  0  0  0  0  0  0  0  0
   20.5080  -25.2208  -16.1687 N   0  0  0  0  0  0  0  0  0  0  0  0
   18.8470  -24.0425  -15.0478 C   0  0  0  0  0  0  0  0  0  0  0  0
   17.9053  -24.8505  -15.3866 O   0  0  0  0  0  0  0  0  0  0  0  0
   19.3647  -24.0501  -11.3650 O   0  0  0  0  0  0  0  0  0  0  0  0
   18.0243  -23.7119  -11.4693 C   0  0  0  0  0  0  0  0  0  0  0  0
   17.5308  -23.7979  -12.9191 C   0  0  2  0  0  0  0  0  0  0  0  0
   18.6427  -23.4471  -13.7649 N   0  0  0  0  0  0  0  0  0  0  0  0
   16.3611  -22.9219  -13.0081 C   0  0  0  0  0  0  0  0  0  0  0  0
   16.2688  -21.8528  -13.6242 O   0  0  0  0  0  0  0  0  0  0  0  0
   15.2186  -23.3620  -12.3060 O   0  0  0  0  0  0  0  0  0  0  0  0
  2  1  1  0
  3  2  2  0
  4  3  1  0
  5 11  1  0
  5  4  2  0
  6  5  1  0
  7  9  1  0
  7  6  1  0
  7  8  1  1
  9 10  2  0
 11 12  2  0
 12  2  1  0
 14 13  1  6
 15 14  1  0
 16 14  1  0
 17 16  1  6
 18  9  1  0
 18 17  1  0
 19 24  1  0
 19 17  1  0
 20 19  2  0
 22 21  1  0
 23 22  1  1
 23 24  1  0
 25 23  1  0
 25 27  1  0
 26 25  2  0
M  END
$$$$
