YLS.pdb
     RDKit          3D

 27 27  0  0  1  0  0  0  0  0999 V2000
   16.9128  -15.2476  -21.7293 O   0  0  0  0  0  0  0  0  0  0  0  0
   17.2122  -14.1873  -20.9111 C   0  0  0  0  0  0  0  0  0  0  0  0
   18.5227  -13.9772  -20.4643 C   0  0  0  0  0  0  0  0  0  0  0  0
   18.8139  -12.9107  -19.6436 C   0  0  0  0  0  0  0  0  0  0  0  0
   17.8234  -12.0415  -19.2540 C   0  0  0  0  0  0  0  0  0  0  0  0
   18.1334  -10.9205  -18.3935 C   0  0  0  0  0  0  0  0  0  0  0  0
   18.6847  -11.2596  -17.0374 C   0  0  2  0  0  0  0  0  0  0  0  0
   17.7051  -12.0774  -16.2908 N   0  0  0  0  0  0  0  0  0  0  0  0
   19.1149  -10.1022  -16.2369 C   0  0  0  0  0  0  0  0  0  0  0  0
   18.2637   -9.5777  -15.4595 O   0  0  0  0  0  0  0  0  0  0  0  0
   16.5280  -12.2332  -19.6844 C   0  0  0  0  0  0  0  0  0  0  0  0
   16.2259  -13.3180  -20.5206 C   0  0  0  0  0  0  0  0  0  0  0  0
   21.2885   -9.2708  -12.4211 C   0  0  0  0  0  0  0  0  0  0  0  0
   22.0534   -9.7382  -13.6019 C   0  0  2  0  0  0  0  0  0  0  0  0
   23.5082  -10.0004  -13.1365 C   0  0  0  0  0  0  0  0  0  0  0  0
   22.1323   -8.8564  -14.7831 C   0  0  0  0  0  0  0  0  0  0  0  0
   20.8560   -8.4394  -15.3898 C   0  0  2  0  0  0  0  0  0  0  0  0
   20.3859   -9.5489  -16.2727 N   0  0  0  0  0  0  0  0  0  0  0  0
   20.8029   -7.2624  -16.2326 C   0  0  0  0  0  0  0  0  0  0  0  0
   21.5435   -7.2218  -17.2835 O   0  0  0  0  0  0  0  0  0  0  0  0
   17.7419   -5.4830  -17.6176 O   0  0  0  0  0  0  0  0  0  0  0  0
   18.5857   -4.4920  -17.1401 C   0  0  0  0  0  0  0  0  0  0  0  0
   20.0274   -4.9965  -16.9995 C   0  0  2  0  0  0  0  0  0  0  0  0
   20.0021   -6.0910  -16.0634 N   0  0  0  0  0  0  0  0  0  0  0  0
   20.8317   -3.8386  -16.6047 C   0  0  0  0  0  0  0  0  0  0  0  0
   21.4412   -3.6755  -15.5402 O   0  0  0  0  0  0  0  0  0  0  0  0
   20.9099   -2.8007  -17.5579 O   0  0  0  0  0  0  0  0  0  0  0  0
  2  1  1  0
  3  2  2  0
  4  3  1  0
  5 11  1  0
  5  4  2  0
  6  5  1  0
  7  9  1  0
  7  6  1  0
  7  8  1  1
  9 10  2  0
 11 12  2  0
 12  2  1  0
 14 13  1  1
 15 14  1  0
 16 14  1  0
 17 16  1  6
 18  9  1  0
 18 17  1  0
 19 24  1  0
 19 17  1  0
 20 19  2  0
 22 21  1  0
 23 22  1  1
 23 24  1  0
 25 23  1  0
 25 27  1  0
 26 25  2  0
M  END
$$$$
