YLS.pdb
     RDKit          3D

 27 27  0  0  1  0  0  0  0  0999 V2000
   15.5918  -14.5323  -16.3486 O   0  0  0  0  0  0  0  0  0  0  0  0
   16.5109  -13.5213  -16.2207 C   0  0  0  0  0  0  0  0  0  0  0  0
   17.0362  -13.1878  -14.9660 C   0  0  0  0  0  0  0  0  0  0  0  0
   17.9579  -12.1719  -14.8470 C   0  0  0  0  0  0  0  0  0  0  0  0
   18.3723  -11.4746  -15.9563 C   0  0  0  0  0  0  0  0  0  0  0  0
   19.3428  -10.4092  -15.8279 C   0  0  0  0  0  0  0  0  0  0  0  0
   20.7052  -10.6824  -16.3999 C   0  0  2  0  0  0  0  0  0  0  0  0
   21.3054  -11.8514  -15.7226 N   0  0  0  0  0  0  0  0  0  0  0  0
   21.6278   -9.5361  -16.3762 C   0  0  0  0  0  0  0  0  0  0  0  0
   22.3347   -9.3735  -15.3381 O   0  0  0  0  0  0  0  0  0  0  0  0
   17.8657  -11.7895  -17.1989 C   0  0  0  0  0  0  0  0  0  0  0  0
   16.9265  -12.8235  -17.3257 C   0  0  0  0  0  0  0  0  0  0  0  0
   25.5409   -8.2770  -18.4000 C   0  0  0  0  0  0  0  0  0  0  0  0
   24.2842   -8.2045  -19.1829 C   0  0  2  0  0  0  0  0  0  0  0  0
   24.6644   -7.8107  -20.6327 C   0  0  0  0  0  0  0  0  0  0  0  0
   23.2346   -7.2643  -18.7433 C   0  0  0  0  0  0  0  0  0  0  0  0
   22.7005   -7.4505  -17.3827 C   0  0  2  0  0  0  0  0  0  0  0  0
   21.7783   -8.6253  -17.4108 N   0  0  0  0  0  0  0  0  0  0  0  0
   21.9246   -6.3993  -16.7571 C   0  0  0  0  0  0  0  0  0  0  0  0
   20.8162   -6.0419  -17.3030 O   0  0  0  0  0  0  0  0  0  0  0  0
   21.4934   -5.5731  -12.8663 O   0  0  0  0  0  0  0  0  0  0  0  0
   20.6269   -5.1416  -13.8587 C   0  0  0  0  0  0  0  0  0  0  0  0
   21.3867   -4.6055  -15.0787 C   0  0  2  0  0  0  0  0  0  0  0  0
   22.2209   -5.6765  -15.5604 N   0  0  0  0  0  0  0  0  0  0  0  0
   22.0900   -3.4026  -14.6294 C   0  0  0  0  0  0  0  0  0  0  0  0
   23.3130   -3.2364  -14.5422 O   0  0  0  0  0  0  0  0  0  0  0  0
   21.2641   -2.3202  -14.2576 O   0  0  0  0  0  0  0  0  0  0  0  0
  2  1  1  0
  3  2  2  0
  4  3  1  0
  5 11  1  0
  5  4  2  0
  6  5  1  0
  7  9  1  0
  7  6  1  0
  7  8  1  1
  9 10  2  0
 11 12  2  0
 12  2  1  0
 14 13  1  1
 15 14  1  0
 16 14  1  0
 17 16  1  6
 18  9  1  0
 18 17  1  0
 19 24  1  0
 19 17  1  0
 20 19  2  0
 22 21  1  0
 23 22  1  1
 23 24  1  0
 25 23  1  0
 25 27  1  0
 26 25  2  0
M  END
$$$$
