YLS.pdb
     RDKit          3D

 27 27  0  0  1  0  0  0  0  0999 V2000
   15.5332  -25.0119  -11.7758 O   0  0  0  0  0  0  0  0  0  0  0  0
   16.5867  -24.1955  -12.1032 C   0  0  0  0  0  0  0  0  0  0  0  0
   17.8599  -24.4219  -11.5656 C   0  0  0  0  0  0  0  0  0  0  0  0
   18.9111  -23.5977  -11.8996 C   0  0  0  0  0  0  0  0  0  0  0  0
   18.7232  -22.5451  -12.7629 C   0  0  0  0  0  0  0  0  0  0  0  0
   19.8306  -21.6825  -13.1135 C   0  0  0  0  0  0  0  0  0  0  0  0
   20.7774  -21.3350  -11.9997 C   0  0  2  0  0  0  0  0  0  0  0  0
   20.0539  -20.5989  -10.9412 N   0  0  0  0  0  0  0  0  0  0  0  0
   21.9807  -20.5980  -12.4173 C   0  0  0  0  0  0  0  0  0  0  0  0
   21.9212  -19.3330  -12.4234 O   0  0  0  0  0  0  0  0  0  0  0  0
   17.4768  -22.3078  -13.3013 C   0  0  0  0  0  0  0  0  0  0  0  0
   16.4025  -23.1443  -12.9645 C   0  0  0  0  0  0  0  0  0  0  0  0
   28.0543  -21.6749  -13.0093 C   0  0  0  0  0  0  0  0  0  0  0  0
   26.8833  -20.8133  -13.2991 C   0  0  2  0  0  0  0  0  0  0  0  0
   27.2032  -19.3988  -12.7527 C   0  0  0  0  0  0  0  0  0  0  0  0
   25.5706  -21.2010  -12.7464 C   0  0  0  0  0  0  0  0  0  0  0  0
   24.3980  -20.4461  -13.2220 C   0  0  2  0  0  0  0  0  0  0  0  0
   23.1737  -21.1915  -12.8014 N   0  0  0  0  0  0  0  0  0  0  0  0
   24.2091  -20.2154  -14.6396 C   0  0  0  0  0  0  0  0  0  0  0  0
   23.9269  -21.2170  -15.3958 O   0  0  0  0  0  0  0  0  0  0  0  0
   24.6859  -16.5739  -16.4237 O   0  0  0  0  0  0  0  0  0  0  0  0
   23.8396  -17.4262  -17.1159 C   0  0  0  0  0  0  0  0  0  0  0  0
   24.1186  -18.8964  -16.7787 C   0  0  2  0  0  0  0  0  0  0  0  0
   24.2836  -18.9778  -15.3501 N   0  0  0  0  0  0  0  0  0  0  0  0
   25.2809  -19.2884  -17.5780 C   0  0  0  0  0  0  0  0  0  0  0  0
   26.3990  -19.6203  -17.1646 O   0  0  0  0  0  0  0  0  0  0  0  0
   25.0864  -19.2812  -18.9759 O   0  0  0  0  0  0  0  0  0  0  0  0
  2  1  1  0
  3  2  2  0
  4  3  1  0
  5 11  1  0
  5  4  2  0
  6  5  1  0
  7  9  1  0
  7  6  1  0
  7  8  1  1
  9 10  2  0
 11 12  2  0
 12  2  1  0
 14 13  1  1
 15 14  1  0
 16 14  1  0
 17 16  1  6
 18  9  1  0
 18 17  1  0
 19 24  1  0
 19 17  1  0
 20 19  2  0
 22 21  1  0
 23 22  1  1
 23 24  1  0
 25 23  1  0
 25 27  1  0
 26 25  2  0
M  END
$$$$
