YLS.pdb
     RDKit          3D

 27 27  0  0  1  0  0  0  0  0999 V2000
   24.4721  -16.8452  -18.5750 O   0  0  0  0  0  0  0  0  0  0  0  0
   24.2084  -17.5634  -17.4358 C   0  0  0  0  0  0  0  0  0  0  0  0
   24.5130  -17.0385  -16.1736 C   0  0  0  0  0  0  0  0  0  0  0  0
   24.2450  -17.7663  -15.0360 C   0  0  0  0  0  0  0  0  0  0  0  0
   23.6764  -19.0141  -15.1258 C   0  0  0  0  0  0  0  0  0  0  0  0
   23.3939  -19.7750  -13.9280 C   0  0  0  0  0  0  0  0  0  0  0  0
   24.5802  -20.1430  -13.0824 C   0  0  2  0  0  0  0  0  0  0  0  0
   25.5393  -20.9318  -13.8847 N   0  0  0  0  0  0  0  0  0  0  0  0
   24.2540  -20.8394  -11.8277 C   0  0  0  0  0  0  0  0  0  0  0  0
   24.0005  -22.0785  -11.8934 O   0  0  0  0  0  0  0  0  0  0  0  0
   23.3700  -19.5460  -16.3598 C   0  0  0  0  0  0  0  0  0  0  0  0
   23.6409  -18.8090  -17.5220 C   0  0  0  0  0  0  0  0  0  0  0  0
   26.7818  -21.5513   -8.0331 C   0  0  0  0  0  0  0  0  0  0  0  0
   26.0886  -20.2600   -8.2555 C   0  0  2  0  0  0  0  0  0  0  0  0
   26.5827  -19.2758   -7.1652 C   0  0  0  0  0  0  0  0  0  0  0  0
   24.6131  -20.2379   -8.2177 C   0  0  0  0  0  0  0  0  0  0  0  0
   23.9081  -20.9449   -9.3012 C   0  0  2  0  0  0  0  0  0  0  0  0
   24.2078  -20.2346  -10.5807 N   0  0  0  0  0  0  0  0  0  0  0  0
   22.4635  -21.0515   -9.2792 C   0  0  0  0  0  0  0  0  0  0  0  0
   21.7632  -20.0016   -9.5277 O   0  0  0  0  0  0  0  0  0  0  0  0
   20.0468  -24.1659  -10.0290 O   0  0  0  0  0  0  0  0  0  0  0  0
   19.5344  -22.8885   -9.8629 C   0  0  0  0  0  0  0  0  0  0  0  0
   20.2568  -22.1310   -8.7417 C   0  0  2  0  0  0  0  0  0  0  0  0
   21.6679  -22.2100   -9.0202 N   0  0  0  0  0  0  0  0  0  0  0  0
   19.8200  -22.7418   -7.4849 C   0  0  0  0  0  0  0  0  0  0  0  0
   20.5282  -23.2862   -6.6286 O   0  0  0  0  0  0  0  0  0  0  0  0
   18.4311  -22.6954   -7.2382 O   0  0  0  0  0  0  0  0  0  0  0  0
  2  1  1  0
  3  2  2  0
  4  3  1  0
  5 11  1  0
  5  4  2  0
  6  5  1  0
  7  9  1  0
  7  6  1  0
  7  8  1  6
  9 10  2  0
 11 12  2  0
 12  2  1  0
 14 13  1  1
 15 14  1  0
 16 14  1  0
 17 16  1  1
 18  9  1  0
 18 17  1  0
 19 24  1  0
 19 17  1  0
 20 19  2  0
 22 21  1  0
 23 22  1  6
 23 24  1  0
 25 23  1  0
 25 27  1  0
 26 25  2  0
M  END
$$$$
