YLS.pdb
     RDKit          3D

 27 27  0  0  1  0  0  0  0  0999 V2000
   16.4631  -22.9584  -12.9362 O   0  0  0  0  0  0  0  0  0  0  0  0
   17.7937  -22.6228  -12.9186 C   0  0  0  0  0  0  0  0  0  0  0  0
   18.5180  -22.6358  -11.7200 C   0  0  0  0  0  0  0  0  0  0  0  0
   19.8527  -22.2976  -11.7118 C   0  0  0  0  0  0  0  0  0  0  0  0
   20.4883  -21.9439  -12.8777 C   0  0  0  0  0  0  0  0  0  0  0  0
   21.8915  -21.5914  -12.8656 C   0  0  0  0  0  0  0  0  0  0  0  0
   22.2381  -20.2756  -12.2281 C   0  0  2  0  0  0  0  0  0  0  0  0
   21.6647  -19.1693  -13.0237 N   0  0  0  0  0  0  0  0  0  0  0  0
   23.6750  -20.0598  -11.9955 C   0  0  0  0  0  0  0  0  0  0  0  0
   24.2797  -19.2565  -12.7655 O   0  0  0  0  0  0  0  0  0  0  0  0
   19.7907  -21.9258  -14.0663 C   0  0  0  0  0  0  0  0  0  0  0  0
   18.4310  -22.2695  -14.0804 C   0  0  0  0  0  0  0  0  0  0  0  0
   28.5147  -20.7639   -9.1069 C   0  0  0  0  0  0  0  0  0  0  0  0
   27.2862  -20.0923   -8.6198 C   0  0  2  0  0  0  0  0  0  0  0  0
   27.1992  -20.3385   -7.0922 C   0  0  0  0  0  0  0  0  0  0  0  0
   25.9882  -20.4964   -9.1950 C   0  0  0  0  0  0  0  0  0  0  0  0
   25.8264  -20.3385  -10.6509 C   0  0  2  0  0  0  0  0  0  0  0  0
   24.4107  -20.6717  -10.9919 N   0  0  0  0  0  0  0  0  0  0  0  0
   26.6146  -21.1444  -11.5608 C   0  0  0  0  0  0  0  0  0  0  0  0
   27.8967  -21.1088  -11.4645 O   0  0  0  0  0  0  0  0  0  0  0  0
   24.9588  -22.6402  -15.0605 O   0  0  0  0  0  0  0  0  0  0  0  0
   26.1096  -23.2786  -14.6246 C   0  0  0  0  0  0  0  0  0  0  0  0
   26.9593  -22.3651  -13.7322 C   0  0  2  0  0  0  0  0  0  0  0  0
   26.1520  -22.0217  -12.5897 N   0  0  0  0  0  0  0  0  0  0  0  0
   27.3815  -21.2444  -14.5743 C   0  0  0  0  0  0  0  0  0  0  0  0
   26.9976  -20.0699  -14.5091 O   0  0  0  0  0  0  0  0  0  0  0  0
   28.3344  -21.5569  -15.5674 O   0  0  0  0  0  0  0  0  0  0  0  0
  2  1  1  0
  3  2  2  0
  4  3  1  0
  5 11  1  0
  5  4  2  0
  6  5  1  0
  7  9  1  0
  7  6  1  0
  7  8  1  6
  9 10  2  0
 11 12  2  0
 12  2  1  0
 14 13  1  6
 15 14  1  0
 16 14  1  0
 17 16  1  1
 18  9  1  0
 18 17  1  0
 19 24  1  0
 19 17  1  0
 20 19  2  0
 22 21  1  0
 23 22  1  6
 23 24  1  0
 25 23  1  0
 25 27  1  0
 26 25  2  0
M  END
$$$$
