YLS.pdb
     RDKit          3D

 27 27  0  0  1  0  0  0  0  0999 V2000
   18.9072   -7.4064  -24.6756 O   0  0  0  0  0  0  0  0  0  0  0  0
   19.3606   -7.5830  -23.3924 C   0  0  0  0  0  0  0  0  0  0  0  0
   18.5272   -7.3211  -22.2978 C   0  0  0  0  0  0  0  0  0  0  0  0
   18.9906   -7.5010  -21.0138 C   0  0  0  0  0  0  0  0  0  0  0  0
   20.2741   -7.9389  -20.7920 C   0  0  0  0  0  0  0  0  0  0  0  0
   20.7569   -8.1291  -19.4414 C   0  0  0  0  0  0  0  0  0  0  0  0
   21.0663   -9.5444  -19.0422 C   0  0  2  0  0  0  0  0  0  0  0  0
   19.8142  -10.3270  -18.9684 N   0  0  0  0  0  0  0  0  0  0  0  0
   21.8404   -9.6816  -17.7982 C   0  0  0  0  0  0  0  0  0  0  0  0
   21.2149  -10.0293  -16.7534 O   0  0  0  0  0  0  0  0  0  0  0  0
   21.1079   -8.2015  -21.8577 C   0  0  0  0  0  0  0  0  0  0  0  0
   20.6410   -8.0200  -23.1677 C   0  0  0  0  0  0  0  0  0  0  0  0
   27.7254  -10.3073  -15.9124 C   0  0  0  0  0  0  0  0  0  0  0  0
   26.2846  -10.1278  -15.6135 C   0  0  2  0  0  0  0  0  0  0  0  0
   25.8211  -11.3680  -14.8082 C   0  0  0  0  0  0  0  0  0  0  0  0
   25.3460   -9.9727  -16.7422 C   0  0  0  0  0  0  0  0  0  0  0  0
   23.9806   -9.5245  -16.4167 C   0  0  2  0  0  0  0  0  0  0  0  0
   23.2051   -9.4596  -17.6917 N   0  0  0  0  0  0  0  0  0  0  0  0
   23.7686   -8.2306  -15.8007 C   0  0  0  0  0  0  0  0  0  0  0  0
   24.1045   -8.0706  -14.5694 O   0  0  0  0  0  0  0  0  0  0  0  0
   21.5488   -5.0747  -17.3151 O   0  0  0  0  0  0  0  0  0  0  0  0
   22.7592   -4.7279  -16.7351 C   0  0  0  0  0  0  0  0  0  0  0  0
   23.2193   -5.7781  -15.7160 C   0  0  2  0  0  0  0  0  0  0  0  0
   23.2254   -7.0492  -16.3936 N   0  0  0  0  0  0  0  0  0  0  0  0
   22.3099   -5.6690  -14.5739 C   0  0  0  0  0  0  0  0  0  0  0  0
   21.5256   -6.5289  -14.1537 O   0  0  0  0  0  0  0  0  0  0  0  0
   22.3448   -4.4371  -13.8859 O   0  0  0  0  0  0  0  0  0  0  0  0
  2  1  1  0
  3  2  2  0
  4  3  1  0
  5 11  1  0
  5  4  2  0
  6  5  1  0
  7  9  1  0
  7  6  1  0
  7  8  1  1
  9 10  2  0
 11 12  2  0
 12  2  1  0
 14 13  1  6
 15 14  1  0
 16 14  1  0
 17 16  1  6
 18  9  1  0
 18 17  1  0
 19 24  1  0
 19 17  1  0
 20 19  2  0
 22 21  1  0
 23 22  1  6
 23 24  1  0
 25 23  1  0
 25 27  1  0
 26 25  2  0
M  END
$$$$
