YLS.pdb
     RDKit          3D

 27 27  0  0  1  0  0  0  0  0999 V2000
   11.9698  -11.6232  -18.8563 O   0  0  0  0  0  0  0  0  0  0  0  0
   13.0685  -11.0933  -18.2276 C   0  0  0  0  0  0  0  0  0  0  0  0
   12.9225  -10.2909  -17.0891 C   0  0  0  0  0  0  0  0  0  0  0  0
   14.0306   -9.7634  -16.4648 C   0  0  0  0  0  0  0  0  0  0  0  0
   15.2905  -10.0178  -16.9509 C   0  0  0  0  0  0  0  0  0  0  0  0
   16.4527   -9.4638  -16.2909 C   0  0  0  0  0  0  0  0  0  0  0  0
   17.2305  -10.4073  -15.4176 C   0  0  2  0  0  0  0  0  0  0  0  0
   16.3395  -10.9836  -14.3882 N   0  0  0  0  0  0  0  0  0  0  0  0
   18.4345   -9.8290  -14.7999 C   0  0  0  0  0  0  0  0  0  0  0  0
   18.3048   -9.2747  -13.6686 O   0  0  0  0  0  0  0  0  0  0  0  0
   15.4526  -10.8054  -18.0704 C   0  0  0  0  0  0  0  0  0  0  0  0
   14.3273  -11.3453  -18.7102 C   0  0  0  0  0  0  0  0  0  0  0  0
   23.9855   -8.5447  -14.9777 C   0  0  0  0  0  0  0  0  0  0  0  0
   23.3481   -9.7552  -14.4067 C   0  0  2  0  0  0  0  0  0  0  0  0
   24.3226  -10.9395  -14.6286 C   0  0  0  0  0  0  0  0  0  0  0  0
   22.0349  -10.1743  -14.9346 C   0  0  0  0  0  0  0  0  0  0  0  0
   20.9156   -9.2317  -14.7619 C   0  0  2  0  0  0  0  0  0  0  0  0
   19.6991   -9.8513  -15.3684 N   0  0  0  0  0  0  0  0  0  0  0  0
   20.9801   -7.9115  -15.3547 C   0  0  0  0  0  0  0  0  0  0  0  0
   21.0295   -7.8120  -16.6361 O   0  0  0  0  0  0  0  0  0  0  0  0
   19.4473   -4.4955  -14.0373 O   0  0  0  0  0  0  0  0  0  0  0  0
   19.9301   -4.5972  -15.3329 C   0  0  0  0  0  0  0  0  0  0  0  0
   21.2300   -5.4095  -15.3896 C   0  0  2  0  0  0  0  0  0  0  0  0
   20.9860   -6.6456  -14.6916 N   0  0  0  0  0  0  0  0  0  0  0  0
   22.2748   -4.5538  -14.8243 C   0  0  0  0  0  0  0  0  0  0  0  0
   22.9464   -4.7619  -13.8061 O   0  0  0  0  0  0  0  0  0  0  0  0
   22.5319   -3.3609  -15.5335 O   0  0  0  0  0  0  0  0  0  0  0  0
  2  1  1  0
  3  2  2  0
  4  3  1  0
  5 11  1  0
  5  4  2  0
  6  5  1  0
  7  9  1  0
  7  6  1  0
  7  8  1  1
  9 10  2  0
 11 12  2  0
 12  2  1  0
 14 13  1  6
 15 14  1  0
 16 14  1  0
 17 16  1  6
 18  9  1  0
 18 17  1  0
 19 24  1  0
 19 17  1  0
 20 19  2  0
 22 21  1  0
 23 22  1  1
 23 24  1  0
 25 23  1  0
 25 27  1  0
 26 25  2  0
M  END
$$$$
