YLS.pdb
     RDKit          3D

 27 27  0  0  1  0  0  0  0  0999 V2000
   15.6817  -13.9840  -17.9639 O   0  0  0  0  0  0  0  0  0  0  0  0
   16.3609  -12.9010  -17.4647 C   0  0  0  0  0  0  0  0  0  0  0  0
   16.7239  -11.8378  -18.3009 C   0  0  0  0  0  0  0  0  0  0  0  0
   17.4052  -10.7552  -17.7914 C   0  0  0  0  0  0  0  0  0  0  0  0
   17.7363  -10.7056  -16.4586 C   0  0  0  0  0  0  0  0  0  0  0  0
   18.4501   -9.5653  -15.9262 C   0  0  0  0  0  0  0  0  0  0  0  0
   19.9475   -9.6075  -16.0445 C   0  0  2  0  0  0  0  0  0  0  0  0
   20.4752  -10.7643  -15.2901 N   0  0  0  0  0  0  0  0  0  0  0  0
   20.6351   -8.3688  -15.6467 C   0  0  0  0  0  0  0  0  0  0  0  0
   20.8187   -8.1711  -14.4094 O   0  0  0  0  0  0  0  0  0  0  0  0
   17.3868  -11.7432  -15.6213 C   0  0  0  0  0  0  0  0  0  0  0  0
   16.6927  -12.8484  -16.1351 C   0  0  0  0  0  0  0  0  0  0  0  0
   25.1557   -4.8343  -17.6340 C   0  0  0  0  0  0  0  0  0  0  0  0
   23.9323   -4.9347  -16.8028 C   0  0  2  0  0  0  0  0  0  0  0  0
   24.3693   -4.8179  -15.3206 C   0  0  0  0  0  0  0  0  0  0  0  0
   23.1053   -6.1525  -16.9125 C   0  0  0  0  0  0  0  0  0  0  0  0
   21.8535   -6.1801  -16.1358 C   0  0  2  0  0  0  0  0  0  0  0  0
   21.0975   -7.4062  -16.5314 N   0  0  0  0  0  0  0  0  0  0  0  0
   20.8915   -5.1055  -16.2705 C   0  0  0  0  0  0  0  0  0  0  0  0
   20.4880   -4.7823  -17.4483 O   0  0  0  0  0  0  0  0  0  0  0  0
   17.5240   -4.6520  -14.8639 O   0  0  0  0  0  0  0  0  0  0  0  0
   18.1557   -3.4443  -14.6100 C   0  0  0  0  0  0  0  0  0  0  0  0
   19.3782   -3.2447  -15.5148 C   0  0  2  0  0  0  0  0  0  0  0  0
   20.2902   -4.3242  -15.2360 N   0  0  0  0  0  0  0  0  0  0  0  0
   19.8805   -1.8979  -15.2364 C   0  0  0  0  0  0  0  0  0  0  0  0
   20.9994   -1.5873  -14.8090 O   0  0  0  0  0  0  0  0  0  0  0  0
   18.9727   -0.8474  -15.4897 O   0  0  0  0  0  0  0  0  0  0  0  0
  2  1  1  0
  3  2  2  0
  4  3  1  0
  5 11  1  0
  5  4  2  0
  6  5  1  0
  7  9  1  0
  7  6  1  0
  7  8  1  1
  9 10  2  0
 11 12  2  0
 12  2  1  0
 14 13  1  6
 15 14  1  0
 16 14  1  0
 17 16  1  6
 18  9  1  0
 18 17  1  0
 19 24  1  0
 19 17  1  0
 20 19  2  0
 22 21  1  0
 23 22  1  1
 23 24  1  0
 25 23  1  0
 25 27  1  0
 26 25  2  0
M  END
$$$$
