YLS.pdb
     RDKit          3D

 27 27  0  0  1  0  0  0  0  0999 V2000
   16.1281  -24.6207  -17.0901 O   0  0  0  0  0  0  0  0  0  0  0  0
   17.1068  -23.7868  -16.6104 C   0  0  0  0  0  0  0  0  0  0  0  0
   18.4120  -24.2554  -16.4148 C   0  0  0  0  0  0  0  0  0  0  0  0
   19.3876  -23.4116  -15.9331 C   0  0  0  0  0  0  0  0  0  0  0  0
   19.0923  -22.1021  -15.6392 C   0  0  0  0  0  0  0  0  0  0  0  0
   20.1206  -21.2176  -15.1355 C   0  0  0  0  0  0  0  0  0  0  0  0
   20.5635  -21.4561  -13.7196 C   0  0  2  0  0  0  0  0  0  0  0  0
   19.4766  -21.0867  -12.7879 N   0  0  0  0  0  0  0  0  0  0  0  0
   21.8207  -20.7900  -13.3437 C   0  0  0  0  0  0  0  0  0  0  0  0
   21.7470  -19.6075  -12.8962 O   0  0  0  0  0  0  0  0  0  0  0  0
   17.8130  -21.6242  -15.8259 C   0  0  0  0  0  0  0  0  0  0  0  0
   16.8154  -22.4794  -16.3163 C   0  0  0  0  0  0  0  0  0  0  0  0
   27.2251  -21.8753  -10.8221 C   0  0  0  0  0  0  0  0  0  0  0  0
   26.4057  -21.0054  -11.6993 C   0  0  2  0  0  0  0  0  0  0  0  0
   26.1815  -19.6694  -10.9467 C   0  0  0  0  0  0  0  0  0  0  0  0
   25.0770  -21.4873  -12.1249 C   0  0  0  0  0  0  0  0  0  0  0  0
   24.3606  -20.6726  -13.1219 C   0  0  2  0  0  0  0  0  0  0  0  0
   23.0776  -21.3672  -13.4427 N   0  0  0  0  0  0  0  0  0  0  0  0
   24.9613  -20.4124  -14.4142 C   0  0  0  0  0  0  0  0  0  0  0  0
   25.0371  -21.3744  -15.2646 O   0  0  0  0  0  0  0  0  0  0  0  0
   27.3567  -17.2082  -15.3015 O   0  0  0  0  0  0  0  0  0  0  0  0
   26.5676  -17.6175  -16.3653 C   0  0  0  0  0  0  0  0  0  0  0  0
   26.1130  -19.0737  -16.2045 C   0  0  2  0  0  0  0  0  0  0  0  0
   25.4966  -19.1825  -14.9072 N   0  0  0  0  0  0  0  0  0  0  0  0
   27.3018  -19.9016  -16.4167 C   0  0  0  0  0  0  0  0  0  0  0  0
   27.8909  -20.5979  -15.5806 O   0  0  0  0  0  0  0  0  0  0  0  0
   27.8211  -19.8926  -17.7291 O   0  0  0  0  0  0  0  0  0  0  0  0
  2  1  1  0
  3  2  2  0
  4  3  1  0
  5 11  1  0
  5  4  2  0
  6  5  1  0
  7  9  1  0
  7  6  1  0
  7  8  1  1
  9 10  2  0
 11 12  2  0
 12  2  1  0
 14 13  1  1
 15 14  1  0
 16 14  1  0
 17 16  1  1
 18  9  1  0
 18 17  1  0
 19 24  1  0
 19 17  1  0
 20 19  2  0
 22 21  1  0
 23 22  1  1
 23 24  1  0
 25 23  1  0
 25 27  1  0
 26 25  2  0
M  END
$$$$
