YLS.pdb
     RDKit          3D

 27 27  0  0  1  0  0  0  0  0999 V2000
   17.8749  -14.7787  -15.8947 O   0  0  0  0  0  0  0  0  0  0  0  0
   17.5079  -13.5602  -15.3812 C   0  0  0  0  0  0  0  0  0  0  0  0
   16.5572  -12.7663  -16.0349 C   0  0  0  0  0  0  0  0  0  0  0  0
   16.1950  -11.5450  -15.5125 C   0  0  0  0  0  0  0  0  0  0  0  0
   16.7614  -11.0916  -14.3454 C   0  0  0  0  0  0  0  0  0  0  0  0
   16.3766   -9.8088  -13.7980 C   0  0  0  0  0  0  0  0  0  0  0  0
   15.3564   -9.8388  -12.6952 C   0  0  2  0  0  0  0  0  0  0  0  0
   14.1188  -10.4876  -13.1780 N   0  0  0  0  0  0  0  0  0  0  0  0
   15.0575   -8.5300  -12.0926 C   0  0  0  0  0  0  0  0  0  0  0  0
   14.1391   -7.8366  -12.6215 O   0  0  0  0  0  0  0  0  0  0  0  0
   17.6986  -11.8599  -13.6888 C   0  0  0  0  0  0  0  0  0  0  0  0
   18.0712  -13.1049  -14.2166 C   0  0  0  0  0  0  0  0  0  0  0  0
   13.2243   -6.1119   -8.2281 C   0  0  0  0  0  0  0  0  0  0  0  0
   14.3508   -7.0690   -8.1164 C   0  0  2  0  0  0  0  0  0  0  0  0
   14.7800   -7.1065   -6.6277 C   0  0  0  0  0  0  0  0  0  0  0  0
   15.5700   -6.8162   -8.9091 C   0  0  0  0  0  0  0  0  0  0  0  0
   15.4013   -6.6815  -10.3666 C   0  0  2  0  0  0  0  0  0  0  0  0
   15.7086   -8.0055  -10.9863 N   0  0  0  0  0  0  0  0  0  0  0  0
   16.2153   -5.7401  -11.1079 C   0  0  0  0  0  0  0  0  0  0  0  0
   17.4876   -5.9243  -11.1511 O   0  0  0  0  0  0  0  0  0  0  0  0
   15.1298   -3.7817  -14.3597 O   0  0  0  0  0  0  0  0  0  0  0  0
   16.4700   -3.9256  -14.0354 C   0  0  0  0  0  0  0  0  0  0  0  0
   16.7125   -3.7291  -12.5336 C   0  0  2  0  0  0  0  0  0  0  0  0
   15.7884   -4.5899  -11.8407 N   0  0  0  0  0  0  0  0  0  0  0  0
   16.5630   -2.2955  -12.2769 C   0  0  0  0  0  0  0  0  0  0  0  0
   15.6973   -1.7424  -11.5872 O   0  0  0  0  0  0  0  0  0  0  0  0
   17.5235   -1.4653  -12.8935 O   0  0  0  0  0  0  0  0  0  0  0  0
  2  1  1  0
  3  2  2  0
  4  3  1  0
  5 11  1  0
  5  4  2  0
  6  5  1  0
  7  9  1  0
  7  6  1  0
  7  8  1  6
  9 10  2  0
 11 12  2  0
 12  2  1  0
 14 13  1  1
 15 14  1  0
 16 14  1  0
 17 16  1  1
 18  9  1  0
 18 17  1  0
 19 24  1  0
 19 17  1  0
 20 19  2  0
 22 21  1  0
 23 22  1  6
 23 24  1  0
 25 23  1  0
 25 27  1  0
 26 25  2  0
M  END
$$$$
