YLS.pdb
     RDKit          3D

 27 27  0  0  1  0  0  0  0  0999 V2000
   17.5355  -11.9302  -22.0544 O   0  0  0  0  0  0  0  0  0  0  0  0
   17.5822  -11.0693  -20.9868 C   0  0  0  0  0  0  0  0  0  0  0  0
   16.8619  -11.3419  -19.8170 C   0  0  0  0  0  0  0  0  0  0  0  0
   16.9145  -10.4724  -18.7508 C   0  0  0  0  0  0  0  0  0  0  0  0
   17.6733   -9.3289  -18.8219 C   0  0  0  0  0  0  0  0  0  0  0  0
   17.7282   -8.4186  -17.6986 C   0  0  0  0  0  0  0  0  0  0  0  0
   19.0331   -8.3622  -16.9556 C   0  0  2  0  0  0  0  0  0  0  0  0
   19.3131   -9.6762  -16.3385 N   0  0  0  0  0  0  0  0  0  0  0  0
   19.1305   -7.2862  -15.9564 C   0  0  0  0  0  0  0  0  0  0  0  0
   18.7287   -7.5379  -14.7821 O   0  0  0  0  0  0  0  0  0  0  0  0
   18.3886   -9.0449  -19.9654 C   0  0  0  0  0  0  0  0  0  0  0  0
   18.3385   -9.9273  -21.0546 C   0  0  0  0  0  0  0  0  0  0  0  0
   21.7307   -5.0686  -12.8218 C   0  0  0  0  0  0  0  0  0  0  0  0
   22.0044   -5.0802  -14.2787 C   0  0  2  0  0  0  0  0  0  0  0  0
   23.3916   -4.4237  -14.4941 C   0  0  0  0  0  0  0  0  0  0  0  0
   21.0583   -4.3908  -15.1779 C   0  0  0  0  0  0  0  0  0  0  0  0
   19.6784   -4.9062  -15.2152 C   0  0  2  0  0  0  0  0  0  0  0  0
   19.6334   -6.0191  -16.2106 N   0  0  0  0  0  0  0  0  0  0  0  0
   18.5878   -4.0344  -15.6012 C   0  0  0  0  0  0  0  0  0  0  0  0
   18.5231   -3.6294  -16.8203 O   0  0  0  0  0  0  0  0  0  0  0  0
   14.1475   -2.2242  -15.0531 O   0  0  0  0  0  0  0  0  0  0  0  0
   15.2081   -2.9692  -14.5610 C   0  0  0  0  0  0  0  0  0  0  0  0
   16.5159   -2.6430  -15.2932 C   0  0  2  0  0  0  0  0  0  0  0  0
   17.5185   -3.5458  -14.7887 N   0  0  0  0  0  0  0  0  0  0  0  0
   16.7693   -1.2187  -15.0678 C   0  0  0  0  0  0  0  0  0  0  0  0
   17.4191   -0.7082  -14.1468 O   0  0  0  0  0  0  0  0  0  0  0  0
   16.2008   -0.3435  -16.0180 O   0  0  0  0  0  0  0  0  0  0  0  0
  2  1  1  0
  3  2  2  0
  4  3  1  0
  5 11  1  0
  5  4  2  0
  6  5  1  0
  7  9  1  0
  7  6  1  0
  7  8  1  1
  9 10  2  0
 11 12  2  0
 12  2  1  0
 14 13  1  1
 15 14  1  0
 16 14  1  0
 17 16  1  6
 18  9  1  0
 18 17  1  0
 19 24  1  0
 19 17  1  0
 20 19  2  0
 22 21  1  0
 23 22  1  1
 23 24  1  0
 25 23  1  0
 25 27  1  0
 26 25  2  0
M  END
$$$$
