MST.pdb
     RDKit          3D

 22 21  0  0  1  0  0  0  0  0999 V2000
   21.2347  -19.3080  -14.2715 C   0  0  0  0  0  0  0  0  0  0  0  0
   21.5875  -17.5221  -14.4746 S   0  0  0  0  0  0  0  0  0  0  0  0
   22.2164  -17.2915  -16.1437 C   0  0  0  0  0  0  0  0  0  0  0  0
   22.6333  -15.8355  -16.3833 C   0  0  0  0  0  0  0  0  0  0  0  0
   21.3954  -14.9960  -16.1567 C   0  0  2  0  0  0  0  0  0  0  0  0
   20.3128  -15.6306  -16.8736 N   0  0  0  0  0  0  0  0  0  0  0  0
   21.5532  -13.6150  -16.6122 C   0  0  0  0  0  0  0  0  0  0  0  0
   22.6537  -13.0034  -16.6579 O   0  0  0  0  0  0  0  0  0  0  0  0
   18.1706  -11.7598  -17.7160 O   0  0  0  0  0  0  0  0  0  0  0  0
   19.2825  -11.3761  -18.4843 C   0  0  0  0  0  0  0  0  0  0  0  0
   20.4899  -11.5424  -17.5515 C   0  0  2  0  0  0  0  0  0  0  0  0
   20.4089  -12.8917  -17.0369 N   0  0  0  0  0  0  0  0  0  0  0  0
   20.4019  -10.6039  -16.4115 C   0  0  0  0  0  0  0  0  0  0  0  0
   19.7262  -10.9231  -15.4112 O   0  0  0  0  0  0  0  0  0  0  0  0
   23.0940   -9.4402  -14.2658 C   0  0  0  0  0  0  0  0  0  0  0  0
   22.3732   -8.2109  -14.7162 C   0  0  1  0  0  0  0  0  0  0  0  0
   23.1302   -7.5931  -15.7045 O   0  0  0  0  0  0  0  0  0  0  0  0
   20.9758   -8.5297  -15.2070 C   0  0  2  0  0  0  0  0  0  0  0  0
   21.0533   -9.3435  -16.3947 N   0  0  0  0  0  0  0  0  0  0  0  0
   20.1788   -7.3110  -15.3966 C   0  0  0  0  0  0  0  0  0  0  0  0
   19.7285   -6.9619  -16.5167 O   0  0  0  0  0  0  0  0  0  0  0  0
   19.9024   -6.5012  -14.3083 O   0  0  0  0  0  0  0  0  0  0  0  0
  2  1  1  0
  3  2  1  0
  3  4  1  0
  4  5  1  0
  5  7  1  0
  5  6  1  6
  7 12  1  0
  7  8  2  0
  9 10  1  0
 11 10  1  6
 11 13  1  0
 12 11  1  0
 13 14  2  0
 16 15  1  6
 16 18  1  0
 16 17  1  0
 18 20  1  0
 19 13  1  0
 18 19  1  6
 20 22  1  0
 21 20  2  0
M  END
$$$$
