MST.pdb
     RDKit          3D

 22 21  0  0  1  0  0  0  0  0999 V2000
   21.0614  -18.7871  -19.3564 C   0  0  0  0  0  0  0  0  0  0  0  0
   19.6759  -17.5959  -19.2276 S   0  0  0  0  0  0  0  0  0  0  0  0
   20.3780  -15.9468  -19.3760 C   0  0  0  0  0  0  0  0  0  0  0  0
   20.3598  -15.2127  -18.0300 C   0  0  0  0  0  0  0  0  0  0  0  0
   21.8038  -14.9264  -17.6822 C   0  0  2  0  0  0  0  0  0  0  0  0
   22.4575  -16.2013  -17.4921 N   0  0  0  0  0  0  0  0  0  0  0  0
   21.9477  -14.1079  -16.4784 C   0  0  0  0  0  0  0  0  0  0  0  0
   21.8725  -14.5544  -15.3027 O   0  0  0  0  0  0  0  0  0  0  0  0
   24.4504  -11.4041  -16.4016 O   0  0  0  0  0  0  0  0  0  0  0  0
   23.8617  -11.8018  -15.1896 C   0  0  0  0  0  0  0  0  0  0  0  0
   22.3537  -11.8429  -15.4718 C   0  0  2  0  0  0  0  0  0  0  0  0
   22.1887  -12.7163  -16.6128 N   0  0  0  0  0  0  0  0  0  0  0  0
   21.8546  -10.4995  -15.8385 C   0  0  0  0  0  0  0  0  0  0  0  0
   22.0876  -10.0549  -16.9819 O   0  0  0  0  0  0  0  0  0  0  0  0
   18.4246   -9.1035  -16.0259 C   0  0  0  0  0  0  0  0  0  0  0  0
   19.2237   -8.1885  -15.1553 C   0  0  1  0  0  0  0  0  0  0  0  0
   18.8768   -8.4258  -13.8306 O   0  0  0  0  0  0  0  0  0  0  0  0
   20.7122   -8.3629  -15.3777 C   0  0  2  0  0  0  0  0  0  0  0  0
   21.1155   -9.6788  -14.9479 N   0  0  0  0  0  0  0  0  0  0  0  0
   21.4832   -7.2885  -14.7391 C   0  0  0  0  0  0  0  0  0  0  0  0
   22.3105   -7.5023  -13.8176 O   0  0  0  0  0  0  0  0  0  0  0  0
   21.3043   -5.9807  -15.1563 O   0  0  0  0  0  0  0  0  0  0  0  0
  2  1  1  0
  3  2  1  0
  3  4  1  0
  4  5  1  0
  5  7  1  0
  5  6  1  1
  7 12  1  0
  7  8  2  0
  9 10  1  0
 11 10  1  6
 11 13  1  0
 12 11  1  0
 13 14  2  0
 16 15  1  6
 16 18  1  0
 16 17  1  0
 18 20  1  0
 19 13  1  0
 18 19  1  1
 20 22  1  0
 21 20  2  0
M  END
$$$$
