MST.pdb
     RDKit          3D

 22 21  0  0  1  0  0  0  0  0999 V2000
   21.3973  -13.3328  -17.1646 C   0  0  0  0  0  0  0  0  0  0  0  0
   20.7169  -11.9065  -16.2384 S   0  0  0  0  0  0  0  0  0  0  0  0
   19.0022  -12.2912  -15.8556 C   0  0  0  0  0  0  0  0  0  0  0  0
   18.3375  -11.1488  -15.0782 C   0  0  0  0  0  0  0  0  0  0  0  0
   16.9083  -11.5781  -14.8306 C   0  0  2  0  0  0  0  0  0  0  0  0
   16.2981  -11.7946  -16.1228 N   0  0  0  0  0  0  0  0  0  0  0  0
   16.1395  -10.5887  -14.0758 C   0  0  0  0  0  0  0  0  0  0  0  0
   15.5129   -9.6279  -14.5968 O   0  0  0  0  0  0  0  0  0  0  0  0
   15.3737  -11.7942  -10.5921 O   0  0  0  0  0  0  0  0  0  0  0  0
   14.4665  -10.7705  -10.9129 C   0  0  0  0  0  0  0  0  0  0  0  0
   15.2355   -9.8359  -11.8567 C   0  0  2  0  0  0  0  0  0  0  0  0
   16.0774  -10.6927  -12.6622 N   0  0  0  0  0  0  0  0  0  0  0  0
   16.1053   -8.9186  -11.0883 C   0  0  0  0  0  0  0  0  0  0  0  0
   17.1361   -9.3688  -10.5462 O   0  0  0  0  0  0  0  0  0  0  0  0
   17.8900   -5.9140  -12.2783 C   0  0  0  0  0  0  0  0  0  0  0  0
   17.1392   -5.5100  -11.0509 C   0  0  1  0  0  0  0  0  0  0  0  0
   16.0183   -4.7854  -11.4383 O   0  0  0  0  0  0  0  0  0  0  0  0
   16.7587   -6.7096  -10.2074 C   0  0  2  0  0  0  0  0  0  0  0  0
   15.8263   -7.5362  -10.9330 N   0  0  0  0  0  0  0  0  0  0  0  0
   16.2606   -6.3050   -8.8866 C   0  0  0  0  0  0  0  0  0  0  0  0
   15.0716   -6.4894   -8.5239 O   0  0  0  0  0  0  0  0  0  0  0  0
   17.1218   -5.6940   -7.9912 O   0  0  0  0  0  0  0  0  0  0  0  0
  2  1  1  0
  3  2  1  0
  3  4  1  0
  4  5  1  0
  5  7  1  0
  5  6  1  6
  7 12  1  0
  7  8  2  0
  9 10  1  0
 11 10  1  1
 11 13  1  0
 12 11  1  0
 13 14  2  0
 16 15  1  6
 16 18  1  0
 16 17  1  0
 18 20  1  0
 19 13  1  0
 18 19  1  6
 20 22  1  0
 21 20  2  0
M  END
$$$$
