MST.pdb
     RDKit          3D

 22 21  0  0  1  0  0  0  0  0999 V2000
   21.5833  -10.9450    5.8649 C   0  0  0  0  0  0  0  0  0  0  0  0
   20.3567  -12.1873    6.4193 S   0  0  0  0  0  0  0  0  0  0  0  0
   19.2300  -12.4705    5.0464 C   0  0  0  0  0  0  0  0  0  0  0  0
   18.2575  -13.6154    5.3538 C   0  0  0  0  0  0  0  0  0  0  0  0
   17.3131  -13.6992    4.1750 C   0  0  2  0  0  0  0  0  0  0  0  0
   16.5007  -12.5041    4.1938 N   0  0  0  0  0  0  0  0  0  0  0  0
   16.4571  -14.8847    4.2148 C   0  0  0  0  0  0  0  0  0  0  0  0
   15.3627  -14.9500    4.8355 O   0  0  0  0  0  0  0  0  0  0  0  0
   17.7238  -17.9708    2.0131 O   0  0  0  0  0  0  0  0  0  0  0  0
   16.3241  -17.8861    2.0992 C   0  0  0  0  0  0  0  0  0  0  0  0
   16.0453  -17.2465    3.4662 C   0  0  2  0  0  0  0  0  0  0  0  0
   16.8602  -16.0527    3.5177 N   0  0  0  0  0  0  0  0  0  0  0  0
   16.4702  -18.1472    4.5601 C   0  0  0  0  0  0  0  0  0  0  0  0
   17.6842  -18.2354    4.8388 O   0  0  0  0  0  0  0  0  0  0  0  0
   15.5623  -20.7270    8.5973 C   0  0  0  0  0  0  0  0  0  0  0  0
   15.0067  -20.0374    7.3934 C   0  0  1  0  0  0  0  0  0  0  0  0
   14.4265  -18.8414    7.7989 O   0  0  0  0  0  0  0  0  0  0  0  0
   16.0703  -19.8076    6.3394 C   0  0  2  0  0  0  0  0  0  0  0  0
   15.5591  -18.9261    5.3192 N   0  0  0  0  0  0  0  0  0  0  0  0
   16.5798  -21.0752    5.8007 C   0  0  0  0  0  0  0  0  0  0  0  0
   16.0284  -21.6771    4.8453 O   0  0  0  0  0  0  0  0  0  0  0  0
   17.7127  -21.6452    6.3558 O   0  0  0  0  0  0  0  0  0  0  0  0
  2  1  1  0
  3  2  1  0
  3  4  1  0
  4  5  1  0
  5  7  1  0
  5  6  1  1
  7 12  1  0
  7  8  2  0
  9 10  1  0
 11 10  1  6
 11 13  1  0
 12 11  1  0
 13 14  2  0
 16 15  1  1
 16 18  1  0
 16 17  1  0
 18 20  1  0
 19 13  1  0
 18 19  1  6
 20 22  1  0
 21 20  2  0
M  END
$$$$
