MST.pdb
     RDKit          3D

 22 21  0  0  1  0  0  0  0  0999 V2000
   11.7559   -9.0525   -8.0773 C   0  0  0  0  0  0  0  0  0  0  0  0
   13.5052   -9.0576   -8.6207 S   0  0  0  0  0  0  0  0  0  0  0  0
   13.5191   -9.5079  -10.3618 C   0  0  0  0  0  0  0  0  0  0  0  0
   14.9528   -9.6431  -10.8885 C   0  0  0  0  0  0  0  0  0  0  0  0
   14.8358  -10.0710  -12.3348 C   0  0  2  0  0  0  0  0  0  0  0  0
   14.7086  -11.5106  -12.3446 N   0  0  0  0  0  0  0  0  0  0  0  0
   15.9863   -9.6666  -13.1426 C   0  0  0  0  0  0  0  0  0  0  0  0
   16.8898  -10.4520  -13.5353 O   0  0  0  0  0  0  0  0  0  0  0  0
   15.8205   -5.9072  -14.3638 O   0  0  0  0  0  0  0  0  0  0  0  0
   16.3754   -6.7706  -15.3232 C   0  0  0  0  0  0  0  0  0  0  0  0
   17.0792   -7.8685  -14.5140 C   0  0  2  0  0  0  0  0  0  0  0  0
   16.1198   -8.3067  -13.5244 N   0  0  0  0  0  0  0  0  0  0  0  0
   18.2586   -7.3217  -13.8082 C   0  0  0  0  0  0  0  0  0  0  0  0
   18.1188   -6.8616  -12.6558 O   0  0  0  0  0  0  0  0  0  0  0  0
   21.5893   -8.8554  -12.9141 C   0  0  0  0  0  0  0  0  0  0  0  0
   21.8452   -7.5834  -13.6559 C   0  0  1  0  0  0  0  0  0  0  0  0
   22.2300   -7.8994  -14.9534 O   0  0  0  0  0  0  0  0  0  0  0  0
   20.6329   -6.6749  -13.6435 C   0  0  2  0  0  0  0  0  0  0  0  0
   19.5572   -7.2922  -14.3790 N   0  0  0  0  0  0  0  0  0  0  0  0
   20.9620   -5.3285  -14.1287 C   0  0  0  0  0  0  0  0  0  0  0  0
   20.4485   -4.8359  -15.1645 O   0  0  0  0  0  0  0  0  0  0  0  0
   21.8731   -4.5558  -13.4291 O   0  0  0  0  0  0  0  0  0  0  0  0
  2  1  1  0
  3  2  1  0
  3  4  1  0
  4  5  1  0
  5  7  1  0
  5  6  1  1
  7 12  1  0
  7  8  2  0
  9 10  1  0
 11 10  1  6
 11 13  1  0
 12 11  1  0
 13 14  2  0
 16 15  1  1
 16 18  1  0
 16 17  1  0
 18 20  1  0
 19 13  1  0
 18 19  1  6
 20 22  1  0
 21 20  2  0
M  END
$$$$
