MST.pdb
     RDKit          3D

 22 21  0  0  1  0  0  0  0  0999 V2000
   12.2703  -12.4042  -13.6092 C   0  0  0  0  0  0  0  0  0  0  0  0
   13.2989  -13.6013  -14.5388 S   0  0  0  0  0  0  0  0  0  0  0  0
   14.7419  -12.7096  -15.1367 C   0  0  0  0  0  0  0  0  0  0  0  0
   15.6401  -12.2658  -13.9759 C   0  0  0  0  0  0  0  0  0  0  0  0
   16.7897  -11.5026  -14.5957 C   0  0  2  0  0  0  0  0  0  0  0  0
   17.7811  -12.4753  -14.9954 N   0  0  0  0  0  0  0  0  0  0  0  0
   17.3862  -10.5299  -13.6803 C   0  0  0  0  0  0  0  0  0  0  0  0
   18.1866  -10.8251  -12.7532 O   0  0  0  0  0  0  0  0  0  0  0  0
   18.9254   -6.1632  -13.2011 O   0  0  0  0  0  0  0  0  0  0  0  0
   18.3285   -7.1512  -14.0020 C   0  0  0  0  0  0  0  0  0  0  0  0
   17.6732   -8.1255  -13.0136 C   0  0  2  0  0  0  0  0  0  0  0  0
   17.0605   -9.1564  -13.8221 N   0  0  0  0  0  0  0  0  0  0  0  0
   16.6099   -7.4477  -12.2402 C   0  0  0  0  0  0  0  0  0  0  0  0
   15.4738   -7.3270  -12.7439 O   0  0  0  0  0  0  0  0  0  0  0  0
   15.1369   -7.8287   -8.5727 C   0  0  0  0  0  0  0  0  0  0  0  0
   15.7158   -6.4756   -8.8331 C   0  0  1  0  0  0  0  0  0  0  0  0
   16.9824   -6.4210   -8.2637 O   0  0  0  0  0  0  0  0  0  0  0  0
   15.7606   -6.1618  -10.3146 C   0  0  2  0  0  0  0  0  0  0  0  0
   16.8157   -6.9207  -10.9390 N   0  0  0  0  0  0  0  0  0  0  0  0
   15.8702   -4.7177  -10.5577 C   0  0  0  0  0  0  0  0  0  0  0  0
   16.8662   -4.1979  -11.1209 O   0  0  0  0  0  0  0  0  0  0  0  0
   14.8441   -3.8793  -10.1568 O   0  0  0  0  0  0  0  0  0  0  0  0
  2  1  1  0
  3  2  1  0
  3  4  1  0
  4  5  1  0
  5  7  1  0
  5  6  1  1
  7 12  1  0
  7  8  2  0
  9 10  1  0
 11 10  1  6
 11 13  1  0
 12 11  1  0
 13 14  2  0
 16 15  1  6
 16 18  1  0
 16 17  1  0
 18 20  1  0
 19 13  1  0
 18 19  1  1
 20 22  1  0
 21 20  2  0
M  END
$$$$
