MST.pdb
     RDKit          3D

 22 21  0  0  1  0  0  0  0  0999 V2000
   11.3312  -14.0835  -16.7850 C   0  0  0  0  0  0  0  0  0  0  0  0
   12.1740  -12.8854  -15.6853 S   0  0  0  0  0  0  0  0  0  0  0  0
   13.9353  -12.9935  -16.0328 C   0  0  0  0  0  0  0  0  0  0  0  0
   14.7502  -12.1661  -15.0315 C   0  0  0  0  0  0  0  0  0  0  0  0
   16.1929  -12.2609  -15.4763 C   0  0  2  0  0  0  0  0  0  0  0  0
   16.6471  -13.5979  -15.1681 N   0  0  0  0  0  0  0  0  0  0  0  0
   17.0560  -11.2778  -14.8217 C   0  0  0  0  0  0  0  0  0  0  0  0
   17.8384  -11.5415  -13.8700 O   0  0  0  0  0  0  0  0  0  0  0  0
   20.1751   -8.3840  -14.5269 O   0  0  0  0  0  0  0  0  0  0  0  0
   19.3374   -9.3954  -15.0261 C   0  0  0  0  0  0  0  0  0  0  0  0
   17.9103   -8.9180  -14.7245 C   0  0  2  0  0  0  0  0  0  0  0  0
   17.0317   -9.9309  -15.2666 N   0  0  0  0  0  0  0  0  0  0  0  0
   17.6302   -7.6408  -15.4163 C   0  0  0  0  0  0  0  0  0  0  0  0
   17.6121   -7.6160  -16.6646 O   0  0  0  0  0  0  0  0  0  0  0  0
   14.7005   -5.0883  -15.0009 C   0  0  0  0  0  0  0  0  0  0  0  0
   16.0291   -4.4236  -14.8382 C   0  0  1  0  0  0  0  0  0  0  0  0
   16.2650   -4.2357  -13.4816 O   0  0  0  0  0  0  0  0  0  0  0  0
   17.1389   -5.2249  -15.4875 C   0  0  2  0  0  0  0  0  0  0  0  0
   17.3776   -6.4266  -14.7271 N   0  0  0  0  0  0  0  0  0  0  0  0
   18.3493   -4.4155  -15.6778 C   0  0  0  0  0  0  0  0  0  0  0  0
   19.4365   -4.6749  -15.1033 O   0  0  0  0  0  0  0  0  0  0  0  0
   18.3098   -3.3181  -16.5209 O   0  0  0  0  0  0  0  0  0  0  0  0
  2  1  1  0
  3  2  1  0
  3  4  1  0
  4  5  1  0
  5  7  1  0
  5  6  1  1
  7 12  1  0
  7  8  2  0
  9 10  1  0
 11 10  1  6
 11 13  1  0
 12 11  1  0
 13 14  2  0
 16 15  1  1
 16 18  1  0
 16 17  1  0
 18 20  1  0
 19 13  1  0
 18 19  1  1
 20 22  1  0
 21 20  2  0
M  END
$$$$
