MST.pdb
     RDKit          3D

 22 21  0  0  1  0  0  0  0  0999 V2000
   29.2466  -18.4680   -5.4661 C   0  0  0  0  0  0  0  0  0  0  0  0
   27.4270  -18.6725   -5.5153 S   0  0  0  0  0  0  0  0  0  0  0  0
   27.0841  -20.1428   -6.4926 C   0  0  0  0  0  0  0  0  0  0  0  0
   27.1447  -19.8376   -7.9941 C   0  0  0  0  0  0  0  0  0  0  0  0
   26.9270  -21.1551   -8.7048 C   0  0  2  0  0  0  0  0  0  0  0  0
   28.1282  -21.9389   -8.5273 N   0  0  0  0  0  0  0  0  0  0  0  0
   26.6441  -20.9924  -10.1308 C   0  0  0  0  0  0  0  0  0  0  0  0
   27.5271  -20.9245  -11.0269 O   0  0  0  0  0  0  0  0  0  0  0  0
   22.8466  -20.3278  -11.1585 O   0  0  0  0  0  0  0  0  0  0  0  0
   23.3976  -21.3739  -11.9176 C   0  0  0  0  0  0  0  0  0  0  0  0
   24.9072  -21.0983  -11.9419 C   0  0  2  0  0  0  0  0  0  0  0  0
   25.2957  -20.9024  -10.5626 N   0  0  0  0  0  0  0  0  0  0  0  0
   25.1988  -19.8547  -12.6882 C   0  0  0  0  0  0  0  0  0  0  0  0
   25.0578  -18.7541  -12.1155 O   0  0  0  0  0  0  0  0  0  0  0  0
   28.2408  -18.4149  -14.2156 C   0  0  0  0  0  0  0  0  0  0  0  0
   27.2048  -18.4994  -15.2894 C   0  0  1  0  0  0  0  0  0  0  0  0
   27.4903  -19.5975  -16.0920 O   0  0  0  0  0  0  0  0  0  0  0  0
   25.8064  -18.5837  -14.7125 C   0  0  2  0  0  0  0  0  0  0  0  0
   25.6359  -19.8466  -14.0380 N   0  0  0  0  0  0  0  0  0  0  0  0
   24.7837  -18.3368  -15.7370 C   0  0  0  0  0  0  0  0  0  0  0  0
   23.8778  -19.1654  -16.0052 O   0  0  0  0  0  0  0  0  0  0  0  0
   24.8028  -17.1481  -16.4464 O   0  0  0  0  0  0  0  0  0  0  0  0
  2  1  1  0
  3  2  1  0
  3  4  1  0
  4  5  1  0
  5  7  1  0
  5  6  1  6
  7 12  1  0
  7  8  2  0
  9 10  1  0
 11 10  1  1
 11 13  1  0
 12 11  1  0
 13 14  2  0
 16 15  1  1
 16 18  1  0
 16 17  1  0
 18 20  1  0
 19 13  1  0
 18 19  1  6
 20 22  1  0
 21 20  2  0
M  END
$$$$
