MST.pdb
     RDKit          3D

 22 21  0  0  1  0  0  0  0  0999 V2000
   13.5763  -21.8007   -6.5363 C   0  0  0  0  0  0  0  0  0  0  0  0
   13.4529  -22.4173   -8.2566 S   0  0  0  0  0  0  0  0  0  0  0  0
   14.6801  -23.7188   -8.4435 C   0  0  0  0  0  0  0  0  0  0  0  0
   16.0430  -23.2792   -7.8955 C   0  0  0  0  0  0  0  0  0  0  0  0
   16.9514  -24.4843   -7.9983 C   0  0  2  0  0  0  0  0  0  0  0  0
   16.8032  -25.0173   -9.3336 N   0  0  0  0  0  0  0  0  0  0  0  0
   16.6395  -25.5180   -7.0114 C   0  0  0  0  0  0  0  0  0  0  0  0
   15.8795  -26.4995   -7.2268 O   0  0  0  0  0  0  0  0  0  0  0  0
   18.7685  -25.5238   -3.4621 O   0  0  0  0  0  0  0  0  0  0  0  0
   18.4473  -26.7153   -4.1338 C   0  0  0  0  0  0  0  0  0  0  0  0
   17.0520  -26.4765   -4.7268 C   0  0  2  0  0  0  0  0  0  0  0  0
   17.2164  -25.4360   -5.7179 N   0  0  0  0  0  0  0  0  0  0  0  0
   16.1203  -25.9860   -3.6878 C   0  0  0  0  0  0  0  0  0  0  0  0
   16.0918  -24.7661   -3.4228 O   0  0  0  0  0  0  0  0  0  0  0  0
   12.3294  -27.0574   -3.4168 C   0  0  0  0  0  0  0  0  0  0  0  0
   13.0094  -27.0957   -2.0865 C   0  0  1  0  0  0  0  0  0  0  0  0
   13.2783  -28.4213   -1.7669 O   0  0  0  0  0  0  0  0  0  0  0  0
   14.2711  -26.2572   -2.0785 C   0  0  2  0  0  0  0  0  0  0  0  0
   15.2458  -26.8398   -2.9671 N   0  0  0  0  0  0  0  0  0  0  0  0
   14.7810  -26.0614   -0.7153 C   0  0  0  0  0  0  0  0  0  0  0  0
   14.1211  -25.4740    0.1783 O   0  0  0  0  0  0  0  0  0  0  0  0
   16.0381  -26.5369   -0.3831 O   0  0  0  0  0  0  0  0  0  0  0  0
  2  1  1  0
  3  2  1  0
  3  4  1  0
  4  5  1  0
  5  7  1  0
  5  6  1  6
  7 12  1  0
  7  8  2  0
  9 10  1  0
 11 10  1  1
 11 13  1  0
 12 11  1  0
 13 14  2  0
 16 15  1  6
 16 18  1  0
 16 17  1  0
 18 20  1  0
 19 13  1  0
 18 19  1  6
 20 22  1  0
 21 20  2  0
M  END
$$$$
