MST.pdb
     RDKit          3D

 22 21  0  0  1  0  0  0  0  0999 V2000
   15.5356   -9.9140  -17.2231 C   0  0  0  0  0  0  0  0  0  0  0  0
   15.7255  -11.7317  -17.3449 S   0  0  0  0  0  0  0  0  0  0  0  0
   17.4570  -12.0621  -17.7017 C   0  0  0  0  0  0  0  0  0  0  0  0
   18.3695  -11.0345  -17.0216 C   0  0  0  0  0  0  0  0  0  0  0  0
   19.7874  -11.4239  -17.3769 C   0  0  2  0  0  0  0  0  0  0  0  0
   20.0117  -12.7488  -16.8448 N   0  0  0  0  0  0  0  0  0  0  0  0
   20.7835  -10.4962  -16.8413 C   0  0  0  0  0  0  0  0  0  0  0  0
   21.2761  -10.5732  -15.6843 O   0  0  0  0  0  0  0  0  0  0  0  0
   21.7776   -7.4519  -19.2493 O   0  0  0  0  0  0  0  0  0  0  0  0
   22.8643   -7.8924  -18.4755 C   0  0  0  0  0  0  0  0  0  0  0  0
   22.2377   -8.4808  -17.2041 C   0  0  2  0  0  0  0  0  0  0  0  0
   21.2440   -9.4297  -17.6557 N   0  0  0  0  0  0  0  0  0  0  0  0
   21.5534   -7.4268  -16.4236 C   0  0  0  0  0  0  0  0  0  0  0  0
   20.4485   -6.9986  -16.8173 O   0  0  0  0  0  0  0  0  0  0  0  0
   21.7821   -7.1607  -12.4383 C   0  0  0  0  0  0  0  0  0  0  0  0
   20.7414   -6.4830  -13.2698 C   0  0  1  0  0  0  0  0  0  0  0  0
   20.1078   -5.5244  -12.4880 O   0  0  0  0  0  0  0  0  0  0  0  0
   21.3362   -5.8716  -14.5219 C   0  0  2  0  0  0  0  0  0  0  0  0
   22.0934   -6.8696  -15.2358 N   0  0  0  0  0  0  0  0  0  0  0  0
   22.1184   -4.6671  -14.2157 C   0  0  0  0  0  0  0  0  0  0  0  0
   21.6003   -3.6218  -13.7487 O   0  0  0  0  0  0  0  0  0  0  0  0
   23.4839   -4.6649  -14.4444 O   0  0  0  0  0  0  0  0  0  0  0  0
  2  1  1  0
  3  2  1  0
  3  4  1  0
  4  5  1  0
  5  7  1  0
  5  6  1  1
  7 12  1  0
  7  8  2  0
  9 10  1  0
 11 10  1  6
 11 13  1  0
 12 11  1  0
 13 14  2  0
 16 15  1  1
 16 18  1  0
 16 17  1  0
 18 20  1  0
 19 13  1  0
 18 19  1  1
 20 22  1  0
 21 20  2  0
M  END
$$$$
