MST.pdb
     RDKit          3D

 22 21  0  0  1  0  0  0  0  0999 V2000
   26.6130  -20.3652   -7.5504 C   0  0  0  0  0  0  0  0  0  0  0  0
   28.0268  -20.7583   -8.6467 S   0  0  0  0  0  0  0  0  0  0  0  0
   27.4792  -20.4852  -10.3379 C   0  0  0  0  0  0  0  0  0  0  0  0
   26.1277  -21.1604  -10.5994 C   0  0  0  0  0  0  0  0  0  0  0  0
   25.7886  -20.8862  -12.0479 C   0  0  2  0  0  0  0  0  0  0  0  0
   25.8010  -19.4518  -12.2245 N   0  0  0  0  0  0  0  0  0  0  0  0
   24.4864  -21.4256  -12.4395 C   0  0  0  0  0  0  0  0  0  0  0  0
   24.2796  -22.6299  -12.7462 O   0  0  0  0  0  0  0  0  0  0  0  0
   21.6435  -19.0934  -11.5677 O   0  0  0  0  0  0  0  0  0  0  0  0
   21.0919  -20.3630  -11.8080 C   0  0  0  0  0  0  0  0  0  0  0  0
   22.0365  -21.0245  -12.8207 C   0  0  2  0  0  0  0  0  0  0  0  0
   23.3642  -20.5588  -12.4856 N   0  0  0  0  0  0  0  0  0  0  0  0
   21.7212  -20.5800  -14.1960 C   0  0  0  0  0  0  0  0  0  0  0  0
   22.1914  -19.4995  -14.6092 O   0  0  0  0  0  0  0  0  0  0  0  0
   21.8636  -22.7207  -17.5302 C   0  0  0  0  0  0  0  0  0  0  0  0
   20.5647  -21.9971  -17.3794 C   0  0  1  0  0  0  0  0  0  0  0  0
   19.5997  -22.9057  -16.9614 O   0  0  0  0  0  0  0  0  0  0  0  0
   20.6815  -20.8319  -16.4182 C   0  0  2  0  0  0  0  0  0  0  0  0
   20.9019  -21.3264  -15.0818 N   0  0  0  0  0  0  0  0  0  0  0  0
   19.5236  -19.9339  -16.5148 C   0  0  0  0  0  0  0  0  0  0  0  0
   19.2156  -19.3352  -17.5759 O   0  0  0  0  0  0  0  0  0  0  0  0
   18.7274  -19.7264  -15.4014 O   0  0  0  0  0  0  0  0  0  0  0  0
  2  1  1  0
  3  2  1  0
  3  4  1  0
  4  5  1  0
  5  7  1  0
  5  6  1  1
  7 12  1  0
  7  8  2  0
  9 10  1  0
 11 10  1  1
 11 13  1  0
 12 11  1  0
 13 14  2  0
 16 15  1  1
 16 18  1  0
 16 17  1  0
 18 20  1  0
 19 13  1  0
 18 19  1  1
 20 22  1  0
 21 20  2  0
M  END
$$$$
