MST.pdb
     RDKit          3D

 22 21  0  0  1  0  0  0  0  0999 V2000
   14.6551  -12.0470  -17.8113 C   0  0  0  0  0  0  0  0  0  0  0  0
   15.6762  -13.4705  -18.3463 S   0  0  0  0  0  0  0  0  0  0  0  0
   17.3638  -13.1416  -17.8187 C   0  0  0  0  0  0  0  0  0  0  0  0
   17.4031  -12.0745  -16.7183 C   0  0  0  0  0  0  0  0  0  0  0  0
   18.8567  -11.9176  -16.3299 C   0  0  2  0  0  0  0  0  0  0  0  0
   19.2291  -13.0992  -15.5856 N   0  0  0  0  0  0  0  0  0  0  0  0
   19.1045  -10.7221  -15.5242 C   0  0  0  0  0  0  0  0  0  0  0  0
   18.6063  -10.5172  -14.3853 O   0  0  0  0  0  0  0  0  0  0  0  0
   22.3588   -8.8880  -16.3452 O   0  0  0  0  0  0  0  0  0  0  0  0
   21.8386   -8.6165  -15.0686 C   0  0  0  0  0  0  0  0  0  0  0  0
   20.3184   -8.5387  -15.2644 C   0  0  2  0  0  0  0  0  0  0  0  0
   19.9583   -9.7098  -16.0331 N   0  0  0  0  0  0  0  0  0  0  0  0
   19.9539   -7.3381  -16.0479 C   0  0  0  0  0  0  0  0  0  0  0  0
   20.1826   -7.3198  -17.2753 O   0  0  0  0  0  0  0  0  0  0  0  0
   16.5575   -5.2703  -15.6566 C   0  0  0  0  0  0  0  0  0  0  0  0
   17.7613   -4.3867  -15.7194 C   0  0  1  0  0  0  0  0  0  0  0  0
   18.0430   -3.9337  -14.4361 O   0  0  0  0  0  0  0  0  0  0  0  0
   18.9499   -5.1027  -16.3274 C   0  0  2  0  0  0  0  0  0  0  0  0
   19.3501   -6.1912  -15.4706 N   0  0  0  0  0  0  0  0  0  0  0  0
   20.0466   -4.1725  -16.6247 C   0  0  0  0  0  0  0  0  0  0  0  0
   21.1843   -4.2749  -16.1009 O   0  0  0  0  0  0  0  0  0  0  0  0
   19.8368   -3.1343  -17.5162 O   0  0  0  0  0  0  0  0  0  0  0  0
  2  1  1  0
  3  2  1  0
  3  4  1  0
  4  5  1  0
  5  7  1  0
  5  6  1  1
  7 12  1  0
  7  8  2  0
  9 10  1  0
 11 10  1  6
 11 13  1  0
 12 11  1  0
 13 14  2  0
 16 15  1  1
 16 18  1  0
 16 17  1  0
 18 20  1  0
 19 13  1  0
 18 19  1  1
 20 22  1  0
 21 20  2  0
M  END
$$$$
