MST.pdb
     RDKit          3D

 22 21  0  0  1  0  0  0  0  0999 V2000
   28.4402  -14.1586  -17.4999 C   0  0  0  0  0  0  0  0  0  0  0  0
   27.1689  -15.3840  -17.9869 S   0  0  0  0  0  0  0  0  0  0  0  0
   25.9871  -15.4889  -16.6352 C   0  0  0  0  0  0  0  0  0  0  0  0
   24.6586  -14.8193  -17.0065 C   0  0  0  0  0  0  0  0  0  0  0  0
   24.6945  -13.4359  -16.3957 C   0  0  2  0  0  0  0  0  0  0  0  0
   24.7416  -13.6043  -14.9610 N   0  0  0  0  0  0  0  0  0  0  0  0
   23.5370  -12.6209  -16.7643 C   0  0  0  0  0  0  0  0  0  0  0  0
   23.1966  -12.3658  -17.9502 O   0  0  0  0  0  0  0  0  0  0  0  0
   20.9067  -11.8749  -13.8575 O   0  0  0  0  0  0  0  0  0  0  0  0
   20.4211  -11.8902  -15.1758 C   0  0  0  0  0  0  0  0  0  0  0  0
   21.5461  -11.2808  -16.0235 C   0  0  2  0  0  0  0  0  0  0  0  0
   22.7256  -12.0684  -15.7400 N   0  0  0  0  0  0  0  0  0  0  0  0
   21.8101   -9.8841  -15.6139 C   0  0  0  0  0  0  0  0  0  0  0  0
   22.5068   -9.6684  -14.6004 O   0  0  0  0  0  0  0  0  0  0  0  0
   22.7387   -6.9467  -18.0908 C   0  0  0  0  0  0  0  0  0  0  0  0
   21.7229   -6.5071  -17.0866 C   0  0  1  0  0  0  0  0  0  0  0  0
   20.4860   -6.4295  -17.7156 O   0  0  0  0  0  0  0  0  0  0  0  0
   21.6788   -7.4369  -15.8912 C   0  0  2  0  0  0  0  0  0  0  0  0
   21.3068   -8.7619  -16.3214 N   0  0  0  0  0  0  0  0  0  0  0  0
   20.8096   -6.9121  -14.8304 C   0  0  0  0  0  0  0  0  0  0  0  0
   19.7922   -7.5256  -14.4210 O   0  0  0  0  0  0  0  0  0  0  0  0
   21.1077   -5.6930  -14.2459 O   0  0  0  0  0  0  0  0  0  0  0  0
  2  1  1  0
  3  2  1  0
  3  4  1  0
  4  5  1  0
  5  7  1  0
  5  6  1  1
  7 12  1  0
  7  8  2  0
  9 10  1  0
 11 10  1  1
 11 13  1  0
 12 11  1  0
 13 14  2  0
 16 15  1  6
 16 18  1  0
 16 17  1  0
 18 20  1  0
 19 13  1  0
 18 19  1  6
 20 22  1  0
 21 20  2  0
M  END
$$$$
