MST.pdb
     RDKit          3D

 22 21  0  0  1  0  0  0  0  0999 V2000
   17.2824  -22.1110  -15.5379 C   0  0  0  0  0  0  0  0  0  0  0  0
   18.1666  -22.5624  -13.9986 S   0  0  0  0  0  0  0  0  0  0  0  0
   19.8318  -23.0543  -14.4675 C   0  0  0  0  0  0  0  0  0  0  0  0
   20.7456  -21.8339  -14.6309 C   0  0  0  0  0  0  0  0  0  0  0  0
   21.0051  -21.3073  -13.2368 C   0  0  2  0  0  0  0  0  0  0  0  0
   19.9228  -20.4056  -12.9133 N   0  0  0  0  0  0  0  0  0  0  0  0
   22.2860  -20.6105  -13.1209 C   0  0  0  0  0  0  0  0  0  0  0  0
   22.4387  -19.3716  -13.2914 O   0  0  0  0  0  0  0  0  0  0  0  0
   25.6223  -22.8864  -12.3489 O   0  0  0  0  0  0  0  0  0  0  0  0
   25.5700  -21.6175  -11.7479 C   0  0  0  0  0  0  0  0  0  0  0  0
   24.7617  -20.7474  -12.7200 C   0  0  2  0  0  0  0  0  0  0  0  0
   23.4504  -21.3530  -12.7959 N   0  0  0  0  0  0  0  0  0  0  0  0
   25.3653  -20.7746  -14.0703 C   0  0  0  0  0  0  0  0  0  0  0  0
   24.9441  -21.5986  -14.9086 O   0  0  0  0  0  0  0  0  0  0  0  0
   28.3962  -18.0401  -15.3097 C   0  0  0  0  0  0  0  0  0  0  0  0
   27.3641  -18.5747  -16.2491 C   0  0  1  0  0  0  0  0  0  0  0  0
   27.9018  -18.5938  -17.5305 O   0  0  0  0  0  0  0  0  0  0  0  0
   26.8838  -19.9490  -15.8295 C   0  0  2  0  0  0  0  0  0  0  0  0
   26.4113  -19.9024  -14.4681 N   0  0  0  0  0  0  0  0  0  0  0  0
   27.9163  -20.9709  -16.0446 C   0  0  0  0  0  0  0  0  0  0  0  0
   28.5117  -21.5440  -15.0979 O   0  0  0  0  0  0  0  0  0  0  0  0
   28.2607  -21.3303  -17.3365 O   0  0  0  0  0  0  0  0  0  0  0  0
  2  1  1  0
  3  2  1  0
  3  4  1  0
  4  5  1  0
  5  7  1  0
  5  6  1  6
  7 12  1  0
  7  8  2  0
  9 10  1  0
 11 10  1  1
 11 13  1  0
 12 11  1  0
 13 14  2  0
 16 15  1  1
 16 18  1  0
 16 17  1  0
 18 20  1  0
 19 13  1  0
 18 19  1  1
 20 22  1  0
 21 20  2  0
M  END
$$$$
