FDY.pdb
     RDKit          3D

 32 33  0  0  1  0  0  0  0  0999 V2000
    7.2111  -16.7648   25.6943 N   0  0  0  0  0  0  0  0  0  0  0  0
    7.0856  -16.9867   24.2731 C   0  0  1  0  0  0  0  0  0  0  0  0
    6.5232  -15.7113   23.6612 C   0  0  0  0  0  0  0  0  0  0  0  0
    6.8485  -14.5135   24.4580 C   0  0  0  0  0  0  0  0  0  0  0  0
    6.5189  -13.2374   24.0901 C   0  0  0  0  0  0  0  0  0  0  0  0
    6.8288  -12.1350   24.8430 C   0  0  0  0  0  0  0  0  0  0  0  0
    7.5103  -12.3091   26.0395 C   0  0  0  0  0  0  0  0  0  0  0  0
    7.8549  -13.5826   26.4349 C   0  0  0  0  0  0  0  0  0  0  0  0
    7.5290  -14.6737   25.6550 C   0  0  0  0  0  0  0  0  0  0  0  0
    8.4107  -17.2163   23.6486 C   0  0  0  0  0  0  0  0  0  0  0  0
    8.9891  -18.3038   23.8720 O   0  0  0  0  0  0  0  0  0  0  0  0
    9.0613  -16.2711   22.8103 N   0  0  0  0  0  0  0  0  0  0  0  0
   10.2593  -16.5635   22.0768 C   0  0  1  0  0  0  0  0  0  0  0  0
   10.4119  -15.7115   20.8602 C   0  0  0  0  0  0  0  0  0  0  0  0
    9.8094  -16.3113   19.6453 C   0  0  0  0  0  0  0  0  0  0  0  0
    9.2977  -15.6065   18.7402 O   0  0  0  0  0  0  0  0  0  0  0  0
   11.4669  -16.4698   22.9712 C   0  0  0  0  0  0  0  0  0  0  0  0
   12.3075  -17.4211   22.9775 O   0  0  0  0  0  0  0  0  0  0  0  0
    9.7842  -17.6852   19.4540 O   0  0  0  0  0  0  0  0  0  0  0  0
   10.9203  -16.0355   31.5951 O   0  0  0  0  0  0  0  0  0  0  0  0
   10.8359  -15.9031   30.2092 C   0  0  0  0  0  0  0  0  0  0  0  0
   10.6651  -16.9908   29.3794 C   0  0  0  0  0  0  0  0  0  0  0  0
   10.5792  -16.8847   28.0113 C   0  0  0  0  0  0  0  0  0  0  0  0
   10.6627  -15.6524   27.3982 C   0  0  0  0  0  0  0  0  0  0  0  0
   10.5865  -15.5123   25.9291 C   0  0  0  0  0  0  0  0  0  0  0  0
   11.9316  -15.4695   25.2462 C   0  0  2  0  0  0  0  0  0  0  0  0
   11.7036  -15.3686   23.8030 N   0  0  0  0  0  0  0  0  0  0  0  0
   12.6359  -16.7401   25.5010 C   0  0  0  0  0  0  0  0  0  0  0  0
   12.0988  -17.9961   25.2556 O   0  0  0  0  0  0  0  0  0  0  0  0
   10.8347  -14.5466   28.2161 C   0  0  0  0  0  0  0  0  0  0  0  0
   10.9181  -14.6768   29.5848 C   0  0  0  0  0  0  0  0  0  0  0  0
   13.7985  -16.7204   25.9716 O   0  0  0  0  0  0  0  0  0  0  0  0
  2  1  1  1
  3  2  1  0
  4  3  1  0
  4  9  1  0
  5  4  2  0
  6  5  1  0
  6  7  2  0
  7  8  1  0
  8  9  2  0
 10  2  1  0
 10 11  2  0
 12 10  1  0
 13 12  1  0
 13 14  1  6
 15 14  1  0
 15 19  1  0
 16 15  2  0
 17 13  1  0
 18 17  2  0
 20 21  1  0
 21 22  2  0
 22 23  1  0
 24 23  2  0
 24 25  1  0
 26 25  1  1
 26 28  1  0
 26 27  1  0
 27 17  1  0
 28 29  1  0
 30 24  1  0
 31 21  1  0
 31 30  2  0
 32 28  2  0
M  END
$$$$
