FDY.pdb
     RDKit          3D

 32 33  0  0  1  0  0  0  0  0999 V2000
    7.8613  -16.7643   24.3056 N   0  0  0  0  0  0  0  0  0  0  0  0
    7.0897  -16.9996   23.1081 C   0  0  1  0  0  0  0  0  0  0  0  0
    6.0962  -15.8540   22.9743 C   0  0  0  0  0  0  0  0  0  0  0  0
    6.5083  -14.6596   23.7351 C   0  0  0  0  0  0  0  0  0  0  0  0
    7.1027  -13.5625   23.1735 C   0  0  0  0  0  0  0  0  0  0  0  0
    7.4793  -12.4602   23.8955 C   0  0  0  0  0  0  0  0  0  0  0  0
    7.2515  -12.4445   25.2645 C   0  0  0  0  0  0  0  0  0  0  0  0
    6.6547  -13.5352   25.8569 C   0  0  0  0  0  0  0  0  0  0  0  0
    6.2864  -14.6312   25.1031 C   0  0  0  0  0  0  0  0  0  0  0  0
    7.9512  -16.9659   21.9016 C   0  0  0  0  0  0  0  0  0  0  0  0
    7.7404  -17.8094   21.0010 O   0  0  0  0  0  0  0  0  0  0  0  0
    9.0028  -16.0296   21.7101 N   0  0  0  0  0  0  0  0  0  0  0  0
   10.3838  -16.4068   21.6126 C   0  0  1  0  0  0  0  0  0  0  0  0
   11.1601  -15.5183   20.6976 C   0  0  0  0  0  0  0  0  0  0  0  0
   10.9442  -15.8228   19.2625 C   0  0  0  0  0  0  0  0  0  0  0  0
   10.1757  -15.1347   18.5456 O   0  0  0  0  0  0  0  0  0  0  0  0
   11.0135  -16.4778   22.9784 C   0  0  0  0  0  0  0  0  0  0  0  0
   12.2631  -16.6804   23.0738 O   0  0  0  0  0  0  0  0  0  0  0  0
   11.5853  -16.8870   18.6451 O   0  0  0  0  0  0  0  0  0  0  0  0
   11.4073  -15.4434   31.8763 O   0  0  0  0  0  0  0  0  0  0  0  0
   11.0329  -15.4530   30.5327 C   0  0  0  0  0  0  0  0  0  0  0  0
   10.5864  -16.5970   29.9060 C   0  0  0  0  0  0  0  0  0  0  0  0
   10.2120  -16.6305   28.5834 C   0  0  0  0  0  0  0  0  0  0  0  0
   10.2699  -15.4901   27.8105 C   0  0  0  0  0  0  0  0  0  0  0  0
    9.8859  -15.5022   26.3836 C   0  0  0  0  0  0  0  0  0  0  0  0
   10.8718  -16.2126   25.4887 C   0  0  2  0  0  0  0  0  0  0  0  0
   10.2729  -16.3285   24.1572 N   0  0  0  0  0  0  0  0  0  0  0  0
   11.0855  -17.5778   26.0045 C   0  0  0  0  0  0  0  0  0  0  0  0
   10.1694  -18.6133   25.8828 O   0  0  0  0  0  0  0  0  0  0  0  0
   10.7167  -14.3297   28.4230 C   0  0  0  0  0  0  0  0  0  0  0  0
   11.0865  -14.3196   29.7498 C   0  0  0  0  0  0  0  0  0  0  0  0
   12.1547  -17.8551   26.5989 O   0  0  0  0  0  0  0  0  0  0  0  0
  2  1  1  1
  3  2  1  0
  4  3  1  0
  4  9  1  0
  5  4  2  0
  6  5  1  0
  6  7  2  0
  7  8  1  0
  8  9  2  0
 10  2  1  0
 10 11  2  0
 12 10  1  0
 13 12  1  0
 13 14  1  6
 15 14  1  0
 15 19  1  0
 16 15  2  0
 17 13  1  0
 18 17  2  0
 20 21  1  0
 21 22  2  0
 22 23  1  0
 24 23  2  0
 24 25  1  0
 26 25  1  1
 26 28  1  0
 26 27  1  0
 27 17  1  0
 28 29  1  0
 30 24  1  0
 31 21  1  0
 31 30  2  0
 32 28  2  0
M  END
$$$$
