FDY.pdb
     RDKit          3D

 32 33  0  0  1  0  0  0  0  0999 V2000
    6.3189  -15.6984   22.8910 N   0  0  0  0  0  0  0  0  0  0  0  0
    6.2198  -16.7431   21.8993 C   0  0  1  0  0  0  0  0  0  0  0  0
    5.8078  -16.0884   20.5881 C   0  0  0  0  0  0  0  0  0  0  0  0
    6.5852  -14.8688   20.2991 C   0  0  0  0  0  0  0  0  0  0  0  0
    7.3024  -14.6733   19.1503 C   0  0  0  0  0  0  0  0  0  0  0  0
    8.0195  -13.5331   18.8974 C   0  0  0  0  0  0  0  0  0  0  0  0
    8.0260  -12.5200   19.8460 C   0  0  0  0  0  0  0  0  0  0  0  0
    7.3128  -12.6894   21.0120 C   0  0  0  0  0  0  0  0  0  0  0  0
    6.6000  -13.8494   21.2382 C   0  0  0  0  0  0  0  0  0  0  0  0
    7.5358  -17.3852   21.6654 C   0  0  0  0  0  0  0  0  0  0  0  0
    7.6035  -18.6337   21.7257 O   0  0  0  0  0  0  0  0  0  0  0  0
    8.7249  -16.6627   21.3767 N   0  0  0  0  0  0  0  0  0  0  0  0
   10.0401  -17.1893   21.6038 C   0  0  1  0  0  0  0  0  0  0  0  0
   11.0355  -16.7042   20.6022 C   0  0  0  0  0  0  0  0  0  0  0  0
   12.3090  -17.4635   20.6264 C   0  0  0  0  0  0  0  0  0  0  0  0
   13.4147  -16.9138   20.3958 O   0  0  0  0  0  0  0  0  0  0  0  0
   10.4909  -16.9053   23.0121 C   0  0  0  0  0  0  0  0  0  0  0  0
   11.3260  -15.9715   23.2180 O   0  0  0  0  0  0  0  0  0  0  0  0
   12.3352  -18.8220   20.9065 O   0  0  0  0  0  0  0  0  0  0  0  0
    6.8834  -12.0465   25.4656 O   0  0  0  0  0  0  0  0  0  0  0  0
    7.4708  -13.2937   25.6775 C   0  0  0  0  0  0  0  0  0  0  0  0
    6.7199  -14.4412   25.8201 C   0  0  0  0  0  0  0  0  0  0  0  0
    7.2765  -15.6809   26.0295 C   0  0  0  0  0  0  0  0  0  0  0  0
    8.6451  -15.8295   26.1074 C   0  0  0  0  0  0  0  0  0  0  0  0
    9.2679  -17.1483   26.3450 C   0  0  0  0  0  0  0  0  0  0  0  0
   10.4804  -17.4178   25.4878 C   0  0  2  0  0  0  0  0  0  0  0  0
   10.0240  -17.6336   24.1130 N   0  0  0  0  0  0  0  0  0  0  0  0
   11.1217  -18.6638   25.9480 C   0  0  0  0  0  0  0  0  0  0  0  0
   11.1673  -19.8393   25.2116 O   0  0  0  0  0  0  0  0  0  0  0  0
    9.4171  -14.6868   25.9668 C   0  0  0  0  0  0  0  0  0  0  0  0
    8.8375  -13.4549   25.7574 C   0  0  0  0  0  0  0  0  0  0  0  0
   11.6705  -18.6982   27.0753 O   0  0  0  0  0  0  0  0  0  0  0  0
  2  1  1  1
  3  2  1  0
  4  3  1  0
  4  9  1  0
  5  4  2  0
  6  5  1  0
  6  7  2  0
  7  8  1  0
  8  9  2  0
 10  2  1  0
 10 11  2  0
 12 10  1  0
 13 12  1  0
 13 14  1  6
 15 14  1  0
 15 19  1  0
 16 15  2  0
 17 13  1  0
 18 17  2  0
 20 21  1  0
 21 22  2  0
 22 23  1  0
 24 23  2  0
 24 25  1  0
 26 25  1  1
 26 28  1  0
 26 27  1  0
 27 17  1  0
 28 29  1  0
 30 24  1  0
 31 21  1  0
 31 30  2  0
 32 28  2  0
M  END
$$$$
