FDY.pdb
     RDKit          3D

 32 33  0  0  1  0  0  0  0  0999 V2000
    6.9937  -17.5108   20.5272 N   0  0  0  0  0  0  0  0  0  0  0  0
    8.1529  -16.7191   20.8650 C   0  0  1  0  0  0  0  0  0  0  0  0
    7.6893  -15.6068   21.7951 C   0  0  0  0  0  0  0  0  0  0  0  0
    7.4876  -14.3285   21.0874 C   0  0  0  0  0  0  0  0  0  0  0  0
    8.0223  -13.1365   21.4941 C   0  0  0  0  0  0  0  0  0  0  0  0
    7.8251  -11.9573   20.8241 C   0  0  0  0  0  0  0  0  0  0  0  0
    7.0464  -11.9602   19.6751 C   0  0  0  0  0  0  0  0  0  0  0  0
    6.4954  -13.1459   19.2422 C   0  0  0  0  0  0  0  0  0  0  0  0
    6.7121  -14.3177   19.9385 C   0  0  0  0  0  0  0  0  0  0  0  0
    9.1484  -17.5216   21.6159 C   0  0  0  0  0  0  0  0  0  0  0  0
    8.9001  -17.8051   22.8096 O   0  0  0  0  0  0  0  0  0  0  0  0
   10.3689  -17.9872   21.0564 N   0  0  0  0  0  0  0  0  0  0  0  0
   11.4637  -18.4698   21.8484 C   0  0  1  0  0  0  0  0  0  0  0  0
   12.5627  -19.0483   21.0197 C   0  0  0  0  0  0  0  0  0  0  0  0
   12.0723  -19.8717   19.8881 C   0  0  0  0  0  0  0  0  0  0  0  0
   11.3243  -20.8652   20.0646 O   0  0  0  0  0  0  0  0  0  0  0  0
   11.9738  -17.3898   22.7652 C   0  0  0  0  0  0  0  0  0  0  0  0
   12.4217  -16.3131   22.2637 O   0  0  0  0  0  0  0  0  0  0  0  0
   12.4202  -19.5790   18.5773 O   0  0  0  0  0  0  0  0  0  0  0  0
    8.6599  -20.1871   28.7609 O   0  0  0  0  0  0  0  0  0  0  0  0
    9.3234  -19.1733   28.0698 C   0  0  0  0  0  0  0  0  0  0  0  0
   10.6138  -18.7999   28.3801 C   0  0  0  0  0  0  0  0  0  0  0  0
   11.2877  -17.8042   27.7132 C   0  0  0  0  0  0  0  0  0  0  0  0
   10.6830  -17.1210   26.6793 C   0  0  0  0  0  0  0  0  0  0  0  0
   11.3804  -16.0380   25.9552 C   0  0  0  0  0  0  0  0  0  0  0  0
   12.5102  -16.5159   25.0761 C   0  0  2  0  0  0  0  0  0  0  0  0
   11.9747  -17.5243   24.1589 N   0  0  0  0  0  0  0  0  0  0  0  0
   13.5259  -17.1723   25.9206 C   0  0  0  0  0  0  0  0  0  0  0  0
   13.7651  -18.5393   25.9381 O   0  0  0  0  0  0  0  0  0  0  0  0
    9.3852  -17.4821   26.3527 C   0  0  0  0  0  0  0  0  0  0  0  0
    8.7295  -18.4832   27.0347 C   0  0  0  0  0  0  0  0  0  0  0  0
   14.2370  -16.4786   26.6863 O   0  0  0  0  0  0  0  0  0  0  0  0
  2  1  1  1
  3  2  1  0
  4  3  1  0
  4  9  1  0
  5  4  2  0
  6  5  1  0
  6  7  2  0
  7  8  1  0
  8  9  2  0
 10  2  1  0
 10 11  2  0
 12 10  1  0
 13 12  1  0
 13 14  1  6
 15 14  1  0
 15 19  1  0
 16 15  2  0
 17 13  1  0
 18 17  2  0
 20 21  1  0
 21 22  2  0
 22 23  1  0
 24 23  2  0
 24 25  1  0
 26 25  1  1
 26 28  1  0
 26 27  1  0
 27 17  1  0
 28 29  1  0
 30 24  1  0
 31 21  1  0
 31 30  2  0
 32 28  2  0
M  END
$$$$
