FDY.pdb
     RDKit          3D

 32 33  0  0  1  0  0  0  0  0999 V2000
    7.8345  -16.3051   26.0398 N   0  0  0  0  0  0  0  0  0  0  0  0
    7.0452  -16.6965   24.8959 C   0  0  1  0  0  0  0  0  0  0  0  0
    6.0767  -15.5598   24.6007 C   0  0  0  0  0  0  0  0  0  0  0  0
    6.5807  -14.2549   25.0683 C   0  0  0  0  0  0  0  0  0  0  0  0
    7.4637  -13.4800   24.3668 C   0  0  0  0  0  0  0  0  0  0  0  0
    7.9219  -12.2691   24.8161 C   0  0  0  0  0  0  0  0  0  0  0  0
    7.4751  -11.7951   26.0418 C   0  0  0  0  0  0  0  0  0  0  0  0
    6.5859  -12.5541   26.7698 C   0  0  0  0  0  0  0  0  0  0  0  0
    6.1423  -13.7702   26.2907 C   0  0  0  0  0  0  0  0  0  0  0  0
    7.8944  -16.8627   23.6917 C   0  0  0  0  0  0  0  0  0  0  0  0
    7.5826  -17.7506   22.8663 O   0  0  0  0  0  0  0  0  0  0  0  0
    9.0428  -16.0704   23.4219 N   0  0  0  0  0  0  0  0  0  0  0  0
   10.2522  -16.6028   22.8627 C   0  0  1  0  0  0  0  0  0  0  0  0
   10.7837  -15.7709   21.7426 C   0  0  0  0  0  0  0  0  0  0  0  0
   11.5991  -16.5434   20.7746 C   0  0  0  0  0  0  0  0  0  0  0  0
   11.8059  -17.7745   20.9135 O   0  0  0  0  0  0  0  0  0  0  0  0
   11.2879  -16.8105   23.9356 C   0  0  0  0  0  0  0  0  0  0  0  0
   12.1759  -15.9219   24.1187 O   0  0  0  0  0  0  0  0  0  0  0  0
   12.1726  -15.9367   19.6665 O   0  0  0  0  0  0  0  0  0  0  0  0
    9.0279  -13.3644   28.8729 O   0  0  0  0  0  0  0  0  0  0  0  0
    9.6084  -14.5580   28.4443 C   0  0  0  0  0  0  0  0  0  0  0  0
    8.8530  -15.6691   28.1347 C   0  0  0  0  0  0  0  0  0  0  0  0
    9.4028  -16.8557   27.7103 C   0  0  0  0  0  0  0  0  0  0  0  0
   10.7688  -16.9850   27.5740 C   0  0  0  0  0  0  0  0  0  0  0  0
   11.3857  -18.2532   27.1325 C   0  0  0  0  0  0  0  0  0  0  0  0
   12.2212  -18.1266   25.8822 C   0  0  2  0  0  0  0  0  0  0  0  0
   11.3130  -17.9517   24.7465 N   0  0  0  0  0  0  0  0  0  0  0  0
   12.9614  -19.3853   25.6744 C   0  0  0  0  0  0  0  0  0  0  0  0
   14.0471  -19.7906   26.4382 O   0  0  0  0  0  0  0  0  0  0  0  0
   11.5453  -15.8786   27.8810 C   0  0  0  0  0  0  0  0  0  0  0  0
   10.9725  -14.6995   28.3042 C   0  0  0  0  0  0  0  0  0  0  0  0
   12.6140  -20.1636   24.7541 O   0  0  0  0  0  0  0  0  0  0  0  0
  2  1  1  1
  3  2  1  0
  4  3  1  0
  4  9  1  0
  5  4  2  0
  6  5  1  0
  6  7  2  0
  7  8  1  0
  8  9  2  0
 10  2  1  0
 10 11  2  0
 12 10  1  0
 13 12  1  0
 13 14  1  6
 15 14  1  0
 15 19  1  0
 16 15  2  0
 17 13  1  0
 18 17  2  0
 20 21  1  0
 21 22  2  0
 22 23  1  0
 24 23  2  0
 24 25  1  0
 26 25  1  1
 26 28  1  0
 26 27  1  0
 27 17  1  0
 28 29  1  0
 30 24  1  0
 31 21  1  0
 31 30  2  0
 32 28  2  0
M  END
$$$$
