FDY.pdb
     RDKit          3D

 32 33  0  0  1  0  0  0  0  0999 V2000
    6.1362  -17.4287   24.6638 N   0  0  0  0  0  0  0  0  0  0  0  0
    6.9268  -17.2311   23.4718 C   0  0  1  0  0  0  0  0  0  0  0  0
    6.7391  -15.7848   23.0356 C   0  0  0  0  0  0  0  0  0  0  0  0
    7.1692  -14.8246   24.0692 C   0  0  0  0  0  0  0  0  0  0  0  0
    7.7445  -13.6135   23.7961 C   0  0  0  0  0  0  0  0  0  0  0  0
    8.1383  -12.7325   24.7692 C   0  0  0  0  0  0  0  0  0  0  0  0
    7.9492  -13.0748   26.1010 C   0  0  0  0  0  0  0  0  0  0  0  0
    7.3724  -14.2879   26.4055 C   0  0  0  0  0  0  0  0  0  0  0  0
    6.9860  -15.1544   25.4030 C   0  0  0  0  0  0  0  0  0  0  0  0
    8.3716  -17.4125   23.7522 C   0  0  0  0  0  0  0  0  0  0  0  0
    8.7153  -18.3597   24.4949 O   0  0  0  0  0  0  0  0  0  0  0  0
    9.3883  -16.5713   23.2249 N   0  0  0  0  0  0  0  0  0  0  0  0
   10.7849  -16.8954   23.2807 C   0  0  1  0  0  0  0  0  0  0  0  0
   11.6106  -16.0421   22.3756 C   0  0  0  0  0  0  0  0  0  0  0  0
   13.0015  -16.5309   22.2168 C   0  0  0  0  0  0  0  0  0  0  0  0
   13.9812  -15.9195   22.7111 O   0  0  0  0  0  0  0  0  0  0  0  0
   11.2870  -16.8424   24.6992 C   0  0  0  0  0  0  0  0  0  0  0  0
   12.2806  -16.1025   24.9766 O   0  0  0  0  0  0  0  0  0  0  0  0
   13.2835  -17.6918   21.5112 O   0  0  0  0  0  0  0  0  0  0  0  0
    8.4655  -11.7135   27.7955 O   0  0  0  0  0  0  0  0  0  0  0  0
    8.8437  -13.0551   27.8470 C   0  0  0  0  0  0  0  0  0  0  0  0
    8.3248  -13.9952   26.9822 C   0  0  0  0  0  0  0  0  0  0  0  0
    8.6825  -15.3224   27.0141 C   0  0  0  0  0  0  0  0  0  0  0  0
    9.5995  -15.7781   27.9375 C   0  0  0  0  0  0  0  0  0  0  0  0
    9.9911  -17.2015   28.0015 C   0  0  0  0  0  0  0  0  0  0  0  0
   11.1652  -17.5551   27.1218 C   0  0  2  0  0  0  0  0  0  0  0  0
   10.6994  -17.5808   25.7335 N   0  0  0  0  0  0  0  0  0  0  0  0
   11.6257  -18.9137   27.4653 C   0  0  0  0  0  0  0  0  0  0  0  0
   11.5717  -20.0002   26.6034 O   0  0  0  0  0  0  0  0  0  0  0  0
   10.1323  -14.8476   28.8160 C   0  0  0  0  0  0  0  0  0  0  0  0
    9.7592  -13.5226   28.7655 C   0  0  0  0  0  0  0  0  0  0  0  0
   12.1020  -19.1369   28.6040 O   0  0  0  0  0  0  0  0  0  0  0  0
  2  1  1  1
  3  2  1  0
  4  3  1  0
  4  9  1  0
  5  4  2  0
  6  5  1  0
  6  7  2  0
  7  8  1  0
  8  9  2  0
 10  2  1  0
 10 11  2  0
 12 10  1  0
 13 12  1  0
 13 14  1  6
 15 14  1  0
 15 19  1  0
 16 15  2  0
 17 13  1  0
 18 17  2  0
 20 21  1  0
 21 22  2  0
 22 23  1  0
 24 23  2  0
 24 25  1  0
 26 25  1  1
 26 28  1  0
 26 27  1  0
 27 17  1  0
 28 29  1  0
 30 24  1  0
 31 21  1  0
 31 30  2  0
 32 28  2  0
M  END
$$$$
