FDY.pdb
     RDKit          3D

 32 33  0  0  1  0  0  0  0  0999 V2000
    8.6562  -17.8076   18.3243 N   0  0  0  0  0  0  0  0  0  0  0  0
    9.1594  -16.4972   18.6624 C   0  0  1  0  0  0  0  0  0  0  0  0
    8.4788  -16.0676   19.9545 C   0  0  0  0  0  0  0  0  0  0  0  0
    8.4272  -14.6011   20.1031 C   0  0  0  0  0  0  0  0  0  0  0  0
    8.5309  -13.9497   21.3019 C   0  0  0  0  0  0  0  0  0  0  0  0
    8.4812  -12.5854   21.4221 C   0  0  0  0  0  0  0  0  0  0  0  0
    8.3179  -11.8162   20.2784 C   0  0  0  0  0  0  0  0  0  0  0  0
    8.2108  -12.4452   19.0578 C   0  0  0  0  0  0  0  0  0  0  0  0
    8.2645  -13.8214   18.9686 C   0  0  0  0  0  0  0  0  0  0  0  0
   10.6163  -16.5379   18.9356 C   0  0  0  0  0  0  0  0  0  0  0  0
   11.0449  -17.4058   19.7293 O   0  0  0  0  0  0  0  0  0  0  0  0
   11.5536  -15.6467   18.3470 N   0  0  0  0  0  0  0  0  0  0  0  0
   12.9541  -15.6593   18.6588 C   0  0  1  0  0  0  0  0  0  0  0  0
   13.7889  -15.0456   17.5838 C   0  0  0  0  0  0  0  0  0  0  0  0
   15.2438  -15.1111   17.8622 C   0  0  0  0  0  0  0  0  0  0  0  0
   15.7743  -16.1194   18.3911 O   0  0  0  0  0  0  0  0  0  0  0  0
   13.2078  -15.0098   19.9932 C   0  0  0  0  0  0  0  0  0  0  0  0
   13.1923  -13.7432   20.0777 O   0  0  0  0  0  0  0  0  0  0  0  0
   16.0879  -14.0555   17.5490 O   0  0  0  0  0  0  0  0  0  0  0  0
   12.5293  -21.4233   23.3875 O   0  0  0  0  0  0  0  0  0  0  0  0
   12.6173  -20.0314   23.4085 C   0  0  0  0  0  0  0  0  0  0  0  0
   13.6692  -19.3739   24.0102 C   0  0  0  0  0  0  0  0  0  0  0  0
   13.7773  -18.0036   24.0432 C   0  0  0  0  0  0  0  0  0  0  0  0
   12.8115  -17.2111   23.4599 C   0  0  0  0  0  0  0  0  0  0  0  0
   12.8971  -15.7363   23.4929 C   0  0  0  0  0  0  0  0  0  0  0  0
   13.8111  -15.1510   22.4444 C   0  0  2  0  0  0  0  0  0  0  0  0
   13.4622  -15.7499   21.1542 N   0  0  0  0  0  0  0  0  0  0  0  0
   15.2008  -15.5351   22.7557 C   0  0  0  0  0  0  0  0  0  0  0  0
   15.9384  -15.0179   23.8115 O   0  0  0  0  0  0  0  0  0  0  0  0
   11.7456  -17.8540   22.8500 C   0  0  0  0  0  0  0  0  0  0  0  0
   11.6581  -19.2285   22.8289 C   0  0  0  0  0  0  0  0  0  0  0  0
   15.7850  -16.3817   22.0379 O   0  0  0  0  0  0  0  0  0  0  0  0
  2  1  1  1
  3  2  1  0
  4  3  1  0
  4  9  1  0
  5  4  2  0
  6  5  1  0
  6  7  2  0
  7  8  1  0
  8  9  2  0
 10  2  1  0
 10 11  2  0
 12 10  1  0
 13 12  1  0
 13 14  1  6
 15 14  1  0
 15 19  1  0
 16 15  2  0
 17 13  1  0
 18 17  2  0
 20 21  1  0
 21 22  2  0
 22 23  1  0
 24 23  2  0
 24 25  1  0
 26 25  1  1
 26 28  1  0
 26 27  1  0
 27 17  1  0
 28 29  1  0
 30 24  1  0
 31 21  1  0
 31 30  2  0
 32 28  2  0
M  END
$$$$
