FDY.pdb
     RDKit          3D

 32 33  0  0  1  0  0  0  0  0999 V2000
    6.1521  -17.1767   24.6516 N   0  0  0  0  0  0  0  0  0  0  0  0
    7.2006  -16.2767   24.2329 C   0  0  1  0  0  0  0  0  0  0  0  0
    7.7255  -15.5780   25.4793 C   0  0  0  0  0  0  0  0  0  0  0  0
    7.3930  -14.1412   25.5016 C   0  0  0  0  0  0  0  0  0  0  0  0
    7.9015  -13.2247   24.6220 C   0  0  0  0  0  0  0  0  0  0  0  0
    7.5816  -11.8926   24.6566 C   0  0  0  0  0  0  0  0  0  0  0  0
    6.6992  -11.4392   25.6274 C   0  0  0  0  0  0  0  0  0  0  0  0
    6.1717  -12.3396   26.5262 C   0  0  0  0  0  0  0  0  0  0  0  0
    6.5131  -13.6755   26.4661 C   0  0  0  0  0  0  0  0  0  0  0  0
    8.3401  -17.0204   23.6436 C   0  0  0  0  0  0  0  0  0  0  0  0
    8.6825  -18.0988   24.1790 O   0  0  0  0  0  0  0  0  0  0  0  0
    9.0656  -16.5775   22.5048 N   0  0  0  0  0  0  0  0  0  0  0  0
   10.3861  -17.0388   22.1851 C   0  0  1  0  0  0  0  0  0  0  0  0
   10.8446  -16.5842   20.8389 C   0  0  0  0  0  0  0  0  0  0  0  0
    9.9560  -17.0259   19.7370 C   0  0  0  0  0  0  0  0  0  0  0  0
    9.8801  -18.2299   19.3868 O   0  0  0  0  0  0  0  0  0  0  0  0
   11.3621  -16.6461   23.2622 C   0  0  0  0  0  0  0  0  0  0  0  0
   11.9099  -15.5019   23.2135 O   0  0  0  0  0  0  0  0  0  0  0  0
    9.1650  -16.1236   19.0406 O   0  0  0  0  0  0  0  0  0  0  0  0
    8.3924  -13.9182   28.9213 O   0  0  0  0  0  0  0  0  0  0  0  0
    9.3011  -14.8235   28.3734 C   0  0  0  0  0  0  0  0  0  0  0  0
   10.4965  -15.1243   28.9909 C   0  0  0  0  0  0  0  0  0  0  0  0
   11.4073  -16.0130   28.4701 C   0  0  0  0  0  0  0  0  0  0  0  0
   11.1540  -16.6561   27.2769 C   0  0  0  0  0  0  0  0  0  0  0  0
   12.1219  -17.6055   26.6891 C   0  0  0  0  0  0  0  0  0  0  0  0
   12.6788  -17.1679   25.3565 C   0  0  2  0  0  0  0  0  0  0  0  0
   11.6935  -17.4966   24.3240 N   0  0  0  0  0  0  0  0  0  0  0  0
   13.9009  -17.9436   25.0730 C   0  0  0  0  0  0  0  0  0  0  0  0
   13.9384  -19.0855   24.2849 O   0  0  0  0  0  0  0  0  0  0  0  0
    9.9570  -16.3664   26.6409 C   0  0  0  0  0  0  0  0  0  0  0  0
    9.0592  -15.4725   27.1815 C   0  0  0  0  0  0  0  0  0  0  0  0
   14.9957  -17.5754   25.5620 O   0  0  0  0  0  0  0  0  0  0  0  0
  2  1  1  1
  3  2  1  0
  4  3  1  0
  4  9  1  0
  5  4  2  0
  6  5  1  0
  6  7  2  0
  7  8  1  0
  8  9  2  0
 10  2  1  0
 10 11  2  0
 12 10  1  0
 13 12  1  0
 13 14  1  6
 15 14  1  0
 15 19  1  0
 16 15  2  0
 17 13  1  0
 18 17  2  0
 20 21  1  0
 21 22  2  0
 22 23  1  0
 24 23  2  0
 24 25  1  0
 26 25  1  1
 26 28  1  0
 26 27  1  0
 27 17  1  0
 28 29  1  0
 30 24  1  0
 31 21  1  0
 31 30  2  0
 32 28  2  0
M  END
$$$$
