FDY.pdb
     RDKit          3D

 32 33  0  0  1  0  0  0  0  0999 V2000
    6.8301  -18.7506   21.9327 N   0  0  0  0  0  0  0  0  0  0  0  0
    7.5054  -17.4783   21.8331 C   0  0  1  0  0  0  0  0  0  0  0  0
    6.6105  -16.4354   22.4879 C   0  0  0  0  0  0  0  0  0  0  0  0
    6.9379  -15.0629   22.0582 C   0  0  0  0  0  0  0  0  0  0  0  0
    7.2246  -14.7137   20.7666 C   0  0  0  0  0  0  0  0  0  0  0  0
    7.5266  -13.4327   20.3843 C   0  0  0  0  0  0  0  0  0  0  0  0
    7.5457  -12.4320   21.3460 C   0  0  0  0  0  0  0  0  0  0  0  0
    7.2611  -12.7547   22.6543 C   0  0  0  0  0  0  0  0  0  0  0  0
    6.9604  -14.0543   23.0088 C   0  0  0  0  0  0  0  0  0  0  0  0
    8.7803  -17.4888   22.5902 C   0  0  0  0  0  0  0  0  0  0  0  0
    8.8957  -18.2929   23.5426 O   0  0  0  0  0  0  0  0  0  0  0  0
    9.8789  -16.6370   22.2955 N   0  0  0  0  0  0  0  0  0  0  0  0
   11.1782  -16.7974   22.8826 C   0  0  1  0  0  0  0  0  0  0  0  0
   12.2341  -16.0239   22.1641 C   0  0  0  0  0  0  0  0  0  0  0  0
   12.6286  -16.6325   20.8707 C   0  0  0  0  0  0  0  0  0  0  0  0
   13.4446  -16.0748   20.0955 O   0  0  0  0  0  0  0  0  0  0  0  0
   11.1454  -16.4559   24.3486 C   0  0  0  0  0  0  0  0  0  0  0  0
   12.2286  -16.1553   24.9384 O   0  0  0  0  0  0  0  0  0  0  0  0
   12.1107  -17.8515   20.4578 O   0  0  0  0  0  0  0  0  0  0  0  0
    6.9953  -10.5732   26.6292 O   0  0  0  0  0  0  0  0  0  0  0  0
    7.3551  -11.9183   26.7107 C   0  0  0  0  0  0  0  0  0  0  0  0
    8.6090  -12.3164   27.1229 C   0  0  0  0  0  0  0  0  0  0  0  0
    8.9861  -13.6357   27.2111 C   0  0  0  0  0  0  0  0  0  0  0  0
    8.1009  -14.6402   26.8816 C   0  0  0  0  0  0  0  0  0  0  0  0
    8.4853  -16.0652   26.9550 C   0  0  0  0  0  0  0  0  0  0  0  0
    9.9146  -16.3366   26.5539 C   0  0  2  0  0  0  0  0  0  0  0  0
    9.9606  -16.4560   25.0949 N   0  0  0  0  0  0  0  0  0  0  0  0
   10.3312  -17.6321   27.1229 C   0  0  0  0  0  0  0  0  0  0  0  0
   10.4894  -18.7970   26.3851 O   0  0  0  0  0  0  0  0  0  0  0  0
    6.8350  -14.2596   26.4645 C   0  0  0  0  0  0  0  0  0  0  0  0
    6.4790  -12.9313   26.3839 C   0  0  0  0  0  0  0  0  0  0  0  0
   10.5647  -17.7224   28.3520 O   0  0  0  0  0  0  0  0  0  0  0  0
  2  1  1  1
  3  2  1  0
  4  3  1  0
  4  9  1  0
  5  4  2  0
  6  5  1  0
  6  7  2  0
  7  8  1  0
  8  9  2  0
 10  2  1  0
 10 11  2  0
 12 10  1  0
 13 12  1  0
 13 14  1  6
 15 14  1  0
 15 19  1  0
 16 15  2  0
 17 13  1  0
 18 17  2  0
 20 21  1  0
 21 22  2  0
 22 23  1  0
 24 23  2  0
 24 25  1  0
 26 25  1  6
 26 28  1  0
 26 27  1  0
 27 17  1  0
 28 29  1  0
 30 24  1  0
 31 21  1  0
 31 30  2  0
 32 28  2  0
M  END
$$$$
