FDY.pdb
     RDKit          3D

 32 33  0  0  1  0  0  0  0  0999 V2000
    6.5246  -18.6079   19.7676 N   0  0  0  0  0  0  0  0  0  0  0  0
    7.2605  -17.3658   19.7476 C   0  0  1  0  0  0  0  0  0  0  0  0
    6.2942  -16.2578   20.1427 C   0  0  0  0  0  0  0  0  0  0  0  0
    6.9228  -14.9240   20.1090 C   0  0  0  0  0  0  0  0  0  0  0  0
    7.4550  -14.3575   18.9828 C   0  0  0  0  0  0  0  0  0  0  0  0
    8.0355  -13.1161   18.9689 C   0  0  0  0  0  0  0  0  0  0  0  0
    8.0921  -12.3884   20.1495 C   0  0  0  0  0  0  0  0  0  0  0  0
    7.5643  -12.9339   21.2987 C   0  0  0  0  0  0  0  0  0  0  0  0
    6.9858  -14.1869   21.2812 C   0  0  0  0  0  0  0  0  0  0  0  0
    8.3462  -17.3711   20.7575 C   0  0  0  0  0  0  0  0  0  0  0  0
    8.0770  -17.7706   21.9129 O   0  0  0  0  0  0  0  0  0  0  0  0
    9.6757  -16.9480   20.4875 N   0  0  0  0  0  0  0  0  0  0  0  0
   10.7443  -17.0569   21.4387 C   0  0  1  0  0  0  0  0  0  0  0  0
   12.0903  -16.8913   20.8140 C   0  0  0  0  0  0  0  0  0  0  0  0
   12.5040  -18.0566   19.9957 C   0  0  0  0  0  0  0  0  0  0  0  0
   12.3700  -19.2367   20.4046 O   0  0  0  0  0  0  0  0  0  0  0  0
   10.5425  -16.0936   22.5781 C   0  0  0  0  0  0  0  0  0  0  0  0
   10.5320  -14.8467   22.3397 O   0  0  0  0  0  0  0  0  0  0  0  0
   13.0605  -17.8937   18.7353 O   0  0  0  0  0  0  0  0  0  0  0  0
    6.0240  -11.6534   28.3126 O   0  0  0  0  0  0  0  0  0  0  0  0
    6.6231  -12.5207   27.3992 C   0  0  0  0  0  0  0  0  0  0  0  0
    7.8526  -12.2540   26.8353 C   0  0  0  0  0  0  0  0  0  0  0  0
    8.4625  -13.0936   25.9333 C   0  0  0  0  0  0  0  0  0  0  0  0
    7.8517  -14.2677   25.5464 C   0  0  0  0  0  0  0  0  0  0  0  0
    8.4796  -15.1809   24.5689 C   0  0  0  0  0  0  0  0  0  0  0  0
    9.8523  -15.6613   24.9716 C   0  0  2  0  0  0  0  0  0  0  0  0
   10.3644  -16.5186   23.9003 N   0  0  0  0  0  0  0  0  0  0  0  0
    9.7301  -16.4877   26.1872 C   0  0  0  0  0  0  0  0  0  0  0  0
    9.3257  -17.8154   26.1942 O   0  0  0  0  0  0  0  0  0  0  0  0
    6.6145  -14.5532   26.1025 C   0  0  0  0  0  0  0  0  0  0  0  0
    6.0224  -13.6972   27.0047 C   0  0  0  0  0  0  0  0  0  0  0  0
   10.0006  -15.9883   27.3056 O   0  0  0  0  0  0  0  0  0  0  0  0
  2  1  1  1
  3  2  1  0
  4  3  1  0
  4  9  1  0
  5  4  2  0
  6  5  1  0
  6  7  2  0
  7  8  1  0
  8  9  2  0
 10  2  1  0
 10 11  2  0
 12 10  1  0
 13 12  1  0
 13 14  1  6
 15 14  1  0
 15 19  1  0
 16 15  2  0
 17 13  1  0
 18 17  2  0
 20 21  1  0
 21 22  2  0
 22 23  1  0
 24 23  2  0
 24 25  1  0
 26 25  1  6
 26 28  1  0
 26 27  1  0
 27 17  1  0
 28 29  1  0
 30 24  1  0
 31 21  1  0
 31 30  2  0
 32 28  2  0
M  END
$$$$
