FDY.pdb
     RDKit          3D

 32 33  0  0  1  0  0  0  0  0999 V2000
    7.7303  -17.6164   19.7472 N   0  0  0  0  0  0  0  0  0  0  0  0
    9.1698  -17.5795   19.6411 C   0  0  1  0  0  0  0  0  0  0  0  0
    9.5390  -16.3031   18.8983 C   0  0  0  0  0  0  0  0  0  0  0  0
    8.7663  -15.1366   19.3648 C   0  0  0  0  0  0  0  0  0  0  0  0
    7.4031  -15.0433   19.2914 C   0  0  0  0  0  0  0  0  0  0  0  0
    6.7004  -13.9515   19.7301 C   0  0  0  0  0  0  0  0  0  0  0  0
    7.3949  -12.8818   20.2777 C   0  0  0  0  0  0  0  0  0  0  0  0
    8.7679  -12.9483   20.3641 C   0  0  0  0  0  0  0  0  0  0  0  0
    9.4479  -14.0616   19.9136 C   0  0  0  0  0  0  0  0  0  0  0  0
    9.8028  -17.4976   20.9795 C   0  0  0  0  0  0  0  0  0  0  0  0
    9.9598  -16.3659   21.4910 O   0  0  0  0  0  0  0  0  0  0  0  0
   10.2414  -18.6319   21.7146 N   0  0  0  0  0  0  0  0  0  0  0  0
   11.0567  -18.5394   22.8916 C   0  0  1  0  0  0  0  0  0  0  0  0
   11.1678  -19.8388   23.6186 C   0  0  0  0  0  0  0  0  0  0  0  0
   11.5072  -19.6805   25.0534 C   0  0  0  0  0  0  0  0  0  0  0  0
   11.6619  -18.5500   25.5787 O   0  0  0  0  0  0  0  0  0  0  0  0
   12.4126  -17.9768   22.5567 C   0  0  0  0  0  0  0  0  0  0  0  0
   13.0414  -18.4337   21.5531 O   0  0  0  0  0  0  0  0  0  0  0  0
   11.6696  -20.7803   25.8833 O   0  0  0  0  0  0  0  0  0  0  0  0
   13.7034  -14.3374   16.9883 O   0  0  0  0  0  0  0  0  0  0  0  0
   13.8403  -14.5071   18.3660 C   0  0  0  0  0  0  0  0  0  0  0  0
   12.7591  -14.4586   19.2201 C   0  0  0  0  0  0  0  0  0  0  0  0
   12.8698  -14.6230   20.5807 C   0  0  0  0  0  0  0  0  0  0  0  0
   14.1002  -14.8491   21.1606 C   0  0  0  0  0  0  0  0  0  0  0  0
   14.2481  -15.0159   22.6214 C   0  0  0  0  0  0  0  0  0  0  0  0
   14.3649  -16.4533   23.0662 C   0  0  2  0  0  0  0  0  0  0  0  0
   13.0137  -16.9624   23.3118 N   0  0  0  0  0  0  0  0  0  0  0  0
   15.1000  -16.4982   24.3441 C   0  0  0  0  0  0  0  0  0  0  0  0
   16.4270  -16.1220   24.4979 O   0  0  0  0  0  0  0  0  0  0  0  0
   15.1995  -14.9009   20.3179 C   0  0  0  0  0  0  0  0  0  0  0  0
   15.0649  -14.7335   18.9573 C   0  0  0  0  0  0  0  0  0  0  0  0
   14.5175  -16.8994   25.3800 O   0  0  0  0  0  0  0  0  0  0  0  0
  2  1  1  1
  3  2  1  0
  4  3  1  0
  4  9  1  0
  5  4  2  0
  6  5  1  0
  6  7  2  0
  7  8  1  0
  8  9  2  0
 10  2  1  0
 10 11  2  0
 12 10  1  0
 13 12  1  0
 13 14  1  6
 15 14  1  0
 15 19  1  0
 16 15  2  0
 17 13  1  0
 18 17  2  0
 20 21  1  0
 21 22  2  0
 22 23  1  0
 24 23  2  0
 24 25  1  0
 26 25  1  1
 26 28  1  0
 26 27  1  0
 27 17  1  0
 28 29  1  0
 30 24  1  0
 31 21  1  0
 31 30  2  0
 32 28  2  0
M  END
$$$$
