MQK.pdb
     RDKit          3D

 27 26  0  0  1  0  0  0  0  0999 V2000
    6.5299  -11.3904   27.8803 C   0  0  0  0  0  0  0  0  0  0  0  0
    5.9489  -11.4863   26.1847 S   0  0  0  0  0  0  0  0  0  0  0  0
    6.8267  -12.7759   25.2536 C   0  0  0  0  0  0  0  0  0  0  0  0
    6.1517  -14.0881   25.4614 C   0  0  0  0  0  0  0  0  0  0  0  0
    7.0512  -15.2645   25.2773 C   0  0  2  0  0  0  0  0  0  0  0  0
    8.2282  -15.1052   26.1048 N   0  0  0  0  0  0  0  0  0  0  0  0
    7.4764  -15.3538   23.8533 C   0  0  0  0  0  0  0  0  0  0  0  0
    6.7444  -15.9271   22.9784 O   0  0  0  0  0  0  0  0  0  0  0  0
    6.3439  -15.0759   19.8180 N   0  0  0  0  0  0  0  0  0  0  0  0
    7.3662  -14.1161   19.5859 C   0  0  0  0  0  0  0  0  0  0  0  0
    7.8042  -13.9381   18.4387 O   0  0  0  0  0  0  0  0  0  0  0  0
    7.8723  -13.3537   20.7621 C   0  0  0  0  0  0  0  0  0  0  0  0
    9.1954  -13.9074   21.1485 C   0  0  0  0  0  0  0  0  0  0  0  0
    9.2090  -15.0803   22.0413 C   0  0  2  0  0  0  0  0  0  0  0  0
    8.7043  -14.8170   23.3764 N   0  0  0  0  0  0  0  0  0  0  0  0
   10.5355  -15.7899   22.1139 C   0  0  0  0  0  0  0  0  0  0  0  0
   11.1568  -16.0212   21.0475 O   0  0  0  0  0  0  0  0  0  0  0  0
   11.0261  -16.1648   23.3715 N   0  0  0  0  0  0  0  0  0  0  0  0
   11.8723  -17.2485   23.7329 C   0  0  1  0  0  0  0  0  0  0  0  0
   11.3536  -18.0603   24.8679 C   0  0  0  0  0  0  0  0  0  0  0  0
   12.2860  -19.1766   25.2226 C   0  0  0  0  0  0  0  0  0  0  0  0
   11.7023  -20.0165   26.3558 C   0  0  0  0  0  0  0  0  0  0  0  0
   12.7732  -21.0555   26.6870 C   0  0  0  0  0  0  0  0  0  0  0  0
   12.3366  -21.8735   27.8085 N   0  0  0  0  0  0  0  0  0  0  0  0
   12.2868  -18.0510   22.5693 C   0  0  0  0  0  0  0  0  0  0  0  0
   11.5203  -18.7646   21.9101 O   0  0  0  0  0  0  0  0  0  0  0  0
   13.6230  -18.0033   22.1887 O   0  0  0  0  0  0  0  0  0  0  0  0
  2  1  1  0
  3  4  1  0
  3  2  1  0
  4  5  1  0
  5  6  1  1
  7  5  1  0
  8  7  2  0
 10  9  1  0
 11 10  2  0
 12 10  1  0
 14 13  1  1
 13 12  1  0
 14 15  1  0
 15  7  1  0
 16 14  1  0
 17 16  2  0
 18 16  1  0
 19 25  1  0
 19 18  1  0
 19 20  1  1
 21 20  1  0
 22 21  1  0
 22 23  1  0
 23 24  1  0
 25 27  1  0
 26 25  2  0
M  END
$$$$
