MQK.pdb
     RDKit          3D

 27 26  0  0  1  0  0  0  0  0999 V2000
    6.6345  -12.1871   19.6650 C   0  0  0  0  0  0  0  0  0  0  0  0
    8.4152  -12.0411   19.4930 S   0  0  0  0  0  0  0  0  0  0  0  0
    9.2513  -13.6049   19.8883 C   0  0  0  0  0  0  0  0  0  0  0  0
   10.7131  -13.4671   19.6341 C   0  0  0  0  0  0  0  0  0  0  0  0
   11.4834  -14.7272   19.8474 C   0  0  2  0  0  0  0  0  0  0  0  0
   11.3149  -15.5949   18.7010 N   0  0  0  0  0  0  0  0  0  0  0  0
   10.9735  -15.4290   21.0574 C   0  0  0  0  0  0  0  0  0  0  0  0
   10.9098  -14.8387   22.1876 O   0  0  0  0  0  0  0  0  0  0  0  0
    7.4599  -19.8721   20.4910 N   0  0  0  0  0  0  0  0  0  0  0  0
    8.7810  -20.3677   20.3204 C   0  0  0  0  0  0  0  0  0  0  0  0
    9.0031  -21.2835   19.5132 O   0  0  0  0  0  0  0  0  0  0  0  0
    9.8589  -19.7461   21.1407 C   0  0  0  0  0  0  0  0  0  0  0  0
    9.2592  -18.6668   21.9665 C   0  0  0  0  0  0  0  0  0  0  0  0
   10.0845  -17.4749   22.2337 C   0  0  2  0  0  0  0  0  0  0  0  0
   10.5299  -16.7803   21.0397 N   0  0  0  0  0  0  0  0  0  0  0  0
   11.2460  -17.7192   23.1609 C   0  0  0  0  0  0  0  0  0  0  0  0
   12.4109  -17.6835   22.6934 O   0  0  0  0  0  0  0  0  0  0  0  0
   10.9811  -17.9769   24.5122 N   0  0  0  0  0  0  0  0  0  0  0  0
   11.8550  -18.4158   25.5440 C   0  0  1  0  0  0  0  0  0  0  0  0
   11.1490  -18.8717   26.7730 C   0  0  0  0  0  0  0  0  0  0  0  0
   12.1058  -19.3829   27.8045 C   0  0  0  0  0  0  0  0  0  0  0  0
   11.3482  -19.8677   29.0379 C   0  0  0  0  0  0  0  0  0  0  0  0
   12.4217  -20.1754   30.0815 C   0  0  0  0  0  0  0  0  0  0  0  0
   11.7938  -20.5676   31.3342 N   0  0  0  0  0  0  0  0  0  0  0  0
   12.8702  -19.3649   25.0558 C   0  0  0  0  0  0  0  0  0  0  0  0
   14.0870  -19.2345   25.2393 O   0  0  0  0  0  0  0  0  0  0  0  0
   12.4330  -20.4765   24.3446 O   0  0  0  0  0  0  0  0  0  0  0  0
  2  1  1  0
  3  4  1  0
  3  2  1  0
  4  5  1  0
  5  6  1  6
  7  5  1  0
  8  7  2  0
 10  9  1  0
 11 10  2  0
 12 10  1  0
 14 13  1  6
 13 12  1  0
 14 15  1  0
 15  7  1  0
 16 14  1  0
 17 16  2  0
 18 16  1  0
 19 25  1  0
 19 18  1  0
 19 20  1  1
 21 20  1  0
 22 21  1  0
 22 23  1  0
 23 24  1  0
 25 27  1  0
 26 25  2  0
M  END
$$$$
