MQK.pdb
     RDKit          3D

 27 26  0  0  1  0  0  0  0  0999 V2000
    6.6517  -13.3663   21.6637 C   0  0  0  0  0  0  0  0  0  0  0  0
    6.9184  -12.0547   20.4676 S   0  0  0  0  0  0  0  0  0  0  0  0
    7.6911  -12.6868   18.9497 C   0  0  0  0  0  0  0  0  0  0  0  0
    8.8733  -13.5225   19.3025 C   0  0  0  0  0  0  0  0  0  0  0  0
    9.5243  -14.1725   18.1276 C   0  0  2  0  0  0  0  0  0  0  0  0
    8.5729  -15.0431   17.4701 N   0  0  0  0  0  0  0  0  0  0  0  0
   10.6835  -14.9881   18.5831 C   0  0  0  0  0  0  0  0  0  0  0  0
   10.5245  -16.1741   19.0282 O   0  0  0  0  0  0  0  0  0  0  0  0
   16.1804  -14.8398   16.3208 N   0  0  0  0  0  0  0  0  0  0  0  0
   16.3109  -13.9578   17.4276 C   0  0  0  0  0  0  0  0  0  0  0  0
   17.2719  -13.1754   17.4904 O   0  0  0  0  0  0  0  0  0  0  0  0
   15.2601  -14.0195   18.4825 C   0  0  0  0  0  0  0  0  0  0  0  0
   14.3628  -15.1658   18.1870 C   0  0  0  0  0  0  0  0  0  0  0  0
   13.1481  -15.3101   19.0097 C   0  0  2  0  0  0  0  0  0  0  0  0
   12.0238  -14.5127   18.5549 N   0  0  0  0  0  0  0  0  0  0  0  0
   13.3703  -15.1076   20.4856 C   0  0  0  0  0  0  0  0  0  0  0  0
   13.4259  -13.9359   20.9336 O   0  0  0  0  0  0  0  0  0  0  0  0
   13.5060  -16.2371   21.3032 N   0  0  0  0  0  0  0  0  0  0  0  0
   13.7895  -16.3262   22.6934 C   0  0  1  0  0  0  0  0  0  0  0  0
   13.2607  -17.5616   23.3343 C   0  0  0  0  0  0  0  0  0  0  0  0
   13.5103  -17.5707   24.8103 C   0  0  0  0  0  0  0  0  0  0  0  0
   12.8576  -18.7925   25.4519 C   0  0  0  0  0  0  0  0  0  0  0  0
   13.0123  -18.5934   26.9594 C   0  0  0  0  0  0  0  0  0  0  0  0
   12.2463  -19.6050   27.6717 N   0  0  0  0  0  0  0  0  0  0  0  0
   15.2061  -16.0595   22.9971 C   0  0  0  0  0  0  0  0  0  0  0  0
   16.1470  -16.3923   22.2655 O   0  0  0  0  0  0  0  0  0  0  0  0
   15.5035  -15.3920   24.1796 O   0  0  0  0  0  0  0  0  0  0  0  0
  2  1  1  0
  3  4  1  0
  3  2  1  0
  4  5  1  0
  5  6  1  1
  7  5  1  0
  8  7  2  0
 10  9  1  0
 11 10  2  0
 12 10  1  0
 14 13  1  6
 13 12  1  0
 14 15  1  0
 15  7  1  0
 16 14  1  0
 17 16  2  0
 18 16  1  0
 19 25  1  0
 19 18  1  0
 19 20  1  6
 21 20  1  0
 22 21  1  0
 22 23  1  0
 23 24  1  0
 25 27  1  0
 26 25  2  0
M  END
$$$$
