MQK.pdb
     RDKit          3D

 27 26  0  0  1  0  0  0  0  0999 V2000
    5.8560  -11.1450   26.0949 C   0  0  0  0  0  0  0  0  0  0  0  0
    6.6655  -12.4877   26.9690 S   0  0  0  0  0  0  0  0  0  0  0  0
    6.0706  -14.1064   26.3976 C   0  0  0  0  0  0  0  0  0  0  0  0
    7.1017  -14.7376   25.5264 C   0  0  0  0  0  0  0  0  0  0  0  0
    6.5398  -15.4151   24.3213 C   0  0  2  0  0  0  0  0  0  0  0  0
    5.7717  -16.5711   24.7327 N   0  0  0  0  0  0  0  0  0  0  0  0
    7.6485  -15.8678   23.4368 C   0  0  0  0  0  0  0  0  0  0  0  0
    8.0174  -17.0897   23.4102 O   0  0  0  0  0  0  0  0  0  0  0  0
    8.7494  -14.6257   17.9108 N   0  0  0  0  0  0  0  0  0  0  0  0
    8.0376  -13.6964   18.7169 C   0  0  0  0  0  0  0  0  0  0  0  0
    7.1494  -12.9897   18.2157 O   0  0  0  0  0  0  0  0  0  0  0  0
    8.4038  -13.6167   20.1593 C   0  0  0  0  0  0  0  0  0  0  0  0
    9.4840  -14.6009   20.4261 C   0  0  0  0  0  0  0  0  0  0  0  0
    9.3479  -15.4552   21.6197 C   0  0  2  0  0  0  0  0  0  0  0  0
    8.3611  -14.9878   22.5759 N   0  0  0  0  0  0  0  0  0  0  0  0
   10.6479  -15.7604   22.3162 C   0  0  0  0  0  0  0  0  0  0  0  0
   11.6544  -16.0442   21.6210 O   0  0  0  0  0  0  0  0  0  0  0  0
   10.6841  -15.7149   23.7160 N   0  0  0  0  0  0  0  0  0  0  0  0
   11.6513  -16.2340   24.6193 C   0  0  1  0  0  0  0  0  0  0  0  0
   11.0749  -16.7016   25.9099 C   0  0  0  0  0  0  0  0  0  0  0  0
   12.1253  -17.2702   26.8124 C   0  0  0  0  0  0  0  0  0  0  0  0
   11.5118  -17.6817   28.1483 C   0  0  0  0  0  0  0  0  0  0  0  0
   12.6823  -18.1685   29.0022 C   0  0  0  0  0  0  0  0  0  0  0  0
   12.1916  -18.6419   30.2878 N   0  0  0  0  0  0  0  0  0  0  0  0
   12.5497  -17.2116   23.9813 C   0  0  0  0  0  0  0  0  0  0  0  0
   13.7842  -17.1274   23.9889 O   0  0  0  0  0  0  0  0  0  0  0  0
   11.9737  -18.2963   23.3301 O   0  0  0  0  0  0  0  0  0  0  0  0
  2  1  1  0
  3  4  1  0
  3  2  1  0
  4  5  1  0
  5  6  1  1
  7  5  1  0
  8  7  2  0
 10  9  1  0
 11 10  2  0
 12 10  1  0
 14 13  1  6
 13 12  1  0
 14 15  1  0
 15  7  1  0
 16 14  1  0
 17 16  2  0
 18 16  1  0
 19 25  1  0
 19 18  1  0
 19 20  1  1
 21 20  1  0
 22 21  1  0
 22 23  1  0
 23 24  1  0
 25 27  1  0
 26 25  2  0
M  END
$$$$
