MQK.pdb
     RDKit          3D

 27 26  0  0  1  0  0  0  0  0999 V2000
    6.1039  -11.3111   27.6594 C   0  0  0  0  0  0  0  0  0  0  0  0
    7.1135  -12.5337   26.8179 S   0  0  0  0  0  0  0  0  0  0  0  0
    6.2846  -13.1710   25.3322 C   0  0  0  0  0  0  0  0  0  0  0  0
    5.7213  -14.5212   25.6157 C   0  0  0  0  0  0  0  0  0  0  0  0
    6.6295  -15.6442   25.2404 C   0  0  2  0  0  0  0  0  0  0  0  0
    7.8381  -15.5723   26.0340 N   0  0  0  0  0  0  0  0  0  0  0  0
    6.9953  -15.5350   23.8014 C   0  0  0  0  0  0  0  0  0  0  0  0
    6.1088  -15.6077   22.8856 O   0  0  0  0  0  0  0  0  0  0  0  0
    6.5866  -14.3270   18.7759 N   0  0  0  0  0  0  0  0  0  0  0  0
    7.9492  -14.1634   19.1457 C   0  0  0  0  0  0  0  0  0  0  0  0
    8.8316  -14.8289   18.5817 O   0  0  0  0  0  0  0  0  0  0  0  0
    8.2558  -13.1762   20.2191 C   0  0  0  0  0  0  0  0  0  0  0  0
    7.8757  -13.7691   21.5270 C   0  0  0  0  0  0  0  0  0  0  0  0
    8.6548  -14.9267   22.0025 C   0  0  2  0  0  0  0  0  0  0  0  0
    8.3322  -15.3456   23.3542 N   0  0  0  0  0  0  0  0  0  0  0  0
   10.1451  -14.7803   21.8417 C   0  0  0  0  0  0  0  0  0  0  0  0
   10.6037  -14.4630   20.7166 O   0  0  0  0  0  0  0  0  0  0  0  0
   10.9638  -15.0038   22.9563 N   0  0  0  0  0  0  0  0  0  0  0  0
   11.6914  -16.1654   23.3337 C   0  0  1  0  0  0  0  0  0  0  0  0
   10.8284  -17.3399   23.6377 C   0  0  0  0  0  0  0  0  0  0  0  0
   11.6403  -18.5582   23.9501 C   0  0  0  0  0  0  0  0  0  0  0  0
   10.7271  -19.7271   24.3105 C   0  0  0  0  0  0  0  0  0  0  0  0
   11.6622  -20.8994   24.6063 C   0  0  0  0  0  0  0  0  0  0  0  0
   10.9082  -21.9948   25.1971 N   0  0  0  0  0  0  0  0  0  0  0  0
   12.7955  -16.4641   22.4055 C   0  0  0  0  0  0  0  0  0  0  0  0
   13.9938  -16.3725   22.7004 O   0  0  0  0  0  0  0  0  0  0  0  0
   12.4700  -16.8745   21.1178 O   0  0  0  0  0  0  0  0  0  0  0  0
  2  1  1  0
  3  4  1  0
  3  2  1  0
  4  5  1  0
  5  6  1  1
  7  5  1  0
  8  7  2  0
 10  9  1  0
 11 10  2  0
 12 10  1  0
 14 13  1  1
 13 12  1  0
 14 15  1  0
 15  7  1  0
 16 14  1  0
 17 16  2  0
 18 16  1  0
 19 25  1  0
 19 18  1  0
 19 20  1  6
 21 20  1  0
 22 21  1  0
 22 23  1  0
 23 24  1  0
 25 27  1  0
 26 25  2  0
M  END
$$$$
