MQK.pdb
     RDKit          3D

 27 26  0  0  1  0  0  0  0  0999 V2000
    7.7061  -11.0569   26.7162 C   0  0  0  0  0  0  0  0  0  0  0  0
    6.9370  -12.1664   27.8992 S   0  0  0  0  0  0  0  0  0  0  0  0
    6.0739  -13.5310   27.0663 C   0  0  0  0  0  0  0  0  0  0  0  0
    6.9300  -14.0682   25.9713 C   0  0  0  0  0  0  0  0  0  0  0  0
    6.2814  -15.1510   25.1752 C   0  0  2  0  0  0  0  0  0  0  0  0
    6.0552  -16.3026   26.0226 N   0  0  0  0  0  0  0  0  0  0  0  0
    7.1729  -15.5514   24.0520 C   0  0  0  0  0  0  0  0  0  0  0  0
    7.5192  -16.7685   23.8832 O   0  0  0  0  0  0  0  0  0  0  0  0
    7.8341  -12.2878   18.8834 N   0  0  0  0  0  0  0  0  0  0  0  0
    8.3884  -13.5132   18.4240 C   0  0  0  0  0  0  0  0  0  0  0  0
    8.5233  -13.7183   17.2077 O   0  0  0  0  0  0  0  0  0  0  0  0
    8.7893  -14.5141   19.4528 C   0  0  0  0  0  0  0  0  0  0  0  0
    8.1675  -14.1340   20.7472 C   0  0  0  0  0  0  0  0  0  0  0  0
    8.3708  -15.0392   21.8927 C   0  0  2  0  0  0  0  0  0  0  0  0
    7.6915  -14.6241   23.1063 N   0  0  0  0  0  0  0  0  0  0  0  0
    9.8138  -15.3580   22.1836 C   0  0  0  0  0  0  0  0  0  0  0  0
   10.7085  -14.7063   21.5907 O   0  0  0  0  0  0  0  0  0  0  0  0
   10.1024  -16.3712   23.1071 N   0  0  0  0  0  0  0  0  0  0  0  0
   11.3560  -16.9116   23.5040 C   0  0  1  0  0  0  0  0  0  0  0  0
   11.2447  -18.1882   24.2619 C   0  0  0  0  0  0  0  0  0  0  0  0
   12.5874  -18.7098   24.6692 C   0  0  0  0  0  0  0  0  0  0  0  0
   12.5391  -19.2419   26.0992 C   0  0  0  0  0  0  0  0  0  0  0  0
   13.9542  -19.7357   26.3990 C   0  0  0  0  0  0  0  0  0  0  0  0
   14.0158  -20.2637   27.7536 N   0  0  0  0  0  0  0  0  0  0  0  0
   12.3237  -16.9620   22.3946 C   0  0  0  0  0  0  0  0  0  0  0  0
   12.0505  -17.3536   21.2530 O   0  0  0  0  0  0  0  0  0  0  0  0
   13.6250  -16.5432   22.6467 O   0  0  0  0  0  0  0  0  0  0  0  0
  2  1  1  0
  3  4  1  0
  3  2  1  0
  4  5  1  0
  5  6  1  1
  7  5  1  0
  8  7  2  0
 10  9  1  0
 11 10  2  0
 12 10  1  0
 14 13  1  6
 13 12  1  0
 14 15  1  0
 15  7  1  0
 16 14  1  0
 17 16  2  0
 18 16  1  0
 19 25  1  0
 19 18  1  0
 19 20  1  6
 21 20  1  0
 22 21  1  0
 22 23  1  0
 23 24  1  0
 25 27  1  0
 26 25  2  0
M  END
$$$$
