MQK.pdb
     RDKit          3D

 27 26  0  0  1  0  0  0  0  0999 V2000
    6.7169  -10.8460   27.1067 C   0  0  0  0  0  0  0  0  0  0  0  0
    7.5203  -12.3353   26.5078 S   0  0  0  0  0  0  0  0  0  0  0  0
    6.3440  -13.4293   25.6592 C   0  0  0  0  0  0  0  0  0  0  0  0
    7.0341  -14.6871   25.2564 C   0  0  0  0  0  0  0  0  0  0  0  0
    8.3083  -14.4639   24.5124 C   0  0  2  0  0  0  0  0  0  0  0  0
    8.0182  -13.8531   23.2324 N   0  0  0  0  0  0  0  0  0  0  0  0
    8.9876  -15.7676   24.2771 C   0  0  0  0  0  0  0  0  0  0  0  0
    8.9491  -16.7008   25.1474 O   0  0  0  0  0  0  0  0  0  0  0  0
   10.7608  -18.1934   18.9949 N   0  0  0  0  0  0  0  0  0  0  0  0
   11.5282  -19.0868   19.7905 C   0  0  0  0  0  0  0  0  0  0  0  0
   12.0606  -20.0810   19.2729 O   0  0  0  0  0  0  0  0  0  0  0  0
   11.6572  -18.7758   21.2422 C   0  0  0  0  0  0  0  0  0  0  0  0
   10.9162  -17.5192   21.5223 C   0  0  0  0  0  0  0  0  0  0  0  0
   10.4428  -17.3002   22.9011 C   0  0  2  0  0  0  0  0  0  0  0  0
    9.7134  -16.0595   23.0892 N   0  0  0  0  0  0  0  0  0  0  0  0
   11.5100  -17.4445   23.9541 C   0  0  0  0  0  0  0  0  0  0  0  0
   12.4987  -16.6710   23.9231 O   0  0  0  0  0  0  0  0  0  0  0  0
   11.3574  -18.4381   24.9299 N   0  0  0  0  0  0  0  0  0  0  0  0
   12.2395  -18.8343   25.9720 C   0  0  1  0  0  0  0  0  0  0  0  0
   11.6229  -19.7650   26.9568 C   0  0  0  0  0  0  0  0  0  0  0  0
   12.4896  -19.9491   28.1634 C   0  0  0  0  0  0  0  0  0  0  0  0
   11.7599  -20.7733   29.2210 C   0  0  0  0  0  0  0  0  0  0  0  0
   12.6688  -20.7573   30.4497 C   0  0  0  0  0  0  0  0  0  0  0  0
   12.0715  -21.5478   31.5154 N   0  0  0  0  0  0  0  0  0  0  0  0
   13.5447  -19.2886   25.4621 C   0  0  0  0  0  0  0  0  0  0  0  0
   13.6852  -20.1516   24.5865 O   0  0  0  0  0  0  0  0  0  0  0  0
   14.6896  -18.7110   25.9986 O   0  0  0  0  0  0  0  0  0  0  0  0
  2  1  1  0
  3  4  1  0
  3  2  1  0
  4  5  1  0
  5  6  1  6
  7  5  1  0
  8  7  2  0
 10  9  1  0
 11 10  2  0
 12 10  1  0
 14 13  1  6
 13 12  1  0
 14 15  1  0
 15  7  1  0
 16 14  1  0
 17 16  2  0
 18 16  1  0
 19 25  1  0
 19 18  1  0
 19 20  1  6
 21 20  1  0
 22 21  1  0
 22 23  1  0
 23 24  1  0
 25 27  1  0
 26 25  2  0
M  END
$$$$
