MQK.pdb
     RDKit          3D

 27 26  0  0  1  0  0  0  0  0999 V2000
    8.0316  -12.6165   27.8757 C   0  0  0  0  0  0  0  0  0  0  0  0
    6.8556  -11.8364   26.7665 S   0  0  0  0  0  0  0  0  0  0  0  0
    6.3927  -12.9441   25.4030 C   0  0  0  0  0  0  0  0  0  0  0  0
    7.3730  -14.0629   25.3145 C   0  0  0  0  0  0  0  0  0  0  0  0
    7.1205  -14.9973   24.1788 C   0  0  2  0  0  0  0  0  0  0  0  0
    5.8149  -15.6030   24.3343 N   0  0  0  0  0  0  0  0  0  0  0  0
    8.1495  -16.0732   24.1751 C   0  0  0  0  0  0  0  0  0  0  0  0
    7.9311  -17.2001   24.7339 O   0  0  0  0  0  0  0  0  0  0  0  0
   12.5958  -18.8222   19.8538 N   0  0  0  0  0  0  0  0  0  0  0  0
   12.9577  -17.8903   20.8641 C   0  0  0  0  0  0  0  0  0  0  0  0
   13.7945  -17.0060   20.6246 O   0  0  0  0  0  0  0  0  0  0  0  0
   12.2966  -18.0265   22.1927 C   0  0  0  0  0  0  0  0  0  0  0  0
   11.1730  -17.0573   22.2614 C   0  0  0  0  0  0  0  0  0  0  0  0
   10.4027  -16.9949   23.5167 C   0  0  2  0  0  0  0  0  0  0  0  0
    9.4237  -15.9242   23.5608 N   0  0  0  0  0  0  0  0  0  0  0  0
   11.2475  -16.9831   24.7635 C   0  0  0  0  0  0  0  0  0  0  0  0
   11.8204  -15.9162   25.0958 O   0  0  0  0  0  0  0  0  0  0  0  0
   11.3611  -18.1655   25.5063 N   0  0  0  0  0  0  0  0  0  0  0  0
   12.0827  -18.4230   26.7038 C   0  0  1  0  0  0  0  0  0  0  0  0
   11.4238  -19.4138   27.5985 C   0  0  0  0  0  0  0  0  0  0  0  0
   12.1984  -19.6201   28.8628 C   0  0  0  0  0  0  0  0  0  0  0  0
   11.5356  -20.6931   29.7229 C   0  0  0  0  0  0  0  0  0  0  0  0
   12.4305  -20.8403   30.9532 C   0  0  0  0  0  0  0  0  0  0  0  0
   11.7992  -21.7271   31.9189 N   0  0  0  0  0  0  0  0  0  0  0  0
   13.5068  -18.7040   26.4532 C   0  0  0  0  0  0  0  0  0  0  0  0
   14.4355  -17.9900   26.8521 O   0  0  0  0  0  0  0  0  0  0  0  0
   13.8266  -19.8428   25.7229 O   0  0  0  0  0  0  0  0  0  0  0  0
  2  1  1  0
  3  4  1  0
  3  2  1  0
  4  5  1  0
  5  6  1  1
  7  5  1  0
  8  7  2  0
 10  9  1  0
 11 10  2  0
 12 10  1  0
 14 13  1  6
 13 12  1  0
 14 15  1  0
 15  7  1  0
 16 14  1  0
 17 16  2  0
 18 16  1  0
 19 25  1  0
 19 18  1  0
 19 20  1  6
 21 20  1  0
 22 21  1  0
 22 23  1  0
 23 24  1  0
 25 27  1  0
 26 25  2  0
M  END
$$$$
