MQK.pdb
     RDKit          3D

 27 26  0  0  1  0  0  0  0  0999 V2000
    6.9158  -10.5979   26.4157 C   0  0  0  0  0  0  0  0  0  0  0  0
    5.9919  -12.0482   26.9307 S   0  0  0  0  0  0  0  0  0  0  0  0
    6.9430  -13.5723   26.6603 C   0  0  0  0  0  0  0  0  0  0  0  0
    6.2210  -14.4457   25.6927 C   0  0  0  0  0  0  0  0  0  0  0  0
    7.0462  -15.5713   25.1646 C   0  0  2  0  0  0  0  0  0  0  0  0
    8.3878  -15.4780   25.7006 N   0  0  0  0  0  0  0  0  0  0  0  0
    7.1176  -15.4884   23.6799 C   0  0  0  0  0  0  0  0  0  0  0  0
    6.1027  -15.7538   22.9524 O   0  0  0  0  0  0  0  0  0  0  0  0
    7.6307  -13.3444   18.4476 N   0  0  0  0  0  0  0  0  0  0  0  0
    8.9023  -13.0769   19.0234 C   0  0  0  0  0  0  0  0  0  0  0  0
    9.7397  -12.4066   18.3995 O   0  0  0  0  0  0  0  0  0  0  0  0
    9.1714  -13.6292   20.3811 C   0  0  0  0  0  0  0  0  0  0  0  0
    8.4026  -14.8906   20.5373 C   0  0  0  0  0  0  0  0  0  0  0  0
    8.6889  -15.7211   21.7211 C   0  0  2  0  0  0  0  0  0  0  0  0
    8.2988  -15.1150   22.9809 N   0  0  0  0  0  0  0  0  0  0  0  0
   10.1067  -16.2233   21.7989 C   0  0  0  0  0  0  0  0  0  0  0  0
   10.6827  -16.5749   20.7400 O   0  0  0  0  0  0  0  0  0  0  0  0
   10.7296  -16.2781   23.0526 N   0  0  0  0  0  0  0  0  0  0  0  0
   11.6070  -17.2581   23.5915 C   0  0  1  0  0  0  0  0  0  0  0  0
   11.2164  -17.7302   24.9484 C   0  0  0  0  0  0  0  0  0  0  0  0
   12.1833  -18.7400   25.4836 C   0  0  0  0  0  0  0  0  0  0  0  0
   11.7125  -19.2597   26.8396 C   0  0  0  0  0  0  0  0  0  0  0  0
   12.7675  -20.2759   27.2759 C   0  0  0  0  0  0  0  0  0  0  0  0
   12.4338  -20.7990   28.5921 N   0  0  0  0  0  0  0  0  0  0  0  0
   11.8850  -18.3484   22.6407 C   0  0  0  0  0  0  0  0  0  0  0  0
   11.0318  -19.1451   22.2301 O   0  0  0  0  0  0  0  0  0  0  0  0
   13.1875  -18.4903   22.1761 O   0  0  0  0  0  0  0  0  0  0  0  0
  2  1  1  0
  3  4  1  0
  3  2  1  0
  4  5  1  0
  5  6  1  1
  7  5  1  0
  8  7  2  0
 10  9  1  0
 11 10  2  0
 12 10  1  0
 14 13  1  6
 13 12  1  0
 14 15  1  0
 15  7  1  0
 16 14  1  0
 17 16  2  0
 18 16  1  0
 19 25  1  0
 19 18  1  0
 19 20  1  1
 21 20  1  0
 22 21  1  0
 22 23  1  0
 23 24  1  0
 25 27  1  0
 26 25  2  0
M  END
$$$$
