MQK.pdb
     RDKit          3D

 27 26  0  0  1  0  0  0  0  0999 V2000
    6.0294  -11.7803   27.2143 C   0  0  0  0  0  0  0  0  0  0  0  0
    6.5217  -11.8241   25.4887 S   0  0  0  0  0  0  0  0  0  0  0  0
    7.1043  -13.4758   25.0058 C   0  0  0  0  0  0  0  0  0  0  0  0
    7.6342  -13.4305   23.6138 C   0  0  0  0  0  0  0  0  0  0  0  0
    8.1794  -14.7340   23.1337 C   0  0  2  0  0  0  0  0  0  0  0  0
    7.2096  -15.7808   23.3768 N   0  0  0  0  0  0  0  0  0  0  0  0
    9.4295  -15.0589   23.8742 C   0  0  0  0  0  0  0  0  0  0  0  0
   10.5243  -14.4520   23.6234 O   0  0  0  0  0  0  0  0  0  0  0  0
   12.4949  -17.6442   29.8012 N   0  0  0  0  0  0  0  0  0  0  0  0
   11.2560  -17.3060   29.1923 C   0  0  0  0  0  0  0  0  0  0  0  0
   10.1971  -17.7840   29.6281 O   0  0  0  0  0  0  0  0  0  0  0  0
   11.2933  -16.3710   28.0325 C   0  0  0  0  0  0  0  0  0  0  0  0
   10.5373  -16.9829   26.9097 C   0  0  0  0  0  0  0  0  0  0  0  0
   10.7263  -16.4059   25.5664 C   0  0  2  0  0  0  0  0  0  0  0  0
    9.4908  -16.0492   24.8933 N   0  0  0  0  0  0  0  0  0  0  0  0
   11.6002  -17.2274   24.6553 C   0  0  0  0  0  0  0  0  0  0  0  0
   11.1059  -18.2324   24.0877 O   0  0  0  0  0  0  0  0  0  0  0  0
   12.9336  -16.8369   24.4757 N   0  0  0  0  0  0  0  0  0  0  0  0
   13.9738  -17.4622   23.7355 C   0  0  1  0  0  0  0  0  0  0  0  0
   14.7861  -16.5132   22.9256 C   0  0  0  0  0  0  0  0  0  0  0  0
   15.8660  -17.2174   22.1646 C   0  0  0  0  0  0  0  0  0  0  0  0
   16.7135  -16.2109   21.3907 C   0  0  0  0  0  0  0  0  0  0  0  0
   17.7638  -17.0422   20.6547 C   0  0  0  0  0  0  0  0  0  0  0  0
   18.5952  -16.1732   19.8354 N   0  0  0  0  0  0  0  0  0  0  0  0
   14.7792  -18.3786   24.5609 C   0  0  0  0  0  0  0  0  0  0  0  0
   15.1610  -19.4948   24.1872 O   0  0  0  0  0  0  0  0  0  0  0  0
   15.1321  -17.9627   25.8396 O   0  0  0  0  0  0  0  0  0  0  0  0
  2  1  1  0
  3  4  1  0
  3  2  1  0
  4  5  1  0
  5  6  1  1
  7  5  1  0
  8  7  2  0
 10  9  1  0
 11 10  2  0
 12 10  1  0
 14 13  1  1
 13 12  1  0
 14 15  1  0
 15  7  1  0
 16 14  1  0
 17 16  2  0
 18 16  1  0
 19 25  1  0
 19 18  1  0
 19 20  1  1
 21 20  1  0
 22 21  1  0
 22 23  1  0
 23 24  1  0
 25 27  1  0
 26 25  2  0
M  END
$$$$
