LPA.pdb
     RDKit          3D

 21 21  0  0  1  0  0  0  0  0999 V2000
    5.7269  -12.4162   25.9714 C   0  0  0  0  0  0  0  0  0  0  0  0
    6.7954  -13.0554   26.8425 C   0  0  2  0  0  0  0  0  0  0  0  0
    7.6163  -11.9917   27.5405 C   0  0  0  0  0  0  0  0  0  0  0  0
    7.7254  -13.9244   25.9864 C   0  0  0  0  0  0  0  0  0  0  0  0
    6.9470  -15.1068   25.4555 C   0  0  2  0  0  0  0  0  0  0  0  0
    6.3594  -15.8535   26.5077 N   0  0  0  0  0  0  0  0  0  0  0  0
    7.7758  -15.8686   24.4993 C   0  0  0  0  0  0  0  0  0  0  0  0
    8.3867  -16.8505   24.9832 O   0  0  0  0  0  0  0  0  0  0  0  0
    7.8816  -15.5215   23.1184 N   0  0  0  0  0  0  0  0  0  0  0  0
    6.8254  -14.7607   22.4383 C   0  0  0  0  0  0  0  0  0  0  0  0
    7.3446  -14.4642   21.0378 C   0  0  0  0  0  0  0  0  0  0  0  0
    8.8607  -14.5125   21.2920 C   0  0  0  0  0  0  0  0  0  0  0  0
    8.8717  -15.7942   22.1527 C   0  0  1  0  0  0  0  0  0  0  0  0
   10.2410  -16.0377   22.5855 C   0  0  0  0  0  0  0  0  0  0  0  0
   11.0219  -15.2782   23.1869 O   0  0  0  0  0  0  0  0  0  0  0  0
   12.3452  -19.1965   22.5668 C   0  0  0  0  0  0  0  0  0  0  0  0
   12.1130  -17.6936   22.6673 C   0  0  2  0  0  0  0  0  0  0  0  0
   10.7661  -17.3433   22.2729 N   0  0  0  0  0  0  0  0  0  0  0  0
   13.0551  -17.0527   21.7342 C   0  0  0  0  0  0  0  0  0  0  0  0
   14.2433  -16.8882   22.0772 O   0  0  0  0  0  0  0  0  0  0  0  0
   12.6434  -16.6335   20.4914 O   0  0  0  0  0  0  0  0  0  0  0  0
  2  3  1  6
  2  1  1  0
  4  2  1  0
  5  4  1  0
  5  6  1  1
  7  5  1  0
  7  9  1  0
  8  7  2  0
  9 13  1  0
 10  9  1  0
 10 11  1  0
 11 12  1  0
 13 14  1  1
 13 12  1  0
 14 18  1  0
 15 14  2  0
 17 16  1  6
 17 19  1  0
 18 17  1  0
 19 20  2  0
 19 21  1  0
M  END
$$$$
