LPA.pdb
     RDKit          3D

 21 21  0  0  1  0  0  0  0  0999 V2000
    8.4367  -12.8329   27.0532 C   0  0  0  0  0  0  0  0  0  0  0  0
    7.4180  -13.4259   26.0943 C   0  0  2  0  0  0  0  0  0  0  0  0
    6.2749  -12.4585   25.8707 C   0  0  0  0  0  0  0  0  0  0  0  0
    6.8604  -14.7380   26.6603 C   0  0  0  0  0  0  0  0  0  0  0  0
    6.4213  -15.6230   25.5157 C   0  0  2  0  0  0  0  0  0  0  0  0
    5.6165  -16.6972   25.9721 N   0  0  0  0  0  0  0  0  0  0  0  0
    7.5863  -15.9884   24.6845 C   0  0  0  0  0  0  0  0  0  0  0  0
    8.4463  -16.7028   25.2517 O   0  0  0  0  0  0  0  0  0  0  0  0
    7.7340  -15.5647   23.3291 N   0  0  0  0  0  0  0  0  0  0  0  0
    6.6347  -14.9087   22.6092 C   0  0  0  0  0  0  0  0  0  0  0  0
    7.1992  -14.4829   21.2605 C   0  0  0  0  0  0  0  0  0  0  0  0
    8.6902  -14.3551   21.6159 C   0  0  0  0  0  0  0  0  0  0  0  0
    8.8095  -15.6656   22.4235 C   0  0  1  0  0  0  0  0  0  0  0  0
   10.1686  -15.7581   22.9390 C   0  0  0  0  0  0  0  0  0  0  0  0
   10.8028  -14.9433   23.6334 O   0  0  0  0  0  0  0  0  0  0  0  0
   12.5519  -18.6805   23.1191 C   0  0  0  0  0  0  0  0  0  0  0  0
   12.2056  -17.1962   23.1264 C   0  0  2  0  0  0  0  0  0  0  0  0
   10.8799  -16.9641   22.5964 N   0  0  0  0  0  0  0  0  0  0  0  0
   13.1829  -16.5256   22.2522 C   0  0  0  0  0  0  0  0  0  0  0  0
   14.3484  -16.3451   22.6586 O   0  0  0  0  0  0  0  0  0  0  0  0
   12.8283  -16.0961   20.9953 O   0  0  0  0  0  0  0  0  0  0  0  0
  2  3  1  1
  2  1  1  0
  4  2  1  0
  5  4  1  0
  5  6  1  1
  7  5  1  0
  7  9  1  0
  8  7  2  0
  9 13  1  0
 10  9  1  0
 10 11  1  0
 11 12  1  0
 13 14  1  1
 13 12  1  0
 14 18  1  0
 15 14  2  0
 17 16  1  6
 17 19  1  0
 18 17  1  0
 19 20  2  0
 19 21  1  0
M  END
$$$$
