LPA.pdb
     RDKit          3D

 21 21  0  0  1  0  0  0  0  0999 V2000
    8.2028  -12.9004   27.2264 C   0  0  0  0  0  0  0  0  0  0  0  0
    7.3049  -13.5179   26.1674 C   0  0  2  0  0  0  0  0  0  0  0  0
    6.1633  -12.5824   25.8295 C   0  0  0  0  0  0  0  0  0  0  0  0
    6.7304  -14.8478   26.6713 C   0  0  0  0  0  0  0  0  0  0  0  0
    6.3474  -15.7023   25.4843 C   0  0  2  0  0  0  0  0  0  0  0  0
    5.5607  -16.8135   25.8795 N   0  0  0  0  0  0  0  0  0  0  0  0
    7.5443  -16.0061   24.6738 C   0  0  0  0  0  0  0  0  0  0  0  0
    8.4283  -16.6788   25.2548 O   0  0  0  0  0  0  0  0  0  0  0  0
    7.6956  -15.5704   23.3226 N   0  0  0  0  0  0  0  0  0  0  0  0
    6.6095  -14.8787   22.6164 C   0  0  0  0  0  0  0  0  0  0  0  0
    7.1775  -14.4515   21.2696 C   0  0  0  0  0  0  0  0  0  0  0  0
    8.6731  -14.3653   21.6182 C   0  0  0  0  0  0  0  0  0  0  0  0
    8.7635  -15.6878   22.4100 C   0  0  1  0  0  0  0  0  0  0  0  0
   10.1225  -15.8203   22.9170 C   0  0  0  0  0  0  0  0  0  0  0  0
   10.7546  -15.0655   23.6779 O   0  0  0  0  0  0  0  0  0  0  0  0
   12.5557  -18.7120   22.7915 C   0  0  0  0  0  0  0  0  0  0  0  0
   12.1775  -17.2447   22.9550 C   0  0  2  0  0  0  0  0  0  0  0  0
   10.8367  -16.9918   22.4747 N   0  0  0  0  0  0  0  0  0  0  0  0
   13.1222  -16.4664   22.1360 C   0  0  0  0  0  0  0  0  0  0  0  0
   14.2120  -16.1095   22.6274 O   0  0  0  0  0  0  0  0  0  0  0  0
   12.8198  -16.1282   20.8383 O   0  0  0  0  0  0  0  0  0  0  0  0
  2  3  1  1
  2  1  1  0
  4  2  1  0
  5  4  1  0
  5  6  1  1
  7  5  1  0
  7  9  1  0
  8  7  2  0
  9 13  1  0
 10  9  1  0
 10 11  1  0
 11 12  1  0
 13 14  1  1
 13 12  1  0
 14 18  1  0
 15 14  2  0
 17 16  1  6
 17 19  1  0
 18 17  1  0
 19 20  2  0
 19 21  1  0
M  END
$$$$
