LPA.pdb
     RDKit          3D

 21 21  0  0  1  0  0  0  0  0999 V2000
    5.5652  -12.2638   25.8399 C   0  0  0  0  0  0  0  0  0  0  0  0
    6.5357  -12.8909   26.8267 C   0  0  2  0  0  0  0  0  0  0  0  0
    7.3139  -11.8183   27.5589 C   0  0  0  0  0  0  0  0  0  0  0  0
    7.5194  -13.8089   26.0901 C   0  0  0  0  0  0  0  0  0  0  0  0
    6.7551  -14.9572   25.4712 C   0  0  2  0  0  0  0  0  0  0  0  0
    6.0547  -15.7013   26.4538 N   0  0  0  0  0  0  0  0  0  0  0  0
    7.6412  -15.7298   24.5771 C   0  0  0  0  0  0  0  0  0  0  0  0
    8.2803  -16.6576   25.1269 O   0  0  0  0  0  0  0  0  0  0  0  0
    7.7693  -15.4499   23.1829 N   0  0  0  0  0  0  0  0  0  0  0  0
    6.7255  -14.7213   22.4505 C   0  0  0  0  0  0  0  0  0  0  0  0
    7.2671  -14.4934   21.0456 C   0  0  0  0  0  0  0  0  0  0  0  0
    8.7790  -14.5314   21.3256 C   0  0  0  0  0  0  0  0  0  0  0  0
    8.7738  -15.7702   22.2472 C   0  0  1  0  0  0  0  0  0  0  0  0
   10.1356  -15.9944   22.7126 C   0  0  0  0  0  0  0  0  0  0  0  0
   10.8926  -15.2227   23.3289 O   0  0  0  0  0  0  0  0  0  0  0  0
   12.2860  -19.1288   22.7077 C   0  0  0  0  0  0  0  0  0  0  0  0
   12.0118  -17.6392   22.8775 C   0  0  2  0  0  0  0  0  0  0  0  0
   10.6845  -17.2943   22.4178 N   0  0  0  0  0  0  0  0  0  0  0  0
   12.9953  -16.9264   22.0446 C   0  0  0  0  0  0  0  0  0  0  0  0
   12.7396  -16.7083   20.8431 O   0  0  0  0  0  0  0  0  0  0  0  0
   14.1902  -16.4985   22.5726 O   0  0  0  0  0  0  0  0  0  0  0  0
  2  3  1  6
  2  1  1  0
  4  2  1  0
  5  4  1  0
  5  6  1  1
  7  5  1  0
  7  9  1  0
  8  7  2  0
  9 13  1  0
 10  9  1  0
 10 11  1  0
 11 12  1  0
 13 14  1  1
 13 12  1  0
 14 18  1  0
 15 14  2  0
 17 16  1  6
 17 19  1  0
 18 17  1  0
 19 20  2  0
 19 21  1  0
M  END
$$$$
