LPA.pdb
     RDKit          3D

 21 21  0  0  1  0  0  0  0  0999 V2000
    8.3273  -12.6052   27.1092 C   0  0  0  0  0  0  0  0  0  0  0  0
    7.3550  -13.2584   26.1413 C   0  0  2  0  0  0  0  0  0  0  0  0
    6.1996  -12.3269   25.8416 C   0  0  0  0  0  0  0  0  0  0  0  0
    6.8069  -14.5598   26.7402 C   0  0  0  0  0  0  0  0  0  0  0  0
    6.4040  -15.4892   25.6178 C   0  0  2  0  0  0  0  0  0  0  0  0
    5.5989  -16.5551   26.0929 N   0  0  0  0  0  0  0  0  0  0  0  0
    7.5920  -15.8716   24.8279 C   0  0  0  0  0  0  0  0  0  0  0  0
    8.4583  -16.5321   25.4483 O   0  0  0  0  0  0  0  0  0  0  0  0
    7.7541  -15.5201   23.4536 N   0  0  0  0  0  0  0  0  0  0  0  0
    6.6480  -14.9475   22.6754 C   0  0  0  0  0  0  0  0  0  0  0  0
    7.2262  -14.5781   21.3160 C   0  0  0  0  0  0  0  0  0  0  0  0
    8.7034  -14.3746   21.6931 C   0  0  0  0  0  0  0  0  0  0  0  0
    8.8523  -15.6319   22.5768 C   0  0  1  0  0  0  0  0  0  0  0  0
   10.2021  -15.6441   23.1238 C   0  0  0  0  0  0  0  0  0  0  0  0
   10.8518  -14.7136   23.6341 O   0  0  0  0  0  0  0  0  0  0  0  0
   12.6366  -18.5045   23.7034 C   0  0  0  0  0  0  0  0  0  0  0  0
   12.2199  -17.0420   23.6007 C   0  0  2  0  0  0  0  0  0  0  0  0
   10.8821  -16.9139   23.0659 N   0  0  0  0  0  0  0  0  0  0  0  0
   13.1597  -16.3947   22.6696 C   0  0  0  0  0  0  0  0  0  0  0  0
   14.2309  -15.9262   23.1047 O   0  0  0  0  0  0  0  0  0  0  0  0
   12.8727  -16.3000   21.3285 O   0  0  0  0  0  0  0  0  0  0  0  0
  2  3  1  1
  2  1  1  0
  4  2  1  0
  5  4  1  0
  5  6  1  1
  7  5  1  0
  7  9  1  0
  8  7  2  0
  9 13  1  0
 10  9  1  0
 10 11  1  0
 11 12  1  0
 13 14  1  1
 13 12  1  0
 14 18  1  0
 15 14  2  0
 17 16  1  6
 17 19  1  0
 18 17  1  0
 19 20  2  0
 19 21  1  0
M  END
$$$$
