LPA.pdb
     RDKit          3D

 21 21  0  0  1  0  0  0  0  0999 V2000
    7.8843  -12.1733   20.1352 C   0  0  0  0  0  0  0  0  0  0  0  0
    7.6079  -13.6674   20.1206 C   0  0  2  0  0  0  0  0  0  0  0  0
    6.3283  -13.9622   19.3669 C   0  0  0  0  0  0  0  0  0  0  0  0
    7.4773  -14.1949   21.5550 C   0  0  0  0  0  0  0  0  0  0  0  0
    8.7888  -13.9896   22.2786 C   0  0  2  0  0  0  0  0  0  0  0  0
    9.8846  -14.4412   21.5007 N   0  0  0  0  0  0  0  0  0  0  0  0
    8.6979  -14.5276   23.6511 C   0  0  0  0  0  0  0  0  0  0  0  0
    9.2874  -15.6179   23.8395 O   0  0  0  0  0  0  0  0  0  0  0  0
    7.9918  -13.8622   24.6985 N   0  0  0  0  0  0  0  0  0  0  0  0
    7.6403  -12.4396   24.5998 C   0  0  0  0  0  0  0  0  0  0  0  0
    6.7858  -12.1234   25.8199 C   0  0  0  0  0  0  0  0  0  0  0  0
    6.2102  -13.5178   26.1198 C   0  0  0  0  0  0  0  0  0  0  0  0
    7.5246  -14.3100   25.9509 C   0  0  1  0  0  0  0  0  0  0  0  0
    7.2286  -15.7239   26.1367 C   0  0  0  0  0  0  0  0  0  0  0  0
    6.1766  -16.3445   25.8990 O   0  0  0  0  0  0  0  0  0  0  0  0
    8.7182  -18.7773   25.8133 C   0  0  0  0  0  0  0  0  0  0  0  0
    8.1102  -17.9279   26.9232 C   0  0  2  0  0  0  0  0  0  0  0  0
    8.3069  -16.5171   26.6717 N   0  0  0  0  0  0  0  0  0  0  0  0
    8.8136  -18.2837   28.1672 C   0  0  0  0  0  0  0  0  0  0  0  0
    9.5819  -17.4558   28.6969 O   0  0  0  0  0  0  0  0  0  0  0  0
    8.6352  -19.5150   28.7520 O   0  0  0  0  0  0  0  0  0  0  0  0
  2  3  1  6
  2  1  1  0
  4  2  1  0
  5  4  1  0
  5  6  1  6
  7  5  1  0
  7  9  1  0
  8  7  2  0
  9 13  1  0
 10  9  1  0
 10 11  1  0
 11 12  1  0
 13 14  1  6
 13 12  1  0
 14 18  1  0
 15 14  2  0
 17 16  1  6
 17 19  1  0
 18 17  1  0
 19 20  2  0
 19 21  1  0
M  END
$$$$
