LPA.pdb
     RDKit          3D

 21 21  0  0  1  0  0  0  0  0999 V2000
    6.1172  -12.0114   25.8383 C   0  0  0  0  0  0  0  0  0  0  0  0
    6.8587  -12.9778   26.7467 C   0  0  2  0  0  0  0  0  0  0  0  0
    7.7376  -12.2215   27.7203 C   0  0  0  0  0  0  0  0  0  0  0  0
    7.7329  -13.9225   25.9124 C   0  0  0  0  0  0  0  0  0  0  0  0
    6.8816  -15.0638   25.4038 C   0  0  2  0  0  0  0  0  0  0  0  0
    6.2570  -15.7581   26.4704 N   0  0  0  0  0  0  0  0  0  0  0  0
    7.6570  -15.8881   24.4547 C   0  0  0  0  0  0  0  0  0  0  0  0
    8.1745  -16.9213   24.9408 O   0  0  0  0  0  0  0  0  0  0  0  0
    7.8133  -15.5435   23.0780 N   0  0  0  0  0  0  0  0  0  0  0  0
    6.8072  -14.7393   22.3723 C   0  0  0  0  0  0  0  0  0  0  0  0
    7.3748  -14.4621   20.9867 C   0  0  0  0  0  0  0  0  0  0  0  0
    8.8805  -14.5724   21.2806 C   0  0  0  0  0  0  0  0  0  0  0  0
    8.8167  -15.8548   22.1380 C   0  0  1  0  0  0  0  0  0  0  0  0
   10.1630  -16.1544   22.6061 C   0  0  0  0  0  0  0  0  0  0  0  0
   10.9358  -15.4496   23.2801 O   0  0  0  0  0  0  0  0  0  0  0  0
   12.2642  -19.3146   22.3336 C   0  0  0  0  0  0  0  0  0  0  0  0
   12.0084  -17.8417   22.6308 C   0  0  2  0  0  0  0  0  0  0  0  0
   10.6727  -17.4511   22.2362 N   0  0  0  0  0  0  0  0  0  0  0  0
   12.9763  -17.0707   21.8322 C   0  0  0  0  0  0  0  0  0  0  0  0
   14.1316  -16.8952   22.2690 O   0  0  0  0  0  0  0  0  0  0  0  0
   12.6241  -16.5421   20.6130 O   0  0  0  0  0  0  0  0  0  0  0  0
  2  3  1  1
  2  1  1  0
  4  2  1  0
  5  4  1  0
  5  6  1  1
  7  5  1  0
  7  9  1  0
  8  7  2  0
  9 13  1  0
 10  9  1  0
 10 11  1  0
 11 12  1  0
 13 14  1  1
 13 12  1  0
 14 18  1  0
 15 14  2  0
 17 16  1  6
 17 19  1  0
 18 17  1  0
 19 20  2  0
 19 21  1  0
M  END
$$$$
