LPA.pdb
     RDKit          3D

 21 21  0  0  1  0  0  0  0  0999 V2000
    5.5615  -12.0772   26.8653 C   0  0  0  0  0  0  0  0  0  0  0  0
    6.7528  -13.0202   26.8814 C   0  0  2  0  0  0  0  0  0  0  0  0
    7.9463  -12.3551   27.5340 C   0  0  0  0  0  0  0  0  0  0  0  0
    7.1259  -13.4254   25.4498 C   0  0  0  0  0  0  0  0  0  0  0  0
    6.6044  -14.8184   25.1786 C   0  0  2  0  0  0  0  0  0  0  0  0
    6.0720  -15.4087   26.3524 N   0  0  0  0  0  0  0  0  0  0  0  0
    7.6233  -15.6072   24.4566 C   0  0  0  0  0  0  0  0  0  0  0  0
    8.2768  -16.4119   25.1616 O   0  0  0  0  0  0  0  0  0  0  0  0
    7.8568  -15.4722   23.0546 N   0  0  0  0  0  0  0  0  0  0  0  0
    6.8653  -14.8447   22.1714 C   0  0  0  0  0  0  0  0  0  0  0  0
    7.5124  -14.7546   20.7958 C   0  0  0  0  0  0  0  0  0  0  0  0
    8.9982  -14.7337   21.1932 C   0  0  0  0  0  0  0  0  0  0  0  0
    8.9349  -15.8691   22.2376 C   0  0  1  0  0  0  0  0  0  0  0  0
   10.2586  -16.0168   22.8270 C   0  0  0  0  0  0  0  0  0  0  0  0
   10.9098  -15.2057   23.5100 O   0  0  0  0  0  0  0  0  0  0  0  0
   12.5562  -19.0196   23.1072 C   0  0  0  0  0  0  0  0  0  0  0  0
   12.2264  -17.5316   23.1211 C   0  0  2  0  0  0  0  0  0  0  0  0
   10.9064  -17.2817   22.5851 N   0  0  0  0  0  0  0  0  0  0  0  0
   13.2159  -16.8669   22.2562 C   0  0  0  0  0  0  0  0  0  0  0  0
   14.3797  -16.6969   22.6722 O   0  0  0  0  0  0  0  0  0  0  0  0
   12.8747  -16.4314   20.9978 O   0  0  0  0  0  0  0  0  0  0  0  0
  2  3  1  6
  2  1  1  0
  4  2  1  0
  5  4  1  0
  5  6  1  1
  7  5  1  0
  7  9  1  0
  8  7  2  0
  9 13  1  0
 10  9  1  0
 10 11  1  0
 11 12  1  0
 13 14  1  1
 13 12  1  0
 14 18  1  0
 15 14  2  0
 17 16  1  6
 17 19  1  0
 18 17  1  0
 19 20  2  0
 19 21  1  0
M  END
$$$$
