LPA.pdb
     RDKit          3D

 21 21  0  0  1  0  0  0  0  0999 V2000
    6.2548  -12.7707   25.4963 C   0  0  0  0  0  0  0  0  0  0  0  0
    6.7686  -13.4845   26.7354 C   0  0  2  0  0  0  0  0  0  0  0  0
    7.5345  -12.5242   27.6207 C   0  0  0  0  0  0  0  0  0  0  0  0
    7.6925  -14.6414   26.3343 C   0  0  0  0  0  0  0  0  0  0  0  0
    6.9174  -15.6200   25.4814 C   0  0  2  0  0  0  0  0  0  0  0  0
    6.3218  -16.6354   26.2714 N   0  0  0  0  0  0  0  0  0  0  0  0
    7.7527  -16.0778   24.3526 C   0  0  0  0  0  0  0  0  0  0  0  0
    8.5273  -17.0291   24.6105 O   0  0  0  0  0  0  0  0  0  0  0  0
    7.6912  -15.4871   23.0543 N   0  0  0  0  0  0  0  0  0  0  0  0
    6.5691  -14.6260   22.6586 C   0  0  0  0  0  0  0  0  0  0  0  0
    6.9146  -14.0777   21.2806 C   0  0  0  0  0  0  0  0  0  0  0  0
    8.4498  -14.1571   21.3314 C   0  0  0  0  0  0  0  0  0  0  0  0
    8.5501  -15.5726   21.9398 C   0  0  1  0  0  0  0  0  0  0  0  0
    9.9591  -15.8774   22.1481 C   0  0  0  0  0  0  0  0  0  0  0  0
   10.8474  -16.1017   21.3062 O   0  0  0  0  0  0  0  0  0  0  0  0
   12.0701  -15.5773   25.2718 C   0  0  0  0  0  0  0  0  0  0  0  0
   11.7927  -16.0259   23.8418 C   0  0  2  0  0  0  0  0  0  0  0  0
   10.3851  -15.9262   23.5244 N   0  0  0  0  0  0  0  0  0  0  0  0
   12.1932  -17.4404   23.7528 C   0  0  0  0  0  0  0  0  0  0  0  0
   13.3931  -17.7495   23.8975 O   0  0  0  0  0  0  0  0  0  0  0  0
   11.2633  -18.4240   23.5126 O   0  0  0  0  0  0  0  0  0  0  0  0
  2  3  1  1
  2  1  1  0
  4  2  1  0
  5  4  1  0
  5  6  1  1
  7  5  1  0
  7  9  1  0
  8  7  2  0
  9 13  1  0
 10  9  1  0
 10 11  1  0
 11 12  1  0
 13 14  1  1
 13 12  1  0
 14 18  1  0
 15 14  2  0
 17 16  1  1
 17 19  1  0
 18 17  1  0
 19 20  2  0
 19 21  1  0
M  END
$$$$
