LPA.pdb
     RDKit          3D

 21 21  0  0  1  0  0  0  0  0999 V2000
    5.5751  -12.5294   26.0247 C   0  0  0  0  0  0  0  0  0  0  0  0
    6.6969  -13.1671   26.8271 C   0  0  2  0  0  0  0  0  0  0  0  0
    7.5263  -12.1039   27.5158 C   0  0  0  0  0  0  0  0  0  0  0  0
    7.6044  -13.9910   25.9049 C   0  0  0  0  0  0  0  0  0  0  0  0
    6.8299  -15.1799   25.3829 C   0  0  2  0  0  0  0  0  0  0  0  0
    6.2988  -15.9568   26.4432 N   0  0  0  0  0  0  0  0  0  0  0  0
    7.6361  -15.9076   24.3818 C   0  0  0  0  0  0  0  0  0  0  0  0
    8.2786  -16.8898   24.8224 O   0  0  0  0  0  0  0  0  0  0  0  0
    7.6880  -15.5292   23.0061 N   0  0  0  0  0  0  0  0  0  0  0  0
    6.5920  -14.7808   22.3773 C   0  0  0  0  0  0  0  0  0  0  0  0
    7.0574  -14.4423   20.9674 C   0  0  0  0  0  0  0  0  0  0  0  0
    8.5818  -14.4583   21.1712 C   0  0  0  0  0  0  0  0  0  0  0  0
    8.6520  -15.7571   22.0031 C   0  0  1  0  0  0  0  0  0  0  0  0
   10.0403  -15.9755   22.3859 C   0  0  0  0  0  0  0  0  0  0  0  0
   10.8059  -15.2310   23.0247 O   0  0  0  0  0  0  0  0  0  0  0  0
   12.0459  -18.8301   23.1456 C   0  0  0  0  0  0  0  0  0  0  0  0
   11.9747  -17.5582   22.3089 C   0  0  2  0  0  0  0  0  0  0  0  0
   10.6080  -17.2320   21.9654 N   0  0  0  0  0  0  0  0  0  0  0  0
   12.7190  -17.8227   21.0659 C   0  0  0  0  0  0  0  0  0  0  0  0
   13.9636  -17.7371   21.0650 O   0  0  0  0  0  0  0  0  0  0  0  0
   12.0614  -18.1623   19.9074 O   0  0  0  0  0  0  0  0  0  0  0  0
  2  3  1  6
  2  1  1  0
  4  2  1  0
  5  4  1  0
  5  6  1  1
  7  5  1  0
  7  9  1  0
  8  7  2  0
  9 13  1  0
 10  9  1  0
 10 11  1  0
 11 12  1  0
 13 14  1  1
 13 12  1  0
 14 18  1  0
 15 14  2  0
 17 16  1  1
 17 19  1  0
 18 17  1  0
 19 20  2  0
 19 21  1  0
M  END
$$$$
