LPA.pdb
     RDKit          3D

 21 21  0  0  1  0  0  0  0  0999 V2000
    5.4382  -12.2524   26.5263 C   0  0  0  0  0  0  0  0  0  0  0  0
    6.6894  -13.0352   26.8878 C   0  0  2  0  0  0  0  0  0  0  0  0
    7.6779  -12.1481   27.6147 C   0  0  0  0  0  0  0  0  0  0  0  0
    7.3515  -13.5888   25.6197 C   0  0  0  0  0  0  0  0  0  0  0  0
    6.6787  -14.8877   25.2376 C   0  0  2  0  0  0  0  0  0  0  0  0
    6.0962  -15.5194   26.3652 N   0  0  0  0  0  0  0  0  0  0  0  0
    7.5986  -15.7143   24.4301 C   0  0  0  0  0  0  0  0  0  0  0  0
    8.1895  -16.6258   25.0559 O   0  0  0  0  0  0  0  0  0  0  0  0
    7.8085  -15.5007   23.0341 N   0  0  0  0  0  0  0  0  0  0  0  0
    6.8100  -14.8098   22.2079 C   0  0  0  0  0  0  0  0  0  0  0  0
    7.4332  -14.6478   20.8279 C   0  0  0  0  0  0  0  0  0  0  0  0
    8.9261  -14.6694   21.1976 C   0  0  0  0  0  0  0  0  0  0  0  0
    8.8659  -15.8629   22.1751 C   0  0  1  0  0  0  0  0  0  0  0  0
   10.1979  -16.0619   22.7297 C   0  0  0  0  0  0  0  0  0  0  0  0
   10.9076  -15.2684   23.3740 O   0  0  0  0  0  0  0  0  0  0  0  0
   12.3358  -19.1643   23.0789 C   0  0  0  0  0  0  0  0  0  0  0  0
   12.1027  -17.6605   22.9940 C   0  0  2  0  0  0  0  0  0  0  0  0
   10.7763  -17.3622   22.5000 N   0  0  0  0  0  0  0  0  0  0  0  0
   13.0885  -17.1289   22.0376 C   0  0  0  0  0  0  0  0  0  0  0  0
   12.7247  -16.8311   20.8820 O   0  0  0  0  0  0  0  0  0  0  0  0
   14.4031  -16.9566   22.4008 O   0  0  0  0  0  0  0  0  0  0  0  0
  2  3  1  6
  2  1  1  0
  4  2  1  0
  5  4  1  0
  5  6  1  1
  7  5  1  0
  7  9  1  0
  8  7  2  0
  9 13  1  0
 10  9  1  0
 10 11  1  0
 11 12  1  0
 13 14  1  1
 13 12  1  0
 14 18  1  0
 15 14  2  0
 17 16  1  6
 17 19  1  0
 18 17  1  0
 19 20  2  0
 19 21  1  0
M  END
$$$$
