YAE.pdb
     RDKit          3D

 27 27  0  0  1  0  0  0  0  0999 V2000
   19.6085  -27.6187  -11.0417 O   0  0  0  0  0  0  0  0  0  0  0  0
   20.4135  -28.4719  -10.2852 C   0  0  0  0  0  0  0  0  0  0  0  0
   19.8715  -29.1465   -9.2125 C   0  0  0  0  0  0  0  0  0  0  0  0
   20.6833  -30.0015   -8.4566 C   0  0  0  0  0  0  0  0  0  0  0  0
   22.0124  -30.1709   -8.7772 C   0  0  0  0  0  0  0  0  0  0  0  0
   22.8162  -31.0857   -7.9405 C   0  0  0  0  0  0  0  0  0  0  0  0
   23.1916  -32.3540   -8.6434 C   0  0  2  0  0  0  0  0  0  0  0  0
   22.0765  -33.1536   -9.0751 N   0  0  0  0  0  0  0  0  0  0  0  0
   24.1268  -33.1261   -7.7797 C   0  0  0  0  0  0  0  0  0  0  0  0
   23.6638  -33.9523   -6.9321 O   0  0  0  0  0  0  0  0  0  0  0  0
   22.5501  -29.4956   -9.8491 C   0  0  0  0  0  0  0  0  0  0  0  0
   21.7505  -28.6503  -10.5978 C   0  0  0  0  0  0  0  0  0  0  0  0
   27.8470  -33.5241   -7.5150 C   0  0  0  0  0  0  0  0  0  0  0  0
   26.4333  -33.8372   -7.0782 C   0  0  2  0  0  0  0  0  0  0  0  0
   25.5382  -32.9962   -7.8420 N   0  0  0  0  0  0  0  0  0  0  0  0
   26.3354  -33.5362   -5.6083 C   0  0  0  0  0  0  0  0  0  0  0  0
   26.1874  -32.3256   -5.3213 O   0  0  0  0  0  0  0  0  0  0  0  0
   26.4129  -34.5928   -4.7003 N   0  0  0  0  0  0  0  0  0  0  0  0
   26.1610  -34.4792   -3.3012 C   0  0  1  0  0  0  0  0  0  0  0  0
   24.9433  -35.2392   -2.8242 C   0  0  0  0  0  0  0  0  0  0  0  0
   24.6430  -35.1413   -1.3723 C   0  0  0  0  0  0  0  0  0  0  0  0
   23.4142  -35.8728   -1.0215 C   0  0  0  0  0  0  0  0  0  0  0  0
   22.7612  -36.4959   -1.8654 O   0  0  0  0  0  0  0  0  0  0  0  0
   27.3351  -34.7972   -2.4613 C   0  0  0  0  0  0  0  0  0  0  0  0
   28.2215  -35.6053   -2.8249 O   0  0  0  0  0  0  0  0  0  0  0  0
   22.9229  -35.8967    0.2960 O   0  0  0  0  0  0  0  0  0  0  0  0
   27.4737  -34.1811   -1.2144 O   0  0  0  0  0  0  0  0  0  0  0  0
  2  1  1  0
  3  2  2  0
  4  3  1  0
  5  4  2  0
  5 11  1  0
  6  5  1  0
  6  7  1  0
  7  9  1  0
  7  8  1  1
  9 10  2  0
  9 15  1  0
 11 12  2  0
 12  2  1  0
 14 13  1  6
 15 14  1  0
 16 14  1  0
 16 17  2  0
 18 19  1  0
 18 16  1  0
 19 20  1  1
 19 24  1  0
 20 21  1  0
 22 21  1  0
 23 22  2  0
 24 25  2  0
 24 27  1  0
 26 22  1  0
M  END
$$$$
