YAE.pdb
     RDKit          3D

 27 27  0  0  1  0  0  0  0  0999 V2000
   20.2273  -18.6274  -19.4630 O   0  0  0  0  0  0  0  0  0  0  0  0
   21.3140  -19.5032  -19.4513 C   0  0  0  0  0  0  0  0  0  0  0  0
   21.5290  -20.3364  -20.5278 C   0  0  0  0  0  0  0  0  0  0  0  0
   22.6209  -21.2134  -20.5114 C   0  0  0  0  0  0  0  0  0  0  0  0
   23.4759  -21.2477  -19.4317 C   0  0  0  0  0  0  0  0  0  0  0  0
   24.6086  -22.1954  -19.4743 C   0  0  0  0  0  0  0  0  0  0  0  0
   25.9380  -21.5219  -19.6238 C   0  0  2  0  0  0  0  0  0  0  0  0
   26.1198  -20.8220  -20.8674 N   0  0  0  0  0  0  0  0  0  0  0  0
   27.0154  -22.5221  -19.3874 C   0  0  0  0  0  0  0  0  0  0  0  0
   27.3699  -23.2995  -20.3283 O   0  0  0  0  0  0  0  0  0  0  0  0
   23.2581  -20.4141  -18.3585 C   0  0  0  0  0  0  0  0  0  0  0  0
   22.1803  -19.5467  -18.3720 C   0  0  0  0  0  0  0  0  0  0  0  0
   29.5404  -23.1855  -16.7252 C   0  0  0  0  0  0  0  0  0  0  0  0
   28.7672  -23.6132  -17.9528 C   0  0  2  0  0  0  0  0  0  0  0  0
   27.6896  -22.6684  -18.1477 N   0  0  0  0  0  0  0  0  0  0  0  0
   28.2343  -24.9952  -17.6946 C   0  0  0  0  0  0  0  0  0  0  0  0
   27.1070  -25.0382  -17.1493 O   0  0  0  0  0  0  0  0  0  0  0  0
   29.0083  -26.0939  -18.0699 N   0  0  0  0  0  0  0  0  0  0  0  0
   28.6524  -27.4546  -17.8337 C   0  0  1  0  0  0  0  0  0  0  0  0
   29.7034  -28.4556  -18.2590 C   0  0  0  0  0  0  0  0  0  0  0  0
   29.3065  -29.8858  -18.1871 C   0  0  0  0  0  0  0  0  0  0  0  0
   30.4790  -30.7698  -18.0778 C   0  0  0  0  0  0  0  0  0  0  0  0
   31.6332  -30.3288  -18.0897 O   0  0  0  0  0  0  0  0  0  0  0  0
   28.2127  -27.7186  -16.4474 C   0  0  0  0  0  0  0  0  0  0  0  0
   27.1836  -28.3842  -16.1847 O   0  0  0  0  0  0  0  0  0  0  0  0
   30.3404  -32.1638  -17.9549 O   0  0  0  0  0  0  0  0  0  0  0  0
   28.9629  -27.2135  -15.3817 O   0  0  0  0  0  0  0  0  0  0  0  0
  2  1  1  0
  3  2  2  0
  4  3  1  0
  5  4  2  0
  5 11  1  0
  6  5  1  0
  6  7  1  0
  7  9  1  0
  7  8  1  6
  9 10  2  0
  9 15  1  0
 11 12  2  0
 12  2  1  0
 14 13  1  1
 15 14  1  0
 16 14  1  0
 16 17  2  0
 18 19  1  0
 18 16  1  0
 19 20  1  1
 19 24  1  0
 20 21  1  0
 22 21  1  0
 23 22  2  0
 24 25  2  0
 24 27  1  0
 26 22  1  0
M  END
$$$$
