YAE.pdb
     RDKit          3D

 27 27  0  0  1  0  0  0  0  0999 V2000
   21.2612  -27.3591  -14.0470 O   0  0  0  0  0  0  0  0  0  0  0  0
   20.6728  -27.1281  -12.8026 C   0  0  0  0  0  0  0  0  0  0  0  0
   21.3390  -27.4994  -11.6546 C   0  0  0  0  0  0  0  0  0  0  0  0
   20.7444  -27.2654  -10.4083 C   0  0  0  0  0  0  0  0  0  0  0  0
   19.5050  -26.6699  -10.3240 C   0  0  0  0  0  0  0  0  0  0  0  0
   18.9310  -26.4512   -8.9802 C   0  0  0  0  0  0  0  0  0  0  0  0
   18.6530  -25.0097   -8.6832 C   0  0  2  0  0  0  0  0  0  0  0  0
   19.7707  -24.1280   -8.8899 N   0  0  0  0  0  0  0  0  0  0  0  0
   18.1057  -24.8978   -7.3030 C   0  0  0  0  0  0  0  0  0  0  0  0
   18.8951  -24.9392   -6.3078 O   0  0  0  0  0  0  0  0  0  0  0  0
   18.8428  -26.3004  -11.4725 C   0  0  0  0  0  0  0  0  0  0  0  0
   19.4277  -26.5303  -12.7051 C   0  0  0  0  0  0  0  0  0  0  0  0
   14.9390  -23.8194   -5.7251 C   0  0  0  0  0  0  0  0  0  0  0  0
   16.2136  -24.6318   -5.6701 C   0  0  2  0  0  0  0  0  0  0  0  0
   16.7243  -24.7446   -7.0185 N   0  0  0  0  0  0  0  0  0  0  0  0
   15.8668  -25.9827   -5.1086 C   0  0  0  0  0  0  0  0  0  0  0  0
   15.4622  -26.8205   -5.9478 O   0  0  0  0  0  0  0  0  0  0  0  0
   16.0168  -26.1986   -3.7382 N   0  0  0  0  0  0  0  0  0  0  0  0
   15.6953  -27.4166   -3.0697 C   0  0  1  0  0  0  0  0  0  0  0  0
   16.3607  -27.5809   -1.7214 C   0  0  0  0  0  0  0  0  0  0  0  0
   15.9587  -26.6060   -0.6745 C   0  0  0  0  0  0  0  0  0  0  0  0
   16.6419  -26.8685    0.6031 C   0  0  0  0  0  0  0  0  0  0  0  0
   17.6935  -26.2975    0.9111 O   0  0  0  0  0  0  0  0  0  0  0  0
   14.2425  -27.6693   -2.9675 C   0  0  0  0  0  0  0  0  0  0  0  0
   13.4074  -26.7435   -2.8391 O   0  0  0  0  0  0  0  0  0  0  0  0
   16.1284  -27.7858    1.5371 O   0  0  0  0  0  0  0  0  0  0  0  0
   13.7698  -28.9838   -3.0144 O   0  0  0  0  0  0  0  0  0  0  0  0
  2  1  1  0
  3  2  2  0
  4  3  1  0
  5  4  2  0
  5 11  1  0
  6  5  1  0
  6  7  1  0
  7  9  1  0
  7  8  1  1
  9 10  2  0
  9 15  1  0
 11 12  2  0
 12  2  1  0
 14 13  1  6
 15 14  1  0
 16 14  1  0
 16 17  2  0
 18 19  1  0
 18 16  1  0
 19 20  1  1
 19 24  1  0
 20 21  1  0
 22 21  1  0
 23 22  2  0
 24 25  2  0
 24 27  1  0
 26 22  1  0
M  END
$$$$
