YAE.pdb
     RDKit          3D

 27 27  0  0  1  0  0  0  0  0999 V2000
   19.4188  -22.1821   -9.3736 O   0  0  0  0  0  0  0  0  0  0  0  0
   20.5803  -21.6786   -9.9615 C   0  0  0  0  0  0  0  0  0  0  0  0
   21.3127  -20.7133   -9.3047 C   0  0  0  0  0  0  0  0  0  0  0  0
   22.4776  -20.2112   -9.8987 C   0  0  0  0  0  0  0  0  0  0  0  0
   22.8926  -20.6739  -11.1281 C   0  0  0  0  0  0  0  0  0  0  0  0
   24.1289  -20.1038  -11.7020 C   0  0  0  0  0  0  0  0  0  0  0  0
   25.2958  -21.0410  -11.6421 C   0  0  2  0  0  0  0  0  0  0  0  0
   25.8933  -21.1730  -10.3403 N   0  0  0  0  0  0  0  0  0  0  0  0
   26.2926  -20.6376  -12.6719 C   0  0  0  0  0  0  0  0  0  0  0  0
   26.9941  -19.5929  -12.4936 O   0  0  0  0  0  0  0  0  0  0  0  0
   22.1586  -21.6378  -11.7809 C   0  0  0  0  0  0  0  0  0  0  0  0
   21.0075  -22.1357  -11.1966 C   0  0  0  0  0  0  0  0  0  0  0  0
   27.9967  -22.2367  -15.5322 C   0  0  0  0  0  0  0  0  0  0  0  0
   27.5231  -20.9799  -14.8367 C   0  0  2  0  0  0  0  0  0  0  0  0
   26.5161  -21.3618  -13.8713 N   0  0  0  0  0  0  0  0  0  0  0  0
   26.9481  -20.0697  -15.8862 C   0  0  0  0  0  0  0  0  0  0  0  0
   25.7054  -20.1406  -16.0299 O   0  0  0  0  0  0  0  0  0  0  0  0
   27.8121  -19.2385  -16.6000 N   0  0  0  0  0  0  0  0  0  0  0  0
   27.4121  -18.3733  -17.6609 C   0  0  1  0  0  0  0  0  0  0  0  0
   28.5203  -17.4970  -18.2008 C   0  0  0  0  0  0  0  0  0  0  0  0
   28.1371  -16.5596  -19.2882 C   0  0  0  0  0  0  0  0  0  0  0  0
   29.2908  -15.7771  -19.7622 C   0  0  0  0  0  0  0  0  0  0  0  0
   30.3755  -15.7885  -19.1706 O   0  0  0  0  0  0  0  0  0  0  0  0
   26.7168  -19.0714  -18.7628 C   0  0  0  0  0  0  0  0  0  0  0  0
   27.1384  -20.1477  -19.2476 O   0  0  0  0  0  0  0  0  0  0  0  0
   29.2126  -14.9759  -20.9153 O   0  0  0  0  0  0  0  0  0  0  0  0
   25.5457  -18.5221  -19.2923 O   0  0  0  0  0  0  0  0  0  0  0  0
  2  1  1  0
  3  2  2  0
  4  3  1  0
  5  4  2  0
  5 11  1  0
  6  5  1  0
  6  7  1  0
  7  9  1  0
  7  8  1  1
  9 10  2  0
  9 15  1  0
 11 12  2  0
 12  2  1  0
 14 13  1  6
 15 14  1  0
 16 14  1  0
 16 17  2  0
 18 19  1  0
 18 16  1  0
 19 20  1  6
 19 24  1  0
 20 21  1  0
 22 21  1  0
 23 22  2  0
 24 25  2  0
 24 27  1  0
 26 22  1  0
M  END
$$$$
