YAE.pdb
     RDKit          3D

 27 27  0  0  1  0  0  0  0  0999 V2000
   21.3992  -19.6601  -11.9311 O   0  0  0  0  0  0  0  0  0  0  0  0
   21.0091  -18.5621  -12.6996 C   0  0  0  0  0  0  0  0  0  0  0  0
   21.4601  -18.4437  -13.9965 C   0  0  0  0  0  0  0  0  0  0  0  0
   21.0658  -17.3402  -14.7636 C   0  0  0  0  0  0  0  0  0  0  0  0
   20.2349  -16.3784  -14.2322 C   0  0  0  0  0  0  0  0  0  0  0  0
   19.8560  -15.2380  -15.0918 C   0  0  0  0  0  0  0  0  0  0  0  0
   18.5611  -15.4471  -15.8150 C   0  0  2  0  0  0  0  0  0  0  0  0
   18.5609  -16.5495  -16.7391 N   0  0  0  0  0  0  0  0  0  0  0  0
   18.1638  -14.1717  -16.4726 C   0  0  0  0  0  0  0  0  0  0  0  0
   18.8330  -13.7391  -17.4626 O   0  0  0  0  0  0  0  0  0  0  0  0
   19.7867  -16.5000  -12.9367 C   0  0  0  0  0  0  0  0  0  0  0  0
   20.1745  -17.5891  -12.1766 C   0  0  0  0  0  0  0  0  0  0  0  0
   15.2065  -11.9235  -16.4377 C   0  0  0  0  0  0  0  0  0  0  0  0
   16.6715  -12.1651  -16.7259 C   0  0  2  0  0  0  0  0  0  0  0  0
   17.0582  -13.3867  -16.0550 N   0  0  0  0  0  0  0  0  0  0  0  0
   17.4393  -10.9883  -16.1910 C   0  0  0  0  0  0  0  0  0  0  0  0
   17.9029  -11.1350  -15.0363 O   0  0  0  0  0  0  0  0  0  0  0  0
   17.5761   -9.8553  -16.9939 N   0  0  0  0  0  0  0  0  0  0  0  0
   18.3004   -8.6833  -16.6251 C   0  0  1  0  0  0  0  0  0  0  0  0
   18.5432   -7.7178  -17.7637 C   0  0  0  0  0  0  0  0  0  0  0  0
   19.3412   -6.5089  -17.4324 C   0  0  0  0  0  0  0  0  0  0  0  0
   19.4207   -5.5813  -18.5732 C   0  0  0  0  0  0  0  0  0  0  0  0
   18.9121   -5.8465  -19.6677 O   0  0  0  0  0  0  0  0  0  0  0  0
   17.7299   -7.9787  -15.4576 C   0  0  0  0  0  0  0  0  0  0  0  0
   16.5036   -7.7436  -15.3487 O   0  0  0  0  0  0  0  0  0  0  0  0
   20.0824   -4.3447  -18.4712 O   0  0  0  0  0  0  0  0  0  0  0  0
   18.5780   -7.5539  -14.4310 O   0  0  0  0  0  0  0  0  0  0  0  0
  2  1  1  0
  3  2  2  0
  4  3  1  0
  5  4  2  0
  5 11  1  0
  6  5  1  0
  6  7  1  0
  7  9  1  0
  7  8  1  6
  9 10  2  0
  9 15  1  0
 11 12  2  0
 12  2  1  0
 14 13  1  1
 15 14  1  0
 16 14  1  0
 16 17  2  0
 18 19  1  0
 18 16  1  0
 19 20  1  6
 19 24  1  0
 20 21  1  0
 22 21  1  0
 23 22  2  0
 24 25  2  0
 24 27  1  0
 26 22  1  0
M  END
$$$$
