YAE.pdb
     RDKit          3D

 27 27  0  0  1  0  0  0  0  0999 V2000
   11.7253  -20.3726    0.9447 O   0  0  0  0  0  0  0  0  0  0  0  0
   12.7510  -19.8963    1.7628 C   0  0  0  0  0  0  0  0  0  0  0  0
   12.5971  -18.6932    2.4173 C   0  0  0  0  0  0  0  0  0  0  0  0
   13.6291  -18.2195    3.2372 C   0  0  0  0  0  0  0  0  0  0  0  0
   14.7900  -18.9449    3.3920 C   0  0  0  0  0  0  0  0  0  0  0  0
   15.8417  -18.3909    4.2695 C   0  0  0  0  0  0  0  0  0  0  0  0
   16.7273  -17.4000    3.5785 C   0  0  2  0  0  0  0  0  0  0  0  0
   17.3559  -17.8898    2.3809 N   0  0  0  0  0  0  0  0  0  0  0  0
   17.7234  -16.8793    4.5550 C   0  0  0  0  0  0  0  0  0  0  0  0
   18.8443  -17.4646    4.6832 O   0  0  0  0  0  0  0  0  0  0  0  0
   14.9401  -20.1458    2.7369 C   0  0  0  0  0  0  0  0  0  0  0  0
   13.9222  -20.6163    1.9263 C   0  0  0  0  0  0  0  0  0  0  0  0
   17.9911  -13.9632    6.8918 C   0  0  0  0  0  0  0  0  0  0  0  0
   18.4215  -15.3294    6.4064 C   0  0  2  0  0  0  0  0  0  0  0  0
   17.4973  -15.7430    5.3737 N   0  0  0  0  0  0  0  0  0  0  0  0
   18.3721  -16.2651    7.5823 C   0  0  0  0  0  0  0  0  0  0  0  0
   17.4381  -17.0999    7.5599 O   0  0  0  0  0  0  0  0  0  0  0  0
   19.3393  -16.1403    8.5803 N   0  0  0  0  0  0  0  0  0  0  0  0
   19.4234  -16.9719    9.7359 C   0  0  1  0  0  0  0  0  0  0  0  0
   19.0402  -18.4148    9.4936 C   0  0  0  0  0  0  0  0  0  0  0  0
   19.0522  -19.3003   10.6869 C   0  0  0  0  0  0  0  0  0  0  0  0
   18.6727  -20.6807   10.3425 C   0  0  0  0  0  0  0  0  0  0  0  0
   18.4433  -21.0241    9.1779 O   0  0  0  0  0  0  0  0  0  0  0  0
   20.7254  -16.8887   10.4307 C   0  0  0  0  0  0  0  0  0  0  0  0
   21.7069  -16.2776    9.9466 O   0  0  0  0  0  0  0  0  0  0  0  0
   18.5523  -21.6778   11.3268 O   0  0  0  0  0  0  0  0  0  0  0  0
   20.8810  -17.5095   11.6733 O   0  0  0  0  0  0  0  0  0  0  0  0
  2  1  1  0
  3  2  2  0
  4  3  1  0
  5  4  2  0
  5 11  1  0
  6  5  1  0
  6  7  1  0
  7  9  1  0
  7  8  1  6
  9 10  2  0
  9 15  1  0
 11 12  2  0
 12  2  1  0
 14 13  1  1
 15 14  1  0
 16 14  1  0
 16 17  2  0
 18 19  1  0
 18 16  1  0
 19 20  1  6
 19 24  1  0
 20 21  1  0
 22 21  1  0
 23 22  2  0
 24 25  2  0
 24 27  1  0
 26 22  1  0
M  END
$$$$
