YAE.pdb
     RDKit          3D

 27 27  0  0  1  0  0  0  0  0999 V2000
   36.3722  -26.6685  -20.5030 O   0  0  0  0  0  0  0  0  0  0  0  0
   34.9969  -26.7668  -20.2861 C   0  0  0  0  0  0  0  0  0  0  0  0
   34.5019  -26.6823  -19.0027 C   0  0  0  0  0  0  0  0  0  0  0  0
   33.1211  -26.7815  -18.7903 C   0  0  0  0  0  0  0  0  0  0  0  0
   32.2603  -26.9621  -19.8506 C   0  0  0  0  0  0  0  0  0  0  0  0
   30.8148  -27.0603  -19.5609 C   0  0  0  0  0  0  0  0  0  0  0  0
   30.3933  -28.4252  -19.1105 C   0  0  2  0  0  0  0  0  0  0  0  0
   30.5889  -29.4657  -20.0844 N   0  0  0  0  0  0  0  0  0  0  0  0
   28.9821  -28.3641  -18.6397 C   0  0  0  0  0  0  0  0  0  0  0  0
   28.0478  -28.7763  -19.3964 O   0  0  0  0  0  0  0  0  0  0  0  0
   32.7582  -27.0460  -21.1308 C   0  0  0  0  0  0  0  0  0  0  0  0
   34.1219  -26.9483  -21.3437 C   0  0  0  0  0  0  0  0  0  0  0  0
   27.3003  -27.8165  -15.3634 C   0  0  0  0  0  0  0  0  0  0  0  0
   27.2471  -27.9486  -16.8691 C   0  0  2  0  0  0  0  0  0  0  0  0
   28.6018  -27.8619  -17.3685 N   0  0  0  0  0  0  0  0  0  0  0  0
   26.4042  -26.8197  -17.3942 C   0  0  0  0  0  0  0  0  0  0  0  0
   27.0331  -25.7756  -17.6843 O   0  0  0  0  0  0  0  0  0  0  0  0
   25.0276  -27.0110  -17.5171 N   0  0  0  0  0  0  0  0  0  0  0  0
   24.1031  -26.0059  -17.9285 C   0  0  1  0  0  0  0  0  0  0  0  0
   22.8364  -26.5444  -18.5554 C   0  0  0  0  0  0  0  0  0  0  0  0
   21.8917  -25.5287  -19.0884 C   0  0  0  0  0  0  0  0  0  0  0  0
   20.7168  -26.1564  -19.7157 C   0  0  0  0  0  0  0  0  0  0  0  0
   20.5492  -27.3806  -19.7108 O   0  0  0  0  0  0  0  0  0  0  0  0
   23.7837  -25.0268  -16.8681 C   0  0  0  0  0  0  0  0  0  0  0  0
   23.7404  -25.3407  -15.6555 O   0  0  0  0  0  0  0  0  0  0  0  0
   19.7256  -25.3894  -20.3535 O   0  0  0  0  0  0  0  0  0  0  0  0
   23.5184  -23.6996  -17.2170 O   0  0  0  0  0  0  0  0  0  0  0  0
  2  1  1  0
  3  2  2  0
  4  3  1  0
  5  4  2  0
  5 11  1  0
  6  5  1  0
  6  7  1  0
  7  9  1  0
  7  8  1  6
  9 10  2  0
  9 15  1  0
 11 12  2  0
 12  2  1  0
 14 13  1  1
 15 14  1  0
 16 14  1  0
 16 17  2  0
 18 19  1  0
 18 16  1  0
 19 20  1  1
 19 24  1  0
 20 21  1  0
 22 21  1  0
 23 22  2  0
 24 25  2  0
 24 27  1  0
 26 22  1  0
M  END
$$$$
