YAE.pdb
     RDKit          3D

 27 27  0  0  1  0  0  0  0  0999 V2000
   18.9584  -15.5534  -22.7102 O   0  0  0  0  0  0  0  0  0  0  0  0
   19.2404  -14.6482  -21.6858 C   0  0  0  0  0  0  0  0  0  0  0  0
   18.2051  -14.0200  -21.0279 C   0  0  0  0  0  0  0  0  0  0  0  0
   18.4932  -13.1125  -20.0006 C   0  0  0  0  0  0  0  0  0  0  0  0
   19.7976  -12.8460  -19.6465 C   0  0  0  0  0  0  0  0  0  0  0  0
   20.0358  -11.8784  -18.5557 C   0  0  0  0  0  0  0  0  0  0  0  0
   20.6183  -12.5048  -17.3261 C   0  0  2  0  0  0  0  0  0  0  0  0
   19.8056  -13.5335  -16.7341 N   0  0  0  0  0  0  0  0  0  0  0  0
   20.9533  -11.4316  -16.3498 C   0  0  0  0  0  0  0  0  0  0  0  0
   20.0248  -10.8726  -15.6860 O   0  0  0  0  0  0  0  0  0  0  0  0
   20.8288  -13.4753  -20.3058 C   0  0  0  0  0  0  0  0  0  0  0  0
   20.5472  -14.3723  -21.3209 C   0  0  0  0  0  0  0  0  0  0  0  0
   24.0771  -10.0728  -14.8219 C   0  0  0  0  0  0  0  0  0  0  0  0
   22.5904   -9.9996  -15.0903 C   0  0  2  0  0  0  0  0  0  0  0  0
   22.2759  -10.9799  -16.1061 N   0  0  0  0  0  0  0  0  0  0  0  0
   22.2838   -8.6077  -15.5689 C   0  0  0  0  0  0  0  0  0  0  0  0
   22.4844   -8.4078  -16.7895 O   0  0  0  0  0  0  0  0  0  0  0  0
   21.8123   -7.6703  -14.6491 N   0  0  0  0  0  0  0  0  0  0  0  0
   21.4665   -6.3241  -14.9688 C   0  0  1  0  0  0  0  0  0  0  0  0
   19.9803   -6.0788  -15.1047 C   0  0  0  0  0  0  0  0  0  0  0  0
   19.5790   -4.6898  -15.4478 C   0  0  0  0  0  0  0  0  0  0  0  0
   18.1173   -4.5618  -15.5715 C   0  0  0  0  0  0  0  0  0  0  0  0
   17.5269   -4.8084  -16.6285 O   0  0  0  0  0  0  0  0  0  0  0  0
   22.0785   -5.3262  -14.0661 C   0  0  0  0  0  0  0  0  0  0  0  0
   22.3136   -5.5679  -12.8590 O   0  0  0  0  0  0  0  0  0  0  0  0
   17.3206   -4.1505  -14.4881 O   0  0  0  0  0  0  0  0  0  0  0  0
   22.4119   -4.0636  -14.5644 O   0  0  0  0  0  0  0  0  0  0  0  0
  2  1  1  0
  3  2  2  0
  4  3  1  0
  5  4  2  0
  5 11  1  0
  6  5  1  0
  6  7  1  0
  7  9  1  0
  7  8  1  1
  9 10  2  0
  9 15  1  0
 11 12  2  0
 12  2  1  0
 14 13  1  6
 15 14  1  0
 16 14  1  0
 16 17  2  0
 18 19  1  0
 18 16  1  0
 19 20  1  1
 19 24  1  0
 20 21  1  0
 22 21  1  0
 23 22  2  0
 24 25  2  0
 24 27  1  0
 26 22  1  0
M  END
$$$$
