YAE.pdb
     RDKit          3D

 27 27  0  0  1  0  0  0  0  0999 V2000
   31.6046  -21.2231   -8.8722 O   0  0  0  0  0  0  0  0  0  0  0  0
   30.3911  -21.0924   -9.5493 C   0  0  0  0  0  0  0  0  0  0  0  0
   29.8091  -22.2014  -10.1243 C   0  0  0  0  0  0  0  0  0  0  0  0
   28.5912  -22.0652  -10.8026 C   0  0  0  0  0  0  0  0  0  0  0  0
   27.9757  -20.8364  -10.8975 C   0  0  0  0  0  0  0  0  0  0  0  0
   26.6933  -20.7580  -11.6270 C   0  0  0  0  0  0  0  0  0  0  0  0
   25.5964  -20.1236  -10.8284 C   0  0  2  0  0  0  0  0  0  0  0  0
   25.3383  -20.7502   -9.5594 N   0  0  0  0  0  0  0  0  0  0  0  0
   24.3697  -20.0463  -11.6688 C   0  0  0  0  0  0  0  0  0  0  0  0
   23.4330  -20.8872  -11.4936 O   0  0  0  0  0  0  0  0  0  0  0  0
   28.5599  -19.7312  -10.3220 C   0  0  0  0  0  0  0  0  0  0  0  0
   29.7629  -19.8627   -9.6513 C   0  0  0  0  0  0  0  0  0  0  0  0
   23.0748  -17.7806  -14.3666 C   0  0  0  0  0  0  0  0  0  0  0  0
   22.9327  -18.9454  -13.4124 C   0  0  2  0  0  0  0  0  0  0  0  0
   24.1732  -19.0702  -12.6793 N   0  0  0  0  0  0  0  0  0  0  0  0
   22.6646  -20.1753  -14.2346 C   0  0  0  0  0  0  0  0  0  0  0  0
   23.6768  -20.6988  -14.7556 O   0  0  0  0  0  0  0  0  0  0  0  0
   21.3509  -20.6302  -14.3530 N   0  0  0  0  0  0  0  0  0  0  0  0
   20.9573  -21.7891  -15.0852 C   0  0  1  0  0  0  0  0  0  0  0  0
   19.8160  -22.5614  -14.4618 C   0  0  0  0  0  0  0  0  0  0  0  0
   19.3715  -23.7730  -15.1983 C   0  0  0  0  0  0  0  0  0  0  0  0
   18.2077  -24.4038  -14.5535 C   0  0  0  0  0  0  0  0  0  0  0  0
   17.6410  -25.3857  -15.0449 O   0  0  0  0  0  0  0  0  0  0  0  0
   20.6864  -21.5223  -16.5136 C   0  0  0  0  0  0  0  0  0  0  0  0
   20.0070  -20.5409  -16.8961 O   0  0  0  0  0  0  0  0  0  0  0  0
   17.6833  -23.9165  -13.3431 O   0  0  0  0  0  0  0  0  0  0  0  0
   21.2008  -22.3879  -17.4829 O   0  0  0  0  0  0  0  0  0  0  0  0
  2  1  1  0
  3  2  2  0
  4  3  1  0
  5  4  2  0
  5 11  1  0
  6  5  1  0
  6  7  1  0
  7  9  1  0
  7  8  1  1
  9 10  2  0
  9 15  1  0
 11 12  2  0
 12  2  1  0
 14 13  1  6
 15 14  1  0
 16 14  1  0
 16 17  2  0
 18 19  1  0
 18 16  1  0
 19 20  1  1
 19 24  1  0
 20 21  1  0
 22 21  1  0
 23 22  2  0
 24 25  2  0
 24 27  1  0
 26 22  1  0
M  END
$$$$
