YAE.pdb
     RDKit          3D

 27 27  0  0  1  0  0  0  0  0999 V2000
   24.8454  -31.1603   -9.9274 O   0  0  0  0  0  0  0  0  0  0  0  0
   25.3900  -32.0494   -8.9994 C   0  0  0  0  0  0  0  0  0  0  0  0
   25.4166  -31.7088   -7.6642 C   0  0  0  0  0  0  0  0  0  0  0  0
   25.9641  -32.6043   -6.7369 C   0  0  0  0  0  0  0  0  0  0  0  0
   26.4730  -33.8162   -7.1494 C   0  0  0  0  0  0  0  0  0  0  0  0
   27.0376  -34.7164   -6.1229 C   0  0  0  0  0  0  0  0  0  0  0  0
   28.5081  -34.9507   -6.2859 C   0  0  2  0  0  0  0  0  0  0  0  0
   28.8745  -35.6526   -7.4869 N   0  0  0  0  0  0  0  0  0  0  0  0
   29.0271  -35.6291   -5.0664 C   0  0  0  0  0  0  0  0  0  0  0  0
   28.8382  -36.8764   -4.9115 O   0  0  0  0  0  0  0  0  0  0  0  0
   26.4446  -34.1529   -8.4835 C   0  0  0  0  0  0  0  0  0  0  0  0
   25.9044  -33.2702   -9.4019 C   0  0  0  0  0  0  0  0  0  0  0  0
   31.0495  -34.6673   -2.0611 C   0  0  0  0  0  0  0  0  0  0  0  0
   30.1285  -35.6068   -2.8072 C   0  0  2  0  0  0  0  0  0  0  0  0
   29.7369  -34.9567   -4.0384 N   0  0  0  0  0  0  0  0  0  0  0  0
   28.9356  -35.8651   -1.9292 C   0  0  0  0  0  0  0  0  0  0  0  0
   27.8320  -35.5280   -2.4173 O   0  0  0  0  0  0  0  0  0  0  0  0
   29.1377  -36.4437   -0.6757 N   0  0  0  0  0  0  0  0  0  0  0  0
   28.1093  -36.6771    0.2845 C   0  0  1  0  0  0  0  0  0  0  0  0
   26.9359  -37.4735   -0.2413 C   0  0  0  0  0  0  0  0  0  0  0  0
   25.8629  -37.7764    0.7410 C   0  0  0  0  0  0  0  0  0  0  0  0
   24.7842  -36.7754    0.6926 C   0  0  0  0  0  0  0  0  0  0  0  0
   24.4628  -36.2113   -0.3588 O   0  0  0  0  0  0  0  0  0  0  0  0
   28.6040  -37.2542    1.5523 C   0  0  0  0  0  0  0  0  0  0  0  0
   29.5039  -38.1260    1.5870 O   0  0  0  0  0  0  0  0  0  0  0  0
   24.0658  -36.4116    1.8455 O   0  0  0  0  0  0  0  0  0  0  0  0
   28.0569  -36.8207    2.7632 O   0  0  0  0  0  0  0  0  0  0  0  0
  2  1  1  0
  3  2  2  0
  4  3  1  0
  5  4  2  0
  5 11  1  0
  6  5  1  0
  6  7  1  0
  7  9  1  0
  7  8  1  6
  9 10  2  0
  9 15  1  0
 11 12  2  0
 12  2  1  0
 14 13  1  1
 15 14  1  0
 16 14  1  0
 16 17  2  0
 18 19  1  0
 18 16  1  0
 19 20  1  6
 19 24  1  0
 20 21  1  0
 22 21  1  0
 23 22  2  0
 24 25  2  0
 24 27  1  0
 26 22  1  0
M  END
$$$$
