YAE.pdb
     RDKit          3D

 27 27  0  0  1  0  0  0  0  0999 V2000
   29.1768  -19.8265   -3.6446 O   0  0  0  0  0  0  0  0  0  0  0  0
   28.7255  -19.8259   -4.9654 C   0  0  0  0  0  0  0  0  0  0  0  0
   27.4249  -20.1890   -5.2411 C   0  0  0  0  0  0  0  0  0  0  0  0
   26.9769  -20.1868   -6.5681 C   0  0  0  0  0  0  0  0  0  0  0  0
   27.8238  -19.8260   -7.5930 C   0  0  0  0  0  0  0  0  0  0  0  0
   27.2916  -19.8449   -8.9712 C   0  0  0  0  0  0  0  0  0  0  0  0
   27.3906  -21.1889   -9.6250 C   0  0  2  0  0  0  0  0  0  0  0  0
   28.7306  -21.6958   -9.7552 N   0  0  0  0  0  0  0  0  0  0  0  0
   26.6855  -21.1416  -10.9355 C   0  0  0  0  0  0  0  0  0  0  0  0
   27.2661  -20.6316  -11.9445 O   0  0  0  0  0  0  0  0  0  0  0  0
   29.1219  -19.4639   -7.3139 C   0  0  0  0  0  0  0  0  0  0  0  0
   29.5673  -19.4652   -6.0039 C   0  0  0  0  0  0  0  0  0  0  0  0
   23.8319  -22.7123  -12.6180 C   0  0  0  0  0  0  0  0  0  0  0  0
   24.6537  -21.4653  -12.3793 C   0  0  2  0  0  0  0  0  0  0  0  0
   25.3730  -21.6411  -11.1369 N   0  0  0  0  0  0  0  0  0  0  0  0
   23.7023  -20.3043  -12.2936 C   0  0  0  0  0  0  0  0  0  0  0  0
   24.1207  -19.3198  -11.6412 O   0  0  0  0  0  0  0  0  0  0  0  0
   22.4630  -20.4040  -12.9271 N   0  0  0  0  0  0  0  0  0  0  0  0
   21.9158  -19.4155  -13.7973 C   0  0  1  0  0  0  0  0  0  0  0  0
   22.8472  -18.9778  -14.9058 C   0  0  0  0  0  0  0  0  0  0  0  0
   22.3441  -17.8928  -15.7877 C   0  0  0  0  0  0  0  0  0  0  0  0
   23.3206  -17.5470  -16.8341 C   0  0  0  0  0  0  0  0  0  0  0  0
   23.0935  -17.7480  -18.0320 O   0  0  0  0  0  0  0  0  0  0  0  0
   20.5905  -19.7767  -14.3432 C   0  0  0  0  0  0  0  0  0  0  0  0
   19.6107  -18.9963  -14.2987 O   0  0  0  0  0  0  0  0  0  0  0  0
   24.5636  -16.9698  -16.5187 O   0  0  0  0  0  0  0  0  0  0  0  0
   20.4101  -21.0309  -14.9331 O   0  0  0  0  0  0  0  0  0  0  0  0
  2  1  1  0
  3  2  2  0
  4  3  1  0
  5  4  2  0
  5 11  1  0
  6  5  1  0
  6  7  1  0
  7  9  1  0
  7  8  1  6
  9 10  2  0
  9 15  1  0
 11 12  2  0
 12  2  1  0
 14 13  1  1
 15 14  1  0
 16 14  1  0
 16 17  2  0
 18 19  1  0
 18 16  1  0
 19 20  1  6
 19 24  1  0
 20 21  1  0
 22 21  1  0
 23 22  2  0
 24 25  2  0
 24 27  1  0
 26 22  1  0
M  END
$$$$
