YAE.pdb
     RDKit          3D

 27 27  0  0  1  0  0  0  0  0999 V2000
   19.1830  -20.0340  -14.4673 O   0  0  0  0  0  0  0  0  0  0  0  0
   19.4309  -18.7290  -14.8962 C   0  0  0  0  0  0  0  0  0  0  0  0
   20.3565  -17.9567  -14.2281 C   0  0  0  0  0  0  0  0  0  0  0  0
   20.6018  -16.6479  -14.6624 C   0  0  0  0  0  0  0  0  0  0  0  0
   19.9271  -16.1315  -15.7468 C   0  0  0  0  0  0  0  0  0  0  0  0
   20.2298  -14.7441  -16.1548 C   0  0  0  0  0  0  0  0  0  0  0  0
   20.9247  -14.6552  -17.4787 C   0  0  2  0  0  0  0  0  0  0  0  0
   22.1983  -15.3217  -17.5340 N   0  0  0  0  0  0  0  0  0  0  0  0
   21.0302  -13.2235  -17.8737 C   0  0  0  0  0  0  0  0  0  0  0  0
   21.9090  -12.4837  -17.3299 O   0  0  0  0  0  0  0  0  0  0  0  0
   19.0036  -16.9056  -16.4114 C   0  0  0  0  0  0  0  0  0  0  0  0
   18.7593  -18.1990  -15.9847 C   0  0  0  0  0  0  0  0  0  0  0  0
   19.5016  -11.0228  -20.4876 C   0  0  0  0  0  0  0  0  0  0  0  0
   20.3430  -11.2349  -19.2488 C   0  0  2  0  0  0  0  0  0  0  0  0
   20.1912  -12.6146  -18.8423 N   0  0  0  0  0  0  0  0  0  0  0  0
   19.8327  -10.2996  -18.1880 C   0  0  0  0  0  0  0  0  0  0  0  0
   19.1819  -10.8440  -17.2661 O   0  0  0  0  0  0  0  0  0  0  0  0
   20.1126   -8.9375  -18.3031 N   0  0  0  0  0  0  0  0  0  0  0  0
   19.7598   -7.9528  -17.3336 C   0  0  1  0  0  0  0  0  0  0  0  0
   20.2219   -8.2691  -15.9286 C   0  0  0  0  0  0  0  0  0  0  0  0
   19.8613   -7.2738  -14.8857 C   0  0  0  0  0  0  0  0  0  0  0  0
   20.4837   -7.5949  -13.5905 C   0  0  0  0  0  0  0  0  0  0  0  0
   21.6555   -7.2960  -13.3366 O   0  0  0  0  0  0  0  0  0  0  0  0
   20.1540   -6.5801  -17.7147 C   0  0  0  0  0  0  0  0  0  0  0  0
   20.9689   -6.3475  -18.6381 O   0  0  0  0  0  0  0  0  0  0  0  0
   19.7715   -8.2604  -12.5769 O   0  0  0  0  0  0  0  0  0  0  0  0
   19.6053   -5.4931  -17.0283 O   0  0  0  0  0  0  0  0  0  0  0  0
  2  1  1  0
  3  2  2  0
  4  3  1  0
  5  4  2  0
  5 11  1  0
  6  5  1  0
  6  7  1  0
  7  9  1  0
  7  8  1  1
  9 10  2  0
  9 15  1  0
 11 12  2  0
 12  2  1  0
 14 13  1  6
 15 14  1  0
 16 14  1  0
 16 17  2  0
 18 19  1  0
 18 16  1  0
 19 20  1  1
 19 24  1  0
 20 21  1  0
 22 21  1  0
 23 22  2  0
 24 25  2  0
 24 27  1  0
 26 22  1  0
M  END
$$$$
