YAE.pdb
     RDKit          3D

 27 27  0  0  1  0  0  0  0  0999 V2000
   28.5992  -10.9926  -15.9152 O   0  0  0  0  0  0  0  0  0  0  0  0
   27.3568  -10.3570  -15.8944 C   0  0  0  0  0  0  0  0  0  0  0  0
   26.3828  -10.7935  -15.0225 C   0  0  0  0  0  0  0  0  0  0  0  0
   25.1377  -10.1524  -15.0054 C   0  0  0  0  0  0  0  0  0  0  0  0
   24.8826   -9.0944  -15.8502 C   0  0  0  0  0  0  0  0  0  0  0  0
   23.5494   -8.4611  -15.7849 C   0  0  0  0  0  0  0  0  0  0  0  0
   22.4633   -9.3066  -16.3757 C   0  0  2  0  0  0  0  0  0  0  0  0
   22.7922   -9.9089  -17.6400 N   0  0  0  0  0  0  0  0  0  0  0  0
   21.2129   -8.5021  -16.4528 C   0  0  0  0  0  0  0  0  0  0  0  0
   21.1111   -7.5789  -17.3204 O   0  0  0  0  0  0  0  0  0  0  0  0
   25.8577   -8.6613  -16.7195 C   0  0  0  0  0  0  0  0  0  0  0  0
   27.0887   -9.2927  -16.7385 C   0  0  0  0  0  0  0  0  0  0  0  0
   17.7804   -8.7946  -15.0194 C   0  0  0  0  0  0  0  0  0  0  0  0
   18.8310   -8.0361  -15.7995 C   0  0  2  0  0  0  0  0  0  0  0  0
   20.0983   -8.7034  -15.5984 N   0  0  0  0  0  0  0  0  0  0  0  0
   18.8684   -6.6319  -15.2635 C   0  0  0  0  0  0  0  0  0  0  0  0
   19.8996   -6.3361  -14.6162 O   0  0  0  0  0  0  0  0  0  0  0  0
   17.7874   -5.7872  -15.5184 N   0  0  0  0  0  0  0  0  0  0  0  0
   17.7305   -4.4103  -15.1511 C   0  0  1  0  0  0  0  0  0  0  0  0
   18.8995   -3.5862  -15.6430 C   0  0  0  0  0  0  0  0  0  0  0  0
   18.8388   -2.1309  -15.3490 C   0  0  0  0  0  0  0  0  0  0  0  0
   20.0452   -1.4309  -15.8209 C   0  0  0  0  0  0  0  0  0  0  0  0
   21.1813   -1.8070  -15.5133 O   0  0  0  0  0  0  0  0  0  0  0  0
   16.4506   -3.7579  -15.4993 C   0  0  0  0  0  0  0  0  0  0  0  0
   15.7498   -4.1296  -16.4698 O   0  0  0  0  0  0  0  0  0  0  0  0
   19.9615   -0.2959  -16.6470 O   0  0  0  0  0  0  0  0  0  0  0  0
   15.9939   -2.6867  -14.7263 O   0  0  0  0  0  0  0  0  0  0  0  0
  2  1  1  0
  3  2  2  0
  4  3  1  0
  5  4  2  0
  5 11  1  0
  6  5  1  0
  6  7  1  0
  7  9  1  0
  7  8  1  6
  9 10  2  0
  9 15  1  0
 11 12  2  0
 12  2  1  0
 14 13  1  1
 15 14  1  0
 16 14  1  0
 16 17  2  0
 18 19  1  0
 18 16  1  0
 19 20  1  6
 19 24  1  0
 20 21  1  0
 22 21  1  0
 23 22  2  0
 24 25  2  0
 24 27  1  0
 26 22  1  0
M  END
$$$$
