YAE.pdb
     RDKit          3D

 27 27  0  0  1  0  0  0  0  0999 V2000
   10.7839  -24.0162   -5.8262 O   0  0  0  0  0  0  0  0  0  0  0  0
   11.4827  -23.8618   -4.6279 C   0  0  0  0  0  0  0  0  0  0  0  0
   11.7101  -22.5969   -4.1301 C   0  0  0  0  0  0  0  0  0  0  0  0
   12.4117  -22.4471   -2.9272 C   0  0  0  0  0  0  0  0  0  0  0  0
   12.8731  -23.5503   -2.2431 C   0  0  0  0  0  0  0  0  0  0  0  0
   13.6072  -23.3260   -0.9807 C   0  0  0  0  0  0  0  0  0  0  0  0
   14.9269  -22.6451   -1.1769 C   0  0  2  0  0  0  0  0  0  0  0  0
   15.8676  -23.3795   -1.9801 N   0  0  0  0  0  0  0  0  0  0  0  0
   15.4910  -22.2923    0.1551 C   0  0  0  0  0  0  0  0  0  0  0  0
   16.1072  -23.1746    0.8312 O   0  0  0  0  0  0  0  0  0  0  0  0
   12.6442  -24.8118   -2.7433 C   0  0  0  0  0  0  0  0  0  0  0  0
   11.9513  -24.9628   -3.9313 C   0  0  0  0  0  0  0  0  0  0  0  0
   15.9643  -19.1395    2.1162 C   0  0  0  0  0  0  0  0  0  0  0  0
   16.0472  -20.6423    1.9678 C   0  0  2  0  0  0  0  0  0  0  0  0
   15.3824  -21.0019    0.7346 N   0  0  0  0  0  0  0  0  0  0  0  0
   15.3545  -21.2543    3.1537 C   0  0  0  0  0  0  0  0  0  0  0  0
   14.1869  -21.6555    2.9400 O   0  0  0  0  0  0  0  0  0  0  0  0
   16.0405  -21.3295    4.3664 N   0  0  0  0  0  0  0  0  0  0  0  0
   15.5023  -21.8741    5.5696 C   0  0  1  0  0  0  0  0  0  0  0  0
   16.5161  -22.0605    6.6764 C   0  0  0  0  0  0  0  0  0  0  0  0
   17.0525  -20.8149    7.2837 C   0  0  0  0  0  0  0  0  0  0  0  0
   18.0185  -21.1060    8.3561 C   0  0  0  0  0  0  0  0  0  0  0  0
   19.2233  -21.2572    8.1270 O   0  0  0  0  0  0  0  0  0  0  0  0
   14.3150  -21.1482    6.0679 C   0  0  0  0  0  0  0  0  0  0  0  0
   13.4714  -21.6814    6.8262 O   0  0  0  0  0  0  0  0  0  0  0  0
   17.6143  -21.2269    9.6976 O   0  0  0  0  0  0  0  0  0  0  0  0
   14.1141  -19.8184    5.6873 O   0  0  0  0  0  0  0  0  0  0  0  0
  2  1  1  0
  3  2  2  0
  4  3  1  0
  5  4  2  0
  5 11  1  0
  6  5  1  0
  6  7  1  0
  7  9  1  0
  7  8  1  1
  9 10  2  0
  9 15  1  0
 11 12  2  0
 12  2  1  0
 14 13  1  1
 15 14  1  0
 16 14  1  0
 16 17  2  0
 18 19  1  0
 18 16  1  0
 19 20  1  1
 19 24  1  0
 20 21  1  0
 22 21  1  0
 23 22  2  0
 24 25  2  0
 24 27  1  0
 26 22  1  0
M  END
$$$$
