YAE.pdb
     RDKit          3D

 27 27  0  0  1  0  0  0  0  0999 V2000
   25.3000  -17.4842  -23.6464 O   0  0  0  0  0  0  0  0  0  0  0  0
   25.1139  -16.5174  -22.6569 C   0  0  0  0  0  0  0  0  0  0  0  0
   23.8820  -16.3899  -22.0523 C   0  0  0  0  0  0  0  0  0  0  0  0
   23.7003  -15.4184  -21.0599 C   0  0  0  0  0  0  0  0  0  0  0  0
   24.7397  -14.5946  -20.6872 C   0  0  0  0  0  0  0  0  0  0  0  0
   24.4842  -13.5891  -19.6353 C   0  0  0  0  0  0  0  0  0  0  0  0
   25.0528  -13.9696  -18.3028 C   0  0  2  0  0  0  0  0  0  0  0  0
   24.5272  -15.1903  -17.7524 N   0  0  0  0  0  0  0  0  0  0  0  0
   24.8935  -12.8242  -17.3649 C   0  0  0  0  0  0  0  0  0  0  0  0
   23.7629  -12.6030  -16.8281 O   0  0  0  0  0  0  0  0  0  0  0  0
   25.9684  -14.7248  -21.2933 C   0  0  0  0  0  0  0  0  0  0  0  0
   26.1509  -15.6838  -22.2739 C   0  0  0  0  0  0  0  0  0  0  0  0
   27.1476  -10.3128  -15.7452 C   0  0  0  0  0  0  0  0  0  0  0  0
   25.7748  -10.8373  -16.1028 C   0  0  2  0  0  0  0  0  0  0  0  0
   25.9488  -11.9400  -17.0224 N   0  0  0  0  0  0  0  0  0  0  0  0
   25.0126   -9.7121  -16.7460 C   0  0  0  0  0  0  0  0  0  0  0  0
   25.2180   -9.5626  -17.9729 O   0  0  0  0  0  0  0  0  0  0  0  0
   24.1589   -8.9419  -15.9556 N   0  0  0  0  0  0  0  0  0  0  0  0
   23.2994   -7.9174  -16.4515 C   0  0  1  0  0  0  0  0  0  0  0  0
   21.9699   -7.8205  -15.7369 C   0  0  0  0  0  0  0  0  0  0  0  0
   21.0114   -6.8227  -16.2789 C   0  0  0  0  0  0  0  0  0  0  0  0
   19.7025   -6.9082  -15.6099 C   0  0  0  0  0  0  0  0  0  0  0  0
   19.4894   -7.7057  -14.6905 O   0  0  0  0  0  0  0  0  0  0  0  0
   23.9459   -6.5905  -16.5308 C   0  0  0  0  0  0  0  0  0  0  0  0
   23.5274   -5.6841  -17.2888 O   0  0  0  0  0  0  0  0  0  0  0  0
   18.6281   -6.0831  -15.9874 O   0  0  0  0  0  0  0  0  0  0  0  0
   25.0650   -6.3239  -15.7371 O   0  0  0  0  0  0  0  0  0  0  0  0
  2  1  1  0
  3  2  2  0
  4  3  1  0
  5  4  2  0
  5 11  1  0
  6  5  1  0
  6  7  1  0
  7  9  1  0
  7  8  1  1
  9 10  2  0
  9 15  1  0
 11 12  2  0
 12  2  1  0
 14 13  1  6
 15 14  1  0
 16 14  1  0
 16 17  2  0
 18 19  1  0
 18 16  1  0
 19 20  1  1
 19 24  1  0
 20 21  1  0
 22 21  1  0
 23 22  2  0
 24 25  2  0
 24 27  1  0
 26 22  1  0
M  END
$$$$
