CHQ.pdb
     RDKit          3D

 26 26  0  0  1  0  0  0  0  0999 V2000
   19.4201  -29.2423  -11.4316 N   0  0  0  0  0  0  0  0  0  0  0  0
   20.7607  -28.9180  -10.9898 C   0  0  1  0  0  0  0  0  0  0  0  0
   20.6459  -27.7719  -10.0149 C   0  0  0  0  0  0  0  0  0  0  0  0
   19.3220  -28.1820   -8.8401 S   0  0  0  0  0  0  0  0  0  0  0  0
   21.3747  -30.1112  -10.4121 C   0  0  0  0  0  0  0  0  0  0  0  0
   20.6517  -31.0619  -10.0421 O   0  0  0  0  0  0  0  0  0  0  0  0
   22.7762  -30.2819  -10.2317 N   0  0  0  0  0  0  0  0  0  0  0  0
   23.3493  -31.4782   -9.6376 C   0  0  1  0  0  0  0  0  0  0  0  0
   24.8502  -31.5196   -9.8072 C   0  0  0  0  0  0  0  0  0  0  0  0
   25.4302  -32.8454   -9.6335 C   0  0  0  0  0  0  0  0  0  0  0  0
   24.7326  -34.0116   -9.4160 C   0  0  0  0  0  0  0  0  0  0  0  0
   25.6090  -35.0466   -9.3031 N   0  0  0  0  0  0  0  0  0  0  0  0
   26.8376  -34.5326   -9.4483 C   0  0  0  0  0  0  0  0  0  0  0  0
   26.7280  -33.1876   -9.6502 N   0  0  0  0  0  0  0  0  0  0  0  0
   22.9556  -31.5604   -8.2013 C   0  0  0  0  0  0  0  0  0  0  0  0
   23.0419  -30.5939   -7.4181 O   0  0  0  0  0  0  0  0  0  0  0  0
   18.1063  -31.5817   -6.0806 N   0  0  0  0  0  0  0  0  0  0  0  0
   18.5284  -32.3712   -4.9895 C   0  0  0  0  0  0  0  0  0  0  0  0
   17.8701  -32.3344   -3.9246 O   0  0  0  0  0  0  0  0  0  0  0  0
   19.7241  -33.2206   -5.1302 C   0  0  0  0  0  0  0  0  0  0  0  0
   20.4969  -33.0497   -6.3824 C   0  0  0  0  0  0  0  0  0  0  0  0
   21.9745  -32.9003   -6.2935 C   0  0  2  0  0  0  0  0  0  0  0  0
   22.4577  -32.7881   -7.6857 N   0  0  0  0  0  0  0  0  0  0  0  0
   22.7225  -33.8682   -5.5183 C   0  0  0  0  0  0  0  0  0  0  0  0
   23.0880  -35.0047   -5.9888 O   0  0  0  0  0  0  0  0  0  0  0  0
   23.1186  -33.6477   -4.1964 O   0  0  0  0  0  0  0  0  0  0  0  0
  2  1  1  1
  3  4  1  0
  3  2  1  0
  5  6  2  0
  5  2  1  0
  7  5  1  0
  8  7  1  0
  8  9  1  1
 10  9  1  0
 10 14  1  0
 11 12  1  0
 11 10  2  0
 12 13  1  0
 13 14  2  0
 15  8  1  0
 16 15  2  0
 18 17  1  0
 18 20  1  0
 19 18  2  0
 21 20  1  0
 22 21  1  6
 22 23  1  0
 23 15  1  0
 24 22  1  0
 24 26  1  0
 25 24  2  0
M  END
$$$$
