CHQ.pdb
     RDKit          3D

 26 26  0  0  1  0  0  0  0  0999 V2000
   20.1214  -10.6803  -15.2703 N   0  0  0  0  0  0  0  0  0  0  0  0
   21.1196   -9.8541  -14.6235 C   0  0  1  0  0  0  0  0  0  0  0  0
   22.3049   -9.7729  -15.5539 C   0  0  0  0  0  0  0  0  0  0  0  0
   23.2878  -11.2832  -15.3227 S   0  0  0  0  0  0  0  0  0  0  0  0
   20.5343   -8.5514  -14.3152 C   0  0  0  0  0  0  0  0  0  0  0  0
   19.6313   -8.0900  -15.0466 O   0  0  0  0  0  0  0  0  0  0  0  0
   20.9239   -7.7405  -13.2123 N   0  0  0  0  0  0  0  0  0  0  0  0
   20.2844   -6.4709  -12.9093 C   0  0  1  0  0  0  0  0  0  0  0  0
   19.9588   -6.3486  -11.4390 C   0  0  0  0  0  0  0  0  0  0  0  0
   18.7303   -7.0269  -11.0452 C   0  0  0  0  0  0  0  0  0  0  0  0
   17.8795   -7.7109  -11.8832 C   0  0  0  0  0  0  0  0  0  0  0  0
   16.8398   -8.2099  -11.1605 N   0  0  0  0  0  0  0  0  0  0  0  0
   17.0396   -7.8417   -9.8880 C   0  0  0  0  0  0  0  0  0  0  0  0
   18.1948   -7.1189   -9.8179 N   0  0  0  0  0  0  0  0  0  0  0  0
   21.1520   -5.3508  -13.3756 C   0  0  0  0  0  0  0  0  0  0  0  0
   22.3158   -5.1773  -12.9626 O   0  0  0  0  0  0  0  0  0  0  0  0
   20.9684   -3.5396  -19.1651 N   0  0  0  0  0  0  0  0  0  0  0  0
   21.6356   -4.6217  -18.5519 C   0  0  0  0  0  0  0  0  0  0  0  0
   22.0342   -5.5705  -19.2656 O   0  0  0  0  0  0  0  0  0  0  0  0
   21.8519   -4.6068  -17.0944 C   0  0  0  0  0  0  0  0  0  0  0  0
   21.3181   -3.4289  -16.3719 C   0  0  0  0  0  0  0  0  0  0  0  0
   21.4926   -3.3585  -14.8961 C   0  0  2  0  0  0  0  0  0  0  0  0
   20.6453   -4.4307  -14.3335 N   0  0  0  0  0  0  0  0  0  0  0  0
   21.2945   -2.0848  -14.2359 C   0  0  0  0  0  0  0  0  0  0  0  0
   20.2412   -1.8086  -13.5569 O   0  0  0  0  0  0  0  0  0  0  0  0
   22.2332   -1.0502  -14.2725 O   0  0  0  0  0  0  0  0  0  0  0  0
  2  1  1  6
  3  4  1  0
  3  2  1  0
  5  6  2  0
  5  2  1  0
  7  5  1  0
  8  7  1  0
  8  9  1  1
 10  9  1  0
 10 14  1  0
 11 12  1  0
 11 10  2  0
 12 13  1  0
 13 14  2  0
 15  8  1  0
 16 15  2  0
 18 17  1  0
 18 20  1  0
 19 18  2  0
 21 20  1  0
 22 21  1  6
 22 23  1  0
 23 15  1  0
 24 22  1  0
 24 26  1  0
 25 24  2  0
M  END
$$$$
