CHQ.pdb
     RDKit          3D

 26 26  0  0  1  0  0  0  0  0999 V2000
   18.4635   -7.0289   -9.9458 N   0  0  0  0  0  0  0  0  0  0  0  0
   17.6646   -6.2437  -10.8638 C   0  0  1  0  0  0  0  0  0  0  0  0
   17.6226   -4.8337  -10.3278 C   0  0  0  0  0  0  0  0  0  0  0  0
   16.6187   -4.8525   -8.8136 S   0  0  0  0  0  0  0  0  0  0  0  0
   18.2436   -6.3383  -12.2018 C   0  0  0  0  0  0  0  0  0  0  0  0
   17.7274   -5.7014  -13.1459 O   0  0  0  0  0  0  0  0  0  0  0  0
   19.3857   -7.1236  -12.5252 N   0  0  0  0  0  0  0  0  0  0  0  0
   19.9346   -7.1910  -13.8694 C   0  0  1  0  0  0  0  0  0  0  0  0
   21.2766   -6.5023  -13.9577 C   0  0  0  0  0  0  0  0  0  0  0  0
   21.1915   -5.0588  -14.1410 C   0  0  0  0  0  0  0  0  0  0  0  0
   20.0333   -4.3260  -14.2654 C   0  0  0  0  0  0  0  0  0  0  0  0
   20.3467   -3.0108  -14.4213 N   0  0  0  0  0  0  0  0  0  0  0  0
   21.6833   -2.9245  -14.3945 C   0  0  0  0  0  0  0  0  0  0  0  0
   22.1992   -4.1760  -14.2232 N   0  0  0  0  0  0  0  0  0  0  0  0
   20.0177   -8.6153  -14.3043 C   0  0  0  0  0  0  0  0  0  0  0  0
   20.7014   -9.4686  -13.7048 O   0  0  0  0  0  0  0  0  0  0  0  0
   15.2219  -11.6139  -16.1479 N   0  0  0  0  0  0  0  0  0  0  0  0
   15.9050  -11.8754  -14.9409 C   0  0  0  0  0  0  0  0  0  0  0  0
   15.2772  -12.3946  -13.9896 O   0  0  0  0  0  0  0  0  0  0  0  0
   17.3354  -11.5389  -14.8309 C   0  0  0  0  0  0  0  0  0  0  0  0
   17.9441  -10.8996  -16.0205 C   0  0  0  0  0  0  0  0  0  0  0  0
   19.3536  -10.4309  -15.9352 C   0  0  2  0  0  0  0  0  0  0  0  0
   19.2911   -9.0358  -15.4515 N   0  0  0  0  0  0  0  0  0  0  0  0
   20.2047  -10.5823  -17.0971 C   0  0  0  0  0  0  0  0  0  0  0  0
   20.9470  -11.6116  -17.2874 O   0  0  0  0  0  0  0  0  0  0  0  0
   20.2864   -9.6282  -18.1149 O   0  0  0  0  0  0  0  0  0  0  0  0
  2  1  1  1
  3  4  1  0
  3  2  1  0
  5  6  2  0
  5  2  1  0
  7  5  1  0
  8  7  1  0
  8  9  1  1
 10  9  1  0
 10 14  1  0
 11 12  1  0
 11 10  2  0
 12 13  1  0
 13 14  2  0
 15  8  1  0
 16 15  2  0
 18 17  1  0
 18 20  1  0
 19 18  2  0
 21 20  1  0
 22 21  1  6
 22 23  1  0
 23 15  1  0
 24 22  1  0
 24 26  1  0
 25 24  2  0
M  END
$$$$
