CHQ.pdb
     RDKit          3D

 26 26  0  0  1  0  0  0  0  0999 V2000
   27.3918  -19.7069  -15.3253 N   0  0  0  0  0  0  0  0  0  0  0  0
   26.2584  -20.0416  -16.1626 C   0  0  1  0  0  0  0  0  0  0  0  0
   26.0354  -21.5290  -16.0407 C   0  0  0  0  0  0  0  0  0  0  0  0
   27.6000  -22.3538  -16.4562 S   0  0  0  0  0  0  0  0  0  0  0  0
   25.1058  -19.2464  -15.7460 C   0  0  0  0  0  0  0  0  0  0  0  0
   24.8104  -19.1730  -14.5332 O   0  0  0  0  0  0  0  0  0  0  0  0
   24.2658  -18.5257  -16.6409 N   0  0  0  0  0  0  0  0  0  0  0  0
   23.1506  -17.7127  -16.1849 C   0  0  1  0  0  0  0  0  0  0  0  0
   22.6643  -16.7775  -17.2674 C   0  0  0  0  0  0  0  0  0  0  0  0
   21.5728  -15.9057  -16.8516 C   0  0  0  0  0  0  0  0  0  0  0  0
   21.0076  -15.8587  -15.5977 C   0  0  0  0  0  0  0  0  0  0  0  0
   20.0170  -14.9256  -15.5845 N   0  0  0  0  0  0  0  0  0  0  0  0
   19.9650  -14.3973  -16.8145 C   0  0  0  0  0  0  0  0  0  0  0  0
   20.9157  -14.9963  -17.5885 N   0  0  0  0  0  0  0  0  0  0  0  0
   22.0567  -18.5978  -15.6903 C   0  0  0  0  0  0  0  0  0  0  0  0
   21.7806  -19.6938  -16.2171 O   0  0  0  0  0  0  0  0  0  0  0  0
   21.5979  -19.8914   -9.9688 N   0  0  0  0  0  0  0  0  0  0  0  0
   20.3290  -20.3877  -10.3370 C   0  0  0  0  0  0  0  0  0  0  0  0
   19.6610  -21.0285   -9.4933 O   0  0  0  0  0  0  0  0  0  0  0  0
   19.8198  -20.1362  -11.6967 C   0  0  0  0  0  0  0  0  0  0  0  0
   20.6895  -19.3180  -12.5734 C   0  0  0  0  0  0  0  0  0  0  0  0
   20.2584  -19.0720  -13.9760 C   0  0  2  0  0  0  0  0  0  0  0  0
   21.2842  -18.1888  -14.5692 N   0  0  0  0  0  0  0  0  0  0  0  0
   18.9098  -18.6004  -14.2129 C   0  0  0  0  0  0  0  0  0  0  0  0
   18.6159  -17.3560  -14.3200 O   0  0  0  0  0  0  0  0  0  0  0  0
   17.8140  -19.4562  -14.3537 O   0  0  0  0  0  0  0  0  0  0  0  0
  2  1  1  1
  3  4  1  0
  3  2  1  0
  5  6  2  0
  5  2  1  0
  7  5  1  0
  8  7  1  0
  8  9  1  6
 10  9  1  0
 10 14  1  0
 11 12  1  0
 11 10  2  0
 12 13  1  0
 13 14  2  0
 15  8  1  0
 16 15  2  0
 18 17  1  0
 18 20  1  0
 19 18  2  0
 21 20  1  0
 22 21  1  1
 22 23  1  0
 23 15  1  0
 24 22  1  0
 24 26  1  0
 25 24  2  0
M  END
$$$$
