CHQ.pdb
     RDKit          3D

 26 26  0  0  1  0  0  0  0  0999 V2000
   21.6508  -31.5349  -11.0818 N   0  0  0  0  0  0  0  0  0  0  0  0
   22.7353  -30.9840  -10.2956 C   0  0  1  0  0  0  0  0  0  0  0  0
   22.1155  -30.1817   -9.1779 C   0  0  0  0  0  0  0  0  0  0  0  0
   21.5064  -28.6262   -9.8922 S   0  0  0  0  0  0  0  0  0  0  0  0
   23.5850  -32.0749   -9.8240 C   0  0  0  0  0  0  0  0  0  0  0  0
   23.0695  -33.1707   -9.5126 O   0  0  0  0  0  0  0  0  0  0  0  0
   24.9989  -31.9853   -9.6868 N   0  0  0  0  0  0  0  0  0  0  0  0
   25.8097  -33.0883   -9.1982 C   0  0  1  0  0  0  0  0  0  0  0  0
   27.1823  -33.0925   -9.8298 C   0  0  0  0  0  0  0  0  0  0  0  0
   27.1982  -33.5590  -11.2106 C   0  0  0  0  0  0  0  0  0  0  0  0
   26.1461  -34.1409  -11.8802 C   0  0  0  0  0  0  0  0  0  0  0  0
   26.5324  -34.4449  -13.1493 N   0  0  0  0  0  0  0  0  0  0  0  0
   27.8092  -34.0576  -13.2697 C   0  0  0  0  0  0  0  0  0  0  0  0
   28.2158  -33.5163  -12.0850 N   0  0  0  0  0  0  0  0  0  0  0  0
   25.8892  -33.0287   -7.7100 C   0  0  0  0  0  0  0  0  0  0  0  0
   25.6583  -31.9901   -7.0595 O   0  0  0  0  0  0  0  0  0  0  0  0
   22.1395  -33.1058   -4.5079 N   0  0  0  0  0  0  0  0  0  0  0  0
   22.9827  -33.4958   -3.4454 C   0  0  0  0  0  0  0  0  0  0  0  0
   22.5387  -33.4589   -2.2749 O   0  0  0  0  0  0  0  0  0  0  0  0
   24.3567  -33.9408   -3.7373 C   0  0  0  0  0  0  0  0  0  0  0  0
   24.7776  -33.8572   -5.1551 C   0  0  0  0  0  0  0  0  0  0  0  0
   26.1700  -34.2437   -5.5095 C   0  0  2  0  0  0  0  0  0  0  0  0
   26.2429  -34.1992   -6.9848 N   0  0  0  0  0  0  0  0  0  0  0  0
   26.7087  -35.4705   -4.9597 C   0  0  0  0  0  0  0  0  0  0  0  0
   27.3505  -35.5133   -3.8494 O   0  0  0  0  0  0  0  0  0  0  0  0
   26.5705  -36.7135   -5.5833 O   0  0  0  0  0  0  0  0  0  0  0  0
  2  1  1  1
  3  4  1  0
  3  2  1  0
  5  6  2  0
  5  2  1  0
  7  5  1  0
  8  7  1  0
  8  9  1  6
 10  9  1  0
 10 14  1  0
 11 12  1  0
 11 10  2  0
 12 13  1  0
 13 14  2  0
 15  8  1  0
 16 15  2  0
 18 17  1  0
 18 20  1  0
 19 18  2  0
 21 20  1  0
 22 21  1  6
 22 23  1  0
 23 15  1  0
 24 22  1  0
 24 26  1  0
 25 24  2  0
M  END
$$$$
