CHQ.pdb
     RDKit          3D

 26 26  0  0  1  0  0  0  0  0999 V2000
   29.4682  -26.0145  -16.8405 N   0  0  0  0  0  0  0  0  0  0  0  0
   28.1618  -25.5917  -17.3009 C   0  0  1  0  0  0  0  0  0  0  0  0
   27.1750  -26.6554  -16.8864 C   0  0  0  0  0  0  0  0  0  0  0  0
   27.5001  -28.1290  -17.8981 S   0  0  0  0  0  0  0  0  0  0  0  0
   27.8626  -24.2746  -16.7439 C   0  0  0  0  0  0  0  0  0  0  0  0
   28.3287  -23.9538  -15.6289 O   0  0  0  0  0  0  0  0  0  0  0  0
   27.0564  -23.2967  -17.3917 N   0  0  0  0  0  0  0  0  0  0  0  0
   26.7868  -21.9929  -16.8085 C   0  0  1  0  0  0  0  0  0  0  0  0
   26.4664  -20.9647  -17.8682 C   0  0  0  0  0  0  0  0  0  0  0  0
   26.1644  -19.6409  -17.3380 C   0  0  0  0  0  0  0  0  0  0  0  0
   27.0844  -18.7141  -16.9039 C   0  0  0  0  0  0  0  0  0  0  0  0
   26.4328  -17.5974  -16.4787 N   0  0  0  0  0  0  0  0  0  0  0  0
   25.1232  -17.8250  -16.6455 C   0  0  0  0  0  0  0  0  0  0  0  0
   24.9595  -19.0737  -17.1706 N   0  0  0  0  0  0  0  0  0  0  0  0
   25.6878  -22.1114  -15.8070 C   0  0  0  0  0  0  0  0  0  0  0  0
   24.8472  -23.0322  -15.8283 O   0  0  0  0  0  0  0  0  0  0  0  0
   26.3880  -20.7428   -9.9435 N   0  0  0  0  0  0  0  0  0  0  0  0
   24.9776  -20.7926   -9.9610 C   0  0  0  0  0  0  0  0  0  0  0  0
   24.3546  -20.6995   -8.8785 O   0  0  0  0  0  0  0  0  0  0  0  0
   24.2745  -20.9460  -11.2468 C   0  0  0  0  0  0  0  0  0  0  0  0
   25.1327  -20.9913  -12.4535 C   0  0  0  0  0  0  0  0  0  0  0  0
   24.4882  -21.1904  -13.7796 C   0  0  2  0  0  0  0  0  0  0  0  0
   25.5793  -21.1395  -14.7752 N   0  0  0  0  0  0  0  0  0  0  0  0
   23.3656  -20.3481  -14.1368 C   0  0  0  0  0  0  0  0  0  0  0  0
   23.5062  -19.1856  -14.6615 O   0  0  0  0  0  0  0  0  0  0  0  0
   22.0340  -20.7288  -13.9501 O   0  0  0  0  0  0  0  0  0  0  0  0
  2  1  1  1
  3  4  1  0
  3  2  1  0
  5  6  2  0
  5  2  1  0
  7  5  1  0
  8  7  1  0
  8  9  1  6
 10  9  1  0
 10 14  1  0
 11 12  1  0
 11 10  2  0
 12 13  1  0
 13 14  2  0
 15  8  1  0
 16 15  2  0
 18 17  1  0
 18 20  1  0
 19 18  2  0
 21 20  1  0
 22 21  1  1
 22 23  1  0
 23 15  1  0
 24 22  1  0
 24 26  1  0
 25 24  2  0
M  END
$$$$
