CHQ.pdb
     RDKit          3D

 26 26  0  0  1  0  0  0  0  0999 V2000
   18.2128  -12.7767  -16.0421 N   0  0  0  0  0  0  0  0  0  0  0  0
   18.5671  -11.7166  -16.9632 C   0  0  1  0  0  0  0  0  0  0  0  0
   17.3343  -11.3958  -17.7722 C   0  0  0  0  0  0  0  0  0  0  0  0
   16.0765  -10.7597  -16.6259 S   0  0  0  0  0  0  0  0  0  0  0  0
   19.0761  -10.5760  -16.2052 C   0  0  0  0  0  0  0  0  0  0  0  0
   18.6965  -10.3965  -15.0275 O   0  0  0  0  0  0  0  0  0  0  0  0
   19.9998   -9.6226  -16.7188 N   0  0  0  0  0  0  0  0  0  0  0  0
   20.3558   -8.4109  -15.9993 C   0  0  1  0  0  0  0  0  0  0  0  0
   21.7954   -8.0218  -16.2426 C   0  0  0  0  0  0  0  0  0  0  0  0
   22.7648   -8.9596  -15.6899 C   0  0  0  0  0  0  0  0  0  0  0  0
   22.4783  -10.0399  -14.8869 C   0  0  0  0  0  0  0  0  0  0  0  0
   23.6345  -10.6824  -14.5665 N   0  0  0  0  0  0  0  0  0  0  0  0
   24.6294  -10.0113  -15.1621 C   0  0  0  0  0  0  0  0  0  0  0  0
   24.0976   -8.9587  -15.8484 N   0  0  0  0  0  0  0  0  0  0  0  0
   19.4184   -7.3133  -16.3749 C   0  0  0  0  0  0  0  0  0  0  0  0
   18.6267   -7.3964  -17.3347 O   0  0  0  0  0  0  0  0  0  0  0  0
   14.9578   -6.4126  -17.5834 N   0  0  0  0  0  0  0  0  0  0  0  0
   14.8116   -5.2335  -16.8216 C   0  0  0  0  0  0  0  0  0  0  0  0
   13.7513   -4.5746  -16.9224 O   0  0  0  0  0  0  0  0  0  0  0  0
   15.9021   -4.8109  -15.9252 C   0  0  0  0  0  0  0  0  0  0  0  0
   17.1055   -5.6746  -15.9165 C   0  0  0  0  0  0  0  0  0  0  0  0
   18.4459   -5.0294  -15.8894 C   0  0  2  0  0  0  0  0  0  0  0  0
   19.4142   -6.1117  -15.6152 N   0  0  0  0  0  0  0  0  0  0  0  0
   18.6412   -3.8751  -15.0369 C   0  0  0  0  0  0  0  0  0  0  0  0
   18.1561   -2.7186  -15.3086 O   0  0  0  0  0  0  0  0  0  0  0  0
   19.3655   -3.9201  -13.8427 O   0  0  0  0  0  0  0  0  0  0  0  0
  2  1  1  1
  3  4  1  0
  3  2  1  0
  5  6  2  0
  5  2  1  0
  7  5  1  0
  8  7  1  0
  8  9  1  6
 10  9  1  0
 10 14  1  0
 11 12  1  0
 11 10  2  0
 12 13  1  0
 13 14  2  0
 15  8  1  0
 16 15  2  0
 18 17  1  0
 18 20  1  0
 19 18  2  0
 21 20  1  0
 22 21  1  1
 22 23  1  0
 23 15  1  0
 24 22  1  0
 24 26  1  0
 25 24  2  0
M  END
$$$$
