CHQ.pdb
     RDKit          3D

 26 26  0  0  1  0  0  0  0  0999 V2000
   19.9855  -11.7470  -16.6384 N   0  0  0  0  0  0  0  0  0  0  0  0
   20.9450  -10.6761  -16.4647 C   0  0  1  0  0  0  0  0  0  0  0  0
   21.3031  -10.1685  -17.8399 C   0  0  0  0  0  0  0  0  0  0  0  0
   22.6075  -11.2472  -18.5000 S   0  0  0  0  0  0  0  0  0  0  0  0
   20.3646   -9.6506  -15.6011 C   0  0  0  0  0  0  0  0  0  0  0  0
   19.1772   -9.2976  -15.7713 O   0  0  0  0  0  0  0  0  0  0  0  0
   21.0673   -9.0009  -14.5475 N   0  0  0  0  0  0  0  0  0  0  0  0
   20.4445   -8.0105  -13.6851 C   0  0  1  0  0  0  0  0  0  0  0  0
   20.9232   -8.1360  -12.2574 C   0  0  0  0  0  0  0  0  0  0  0  0
   20.3373   -7.1595  -11.3475 C   0  0  0  0  0  0  0  0  0  0  0  0
   20.8543   -5.9195  -11.0495 C   0  0  0  0  0  0  0  0  0  0  0  0
   20.0350   -5.2909  -10.1630 N   0  0  0  0  0  0  0  0  0  0  0  0
   19.0200   -6.1283   -9.9114 C   0  0  0  0  0  0  0  0  0  0  0  0
   19.2050   -7.2700  -10.6354 N   0  0  0  0  0  0  0  0  0  0  0  0
   20.6942   -6.6451  -14.2309 C   0  0  0  0  0  0  0  0  0  0  0  0
   21.7382   -6.3388  -14.8403 O   0  0  0  0  0  0  0  0  0  0  0  0
   20.0840   -5.5046  -18.9573 N   0  0  0  0  0  0  0  0  0  0  0  0
   20.0166   -4.1243  -18.6706 C   0  0  0  0  0  0  0  0  0  0  0  0
   20.0912   -3.3050  -19.6149 O   0  0  0  0  0  0  0  0  0  0  0  0
   19.8545   -3.6820  -17.2744 C   0  0  0  0  0  0  0  0  0  0  0  0
   19.8538   -4.7531  -16.2511 C   0  0  0  0  0  0  0  0  0  0  0  0
   19.7602   -4.3687  -14.8168 C   0  0  2  0  0  0  0  0  0  0  0  0
   19.7084   -5.6356  -14.0575 N   0  0  0  0  0  0  0  0  0  0  0  0
   18.7286   -3.4344  -14.4167 C   0  0  0  0  0  0  0  0  0  0  0  0
   17.6260   -3.8045  -13.8745 O   0  0  0  0  0  0  0  0  0  0  0  0
   18.8455   -2.0511  -14.5772 O   0  0  0  0  0  0  0  0  0  0  0  0
  2  1  1  6
  3  4  1  0
  3  2  1  0
  5  6  2  0
  5  2  1  0
  7  5  1  0
  8  7  1  0
  8  9  1  1
 10  9  1  0
 10 14  1  0
 11 12  1  0
 11 10  2  0
 12 13  1  0
 13 14  2  0
 15  8  1  0
 16 15  2  0
 18 17  1  0
 18 20  1  0
 19 18  2  0
 21 20  1  0
 22 21  1  6
 22 23  1  0
 23 15  1  0
 24 22  1  0
 24 26  1  0
 25 24  2  0
M  END
$$$$
