CHQ.pdb
     RDKit          3D

 26 26  0  0  1  0  0  0  0  0999 V2000
   29.2215  -11.4211  -19.0434 N   0  0  0  0  0  0  0  0  0  0  0  0
   29.0454  -10.8078  -17.7432 C   0  0  1  0  0  0  0  0  0  0  0  0
   29.7351   -9.4662  -17.7838 C   0  0  0  0  0  0  0  0  0  0  0  0
   31.5253   -9.7678  -17.7130 S   0  0  0  0  0  0  0  0  0  0  0  0
   27.6175  -10.7169  -17.4476 C   0  0  0  0  0  0  0  0  0  0  0  0
   26.8242  -10.3397  -18.3374 O   0  0  0  0  0  0  0  0  0  0  0  0
   27.0403  -11.0342  -16.1859 N   0  0  0  0  0  0  0  0  0  0  0  0
   25.6190  -10.8919  -15.9171 C   0  0  1  0  0  0  0  0  0  0  0  0
   25.1820  -11.7592  -14.7595 C   0  0  0  0  0  0  0  0  0  0  0  0
   23.7440  -11.7499  -14.5213 C   0  0  0  0  0  0  0  0  0  0  0  0
   22.7992  -11.1202  -15.2990 C   0  0  0  0  0  0  0  0  0  0  0  0
   21.5644  -11.3309  -14.7669 N   0  0  0  0  0  0  0  0  0  0  0  0
   21.7369  -12.0823  -13.6713 C   0  0  0  0  0  0  0  0  0  0  0  0
   23.0688  -12.3381  -13.5215 N   0  0  0  0  0  0  0  0  0  0  0  0
   25.2968   -9.4550  -15.6801 C   0  0  0  0  0  0  0  0  0  0  0  0
   26.1495   -8.6192  -15.3203 O   0  0  0  0  0  0  0  0  0  0  0  0
   26.0838   -5.8991  -19.0347 N   0  0  0  0  0  0  0  0  0  0  0  0
   25.2517   -5.0064  -18.3256 C   0  0  0  0  0  0  0  0  0  0  0  0
   25.2663   -3.7920  -18.6316 O   0  0  0  0  0  0  0  0  0  0  0  0
   24.3852   -5.5226  -17.2514 C   0  0  0  0  0  0  0  0  0  0  0  0
   24.4903   -6.9741  -16.9750 C   0  0  0  0  0  0  0  0  0  0  0  0
   23.6369   -7.5600  -15.9064 C   0  0  2  0  0  0  0  0  0  0  0  0
   23.9628   -9.0010  -15.8682 N   0  0  0  0  0  0  0  0  0  0  0  0
   22.2109   -7.3100  -15.9448 C   0  0  0  0  0  0  0  0  0  0  0  0
   21.4050   -7.9852  -16.6805 O   0  0  0  0  0  0  0  0  0  0  0  0
   21.5871   -6.3205  -15.1802 O   0  0  0  0  0  0  0  0  0  0  0  0
  2  1  1  6
  3  4  1  0
  3  2  1  0
  5  6  2  0
  5  2  1  0
  7  5  1  0
  8  7  1  0
  8  9  1  1
 10  9  1  0
 10 14  1  0
 11 12  1  0
 11 10  2  0
 12 13  1  0
 13 14  2  0
 15  8  1  0
 16 15  2  0
 18 17  1  0
 18 20  1  0
 19 18  2  0
 21 20  1  0
 22 21  1  6
 22 23  1  0
 23 15  1  0
 24 22  1  0
 24 26  1  0
 25 24  2  0
M  END
$$$$
