CHQ.pdb
     RDKit          3D

 26 26  0  0  1  0  0  0  0  0999 V2000
   41.5612  -26.9950  -18.4412 N   0  0  0  0  0  0  0  0  0  0  0  0
   40.3283  -26.2952  -18.7374 C   0  0  1  0  0  0  0  0  0  0  0  0
   40.3480  -25.9561  -20.2077 C   0  0  0  0  0  0  0  0  0  0  0  0
   38.8191  -25.0487  -20.5815 S   0  0  0  0  0  0  0  0  0  0  0  0
   39.1976  -27.1361  -18.3515 C   0  0  0  0  0  0  0  0  0  0  0  0
   39.2442  -28.3685  -18.5574 O   0  0  0  0  0  0  0  0  0  0  0  0
   38.0092  -26.6468  -17.7398 N   0  0  0  0  0  0  0  0  0  0  0  0
   36.8359  -27.4790  -17.5315 C   0  0  1  0  0  0  0  0  0  0  0  0
   36.4314  -27.5166  -16.0762 C   0  0  0  0  0  0  0  0  0  0  0  0
   36.7023  -28.7886  -15.4181 C   0  0  0  0  0  0  0  0  0  0  0  0
   37.2092  -29.9184  -16.0186 C   0  0  0  0  0  0  0  0  0  0  0  0
   37.3264  -30.9076  -15.0913 N   0  0  0  0  0  0  0  0  0  0  0  0
   36.8981  -30.4012  -13.9273 C   0  0  0  0  0  0  0  0  0  0  0  0
   36.5168  -29.1065  -14.1273 N   0  0  0  0  0  0  0  0  0  0  0  0
   35.7222  -26.9986  -18.3997 C   0  0  0  0  0  0  0  0  0  0  0  0
   35.5895  -25.8046  -18.7338 O   0  0  0  0  0  0  0  0  0  0  0  0
   31.6015  -31.1307  -20.8575 N   0  0  0  0  0  0  0  0  0  0  0  0
   31.0768  -29.9176  -21.3526 C   0  0  0  0  0  0  0  0  0  0  0  0
   30.0307  -29.9460  -22.0408 O   0  0  0  0  0  0  0  0  0  0  0  0
   31.7652  -28.6517  -21.0446 C   0  0  0  0  0  0  0  0  0  0  0  0
   32.9534  -28.7572  -20.1661 C   0  0  0  0  0  0  0  0  0  0  0  0
   33.6398  -27.5071  -19.7422 C   0  0  2  0  0  0  0  0  0  0  0  0
   34.7602  -27.9304  -18.8763 N   0  0  0  0  0  0  0  0  0  0  0  0
   32.8470  -26.4480  -19.1532 C   0  0  0  0  0  0  0  0  0  0  0  0
   32.5614  -26.4048  -17.9029 O   0  0  0  0  0  0  0  0  0  0  0  0
   32.3317  -25.3782  -19.8900 O   0  0  0  0  0  0  0  0  0  0  0  0
  2  1  1  6
  3  4  1  0
  3  2  1  0
  5  6  2  0
  5  2  1  0
  7  5  1  0
  8  7  1  0
  8  9  1  1
 10  9  1  0
 10 14  1  0
 11 12  1  0
 11 10  2  0
 12 13  1  0
 13 14  2  0
 15  8  1  0
 16 15  2  0
 18 17  1  0
 18 20  1  0
 19 18  2  0
 21 20  1  0
 22 21  1  1
 22 23  1  0
 23 15  1  0
 24 22  1  0
 24 26  1  0
 25 24  2  0
M  END
$$$$
