CHQ.pdb
     RDKit          3D

 26 26  0  0  1  0  0  0  0  0999 V2000
   27.1446  -22.6855  -16.2672 N   0  0  0  0  0  0  0  0  0  0  0  0
   25.6998  -22.6377  -16.3550 C   0  0  1  0  0  0  0  0  0  0  0  0
   25.1543  -23.4508  -15.2068 C   0  0  0  0  0  0  0  0  0  0  0  0
   25.2153  -25.1995  -15.6955 S   0  0  0  0  0  0  0  0  0  0  0  0
   25.2662  -21.2427  -16.3352 C   0  0  0  0  0  0  0  0  0  0  0  0
   25.8405  -20.4268  -15.5817 O   0  0  0  0  0  0  0  0  0  0  0  0
   24.2074  -20.7230  -17.1319 N   0  0  0  0  0  0  0  0  0  0  0  0
   23.7992  -19.3290  -17.0790 C   0  0  1  0  0  0  0  0  0  0  0  0
   24.6685  -18.4608  -17.9586 C   0  0  0  0  0  0  0  0  0  0  0  0
   26.0453  -18.3386  -17.4961 C   0  0  0  0  0  0  0  0  0  0  0  0
   27.1660  -18.7684  -18.1693 C   0  0  0  0  0  0  0  0  0  0  0  0
   28.2726  -18.4846  -17.4295 N   0  0  0  0  0  0  0  0  0  0  0  0
   27.8474  -17.8855  -16.3092 C   0  0  0  0  0  0  0  0  0  0  0  0
   26.4864  -17.7965  -16.3502 N   0  0  0  0  0  0  0  0  0  0  0  0
   22.3582  -19.2161  -17.4469 C   0  0  0  0  0  0  0  0  0  0  0  0
   21.7482  -20.1015  -18.0786 O   0  0  0  0  0  0  0  0  0  0  0  0
   18.7350  -21.1824  -14.6407 N   0  0  0  0  0  0  0  0  0  0  0  0
   17.7622  -20.3769  -15.2706 C   0  0  0  0  0  0  0  0  0  0  0  0
   16.5515  -20.5902  -15.0312 O   0  0  0  0  0  0  0  0  0  0  0  0
   18.1919  -19.3050  -16.1859 C   0  0  0  0  0  0  0  0  0  0  0  0
   19.6548  -19.1466  -16.3570 C   0  0  0  0  0  0  0  0  0  0  0  0
   20.1586  -18.0007  -17.1611 C   0  0  2  0  0  0  0  0  0  0  0  0
   21.6325  -18.0538  -17.0682 N   0  0  0  0  0  0  0  0  0  0  0  0
   19.6285  -16.6802  -16.8916 C   0  0  0  0  0  0  0  0  0  0  0  0
   20.2522  -15.8105  -16.1836 O   0  0  0  0  0  0  0  0  0  0  0  0
   18.3989  -16.2344  -17.3839 O   0  0  0  0  0  0  0  0  0  0  0  0
  2  1  1  1
  3  4  1  0
  3  2  1  0
  5  6  2  0
  5  2  1  0
  7  5  1  0
  8  7  1  0
  8  9  1  6
 10  9  1  0
 10 14  1  0
 11 12  1  0
 11 10  2  0
 12 13  1  0
 13 14  2  0
 15  8  1  0
 16 15  2  0
 18 17  1  0
 18 20  1  0
 19 18  2  0
 21 20  1  0
 22 21  1  1
 22 23  1  0
 23 15  1  0
 24 22  1  0
 24 26  1  0
 25 24  2  0
M  END
$$$$
