CHQ.pdb
     RDKit          3D

 26 26  0  0  1  0  0  0  0  0999 V2000
   26.1980  -22.4885  -16.6041 N   0  0  0  0  0  0  0  0  0  0  0  0
   25.3716  -21.2991  -16.6023 C   0  0  1  0  0  0  0  0  0  0  0  0
   24.9451  -21.0480  -18.0279 C   0  0  0  0  0  0  0  0  0  0  0  0
   26.4200  -20.5418  -18.9602 S   0  0  0  0  0  0  0  0  0  0  0  0
   24.2496  -21.4987  -15.6882 C   0  0  0  0  0  0  0  0  0  0  0  0
   23.7234  -22.6289  -15.5918 O   0  0  0  0  0  0  0  0  0  0  0  0
   23.6906  -20.4749  -14.8726 N   0  0  0  0  0  0  0  0  0  0  0  0
   22.5221  -20.6910  -14.0356 C   0  0  1  0  0  0  0  0  0  0  0  0
   22.6536  -19.9887  -12.7043 C   0  0  0  0  0  0  0  0  0  0  0  0
   23.6783  -20.5529  -11.8347 C   0  0  0  0  0  0  0  0  0  0  0  0
   24.5224  -21.5936  -12.1486 C   0  0  0  0  0  0  0  0  0  0  0  0
   25.3424  -21.8432  -11.0915 N   0  0  0  0  0  0  0  0  0  0  0  0
   25.0140  -20.9693  -10.1306 C   0  0  0  0  0  0  0  0  0  0  0  0
   23.9971  -20.1811  -10.5851 N   0  0  0  0  0  0  0  0  0  0  0  0
   21.2966  -20.2580  -14.7673 C   0  0  0  0  0  0  0  0  0  0  0  0
   21.3337  -19.5476  -15.7915 O   0  0  0  0  0  0  0  0  0  0  0  0
   18.1725  -23.8426  -17.1216 N   0  0  0  0  0  0  0  0  0  0  0  0
   17.6329  -22.7260  -17.7955 C   0  0  0  0  0  0  0  0  0  0  0  0
   16.7478  -22.9110  -18.6621 O   0  0  0  0  0  0  0  0  0  0  0  0
   18.1169  -21.3751  -17.4611 C   0  0  0  0  0  0  0  0  0  0  0  0
   19.1437  -21.2996  -16.3960 C   0  0  0  0  0  0  0  0  0  0  0  0
   18.8149  -20.5753  -15.1387 C   0  0  2  0  0  0  0  0  0  0  0  0
   20.0210  -20.6644  -14.2892 N   0  0  0  0  0  0  0  0  0  0  0  0
   17.6040  -20.9340  -14.4299 C   0  0  0  0  0  0  0  0  0  0  0  0
   16.5165  -20.2592  -14.5233 O   0  0  0  0  0  0  0  0  0  0  0  0
   17.5102  -22.0477  -13.5910 O   0  0  0  0  0  0  0  0  0  0  0  0
  2  1  1  6
  3  4  1  0
  3  2  1  0
  5  6  2  0
  5  2  1  0
  7  5  1  0
  8  7  1  0
  8  9  1  1
 10  9  1  0
 10 14  1  0
 11 12  1  0
 11 10  2  0
 12 13  1  0
 13 14  2  0
 15  8  1  0
 16 15  2  0
 18 17  1  0
 18 20  1  0
 19 18  2  0
 21 20  1  0
 22 21  1  6
 22 23  1  0
 23 15  1  0
 24 22  1  0
 24 26  1  0
 25 24  2  0
M  END
$$$$
