CHQ.pdb
     RDKit          3D

 26 26  0  0  1  0  0  0  0  0999 V2000
   26.5391  -32.3466  -13.1983 N   0  0  0  0  0  0  0  0  0  0  0  0
   26.0870  -33.3666  -12.2748 C   0  0  1  0  0  0  0  0  0  0  0  0
   27.1475  -34.4394  -12.2383 C   0  0  0  0  0  0  0  0  0  0  0  0
   27.0722  -35.3386  -13.8153 S   0  0  0  0  0  0  0  0  0  0  0  0
   25.8368  -32.7542  -10.9722 C   0  0  0  0  0  0  0  0  0  0  0  0
   26.5099  -31.7629  -10.6149 O   0  0  0  0  0  0  0  0  0  0  0  0
   24.8555  -33.2120  -10.0485 N   0  0  0  0  0  0  0  0  0  0  0  0
   24.6373  -32.5775   -8.7591 C   0  0  1  0  0  0  0  0  0  0  0  0
   23.1694  -32.3266   -8.5036 C   0  0  0  0  0  0  0  0  0  0  0  0
   22.5853  -31.3012   -9.3592 C   0  0  0  0  0  0  0  0  0  0  0  0
   22.8832  -29.9579   -9.3309 C   0  0  0  0  0  0  0  0  0  0  0  0
   22.1426  -29.3121  -10.2726 N   0  0  0  0  0  0  0  0  0  0  0  0
   21.3924  -30.2409  -10.8805 C   0  0  0  0  0  0  0  0  0  0  0  0
   21.6632  -31.4561  -10.3221 N   0  0  0  0  0  0  0  0  0  0  0  0
   25.2485  -33.4099   -7.6829 C   0  0  0  0  0  0  0  0  0  0  0  0
   25.9572  -34.4086   -7.9180 O   0  0  0  0  0  0  0  0  0  0  0  0
   29.0648  -35.3313   -6.2585 N   0  0  0  0  0  0  0  0  0  0  0  0
   29.2090  -34.7316   -4.9890 C   0  0  0  0  0  0  0  0  0  0  0  0
   30.0826  -35.1716   -4.2068 O   0  0  0  0  0  0  0  0  0  0  0  0
   28.3368  -33.6034   -4.6179 C   0  0  0  0  0  0  0  0  0  0  0  0
   27.2642  -33.2686   -5.5832 C   0  0  0  0  0  0  0  0  0  0  0  0
   25.8596  -33.6165   -5.2373 C   0  0  2  0  0  0  0  0  0  0  0  0
   25.0231  -33.0633   -6.3228 N   0  0  0  0  0  0  0  0  0  0  0  0
   25.3659  -33.2723   -3.9200 C   0  0  0  0  0  0  0  0  0  0  0  0
   24.7272  -32.1861   -3.6775 O   0  0  0  0  0  0  0  0  0  0  0  0
   25.5332  -34.0936   -2.8018 O   0  0  0  0  0  0  0  0  0  0  0  0
  2  1  1  6
  3  4  1  0
  3  2  1  0
  5  6  2  0
  5  2  1  0
  7  5  1  0
  8  7  1  0
  8  9  1  1
 10  9  1  0
 10 14  1  0
 11 12  1  0
 11 10  2  0
 12 13  1  0
 13 14  2  0
 15  8  1  0
 16 15  2  0
 18 17  1  0
 18 20  1  0
 19 18  2  0
 21 20  1  0
 22 21  1  6
 22 23  1  0
 23 15  1  0
 24 22  1  0
 24 26  1  0
 25 24  2  0
M  END
$$$$
