CHQ.pdb
     RDKit          3D

 26 26  0  0  1  0  0  0  0  0999 V2000
   26.7172  -12.4110  -18.4530 N   0  0  0  0  0  0  0  0  0  0  0  0
   26.1214  -12.2179  -17.1471 C   0  0  1  0  0  0  0  0  0  0  0  0
   27.1314  -11.4857  -16.2980 C   0  0  0  0  0  0  0  0  0  0  0  0
   28.4732  -12.6495  -15.9163 S   0  0  0  0  0  0  0  0  0  0  0  0
   24.8603  -11.4962  -17.2997 C   0  0  0  0  0  0  0  0  0  0  0  0
   24.6794  -10.7715  -18.3025 O   0  0  0  0  0  0  0  0  0  0  0  0
   23.7872  -11.5552  -16.3666 N   0  0  0  0  0  0  0  0  0  0  0  0
   22.5304  -10.8548  -16.5733 C   0  0  1  0  0  0  0  0  0  0  0  0
   21.3745  -11.8170  -16.7190 C   0  0  0  0  0  0  0  0  0  0  0  0
   20.0837  -11.1683  -16.9127 C   0  0  0  0  0  0  0  0  0  0  0  0
   18.9667  -11.3384  -16.1271 C   0  0  0  0  0  0  0  0  0  0  0  0
   17.9526  -10.5722  -16.6136 N   0  0  0  0  0  0  0  0  0  0  0  0
   18.4310   -9.9323  -17.6890 C   0  0  0  0  0  0  0  0  0  0  0  0
   19.7332  -10.2967  -17.8715 N   0  0  0  0  0  0  0  0  0  0  0  0
   22.3063   -9.8910  -15.4573 C   0  0  0  0  0  0  0  0  0  0  0  0
   22.6089  -10.1415  -14.2737 O   0  0  0  0  0  0  0  0  0  0  0  0
   23.0703   -3.9593  -16.4733 N   0  0  0  0  0  0  0  0  0  0  0  0
   22.5998   -3.8790  -15.1451 C   0  0  0  0  0  0  0  0  0  0  0  0
   22.6473   -2.7774  -14.5512 O   0  0  0  0  0  0  0  0  0  0  0  0
   22.0607   -5.0858  -14.4938 C   0  0  0  0  0  0  0  0  0  0  0  0
   22.0553   -6.3184  -15.3155 C   0  0  0  0  0  0  0  0  0  0  0  0
   21.5921   -7.5880  -14.6934 C   0  0  2  0  0  0  0  0  0  0  0  0
   21.7226   -8.6255  -15.7378 N   0  0  0  0  0  0  0  0  0  0  0  0
   20.2980   -7.6083  -14.0436 C   0  0  0  0  0  0  0  0  0  0  0  0
   19.1964   -7.7361  -14.6891 O   0  0  0  0  0  0  0  0  0  0  0  0
   20.1352   -7.4995  -12.6599 O   0  0  0  0  0  0  0  0  0  0  0  0
  2  1  1  6
  3  4  1  0
  3  2  1  0
  5  6  2  0
  5  2  1  0
  7  5  1  0
  8  7  1  0
  8  9  1  1
 10  9  1  0
 10 14  1  0
 11 12  1  0
 11 10  2  0
 12 13  1  0
 13 14  2  0
 15  8  1  0
 16 15  2  0
 18 17  1  0
 18 20  1  0
 19 18  2  0
 21 20  1  0
 22 21  1  6
 22 23  1  0
 23 15  1  0
 24 22  1  0
 24 26  1  0
 25 24  2  0
M  END
$$$$
