RMD.pdb
     RDKit          3D

 28 27  0  0  1  0  0  0  0  0999 V2000
   21.2563  -30.6992  -13.7614 N   0  0  0  0  0  0  0  0  0  0  0  0
   21.1465  -30.1640  -12.4348 C   0  0  0  0  0  0  0  0  0  0  0  0
   21.4619  -30.9154  -11.4136 N   0  0  0  0  0  0  0  0  0  0  0  0
   20.7109  -28.8458  -12.1870 N   0  0  0  0  0  0  0  0  0  0  0  0
   20.1724  -28.0261  -13.2280 C   0  0  0  0  0  0  0  0  0  0  0  0
   19.7782  -26.6837  -12.6100 C   0  0  0  0  0  0  0  0  0  0  0  0
   19.1809  -25.8696  -13.7389 C   0  0  0  0  0  0  0  0  0  0  0  0
   18.8590  -24.4555  -13.2887 C   0  0  2  0  0  0  0  0  0  0  0  0
   19.4641  -23.4412  -14.1010 N   0  0  0  0  0  0  0  0  0  0  0  0
   19.3657  -24.3207  -11.9008 C   0  0  0  0  0  0  0  0  0  0  0  0
   20.5454  -24.7181  -11.6090 O   0  0  0  0  0  0  0  0  0  0  0  0
   21.2903  -30.5513  -10.4420 C   0  0  0  0  0  0  0  0  0  0  0  0
   20.4853  -19.3853   -8.1783 S   0  0  0  0  0  0  0  0  0  0  0  0
   20.4649  -19.6754   -9.9811 C   0  0  0  0  0  0  0  0  0  0  0  0
   20.1757  -21.4283  -10.3675 C   0  0  0  0  0  0  0  0  0  0  0  0
   19.1963  -22.0413   -9.3894 C   0  0  2  0  0  0  0  0  0  0  0  0
   19.0574  -23.5277   -9.5802 N   0  0  0  0  0  0  0  0  0  0  0  0
   18.5512  -23.7612  -10.9180 C   0  0  0  0  0  0  0  0  0  0  0  0
   18.1256  -24.1466   -8.6338 O   0  0  0  0  0  0  0  0  0  0  0  0
   16.9077  -24.3153   -8.8831 N   0  0  0  0  0  0  0  0  0  0  0  0
   18.5938  -24.5857   -7.3673 C   0  0  1  0  0  0  0  0  0  0  0  0
   17.7396  -25.1932   -6.3735 C   0  0  0  0  0  0  0  0  0  0  0  0
   18.6371  -25.7631   -5.2945 C   0  0  0  0  0  0  0  0  0  0  0  0
   17.8675  -26.4910   -4.2638 O   0  0  0  0  0  0  0  0  0  0  0  0
   16.6288  -26.6854   -4.3424 C   0  0  0  0  0  0  0  0  0  0  0  0
   16.8071  -24.1846   -5.8425 O   0  0  0  0  0  0  0  0  0  0  0  0
   15.5278  -24.4512   -5.4080 O   0  0  0  0  0  0  0  0  0  0  0  0
   18.5349  -26.9829   -3.1524 O   0  0  0  0  0  0  0  0  0  0  0  0
  2  1  1  0
  3  2  2  0
  4  2  1  0
  5  4  1  0
  6  5  1  0
  7  6  1  0
  8  7  1  0
  8  9  1  6
 10 11  2  0
 10  8  1  0
 12 13  1  0
 14 13  1  0
 15 14  1  0
 16 17  1  0
 16 15  1  6
 17 10  1  0
 18 16  1  0
 19 18  2  0
 20 18  1  0
 21 20  1  0
 21 22  1  1
 22 23  1  0
 23 24  2  0
 25 21  1  0
 25 26  1  0
 27 23  1  0
 28 25  2  0
M  END
$$$$
