RMD.pdb
     RDKit          3D

 28 27  0  0  1  0  0  0  0  0999 V2000
   26.9302  -22.2682  -17.5410 N   0  0  0  0  0  0  0  0  0  0  0  0
   26.9362  -20.8352  -17.6081 C   0  0  0  0  0  0  0  0  0  0  0  0
   26.1651  -20.2318  -18.4731 N   0  0  0  0  0  0  0  0  0  0  0  0
   27.7464  -20.0442  -16.7674 N   0  0  0  0  0  0  0  0  0  0  0  0
   28.5351  -20.6240  -15.7245 C   0  0  0  0  0  0  0  0  0  0  0  0
   27.7047  -20.5982  -14.4404 C   0  0  0  0  0  0  0  0  0  0  0  0
   28.5643  -19.8995  -13.4074 C   0  0  0  0  0  0  0  0  0  0  0  0
   28.8943  -20.8235  -12.2485 C   0  0  2  0  0  0  0  0  0  0  0  0
   29.4760  -22.0695  -12.6535 N   0  0  0  0  0  0  0  0  0  0  0  0
   27.6189  -21.0994  -11.5423 C   0  0  0  0  0  0  0  0  0  0  0  0
   26.9774  -22.1798  -11.7792 O   0  0  0  0  0  0  0  0  0  0  0  0
   26.2070  -19.1836  -18.5476 C   0  0  0  0  0  0  0  0  0  0  0  0
   28.4929  -19.7659   -5.0201 S   0  0  0  0  0  0  0  0  0  0  0  0
   27.1477  -19.2042   -6.1199 C   0  0  0  0  0  0  0  0  0  0  0  0
   27.0992  -20.1740   -7.6570 C   0  0  0  0  0  0  0  0  0  0  0  0
   26.0008  -19.6778   -8.5729 C   0  0  2  0  0  0  0  0  0  0  0  0
   25.9293  -20.4653   -9.8535 N   0  0  0  0  0  0  0  0  0  0  0  0
   27.1236  -20.1772  -10.6224 C   0  0  0  0  0  0  0  0  0  0  0  0
   24.7697  -20.1197  -10.6797 O   0  0  0  0  0  0  0  0  0  0  0  0
   24.8176  -19.2787  -11.6095 N   0  0  0  0  0  0  0  0  0  0  0  0
   23.5198  -20.7494  -10.4404 C   0  0  1  0  0  0  0  0  0  0  0  0
   22.4358  -20.7478  -11.3951 C   0  0  0  0  0  0  0  0  0  0  0  0
   22.5887  -21.9866  -12.2535 C   0  0  0  0  0  0  0  0  0  0  0  0
   22.6410  -21.6574  -13.6933 O   0  0  0  0  0  0  0  0  0  0  0  0
   22.5527  -20.4836  -14.1322 C   0  0  0  0  0  0  0  0  0  0  0  0
   21.1490  -20.7254  -10.6793 O   0  0  0  0  0  0  0  0  0  0  0  0
   20.9414  -21.2498   -9.4229 O   0  0  0  0  0  0  0  0  0  0  0  0
   22.7908  -22.6863  -14.6106 O   0  0  0  0  0  0  0  0  0  0  0  0
  2  1  1  0
  3  2  2  0
  4  2  1  0
  5  4  1  0
  6  5  1  0
  7  6  1  0
  8  7  1  0
  8  9  1  6
 10 11  2  0
 10  8  1  0
 12 13  1  0
 14 13  1  0
 15 14  1  0
 16 17  1  0
 16 15  1  1
 17 10  1  0
 18 16  1  0
 19 18  2  0
 20 18  1  0
 21 20  1  0
 21 22  1  1
 22 23  1  0
 23 24  2  0
 25 21  1  0
 25 26  1  0
 27 23  1  0
 28 25  2  0
M  END
$$$$
