RMD.pdb
     RDKit          3D

 28 27  0  0  1  0  0  0  0  0999 V2000
   31.0361  -29.5704  -21.6320 N   0  0  0  0  0  0  0  0  0  0  0  0
   29.6166  -29.7544  -21.5351 C   0  0  0  0  0  0  0  0  0  0  0  0
   28.8909  -29.7180  -22.6209 N   0  0  0  0  0  0  0  0  0  0  0  0
   28.9676  -29.9785  -20.3033 N   0  0  0  0  0  0  0  0  0  0  0  0
   29.7035  -30.1573  -19.0898 C   0  0  0  0  0  0  0  0  0  0  0  0
   28.7138  -30.5681  -17.9985 C   0  0  0  0  0  0  0  0  0  0  0  0
   27.8881  -29.3329  -17.7045 C   0  0  0  0  0  0  0  0  0  0  0  0
   28.6593  -28.3454  -16.8467 C   0  0  2  0  0  0  0  0  0  0  0  0
   29.1663  -28.9120  -15.6315 N   0  0  0  0  0  0  0  0  0  0  0  0
   27.7211  -27.2476  -16.5063 C   0  0  0  0  0  0  0  0  0  0  0  0
   27.2321  -27.1665  -15.3277 O   0  0  0  0  0  0  0  0  0  0  0  0
   27.8522  -29.8628  -22.5436 C   0  0  0  0  0  0  0  0  0  0  0  0
   29.5292  -21.5968  -17.3091 S   0  0  0  0  0  0  0  0  0  0  0  0
   27.7554  -21.1893  -17.4580 C   0  0  0  0  0  0  0  0  0  0  0  0
   26.7106  -22.6318  -17.0928 C   0  0  0  0  0  0  0  0  0  0  0  0
   27.4324  -23.9191  -17.4298 C   0  0  2  0  0  0  0  0  0  0  0  0
   26.5985  -25.1347  -17.1262 N   0  0  0  0  0  0  0  0  0  0  0  0
   27.3748  -26.3077  -17.4752 C   0  0  0  0  0  0  0  0  0  0  0  0
   25.3477  -25.1816  -17.8880 O   0  0  0  0  0  0  0  0  0  0  0  0
   25.2928  -25.5243  -19.0936 N   0  0  0  0  0  0  0  0  0  0  0  0
   24.1247  -24.8282  -17.2592 C   0  0  1  0  0  0  0  0  0  0  0  0
   22.8606  -24.7781  -17.9563 C   0  0  0  0  0  0  0  0  0  0  0  0
   21.7713  -24.6755  -16.9085 C   0  0  0  0  0  0  0  0  0  0  0  0
   21.2476  -26.0032  -16.5248 O   0  0  0  0  0  0  0  0  0  0  0  0
   21.5791  -27.0658  -17.1073 C   0  0  0  0  0  0  0  0  0  0  0  0
   22.8518  -23.6301  -18.8786 O   0  0  0  0  0  0  0  0  0  0  0  0
   21.9701  -23.4715  -19.9245 O   0  0  0  0  0  0  0  0  0  0  0  0
   20.3446  -26.0895  -15.4762 O   0  0  0  0  0  0  0  0  0  0  0  0
  2  1  1  0
  3  2  2  0
  4  2  1  0
  5  4  1  0
  6  5  1  0
  7  6  1  0
  8  7  1  0
  8  9  1  1
 10 11  2  0
 10  8  1  0
 12 13  1  0
 14 13  1  0
 15 14  1  0
 16 17  1  0
 16 15  1  1
 17 10  1  0
 18 16  1  0
 19 18  2  0
 20 18  1  0
 21 20  1  0
 21 22  1  6
 22 23  1  0
 23 24  2  0
 25 21  1  0
 25 26  1  0
 27 23  1  0
 28 25  2  0
M  END
$$$$
