RMD.pdb
     RDKit          3D

 28 27  0  0  1  0  0  0  0  0999 V2000
   19.3647  -24.2927   -7.2666 N   0  0  0  0  0  0  0  0  0  0  0  0
   18.3264  -24.5137   -8.2317 C   0  0  0  0  0  0  0  0  0  0  0  0
   17.1825  -25.0082   -7.8392 N   0  0  0  0  0  0  0  0  0  0  0  0
   18.4915  -24.2124   -9.5995 N   0  0  0  0  0  0  0  0  0  0  0  0
   19.5344  -23.3464  -10.0557 C   0  0  0  0  0  0  0  0  0  0  0  0
   18.9027  -21.9993  -10.4098 C   0  0  0  0  0  0  0  0  0  0  0  0
   20.0083  -20.9744  -10.2644 C   0  0  0  0  0  0  0  0  0  0  0  0
   21.0672  -21.1493  -11.3386 C   0  0  2  0  0  0  0  0  0  0  0  0
   21.3898  -22.5193  -11.6110 N   0  0  0  0  0  0  0  0  0  0  0  0
   22.2881  -20.4587  -10.8551 C   0  0  0  0  0  0  0  0  0  0  0  0
   22.2586  -19.2042  -10.6097 O   0  0  0  0  0  0  0  0  0  0  0  0
   16.4672  -25.2721   -8.5634 C   0  0  0  0  0  0  0  0  0  0  0  0
   28.1682  -19.2256   -6.3105 S   0  0  0  0  0  0  0  0  0  0  0  0
   26.6522  -20.1208   -6.7951 C   0  0  0  0  0  0  0  0  0  0  0  0
   26.3577  -20.0057   -8.5855 C   0  0  0  0  0  0  0  0  0  0  0  0
   25.0713  -20.7070   -8.9663 C   0  0  2  0  0  0  0  0  0  0  0  0
   24.7199  -20.5028  -10.4155 N   0  0  0  0  0  0  0  0  0  0  0  0
   23.4652  -21.1817  -10.6710 C   0  0  0  0  0  0  0  0  0  0  0  0
   25.7212  -21.0497  -11.3348 O   0  0  0  0  0  0  0  0  0  0  0  0
   26.0218  -22.2671  -11.3744 N   0  0  0  0  0  0  0  0  0  0  0  0
   26.3996  -20.1859  -12.2346 C   0  0  1  0  0  0  0  0  0  0  0  0
   26.8658  -20.6048  -13.5360 C   0  0  0  0  0  0  0  0  0  0  0  0
   26.0649  -21.8289  -13.9296 C   0  0  0  0  0  0  0  0  0  0  0  0
   26.4241  -22.3130  -15.2790 O   0  0  0  0  0  0  0  0  0  0  0  0
   27.5998  -22.3009  -15.7218 C   0  0  0  0  0  0  0  0  0  0  0  0
   26.6997  -19.5016  -14.4973 O   0  0  0  0  0  0  0  0  0  0  0  0
   27.7121  -18.9731  -15.2668 O   0  0  0  0  0  0  0  0  0  0  0  0
   25.4225  -22.8019  -16.1038 O   0  0  0  0  0  0  0  0  0  0  0  0
  2  1  1  0
  3  2  2  0
  4  2  1  0
  5  4  1  0
  6  5  1  0
  7  6  1  0
  8  7  1  0
  8  9  1  1
 10 11  2  0
 10  8  1  0
 12 13  1  0
 14 13  1  0
 15 14  1  0
 16 17  1  0
 16 15  1  1
 17 10  1  0
 18 16  1  0
 19 18  2  0
 20 18  1  0
 21 20  1  0
 21 22  1  1
 22 23  1  0
 23 24  2  0
 25 21  1  0
 25 26  1  0
 27 23  1  0
 28 25  2  0
M  END
$$$$
