RMD.pdb
     RDKit          3D

 28 27  0  0  1  0  0  0  0  0999 V2000
   15.0824  -11.6069  -10.4775 N   0  0  0  0  0  0  0  0  0  0  0  0
   14.1549  -12.1476  -11.4292 C   0  0  0  0  0  0  0  0  0  0  0  0
   13.0758  -12.7473  -11.0016 N   0  0  0  0  0  0  0  0  0  0  0  0
   14.3616  -12.0535  -12.8210 N   0  0  0  0  0  0  0  0  0  0  0  0
   15.5675  -11.5095  -13.3647 C   0  0  0  0  0  0  0  0  0  0  0  0
   15.2760  -10.0746  -13.8067 C   0  0  0  0  0  0  0  0  0  0  0  0
   16.5502   -9.2971  -13.5499 C   0  0  0  0  0  0  0  0  0  0  0  0
   16.8809   -8.3802  -14.7143 C   0  0  2  0  0  0  0  0  0  0  0  0
   16.7997   -9.0223  -15.9934 N   0  0  0  0  0  0  0  0  0  0  0  0
   18.2711   -7.9056  -14.5060 C   0  0  0  0  0  0  0  0  0  0  0  0
   18.6257   -7.4443  -13.3675 O   0  0  0  0  0  0  0  0  0  0  0  0
   12.4203  -13.1762  -11.7032 C   0  0  0  0  0  0  0  0  0  0  0  0
   22.7987  -11.1751  -13.1583 S   0  0  0  0  0  0  0  0  0  0  0  0
   22.5523   -9.5498  -13.9536 C   0  0  0  0  0  0  0  0  0  0  0  0
   21.6475   -9.7095  -15.5225 C   0  0  0  0  0  0  0  0  0  0  0  0
   21.4603   -8.3573  -16.1767 C   0  0  2  0  0  0  0  0  0  0  0  0
   20.5380   -7.4670  -15.3880 N   0  0  0  0  0  0  0  0  0  0  0  0
   19.1867   -7.9635  -15.5551 C   0  0  0  0  0  0  0  0  0  0  0  0
   20.5615   -6.0716  -15.8341 O   0  0  0  0  0  0  0  0  0  0  0  0
   20.6920   -5.7394  -17.0369 N   0  0  0  0  0  0  0  0  0  0  0  0
   20.4330   -5.0245  -14.8837 C   0  0  1  0  0  0  0  0  0  0  0  0
   20.4826   -3.6244  -15.2354 C   0  0  0  0  0  0  0  0  0  0  0  0
   19.4447   -2.9107  -14.3939 C   0  0  0  0  0  0  0  0  0  0  0  0
   19.4539   -1.4513  -14.6266 O   0  0  0  0  0  0  0  0  0  0  0  0
   19.4989   -0.9397  -15.7732 C   0  0  0  0  0  0  0  0  0  0  0  0
   21.8401   -3.1048  -14.9987 O   0  0  0  0  0  0  0  0  0  0  0  0
   22.8329   -3.7826  -14.3267 O   0  0  0  0  0  0  0  0  0  0  0  0
   19.4152   -0.5986  -13.5340 O   0  0  0  0  0  0  0  0  0  0  0  0
  2  1  1  0
  3  2  2  0
  4  2  1  0
  5  4  1  0
  6  5  1  0
  7  6  1  0
  8  7  1  0
  8  9  1  6
 10 11  2  0
 10  8  1  0
 12 13  1  0
 14 13  1  0
 15 14  1  0
 16 17  1  0
 16 15  1  1
 17 10  1  0
 18 16  1  0
 19 18  2  0
 20 18  1  0
 21 20  1  0
 21 22  1  1
 22 23  1  0
 23 24  2  0
 25 21  1  0
 25 26  1  0
 27 23  1  0
 28 25  2  0
M  END
$$$$
