RMD.pdb
     RDKit          3D

 28 27  0  0  1  0  0  0  0  0999 V2000
   31.5489  -25.4620  -16.4288 N   0  0  0  0  0  0  0  0  0  0  0  0
   30.1331  -25.6903  -16.3895 C   0  0  0  0  0  0  0  0  0  0  0  0
   29.6823  -26.8457  -15.9785 N   0  0  0  0  0  0  0  0  0  0  0  0
   29.1996  -24.7070  -16.7773 N   0  0  0  0  0  0  0  0  0  0  0  0
   29.6164  -23.4344  -17.2798 C   0  0  0  0  0  0  0  0  0  0  0  0
   29.1049  -22.3610  -16.3179 C   0  0  0  0  0  0  0  0  0  0  0  0
   27.7285  -22.8195  -15.8827 C   0  0  0  0  0  0  0  0  0  0  0  0
   26.7733  -21.6466  -15.7488 C   0  0  2  0  0  0  0  0  0  0  0  0
   27.4320  -20.3805  -15.6140 N   0  0  0  0  0  0  0  0  0  0  0  0
   25.9587  -21.8925  -14.5334 C   0  0  0  0  0  0  0  0  0  0  0  0
   25.2042  -22.9225  -14.4666 O   0  0  0  0  0  0  0  0  0  0  0  0
   28.6471  -27.0280  -16.0096 C   0  0  0  0  0  0  0  0  0  0  0  0
   24.9215  -20.2636   -6.8922 S   0  0  0  0  0  0  0  0  0  0  0  0
   25.9626  -20.2584   -8.3924 C   0  0  0  0  0  0  0  0  0  0  0  0
   25.0212  -20.7886   -9.8547 C   0  0  0  0  0  0  0  0  0  0  0  0
   25.8953  -20.7801  -11.0906 C   0  0  1  0  0  0  0  0  0  0  0  0
   25.1246  -21.1320  -12.3346 N   0  0  0  0  0  0  0  0  0  0  0  0
   26.0185  -20.9969  -13.4673 C   0  0  0  0  0  0  0  0  0  0  0  0
   23.9718  -20.2576  -12.5660 O   0  0  0  0  0  0  0  0  0  0  0  0
   24.0727  -19.1068  -13.0553 N   0  0  0  0  0  0  0  0  0  0  0  0
   22.6671  -20.7063  -12.2308 C   0  0  1  0  0  0  0  0  0  0  0  0
   21.4738  -19.9324  -12.4824 C   0  0  0  0  0  0  0  0  0  0  0  0
   21.3148  -19.8238  -13.9850 C   0  0  0  0  0  0  0  0  0  0  0  0
   20.8564  -21.0943  -14.5848 O   0  0  0  0  0  0  0  0  0  0  0  0
   20.5767  -22.1126  -13.9042 C   0  0  0  0  0  0  0  0  0  0  0  0
   20.3178  -20.5894  -11.8493 O   0  0  0  0  0  0  0  0  0  0  0  0
   19.1148  -19.9742  -11.5834 O   0  0  0  0  0  0  0  0  0  0  0  0
   20.7297  -21.1770  -15.9631 O   0  0  0  0  0  0  0  0  0  0  0  0
  2  1  1  0
  3  2  2  0
  4  2  1  0
  5  4  1  0
  6  5  1  0
  7  6  1  0
  8  7  1  0
  8  9  1  1
 10 11  2  0
 10  8  1  0
 12 13  1  0
 14 13  1  0
 15 14  1  0
 16 17  1  0
 16 15  1  1
 17 10  1  0
 18 16  1  0
 19 18  2  0
 20 18  1  0
 21 20  1  0
 21 22  1  1
 22 23  1  0
 23 24  2  0
 25 21  1  0
 25 26  1  0
 27 23  1  0
 28 25  2  0
M  END
$$$$
