RMD.pdb
     RDKit          3D

 28 27  0  0  1  0  0  0  0  0999 V2000
   30.0839  -23.1268  -17.3139 N   0  0  0  0  0  0  0  0  0  0  0  0
   29.6356  -22.1463  -18.2605 C   0  0  0  0  0  0  0  0  0  0  0  0
   29.5886  -22.4559  -19.5289 N   0  0  0  0  0  0  0  0  0  0  0  0
   29.2366  -20.8506  -17.8724 N   0  0  0  0  0  0  0  0  0  0  0  0
   28.4453  -20.6290  -16.7017 C   0  0  0  0  0  0  0  0  0  0  0  0
   27.0368  -21.1549  -16.9824 C   0  0  0  0  0  0  0  0  0  0  0  0
   26.2636  -20.9714  -15.6930 C   0  0  0  0  0  0  0  0  0  0  0  0
   26.7230  -21.9536  -14.6300 C   0  0  2  0  0  0  0  0  0  0  0  0
   26.9035  -23.2888  -15.1196 N   0  0  0  0  0  0  0  0  0  0  0  0
   25.6771  -21.9686  -13.5779 C   0  0  0  0  0  0  0  0  0  0  0  0
   24.7473  -22.8455  -13.6127 O   0  0  0  0  0  0  0  0  0  0  0  0
   29.2314  -21.7423  -20.2137 C   0  0  0  0  0  0  0  0  0  0  0  0
   27.7789  -20.4901   -7.0228 S   0  0  0  0  0  0  0  0  0  0  0  0
   26.1912  -20.2255   -7.8853 C   0  0  0  0  0  0  0  0  0  0  0  0
   26.3092  -20.6728   -9.6436 C   0  0  0  0  0  0  0  0  0  0  0  0
   25.1531  -20.0886  -10.4270 C   0  0  2  0  0  0  0  0  0  0  0  0
   24.6899  -21.0063  -11.5264 N   0  0  0  0  0  0  0  0  0  0  0  0
   25.7116  -21.0236  -12.5541 C   0  0  0  0  0  0  0  0  0  0  0  0
   23.4353  -20.5749  -12.1483 O   0  0  0  0  0  0  0  0  0  0  0  0
   23.3579  -19.5907  -12.9225 N   0  0  0  0  0  0  0  0  0  0  0  0
   22.2347  -21.2840  -11.8809 C   0  0  1  0  0  0  0  0  0  0  0  0
   20.9616  -20.9371  -12.4686 C   0  0  0  0  0  0  0  0  0  0  0  0
   20.0659  -22.1535  -12.3555 C   0  0  0  0  0  0  0  0  0  0  0  0
   18.7092  -21.8906  -12.8793 O   0  0  0  0  0  0  0  0  0  0  0  0
   17.7659  -22.7152  -12.7854 C   0  0  0  0  0  0  0  0  0  0  0  0
   20.3991  -19.7684  -11.7711 O   0  0  0  0  0  0  0  0  0  0  0  0
   19.5981  -18.8150  -12.3592 O   0  0  0  0  0  0  0  0  0  0  0  0
   18.4569  -20.6813  -13.5088 O   0  0  0  0  0  0  0  0  0  0  0  0
  2  1  1  0
  3  2  2  0
  4  2  1  0
  5  4  1  0
  6  5  1  0
  7  6  1  0
  8  7  1  0
  8  9  1  6
 10 11  2  0
 10  8  1  0
 12 13  1  0
 14 13  1  0
 15 14  1  0
 16 17  1  0
 16 15  1  1
 17 10  1  0
 18 16  1  0
 19 18  2  0
 20 18  1  0
 21 20  1  0
 21 22  1  1
 22 23  1  0
 23 24  2  0
 25 21  1  0
 25 26  1  0
 27 23  1  0
 28 25  2  0
M  END
$$$$
