RMD.pdb
     RDKit          3D

 28 27  0  0  1  0  0  0  0  0999 V2000
   24.7402  -21.6972  -11.6325 N   0  0  0  0  0  0  0  0  0  0  0  0
   25.5036  -20.9654  -10.6630 C   0  0  0  0  0  0  0  0  0  0  0  0
   24.9254  -20.5675   -9.5610 N   0  0  0  0  0  0  0  0  0  0  0  0
   26.8670  -20.6584  -10.8522 N   0  0  0  0  0  0  0  0  0  0  0  0
   27.5745  -21.0780  -12.0223 C   0  0  0  0  0  0  0  0  0  0  0  0
   28.1394  -19.8291  -12.7006 C   0  0  0  0  0  0  0  0  0  0  0  0
   27.2507  -19.5736  -13.9001 C   0  0  0  0  0  0  0  0  0  0  0  0
   27.2358  -20.7665  -14.8395 C   0  0  2  0  0  0  0  0  0  0  0  0
   28.2430  -20.7096  -15.8581 N   0  0  0  0  0  0  0  0  0  0  0  0
   25.9017  -20.7861  -15.4883 C   0  0  0  0  0  0  0  0  0  0  0  0
   25.7087  -20.1383  -16.5736 O   0  0  0  0  0  0  0  0  0  0  0  0
   25.4718  -19.9759   -8.8848 C   0  0  0  0  0  0  0  0  0  0  0  0
   24.4329  -26.3338  -15.6556 S   0  0  0  0  0  0  0  0  0  0  0  0
   24.3920  -25.5137  -17.2867 C   0  0  0  0  0  0  0  0  0  0  0  0
   24.3721  -23.7035  -17.1185 C   0  0  0  0  0  0  0  0  0  0  0  0
   23.5943  -23.2850  -15.8890 C   0  0  2  0  0  0  0  0  0  0  0  0
   23.6535  -21.7991  -15.6573 N   0  0  0  0  0  0  0  0  0  0  0  0
   24.8615  -21.5111  -14.9101 C   0  0  0  0  0  0  0  0  0  0  0  0
   22.5167  -21.2893  -14.8862 O   0  0  0  0  0  0  0  0  0  0  0  0
   22.3874  -21.4763  -13.6523 N   0  0  0  0  0  0  0  0  0  0  0  0
   21.4980  -20.5457  -15.5384 C   0  0  1  0  0  0  0  0  0  0  0  0
   20.3171  -20.0587  -14.8641 C   0  0  0  0  0  0  0  0  0  0  0  0
   19.7173  -18.9722  -15.7327 C   0  0  0  0  0  0  0  0  0  0  0  0
   18.4354  -18.4761  -15.1897 O   0  0  0  0  0  0  0  0  0  0  0  0
   17.9853  -18.8224  -14.0690 C   0  0  0  0  0  0  0  0  0  0  0  0
   19.3799  -21.1734  -14.6453 O   0  0  0  0  0  0  0  0  0  0  0  0
   18.5178  -21.2745  -13.5761 O   0  0  0  0  0  0  0  0  0  0  0  0
   17.6855  -17.5894  -15.9471 O   0  0  0  0  0  0  0  0  0  0  0  0
  2  1  1  0
  3  2  2  0
  4  2  1  0
  5  4  1  0
  6  5  1  0
  7  6  1  0
  8  7  1  0
  8  9  1  6
 10 11  2  0
 10  8  1  0
 12 13  1  0
 14 13  1  0
 15 14  1  0
 16 17  1  0
 16 15  1  6
 17 10  1  0
 18 16  1  0
 19 18  2  0
 20 18  1  0
 21 20  1  0
 21 22  1  6
 22 23  1  0
 23 24  2  0
 25 21  1  0
 25 26  1  0
 27 23  1  0
 28 25  2  0
M  END
$$$$
