RMD.pdb
     RDKit          3D

 28 27  0  0  1  0  0  0  0  0999 V2000
   29.1471  -18.5411  -18.9303 N   0  0  0  0  0  0  0  0  0  0  0  0
   28.6708  -17.5660  -17.9920 C   0  0  0  0  0  0  0  0  0  0  0  0
   29.0743  -16.3277  -18.0955 N   0  0  0  0  0  0  0  0  0  0  0  0
   27.7731  -17.8931  -16.9546 N   0  0  0  0  0  0  0  0  0  0  0  0
   27.2910  -19.2274  -16.7735 C   0  0  0  0  0  0  0  0  0  0  0  0
   25.7679  -19.1971  -16.9094 C   0  0  0  0  0  0  0  0  0  0  0  0
   25.2425  -20.1758  -15.8797 C   0  0  0  0  0  0  0  0  0  0  0  0
   26.3459  -20.6373  -14.9442 C   0  0  2  0  0  0  0  0  0  0  0  0
   27.2280  -21.6050  -15.5277 N   0  0  0  0  0  0  0  0  0  0  0  0
   25.6827  -21.2461  -13.7648 C   0  0  0  0  0  0  0  0  0  0  0  0
   25.0443  -22.3471  -13.8876 O   0  0  0  0  0  0  0  0  0  0  0  0
   28.7248  -15.6191  -17.4015 C   0  0  0  0  0  0  0  0  0  0  0  0
   27.2670  -20.2985   -7.5322 S   0  0  0  0  0  0  0  0  0  0  0  0
   25.4452  -20.2477   -7.4183 C   0  0  0  0  0  0  0  0  0  0  0  0
   24.6681  -20.8658   -8.9414 C   0  0  0  0  0  0  0  0  0  0  0  0
   25.4610  -20.4444  -10.1602 C   0  0  2  0  0  0  0  0  0  0  0  0
   24.8992  -21.0220  -11.4314 N   0  0  0  0  0  0  0  0  0  0  0  0
   25.7575  -20.6134  -12.5254 C   0  0  0  0  0  0  0  0  0  0  0  0
   23.5422  -20.5552  -11.7274 O   0  0  0  0  0  0  0  0  0  0  0  0
   23.2623  -19.3494  -11.9314 N   0  0  0  0  0  0  0  0  0  0  0  0
   22.4736  -21.4878  -11.7926 C   0  0  1  0  0  0  0  0  0  0  0  0
   21.1181  -21.1178  -12.1276 C   0  0  0  0  0  0  0  0  0  0  0  0
   20.7434  -21.8700  -13.3879 C   0  0  0  0  0  0  0  0  0  0  0  0
   19.6460  -21.2056  -14.1217 O   0  0  0  0  0  0  0  0  0  0  0  0
   19.0547  -20.1832  -13.6932 C   0  0  0  0  0  0  0  0  0  0  0  0
   20.2260  -21.4438  -11.0022 O   0  0  0  0  0  0  0  0  0  0  0  0
   20.6399  -21.9824   -9.8042 O   0  0  0  0  0  0  0  0  0  0  0  0
   19.2404  -21.7302  -15.3394 O   0  0  0  0  0  0  0  0  0  0  0  0
  2  1  1  0
  3  2  2  0
  4  2  1  0
  5  4  1  0
  6  5  1  0
  7  6  1  0
  8  7  1  0
  8  9  1  6
 10 11  2  0
 10  8  1  0
 12 13  1  0
 14 13  1  0
 15 14  1  0
 16 17  1  0
 16 15  1  1
 17 10  1  0
 18 16  1  0
 19 18  2  0
 20 18  1  0
 21 20  1  0
 21 22  1  1
 22 23  1  0
 23 24  2  0
 25 21  1  0
 25 26  1  0
 27 23  1  0
 28 25  2  0
M  END
$$$$
