RMD.pdb
     RDKit          3D

 28 27  0  0  1  0  0  0  0  0999 V2000
   29.6239  -26.0859  -15.9378 N   0  0  0  0  0  0  0  0  0  0  0  0
   30.3446  -25.2751  -16.8767 C   0  0  0  0  0  0  0  0  0  0  0  0
   31.1554  -25.8474  -17.7264 N   0  0  0  0  0  0  0  0  0  0  0  0
   30.2088  -23.8722  -16.9218 N   0  0  0  0  0  0  0  0  0  0  0  0
   29.1387  -23.2006  -16.2511 C   0  0  0  0  0  0  0  0  0  0  0  0
   27.8464  -23.5047  -17.0105 C   0  0  0  0  0  0  0  0  0  0  0  0
   26.7536  -23.5509  -15.9628 C   0  0  0  0  0  0  0  0  0  0  0  0
   26.2638  -22.1564  -15.6150 C   0  0  2  0  0  0  0  0  0  0  0  0
   27.3101  -21.1787  -15.5488 N   0  0  0  0  0  0  0  0  0  0  0  0
   25.6125  -22.2490  -14.2851 C   0  0  0  0  0  0  0  0  0  0  0  0
   24.7043  -23.1247  -14.0772 O   0  0  0  0  0  0  0  0  0  0  0  0
   31.7177  -25.2437  -18.3785 C   0  0  0  0  0  0  0  0  0  0  0  0
   25.9543  -20.0899   -6.6819 S   0  0  0  0  0  0  0  0  0  0  0  0
   26.7268  -20.1553   -8.3353 C   0  0  0  0  0  0  0  0  0  0  0  0
   25.5425  -20.7080   -9.5992 C   0  0  0  0  0  0  0  0  0  0  0  0
   26.2134  -20.8269  -10.9511 C   0  0  1  0  0  0  0  0  0  0  0  0
   25.2779  -21.3540  -12.0056 N   0  0  0  0  0  0  0  0  0  0  0  0
   25.9932  -21.3782  -13.2659 C   0  0  0  0  0  0  0  0  0  0  0  0
   24.0830  -20.5250  -12.1838 O   0  0  0  0  0  0  0  0  0  0  0  0
   24.1303  -19.2821  -12.3481 N   0  0  0  0  0  0  0  0  0  0  0  0
   22.7976  -21.1282  -12.1746 C   0  0  1  0  0  0  0  0  0  0  0  0
   21.5852  -20.4153  -12.5035 C   0  0  0  0  0  0  0  0  0  0  0  0
   21.4317  -20.4570  -14.0100 C   0  0  0  0  0  0  0  0  0  0  0  0
   20.8194  -19.2194  -14.5369 O   0  0  0  0  0  0  0  0  0  0  0  0
   20.5035  -18.2461  -13.8079 C   0  0  0  0  0  0  0  0  0  0  0  0
   20.4440  -21.0396  -11.8131 O   0  0  0  0  0  0  0  0  0  0  0  0
   20.5316  -22.1426  -10.9933 O   0  0  0  0  0  0  0  0  0  0  0  0
   20.5748  -19.1200  -15.8981 O   0  0  0  0  0  0  0  0  0  0  0  0
  2  1  1  0
  3  2  2  0
  4  2  1  0
  5  4  1  0
  6  5  1  0
  7  6  1  0
  8  7  1  0
  8  9  1  1
 10 11  2  0
 10  8  1  0
 12 13  1  0
 14 13  1  0
 15 14  1  0
 16 17  1  0
 16 15  1  1
 17 10  1  0
 18 16  1  0
 19 18  2  0
 20 18  1  0
 21 20  1  0
 21 22  1  1
 22 23  1  0
 23 24  2  0
 25 21  1  0
 25 26  1  0
 27 23  1  0
 28 25  2  0
M  END
$$$$
