RMD.pdb
     RDKit          3D

 28 27  0  0  1  0  0  0  0  0999 V2000
   25.5791  -21.5443  -18.2304 N   0  0  0  0  0  0  0  0  0  0  0  0
   25.3978  -20.1820  -18.6419 C   0  0  0  0  0  0  0  0  0  0  0  0
   24.3748  -19.8709  -19.3927 N   0  0  0  0  0  0  0  0  0  0  0  0
   26.2862  -19.1548  -18.2619 N   0  0  0  0  0  0  0  0  0  0  0  0
   27.2485  -19.3431  -17.2205 C   0  0  0  0  0  0  0  0  0  0  0  0
   26.5322  -19.1565  -15.8821 C   0  0  0  0  0  0  0  0  0  0  0  0
   27.6076  -19.2613  -14.8208 C   0  0  0  0  0  0  0  0  0  0  0  0
   27.8137  -20.7012  -14.3849 C   0  0  2  0  0  0  0  0  0  0  0  0
   27.7965  -21.6388  -15.4691 N   0  0  0  0  0  0  0  0  0  0  0  0
   26.7079  -21.0302  -13.4519 C   0  0  0  0  0  0  0  0  0  0  0  0
   25.7564  -21.7951  -13.8322 O   0  0  0  0  0  0  0  0  0  0  0  0
   24.2940  -18.8892  -19.7610 C   0  0  0  0  0  0  0  0  0  0  0  0
   27.2718  -19.2117   -7.2967 S   0  0  0  0  0  0  0  0  0  0  0  0
   25.6904  -20.1132   -7.1517 C   0  0  0  0  0  0  0  0  0  0  0  0
   25.1469  -20.7619   -8.7609 C   0  0  0  0  0  0  0  0  0  0  0  0
   26.0755  -20.3072   -9.8666 C   0  0  2  0  0  0  0  0  0  0  0  0
   25.6921  -20.8826  -11.2035 N   0  0  0  0  0  0  0  0  0  0  0  0
   26.7101  -20.5020  -12.1623 C   0  0  0  0  0  0  0  0  0  0  0  0
   24.4040  -20.3883  -11.6967 O   0  0  0  0  0  0  0  0  0  0  0  0
   24.1931  -19.1824  -11.9712 N   0  0  0  0  0  0  0  0  0  0  0  0
   23.3253  -21.2927  -11.8826 C   0  0  1  0  0  0  0  0  0  0  0  0
   22.0454  -20.8991  -12.4242 C   0  0  0  0  0  0  0  0  0  0  0  0
   21.5794  -22.0147  -13.3370 C   0  0  0  0  0  0  0  0  0  0  0  0
   21.7775  -21.6804  -14.7629 O   0  0  0  0  0  0  0  0  0  0  0  0
   22.2401  -20.5788  -15.1513 C   0  0  0  0  0  0  0  0  0  0  0  0
   21.0992  -20.6528  -11.3230 O   0  0  0  0  0  0  0  0  0  0  0  0
   20.9923  -21.4314  -10.1922 O   0  0  0  0  0  0  0  0  0  0  0  0
   21.4361  -22.6190  -15.7246 O   0  0  0  0  0  0  0  0  0  0  0  0
  2  1  1  0
  3  2  2  0
  4  2  1  0
  5  4  1  0
  6  5  1  0
  7  6  1  0
  8  7  1  0
  8  9  1  6
 10 11  2  0
 10  8  1  0
 12 13  1  0
 14 13  1  0
 15 14  1  0
 16 17  1  0
 16 15  1  1
 17 10  1  0
 18 16  1  0
 19 18  2  0
 20 18  1  0
 21 20  1  0
 21 22  1  1
 22 23  1  0
 23 24  2  0
 25 21  1  0
 25 26  1  0
 27 23  1  0
 28 25  2  0
M  END
$$$$
