RMD.pdb
     RDKit          3D

 28 27  0  0  1  0  0  0  0  0999 V2000
   31.2115  -21.2995  -19.6809 N   0  0  0  0  0  0  0  0  0  0  0  0
   30.4086  -22.4854  -19.7667 C   0  0  0  0  0  0  0  0  0  0  0  0
   30.4225  -23.1893  -20.8673 N   0  0  0  0  0  0  0  0  0  0  0  0
   29.6001  -22.9276  -18.6993 N   0  0  0  0  0  0  0  0  0  0  0  0
   28.6753  -22.0530  -18.0470 C   0  0  0  0  0  0  0  0  0  0  0  0
   29.0255  -22.0275  -16.5584 C   0  0  0  0  0  0  0  0  0  0  0  0
   27.7442  -22.3710  -15.8274 C   0  0  0  0  0  0  0  0  0  0  0  0
   27.0039  -21.1181  -15.3937 C   0  0  2  0  0  0  0  0  0  0  0  0
   27.8696  -20.0339  -15.0331 N   0  0  0  0  0  0  0  0  0  0  0  0
   26.1865  -21.4892  -14.2124 C   0  0  0  0  0  0  0  0  0  0  0  0
   25.3636  -22.4652  -14.2850 O   0  0  0  0  0  0  0  0  0  0  0  0
   29.8446  -24.0664  -20.9174 C   0  0  0  0  0  0  0  0  0  0  0  0
   27.8344  -20.7677   -7.9226 S   0  0  0  0  0  0  0  0  0  0  0  0
   26.0991  -20.1991   -7.9349 C   0  0  0  0  0  0  0  0  0  0  0  0
   25.2306  -20.7524   -9.4333 C   0  0  0  0  0  0  0  0  0  0  0  0
   26.1293  -20.6472  -10.6469 C   0  0  1  0  0  0  0  0  0  0  0  0
   25.4053  -20.9879  -11.9217 N   0  0  0  0  0  0  0  0  0  0  0  0
   26.3184  -20.7701  -13.0260 C   0  0  0  0  0  0  0  0  0  0  0  0
   24.2187  -20.1594  -12.1507 O   0  0  0  0  0  0  0  0  0  0  0  0
   24.2695  -19.0204  -12.6742 N   0  0  0  0  0  0  0  0  0  0  0  0
   22.9378  -20.6415  -11.7727 C   0  0  1  0  0  0  0  0  0  0  0  0
   21.7236  -20.3025  -12.4779 C   0  0  0  0  0  0  0  0  0  0  0  0
   21.8761  -20.7959  -13.9020 C   0  0  0  0  0  0  0  0  0  0  0  0
   20.6707  -20.5236  -14.7126 O   0  0  0  0  0  0  0  0  0  0  0  0
   20.5338  -19.4889  -15.4120 C   0  0  0  0  0  0  0  0  0  0  0  0
   20.5712  -20.9185  -11.7988 O   0  0  0  0  0  0  0  0  0  0  0  0
   19.3569  -20.3004  -11.5985 O   0  0  0  0  0  0  0  0  0  0  0  0
   19.6354  -21.4458  -14.7043 O   0  0  0  0  0  0  0  0  0  0  0  0
  2  1  1  0
  3  2  2  0
  4  2  1  0
  5  4  1  0
  6  5  1  0
  7  6  1  0
  8  7  1  0
  8  9  1  1
 10 11  2  0
 10  8  1  0
 12 13  1  0
 14 13  1  0
 15 14  1  0
 16 17  1  0
 16 15  1  1
 17 10  1  0
 18 16  1  0
 19 18  2  0
 20 18  1  0
 21 20  1  0
 21 22  1  1
 22 23  1  0
 23 24  2  0
 25 21  1  0
 25 26  1  0
 27 23  1  0
 28 25  2  0
M  END
$$$$
