RMD.pdb
     RDKit          3D

 28 27  0  0  1  0  0  0  0  0999 V2000
   17.6514  -17.8143  -17.1185 N   0  0  0  0  0  0  0  0  0  0  0  0
   17.6626  -16.6361  -17.9370 C   0  0  0  0  0  0  0  0  0  0  0  0
   16.5496  -15.9793  -18.1286 N   0  0  0  0  0  0  0  0  0  0  0  0
   18.8389  -16.1521  -18.5461 N   0  0  0  0  0  0  0  0  0  0  0  0
   20.1272  -16.6734  -18.2079 C   0  0  0  0  0  0  0  0  0  0  0  0
   21.1461  -16.0655  -19.1731 C   0  0  0  0  0  0  0  0  0  0  0  0
   21.6474  -14.8034  -18.5025 C   0  0  0  0  0  0  0  0  0  0  0  0
   23.0334  -15.0041  -17.9155 C   0  0  2  0  0  0  0  0  0  0  0  0
   23.1959  -16.2574  -17.2389 N   0  0  0  0  0  0  0  0  0  0  0  0
   23.2516  -13.9050  -16.9431 C   0  0  0  0  0  0  0  0  0  0  0  0
   22.8164  -14.0145  -15.7458 O   0  0  0  0  0  0  0  0  0  0  0  0
   16.5551  -15.1449  -18.7685 C   0  0  0  0  0  0  0  0  0  0  0  0
   28.7296  -11.0252  -17.1070 S   0  0  0  0  0  0  0  0  0  0  0  0
   27.9186   -9.8228  -15.9974 C   0  0  0  0  0  0  0  0  0  0  0  0
   26.2100  -10.3165  -15.6199 C   0  0  0  0  0  0  0  0  0  0  0  0
   25.7438  -11.4070  -16.5606 C   0  0  1  0  0  0  0  0  0  0  0  0
   24.2864  -11.7336  -16.3746 N   0  0  0  0  0  0  0  0  0  0  0  0
   23.9305  -12.7545  -17.3398 C   0  0  0  0  0  0  0  0  0  0  0  0
   23.4048  -10.5837  -16.5922 O   0  0  0  0  0  0  0  0  0  0  0  0
   23.1096  -10.1535  -17.7332 N   0  0  0  0  0  0  0  0  0  0  0  0
   22.8435   -9.9041  -15.4790 C   0  0  1  0  0  0  0  0  0  0  0  0
   21.8923   -8.8246  -15.6067 C   0  0  0  0  0  0  0  0  0  0  0  0
   21.1973   -8.6750  -14.2690 C   0  0  0  0  0  0  0  0  0  0  0  0
   20.1415   -7.6416  -14.3081 O   0  0  0  0  0  0  0  0  0  0  0  0
   19.7778   -7.0722  -15.3673 C   0  0  0  0  0  0  0  0  0  0  0  0
   22.5949   -7.5937  -16.0065 O   0  0  0  0  0  0  0  0  0  0  0  0
   22.0443   -6.5901  -16.7721 O   0  0  0  0  0  0  0  0  0  0  0  0
   19.5200   -7.2739  -13.1244 O   0  0  0  0  0  0  0  0  0  0  0  0
  2  1  1  0
  3  2  2  0
  4  2  1  0
  5  4  1  0
  6  5  1  0
  7  6  1  0
  8  7  1  0
  8  9  1  1
 10 11  2  0
 10  8  1  0
 12 13  1  0
 14 13  1  0
 15 14  1  0
 16 17  1  0
 16 15  1  1
 17 10  1  0
 18 16  1  0
 19 18  2  0
 20 18  1  0
 21 20  1  0
 21 22  1  6
 22 23  1  0
 23 24  2  0
 25 21  1  0
 25 26  1  0
 27 23  1  0
 28 25  2  0
M  END
$$$$
