LTT.pdb
     RDKit          3D

 23 22  0  0  1  0  0  0  0  0999 V2000
   24.1787  -14.4743  -14.7750 C   0  0  0  0  0  0  0  0  0  0  0  0
   24.0436  -14.4070  -16.3033 C   0  0  2  0  0  0  0  0  0  0  0  0
   25.3990  -14.7053  -16.8527 C   0  0  0  0  0  0  0  0  0  0  0  0
   23.5186  -13.0381  -16.6141 C   0  0  0  0  0  0  0  0  0  0  0  0
   22.1238  -12.8727  -16.0912 C   0  0  2  0  0  0  0  0  0  0  0  0
   21.2634  -13.8259  -16.7563 N   0  0  0  0  0  0  0  0  0  0  0  0
   21.6764  -11.4668  -16.3808 C   0  0  0  0  0  0  0  0  0  0  0  0
   21.6835  -11.0360  -17.5626 O   0  0  0  0  0  0  0  0  0  0  0  0
   18.4926  -10.1841  -16.1612 C   0  0  0  0  0  0  0  0  0  0  0  0
   19.2854   -9.2424  -15.2588 C   0  0  1  0  0  0  0  0  0  0  0  0
   19.1874   -9.6493  -13.9427 O   0  0  0  0  0  0  0  0  0  0  0  0
   20.7285   -9.2803  -15.7215 C   0  0  2  0  0  0  0  0  0  0  0  0
   21.2378  -10.5866  -15.3574 N   0  0  0  0  0  0  0  0  0  0  0  0
   21.5432   -8.2774  -14.9978 C   0  0  0  0  0  0  0  0  0  0  0  0
   22.1546   -8.5375  -13.9238 O   0  0  0  0  0  0  0  0  0  0  0  0
   24.1210   -6.1089  -16.8020 C   0  0  0  0  0  0  0  0  0  0  0  0
   23.2025   -5.2396  -16.0051 C   0  0  1  0  0  0  0  0  0  0  0  0
   22.2244   -4.7289  -16.8568 O   0  0  0  0  0  0  0  0  0  0  0  0
   22.5154   -5.9776  -14.8794 C   0  0  2  0  0  0  0  0  0  0  0  0
   21.6517   -6.9777  -15.5127 N   0  0  0  0  0  0  0  0  0  0  0  0
   21.7222   -5.1056  -14.0161 C   0  0  0  0  0  0  0  0  0  0  0  0
   20.4694   -5.1617  -14.0432 O   0  0  0  0  0  0  0  0  0  0  0  0
   22.3059   -4.1985  -13.1489 O   0  0  0  0  0  0  0  0  0  0  0  0
  2  1  1  1
  3  2  1  0
  4  2  1  0
  5  6  1  6
  5  4  1  0
  7  5  1  0
  8  7  2  0
 10  9  1  6
 10 12  1  0
 11 10  1  0
 12 14  1  0
 12 13  1  1
 13  7  1  0
 14 20  1  0
 15 14  2  0
 17 18  1  0
 17 16  1  6
 19 17  1  0
 19 21  1  0
 19 20  1  6
 21 22  2  0
 21 23  1  0
M  END
$$$$
