LTT.pdb
     RDKit          3D

 23 22  0  0  1  0  0  0  0  0999 V2000
   28.5763  -21.0494  -14.1196 C   0  0  0  0  0  0  0  0  0  0  0  0
   27.6860  -19.8779  -14.5598 C   0  0  2  0  0  0  0  0  0  0  0  0
   28.5778  -18.9328  -15.2942 C   0  0  0  0  0  0  0  0  0  0  0  0
   27.0718  -19.3296  -13.3075 C   0  0  0  0  0  0  0  0  0  0  0  0
   26.2476  -20.3746  -12.6184 C   0  0  2  0  0  0  0  0  0  0  0  0
   25.0462  -20.6010  -13.3907 N   0  0  0  0  0  0  0  0  0  0  0  0
   25.9039  -19.8716  -11.2437 C   0  0  0  0  0  0  0  0  0  0  0  0
   25.2802  -18.7876  -11.1091 O   0  0  0  0  0  0  0  0  0  0  0  0
   23.5534  -20.6972   -9.2945 C   0  0  0  0  0  0  0  0  0  0  0  0
   24.7004  -20.9088   -8.3100 C   0  0  1  0  0  0  0  0  0  0  0  0
   25.0607  -22.2417   -8.2780 O   0  0  0  0  0  0  0  0  0  0  0  0
   25.8621  -20.0546   -8.7783 C   0  0  2  0  0  0  0  0  0  0  0  0
   26.2601  -20.5816  -10.0675 N   0  0  0  0  0  0  0  0  0  0  0  0
   27.0240  -20.1978   -7.8711 C   0  0  0  0  0  0  0  0  0  0  0  0
   28.0339  -20.9002   -8.1569 O   0  0  0  0  0  0  0  0  0  0  0  0
   29.8861  -18.5293   -6.8365 C   0  0  0  0  0  0  0  0  0  0  0  0
   28.9599  -18.5536   -5.6634 C   0  0  1  0  0  0  0  0  0  0  0  0
   28.1537  -17.4175   -5.7107 O   0  0  0  0  0  0  0  0  0  0  0  0
   28.0654  -19.7715   -5.6391 C   0  0  2  0  0  0  0  0  0  0  0  0
   27.0199  -19.5315   -6.6373 N   0  0  0  0  0  0  0  0  0  0  0  0
   27.4621  -20.0194   -4.3316 C   0  0  0  0  0  0  0  0  0  0  0  0
   28.1892  -20.2339   -3.3322 O   0  0  0  0  0  0  0  0  0  0  0  0
   26.0911  -20.0281   -4.1425 O   0  0  0  0  0  0  0  0  0  0  0  0
  2  1  1  1
  3  2  1  0
  4  2  1  0
  5  6  1  6
  5  4  1  0
  7  5  1  0
  8  7  2  0
 10  9  1  6
 10 12  1  0
 11 10  1  0
 12 14  1  0
 12 13  1  6
 13  7  1  0
 14 20  1  0
 15 14  2  0
 17 18  1  0
 17 16  1  6
 19 17  1  0
 19 21  1  0
 19 20  1  6
 21 22  2  0
 21 23  1  0
M  END
$$$$
