LTT.pdb
     RDKit          3D

 23 22  0  0  1  0  0  0  0  0999 V2000
   23.7145  -13.9836  -14.6482 C   0  0  0  0  0  0  0  0  0  0  0  0
   23.6242  -13.9868  -16.1814 C   0  0  2  0  0  0  0  0  0  0  0  0
   24.9985  -14.2930  -16.6768 C   0  0  0  0  0  0  0  0  0  0  0  0
   23.0939  -12.6398  -16.5690 C   0  0  0  0  0  0  0  0  0  0  0  0
   21.6851  -12.4650  -16.0884 C   0  0  2  0  0  0  0  0  0  0  0  0
   20.8323  -13.3844  -16.8084 N   0  0  0  0  0  0  0  0  0  0  0  0
   21.2707  -11.0441  -16.3528 C   0  0  0  0  0  0  0  0  0  0  0  0
   21.2541  -10.6032  -17.5308 O   0  0  0  0  0  0  0  0  0  0  0  0
   18.1931   -9.5594  -16.1080 C   0  0  0  0  0  0  0  0  0  0  0  0
   19.0393   -8.6806  -15.1908 C   0  0  1  0  0  0  0  0  0  0  0  0
   18.9028   -9.0911  -13.8792 O   0  0  0  0  0  0  0  0  0  0  0  0
   20.4806   -8.8114  -15.6421 C   0  0  2  0  0  0  0  0  0  0  0  0
   20.8897  -10.1606  -15.3093 N   0  0  0  0  0  0  0  0  0  0  0  0
   21.3584   -7.8902  -14.8844 C   0  0  0  0  0  0  0  0  0  0  0  0
   21.9791   -8.2383  -13.8411 O   0  0  0  0  0  0  0  0  0  0  0  0
   23.9634   -5.5562  -16.5754 C   0  0  0  0  0  0  0  0  0  0  0  0
   23.0464   -4.7791  -15.6867 C   0  0  1  0  0  0  0  0  0  0  0  0
   22.0457   -4.2086  -16.4715 O   0  0  0  0  0  0  0  0  0  0  0  0
   22.3908   -5.6288  -14.6226 C   0  0  2  0  0  0  0  0  0  0  0  0
   21.5192   -6.5705  -15.3303 N   0  0  0  0  0  0  0  0  0  0  0  0
   21.6123   -4.8515  -13.6610 C   0  0  0  0  0  0  0  0  0  0  0  0
   20.3621   -4.9507  -13.6350 O   0  0  0  0  0  0  0  0  0  0  0  0
   22.2073   -3.9900  -12.7560 O   0  0  0  0  0  0  0  0  0  0  0  0
  2  1  1  1
  3  2  1  0
  4  2  1  0
  5  6  1  6
  5  4  1  0
  7  5  1  0
  8  7  2  0
 10  9  1  6
 10 12  1  0
 11 10  1  0
 12 14  1  0
 12 13  1  1
 13  7  1  0
 14 20  1  0
 15 14  2  0
 17 18  1  0
 17 16  1  6
 19 17  1  0
 19 21  1  0
 19 20  1  6
 21 22  2  0
 21 23  1  0
M  END
$$$$
