LTT.pdb
     RDKit          3D

 23 22  0  0  1  0  0  0  0  0999 V2000
   24.5276  -16.7745  -16.3326 C   0  0  0  0  0  0  0  0  0  0  0  0
   25.8559  -16.0780  -16.0022 C   0  0  2  0  0  0  0  0  0  0  0  0
   26.3071  -16.6438  -14.6968 C   0  0  0  0  0  0  0  0  0  0  0  0
   25.5627  -14.6083  -15.9910 C   0  0  0  0  0  0  0  0  0  0  0  0
   25.0174  -14.1652  -17.3149 C   0  0  2  0  0  0  0  0  0  0  0  0
   25.9829  -14.4827  -18.3435 N   0  0  0  0  0  0  0  0  0  0  0  0
   24.7809  -12.6816  -17.2534 C   0  0  0  0  0  0  0  0  0  0  0  0
   25.6582  -11.9253  -16.7630 O   0  0  0  0  0  0  0  0  0  0  0  0
   24.6527  -10.5235  -19.8777 C   0  0  0  0  0  0  0  0  0  0  0  0
   23.3252  -10.2267  -19.1854 C   0  0  1  0  0  0  0  0  0  0  0  0
   22.3038  -10.9306  -19.7923 O   0  0  0  0  0  0  0  0  0  0  0  0
   23.4688  -10.6418  -17.7344 C   0  0  2  0  0  0  0  0  0  0  0  0
   23.5860  -12.0856  -17.7346 N   0  0  0  0  0  0  0  0  0  0  0  0
   22.2502  -10.3033  -16.9638 C   0  0  0  0  0  0  0  0  0  0  0  0
   21.2202  -11.0341  -16.9549 O   0  0  0  0  0  0  0  0  0  0  0  0
   22.0613   -9.7401  -13.3261 C   0  0  0  0  0  0  0  0  0  0  0  0
   21.5581   -8.5065  -14.0037 C   0  0  1  0  0  0  0  0  0  0  0  0
   22.6007   -7.5844  -14.0786 O   0  0  0  0  0  0  0  0  0  0  0  0
   21.0489   -8.7641  -15.4031 C   0  0  2  0  0  0  0  0  0  0  0  0
   22.2210   -9.1243  -16.2053 N   0  0  0  0  0  0  0  0  0  0  0  0
   20.3731   -7.6110  -15.9935 C   0  0  0  0  0  0  0  0  0  0  0  0
   20.8747   -7.0244  -16.9823 O   0  0  0  0  0  0  0  0  0  0  0  0
   19.1752   -7.1258  -15.4984 O   0  0  0  0  0  0  0  0  0  0  0  0
  2  1  1  1
  3  2  1  0
  4  2  1  0
  5  6  1  6
  5  4  1  0
  7  5  1  0
  8  7  2  0
 10  9  1  6
 10 12  1  0
 11 10  1  0
 12 14  1  0
 12 13  1  6
 13  7  1  0
 14 20  1  0
 15 14  2  0
 17 18  1  0
 17 16  1  6
 19 17  1  0
 19 21  1  0
 19 20  1  6
 21 22  2  0
 21 23  1  0
M  END
$$$$
