LTT.pdb
     RDKit          3D

 23 22  0  0  1  0  0  0  0  0999 V2000
   22.2339  -13.5021  -19.1227 C   0  0  0  0  0  0  0  0  0  0  0  0
   20.7522  -13.2865  -18.7810 C   0  0  2  0  0  0  0  0  0  0  0  0
   19.9757  -13.9014  -19.8977 C   0  0  0  0  0  0  0  0  0  0  0  0
   20.5737  -11.8070  -18.6216 C   0  0  0  0  0  0  0  0  0  0  0  0
   21.3817  -11.2957  -17.4675 C   0  0  2  0  0  0  0  0  0  0  0  0
   21.1272  -12.1332  -16.3164 N   0  0  0  0  0  0  0  0  0  0  0  0
   20.9630   -9.8783  -17.1914 C   0  0  0  0  0  0  0  0  0  0  0  0
   20.9553   -9.0327  -18.1226 O   0  0  0  0  0  0  0  0  0  0  0  0
   17.7565   -8.7828  -15.6886 C   0  0  0  0  0  0  0  0  0  0  0  0
   18.8700   -8.1630  -14.8486 C   0  0  1  0  0  0  0  0  0  0  0  0
   19.1148   -8.9407  -13.7339 O   0  0  0  0  0  0  0  0  0  0  0  0
   20.1056   -8.0829  -15.7233 C   0  0  2  0  0  0  0  0  0  0  0  0
   20.5680   -9.4443  -15.8990 N   0  0  0  0  0  0  0  0  0  0  0  0
   21.1896   -7.3387  -15.0417 C   0  0  0  0  0  0  0  0  0  0  0  0
   22.0644   -7.9039  -14.3274 O   0  0  0  0  0  0  0  0  0  0  0  0
   21.7721   -3.2588  -16.0770 C   0  0  0  0  0  0  0  0  0  0  0  0
   22.8305   -4.2040  -15.6074 C   0  0  1  0  0  0  0  0  0  0  0  0
   23.8786   -3.4627  -15.0645 O   0  0  0  0  0  0  0  0  0  0  0  0
   22.3376   -5.1719  -14.5566 C   0  0  2  0  0  0  0  0  0  0  0  0
   21.2634   -5.9457  -15.1846 N   0  0  0  0  0  0  0  0  0  0  0  0
   21.8410   -4.5125  -13.3511 C   0  0  0  0  0  0  0  0  0  0  0  0
   20.6229   -4.5703  -13.0570 O   0  0  0  0  0  0  0  0  0  0  0  0
   22.6749   -3.8100  -12.4987 O   0  0  0  0  0  0  0  0  0  0  0  0
  2  1  1  6
  3  2  1  0
  4  2  1  0
  5  6  1  1
  5  4  1  0
  7  5  1  0
  8  7  2  0
 10  9  1  6
 10 12  1  0
 11 10  1  0
 12 14  1  0
 12 13  1  1
 13  7  1  0
 14 20  1  0
 15 14  2  0
 17 18  1  0
 17 16  1  1
 19 17  1  0
 19 21  1  0
 19 20  1  6
 21 22  2  0
 21 23  1  0
M  END
$$$$
