LTT.pdb
     RDKit          3D

 23 22  0  0  1  0  0  0  0  0999 V2000
   24.6370  -12.6283  -17.5026 C   0  0  0  0  0  0  0  0  0  0  0  0
   23.6435  -11.9172  -16.5720 C   0  0  2  0  0  0  0  0  0  0  0  0
   24.2059  -12.0388  -15.1948 C   0  0  0  0  0  0  0  0  0  0  0  0
   22.3221  -12.5925  -16.7812 C   0  0  0  0  0  0  0  0  0  0  0  0
   21.2781  -12.0084  -15.8782 C   0  0  2  0  0  0  0  0  0  0  0  0
   20.0467  -12.7453  -16.0560 N   0  0  0  0  0  0  0  0  0  0  0  0
   21.0874  -10.5646  -16.2520 C   0  0  0  0  0  0  0  0  0  0  0  0
   21.1834  -10.2090  -17.4547 O   0  0  0  0  0  0  0  0  0  0  0  0
   18.2774   -8.8900  -16.4751 C   0  0  0  0  0  0  0  0  0  0  0  0
   19.0329   -7.9939  -15.4975 C   0  0  1  0  0  0  0  0  0  0  0  0
   18.6941   -8.3152  -14.1978 O   0  0  0  0  0  0  0  0  0  0  0  0
   20.5142   -8.2163  -15.7318 C   0  0  2  0  0  0  0  0  0  0  0  0
   20.7979   -9.5652  -15.2866 N   0  0  0  0  0  0  0  0  0  0  0  0
   21.3256   -7.3016  -14.8962 C   0  0  0  0  0  0  0  0  0  0  0  0
   21.8011   -7.6379  -13.7756 O   0  0  0  0  0  0  0  0  0  0  0  0
   24.2528   -5.1648  -16.3159 C   0  0  0  0  0  0  0  0  0  0  0  0
   23.2485   -4.3153  -15.6059 C   0  0  1  0  0  0  0  0  0  0  0  0
   22.3761   -3.7764  -16.5500 O   0  0  0  0  0  0  0  0  0  0  0  0
   22.4350   -5.0827  -14.5894 C   0  0  2  0  0  0  0  0  0  0  0  0
   21.5874   -6.0021  -15.3533 N   0  0  0  0  0  0  0  0  0  0  0  0
   21.6082   -4.2245  -13.7440 C   0  0  0  0  0  0  0  0  0  0  0  0
   20.3574   -4.2814  -13.8200 O   0  0  0  0  0  0  0  0  0  0  0  0
   22.1570   -3.3302  -12.8416 O   0  0  0  0  0  0  0  0  0  0  0  0
  2  1  1  6
  3  2  1  0
  4  2  1  0
  5  6  1  6
  5  4  1  0
  7  5  1  0
  8  7  2  0
 10  9  1  6
 10 12  1  0
 11 10  1  0
 12 14  1  0
 12 13  1  1
 13  7  1  0
 14 20  1  0
 15 14  2  0
 17 18  1  0
 17 16  1  6
 19 17  1  0
 19 21  1  0
 19 20  1  6
 21 22  2  0
 21 23  1  0
M  END
$$$$
