LTT.pdb
     RDKit          3D

 23 22  0  0  1  0  0  0  0  0999 V2000
   26.8780  -18.8708   -6.6178 C   0  0  0  0  0  0  0  0  0  0  0  0
   27.2945  -20.2763   -7.0756 C   0  0  2  0  0  0  0  0  0  0  0  0
   28.6849  -20.4809   -6.5727 C   0  0  0  0  0  0  0  0  0  0  0  0
   27.1498  -20.2872   -8.5673 C   0  0  0  0  0  0  0  0  0  0  0  0
   25.7231  -20.0564   -8.9643 C   0  0  2  0  0  0  0  0  0  0  0  0
   24.9259  -21.1681   -8.4955 N   0  0  0  0  0  0  0  0  0  0  0  0
   25.6619  -19.9587  -10.4634 C   0  0  0  0  0  0  0  0  0  0  0  0
   26.4680  -19.2137  -11.0779 O   0  0  0  0  0  0  0  0  0  0  0  0
   26.3116  -22.1421  -13.0970 C   0  0  0  0  0  0  0  0  0  0  0  0
   24.8546  -21.7587  -13.3419 C   0  0  1  0  0  0  0  0  0  0  0  0
   24.0146  -22.7284  -12.8308 O   0  0  0  0  0  0  0  0  0  0  0  0
   24.6144  -20.4297  -12.6531 C   0  0  2  0  0  0  0  0  0  0  0  0
   24.7145  -20.6853  -11.2308 N   0  0  0  0  0  0  0  0  0  0  0  0
   23.2412  -19.9394  -12.9125 C   0  0  0  0  0  0  0  0  0  0  0  0
   22.3238  -19.9809  -12.0455 O   0  0  0  0  0  0  0  0  0  0  0  0
   22.2664  -18.6534  -16.8653 C   0  0  0  0  0  0  0  0  0  0  0  0
   21.7563  -17.9508  -15.6485 C   0  0  1  0  0  0  0  0  0  0  0  0
   20.5136  -17.3939  -15.9457 O   0  0  0  0  0  0  0  0  0  0  0  0
   21.5947  -18.8678  -14.4581 C   0  0  2  0  0  0  0  0  0  0  0  0
   22.9282  -19.4024  -14.1694 N   0  0  0  0  0  0  0  0  0  0  0  0
   20.6567  -19.9626  -14.6952 C   0  0  0  0  0  0  0  0  0  0  0  0
   21.0548  -21.0326  -15.2149 O   0  0  0  0  0  0  0  0  0  0  0  0
   19.3162  -19.8693  -14.3637 O   0  0  0  0  0  0  0  0  0  0  0  0
  2  1  1  6
  3  2  1  0
  4  2  1  0
  5  6  1  6
  5  4  1  0
  7  5  1  0
  8  7  2  0
 10  9  1  1
 10 12  1  0
 11 10  1  0
 12 14  1  0
 12 13  1  1
 13  7  1  0
 14 20  1  0
 15 14  2  0
 17 18  1  0
 17 16  1  6
 19 17  1  0
 19 21  1  0
 19 20  1  6
 21 22  2  0
 21 23  1  0
M  END
$$$$
