LTT.pdb
     RDKit          3D

 23 22  0  0  1  0  0  0  0  0999 V2000
   24.3636  -12.8074  -14.8243 C   0  0  0  0  0  0  0  0  0  0  0  0
   23.9726  -12.8212  -16.3094 C   0  0  2  0  0  0  0  0  0  0  0  0
   25.2492  -12.9444  -17.0730 C   0  0  0  0  0  0  0  0  0  0  0  0
   23.2077  -11.5550  -16.5494 C   0  0  0  0  0  0  0  0  0  0  0  0
   21.9244  -11.5546  -15.7752 C   0  0  2  0  0  0  0  0  0  0  0  0
   21.0386  -12.5451  -16.3457 N   0  0  0  0  0  0  0  0  0  0  0  0
   21.3157  -10.1834  -15.8740 C   0  0  0  0  0  0  0  0  0  0  0  0
   21.0653   -9.6869  -17.0023 O   0  0  0  0  0  0  0  0  0  0  0  0
   18.1027   -9.1789  -14.8217 C   0  0  0  0  0  0  0  0  0  0  0  0
   19.0467   -8.2360  -14.0804 C   0  0  1  0  0  0  0  0  0  0  0  0
   19.3119   -8.7245  -12.8162 O   0  0  0  0  0  0  0  0  0  0  0  0
   20.3230   -8.1422  -14.8932 C   0  0  2  0  0  0  0  0  0  0  0  0
   21.0053   -9.4089  -14.7258 N   0  0  0  0  0  0  0  0  0  0  0  0
   21.2170   -7.0909  -14.3557 C   0  0  0  0  0  0  0  0  0  0  0  0
   22.0143   -7.2938  -13.3975 O   0  0  0  0  0  0  0  0  0  0  0  0
   23.8302   -5.3046  -16.2082 C   0  0  0  0  0  0  0  0  0  0  0  0
   22.8547   -4.2931  -15.6987 C   0  0  1  0  0  0  0  0  0  0  0  0
   21.9271   -4.0252  -16.7040 O   0  0  0  0  0  0  0  0  0  0  0  0
   22.1056   -4.7574  -14.4710 C   0  0  2  0  0  0  0  0  0  0  0  0
   21.1907   -5.8089  -14.9232 N   0  0  0  0  0  0  0  0  0  0  0  0
   21.3556   -3.6897  -13.8135 C   0  0  0  0  0  0  0  0  0  0  0  0
   20.1025   -3.6737  -13.8677 O   0  0  0  0  0  0  0  0  0  0  0  0
   21.9815   -2.6707  -13.1169 O   0  0  0  0  0  0  0  0  0  0  0  0
  2  1  1  1
  3  2  1  0
  4  2  1  0
  5  6  1  6
  5  4  1  0
  7  5  1  0
  8  7  2  0
 10  9  1  6
 10 12  1  0
 11 10  1  0
 12 14  1  0
 12 13  1  1
 13  7  1  0
 14 20  1  0
 15 14  2  0
 17 18  1  0
 17 16  1  6
 19 17  1  0
 19 21  1  0
 19 20  1  6
 21 22  2  0
 21 23  1  0
M  END
$$$$
