LTT.pdb
     RDKit          3D

 23 22  0  0  1  0  0  0  0  0999 V2000
   22.0528  -21.4789  -11.2056 C   0  0  0  0  0  0  0  0  0  0  0  0
   22.3442  -20.6075   -9.9750 C   0  0  2  0  0  0  0  0  0  0  0  0
   21.1098  -19.8034   -9.7348 C   0  0  0  0  0  0  0  0  0  0  0  0
   23.5675  -19.8096  -10.3112 C   0  0  0  0  0  0  0  0  0  0  0  0
   24.7208  -20.7131  -10.6273 C   0  0  2  0  0  0  0  0  0  0  0  0
   25.4091  -21.0339   -9.3967 N   0  0  0  0  0  0  0  0  0  0  0  0
   25.6397  -19.9899  -11.5724 C   0  0  0  0  0  0  0  0  0  0  0  0
   26.4051  -19.0904  -11.1395 O   0  0  0  0  0  0  0  0  0  0  0  0
   28.1932  -21.3735  -13.6589 C   0  0  0  0  0  0  0  0  0  0  0  0
   27.3446  -20.5570  -14.6300 C   0  0  1  0  0  0  0  0  0  0  0  0
   26.4723  -21.3832  -15.3109 O   0  0  0  0  0  0  0  0  0  0  0  0
   26.5803  -19.5337  -13.8132 C   0  0  2  0  0  0  0  0  0  0  0  0
   25.6815  -20.2840  -12.9603 N   0  0  0  0  0  0  0  0  0  0  0  0
   25.7423  -18.6791  -14.6852 C   0  0  0  0  0  0  0  0  0  0  0  0
   24.4859  -18.7900  -14.7500 O   0  0  0  0  0  0  0  0  0  0  0  0
   25.7712  -14.8177  -14.9784 C   0  0  0  0  0  0  0  0  0  0  0  0
   26.1177  -15.4683  -16.2788 C   0  0  1  0  0  0  0  0  0  0  0  0
   27.5059  -15.5255  -16.3906 O   0  0  0  0  0  0  0  0  0  0  0  0
   25.5717  -16.8720  -16.4038 C   0  0  2  0  0  0  0  0  0  0  0  0
   26.3531  -17.6988  -15.4803 N   0  0  0  0  0  0  0  0  0  0  0  0
   25.6653  -17.4099  -17.7591 C   0  0  0  0  0  0  0  0  0  0  0  0
   26.4202  -18.3820  -18.0010 O   0  0  0  0  0  0  0  0  0  0  0  0
   24.9405  -16.8816  -18.8132 O   0  0  0  0  0  0  0  0  0  0  0  0
  2  1  1  6
  3  2  1  0
  4  2  1  0
  5  6  1  1
  5  4  1  0
  7  5  1  0
  8  7  2  0
 10  9  1  1
 10 12  1  0
 11 10  1  0
 12 14  1  0
 12 13  1  1
 13  7  1  0
 14 20  1  0
 15 14  2  0
 17 18  1  0
 17 16  1  1
 19 17  1  0
 19 21  1  0
 19 20  1  1
 21 22  2  0
 21 23  1  0
M  END
$$$$
