LTT.pdb
     RDKit          3D

 23 22  0  0  1  0  0  0  0  0999 V2000
   15.1269  -14.3031  -10.7499 C   0  0  0  0  0  0  0  0  0  0  0  0
   15.4208  -15.1178  -12.0182 C   0  0  2  0  0  0  0  0  0  0  0  0
   16.2179  -16.2998  -11.5761 C   0  0  0  0  0  0  0  0  0  0  0  0
   16.1298  -14.1871  -12.9547 C   0  0  0  0  0  0  0  0  0  0  0  0
   15.2207  -13.0782  -13.3911 C   0  0  2  0  0  0  0  0  0  0  0  0
   14.0807  -13.6535  -14.0699 N   0  0  0  0  0  0  0  0  0  0  0  0
   15.9883  -12.1783  -14.3193 C   0  0  0  0  0  0  0  0  0  0  0  0
   16.4794  -12.6421  -15.3805 O   0  0  0  0  0  0  0  0  0  0  0  0
   14.7786   -9.8668  -16.4226 C   0  0  0  0  0  0  0  0  0  0  0  0
   15.7226   -9.0343  -15.5592 C   0  0  1  0  0  0  0  0  0  0  0  0
   15.0316   -8.4719  -14.5040 O   0  0  0  0  0  0  0  0  0  0  0  0
   16.8076   -9.9629  -15.0502 C   0  0  2  0  0  0  0  0  0  0  0  0
   16.1869  -10.8002  -14.0443 N   0  0  0  0  0  0  0  0  0  0  0  0
   17.8850   -9.2003  -14.3786 C   0  0  0  0  0  0  0  0  0  0  0  0
   17.9020   -8.9906  -13.1333 O   0  0  0  0  0  0  0  0  0  0  0  0
   22.4220   -7.3258  -14.9029 C   0  0  0  0  0  0  0  0  0  0  0  0
   21.2112   -8.0270  -15.4288 C   0  0  1  0  0  0  0  0  0  0  0  0
   21.5054   -9.3832  -15.5597 O   0  0  0  0  0  0  0  0  0  0  0  0
   20.0061   -7.8861  -14.5277 C   0  0  2  0  0  0  0  0  0  0  0  0
   18.9400   -8.6814  -15.1427 N   0  0  0  0  0  0  0  0  0  0  0  0
   19.5668   -6.5024  -14.3624 C   0  0  0  0  0  0  0  0  0  0  0  0
   18.8417   -5.9629  -15.2322 O   0  0  0  0  0  0  0  0  0  0  0  0
   19.9239   -5.7424  -13.2622 O   0  0  0  0  0  0  0  0  0  0  0  0
  2  1  1  1
  3  2  1  0
  4  2  1  0
  5  6  1  6
  5  4  1  0
  7  5  1  0
  8  7  2  0
 10  9  1  6
 10 12  1  0
 11 10  1  0
 12 14  1  0
 12 13  1  1
 13  7  1  0
 14 20  1  0
 15 14  2  0
 17 18  1  0
 17 16  1  1
 19 17  1  0
 19 21  1  0
 19 20  1  6
 21 22  2  0
 21 23  1  0
M  END
$$$$
