LTT.pdb
     RDKit          3D

 23 22  0  0  1  0  0  0  0  0999 V2000
   19.4063  -14.6758  -17.2261 C   0  0  0  0  0  0  0  0  0  0  0  0
   18.1910  -13.7574  -17.4213 C   0  0  2  0  0  0  0  0  0  0  0  0
   17.6101  -14.1152  -18.7488 C   0  0  0  0  0  0  0  0  0  0  0  0
   18.7080  -12.3551  -17.3105 C   0  0  0  0  0  0  0  0  0  0  0  0
   18.7553  -11.9180  -15.8776 C   0  0  2  0  0  0  0  0  0  0  0  0
   17.5448  -12.3564  -15.2191 N   0  0  0  0  0  0  0  0  0  0  0  0
   18.8591  -10.4184  -15.8464 C   0  0  0  0  0  0  0  0  0  0  0  0
   18.9453   -9.7720  -16.9221 O   0  0  0  0  0  0  0  0  0  0  0  0
   16.3311   -8.2879  -14.5489 C   0  0  0  0  0  0  0  0  0  0  0  0
   17.5959   -7.8557  -13.8118 C   0  0  1  0  0  0  0  0  0  0  0  0
   17.6699   -8.4840  -12.5842 O   0  0  0  0  0  0  0  0  0  0  0  0
   18.7787   -8.2404  -14.6787 C   0  0  2  0  0  0  0  0  0  0  0  0
   18.8644   -9.6856  -14.6309 N   0  0  0  0  0  0  0  0  0  0  0  0
   20.0419   -7.7098  -14.1165 C   0  0  0  0  0  0  0  0  0  0  0  0
   20.6681   -8.2805  -13.1800 O   0  0  0  0  0  0  0  0  0  0  0  0
   23.2780   -7.2813  -15.6292 C   0  0  0  0  0  0  0  0  0  0  0  0
   22.8053   -5.9202  -15.2314 C   0  0  1  0  0  0  0  0  0  0  0  0
   22.1931   -5.3235  -16.3323 O   0  0  0  0  0  0  0  0  0  0  0  0
   21.8135   -5.9464  -14.0913 C   0  0  2  0  0  0  0  0  0  0  0  0
   20.5808   -6.5233  -14.6345 N   0  0  0  0  0  0  0  0  0  0  0  0
   21.5430   -4.6248  -13.5301 C   0  0  0  0  0  0  0  0  0  0  0  0
   20.4368   -4.0686  -13.7314 O   0  0  0  0  0  0  0  0  0  0  0  0
   22.4756   -3.9430  -12.7680 O   0  0  0  0  0  0  0  0  0  0  0  0
  2  1  1  6
  3  2  1  0
  4  2  1  0
  5  6  1  1
  5  4  1  0
  7  5  1  0
  8  7  2  0
 10  9  1  6
 10 12  1  0
 11 10  1  0
 12 14  1  0
 12 13  1  1
 13  7  1  0
 14 20  1  0
 15 14  2  0
 17 18  1  0
 17 16  1  6
 19 17  1  0
 19 21  1  0
 19 20  1  6
 21 22  2  0
 21 23  1  0
M  END
$$$$
