LTT.pdb
     RDKit          3D

 23 22  0  0  1  0  0  0  0  0999 V2000
   18.6424  -13.7189  -19.4191 C   0  0  0  0  0  0  0  0  0  0  0  0
   18.0111  -14.2869  -18.1395 C   0  0  2  0  0  0  0  0  0  0  0  0
   16.6373  -14.7318  -18.5172 C   0  0  0  0  0  0  0  0  0  0  0  0
   18.0662  -13.1854  -17.1248 C   0  0  0  0  0  0  0  0  0  0  0  0
   19.4853  -12.7961  -16.8398 C   0  0  2  0  0  0  0  0  0  0  0  0
   20.1535  -13.9110  -16.2062 N   0  0  0  0  0  0  0  0  0  0  0  0
   19.4711  -11.6017  -15.9266 C   0  0  0  0  0  0  0  0  0  0  0  0
   18.7356  -11.5997  -14.9061 O   0  0  0  0  0  0  0  0  0  0  0  0
   22.6713   -9.2977  -15.6221 C   0  0  0  0  0  0  0  0  0  0  0  0
   21.6098   -9.3896  -14.5292 C   0  0  1  0  0  0  0  0  0  0  0  0
   21.7303   -8.3250  -13.6577 O   0  0  0  0  0  0  0  0  0  0  0  0
   20.2557   -9.3688  -15.2106 C   0  0  2  0  0  0  0  0  0  0  0  0
   20.2678  -10.4528  -16.1714 N   0  0  0  0  0  0  0  0  0  0  0  0
   20.0654   -8.1131  -15.9723 C   0  0  0  0  0  0  0  0  0  0  0  0
   20.6920   -7.8568  -17.0384 O   0  0  0  0  0  0  0  0  0  0  0  0
   16.7234   -6.7676  -17.1451 C   0  0  0  0  0  0  0  0  0  0  0  0
   17.4033   -5.7468  -16.2907 C   0  0  1  0  0  0  0  0  0  0  0  0
   16.9094   -5.8550  -14.9917 O   0  0  0  0  0  0  0  0  0  0  0  0
   18.9044   -5.9162  -16.2449 C   0  0  2  0  0  0  0  0  0  0  0  0
   19.1539   -7.1558  -15.5043 N   0  0  0  0  0  0  0  0  0  0  0  0
   19.5925   -4.8003  -15.6000 C   0  0  0  0  0  0  0  0  0  0  0  0
   20.1915   -4.9732  -14.5115 O   0  0  0  0  0  0  0  0  0  0  0  0
   19.6133   -3.5304  -16.1500 O   0  0  0  0  0  0  0  0  0  0  0  0
  2  1  1  6
  3  2  1  0
  4  2  1  0
  5  6  1  1
  5  4  1  0
  7  5  1  0
  8  7  2  0
 10  9  1  6
 10 12  1  0
 11 10  1  0
 12 14  1  0
 12 13  1  6
 13  7  1  0
 14 20  1  0
 15 14  2  0
 17 18  1  0
 17 16  1  6
 19 17  1  0
 19 21  1  0
 19 20  1  1
 21 22  2  0
 21 23  1  0
M  END
$$$$
