LTT.pdb
     RDKit          3D

 23 22  0  0  1  0  0  0  0  0999 V2000
   14.9478  -14.4359  -18.7423 C   0  0  0  0  0  0  0  0  0  0  0  0
   14.7426  -14.7750  -17.2585 C   0  0  2  0  0  0  0  0  0  0  0  0
   13.2726  -14.6918  -17.0138 C   0  0  0  0  0  0  0  0  0  0  0  0
   15.5720  -13.7920  -16.4892 C   0  0  0  0  0  0  0  0  0  0  0  0
   17.0203  -13.9190  -16.8533 C   0  0  2  0  0  0  0  0  0  0  0  0
   17.5054  -15.1983  -16.3853 N   0  0  0  0  0  0  0  0  0  0  0  0
   17.7716  -12.7964  -16.1930 C   0  0  0  0  0  0  0  0  0  0  0  0
   17.8434  -12.7410  -14.9383 O   0  0  0  0  0  0  0  0  0  0  0  0
   21.0625  -12.4436  -16.0907 C   0  0  0  0  0  0  0  0  0  0  0  0
   20.6705  -11.0868  -16.6696 C   0  0  1  0  0  0  0  0  0  0  0  0
   20.7708  -11.1098  -18.0468 O   0  0  0  0  0  0  0  0  0  0  0  0
   19.2419  -10.8092  -16.2447 C   0  0  2  0  0  0  0  0  0  0  0  0
   18.4163  -11.7757  -16.9392 N   0  0  0  0  0  0  0  0  0  0  0  0
   18.8086   -9.4650  -16.6906 C   0  0  0  0  0  0  0  0  0  0  0  0
   18.6276   -9.1716  -17.9055 O   0  0  0  0  0  0  0  0  0  0  0  0
   15.7391   -7.7329  -16.0185 C   0  0  0  0  0  0  0  0  0  0  0  0
   16.8314   -6.8744  -15.4671 C   0  0  1  0  0  0  0  0  0  0  0  0
   16.9634   -7.1437  -14.1059 O   0  0  0  0  0  0  0  0  0  0  0  0
   18.1673   -7.1145  -16.1317 C   0  0  2  0  0  0  0  0  0  0  0  0
   18.5848   -8.4623  -15.7362 N   0  0  0  0  0  0  0  0  0  0  0  0
   19.1872   -6.1414  -15.7473 C   0  0  0  0  0  0  0  0  0  0  0  0
   20.1621   -6.4951  -15.0417 O   0  0  0  0  0  0  0  0  0  0  0  0
   19.1237   -4.8148  -16.1367 O   0  0  0  0  0  0  0  0  0  0  0  0
  2  1  1  6
  3  2  1  0
  4  2  1  0
  5  6  1  1
  5  4  1  0
  7  5  1  0
  8  7  2  0
 10  9  1  1
 10 12  1  0
 11 10  1  0
 12 14  1  0
 12 13  1  6
 13  7  1  0
 14 20  1  0
 15 14  2  0
 17 18  1  0
 17 16  1  6
 19 17  1  0
 19 21  1  0
 19 20  1  1
 21 22  2  0
 21 23  1  0
M  END
$$$$
