LTT.pdb
     RDKit          3D

 23 22  0  0  1  0  0  0  0  0999 V2000
   25.0663  -20.1550   -9.3428 C   0  0  0  0  0  0  0  0  0  0  0  0
   24.8188  -21.4561  -10.1203 C   0  0  2  0  0  0  0  0  0  0  0  0
   25.8217  -22.4388   -9.6138 C   0  0  0  0  0  0  0  0  0  0  0  0
   24.9500  -21.1043  -11.5712 C   0  0  0  0  0  0  0  0  0  0  0  0
   23.9093  -20.1026  -11.9712 C   0  0  2  0  0  0  0  0  0  0  0  0
   22.6024  -20.6569  -11.6956 N   0  0  0  0  0  0  0  0  0  0  0  0
   24.0648  -19.8239  -13.4405 C   0  0  0  0  0  0  0  0  0  0  0  0
   25.2029  -19.8789  -13.9734 O   0  0  0  0  0  0  0  0  0  0  0  0
   21.9048  -21.3987  -16.0850 C   0  0  0  0  0  0  0  0  0  0  0  0
   21.9365  -19.8996  -16.3703 C   0  0  1  0  0  0  0  0  0  0  0  0
   20.7955  -19.2970  -15.8780 O   0  0  0  0  0  0  0  0  0  0  0  0
   23.1704  -19.3360  -15.6934 C   0  0  2  0  0  0  0  0  0  0  0  0
   22.9605  -19.4945  -14.2690 N   0  0  0  0  0  0  0  0  0  0  0  0
   23.3020  -17.8845  -15.9561 C   0  0  0  0  0  0  0  0  0  0  0  0
   22.5290  -17.0238  -15.4495 O   0  0  0  0  0  0  0  0  0  0  0  0
   26.1155  -15.6397  -15.2528 C   0  0  0  0  0  0  0  0  0  0  0  0
   25.8879  -15.6346  -16.7301 C   0  0  1  0  0  0  0  0  0  0  0  0
   26.7563  -16.5538  -17.3163 O   0  0  0  0  0  0  0  0  0  0  0  0
   24.4736  -16.0042  -17.1137 C   0  0  2  0  0  0  0  0  0  0  0  0
   24.3235  -17.4279  -16.8012 N   0  0  0  0  0  0  0  0  0  0  0  0
   24.1768  -15.7671  -18.5246 C   0  0  0  0  0  0  0  0  0  0  0  0
   23.8637  -16.7243  -19.2725 O   0  0  0  0  0  0  0  0  0  0  0  0
   24.2270  -14.5031  -19.0859 O   0  0  0  0  0  0  0  0  0  0  0  0
  2  1  1  1
  3  2  1  0
  4  2  1  0
  5  6  1  6
  5  4  1  0
  7  5  1  0
  8  7  2  0
 10  9  1  1
 10 12  1  0
 11 10  1  0
 12 14  1  0
 12 13  1  1
 13  7  1  0
 14 20  1  0
 15 14  2  0
 17 18  1  0
 17 16  1  1
 19 17  1  0
 19 21  1  0
 19 20  1  6
 21 22  2  0
 21 23  1  0
M  END
$$$$
