KCS.pdb
     RDKit          3D

 22 21  0  0  1  0  0  0  0  0999 V2000
   19.3188  -13.9843  -16.5293 N   0  0  0  0  0  0  0  0  0  0  0  0
   19.4832  -12.7456  -17.2867 C   0  0  1  0  0  0  0  0  0  0  0  0
   18.2047  -12.4598  -17.9752 C   0  0  0  0  0  0  0  0  0  0  0  0
   18.0427  -13.0901  -19.2959 C   0  0  0  0  0  0  0  0  0  0  0  0
   18.0399  -14.5352  -19.5039 C   0  0  0  0  0  0  0  0  0  0  0  0
   17.7900  -15.1335  -20.8340 C   0  0  0  0  0  0  0  0  0  0  0  0
   17.8905  -16.6293  -20.7319 N   0  0  0  0  0  0  0  0  0  0  0  0
   19.7872  -11.6705  -16.2647 C   0  0  0  0  0  0  0  0  0  0  0  0
   19.2185  -11.6790  -15.1326 O   0  0  0  0  0  0  0  0  0  0  0  0
   20.7018  -10.6585  -16.5684 N   0  0  0  0  0  0  0  0  0  0  0  0
   21.0719   -9.6068  -15.6130 C   0  0  1  0  0  0  0  0  0  0  0  0
   22.5754   -9.6271  -15.4075 C   0  0  0  0  0  0  0  0  0  0  0  0
   22.9583   -9.4890  -13.6535 S   0  0  0  0  0  0  0  0  0  0  0  0
   20.5780   -8.3375  -16.2007 C   0  0  0  0  0  0  0  0  0  0  0  0
   20.8561   -8.0232  -17.4163 O   0  0  0  0  0  0  0  0  0  0  0  0
   17.0619   -6.8059  -16.1581 O   0  0  0  0  0  0  0  0  0  0  0  0
   17.9527   -5.8159  -15.7511 C   0  0  0  0  0  0  0  0  0  0  0  0
   19.3797   -6.1295  -16.1577 C   0  0  2  0  0  0  0  0  0  0  0  0
   19.7818   -7.3781  -15.5211 N   0  0  0  0  0  0  0  0  0  0  0  0
   20.3099   -5.0219  -15.7801 C   0  0  0  0  0  0  0  0  0  0  0  0
   20.1125   -3.7547  -16.3073 O   0  0  0  0  0  0  0  0  0  0  0  0
   21.2628   -5.2018  -15.0021 O   0  0  0  0  0  0  0  0  0  0  0  0
  2  1  1  1
  2  3  1  0
  2  8  1  0
  4  3  1  0
  5  4  1  0
  6  5  1  0
  6  7  1  0
  8  9  2  0
 10  8  1  0
 10 11  1  0
 11 12  1  6
 12 13  1  0
 14 11  1  0
 14 15  2  0
 17 16  1  0
 18 17  1  1
 18 19  1  0
 19 14  1  0
 20 18  1  0
 20 21  1  0
 22 20  2  0
M  END
$$$$
