KCS.pdb
     RDKit          3D

 22 21  0  0  1  0  0  0  0  0999 V2000
   15.6529  -10.3323  -12.4326 N   0  0  0  0  0  0  0  0  0  0  0  0
   16.9075   -9.9656  -13.0856 C   0  0  1  0  0  0  0  0  0  0  0  0
   16.6896  -10.0106  -14.5487 C   0  0  0  0  0  0  0  0  0  0  0  0
   17.2271  -11.1989  -15.2320 C   0  0  0  0  0  0  0  0  0  0  0  0
   16.6244  -12.5252  -15.1354 C   0  0  0  0  0  0  0  0  0  0  0  0
   17.1850  -13.6930  -15.8505 C   0  0  0  0  0  0  0  0  0  0  0  0
   16.4181  -14.9263  -15.4644 N   0  0  0  0  0  0  0  0  0  0  0  0
   17.2114   -8.5513  -12.6379 C   0  0  0  0  0  0  0  0  0  0  0  0
   16.3069   -7.6642  -12.6487 O   0  0  0  0  0  0  0  0  0  0  0  0
   18.4986   -8.2173  -12.2085 N   0  0  0  0  0  0  0  0  0  0  0  0
   18.8446   -6.8888  -11.6881 C   0  0  1  0  0  0  0  0  0  0  0  0
   19.4256   -7.0357  -10.2938 C   0  0  0  0  0  0  0  0  0  0  0  0
   19.1640   -5.5213   -9.3557 S   0  0  0  0  0  0  0  0  0  0  0  0
   19.8013   -6.3112  -12.6635 C   0  0  0  0  0  0  0  0  0  0  0  0
   20.7652   -7.0184  -13.1375 O   0  0  0  0  0  0  0  0  0  0  0  0
   21.1907   -2.5887  -15.5320 O   0  0  0  0  0  0  0  0  0  0  0  0
   20.2404   -3.1965  -14.7154 C   0  0  0  0  0  0  0  0  0  0  0  0
   20.7537   -4.4857  -14.1036 C   0  0  2  0  0  0  0  0  0  0  0  0
   19.7598   -4.9810  -13.1588 N   0  0  0  0  0  0  0  0  0  0  0  0
   22.0699   -4.2807  -13.4250 C   0  0  0  0  0  0  0  0  0  0  0  0
   22.1201   -4.2027  -12.0415 O   0  0  0  0  0  0  0  0  0  0  0  0
   23.1297   -4.1771  -14.0665 O   0  0  0  0  0  0  0  0  0  0  0  0
  2  1  1  1
  2  3  1  0
  2  8  1  0
  4  3  1  0
  5  4  1  0
  6  5  1  0
  6  7  1  0
  8  9  2  0
 10  8  1  0
 10 11  1  0
 11 12  1  1
 12 13  1  0
 14 11  1  0
 14 15  2  0
 17 16  1  0
 18 17  1  1
 18 19  1  0
 19 14  1  0
 20 18  1  0
 20 21  1  0
 22 20  2  0
M  END
$$$$
