KCS.pdb
     RDKit          3D

 22 21  0  0  1  0  0  0  0  0999 V2000
   19.2525  -15.1118  -16.0428 N   0  0  0  0  0  0  0  0  0  0  0  0
   18.7041  -13.9534  -16.7445 C   0  0  1  0  0  0  0  0  0  0  0  0
   17.3980  -13.6255  -16.1308 C   0  0  0  0  0  0  0  0  0  0  0  0
   16.2288  -14.2746  -16.7467 C   0  0  0  0  0  0  0  0  0  0  0  0
   16.2902  -15.5626  -17.4314 C   0  0  0  0  0  0  0  0  0  0  0  0
   15.1215  -16.1271  -18.1421 C   0  0  0  0  0  0  0  0  0  0  0  0
   15.4924  -17.4615  -18.7251 N   0  0  0  0  0  0  0  0  0  0  0  0
   19.6919  -12.8273  -16.5232 C   0  0  0  0  0  0  0  0  0  0  0  0
   20.3036  -12.7149  -15.4194 O   0  0  0  0  0  0  0  0  0  0  0  0
   19.9340  -11.9019  -17.5420 N   0  0  0  0  0  0  0  0  0  0  0  0
   20.9652  -10.8615  -17.4441 C   0  0  1  0  0  0  0  0  0  0  0  0
   21.3590  -10.4173  -18.8408 C   0  0  0  0  0  0  0  0  0  0  0  0
   22.4962   -9.0245  -18.7456 S   0  0  0  0  0  0  0  0  0  0  0  0
   20.3650   -9.7753  -16.6315 C   0  0  0  0  0  0  0  0  0  0  0  0
   19.1476   -9.4070  -16.8219 O   0  0  0  0  0  0  0  0  0  0  0  0
   21.6980   -8.3659  -12.8692 O   0  0  0  0  0  0  0  0  0  0  0  0
   20.4018   -8.3604  -13.3784 C   0  0  0  0  0  0  0  0  0  0  0  0
   20.3686   -8.0018  -14.8517 C   0  0  2  0  0  0  0  0  0  0  0  0
   21.0336   -9.0592  -15.6036 N   0  0  0  0  0  0  0  0  0  0  0  0
   21.0232   -6.6822  -15.1062 C   0  0  0  0  0  0  0  0  0  0  0  0
   22.1041   -6.6117  -15.9719 O   0  0  0  0  0  0  0  0  0  0  0  0
   20.6264   -5.6371  -14.5622 O   0  0  0  0  0  0  0  0  0  0  0  0
  2  1  1  1
  2  3  1  0
  2  8  1  0
  4  3  1  0
  5  4  1  0
  6  5  1  0
  6  7  1  0
  8  9  2  0
 10  8  1  0
 10 11  1  0
 11 12  1  6
 12 13  1  0
 14 11  1  0
 14 15  2  0
 17 16  1  0
 18 17  1  1
 18 19  1  0
 19 14  1  0
 20 18  1  0
 20 21  1  0
 22 20  2  0
M  END
$$$$
