KCS.pdb
     RDKit          3D

 22 21  0  0  1  0  0  0  0  0999 V2000
   28.1651  -21.5282  -16.1301 N   0  0  0  0  0  0  0  0  0  0  0  0
   27.7975  -20.4901  -15.1698 C   0  0  1  0  0  0  0  0  0  0  0  0
   27.1808  -19.3734  -15.9200 C   0  0  0  0  0  0  0  0  0  0  0  0
   28.0884  -18.6336  -16.8128 C   0  0  0  0  0  0  0  0  0  0  0  0
   29.0357  -19.2817  -17.7152 C   0  0  0  0  0  0  0  0  0  0  0  0
   29.8750  -18.5069  -18.6559 C   0  0  0  0  0  0  0  0  0  0  0  0
   29.1151  -17.2950  -19.1162 N   0  0  0  0  0  0  0  0  0  0  0  0
   26.7869  -21.1249  -14.2379 C   0  0  0  0  0  0  0  0  0  0  0  0
   26.0511  -22.0759  -14.6373 O   0  0  0  0  0  0  0  0  0  0  0  0
   26.6612  -20.6614  -12.9255 N   0  0  0  0  0  0  0  0  0  0  0  0
   25.6700  -21.1962  -11.9837 C   0  0  1  0  0  0  0  0  0  0  0  0
   25.9914  -20.6989  -10.5864 C   0  0  0  0  0  0  0  0  0  0  0  0
   24.5890  -20.9850   -9.4939 S   0  0  0  0  0  0  0  0  0  0  0  0
   24.3515  -20.7334  -12.4813 C   0  0  0  0  0  0  0  0  0  0  0  0
   24.1571  -19.4972  -12.7778 O   0  0  0  0  0  0  0  0  0  0  0  0
   22.4863  -21.6191  -15.3908 O   0  0  0  0  0  0  0  0  0  0  0  0
   21.5211  -21.7251  -14.3926 C   0  0  0  0  0  0  0  0  0  0  0  0
   21.9374  -21.0164  -13.1181 C   0  0  2  0  0  0  0  0  0  0  0  0
   23.2155  -21.5625  -12.6777 N   0  0  0  0  0  0  0  0  0  0  0  0
   20.9036  -21.1660  -12.0487 C   0  0  0  0  0  0  0  0  0  0  0  0
   19.6024  -20.7548  -12.2944 O   0  0  0  0  0  0  0  0  0  0  0  0
   21.1753  -21.6513  -10.9368 O   0  0  0  0  0  0  0  0  0  0  0  0
  2  1  1  6
  2  3  1  0
  2  8  1  0
  4  3  1  0
  5  4  1  0
  6  5  1  0
  6  7  1  0
  8  9  2  0
 10  8  1  0
 10 11  1  0
 11 12  1  1
 12 13  1  0
 14 11  1  0
 14 15  2  0
 17 16  1  0
 18 17  1  6
 18 19  1  0
 19 14  1  0
 20 18  1  0
 20 21  1  0
 22 20  2  0
M  END
$$$$
