KCS.pdb
     RDKit          3D

 22 21  0  0  1  0  0  0  0  0999 V2000
   20.5263  -13.8762  -16.6375 N   0  0  0  0  0  0  0  0  0  0  0  0
   19.8762  -12.6048  -16.9473 C   0  0  1  0  0  0  0  0  0  0  0  0
   18.4132  -12.8276  -16.9397 C   0  0  0  0  0  0  0  0  0  0  0  0
   17.9871  -14.2346  -17.0217 C   0  0  0  0  0  0  0  0  0  0  0  0
   16.5920  -14.6480  -17.1425 C   0  0  0  0  0  0  0  0  0  0  0  0
   16.2063  -16.0707  -17.2709 C   0  0  0  0  0  0  0  0  0  0  0  0
   14.7093  -16.1735  -17.3511 N   0  0  0  0  0  0  0  0  0  0  0  0
   20.2737  -11.6535  -15.8383 C   0  0  0  0  0  0  0  0  0  0  0  0
   20.0221  -11.9337  -14.6286 O   0  0  0  0  0  0  0  0  0  0  0  0
   20.9236  -10.4555  -16.1469 N   0  0  0  0  0  0  0  0  0  0  0  0
   21.3279   -9.4827  -15.1243 C   0  0  1  0  0  0  0  0  0  0  0  0
   22.7972   -9.6817  -14.8006 C   0  0  0  0  0  0  0  0  0  0  0  0
   23.1561   -9.0455  -13.1548 S   0  0  0  0  0  0  0  0  0  0  0  0
   21.0302   -8.1479  -15.6987 C   0  0  0  0  0  0  0  0  0  0  0  0
   21.2588   -7.8998  -16.9397 O   0  0  0  0  0  0  0  0  0  0  0  0
   18.5489   -4.0495  -15.7877 O   0  0  0  0  0  0  0  0  0  0  0  0
   18.8374   -5.3080  -15.2659 C   0  0  0  0  0  0  0  0  0  0  0  0
   20.2405   -5.7640  -15.6171 C   0  0  2  0  0  0  0  0  0  0  0  0
   20.4852   -7.0519  -14.9789 N   0  0  0  0  0  0  0  0  0  0  0  0
   21.2627   -4.7608  -15.1890 C   0  0  0  0  0  0  0  0  0  0  0  0
   21.5608   -3.6919  -16.0204 O   0  0  0  0  0  0  0  0  0  0  0  0
   21.8593   -4.8548  -14.1023 O   0  0  0  0  0  0  0  0  0  0  0  0
  2  1  1  1
  2  3  1  0
  2  8  1  0
  4  3  1  0
  5  4  1  0
  6  5  1  0
  6  7  1  0
  8  9  2  0
 10  8  1  0
 10 11  1  0
 11 12  1  6
 12 13  1  0
 14 11  1  0
 14 15  2  0
 17 16  1  0
 18 17  1  1
 18 19  1  0
 19 14  1  0
 20 18  1  0
 20 21  1  0
 22 20  2  0
M  END
$$$$
