KCS.pdb
     RDKit          3D

 22 21  0  0  1  0  0  0  0  0999 V2000
   25.5434  -21.9799  -10.1524 N   0  0  0  0  0  0  0  0  0  0  0  0
   24.8175  -20.7591  -10.4957 C   0  0  1  0  0  0  0  0  0  0  0  0
   24.6408  -19.9705   -9.2559 C   0  0  0  0  0  0  0  0  0  0  0  0
   23.8005  -20.5970   -8.2219 C   0  0  0  0  0  0  0  0  0  0  0  0
   22.5652  -21.3177   -8.5156 C   0  0  0  0  0  0  0  0  0  0  0  0
   21.6683  -21.8020   -7.4429 C   0  0  0  0  0  0  0  0  0  0  0  0
   20.5158  -22.5450   -8.0575 N   0  0  0  0  0  0  0  0  0  0  0  0
   25.6974  -20.0142  -11.4773 C   0  0  0  0  0  0  0  0  0  0  0  0
   25.4691  -18.7988  -11.7528 O   0  0  0  0  0  0  0  0  0  0  0  0
   26.7712  -20.6686  -12.0869 N   0  0  0  0  0  0  0  0  0  0  0  0
   27.6570  -20.0121  -13.0564 C   0  0  1  0  0  0  0  0  0  0  0  0
   29.0207  -20.6768  -13.0149 C   0  0  0  0  0  0  0  0  0  0  0  0
   29.8297  -20.3232  -11.4457 S   0  0  0  0  0  0  0  0  0  0  0  0
   26.9817  -20.1422  -14.3708 C   0  0  0  0  0  0  0  0  0  0  0  0
   26.4106  -21.2432  -14.7109 O   0  0  0  0  0  0  0  0  0  0  0  0
   25.1254  -17.1599  -16.2819 O   0  0  0  0  0  0  0  0  0  0  0  0
   25.8310  -17.9546  -17.1818 C   0  0  0  0  0  0  0  0  0  0  0  0
   26.1704  -19.3133  -16.5996 C   0  0  2  0  0  0  0  0  0  0  0  0
   26.8935  -19.1166  -15.3489 N   0  0  0  0  0  0  0  0  0  0  0  0
   26.9814  -20.1284  -17.5548 C   0  0  0  0  0  0  0  0  0  0  0  0
   26.3722  -20.6756  -18.6738 O   0  0  0  0  0  0  0  0  0  0  0  0
   28.1946  -20.3332  -17.3768 O   0  0  0  0  0  0  0  0  0  0  0  0
  2  1  1  1
  2  3  1  0
  2  8  1  0
  4  3  1  0
  5  4  1  0
  6  5  1  0
  6  7  1  0
  8  9  2  0
 10  8  1  0
 10 11  1  0
 11 12  1  6
 12 13  1  0
 14 11  1  0
 14 15  2  0
 17 16  1  0
 18 17  1  6
 18 19  1  0
 19 14  1  0
 20 18  1  0
 20 21  1  0
 22 20  2  0
M  END
$$$$
