KCS.pdb
     RDKit          3D

 22 21  0  0  1  0  0  0  0  0999 V2000
   24.1957  -22.4638  -14.0668 N   0  0  0  0  0  0  0  0  0  0  0  0
   23.5579  -21.2303  -14.5214 C   0  0  1  0  0  0  0  0  0  0  0  0
   22.5893  -20.8096  -13.4846 C   0  0  0  0  0  0  0  0  0  0  0  0
   21.3925  -21.6577  -13.3556 C   0  0  0  0  0  0  0  0  0  0  0  0
   20.5691  -22.0668  -14.4898 C   0  0  0  0  0  0  0  0  0  0  0  0
   19.4469  -23.0192  -14.3382 C   0  0  0  0  0  0  0  0  0  0  0  0
   18.2154  -22.2710  -13.9120 N   0  0  0  0  0  0  0  0  0  0  0  0
   24.6701  -20.2112  -14.6529 C   0  0  0  0  0  0  0  0  0  0  0  0
   24.4026  -18.9814  -14.7988 O   0  0  0  0  0  0  0  0  0  0  0  0
   26.0040  -20.6259  -14.6137 N   0  0  0  0  0  0  0  0  0  0  0  0
   27.1306  -19.7023  -14.7966 C   0  0  1  0  0  0  0  0  0  0  0  0
   28.1090  -19.8768  -13.6496 C   0  0  0  0  0  0  0  0  0  0  0  0
   27.2824  -19.5576  -12.0821 S   0  0  0  0  0  0  0  0  0  0  0  0
   27.7133  -20.0354  -16.1194 C   0  0  0  0  0  0  0  0  0  0  0  0
   27.9180  -21.2588  -16.4590 O   0  0  0  0  0  0  0  0  0  0  0  0
   25.5359  -19.1124  -19.7357 O   0  0  0  0  0  0  0  0  0  0  0  0
   26.0825  -19.0812  -18.4553 C   0  0  0  0  0  0  0  0  0  0  0  0
   27.5959  -19.1769  -18.4779 C   0  0  2  0  0  0  0  0  0  0  0  0
   28.0887  -19.0883  -17.1085 N   0  0  0  0  0  0  0  0  0  0  0  0
   28.1973  -18.1022  -19.3252 C   0  0  0  0  0  0  0  0  0  0  0  0
   28.5819  -18.3925  -20.6254 O   0  0  0  0  0  0  0  0  0  0  0  0
   28.3653  -16.9468  -18.8981 O   0  0  0  0  0  0  0  0  0  0  0  0
  2  1  1  1
  2  3  1  0
  2  8  1  0
  4  3  1  0
  5  4  1  0
  6  5  1  0
  6  7  1  0
  8  9  2  0
 10  8  1  0
 10 11  1  0
 11 12  1  1
 12 13  1  0
 14 11  1  0
 14 15  2  0
 17 16  1  0
 18 17  1  1
 18 19  1  0
 19 14  1  0
 20 18  1  0
 20 21  1  0
 22 20  2  0
M  END
$$$$
