KCS.pdb
     RDKit          3D

 22 21  0  0  1  0  0  0  0  0999 V2000
   17.1883  -10.3243  -13.3089 N   0  0  0  0  0  0  0  0  0  0  0  0
   17.5032   -9.3406  -14.3425 C   0  0  1  0  0  0  0  0  0  0  0  0
   16.2289   -8.7636  -14.8254 C   0  0  0  0  0  0  0  0  0  0  0  0
   15.4017   -9.6589  -15.6513 C   0  0  0  0  0  0  0  0  0  0  0  0
   14.2883  -10.4419  -15.1233 C   0  0  0  0  0  0  0  0  0  0  0  0
   13.3834  -11.2095  -16.0073 C   0  0  0  0  0  0  0  0  0  0  0  0
   12.6006  -10.2556  -16.8648 N   0  0  0  0  0  0  0  0  0  0  0  0
   18.3429   -8.2788  -13.6639 C   0  0  0  0  0  0  0  0  0  0  0  0
   18.1305   -7.9653  -12.4548 O   0  0  0  0  0  0  0  0  0  0  0  0
   19.3614   -7.6368  -14.3732 N   0  0  0  0  0  0  0  0  0  0  0  0
   20.2509   -6.6407  -13.7629 C   0  0  1  0  0  0  0  0  0  0  0  0
   21.5997   -7.2795  -13.4876 C   0  0  0  0  0  0  0  0  0  0  0  0
   22.7735   -6.0274  -12.9430 S   0  0  0  0  0  0  0  0  0  0  0  0
   20.3209   -5.5179  -14.7296 C   0  0  0  0  0  0  0  0  0  0  0  0
   20.6145   -5.7295  -15.9637 O   0  0  0  0  0  0  0  0  0  0  0  0
   18.0375   -2.1667  -15.0427 O   0  0  0  0  0  0  0  0  0  0  0  0
   19.4043   -1.9056  -14.9867 C   0  0  0  0  0  0  0  0  0  0  0  0
   20.2323   -3.1020  -15.4145 C   0  0  2  0  0  0  0  0  0  0  0  0
   20.0815   -4.1538  -14.4160 N   0  0  0  0  0  0  0  0  0  0  0  0
   21.6721   -2.7366  -15.5818 C   0  0  0  0  0  0  0  0  0  0  0  0
   22.1795   -2.5249  -16.8548 O   0  0  0  0  0  0  0  0  0  0  0  0
   22.4357   -2.6153  -14.6083 O   0  0  0  0  0  0  0  0  0  0  0  0
  2  1  1  1
  2  3  1  0
  2  8  1  0
  4  3  1  0
  5  4  1  0
  6  5  1  0
  6  7  1  0
  8  9  2  0
 10  8  1  0
 10 11  1  0
 11 12  1  6
 12 13  1  0
 14 11  1  0
 14 15  2  0
 17 16  1  0
 18 17  1  1
 18 19  1  0
 19 14  1  0
 20 18  1  0
 20 21  1  0
 22 20  2  0
M  END
$$$$
