KCS.pdb
     RDKit          3D

 22 21  0  0  1  0  0  0  0  0999 V2000
   23.8961  -12.7028  -18.4828 N   0  0  0  0  0  0  0  0  0  0  0  0
   22.6823  -12.1057  -17.9304 C   0  0  1  0  0  0  0  0  0  0  0  0
   21.8852  -13.1865  -17.3087 C   0  0  0  0  0  0  0  0  0  0  0  0
   21.1095  -14.0185  -18.2436 C   0  0  0  0  0  0  0  0  0  0  0  0
   21.6254  -15.2413  -18.8519 C   0  0  0  0  0  0  0  0  0  0  0  0
   20.8279  -16.0323  -19.8152 C   0  0  0  0  0  0  0  0  0  0  0  0
   21.6076  -17.2505  -20.2226 N   0  0  0  0  0  0  0  0  0  0  0  0
   23.1455  -11.1173  -16.8810 C   0  0  0  0  0  0  0  0  0  0  0  0
   22.3915  -10.8070  -15.9113 O   0  0  0  0  0  0  0  0  0  0  0  0
   24.4144  -10.5401  -16.9787 N   0  0  0  0  0  0  0  0  0  0  0  0
   24.9126   -9.5455  -16.0206 C   0  0  1  0  0  0  0  0  0  0  0  0
   26.4301   -9.5478  -16.0438 C   0  0  0  0  0  0  0  0  0  0  0  0
   27.0569  -10.9671  -15.1301 S   0  0  0  0  0  0  0  0  0  0  0  0
   24.3224   -8.2511  -16.4408 C   0  0  0  0  0  0  0  0  0  0  0  0
   24.0950   -8.0038  -17.6822 O   0  0  0  0  0  0  0  0  0  0  0  0
   21.8480   -5.9831  -14.1808 O   0  0  0  0  0  0  0  0  0  0  0  0
   22.7639   -5.2074  -14.8871 C   0  0  0  0  0  0  0  0  0  0  0  0
   23.3658   -5.9594  -16.0586 C   0  0  2  0  0  0  0  0  0  0  0  0
   23.9592   -7.1956  -15.5631 N   0  0  0  0  0  0  0  0  0  0  0  0
   24.3877   -5.1323  -16.7700 C   0  0  0  0  0  0  0  0  0  0  0  0
   23.9739   -4.1256  -17.6290 O   0  0  0  0  0  0  0  0  0  0  0  0
   25.6069   -5.3195  -16.6150 O   0  0  0  0  0  0  0  0  0  0  0  0
  2  1  1  1
  2  3  1  0
  2  8  1  0
  4  3  1  0
  5  4  1  0
  6  5  1  0
  6  7  1  0
  8  9  2  0
 10  8  1  0
 10 11  1  0
 11 12  1  6
 12 13  1  0
 14 11  1  0
 14 15  2  0
 17 16  1  0
 18 17  1  1
 18 19  1  0
 19 14  1  0
 20 18  1  0
 20 21  1  0
 22 20  2  0
M  END
$$$$
