KCS.pdb
     RDKit          3D

 22 21  0  0  1  0  0  0  0  0999 V2000
   26.0502  -20.8608   -9.3660 N   0  0  0  0  0  0  0  0  0  0  0  0
   24.8242  -20.7023  -10.1451 C   0  0  1  0  0  0  0  0  0  0  0  0
   24.0006  -19.6610   -9.4913 C   0  0  0  0  0  0  0  0  0  0  0  0
   23.0791  -20.1447   -8.4497 C   0  0  0  0  0  0  0  0  0  0  0  0
   22.4249  -21.4491   -8.4957 C   0  0  0  0  0  0  0  0  0  0  0  0
   21.4531  -21.8735   -7.4636 C   0  0  0  0  0  0  0  0  0  0  0  0
   20.8875  -23.2148   -7.8363 N   0  0  0  0  0  0  0  0  0  0  0  0
   25.2619  -20.2461  -11.5210 C   0  0  0  0  0  0  0  0  0  0  0  0
   25.9172  -19.1713  -11.6648 O   0  0  0  0  0  0  0  0  0  0  0  0
   24.9428  -21.0136  -12.6443 N   0  0  0  0  0  0  0  0  0  0  0  0
   25.3876  -20.6649  -13.9994 C   0  0  1  0  0  0  0  0  0  0  0  0
   26.2317  -21.7979  -14.5535 C   0  0  0  0  0  0  0  0  0  0  0  0
   27.7961  -21.8899  -13.6668 S   0  0  0  0  0  0  0  0  0  0  0  0
   24.1494  -20.4214  -14.7791 C   0  0  0  0  0  0  0  0  0  0  0  0
   23.0809  -21.0977  -14.5453 O   0  0  0  0  0  0  0  0  0  0  0  0
   21.5689  -17.6314  -17.8405 O   0  0  0  0  0  0  0  0  0  0  0  0
   22.7236  -17.8709  -17.0999 C   0  0  0  0  0  0  0  0  0  0  0  0
   22.7513  -19.2732  -16.5227 C   0  0  2  0  0  0  0  0  0  0  0  0
   24.0129  -19.4613  -15.8164 N   0  0  0  0  0  0  0  0  0  0  0  0
   22.5861  -20.3056  -17.5910 C   0  0  0  0  0  0  0  0  0  0  0  0
   21.3126  -20.7246  -17.9448 O   0  0  0  0  0  0  0  0  0  0  0  0
   23.5620  -20.8050  -18.1774 O   0  0  0  0  0  0  0  0  0  0  0  0
  2  1  1  1
  2  3  1  0
  2  8  1  0
  4  3  1  0
  5  4  1  0
  6  5  1  0
  6  7  1  0
  8  9  2  0
 10  8  1  0
 10 11  1  0
 11 12  1  6
 12 13  1  0
 14 11  1  0
 14 15  2  0
 17 16  1  0
 18 17  1  6
 18 19  1  0
 19 14  1  0
 20 18  1  0
 20 21  1  0
 22 20  2  0
M  END
$$$$
