KCS.pdb
     RDKit          3D

 22 21  0  0  1  0  0  0  0  0999 V2000
   18.3806  -12.6109  -15.6613 N   0  0  0  0  0  0  0  0  0  0  0  0
   18.1440  -11.2477  -16.1313 C   0  0  1  0  0  0  0  0  0  0  0  0
   17.0115  -10.6898  -15.3591 C   0  0  0  0  0  0  0  0  0  0  0  0
   15.7378  -11.4169  -15.4895 C   0  0  0  0  0  0  0  0  0  0  0  0
   15.0260  -11.5743  -16.7545 C   0  0  0  0  0  0  0  0  0  0  0  0
   13.6967  -12.2199  -16.8289 C   0  0  0  0  0  0  0  0  0  0  0  0
   12.9743  -12.0197  -15.5265 N   0  0  0  0  0  0  0  0  0  0  0  0
   19.4157  -10.4800  -15.8374 C   0  0  0  0  0  0  0  0  0  0  0  0
   19.9423  -10.5231  -14.6858 O   0  0  0  0  0  0  0  0  0  0  0  0
   20.0169   -9.7164  -16.8414 N   0  0  0  0  0  0  0  0  0  0  0  0
   21.2866   -9.0050  -16.6482 C   0  0  1  0  0  0  0  0  0  0  0  0
   22.0441   -8.9717  -17.9628 C   0  0  0  0  0  0  0  0  0  0  0  0
   23.5358   -7.9785  -17.7882 S   0  0  0  0  0  0  0  0  0  0  0  0
   20.9207   -7.6570  -16.1488 C   0  0  0  0  0  0  0  0  0  0  0  0
   19.9368   -7.0090  -16.6645 O   0  0  0  0  0  0  0  0  0  0  0  0
   21.8464   -5.9898  -12.4078 O   0  0  0  0  0  0  0  0  0  0  0  0
   20.7855   -5.6427  -13.2404 C   0  0  0  0  0  0  0  0  0  0  0  0
   21.1900   -5.6206  -14.7019 C   0  0  2  0  0  0  0  0  0  0  0  0
   21.5813   -6.9683  -15.0973 N   0  0  0  0  0  0  0  0  0  0  0  0
   22.3055   -4.6553  -14.9441 C   0  0  0  0  0  0  0  0  0  0  0  0
   22.1130   -3.3082  -14.6778 O   0  0  0  0  0  0  0  0  0  0  0  0
   23.4096   -5.0246  -15.3801 O   0  0  0  0  0  0  0  0  0  0  0  0
  2  1  1  1
  2  3  1  0
  2  8  1  0
  4  3  1  0
  5  4  1  0
  6  5  1  0
  6  7  1  0
  8  9  2  0
 10  8  1  0
 10 11  1  0
 11 12  1  6
 12 13  1  0
 14 11  1  0
 14 15  2  0
 17 16  1  0
 18 17  1  1
 18 19  1  0
 19 14  1  0
 20 18  1  0
 20 21  1  0
 22 20  2  0
M  END
$$$$
