PCG.pdb
     RDKit          3D

 18 18  0  0  1  0  0  0  0  0999 V2000
   27.6036  -18.6097   -6.1364 N   0  0  0  0  0  0  0  0  0  0  0  0
   28.3078  -18.0938   -4.9744 C   0  0  0  0  0  0  0  0  0  0  0  0
   28.8095  -19.3344   -4.3113 C   0  0  0  0  0  0  0  0  0  0  0  0
   28.9779  -20.3163   -5.4520 C   0  0  0  0  0  0  0  0  0  0  0  0
   28.5827  -19.5101   -6.6968 C   0  0  1  0  0  0  0  0  0  0  0  0
   27.9965  -20.4453   -7.6797 C   0  0  0  0  0  0  0  0  0  0  0  0
   28.6336  -21.4079   -8.1941 O   0  0  0  0  0  0  0  0  0  0  0  0
   26.6479  -20.2537   -8.0669 N   0  0  0  0  0  0  0  0  0  0  0  0
   25.9873  -20.9979   -9.1003 C   0  0  1  0  0  0  0  0  0  0  0  0
   24.9945  -21.9366   -8.4071 C   0  0  0  0  0  0  0  0  0  0  0  0
   24.5345  -21.2269   -6.8083 S   0  0  0  0  0  0  0  0  0  0  0  0
   25.3052  -20.1316  -10.0771 C   0  0  0  0  0  0  0  0  0  0  0  0
   24.5393  -19.2147   -9.6964 O   0  0  0  0  0  0  0  0  0  0  0  0
   25.5115  -20.3300  -11.4678 N   0  0  0  0  0  0  0  0  0  0  0  0
   24.9917  -19.4125  -12.4686 C   0  0  0  0  0  0  0  0  0  0  0  0
   23.6416  -19.8560  -12.9107 C   0  0  0  0  0  0  0  0  0  0  0  0
   23.0341  -20.9175  -12.2846 O   0  0  0  0  0  0  0  0  0  0  0  0
   23.0453  -19.2735  -13.8511 O   0  0  0  0  0  0  0  0  0  0  0  0
  1  2  1  0
  2  3  1  0
  4  3  1  0
  5  1  1  0
  5  4  1  0
  5  6  1  6
  7  6  2  0
  8  6  1  0
  9  8  1  0
  9 12  1  0
  9 10  1  1
 11 10  1  0
 12 14  1  0
 13 12  2  0
 14 15  1  0
 15 16  1  0
 16 18  2  0
 16 17  1  0
M  END
$$$$
