PCG.pdb
     RDKit          3D

 18 18  0  0  1  0  0  0  0  0999 V2000
   20.3623  -11.2963  -15.8058 N   0  0  0  0  0  0  0  0  0  0  0  0
   20.1771  -12.4782  -16.6310 C   0  0  0  0  0  0  0  0  0  0  0  0
   18.6909  -12.5804  -16.7373 C   0  0  0  0  0  0  0  0  0  0  0  0
   18.2155  -11.1486  -16.6049 C   0  0  0  0  0  0  0  0  0  0  0  0
   19.5120  -10.3381  -16.4706 C   0  0  1  0  0  0  0  0  0  0  0  0
   19.2264   -9.1551  -15.6320 C   0  0  0  0  0  0  0  0  0  0  0  0
   18.4206   -8.2405  -15.9656 O   0  0  0  0  0  0  0  0  0  0  0  0
   19.8909   -9.0387  -14.3870 N   0  0  0  0  0  0  0  0  0  0  0  0
   19.6984   -7.9585  -13.4628 C   0  0  1  0  0  0  0  0  0  0  0  0
   19.3296   -8.5867  -12.1149 C   0  0  0  0  0  0  0  0  0  0  0  0
   17.5947   -9.0964  -12.1604 S   0  0  0  0  0  0  0  0  0  0  0  0
   20.8871   -7.0974  -13.3394 C   0  0  0  0  0  0  0  0  0  0  0  0
   21.9666   -7.5541  -12.8939 O   0  0  0  0  0  0  0  0  0  0  0  0
   20.8189   -5.7331  -13.7270 N   0  0  0  0  0  0  0  0  0  0  0  0
   21.9613   -4.8395  -13.6275 C   0  0  0  0  0  0  0  0  0  0  0  0
   21.5969   -3.4913  -14.1417 C   0  0  0  0  0  0  0  0  0  0  0  0
   20.3750   -3.2973  -14.7393 O   0  0  0  0  0  0  0  0  0  0  0  0
   22.3914   -2.5231  -14.0382 O   0  0  0  0  0  0  0  0  0  0  0  0
  1  2  1  0
  2  3  1  0
  4  3  1  0
  5  1  1  0
  5  4  1  0
  5  6  1  1
  7  6  2  0
  8  6  1  0
  9  8  1  0
  9 12  1  0
  9 10  1  1
 11 10  1  0
 12 14  1  0
 13 12  2  0
 14 15  1  0
 15 16  1  0
 16 18  2  0
 16 17  1  0
M  END
$$$$
