PCG.pdb
     RDKit          3D

 18 18  0  0  1  0  0  0  0  0999 V2000
   25.6431  -21.4813  -12.0044 N   0  0  0  0  0  0  0  0  0  0  0  0
   24.8283  -22.0173  -10.9269 C   0  0  0  0  0  0  0  0  0  0  0  0
   25.0757  -21.0547   -9.8121 C   0  0  0  0  0  0  0  0  0  0  0  0
   25.3892  -19.7515  -10.5168 C   0  0  0  0  0  0  0  0  0  0  0  0
   25.2497  -20.0926  -12.0068 C   0  0  1  0  0  0  0  0  0  0  0  0
   26.1901  -19.2378  -12.7613 C   0  0  0  0  0  0  0  0  0  0  0  0
   26.1225  -17.9761  -12.7843 O   0  0  0  0  0  0  0  0  0  0  0  0
   27.2235  -19.8652  -13.4987 N   0  0  0  0  0  0  0  0  0  0  0  0
   28.2181  -19.1641  -14.2587 C   0  0  1  0  0  0  0  0  0  0  0  0
   29.5694  -19.8000  -13.9163 C   0  0  0  0  0  0  0  0  0  0  0  0
   29.5546  -20.3106  -12.1811 S   0  0  0  0  0  0  0  0  0  0  0  0
   27.9623  -19.2098  -15.7085 C   0  0  0  0  0  0  0  0  0  0  0  0
   28.7339  -18.6375  -16.5144 O   0  0  0  0  0  0  0  0  0  0  0  0
   26.8312  -19.9076  -16.2084 N   0  0  0  0  0  0  0  0  0  0  0  0
   26.4735  -19.8987  -17.6174 C   0  0  0  0  0  0  0  0  0  0  0  0
   25.0539  -19.4818  -17.7777 C   0  0  0  0  0  0  0  0  0  0  0  0
   24.3637  -19.8357  -18.9119 O   0  0  0  0  0  0  0  0  0  0  0  0
   24.4732  -18.8085  -16.8896 O   0  0  0  0  0  0  0  0  0  0  0  0
  1  2  1  0
  2  3  1  0
  4  3  1  0
  5  1  1  0
  5  4  1  0
  5  6  1  6
  7  6  2  0
  8  6  1  0
  9  8  1  0
  9 12  1  0
  9 10  1  6
 11 10  1  0
 12 14  1  0
 13 12  2  0
 14 15  1  0
 15 16  1  0
 16 18  2  0
 16 17  1  0
M  END
$$$$
