PCG.pdb
     RDKit          3D

 18 18  0  0  1  0  0  0  0  0999 V2000
   18.5903   -9.1898  -16.3632 N   0  0  0  0  0  0  0  0  0  0  0  0
   17.7450  -10.3129  -16.7324 C   0  0  0  0  0  0  0  0  0  0  0  0
   18.2458  -11.4102  -15.8518 C   0  0  0  0  0  0  0  0  0  0  0  0
   18.7788  -10.6866  -14.6329 C   0  0  0  0  0  0  0  0  0  0  0  0
   18.4892   -9.2075  -14.9235 C   0  0  1  0  0  0  0  0  0  0  0  0
   19.5406   -8.3994  -14.2709 C   0  0  0  0  0  0  0  0  0  0  0  0
   19.7096   -8.3523  -13.0194 O   0  0  0  0  0  0  0  0  0  0  0  0
   20.4062   -7.6358  -15.0912 N   0  0  0  0  0  0  0  0  0  0  0  0
   21.4390   -6.7714  -14.5968 C   0  0  1  0  0  0  0  0  0  0  0  0
   22.7768   -7.4276  -14.9534 C   0  0  0  0  0  0  0  0  0  0  0  0
   23.0829   -8.7948  -13.8093 S   0  0  0  0  0  0  0  0  0  0  0  0
   21.3524   -5.4087  -15.1493 C   0  0  0  0  0  0  0  0  0  0  0  0
   21.3836   -5.2155  -16.3878 O   0  0  0  0  0  0  0  0  0  0  0  0
   21.2320   -4.2951  -14.2766 N   0  0  0  0  0  0  0  0  0  0  0  0
   21.1669   -2.9280  -14.7667 C   0  0  0  0  0  0  0  0  0  0  0  0
   20.8593   -2.0008  -13.6440 C   0  0  0  0  0  0  0  0  0  0  0  0
   21.8771   -1.5322  -12.8488 O   0  0  0  0  0  0  0  0  0  0  0  0
   19.6792   -1.6376  -13.4099 O   0  0  0  0  0  0  0  0  0  0  0  0
  1  2  1  0
  2  3  1  0
  4  3  1  0
  5  1  1  0
  5  4  1  0
  5  6  1  1
  7  6  2  0
  8  6  1  0
  9  8  1  0
  9 12  1  0
  9 10  1  6
 11 10  1  0
 12 14  1  0
 13 12  2  0
 14 15  1  0
 15 16  1  0
 16 18  2  0
 16 17  1  0
M  END
$$$$
