PCG.pdb
     RDKit          3D

 18 18  0  0  1  0  0  0  0  0999 V2000
   19.4523  -10.5390  -16.5730 N   0  0  0  0  0  0  0  0  0  0  0  0
   19.0200  -11.6839  -17.3570 C   0  0  0  0  0  0  0  0  0  0  0  0
   17.8844  -12.2277  -16.5537 C   0  0  0  0  0  0  0  0  0  0  0  0
   17.3317  -11.0152  -15.8341 C   0  0  0  0  0  0  0  0  0  0  0  0
   18.2028   -9.8560  -16.3376 C   0  0  1  0  0  0  0  0  0  0  0  0
   18.2992   -8.8536  -15.2558 C   0  0  0  0  0  0  0  0  0  0  0  0
   17.3121   -8.1906  -14.8279 O   0  0  0  0  0  0  0  0  0  0  0  0
   19.5656   -8.6226  -14.6658 N   0  0  0  0  0  0  0  0  0  0  0  0
   19.8005   -7.7169  -13.5783 C   0  0  1  0  0  0  0  0  0  0  0  0
   20.0861   -8.5731  -12.3402 C   0  0  0  0  0  0  0  0  0  0  0  0
   18.5741   -8.7044  -11.3563 S   0  0  0  0  0  0  0  0  0  0  0  0
   20.9083   -6.7835  -13.8451 C   0  0  0  0  0  0  0  0  0  0  0  0
   22.0817   -7.2035  -13.9837 O   0  0  0  0  0  0  0  0  0  0  0  0
   20.6539   -5.3904  -13.9483 N   0  0  0  0  0  0  0  0  0  0  0  0
   21.7120   -4.4237  -14.1914 C   0  0  0  0  0  0  0  0  0  0  0  0
   21.1242   -3.0772  -14.4286 C   0  0  0  0  0  0  0  0  0  0  0  0
   20.4995   -2.4155  -13.3991 O   0  0  0  0  0  0  0  0  0  0  0  0
   21.1897   -2.5328  -15.5593 O   0  0  0  0  0  0  0  0  0  0  0  0
  1  2  1  0
  2  3  1  0
  4  3  1  0
  5  1  1  0
  5  4  1  0
  5  6  1  1
  7  6  2  0
  8  6  1  0
  9  8  1  0
  9 12  1  0
  9 10  1  1
 11 10  1  0
 12 14  1  0
 13 12  2  0
 14 15  1  0
 15 16  1  0
 16 18  2  0
 16 17  1  0
M  END
$$$$
