PCG.pdb
     RDKit          3D

 18 18  0  0  1  0  0  0  0  0999 V2000
   27.2441  -19.4684  -14.4739 N   0  0  0  0  0  0  0  0  0  0  0  0
   28.4540  -19.1399  -15.2090 C   0  0  0  0  0  0  0  0  0  0  0  0
   29.5361  -19.6423  -14.3105 C   0  0  0  0  0  0  0  0  0  0  0  0
   28.8866  -20.7861  -13.5600 C   0  0  0  0  0  0  0  0  0  0  0  0
   27.4689  -20.8554  -14.1439 C   0  0  1  0  0  0  0  0  0  0  0  0
   26.5611  -21.3407  -13.0833 C   0  0  0  0  0  0  0  0  0  0  0  0
   26.6249  -22.5007  -12.5861 O   0  0  0  0  0  0  0  0  0  0  0  0
   25.5655  -20.4590  -12.5968 N   0  0  0  0  0  0  0  0  0  0  0  0
   24.5066  -20.8425  -11.7081 C   0  0  1  0  0  0  0  0  0  0  0  0
   24.9012  -20.3560  -10.3099 C   0  0  0  0  0  0  0  0  0  0  0  0
   23.5932  -20.8019   -9.1429 S   0  0  0  0  0  0  0  0  0  0  0  0
   23.2000  -20.2950  -12.1114 C   0  0  0  0  0  0  0  0  0  0  0  0
   23.0673  -19.0749  -12.3679 O   0  0  0  0  0  0  0  0  0  0  0  0
   22.0721  -21.1516  -12.2133 N   0  0  0  0  0  0  0  0  0  0  0  0
   20.7678  -20.6708  -12.6387 C   0  0  0  0  0  0  0  0  0  0  0  0
   19.7871  -21.7902  -12.6303 C   0  0  0  0  0  0  0  0  0  0  0  0
   18.9320  -21.9390  -11.5652 O   0  0  0  0  0  0  0  0  0  0  0  0
   19.7276  -22.6052  -13.5851 O   0  0  0  0  0  0  0  0  0  0  0  0
  1  2  1  0
  2  3  1  0
  4  3  1  0
  5  1  1  0
  5  4  1  0
  5  6  1  1
  7  6  2  0
  8  6  1  0
  9  8  1  0
  9 12  1  0
  9 10  1  1
 11 10  1  0
 12 14  1  0
 13 12  2  0
 14 15  1  0
 15 16  1  0
 16 18  2  0
 16 17  1  0
M  END
$$$$
