PCG.pdb
     RDKit          3D

 18 18  0  0  1  0  0  0  0  0999 V2000
   19.4830  -11.6310  -16.4842 N   0  0  0  0  0  0  0  0  0  0  0  0
   18.2687  -12.0367  -17.1720 C   0  0  0  0  0  0  0  0  0  0  0  0
   17.1945  -11.3915  -16.3594 C   0  0  0  0  0  0  0  0  0  0  0  0
   17.8647  -10.1659  -15.7744 C   0  0  0  0  0  0  0  0  0  0  0  0
   19.2851  -10.2072  -16.3547 C   0  0  1  0  0  0  0  0  0  0  0  0
   20.1995   -9.5946  -15.3683 C   0  0  0  0  0  0  0  0  0  0  0  0
   20.0119   -9.6402  -14.1194 O   0  0  0  0  0  0  0  0  0  0  0  0
   21.3486   -8.9197  -15.8472 N   0  0  0  0  0  0  0  0  0  0  0  0
   22.3634   -8.3503  -15.0081 C   0  0  1  0  0  0  0  0  0  0  0  0
   23.7051   -8.9133  -15.4881 C   0  0  0  0  0  0  0  0  0  0  0  0
   23.9051  -10.5886  -14.8364 S   0  0  0  0  0  0  0  0  0  0  0  0
   22.3648   -6.8777  -15.0374 C   0  0  0  0  0  0  0  0  0  0  0  0
   23.1736   -6.2229  -14.3377 O   0  0  0  0  0  0  0  0  0  0  0  0
   21.4431   -6.1830  -15.8645 N   0  0  0  0  0  0  0  0  0  0  0  0
   21.4018   -4.7315  -15.9326 C   0  0  0  0  0  0  0  0  0  0  0  0
   20.5755   -4.1947  -14.8173 C   0  0  0  0  0  0  0  0  0  0  0  0
   20.4002   -2.8378  -14.6911 O   0  0  0  0  0  0  0  0  0  0  0  0
   20.0330   -4.9647  -13.9854 O   0  0  0  0  0  0  0  0  0  0  0  0
  1  2  1  0
  2  3  1  0
  4  3  1  0
  5  1  1  0
  5  4  1  0
  5  6  1  1
  7  6  2  0
  8  6  1  0
  9  8  1  0
  9 12  1  0
  9 10  1  6
 11 10  1  0
 12 14  1  0
 13 12  2  0
 14 15  1  0
 15 16  1  0
 16 18  2  0
 16 17  1  0
M  END
$$$$
