PCG.pdb
     RDKit          3D

 18 18  0  0  1  0  0  0  0  0999 V2000
   19.9585  -11.5310  -15.7832 N   0  0  0  0  0  0  0  0  0  0  0  0
   19.6603  -12.7614  -16.4970 C   0  0  0  0  0  0  0  0  0  0  0  0
   18.1707  -12.8377  -16.4209 C   0  0  0  0  0  0  0  0  0  0  0  0
   17.7343  -11.3902  -16.3333 C   0  0  0  0  0  0  0  0  0  0  0  0
   19.0488  -10.6012  -16.4085 C   0  0  1  0  0  0  0  0  0  0  0  0
   18.8811   -9.3585  -15.6264 C   0  0  0  0  0  0  0  0  0  0  0  0
   18.0231   -8.4717  -15.8993 O   0  0  0  0  0  0  0  0  0  0  0  0
   19.7270   -9.1486  -14.5103 N   0  0  0  0  0  0  0  0  0  0  0  0
   19.7272   -7.9616  -13.7046 C   0  0  1  0  0  0  0  0  0  0  0  0
   19.8409   -8.4145  -12.2453 C   0  0  0  0  0  0  0  0  0  0  0  0
   18.6391   -9.7326  -11.9450 S   0  0  0  0  0  0  0  0  0  0  0  0
   20.8156   -7.0345  -14.0588 C   0  0  0  0  0  0  0  0  0  0  0  0
   21.9194   -7.4672  -14.4671 O   0  0  0  0  0  0  0  0  0  0  0  0
   20.6215   -5.6329  -13.9396 N   0  0  0  0  0  0  0  0  0  0  0  0
   21.6212   -4.6709  -14.3735 C   0  0  0  0  0  0  0  0  0  0  0  0
   21.0768   -3.2900  -14.2657 C   0  0  0  0  0  0  0  0  0  0  0  0
   19.7689   -3.1007  -13.8894 O   0  0  0  0  0  0  0  0  0  0  0  0
   21.7960   -2.2899  -14.5140 O   0  0  0  0  0  0  0  0  0  0  0  0
  1  2  1  0
  2  3  1  0
  4  3  1  0
  5  1  1  0
  5  4  1  0
  5  6  1  1
  7  6  2  0
  8  6  1  0
  9  8  1  0
  9 12  1  0
  9 10  1  1
 11 10  1  0
 12 14  1  0
 13 12  2  0
 14 15  1  0
 15 16  1  0
 16 18  2  0
 16 17  1  0
M  END
$$$$
