PCG.pdb
     RDKit          3D

 18 18  0  0  1  0  0  0  0  0999 V2000
   23.8039  -11.7023  -16.8643 N   0  0  0  0  0  0  0  0  0  0  0  0
   24.0360  -13.1057  -17.1624 C   0  0  0  0  0  0  0  0  0  0  0  0
   25.4238  -13.1037  -17.7143 C   0  0  0  0  0  0  0  0  0  0  0  0
   26.0824  -11.9164  -17.0435 C   0  0  0  0  0  0  0  0  0  0  0  0
   24.9912  -11.3607  -16.1181 C   0  0  1  0  0  0  0  0  0  0  0  0
   25.1891   -9.9006  -16.0038 C   0  0  0  0  0  0  0  0  0  0  0  0
   26.1981   -9.3732  -15.4554 O   0  0  0  0  0  0  0  0  0  0  0  0
   24.1949   -9.0448  -16.5372 N   0  0  0  0  0  0  0  0  0  0  0  0
   24.2305   -7.6128  -16.4591 C   0  0  1  0  0  0  0  0  0  0  0  0
   24.2176   -7.0882  -17.8986 C   0  0  0  0  0  0  0  0  0  0  0  0
   22.6550   -7.5571  -18.6797 S   0  0  0  0  0  0  0  0  0  0  0  0
   23.1089   -7.0580  -15.6820 C   0  0  0  0  0  0  0  0  0  0  0  0
   22.0376   -7.6973  -15.5558 O   0  0  0  0  0  0  0  0  0  0  0  0
   23.2333   -5.7851  -15.0652 N   0  0  0  0  0  0  0  0  0  0  0  0
   22.2178   -5.2525  -14.1717 C   0  0  0  0  0  0  0  0  0  0  0  0
   21.1388   -4.5995  -14.9620 C   0  0  0  0  0  0  0  0  0  0  0  0
   20.0752   -4.0195  -14.3138 O   0  0  0  0  0  0  0  0  0  0  0  0
   21.1843   -4.5696  -16.2175 O   0  0  0  0  0  0  0  0  0  0  0  0
  1  2  1  0
  2  3  1  0
  4  3  1  0
  5  1  1  0
  5  4  1  0
  5  6  1  6
  7  6  2  0
  8  6  1  0
  9  8  1  0
  9 12  1  0
  9 10  1  6
 11 10  1  0
 12 14  1  0
 13 12  2  0
 14 15  1  0
 15 16  1  0
 16 18  2  0
 16 17  1  0
M  END
$$$$
