PCG.pdb
     RDKit          3D

 18 18  0  0  1  0  0  0  0  0999 V2000
   20.4116  -10.6543  -17.2941 N   0  0  0  0  0  0  0  0  0  0  0  0
   20.1927  -12.0187  -17.7442 C   0  0  0  0  0  0  0  0  0  0  0  0
   19.7750  -12.7190  -16.4929 C   0  0  0  0  0  0  0  0  0  0  0  0
   19.1221  -11.6315  -15.6656 C   0  0  0  0  0  0  0  0  0  0  0  0
   19.1961  -10.3882  -16.5626 C   0  0  1  0  0  0  0  0  0  0  0  0
   19.3078   -9.2009  -15.6895 C   0  0  0  0  0  0  0  0  0  0  0  0
   18.3949   -8.8261  -14.9000 O   0  0  0  0  0  0  0  0  0  0  0  0
   20.5017   -8.4411  -15.7392 N   0  0  0  0  0  0  0  0  0  0  0  0
   20.7089   -7.2090  -15.0343 C   0  0  1  0  0  0  0  0  0  0  0  0
   22.0113   -7.3633  -14.2421 C   0  0  0  0  0  0  0  0  0  0  0  0
   22.3188   -5.8400  -13.3165 S   0  0  0  0  0  0  0  0  0  0  0  0
   20.7692   -6.0433  -15.9328 C   0  0  0  0  0  0  0  0  0  0  0  0
   21.4701   -6.0703  -16.9722 O   0  0  0  0  0  0  0  0  0  0  0  0
   20.0285   -4.8714  -15.6262 N   0  0  0  0  0  0  0  0  0  0  0  0
   19.9954   -3.7196  -16.5126 C   0  0  0  0  0  0  0  0  0  0  0  0
   19.1202   -2.6621  -15.9376 C   0  0  0  0  0  0  0  0  0  0  0  0
   19.0079   -1.4498  -16.5745 O   0  0  0  0  0  0  0  0  0  0  0  0
   18.4794   -2.8600  -14.8749 O   0  0  0  0  0  0  0  0  0  0  0  0
  1  2  1  0
  2  3  1  0
  4  3  1  0
  5  1  1  0
  5  4  1  0
  5  6  1  1
  7  6  2  0
  8  6  1  0
  9  8  1  0
  9 12  1  0
  9 10  1  6
 11 10  1  0
 12 14  1  0
 13 12  2  0
 14 15  1  0
 15 16  1  0
 16 18  2  0
 16 17  1  0
M  END
$$$$
