PCG.pdb
     RDKit          3D

 18 18  0  0  1  0  0  0  0  0999 V2000
   26.7534  -18.6733  -16.4763 N   0  0  0  0  0  0  0  0  0  0  0  0
   26.7268  -18.2185  -17.8564 C   0  0  0  0  0  0  0  0  0  0  0  0
   27.7160  -19.1177  -18.5224 C   0  0  0  0  0  0  0  0  0  0  0  0
   27.6687  -20.3875  -17.6985 C   0  0  0  0  0  0  0  0  0  0  0  0
   26.6004  -20.0998  -16.6346 C   0  0  1  0  0  0  0  0  0  0  0  0
   26.9601  -20.8482  -15.4119 C   0  0  0  0  0  0  0  0  0  0  0  0
   26.8323  -22.1001  -15.2963 O   0  0  0  0  0  0  0  0  0  0  0  0
   27.4759  -20.1245  -14.3095 N   0  0  0  0  0  0  0  0  0  0  0  0
   27.7135  -20.6855  -13.0106 C   0  0  1  0  0  0  0  0  0  0  0  0
   29.1580  -20.3400  -12.6343 C   0  0  0  0  0  0  0  0  0  0  0  0
   29.4564  -20.8491  -10.9245 S   0  0  0  0  0  0  0  0  0  0  0  0
   26.7677  -20.1901  -11.9959 C   0  0  0  0  0  0  0  0  0  0  0  0
   26.5705  -18.9605  -11.8489 O   0  0  0  0  0  0  0  0  0  0  0  0
   26.0668  -21.1082  -11.1702 N   0  0  0  0  0  0  0  0  0  0  0  0
   25.1186  -20.6744  -10.1573 C   0  0  0  0  0  0  0  0  0  0  0  0
   25.7231  -20.8121   -8.8044 C   0  0  0  0  0  0  0  0  0  0  0  0
   24.9818  -20.4964   -7.6914 O   0  0  0  0  0  0  0  0  0  0  0  0
   26.9052  -21.2140   -8.6620 O   0  0  0  0  0  0  0  0  0  0  0  0
  1  2  1  0
  2  3  1  0
  4  3  1  0
  5  1  1  0
  5  4  1  0
  5  6  1  1
  7  6  2  0
  8  6  1  0
  9  8  1  0
  9 12  1  0
  9 10  1  1
 11 10  1  0
 12 14  1  0
 13 12  2  0
 14 15  1  0
 15 16  1  0
 16 18  2  0
 16 17  1  0
M  END
$$$$
