PCG.pdb
     RDKit          3D

 18 18  0  0  1  0  0  0  0  0999 V2000
   20.3304  -11.8769  -17.6883 N   0  0  0  0  0  0  0  0  0  0  0  0
   19.3167  -12.8521  -18.0539 C   0  0  0  0  0  0  0  0  0  0  0  0
   19.2640  -13.7425  -16.8560 C   0  0  0  0  0  0  0  0  0  0  0  0
   19.6727  -12.8397  -15.7109 C   0  0  0  0  0  0  0  0  0  0  0  0
   19.8885  -11.4729  -16.3750 C   0  0  1  0  0  0  0  0  0  0  0  0
   20.9377  -10.7579  -15.6184 C   0  0  0  0  0  0  0  0  0  0  0  0
   20.7713  -10.3061  -14.4500 O   0  0  0  0  0  0  0  0  0  0  0  0
   22.1984  -10.5681  -16.2349 N   0  0  0  0  0  0  0  0  0  0  0  0
   23.3102   -9.9025  -15.6194 C   0  0  1  0  0  0  0  0  0  0  0  0
   24.5765  -10.6294  -16.0840 C   0  0  0  0  0  0  0  0  0  0  0  0
   26.0150   -9.8577  -15.3049 S   0  0  0  0  0  0  0  0  0  0  0  0
   23.3692   -8.4687  -15.9517 C   0  0  0  0  0  0  0  0  0  0  0  0
   23.2860   -8.0821  -17.1416 O   0  0  0  0  0  0  0  0  0  0  0  0
   23.5219   -7.5062  -14.9190 N   0  0  0  0  0  0  0  0  0  0  0  0
   23.5649   -6.0783  -15.1885 C   0  0  0  0  0  0  0  0  0  0  0  0
   22.2707   -5.4508  -14.8064 C   0  0  0  0  0  0  0  0  0  0  0  0
   22.1766   -4.7442  -13.6317 O   0  0  0  0  0  0  0  0  0  0  0  0
   21.2581   -5.5566  -15.5431 O   0  0  0  0  0  0  0  0  0  0  0  0
  1  2  1  0
  2  3  1  0
  4  3  1  0
  5  1  1  0
  5  4  1  0
  5  6  1  1
  7  6  2  0
  8  6  1  0
  9  8  1  0
  9 12  1  0
  9 10  1  6
 11 10  1  0
 12 14  1  0
 13 12  2  0
 14 15  1  0
 15 16  1  0
 16 18  2  0
 16 17  1  0
M  END
$$$$
