PCG.pdb
     RDKit          3D

 18 18  0  0  1  0  0  0  0  0999 V2000
   24.9695  -24.1690  -14.5776 N   0  0  0  0  0  0  0  0  0  0  0  0
   24.2768  -25.3881  -14.9600 C   0  0  0  0  0  0  0  0  0  0  0  0
   23.0811  -25.3861  -14.0650 C   0  0  0  0  0  0  0  0  0  0  0  0
   22.8239  -23.9172  -13.8015 C   0  0  0  0  0  0  0  0  0  0  0  0
   23.9023  -23.1984  -14.6238 C   0  0  1  0  0  0  0  0  0  0  0  0
   24.2473  -21.9420  -13.9260 C   0  0  0  0  0  0  0  0  0  0  0  0
   23.4724  -20.9462  -13.8563 O   0  0  0  0  0  0  0  0  0  0  0  0
   25.5146  -21.8477  -13.3011 N   0  0  0  0  0  0  0  0  0  0  0  0
   26.0269  -20.6593  -12.6818 C   0  0  1  0  0  0  0  0  0  0  0  0
   26.5431  -21.0662  -11.2978 C   0  0  0  0  0  0  0  0  0  0  0  0
   25.1469  -21.1436  -10.1505 S   0  0  0  0  0  0  0  0  0  0  0  0
   27.0880  -20.0168  -13.4761 C   0  0  0  0  0  0  0  0  0  0  0  0
   28.2801  -20.3930  -13.3775 O   0  0  0  0  0  0  0  0  0  0  0  0
   26.7664  -18.9583  -14.3662 N   0  0  0  0  0  0  0  0  0  0  0  0
   27.7661  -18.3190  -15.2059 C   0  0  0  0  0  0  0  0  0  0  0  0
   27.1095  -17.3608  -16.1363 C   0  0  0  0  0  0  0  0  0  0  0  0
   26.9800  -17.6822  -17.4659 O   0  0  0  0  0  0  0  0  0  0  0  0
   26.6695  -16.2580  -15.7247 O   0  0  0  0  0  0  0  0  0  0  0  0
  1  2  1  0
  2  3  1  0
  4  3  1  0
  5  1  1  0
  5  4  1  0
  5  6  1  1
  7  6  2  0
  8  6  1  0
  9  8  1  0
  9 12  1  0
  9 10  1  1
 11 10  1  0
 12 14  1  0
 13 12  2  0
 14 15  1  0
 15 16  1  0
 16 18  2  0
 16 17  1  0
M  END
$$$$
