PCG.pdb
     RDKit          3D

 18 18  0  0  1  0  0  0  0  0999 V2000
   17.8317  -11.9481  -15.2803 N   0  0  0  0  0  0  0  0  0  0  0  0
   17.2170  -13.2623  -15.3658 C   0  0  0  0  0  0  0  0  0  0  0  0
   17.3562  -13.6012  -16.8137 C   0  0  0  0  0  0  0  0  0  0  0  0
   18.5973  -12.8497  -17.2476 C   0  0  0  0  0  0  0  0  0  0  0  0
   19.0846  -12.1652  -15.9631 C   0  0  1  0  0  0  0  0  0  0  0  0
   19.7501  -10.9015  -16.3431 C   0  0  0  0  0  0  0  0  0  0  0  0
   20.8223  -10.8498  -17.0099 O   0  0  0  0  0  0  0  0  0  0  0  0
   19.1553   -9.6817  -15.9387 N   0  0  0  0  0  0  0  0  0  0  0  0
   19.7027   -8.3835  -16.2093 C   0  0  1  0  0  0  0  0  0  0  0  0
   18.6029   -7.5727  -16.9025 C   0  0  0  0  0  0  0  0  0  0  0  0
   19.1538   -5.8577  -17.0669 S   0  0  0  0  0  0  0  0  0  0  0  0
   20.1777   -7.7022  -14.9928 C   0  0  0  0  0  0  0  0  0  0  0  0
   19.4539   -7.6351  -13.9711 O   0  0  0  0  0  0  0  0  0  0  0  0
   21.4687   -7.1116  -14.9679 N   0  0  0  0  0  0  0  0  0  0  0  0
   21.9870   -6.4270  -13.7948 C   0  0  0  0  0  0  0  0  0  0  0  0
   22.0529   -4.9623  -14.0501 C   0  0  0  0  0  0  0  0  0  0  0  0
   22.4057   -4.1086  -13.0329 O   0  0  0  0  0  0  0  0  0  0  0  0
   21.7901   -4.4911  -15.1850 O   0  0  0  0  0  0  0  0  0  0  0  0
  1  2  1  0
  2  3  1  0
  4  3  1  0
  5  1  1  0
  5  4  1  0
  5  6  1  6
  7  6  2  0
  8  6  1  0
  9  8  1  0
  9 12  1  0
  9 10  1  1
 11 10  1  0
 12 14  1  0
 13 12  2  0
 14 15  1  0
 15 16  1  0
 16 18  2  0
 16 17  1  0
M  END
$$$$
