HYE.pdb
     RDKit          3D

 32 33  0  0  1  0  0  0  0  0999 V2000
   27.9690  -20.8949  -19.2351 N   0  0  0  0  0  0  0  0  0  0  0  0
   27.7389  -19.8200  -18.2576 C   0  0  1  0  0  0  0  0  0  0  0  0
   26.8111  -18.8387  -18.9653 C   0  0  0  0  0  0  0  0  0  0  0  0
   27.6305  -18.1788  -20.0150 C   0  0  0  0  0  0  0  0  0  0  0  0
   27.4900  -18.2023  -21.3877 C   0  0  0  0  0  0  0  0  0  0  0  0
   28.4568  -17.4748  -21.9725 N   0  0  0  0  0  0  0  0  0  0  0  0
   29.2362  -16.9707  -20.9724 C   0  0  0  0  0  0  0  0  0  0  0  0
   28.7252  -17.4038  -19.8108 N   0  0  0  0  0  0  0  0  0  0  0  0
   27.0994  -20.3719  -17.0401 C   0  0  0  0  0  0  0  0  0  0  0  0
   26.0985  -21.1085  -17.1593 O   0  0  0  0  0  0  0  0  0  0  0  0
   24.7362  -21.1804   -8.6426 O   0  0  0  0  0  0  0  0  0  0  0  0
   25.4728  -20.8952   -9.7812 C   0  0  0  0  0  0  0  0  0  0  0  0
   26.0647  -21.9595  -10.4419 C   0  0  0  0  0  0  0  0  0  0  0  0
   26.8066  -21.6491  -11.5928 C   0  0  0  0  0  0  0  0  0  0  0  0
   26.9482  -20.3608  -12.0542 C   0  0  0  0  0  0  0  0  0  0  0  0
   27.7512  -20.1069  -13.2897 C   0  0  0  0  0  0  0  0  0  0  0  0
   26.9171  -20.3852  -14.5271 C   0  0  2  0  0  0  0  0  0  0  0  0
   27.6087  -20.0766  -15.7385 N   0  0  0  0  0  0  0  0  0  0  0  0
   25.5722  -19.7738  -14.4129 C   0  0  0  0  0  0  0  0  0  0  0  0
   25.4263  -18.5397  -14.7147 O   0  0  0  0  0  0  0  0  0  0  0  0
   26.3431  -19.3080  -11.3712 C   0  0  0  0  0  0  0  0  0  0  0  0
   25.6172  -19.6043  -10.2463 C   0  0  0  0  0  0  0  0  0  0  0  0
   24.4801  -20.5507  -13.9776 N   0  0  0  0  0  0  0  0  0  0  0  0
   23.1425  -19.9305  -13.9419 C   0  0  1  0  0  0  0  0  0  0  0  0
   22.7173  -19.6070  -15.3192 C   0  0  0  0  0  0  0  0  0  0  0  0
   21.3556  -19.0598  -15.4742 C   0  0  0  0  0  0  0  0  0  0  0  0
   20.6804  -19.2568  -16.7571 C   0  0  0  0  0  0  0  0  0  0  0  0
   19.4273  -19.3085  -16.8038 O   0  0  0  0  0  0  0  0  0  0  0  0
   22.2847  -20.8256  -13.2047 C   0  0  0  0  0  0  0  0  0  0  0  0
   22.4318  -22.0892  -13.2197 O   0  0  0  0  0  0  0  0  0  0  0  0
   21.3638  -19.3894  -17.9710 O   0  0  0  0  0  0  0  0  0  0  0  0
   21.2322  -20.2871  -12.4288 O   0  0  0  0  0  0  0  0  0  0  0  0
  2  1  1  6
  3  4  1  0
  3  2  1  0
  4  5  2  0
  5  6  1  0
  7  6  1  0
  8  4  1  0
  8  7  2  0
  9  2  1  0
  9 18  1  0
 10  9  2  0
 12 11  1  0
 13 12  2  0
 14 13  1  0
 15 14  2  0
 15 21  1  0
 17 16  1  1
 16 15  1  0
 17 18  1  0
 19 17  1  0
 20 19  2  0
 21 22  2  0
 22 12  1  0
 23 19  1  0
 24 23  1  0
 24 29  1  0
 25 26  1  0
 24 25  1  6
 26 27  1  0
 27 28  2  0
 29 32  1  0
 30 29  2  0
 31 27  1  0
M  END
$$$$
