HYE.pdb
     RDKit          3D

 32 33  0  0  1  0  0  0  0  0999 V2000
   28.7885  -23.9774  -17.6833 N   0  0  0  0  0  0  0  0  0  0  0  0
   28.0897  -22.6867  -17.5857 C   0  0  1  0  0  0  0  0  0  0  0  0
   27.2634  -22.5906  -18.8635 C   0  0  0  0  0  0  0  0  0  0  0  0
   28.2273  -22.3068  -19.9586 C   0  0  0  0  0  0  0  0  0  0  0  0
   28.4999  -23.0292  -21.1024 C   0  0  0  0  0  0  0  0  0  0  0  0
   29.4550  -22.4216  -21.8266 N   0  0  0  0  0  0  0  0  0  0  0  0
   29.8097  -21.2911  -21.1498 C   0  0  0  0  0  0  0  0  0  0  0  0
   29.0643  -21.2419  -20.0362 N   0  0  0  0  0  0  0  0  0  0  0  0
   27.2181  -22.6727  -16.3874 C   0  0  0  0  0  0  0  0  0  0  0  0
   26.5668  -23.6974  -16.0968 O   0  0  0  0  0  0  0  0  0  0  0  0
   23.6670  -20.5546   -8.6996 O   0  0  0  0  0  0  0  0  0  0  0  0
   24.4212  -20.5058   -9.8611 C   0  0  0  0  0  0  0  0  0  0  0  0
   25.6056  -21.2244   -9.8838 C   0  0  0  0  0  0  0  0  0  0  0  0
   26.3549  -21.1615  -11.0697 C   0  0  0  0  0  0  0  0  0  0  0  0
   25.9484  -20.4296  -12.1613 C   0  0  0  0  0  0  0  0  0  0  0  0
   26.7974  -20.4126  -13.3920 C   0  0  0  0  0  0  0  0  0  0  0  0
   26.2984  -21.4407  -14.3912 C   0  0  2  0  0  0  0  0  0  0  0  0
   27.1132  -21.5110  -15.5626 N   0  0  0  0  0  0  0  0  0  0  0  0
   24.8510  -21.2679  -14.6570 C   0  0  0  0  0  0  0  0  0  0  0  0
   24.4770  -20.3619  -15.4784 O   0  0  0  0  0  0  0  0  0  0  0  0
   24.7531  -19.7154  -12.1127 C   0  0  0  0  0  0  0  0  0  0  0  0
   24.0167  -19.7725  -10.9574 C   0  0  0  0  0  0  0  0  0  0  0  0
   23.9122  -22.0952  -14.0088 N   0  0  0  0  0  0  0  0  0  0  0  0
   22.4795  -21.8977  -14.2975 C   0  0  1  0  0  0  0  0  0  0  0  0
   21.8034  -23.2107  -14.3350 C   0  0  0  0  0  0  0  0  0  0  0  0
   20.3512  -23.1939  -14.5969 C   0  0  0  0  0  0  0  0  0  0  0  0
   19.8571  -23.9278  -15.7622 C   0  0  0  0  0  0  0  0  0  0  0  0
   19.6058  -23.3146  -16.8280 O   0  0  0  0  0  0  0  0  0  0  0  0
   21.9824  -20.9535  -13.3270 C   0  0  0  0  0  0  0  0  0  0  0  0
   22.2145  -21.0599  -12.0806 O   0  0  0  0  0  0  0  0  0  0  0  0
   19.6466  -25.3112  -15.7645 O   0  0  0  0  0  0  0  0  0  0  0  0
   21.2029  -19.8590  -13.7680 O   0  0  0  0  0  0  0  0  0  0  0  0
  2  1  1  6
  3  4  1  0
  3  2  1  0
  4  5  2  0
  5  6  1  0
  7  6  1  0
  8  4  1  0
  8  7  2  0
  9  2  1  0
  9 18  1  0
 10  9  2  0
 12 11  1  0
 13 12  2  0
 14 13  1  0
 15 14  2  0
 15 21  1  0
 17 16  1  1
 16 15  1  0
 17 18  1  0
 19 17  1  0
 20 19  2  0
 21 22  2  0
 22 12  1  0
 23 19  1  0
 24 23  1  0
 24 29  1  0
 25 26  1  0
 24 25  1  1
 26 27  1  0
 27 28  2  0
 29 32  1  0
 30 29  2  0
 31 27  1  0
M  END
$$$$
