HYE.pdb
     RDKit          3D

 32 33  0  0  1  0  0  0  0  0999 V2000
   20.7748  -14.2607  -20.0077 N   0  0  0  0  0  0  0  0  0  0  0  0
   20.2903  -15.6220  -19.7319 C   0  0  1  0  0  0  0  0  0  0  0  0
   21.5524  -16.4575  -19.5478 C   0  0  0  0  0  0  0  0  0  0  0  0
   22.1650  -16.5834  -20.8960 C   0  0  0  0  0  0  0  0  0  0  0  0
   22.9931  -15.7114  -21.5730 C   0  0  0  0  0  0  0  0  0  0  0  0
   23.3143  -16.2080  -22.7797 N   0  0  0  0  0  0  0  0  0  0  0  0
   22.6904  -17.4163  -22.8921 C   0  0  0  0  0  0  0  0  0  0  0  0
   22.0087  -17.6211  -21.7558 N   0  0  0  0  0  0  0  0  0  0  0  0
   19.4665  -15.6258  -18.5002 C   0  0  0  0  0  0  0  0  0  0  0  0
   19.8303  -14.9395  -17.5228 O   0  0  0  0  0  0  0  0  0  0  0  0
   13.7705  -13.1018  -21.3580 O   0  0  0  0  0  0  0  0  0  0  0  0
   14.5091  -13.5750  -20.2852 C   0  0  0  0  0  0  0  0  0  0  0  0
   15.7895  -13.0719  -20.1201 C   0  0  0  0  0  0  0  0  0  0  0  0
   16.5210  -13.5645  -19.0274 C   0  0  0  0  0  0  0  0  0  0  0  0
   16.0079  -14.4977  -18.1566 C   0  0  0  0  0  0  0  0  0  0  0  0
   16.8451  -14.9735  -17.0127 C   0  0  0  0  0  0  0  0  0  0  0  0
   17.3812  -16.3654  -17.2946 C   0  0  2  0  0  0  0  0  0  0  0  0
   18.2675  -16.3979  -18.4146 N   0  0  0  0  0  0  0  0  0  0  0  0
   16.2837  -17.3594  -17.3486 C   0  0  0  0  0  0  0  0  0  0  0  0
   15.6160  -17.4851  -18.4320 O   0  0  0  0  0  0  0  0  0  0  0  0
   14.7175  -14.9880  -18.3450 C   0  0  0  0  0  0  0  0  0  0  0  0
   13.9978  -14.5112  -19.4103 C   0  0  0  0  0  0  0  0  0  0  0  0
   15.9907  -18.1472  -16.2175 N   0  0  0  0  0  0  0  0  0  0  0  0
   14.8686  -19.1011  -16.2933 C   0  0  1  0  0  0  0  0  0  0  0  0
   15.4009  -20.4783  -16.3438 C   0  0  0  0  0  0  0  0  0  0  0  0
   16.5317  -20.7782  -15.4441 C   0  0  0  0  0  0  0  0  0  0  0  0
   17.0044  -22.1611  -15.3762 C   0  0  0  0  0  0  0  0  0  0  0  0
   18.1150  -22.4684  -15.8734 O   0  0  0  0  0  0  0  0  0  0  0  0
   13.9867  -18.7997  -15.1924 C   0  0  0  0  0  0  0  0  0  0  0  0
   12.8902  -19.4154  -14.9996 O   0  0  0  0  0  0  0  0  0  0  0  0
   16.2774  -23.1910  -14.7689 O   0  0  0  0  0  0  0  0  0  0  0  0
   14.3460  -17.7786  -14.2823 O   0  0  0  0  0  0  0  0  0  0  0  0
  2  1  1  1
  3  4  1  0
  3  2  1  0
  4  5  2  0
  5  6  1  0
  7  6  1  0
  8  4  1  0
  8  7  2  0
  9  2  1  0
  9 18  1  0
 10  9  2  0
 12 11  1  0
 13 12  2  0
 14 13  1  0
 15 14  2  0
 15 21  1  0
 17 16  1  6
 16 15  1  0
 17 18  1  0
 19 17  1  0
 20 19  2  0
 21 22  2  0
 22 12  1  0
 23 19  1  0
 24 23  1  0
 24 29  1  0
 25 26  1  0
 24 25  1  1
 26 27  1  0
 27 28  2  0
 29 32  1  0
 30 29  2  0
 31 27  1  0
M  END
$$$$
