HYE.pdb
     RDKit          3D

 32 33  0  0  1  0  0  0  0  0999 V2000
   18.9498  -13.3210  -18.7853 N   0  0  0  0  0  0  0  0  0  0  0  0
   19.7287  -12.7131  -17.6955 C   0  0  1  0  0  0  0  0  0  0  0  0
   20.7105  -13.7968  -17.2637 C   0  0  0  0  0  0  0  0  0  0  0  0
   19.8925  -14.8740  -16.6479 C   0  0  0  0  0  0  0  0  0  0  0  0
   19.2471  -14.9030  -15.4284 C   0  0  0  0  0  0  0  0  0  0  0  0
   18.6241  -16.0807  -15.2533 N   0  0  0  0  0  0  0  0  0  0  0  0
   18.8644  -16.8283  -16.3691 C   0  0  0  0  0  0  0  0  0  0  0  0
   19.6245  -16.0886  -17.1895 N   0  0  0  0  0  0  0  0  0  0  0  0
   20.4450  -11.5151  -18.1930 C   0  0  0  0  0  0  0  0  0  0  0  0
   21.0895  -11.5907  -19.2595 O   0  0  0  0  0  0  0  0  0  0  0  0
   22.7050   -3.8057  -21.0347 O   0  0  0  0  0  0  0  0  0  0  0  0
   22.1321   -4.9946  -20.6119 C   0  0  0  0  0  0  0  0  0  0  0  0
   22.8313   -6.1644  -20.8615 C   0  0  0  0  0  0  0  0  0  0  0  0
   22.2335   -7.3577  -20.4254 C   0  0  0  0  0  0  0  0  0  0  0  0
   21.0177   -7.3817  -19.7822 C   0  0  0  0  0  0  0  0  0  0  0  0
   20.4444   -8.6911  -19.3434 C   0  0  0  0  0  0  0  0  0  0  0  0
   20.9662   -9.0604  -17.9666 C   0  0  2  0  0  0  0  0  0  0  0  0
   20.4087  -10.2804  -17.4752 N   0  0  0  0  0  0  0  0  0  0  0  0
   20.8628   -7.9154  -17.0318 C   0  0  0  0  0  0  0  0  0  0  0  0
   19.7050   -7.5396  -16.6400 O   0  0  0  0  0  0  0  0  0  0  0  0
   20.3346   -6.1912  -19.5436 C   0  0  0  0  0  0  0  0  0  0  0  0
   20.9128   -5.0222  -19.9670 C   0  0  0  0  0  0  0  0  0  0  0  0
   22.0292   -7.2600  -16.5892 N   0  0  0  0  0  0  0  0  0  0  0  0
   21.8941   -6.1562  -15.6206 C   0  0  1  0  0  0  0  0  0  0  0  0
   20.9019   -5.1839  -16.1235 C   0  0  0  0  0  0  0  0  0  0  0  0
   20.4907   -4.1212  -15.1857 C   0  0  0  0  0  0  0  0  0  0  0  0
   19.4602   -3.1807  -15.6259 C   0  0  0  0  0  0  0  0  0  0  0  0
   18.2578   -3.3854  -15.3296 O   0  0  0  0  0  0  0  0  0  0  0  0
   21.6060   -6.7547  -14.3402 C   0  0  0  0  0  0  0  0  0  0  0  0
   21.4794   -8.0103  -14.1794 O   0  0  0  0  0  0  0  0  0  0  0  0
   19.7398   -2.0312  -16.3732 O   0  0  0  0  0  0  0  0  0  0  0  0
   21.4560   -5.9200  -13.2084 O   0  0  0  0  0  0  0  0  0  0  0  0
  2  1  1  6
  3  4  1  0
  3  2  1  0
  4  5  2  0
  5  6  1  0
  7  6  1  0
  8  4  1  0
  8  7  2  0
  9  2  1  0
  9 18  1  0
 10  9  2  0
 12 11  1  0
 13 12  2  0
 14 13  1  0
 15 14  2  0
 15 21  1  0
 17 16  1  6
 16 15  1  0
 17 18  1  0
 19 17  1  0
 20 19  2  0
 21 22  2  0
 22 12  1  0
 23 19  1  0
 24 23  1  0
 24 29  1  0
 25 26  1  0
 24 25  1  6
 26 27  1  0
 27 28  2  0
 29 32  1  0
 30 29  2  0
 31 27  1  0
M  END
$$$$
