HYE.pdb
     RDKit          3D

 32 33  0  0  1  0  0  0  0  0999 V2000
   17.3511  -11.8565    6.6014 N   0  0  0  0  0  0  0  0  0  0  0  0
   18.1650  -13.0585    6.3632 C   0  0  1  0  0  0  0  0  0  0  0  0
   18.8173  -13.3628    7.7073 C   0  0  0  0  0  0  0  0  0  0  0  0
   20.0586  -12.5472    7.7584 C   0  0  0  0  0  0  0  0  0  0  0  0
   20.6200  -11.7348    6.7943 C   0  0  0  0  0  0  0  0  0  0  0  0
   21.7584  -11.1833    7.2479 N   0  0  0  0  0  0  0  0  0  0  0  0
   21.9426  -11.6394    8.5207 C   0  0  0  0  0  0  0  0  0  0  0  0
   20.9157  -12.4532    8.8058 N   0  0  0  0  0  0  0  0  0  0  0  0
   17.2978  -14.1785    5.9281 C   0  0  0  0  0  0  0  0  0  0  0  0
   16.1498  -14.2810    6.4079 O   0  0  0  0  0  0  0  0  0  0  0  0
   14.0346  -21.0547    1.6259 O   0  0  0  0  0  0  0  0  0  0  0  0
   14.7666  -19.9334    1.9826 C   0  0  0  0  0  0  0  0  0  0  0  0
   16.1443  -20.0646    2.0480 C   0  0  0  0  0  0  0  0  0  0  0  0
   16.8673  -18.9171    2.4113 C   0  0  0  0  0  0  0  0  0  0  0  0
   16.2551  -17.7172    2.6909 C   0  0  0  0  0  0  0  0  0  0  0  0
   17.0910  -16.5362    3.0680 C   0  0  0  0  0  0  0  0  0  0  0  0
   16.9865  -16.2706    4.5589 C   0  0  2  0  0  0  0  0  0  0  0  0
   17.7523  -15.1374    4.9716 N   0  0  0  0  0  0  0  0  0  0  0  0
   17.2414  -17.5038    5.3399 C   0  0  0  0  0  0  0  0  0  0  0  0
   18.4499  -17.8751    5.5325 O   0  0  0  0  0  0  0  0  0  0  0  0
   14.8678  -17.6117    2.6181 C   0  0  0  0  0  0  0  0  0  0  0  0
   14.1559  -18.7287    2.2639 C   0  0  0  0  0  0  0  0  0  0  0  0
   16.1608  -18.2461    5.8567 N   0  0  0  0  0  0  0  0  0  0  0  0
   16.4429  -19.5265    6.5318 C   0  0  1  0  0  0  0  0  0  0  0  0
   16.7766  -20.5493    5.5193 C   0  0  0  0  0  0  0  0  0  0  0  0
   17.1143  -21.8923    6.0295 C   0  0  0  0  0  0  0  0  0  0  0  0
   17.4917  -22.9188    5.0578 C   0  0  0  0  0  0  0  0  0  0  0  0
   18.7028  -23.1164    4.7942 O   0  0  0  0  0  0  0  0  0  0  0  0
   17.4535  -19.2625    7.5265 C   0  0  0  0  0  0  0  0  0  0  0  0
   18.1762  -18.2156    7.5134 O   0  0  0  0  0  0  0  0  0  0  0  0
   16.5606  -23.7211    4.3890 O   0  0  0  0  0  0  0  0  0  0  0  0
   17.6585  -20.2001    8.5652 O   0  0  0  0  0  0  0  0  0  0  0  0
  2  1  1  1
  3  4  1  0
  3  2  1  0
  4  5  2  0
  5  6  1  0
  7  6  1  0
  8  4  1  0
  8  7  2  0
  9  2  1  0
  9 18  1  0
 10  9  2  0
 12 11  1  0
 13 12  2  0
 14 13  1  0
 15 14  2  0
 15 21  1  0
 17 16  1  6
 16 15  1  0
 17 18  1  0
 19 17  1  0
 20 19  2  0
 21 22  2  0
 22 12  1  0
 23 19  1  0
 24 23  1  0
 24 29  1  0
 25 26  1  0
 24 25  1  6
 26 27  1  0
 27 28  2  0
 29 32  1  0
 30 29  2  0
 31 27  1  0
M  END
$$$$
