HYE.pdb
     RDKit          3D

 32 33  0  0  1  0  0  0  0  0999 V2000
   25.3746  -35.2193  -13.2863 N   0  0  0  0  0  0  0  0  0  0  0  0
   24.5175  -34.5089  -12.3249 C   0  0  1  0  0  0  0  0  0  0  0  0
   23.1721  -35.2226  -12.3971 C   0  0  0  0  0  0  0  0  0  0  0  0
   22.5888  -34.8724  -13.7184 C   0  0  0  0  0  0  0  0  0  0  0  0
   22.3588  -35.6710  -14.8202 C   0  0  0  0  0  0  0  0  0  0  0  0
   21.8223  -34.9509  -15.8199 N   0  0  0  0  0  0  0  0  0  0  0  0
   21.7001  -33.6696  -15.3669 C   0  0  0  0  0  0  0  0  0  0  0  0
   22.1643  -33.6446  -14.1092 N   0  0  0  0  0  0  0  0  0  0  0  0
   25.0967  -34.6039  -10.9643 C   0  0  0  0  0  0  0  0  0  0  0  0
   25.4929  -35.7122  -10.5478 O   0  0  0  0  0  0  0  0  0  0  0  0
   27.4912  -32.5538   -2.7934 O   0  0  0  0  0  0  0  0  0  0  0  0
   27.1027  -32.4396   -4.1187 C   0  0  0  0  0  0  0  0  0  0  0  0
   28.0039  -32.8537   -5.0861 C   0  0  0  0  0  0  0  0  0  0  0  0
   27.5910  -32.7294   -6.4224 C   0  0  0  0  0  0  0  0  0  0  0  0
   26.3592  -32.2252   -6.7701 C   0  0  0  0  0  0  0  0  0  0  0  0
   25.9872  -32.1259   -8.2149 C   0  0  0  0  0  0  0  0  0  0  0  0
   25.6542  -33.4992   -8.7694 C   0  0  2  0  0  0  0  0  0  0  0  0
   25.2096  -33.4524  -10.1263 N   0  0  0  0  0  0  0  0  0  0  0  0
   24.7578  -34.2419   -7.8527 C   0  0  0  0  0  0  0  0  0  0  0  0
   23.4976  -34.0348   -7.9177 O   0  0  0  0  0  0  0  0  0  0  0  0
   25.4711  -31.8155   -5.7779 C   0  0  0  0  0  0  0  0  0  0  0  0
   25.8683  -31.9340   -4.4709 C   0  0  0  0  0  0  0  0  0  0  0  0
   25.2980  -35.1590   -6.9292 N   0  0  0  0  0  0  0  0  0  0  0  0
   24.3778  -35.8803   -6.0304 C   0  0  1  0  0  0  0  0  0  0  0  0
   24.0901  -37.2150   -6.5948 C   0  0  0  0  0  0  0  0  0  0  0  0
   23.1544  -38.0628   -5.8309 C   0  0  0  0  0  0  0  0  0  0  0  0
   23.5763  -39.4246   -5.5027 C   0  0  0  0  0  0  0  0  0  0  0  0
   23.9936  -40.1864   -6.4087 O   0  0  0  0  0  0  0  0  0  0  0  0
   24.9726  -35.8598   -4.7165 C   0  0  0  0  0  0  0  0  0  0  0  0
   24.3048  -36.0709   -3.6545 O   0  0  0  0  0  0  0  0  0  0  0  0
   23.5484  -39.9440   -4.2037 O   0  0  0  0  0  0  0  0  0  0  0  0
   26.3562  -35.5948   -4.5914 O   0  0  0  0  0  0  0  0  0  0  0  0
  2  1  1  6
  3  4  1  0
  3  2  1  0
  4  5  2  0
  5  6  1  0
  7  6  1  0
  8  4  1  0
  8  7  2  0
  9  2  1  0
  9 18  1  0
 10  9  2  0
 12 11  1  0
 13 12  2  0
 14 13  1  0
 15 14  2  0
 15 21  1  0
 17 16  1  1
 16 15  1  0
 17 18  1  0
 19 17  1  0
 20 19  2  0
 21 22  2  0
 22 12  1  0
 23 19  1  0
 24 23  1  0
 24 29  1  0
 25 26  1  0
 24 25  1  6
 26 27  1  0
 27 28  2  0
 29 32  1  0
 30 29  2  0
 31 27  1  0
M  END
$$$$
