HYE.pdb
     RDKit          3D

 32 33  0  0  1  0  0  0  0  0999 V2000
   16.7793  -11.5401  -17.3097 N   0  0  0  0  0  0  0  0  0  0  0  0
   17.9885  -11.0426  -16.6357 C   0  0  1  0  0  0  0  0  0  0  0  0
   19.1498  -11.6380  -17.4241 C   0  0  0  0  0  0  0  0  0  0  0  0
   19.1470  -13.0943  -17.1276 C   0  0  0  0  0  0  0  0  0  0  0  0
   19.1309  -13.7463  -15.9114 C   0  0  0  0  0  0  0  0  0  0  0  0
   19.1453  -15.0781  -16.0908 N   0  0  0  0  0  0  0  0  0  0  0  0
   19.1708  -15.2984  -17.4371 C   0  0  0  0  0  0  0  0  0  0  0  0
   19.1718  -14.0997  -18.0381 N   0  0  0  0  0  0  0  0  0  0  0  0
   18.0198   -9.5618  -16.6810 C   0  0  0  0  0  0  0  0  0  0  0  0
   17.7961   -8.9813  -17.7634 O   0  0  0  0  0  0  0  0  0  0  0  0
   12.2068   -7.5619  -17.0513 O   0  0  0  0  0  0  0  0  0  0  0  0
   13.4447   -7.3454  -16.4672 C   0  0  0  0  0  0  0  0  0  0  0  0
   13.9231   -8.3192  -15.6056 C   0  0  0  0  0  0  0  0  0  0  0  0
   15.1788   -8.0805  -15.0243 C   0  0  0  0  0  0  0  0  0  0  0  0
   15.9090   -6.9444  -15.2861 C   0  0  0  0  0  0  0  0  0  0  0  0
   17.2411   -6.7603  -14.6323 C   0  0  0  0  0  0  0  0  0  0  0  0
   18.3379   -7.3638  -15.4909 C   0  0  2  0  0  0  0  0  0  0  0  0
   18.2992   -8.7917  -15.5105 N   0  0  0  0  0  0  0  0  0  0  0  0
   19.6600   -6.7881  -15.1503 C   0  0  0  0  0  0  0  0  0  0  0  0
   20.6099   -7.5760  -14.8154 O   0  0  0  0  0  0  0  0  0  0  0  0
   15.4052   -5.9800  -16.1562 C   0  0  0  0  0  0  0  0  0  0  0  0
   14.1794   -6.2070  -16.7272 C   0  0  0  0  0  0  0  0  0  0  0  0
   19.8543   -5.3932  -15.1988 N   0  0  0  0  0  0  0  0  0  0  0  0
   21.2222   -4.8653  -15.0402 C   0  0  1  0  0  0  0  0  0  0  0  0
   22.1025   -5.4768  -16.0570 C   0  0  0  0  0  0  0  0  0  0  0  0
   23.5101   -5.0335  -16.0586 C   0  0  0  0  0  0  0  0  0  0  0  0
   24.3791   -5.5175  -17.1315 C   0  0  0  0  0  0  0  0  0  0  0  0
   23.9212   -6.2908  -18.0075 O   0  0  0  0  0  0  0  0  0  0  0  0
   21.1225   -3.4267  -15.0673 C   0  0  0  0  0  0  0  0  0  0  0  0
   20.2651   -2.8087  -15.7756 O   0  0  0  0  0  0  0  0  0  0  0  0
   25.7262   -5.1573  -17.2486 O   0  0  0  0  0  0  0  0  0  0  0  0
   22.0099   -2.6601  -14.2769 O   0  0  0  0  0  0  0  0  0  0  0  0
  2  1  1  6
  3  4  1  0
  3  2  1  0
  4  5  2  0
  5  6  1  0
  7  6  1  0
  8  4  1  0
  8  7  2  0
  9  2  1  0
  9 18  1  0
 10  9  2  0
 12 11  1  0
 13 12  2  0
 14 13  1  0
 15 14  2  0
 15 21  1  0
 17 16  1  1
 16 15  1  0
 17 18  1  0
 19 17  1  0
 20 19  2  0
 21 22  2  0
 22 12  1  0
 23 19  1  0
 24 23  1  0
 24 29  1  0
 25 26  1  0
 24 25  1  6
 26 27  1  0
 27 28  2  0
 29 32  1  0
 30 29  2  0
 31 27  1  0
M  END
$$$$
