HYE.pdb
     RDKit          3D

 32 33  0  0  1  0  0  0  0  0999 V2000
   23.9879  -11.0108  -18.1430 N   0  0  0  0  0  0  0  0  0  0  0  0
   23.9088  -10.0615  -19.2640 C   0  0  1  0  0  0  0  0  0  0  0  0
   23.2753  -10.8523  -20.4033 C   0  0  0  0  0  0  0  0  0  0  0  0
   24.2548  -11.9092  -20.7674 C   0  0  0  0  0  0  0  0  0  0  0  0
   25.2911  -11.8748  -21.6782 C   0  0  0  0  0  0  0  0  0  0  0  0
   25.9314  -13.0559  -21.7077 N   0  0  0  0  0  0  0  0  0  0  0  0
   25.3078  -13.8697  -20.8073 C   0  0  0  0  0  0  0  0  0  0  0  0
   24.3086  -13.1650  -20.2570 N   0  0  0  0  0  0  0  0  0  0  0  0
   23.0643   -8.9036  -18.8875 C   0  0  0  0  0  0  0  0  0  0  0  0
   22.8247   -8.0228  -19.7393 O   0  0  0  0  0  0  0  0  0  0  0  0
   17.5929   -9.9555  -21.6073 O   0  0  0  0  0  0  0  0  0  0  0  0
   18.2308   -9.5387  -20.4497 C   0  0  0  0  0  0  0  0  0  0  0  0
   18.7680  -10.5173  -19.6292 C   0  0  0  0  0  0  0  0  0  0  0  0
   19.4097  -10.0741  -18.4615 C   0  0  0  0  0  0  0  0  0  0  0  0
   19.5088   -8.7414  -18.1346 C   0  0  0  0  0  0  0  0  0  0  0  0
   20.2102   -8.3441  -16.8753 C   0  0  0  0  0  0  0  0  0  0  0  0
   21.5810   -7.7743  -17.1924 C   0  0  2  0  0  0  0  0  0  0  0  0
   22.5215   -8.7806  -17.5718 N   0  0  0  0  0  0  0  0  0  0  0  0
   22.0465   -6.8716  -16.1135 C   0  0  0  0  0  0  0  0  0  0  0  0
   22.8855   -7.3141  -15.2560 O   0  0  0  0  0  0  0  0  0  0  0  0
   18.9598   -7.7770  -18.9768 C   0  0  0  0  0  0  0  0  0  0  0  0
   18.3316   -8.2032  -20.1187 C   0  0  0  0  0  0  0  0  0  0  0  0
   21.5646   -5.5491  -16.0450 N   0  0  0  0  0  0  0  0  0  0  0  0
   22.1317   -4.6431  -15.0289 C   0  0  1  0  0  0  0  0  0  0  0  0
   21.7015   -3.2589  -15.3142 C   0  0  0  0  0  0  0  0  0  0  0  0
   22.1107   -2.2301  -14.3385 C   0  0  0  0  0  0  0  0  0  0  0  0
   21.6614   -0.8561  -14.5632 C   0  0  0  0  0  0  0  0  0  0  0  0
   21.0076   -0.5721  -15.5963 O   0  0  0  0  0  0  0  0  0  0  0  0
   21.7589   -5.1725  -13.7400 C   0  0  0  0  0  0  0  0  0  0  0  0
   20.6817   -5.8214  -13.5471 O   0  0  0  0  0  0  0  0  0  0  0  0
   21.9174    0.1903  -13.6701 O   0  0  0  0  0  0  0  0  0  0  0  0
   22.6195   -4.9678  -12.6367 O   0  0  0  0  0  0  0  0  0  0  0  0
  2  1  1  1
  3  4  1  0
  3  2  1  0
  4  5  2  0
  5  6  1  0
  7  6  1  0
  8  4  1  0
  8  7  2  0
  9  2  1  0
  9 18  1  0
 10  9  2  0
 12 11  1  0
 13 12  2  0
 14 13  1  0
 15 14  2  0
 15 21  1  0
 17 16  1  1
 16 15  1  0
 17 18  1  0
 19 17  1  0
 20 19  2  0
 21 22  2  0
 22 12  1  0
 23 19  1  0
 24 23  1  0
 24 29  1  0
 25 26  1  0
 24 25  1  6
 26 27  1  0
 27 28  2  0
 29 32  1  0
 30 29  2  0
 31 27  1  0
M  END
$$$$
