HYE.pdb
     RDKit          3D

 32 33  0  0  1  0  0  0  0  0999 V2000
   27.7886  -21.2522  -18.2861 N   0  0  0  0  0  0  0  0  0  0  0  0
   27.7498  -20.2219  -17.2369 C   0  0  1  0  0  0  0  0  0  0  0  0
   27.0818  -19.0188  -17.8935 C   0  0  0  0  0  0  0  0  0  0  0  0
   28.0917  -18.4378  -18.8162 C   0  0  0  0  0  0  0  0  0  0  0  0
   29.3524  -17.9454  -18.5464 C   0  0  0  0  0  0  0  0  0  0  0  0
   29.9353  -17.5010  -19.6727 N   0  0  0  0  0  0  0  0  0  0  0  0
   29.0473  -17.7054  -20.6883 C   0  0  0  0  0  0  0  0  0  0  0  0
   27.9522  -18.2657  -20.1547 N   0  0  0  0  0  0  0  0  0  0  0  0
   26.9566  -20.7052  -16.0824 C   0  0  0  0  0  0  0  0  0  0  0  0
   25.8608  -21.2665  -16.2894 O   0  0  0  0  0  0  0  0  0  0  0  0
   23.9439  -21.0036   -7.8431 O   0  0  0  0  0  0  0  0  0  0  0  0
   24.7871  -20.9250   -8.9400 C   0  0  0  0  0  0  0  0  0  0  0  0
   25.3597  -19.6944   -9.2183 C   0  0  0  0  0  0  0  0  0  0  0  0
   26.2105  -19.6362  -10.3337 C   0  0  0  0  0  0  0  0  0  0  0  0
   26.4728  -20.7344  -11.1197 C   0  0  0  0  0  0  0  0  0  0  0  0
   27.3927  -20.5972  -12.2904 C   0  0  0  0  0  0  0  0  0  0  0  0
   26.6345  -20.8220  -13.5861 C   0  0  2  0  0  0  0  0  0  0  0  0
   27.4247  -20.5409  -14.7427 N   0  0  0  0  0  0  0  0  0  0  0  0
   25.3183  -20.1419  -13.5592 C   0  0  0  0  0  0  0  0  0  0  0  0
   25.2748  -18.8728  -13.7098 O   0  0  0  0  0  0  0  0  0  0  0  0
   25.8840  -21.9606  -10.8185 C   0  0  0  0  0  0  0  0  0  0  0  0
   25.0519  -22.0243   -9.7305 C   0  0  0  0  0  0  0  0  0  0  0  0
   24.1411  -20.8932  -13.3703 N   0  0  0  0  0  0  0  0  0  0  0  0
   22.8459  -20.1881  -13.3733 C   0  0  1  0  0  0  0  0  0  0  0  0
   22.5096  -19.7905  -14.7559 C   0  0  0  0  0  0  0  0  0  0  0  0
   21.1808  -19.1814  -14.9588 C   0  0  0  0  0  0  0  0  0  0  0  0
   20.8075  -18.7898  -16.3182 C   0  0  0  0  0  0  0  0  0  0  0  0
   20.8183  -17.5784  -16.6462 O   0  0  0  0  0  0  0  0  0  0  0  0
   21.8977  -21.0497  -12.7106 C   0  0  0  0  0  0  0  0  0  0  0  0
   22.0536  -22.3095  -12.6258 O   0  0  0  0  0  0  0  0  0  0  0  0
   20.4339  -19.7083  -17.3055 O   0  0  0  0  0  0  0  0  0  0  0  0
   20.7421  -20.4810  -12.1265 O   0  0  0  0  0  0  0  0  0  0  0  0
  2  1  1  6
  3  4  1  0
  3  2  1  0
  4  5  2  0
  5  6  1  0
  7  6  1  0
  8  4  1  0
  8  7  2  0
  9  2  1  0
  9 18  1  0
 10  9  2  0
 12 11  1  0
 13 12  2  0
 14 13  1  0
 15 14  2  0
 15 21  1  0
 17 16  1  1
 16 15  1  0
 17 18  1  0
 19 17  1  0
 20 19  2  0
 21 22  2  0
 22 12  1  0
 23 19  1  0
 24 23  1  0
 24 29  1  0
 25 26  1  0
 24 25  1  6
 26 27  1  0
 27 28  2  0
 29 32  1  0
 30 29  2  0
 31 27  1  0
M  END
$$$$
