HYE.pdb
     RDKit          3D

 32 33  0  0  1  0  0  0  0  0999 V2000
   22.8182  -25.1365  -15.9354 N   0  0  0  0  0  0  0  0  0  0  0  0
   21.6109  -25.6323  -15.2570 C   0  0  1  0  0  0  0  0  0  0  0  0
   22.0402  -26.9384  -14.5976 C   0  0  0  0  0  0  0  0  0  0  0  0
   22.1753  -27.9308  -15.6956 C   0  0  0  0  0  0  0  0  0  0  0  0
   21.2993  -28.2417  -16.7157 C   0  0  0  0  0  0  0  0  0  0  0  0
   21.8079  -29.2123  -17.4936 N   0  0  0  0  0  0  0  0  0  0  0  0
   23.0280  -29.5385  -16.9772 C   0  0  0  0  0  0  0  0  0  0  0  0
   23.2278  -28.7613  -15.9030 N   0  0  0  0  0  0  0  0  0  0  0  0
   21.1600  -24.6492  -14.2441 C   0  0  0  0  0  0  0  0  0  0  0  0
   21.8944  -24.4045  -13.2646 O   0  0  0  0  0  0  0  0  0  0  0  0
   24.3256  -19.7269  -15.9366 O   0  0  0  0  0  0  0  0  0  0  0  0
   23.0901  -20.1987  -15.5226 C   0  0  0  0  0  0  0  0  0  0  0  0
   22.6982  -19.9096  -14.2255 C   0  0  0  0  0  0  0  0  0  0  0  0
   21.4435  -20.3969  -13.8259 C   0  0  0  0  0  0  0  0  0  0  0  0
   20.6330  -21.1249  -14.6660 C   0  0  0  0  0  0  0  0  0  0  0  0
   19.3074  -21.6084  -14.1713 C   0  0  0  0  0  0  0  0  0  0  0  0
   19.4598  -22.9526  -13.4828 C   0  0  2  0  0  0  0  0  0  0  0  0
   19.9046  -23.9792  -14.3711 N   0  0  0  0  0  0  0  0  0  0  0  0
   18.2459  -23.2945  -12.7049 C   0  0  0  0  0  0  0  0  0  0  0  0
   17.2527  -23.8258  -13.3104 O   0  0  0  0  0  0  0  0  0  0  0  0
   21.0507  -21.4023  -15.9658 C   0  0  0  0  0  0  0  0  0  0  0  0
   22.2751  -20.9294  -16.3624 C   0  0  0  0  0  0  0  0  0  0  0  0
   18.1997  -23.0335  -11.3209 N   0  0  0  0  0  0  0  0  0  0  0  0
   17.0060  -23.4528  -10.5631 C   0  0  1  0  0  0  0  0  0  0  0  0
   17.3524  -23.5697   -9.1317 C   0  0  0  0  0  0  0  0  0  0  0  0
   18.2325  -24.6942   -8.7592 C   0  0  0  0  0  0  0  0  0  0  0  0
   18.7359  -24.7439   -7.3864 C   0  0  0  0  0  0  0  0  0  0  0  0
   19.6529  -23.9659   -7.0271 O   0  0  0  0  0  0  0  0  0  0  0  0
   15.9537  -22.5216  -10.8891 C   0  0  0  0  0  0  0  0  0  0  0  0
   16.1677  -21.2844  -11.0942 O   0  0  0  0  0  0  0  0  0  0  0  0
   18.2409  -25.6261   -6.4196 O   0  0  0  0  0  0  0  0  0  0  0  0
   14.6239  -22.9927  -10.9878 O   0  0  0  0  0  0  0  0  0  0  0  0
  2  1  1  1
  3  4  1  0
  3  2  1  0
  4  5  2  0
  5  6  1  0
  7  6  1  0
  8  4  1  0
  8  7  2  0
  9  2  1  0
  9 18  1  0
 10  9  2  0
 12 11  1  0
 13 12  2  0
 14 13  1  0
 15 14  2  0
 15 21  1  0
 17 16  1  6
 16 15  1  0
 17 18  1  0
 19 17  1  0
 20 19  2  0
 21 22  2  0
 22 12  1  0
 23 19  1  0
 24 23  1  0
 24 29  1  0
 25 26  1  0
 24 25  1  1
 26 27  1  0
 27 28  2  0
 29 32  1  0
 30 29  2  0
 31 27  1  0
M  END
$$$$
