HYE.pdb
     RDKit          3D

 32 33  0  0  1  0  0  0  0  0999 V2000
   25.3930  -10.7158  -19.0227 N   0  0  0  0  0  0  0  0  0  0  0  0
   25.0465  -10.6790  -17.5936 C   0  0  1  0  0  0  0  0  0  0  0  0
   25.9202   -9.5759  -17.0066 C   0  0  0  0  0  0  0  0  0  0  0  0
   27.3097  -10.1033  -17.0104 C   0  0  0  0  0  0  0  0  0  0  0  0
   28.4667   -9.5358  -17.5043 C   0  0  0  0  0  0  0  0  0  0  0  0
   29.5130  -10.3570  -17.3125 N   0  0  0  0  0  0  0  0  0  0  0  0
   29.0352  -11.4716  -16.6870 C   0  0  0  0  0  0  0  0  0  0  0  0
   27.7165  -11.2995  -16.5163 N   0  0  0  0  0  0  0  0  0  0  0  0
   23.6085  -10.3611  -17.4299 C   0  0  0  0  0  0  0  0  0  0  0  0
   23.1102   -9.4335  -18.1006 O   0  0  0  0  0  0  0  0  0  0  0  0
   15.0777  -11.1195  -15.7807 O   0  0  0  0  0  0  0  0  0  0  0  0
   16.4423  -11.3558  -15.8298 C   0  0  0  0  0  0  0  0  0  0  0  0
   17.0992  -11.5562  -14.6266 C   0  0  0  0  0  0  0  0  0  0  0  0
   18.4812  -11.7938  -14.6983 C   0  0  0  0  0  0  0  0  0  0  0  0
   19.1627  -11.8291  -15.8929 C   0  0  0  0  0  0  0  0  0  0  0  0
   20.6348  -12.0911  -15.8914 C   0  0  0  0  0  0  0  0  0  0  0  0
   21.3912  -10.8534  -16.3390 C   0  0  2  0  0  0  0  0  0  0  0  0
   22.7870  -11.0969  -16.5217 N   0  0  0  0  0  0  0  0  0  0  0  0
   21.0766   -9.6932  -15.4727 C   0  0  0  0  0  0  0  0  0  0  0  0
   21.6275   -9.6137  -14.3214 O   0  0  0  0  0  0  0  0  0  0  0  0
   18.4787  -11.6241  -17.0891 C   0  0  0  0  0  0  0  0  0  0  0  0
   17.1288  -11.3915  -17.0260 C   0  0  0  0  0  0  0  0  0  0  0  0
   20.1832   -8.7004  -15.9222 N   0  0  0  0  0  0  0  0  0  0  0  0
   19.9620   -7.5140  -15.0746 C   0  0  1  0  0  0  0  0  0  0  0  0
   20.6176   -6.3432  -15.6928 C   0  0  0  0  0  0  0  0  0  0  0  0
   21.8813   -5.8965  -15.0753 C   0  0  0  0  0  0  0  0  0  0  0  0
   22.3537   -4.5464  -15.3826 C   0  0  0  0  0  0  0  0  0  0  0  0
   21.6753   -3.8005  -16.1300 O   0  0  0  0  0  0  0  0  0  0  0  0
   18.5391   -7.4087  -14.8634 C   0  0  0  0  0  0  0  0  0  0  0  0
   17.6845   -7.8494  -15.6964 O   0  0  0  0  0  0  0  0  0  0  0  0
   23.5461   -4.0174  -14.8761 O   0  0  0  0  0  0  0  0  0  0  0  0
   18.0622   -6.7914  -13.6838 O   0  0  0  0  0  0  0  0  0  0  0  0
  2  1  1  6
  3  4  1  0
  3  2  1  0
  4  5  2  0
  5  6  1  0
  7  6  1  0
  8  4  1  0
  8  7  2  0
  9  2  1  0
  9 18  1  0
 10  9  2  0
 12 11  1  0
 13 12  2  0
 14 13  1  0
 15 14  2  0
 15 21  1  0
 17 16  1  1
 16 15  1  0
 17 18  1  0
 19 17  1  0
 20 19  2  0
 21 22  2  0
 22 12  1  0
 23 19  1  0
 24 23  1  0
 24 29  1  0
 25 26  1  0
 24 25  1  6
 26 27  1  0
 27 28  2  0
 29 32  1  0
 30 29  2  0
 31 27  1  0
M  END
$$$$
