HYE.pdb
     RDKit          3D

 32 33  0  0  1  0  0  0  0  0999 V2000
   33.8554  -36.1499   -3.6119 N   0  0  0  0  0  0  0  0  0  0  0  0
   33.1251  -36.2798   -4.8822 C   0  0  1  0  0  0  0  0  0  0  0  0
   32.9797  -37.7820   -5.0990 C   0  0  0  0  0  0  0  0  0  0  0  0
   34.2672  -38.2420   -5.6816 C   0  0  0  0  0  0  0  0  0  0  0  0
   34.9688  -37.7541   -6.7653 C   0  0  0  0  0  0  0  0  0  0  0  0
   36.0888  -38.4701   -6.9622 N   0  0  0  0  0  0  0  0  0  0  0  0
   36.1196  -39.4349   -5.9978 C   0  0  0  0  0  0  0  0  0  0  0  0
   35.0218  -39.2809   -5.2435 N   0  0  0  0  0  0  0  0  0  0  0  0
   31.7987  -35.6284   -4.7720 C   0  0  0  0  0  0  0  0  0  0  0  0
   31.1521  -35.7405   -3.7099 O   0  0  0  0  0  0  0  0  0  0  0  0
   24.2871  -31.7597   -7.0202 O   0  0  0  0  0  0  0  0  0  0  0  0
   25.6159  -32.1529   -7.0374 C   0  0  0  0  0  0  0  0  0  0  0  0
   26.2478  -32.3210   -5.8160 C   0  0  0  0  0  0  0  0  0  0  0  0
   27.5937  -32.7193   -5.8556 C   0  0  0  0  0  0  0  0  0  0  0  0
   28.2646  -32.9359   -7.0369 C   0  0  0  0  0  0  0  0  0  0  0  0
   29.6972  -33.3623   -7.0007 C   0  0  0  0  0  0  0  0  0  0  0  0
   29.9288  -34.3367   -5.8600 C   0  0  2  0  0  0  0  0  0  0  0  0
   31.2515  -34.8764   -5.8565 N   0  0  0  0  0  0  0  0  0  0  0  0
   28.8498  -35.3503   -5.7965 C   0  0  0  0  0  0  0  0  0  0  0  0
   28.7201  -36.1769   -6.7635 O   0  0  0  0  0  0  0  0  0  0  0  0
   27.6062  -32.7595   -8.2520 C   0  0  0  0  0  0  0  0  0  0  0  0
   26.2917  -32.3705   -8.2203 C   0  0  0  0  0  0  0  0  0  0  0  0
   27.9875  -35.3920   -4.6827 N   0  0  0  0  0  0  0  0  0  0  0  0
   26.9034  -36.3917   -4.6666 C   0  0  1  0  0  0  0  0  0  0  0  0
   27.2850  -37.5117   -3.7818 C   0  0  0  0  0  0  0  0  0  0  0  0
   28.0106  -38.6301   -4.4146 C   0  0  0  0  0  0  0  0  0  0  0  0
   28.4516  -39.7316   -3.5587 C   0  0  0  0  0  0  0  0  0  0  0  0
   28.1485  -39.7383   -2.3408 O   0  0  0  0  0  0  0  0  0  0  0  0
   25.6916  -35.6908   -4.3192 C   0  0  0  0  0  0  0  0  0  0  0  0
   24.5889  -35.8790   -4.9253 O   0  0  0  0  0  0  0  0  0  0  0  0
   29.2073  -40.8120   -4.0276 O   0  0  0  0  0  0  0  0  0  0  0  0
   25.7183  -34.7523   -3.2617 O   0  0  0  0  0  0  0  0  0  0  0  0
  2  1  1  1
  3  4  1  0
  3  2  1  0
  4  5  2  0
  5  6  1  0
  7  6  1  0
  8  4  1  0
  8  7  2  0
  9  2  1  0
  9 18  1  0
 10  9  2  0
 12 11  1  0
 13 12  2  0
 14 13  1  0
 15 14  2  0
 15 21  1  0
 17 16  1  6
 16 15  1  0
 17 18  1  0
 19 17  1  0
 20 19  2  0
 21 22  2  0
 22 12  1  0
 23 19  1  0
 24 23  1  0
 24 29  1  0
 25 26  1  0
 24 25  1  1
 26 27  1  0
 27 28  2  0
 29 32  1  0
 30 29  2  0
 31 27  1  0
M  END
$$$$
