HYE.pdb
     RDKit          3D

 32 33  0  0  1  0  0  0  0  0999 V2000
   25.0559  -20.6995  -17.7801 N   0  0  0  0  0  0  0  0  0  0  0  0
   23.5856  -20.7221  -17.8173 C   0  0  1  0  0  0  0  0  0  0  0  0
   23.2352  -21.8520  -18.7793 C   0  0  0  0  0  0  0  0  0  0  0  0
   23.6235  -21.3775  -20.1331 C   0  0  0  0  0  0  0  0  0  0  0  0
   22.8707  -20.7248  -21.0881 C   0  0  0  0  0  0  0  0  0  0  0  0
   23.6084  -20.4835  -22.1851 N   0  0  0  0  0  0  0  0  0  0  0  0
   24.8552  -20.9830  -21.9447 C   0  0  0  0  0  0  0  0  0  0  0  0
   24.8424  -21.5131  -20.7131 N   0  0  0  0  0  0  0  0  0  0  0  0
   23.0494  -20.9926  -16.4627 C   0  0  0  0  0  0  0  0  0  0  0  0
   23.6701  -21.7681  -15.7063 O   0  0  0  0  0  0  0  0  0  0  0  0
   19.8684  -14.5072  -16.1488 O   0  0  0  0  0  0  0  0  0  0  0  0
   20.3465  -15.6806  -15.5878 C   0  0  0  0  0  0  0  0  0  0  0  0
   19.5648  -16.2903  -14.6199 C   0  0  0  0  0  0  0  0  0  0  0  0
   20.0673  -17.4778  -14.0641 C   0  0  0  0  0  0  0  0  0  0  0  0
   21.2710  -18.0212  -14.4494 C   0  0  0  0  0  0  0  0  0  0  0  0
   21.7404  -19.2912  -13.8152 C   0  0  0  0  0  0  0  0  0  0  0  0
   21.3523  -20.4831  -14.6713 C   0  0  2  0  0  0  0  0  0  0  0  0
   21.8399  -20.3816  -16.0103 N   0  0  0  0  0  0  0  0  0  0  0  0
   19.9022  -20.7680  -14.5638 C   0  0  0  0  0  0  0  0  0  0  0  0
   19.1270  -20.3959  -15.5103 O   0  0  0  0  0  0  0  0  0  0  0  0
   22.0383  -17.3882  -15.4249 C   0  0  0  0  0  0  0  0  0  0  0  0
   21.5533  -16.2280  -15.9716 C   0  0  0  0  0  0  0  0  0  0  0  0
   19.3984  -21.4389  -13.4316 N   0  0  0  0  0  0  0  0  0  0  0  0
   17.9414  -21.6381  -13.3196 C   0  0  1  0  0  0  0  0  0  0  0  0
   17.6711  -22.7535  -12.3891 C   0  0  0  0  0  0  0  0  0  0  0  0
   18.2669  -24.0579  -12.7376 C   0  0  0  0  0  0  0  0  0  0  0  0
   17.9923  -25.1932  -11.8566 C   0  0  0  0  0  0  0  0  0  0  0  0
   16.9970  -25.9267  -12.0721 O   0  0  0  0  0  0  0  0  0  0  0  0
   17.3695  -20.3620  -12.9663 C   0  0  0  0  0  0  0  0  0  0  0  0
   18.0532  -19.4179  -12.4568 O   0  0  0  0  0  0  0  0  0  0  0  0
   18.7963  -25.5253  -10.7605 O   0  0  0  0  0  0  0  0  0  0  0  0
   15.9912  -20.1394  -13.1916 O   0  0  0  0  0  0  0  0  0  0  0  0
  2  1  1  1
  3  4  1  0
  3  2  1  0
  4  5  2  0
  5  6  1  0
  7  6  1  0
  8  4  1  0
  8  7  2  0
  9  2  1  0
  9 18  1  0
 10  9  2  0
 12 11  1  0
 13 12  2  0
 14 13  1  0
 15 14  2  0
 15 21  1  0
 17 16  1  1
 16 15  1  0
 17 18  1  0
 19 17  1  0
 20 19  2  0
 21 22  2  0
 22 12  1  0
 23 19  1  0
 24 23  1  0
 24 29  1  0
 25 26  1  0
 24 25  1  1
 26 27  1  0
 27 28  2  0
 29 32  1  0
 30 29  2  0
 31 27  1  0
M  END
$$$$
