HYE.pdb
     RDKit          3D

 32 33  0  0  1  0  0  0  0  0999 V2000
   25.7801  -20.1955  -19.0597 N   0  0  0  0  0  0  0  0  0  0  0  0
   25.4312  -19.2289  -18.0072 C   0  0  1  0  0  0  0  0  0  0  0  0
   24.1636  -18.5451  -18.5076 C   0  0  0  0  0  0  0  0  0  0  0  0
   24.6122  -17.4496  -19.4061 C   0  0  0  0  0  0  0  0  0  0  0  0
   25.1900  -16.2354  -19.0955 C   0  0  0  0  0  0  0  0  0  0  0  0
   25.4336  -15.5302  -20.2131 N   0  0  0  0  0  0  0  0  0  0  0  0
   25.0113  -16.2909  -21.2642 C   0  0  0  0  0  0  0  0  0  0  0  0
   24.5236  -17.4336  -20.7598 N   0  0  0  0  0  0  0  0  0  0  0  0
   25.1829  -19.9390  -16.7305 C   0  0  0  0  0  0  0  0  0  0  0  0
   24.3511  -20.8696  -16.7037 O   0  0  0  0  0  0  0  0  0  0  0  0
   24.9387  -21.4063   -8.0876 O   0  0  0  0  0  0  0  0  0  0  0  0
   25.3566  -20.9984   -9.3444 C   0  0  0  0  0  0  0  0  0  0  0  0
   25.8684  -21.9670  -10.1926 C   0  0  0  0  0  0  0  0  0  0  0  0
   26.2862  -21.5329  -11.4609 C   0  0  0  0  0  0  0  0  0  0  0  0
   26.1988  -20.2182  -11.8565 C   0  0  0  0  0  0  0  0  0  0  0  0
   26.6607  -19.8305  -13.2247 C   0  0  0  0  0  0  0  0  0  0  0  0
   25.5779  -20.1196  -14.2486 C   0  0  2  0  0  0  0  0  0  0  0  0
   25.8784  -19.5780  -15.5359 N   0  0  0  0  0  0  0  0  0  0  0  0
   24.2391  -19.7590  -13.7258 C   0  0  0  0  0  0  0  0  0  0  0  0
   23.9181  -18.5237  -13.6471 O   0  0  0  0  0  0  0  0  0  0  0  0
   25.6806  -19.2634  -10.9843 C   0  0  0  0  0  0  0  0  0  0  0  0
   25.2708  -19.6807   -9.7441 C   0  0  0  0  0  0  0  0  0  0  0  0
   23.3436  -20.7707  -13.3254 N   0  0  0  0  0  0  0  0  0  0  0  0
   22.0380  -20.3760  -12.7646 C   0  0  1  0  0  0  0  0  0  0  0  0
   20.9844  -20.5996  -13.7758 C   0  0  0  0  0  0  0  0  0  0  0  0
   20.7923  -19.5276  -14.7717 C   0  0  0  0  0  0  0  0  0  0  0  0
   19.7345  -19.6998  -15.7675 C   0  0  0  0  0  0  0  0  0  0  0  0
   19.0720  -20.7653  -15.7996 O   0  0  0  0  0  0  0  0  0  0  0  0
   21.8848  -21.0859  -11.5184 C   0  0  0  0  0  0  0  0  0  0  0  0
   22.6856  -22.0007  -11.1437 O   0  0  0  0  0  0  0  0  0  0  0  0
   19.4017  -18.7204  -16.7100 O   0  0  0  0  0  0  0  0  0  0  0  0
   20.8024  -20.7595  -10.6688 O   0  0  0  0  0  0  0  0  0  0  0  0
  2  1  1  6
  3  4  1  0
  3  2  1  0
  4  5  2  0
  5  6  1  0
  7  6  1  0
  8  4  1  0
  8  7  2  0
  9  2  1  0
  9 18  1  0
 10  9  2  0
 12 11  1  0
 13 12  2  0
 14 13  1  0
 15 14  2  0
 15 21  1  0
 17 16  1  1
 16 15  1  0
 17 18  1  0
 19 17  1  0
 20 19  2  0
 21 22  2  0
 22 12  1  0
 23 19  1  0
 24 23  1  0
 24 29  1  0
 25 26  1  0
 24 25  1  6
 26 27  1  0
 27 28  2  0
 29 32  1  0
 30 29  2  0
 31 27  1  0
M  END
$$$$
