TYS.pdb
     RDKit          3D

 26 26  0  0  1  0  0  0  0  0999 V2000
   -7.1520  -26.2254   25.3365 C   0  0  0  0  0  0  0  0  0  0  0  0
   -6.1372  -27.3433   25.4184 C   0  0  1  0  0  0  0  0  0  0  0  0
   -5.8624  -27.7266   24.0908 O   0  0  0  0  0  0  0  0  0  0  0  0
   -4.8489  -26.7645   25.9626 C   0  0  2  0  0  0  0  0  0  0  0  0
   -3.7445  -27.6689   25.8963 N   0  0  0  0  0  0  0  0  0  0  0  0
   -5.0015  -26.2660   27.3511 C   0  0  0  0  0  0  0  0  0  0  0  0
   -4.9035  -27.0363   28.3442 O   0  0  0  0  0  0  0  0  0  0  0  0
   -0.0494  -26.8046   31.2619 O   0  0  0  0  0  0  0  0  0  0  0  0
   -1.0753  -26.0015   30.7821 C   0  0  0  0  0  0  0  0  0  0  0  0
   -1.0124  -25.4813   29.5071 C   0  0  0  0  0  0  0  0  0  0  0  0
   -2.0196  -24.6815   29.0102 C   0  0  0  0  0  0  0  0  0  0  0  0
   -3.1420  -24.3616   29.7651 C   0  0  0  0  0  0  0  0  0  0  0  0
   -4.2190  -23.4977   29.2137 C   0  0  0  0  0  0  0  0  0  0  0  0
   -5.4646  -24.3203   28.8928 C   0  0  2  0  0  0  0  0  0  0  0  0
   -5.2607  -24.9118   27.5859 N   0  0  0  0  0  0  0  0  0  0  0  0
   -6.6024  -23.3729   28.7777 C   0  0  0  0  0  0  0  0  0  0  0  0
   -6.5918  -22.4123   27.9633 O   0  0  0  0  0  0  0  0  0  0  0  0
   -3.1858  -24.8918   31.0377 C   0  0  0  0  0  0  0  0  0  0  0  0
   -2.1827  -25.6922   31.5414 C   0  0  0  0  0  0  0  0  0  0  0  0
  -10.2553  -24.2329   30.4155 O   0  0  0  0  0  0  0  0  0  0  0  0
  -10.1475  -23.4058   29.2902 C   0  0  0  0  0  0  0  0  0  0  0  0
   -8.8826  -22.5778   29.4902 C   0  0  2  0  0  0  0  0  0  0  0  0
   -7.7760  -23.5022   29.5897 N   0  0  0  0  0  0  0  0  0  0  0  0
   -8.9839  -21.7031   30.6839 C   0  0  0  0  0  0  0  0  0  0  0  0
   -9.9156  -20.6755   30.7009 O   0  0  0  0  0  0  0  0  0  0  0  0
   -8.2589  -21.8426   31.7019 O   0  0  0  0  0  0  0  0  0  0  0  0
  2  4  1  0
  2  1  1  6
  3  2  1  0
  4  5  1  1
  6  7  2  0
  6  4  1  0
  8  9  1  0
  9 19  2  0
  9 10  1  0
 10 11  2  0
 11 12  1  0
 12 13  1  0
 14 13  1  6
 14 16  1  0
 14 15  1  0
 15  6  1  0
 16 23  1  0
 17 16  2  0
 18 12  2  0
 19 18  1  0
 21 20  1  0
 22 21  1  1
 23 22  1  0
 24 25  1  0
 24 22  1  0
 26 24  2  0
M  END
$$$$
