TYS.pdb
     RDKit          3D

 26 26  0  0  1  0  0  0  0  0999 V2000
    6.3277  -13.4648   20.9036 C   0  0  0  0  0  0  0  0  0  0  0  0
    7.0923  -14.3717   19.9661 C   0  0  1  0  0  0  0  0  0  0  0  0
    6.9195  -13.8404   18.6727 O   0  0  0  0  0  0  0  0  0  0  0  0
    8.5661  -14.2334   20.2822 C   0  0  2  0  0  0  0  0  0  0  0  0
    9.4201  -14.7024   19.2369 N   0  0  0  0  0  0  0  0  0  0  0  0
    8.9297  -14.8972   21.5577 C   0  0  0  0  0  0  0  0  0  0  0  0
    9.4147  -16.0606   21.5823 O   0  0  0  0  0  0  0  0  0  0  0  0
   10.5113  -15.2681   30.3113 O   0  0  0  0  0  0  0  0  0  0  0  0
   10.1306  -14.8843   29.0325 C   0  0  0  0  0  0  0  0  0  0  0  0
    8.9617  -14.1803   28.8372 C   0  0  0  0  0  0  0  0  0  0  0  0
    8.5643  -13.7891   27.5762 C   0  0  0  0  0  0  0  0  0  0  0  0
    9.3176  -14.0831   26.4456 C   0  0  0  0  0  0  0  0  0  0  0  0
    8.8743  -13.6536   25.0931 C   0  0  0  0  0  0  0  0  0  0  0  0
    9.0662  -14.7763   24.0764 C   0  0  2  0  0  0  0  0  0  0  0  0
    8.7378  -14.2335   22.7737 N   0  0  0  0  0  0  0  0  0  0  0  0
    8.0631  -15.8274   24.3840 C   0  0  0  0  0  0  0  0  0  0  0  0
    6.8270  -15.5871   24.3988 O   0  0  0  0  0  0  0  0  0  0  0  0
   10.4833  -14.7881   26.6624 C   0  0  0  0  0  0  0  0  0  0  0  0
   10.8871  -15.1826   27.9201 C   0  0  0  0  0  0  0  0  0  0  0  0
    8.3950  -20.0701   24.0480 O   0  0  0  0  0  0  0  0  0  0  0  0
    7.3417  -19.1552   23.9248 C   0  0  0  0  0  0  0  0  0  0  0  0
    7.4900  -18.1767   25.0851 C   0  0  2  0  0  0  0  0  0  0  0  0
    8.4502  -17.1748   24.6812 N   0  0  0  0  0  0  0  0  0  0  0  0
    7.8988  -18.8658   26.3334 C   0  0  0  0  0  0  0  0  0  0  0  0
    7.0421  -19.7873   26.9173 O   0  0  0  0  0  0  0  0  0  0  0  0
    8.9999  -18.6581   26.9042 O   0  0  0  0  0  0  0  0  0  0  0  0
  2  4  1  0
  2  1  1  1
  3  2  1  0
  4  5  1  6
  6  7  2  0
  6  4  1  0
  8  9  1  0
  9 19  2  0
  9 10  1  0
 10 11  2  0
 11 12  1  0
 12 13  1  0
 14 13  1  1
 14 16  1  0
 14 15  1  0
 15  6  1  0
 16 23  1  0
 17 16  2  0
 18 12  2  0
 19 18  1  0
 21 20  1  0
 22 21  1  6
 23 22  1  0
 24 25  1  0
 24 22  1  0
 26 24  2  0
M  END
$$$$
