TYS.pdb
     RDKit          3D

 26 26  0  0  1  0  0  0  0  0999 V2000
    6.3686  -15.7278   20.5601 C   0  0  0  0  0  0  0  0  0  0  0  0
    7.2609  -14.9093   19.6547 C   0  0  1  0  0  0  0  0  0  0  0  0
    6.5089  -14.6424   18.4936 O   0  0  0  0  0  0  0  0  0  0  0  0
    7.4960  -13.5697   20.3188 C   0  0  2  0  0  0  0  0  0  0  0  0
    7.9734  -12.5646   19.4222 N   0  0  0  0  0  0  0  0  0  0  0  0
    8.4101  -13.6740   21.4820 C   0  0  0  0  0  0  0  0  0  0  0  0
    9.6627  -13.6440   21.3429 O   0  0  0  0  0  0  0  0  0  0  0  0
   10.4408  -15.3589   29.9845 O   0  0  0  0  0  0  0  0  0  0  0  0
    9.7824  -15.0227   28.8093 C   0  0  0  0  0  0  0  0  0  0  0  0
    9.8964  -13.7518   28.2878 C   0  0  0  0  0  0  0  0  0  0  0  0
    9.2515  -13.3962   27.1223 C   0  0  0  0  0  0  0  0  0  0  0  0
    8.4588  -14.2957   26.4188 C   0  0  0  0  0  0  0  0  0  0  0  0
    7.7704  -13.8956   25.1634 C   0  0  0  0  0  0  0  0  0  0  0  0
    8.6682  -14.1338   23.9517 C   0  0  2  0  0  0  0  0  0  0  0  0
    7.8899  -13.8097   22.7732 N   0  0  0  0  0  0  0  0  0  0  0  0
    8.9649  -15.5880   23.9005 C   0  0  0  0  0  0  0  0  0  0  0  0
    8.0522  -16.4554   23.8764 O   0  0  0  0  0  0  0  0  0  0  0  0
    8.3577  -15.5617   26.9570 C   0  0  0  0  0  0  0  0  0  0  0  0
    8.9996  -15.9245   28.1219 C   0  0  0  0  0  0  0  0  0  0  0  0
   12.2680  -17.0261   22.3232 O   0  0  0  0  0  0  0  0  0  0  0  0
   11.1694  -17.8684   22.5361 C   0  0  0  0  0  0  0  0  0  0  0  0
   10.6070  -17.4966   23.9041 C   0  0  2  0  0  0  0  0  0  0  0  0
   10.3097  -16.0825   23.8757 N   0  0  0  0  0  0  0  0  0  0  0  0
   11.5490  -17.8438   24.9960 C   0  0  0  0  0  0  0  0  0  0  0  0
   12.0445  -16.8406   25.8159 O   0  0  0  0  0  0  0  0  0  0  0  0
   11.9319  -19.0195   25.2257 O   0  0  0  0  0  0  0  0  0  0  0  0
  2  4  1  0
  2  1  1  1
  3  2  1  0
  4  5  1  6
  6  7  2  0
  6  4  1  0
  8  9  1  0
  9 19  2  0
  9 10  1  0
 10 11  2  0
 11 12  1  0
 12 13  1  0
 14 13  1  1
 14 16  1  0
 14 15  1  0
 15  6  1  0
 16 23  1  0
 17 16  2  0
 18 12  2  0
 19 18  1  0
 21 20  1  0
 22 21  1  6
 23 22  1  0
 24 25  1  0
 24 22  1  0
 26 24  2  0
M  END
$$$$
