TYS.pdb
     RDKit          3D

 26 26  0  0  1  0  0  0  0  0999 V2000
   11.7484  -18.0664   19.1378 C   0  0  0  0  0  0  0  0  0  0  0  0
   10.5307  -17.2413   18.7879 C   0  0  1  0  0  0  0  0  0  0  0  0
   10.0785  -17.7127   17.5396 O   0  0  0  0  0  0  0  0  0  0  0  0
    9.4395  -17.5757   19.7822 C   0  0  2  0  0  0  0  0  0  0  0  0
    8.1208  -17.3597   19.2759 N   0  0  0  0  0  0  0  0  0  0  0  0
    9.6066  -16.8467   21.0630 C   0  0  0  0  0  0  0  0  0  0  0  0
   10.7070  -16.8352   21.6781 O   0  0  0  0  0  0  0  0  0  0  0  0
    6.9546  -11.7886   27.8999 O   0  0  0  0  0  0  0  0  0  0  0  0
    7.0487  -12.4560   26.6861 C   0  0  0  0  0  0  0  0  0  0  0  0
    6.3401  -13.6196   26.4759 C   0  0  0  0  0  0  0  0  0  0  0  0
    6.4186  -14.2986   25.2785 C   0  0  0  0  0  0  0  0  0  0  0  0
    7.2112  -13.8470   24.2297 C   0  0  0  0  0  0  0  0  0  0  0  0
    7.2842  -14.5917   22.9451 C   0  0  0  0  0  0  0  0  0  0  0  0
    8.5768  -15.3996   22.8581 C   0  0  2  0  0  0  0  0  0  0  0  0
    8.5295  -16.1488   21.6188 N   0  0  0  0  0  0  0  0  0  0  0  0
    8.5593  -16.3827   23.9711 C   0  0  0  0  0  0  0  0  0  0  0  0
    7.6378  -17.2316   24.0979 O   0  0  0  0  0  0  0  0  0  0  0  0
    7.9119  -12.6814   24.4601 C   0  0  0  0  0  0  0  0  0  0  0  0
    7.8385  -11.9970   25.6546 C   0  0  0  0  0  0  0  0  0  0  0  0
   11.4614  -18.3494   24.9674 O   0  0  0  0  0  0  0  0  0  0  0  0
   10.1897  -18.6818   25.4513 C   0  0  0  0  0  0  0  0  0  0  0  0
    9.6037  -17.3963   26.0256 C   0  0  2  0  0  0  0  0  0  0  0  0
    9.5934  -16.4172   24.9626 N   0  0  0  0  0  0  0  0  0  0  0  0
   10.3684  -16.9257   27.2062 C   0  0  0  0  0  0  0  0  0  0  0  0
   10.4917  -17.7513   28.3141 O   0  0  0  0  0  0  0  0  0  0  0  0
   10.9225  -15.7981   27.2614 O   0  0  0  0  0  0  0  0  0  0  0  0
  2  4  1  0
  2  1  1  1
  3  2  1  0
  4  5  1  6
  6  7  2  0
  6  4  1  0
  8  9  1  0
  9 19  2  0
  9 10  1  0
 10 11  2  0
 11 12  1  0
 12 13  1  0
 14 13  1  1
 14 16  1  0
 14 15  1  0
 15  6  1  0
 16 23  1  0
 17 16  2  0
 18 12  2  0
 19 18  1  0
 21 20  1  0
 22 21  1  6
 23 22  1  0
 24 25  1  0
 24 22  1  0
 26 24  2  0
M  END
$$$$
