TYS.pdb
     RDKit          3D

 26 26  0  0  1  0  0  0  0  0999 V2000
    7.8562  -16.6142   18.8199 C   0  0  0  0  0  0  0  0  0  0  0  0
    8.4508  -15.4007   18.1417 C   0  0  1  0  0  0  0  0  0  0  0  0
    8.0666  -15.4755   16.7883 O   0  0  0  0  0  0  0  0  0  0  0  0
    7.7689  -14.1717   18.7034 C   0  0  2  0  0  0  0  0  0  0  0  0
    7.8585  -13.0293   17.8496 N   0  0  0  0  0  0  0  0  0  0  0  0
    8.2685  -13.8230   20.0556 C   0  0  0  0  0  0  0  0  0  0  0  0
    9.3530  -13.2015   20.2194 O   0  0  0  0  0  0  0  0  0  0  0  0
    7.5141  -12.4574   28.8056 O   0  0  0  0  0  0  0  0  0  0  0  0
    7.2889  -12.7988   27.4788 C   0  0  0  0  0  0  0  0  0  0  0  0
    7.2137  -14.1234   27.1050 C   0  0  0  0  0  0  0  0  0  0  0  0
    6.9909  -14.4852   25.7934 C   0  0  0  0  0  0  0  0  0  0  0  0
    6.8318  -13.5383   24.7882 C   0  0  0  0  0  0  0  0  0  0  0  0
    6.5921  -13.9459   23.3787 C   0  0  0  0  0  0  0  0  0  0  0  0
    7.8658  -13.8057   22.5486 C   0  0  2  0  0  0  0  0  0  0  0  0
    7.5334  -14.1832   21.1897 N   0  0  0  0  0  0  0  0  0  0  0  0
    8.8390  -14.8040   23.0602 C   0  0  0  0  0  0  0  0  0  0  0  0
    9.0802  -14.9323   24.2896 O   0  0  0  0  0  0  0  0  0  0  0  0
    6.9104  -12.2189   25.1828 C   0  0  0  0  0  0  0  0  0  0  0  0
    7.1330  -11.8496   26.4922 C   0  0  0  0  0  0  0  0  0  0  0  0
   10.3909  -18.7249   23.8912 O   0  0  0  0  0  0  0  0  0  0  0  0
    9.5527  -17.6754   23.4938 C   0  0  0  0  0  0  0  0  0  0  0  0
   10.4197  -16.7254   22.6744 C   0  0  2  0  0  0  0  0  0  0  0  0
    9.5571  -15.6767   22.1792 N   0  0  0  0  0  0  0  0  0  0  0  0
   11.1196  -17.4336   21.5749 C   0  0  0  0  0  0  0  0  0  0  0  0
   12.1356  -18.3287   21.8763 O   0  0  0  0  0  0  0  0  0  0  0  0
   10.8390  -17.2657   20.3607 O   0  0  0  0  0  0  0  0  0  0  0  0
  2  4  1  0
  2  1  1  1
  3  2  1  0
  4  5  1  6
  6  7  2  0
  6  4  1  0
  8  9  1  0
  9 19  2  0
  9 10  1  0
 10 11  2  0
 11 12  1  0
 12 13  1  0
 14 13  1  1
 14 16  1  0
 14 15  1  0
 15  6  1  0
 16 23  1  0
 17 16  2  0
 18 12  2  0
 19 18  1  0
 21 20  1  0
 22 21  1  6
 23 22  1  0
 24 25  1  0
 24 22  1  0
 26 24  2  0
M  END
$$$$
