TYS.pdb
     RDKit          3D

 26 26  0  0  1  0  0  0  0  0999 V2000
   -6.8248  -28.1988   31.2118 C   0  0  0  0  0  0  0  0  0  0  0  0
   -8.2106  -28.4914   31.7410 C   0  0  1  0  0  0  0  0  0  0  0  0
   -8.0356  -29.2877   32.8901 O   0  0  0  0  0  0  0  0  0  0  0  0
   -8.8109  -27.1880   32.2221 C   0  0  2  0  0  0  0  0  0  0  0  0
  -10.0683  -27.3483   32.8819 N   0  0  0  0  0  0  0  0  0  0  0  0
   -8.9458  -26.1961   31.1277 C   0  0  0  0  0  0  0  0  0  0  0  0
   -9.8526  -26.2919   30.2571 O   0  0  0  0  0  0  0  0  0  0  0  0
  -14.0824  -22.3203   31.3953 O   0  0  0  0  0  0  0  0  0  0  0  0
  -12.7069  -22.4379   31.2486 C   0  0  0  0  0  0  0  0  0  0  0  0
  -12.1157  -22.2028   30.0258 C   0  0  0  0  0  0  0  0  0  0  0  0
  -10.7518  -22.3138   29.8573 C   0  0  0  0  0  0  0  0  0  0  0  0
   -9.9095  -22.6662   30.9055 C   0  0  0  0  0  0  0  0  0  0  0  0
   -8.4408  -22.7813   30.7063 C   0  0  0  0  0  0  0  0  0  0  0  0
   -8.0874  -24.0969   30.0169 C   0  0  2  0  0  0  0  0  0  0  0  0
   -8.0555  -25.1209   31.0416 N   0  0  0  0  0  0  0  0  0  0  0  0
   -6.7080  -23.9602   29.4841 C   0  0  0  0  0  0  0  0  0  0  0  0
   -5.7318  -23.6694   30.2246 O   0  0  0  0  0  0  0  0  0  0  0  0
  -10.5205  -22.8971   32.1204 C   0  0  0  0  0  0  0  0  0  0  0  0
  -11.8835  -22.7881   32.2964 C   0  0  0  0  0  0  0  0  0  0  0  0
   -3.7273  -24.9011   25.8265 O   0  0  0  0  0  0  0  0  0  0  0  0
   -5.0508  -24.9196   26.2848 C   0  0  0  0  0  0  0  0  0  0  0  0
   -5.0614  -24.1252   27.5865 C   0  0  2  0  0  0  0  0  0  0  0  0
   -6.4141  -24.1526   28.0947 N   0  0  0  0  0  0  0  0  0  0  0  0
   -4.5718  -22.7394   27.3862 C   0  0  0  0  0  0  0  0  0  0  0  0
   -3.2080  -22.4869   27.4059 O   0  0  0  0  0  0  0  0  0  0  0  0
   -5.3379  -21.7605   27.1958 O   0  0  0  0  0  0  0  0  0  0  0  0
  2  4  1  0
  2  1  1  1
  3  2  1  0
  4  5  1  6
  6  7  2  0
  6  4  1  0
  8  9  1  0
  9 19  2  0
  9 10  1  0
 10 11  2  0
 11 12  1  0
 12 13  1  0
 14 13  1  1
 14 16  1  0
 14 15  1  0
 15  6  1  0
 16 23  1  0
 17 16  2  0
 18 12  2  0
 19 18  1  0
 21 20  1  0
 22 21  1  6
 23 22  1  0
 24 25  1  0
 24 22  1  0
 26 24  2  0
M  END
$$$$
