TYS.pdb
     RDKit          3D

 26 26  0  0  1  0  0  0  0  0999 V2000
   10.4729  -20.6900   20.4974 C   0  0  0  0  0  0  0  0  0  0  0  0
   10.7651  -20.0907   19.1403 C   0  0  1  0  0  0  0  0  0  0  0  0
   10.2172  -20.9755   18.1905 O   0  0  0  0  0  0  0  0  0  0  0  0
    9.9762  -18.8047   19.0189 C   0  0  2  0  0  0  0  0  0  0  0  0
    9.8406  -18.3437   17.6731 N   0  0  0  0  0  0  0  0  0  0  0  0
   10.5379  -17.7216   19.8620 C   0  0  0  0  0  0  0  0  0  0  0  0
   11.5316  -17.0415   19.4887 O   0  0  0  0  0  0  0  0  0  0  0  0
    6.3690  -12.4606   19.1536 O   0  0  0  0  0  0  0  0  0  0  0  0
    7.0543  -13.2946   20.0268 C   0  0  0  0  0  0  0  0  0  0  0  0
    8.3343  -12.9787   20.4290 C   0  0  0  0  0  0  0  0  0  0  0  0
    9.0333  -13.7922   21.2953 C   0  0  0  0  0  0  0  0  0  0  0  0
    8.4859  -14.9645   21.8034 C   0  0  0  0  0  0  0  0  0  0  0  0
    9.2537  -15.8303   22.7368 C   0  0  0  0  0  0  0  0  0  0  0  0
   10.4654  -16.4420   22.0379 C   0  0  2  0  0  0  0  0  0  0  0  0
    9.9658  -17.4316   21.1049 N   0  0  0  0  0  0  0  0  0  0  0  0
   11.2530  -17.1638   23.0696 C   0  0  0  0  0  0  0  0  0  0  0  0
   11.0608  -18.3817   23.3256 O   0  0  0  0  0  0  0  0  0  0  0  0
    7.2045  -15.2626   21.3889 C   0  0  0  0  0  0  0  0  0  0  0  0
    6.4994  -14.4540   20.5230 C   0  0  0  0  0  0  0  0  0  0  0  0
   14.0855  -18.7531   22.4547 O   0  0  0  0  0  0  0  0  0  0  0  0
   14.1796  -17.3714   22.6646 C   0  0  0  0  0  0  0  0  0  0  0  0
   13.5756  -17.1079   24.0399 C   0  0  2  0  0  0  0  0  0  0  0  0
   12.2764  -16.5102   23.8305 N   0  0  0  0  0  0  0  0  0  0  0  0
   14.4552  -16.2475   24.8683 C   0  0  0  0  0  0  0  0  0  0  0  0
   15.3980  -16.8339   25.6999 O   0  0  0  0  0  0  0  0  0  0  0  0
   14.3939  -14.9915   24.8598 O   0  0  0  0  0  0  0  0  0  0  0  0
  2  4  1  0
  2  1  1  1
  3  2  1  0
  4  5  1  6
  6  7  2  0
  6  4  1  0
  8  9  1  0
  9 19  2  0
  9 10  1  0
 10 11  2  0
 11 12  1  0
 12 13  1  0
 14 13  1  1
 14 16  1  0
 14 15  1  0
 15  6  1  0
 16 23  1  0
 17 16  2  0
 18 12  2  0
 19 18  1  0
 21 20  1  0
 22 21  1  6
 23 22  1  0
 24 25  1  0
 24 22  1  0
 26 24  2  0
M  END
$$$$
