TYS.pdb
     RDKit          3D

 26 26  0  0  1  0  0  0  0  0999 V2000
    8.1961  -19.2743   19.0143 C   0  0  0  0  0  0  0  0  0  0  0  0
    8.6749  -18.5378   20.2449 C   0  0  1  0  0  0  0  0  0  0  0  0
   10.0403  -18.8540   20.3893 O   0  0  0  0  0  0  0  0  0  0  0  0
    8.6172  -17.0539   19.9522 C   0  0  2  0  0  0  0  0  0  0  0  0
    9.3954  -16.6655   18.8183 N   0  0  0  0  0  0  0  0  0  0  0  0
    9.0061  -16.2360   21.1267 C   0  0  0  0  0  0  0  0  0  0  0  0
   10.1636  -15.7493   21.2389 O   0  0  0  0  0  0  0  0  0  0  0  0
    7.7849  -12.1165   28.9175 O   0  0  0  0  0  0  0  0  0  0  0  0
    7.6060  -12.7459   27.6930 C   0  0  0  0  0  0  0  0  0  0  0  0
    7.3446  -14.0982   27.6382 C   0  0  0  0  0  0  0  0  0  0  0  0
    7.1636  -14.7437   26.4334 C   0  0  0  0  0  0  0  0  0  0  0  0
    7.2352  -14.0676   25.2210 C   0  0  0  0  0  0  0  0  0  0  0  0
    7.0374  -14.7792   23.9308 C   0  0  0  0  0  0  0  0  0  0  0  0
    8.3700  -15.2730   23.3728 C   0  0  2  0  0  0  0  0  0  0  0  0
    8.0809  -15.9869   22.1455 N   0  0  0  0  0  0  0  0  0  0  0  0
    8.9164  -16.2584   24.3403 C   0  0  0  0  0  0  0  0  0  0  0  0
    8.3501  -17.3612   24.5621 O   0  0  0  0  0  0  0  0  0  0  0  0
    7.4976  -12.7156   25.2975 C   0  0  0  0  0  0  0  0  0  0  0  0
    7.6797  -12.0633   26.4983 C   0  0  0  0  0  0  0  0  0  0  0  0
   12.2629  -16.5380   24.2833 O   0  0  0  0  0  0  0  0  0  0  0  0
   12.0920  -17.3109   25.4390 C   0  0  0  0  0  0  0  0  0  0  0  0
   10.6969  -16.9886   25.9639 C   0  0  2  0  0  0  0  0  0  0  0  0
   10.1206  -16.0055   25.0749 N   0  0  0  0  0  0  0  0  0  0  0  0
   10.7369  -16.5114   27.3678 C   0  0  0  0  0  0  0  0  0  0  0  0
   11.2592  -17.3344   28.3547 O   0  0  0  0  0  0  0  0  0  0  0  0
   10.3158  -15.3806   27.7217 O   0  0  0  0  0  0  0  0  0  0  0  0
  2  4  1  0
  2  1  1  6
  3  2  1  0
  4  5  1  6
  6  7  2  0
  6  4  1  0
  8  9  1  0
  9 19  2  0
  9 10  1  0
 10 11  2  0
 11 12  1  0
 12 13  1  0
 14 13  1  1
 14 16  1  0
 14 15  1  0
 15  6  1  0
 16 23  1  0
 17 16  2  0
 18 12  2  0
 19 18  1  0
 21 20  1  0
 22 21  1  6
 23 22  1  0
 24 25  1  0
 24 22  1  0
 26 24  2  0
M  END
$$$$
