TYS.pdb
     RDKit          3D

 26 26  0  0  1  0  0  0  0  0999 V2000
    6.8321  -13.9520   17.8885 C   0  0  0  0  0  0  0  0  0  0  0  0
    7.6101  -14.5178   19.0549 C   0  0  1  0  0  0  0  0  0  0  0  0
    8.8918  -14.8314   18.5611 O   0  0  0  0  0  0  0  0  0  0  0  0
    7.8101  -13.4078   20.0643 C   0  0  2  0  0  0  0  0  0  0  0  0
    8.4211  -12.2393   19.5136 N   0  0  0  0  0  0  0  0  0  0  0  0
    8.5790  -13.8603   21.2491 C   0  0  0  0  0  0  0  0  0  0  0  0
    9.7892  -13.5463   21.4108 O   0  0  0  0  0  0  0  0  0  0  0  0
    6.2181  -10.7368   27.4757 O   0  0  0  0  0  0  0  0  0  0  0  0
    6.5478  -11.8719   26.7472 C   0  0  0  0  0  0  0  0  0  0  0  0
    5.6218  -12.4515   25.9066 C   0  0  0  0  0  0  0  0  0  0  0  0
    5.9276  -13.5787   25.1739 C   0  0  0  0  0  0  0  0  0  0  0  0
    7.1771  -14.1835   25.2456 C   0  0  0  0  0  0  0  0  0  0  0  0
    7.4901  -15.3988   24.4485 C   0  0  0  0  0  0  0  0  0  0  0  0
    8.6010  -15.1159   23.4400 C   0  0  2  0  0  0  0  0  0  0  0  0
    7.9650  -14.6555   22.2222 N   0  0  0  0  0  0  0  0  0  0  0  0
    9.2599  -16.4110   23.1334 C   0  0  0  0  0  0  0  0  0  0  0  0
    8.9205  -17.1159   22.1465 O   0  0  0  0  0  0  0  0  0  0  0  0
    8.0891  -13.5883   26.0921 C   0  0  0  0  0  0  0  0  0  0  0  0
    7.7906  -12.4613   26.8279 C   0  0  0  0  0  0  0  0  0  0  0  0
   13.1310  -17.6802   21.8357 O   0  0  0  0  0  0  0  0  0  0  0  0
   12.0865  -16.8912   22.3342 C   0  0  0  0  0  0  0  0  0  0  0  0
   11.3864  -17.7333   23.3955 C   0  0  2  0  0  0  0  0  0  0  0  0
   10.3200  -16.9285   23.9470 N   0  0  0  0  0  0  0  0  0  0  0  0
   12.3324  -18.1929   24.4415 C   0  0  0  0  0  0  0  0  0  0  0  0
   12.9441  -19.4313   24.3131 O   0  0  0  0  0  0  0  0  0  0  0  0
   12.6175  -17.5104   25.4585 O   0  0  0  0  0  0  0  0  0  0  0  0
  2  4  1  0
  2  1  1  6
  3  2  1  0
  4  5  1  6
  6  7  2  0
  6  4  1  0
  8  9  1  0
  9 19  2  0
  9 10  1  0
 10 11  2  0
 11 12  1  0
 12 13  1  0
 14 13  1  1
 14 16  1  0
 14 15  1  0
 15  6  1  0
 16 23  1  0
 17 16  2  0
 18 12  2  0
 19 18  1  0
 21 20  1  0
 22 21  1  6
 23 22  1  0
 24 25  1  0
 24 22  1  0
 26 24  2  0
M  END
$$$$
