TYS.pdb
     RDKit          3D

 26 26  0  0  1  0  0  0  0  0999 V2000
    6.3925  -14.7589   18.5036 C   0  0  0  0  0  0  0  0  0  0  0  0
    7.2509  -14.9361   19.7356 C   0  0  1  0  0  0  0  0  0  0  0  0
    8.5032  -15.3961   19.2828 O   0  0  0  0  0  0  0  0  0  0  0  0
    7.4982  -13.5673   20.3324 C   0  0  2  0  0  0  0  0  0  0  0  0
    8.0306  -12.6257   19.3987 N   0  0  0  0  0  0  0  0  0  0  0  0
    8.3705  -13.6281   21.5304 C   0  0  0  0  0  0  0  0  0  0  0  0
    9.6038  -13.3760   21.4632 O   0  0  0  0  0  0  0  0  0  0  0  0
   10.3684  -14.5464   30.1350 O   0  0  0  0  0  0  0  0  0  0  0  0
    9.7060  -14.4214   28.9212 C   0  0  0  0  0  0  0  0  0  0  0  0
    9.0410  -15.4997   28.3779 C   0  0  0  0  0  0  0  0  0  0  0  0
    8.3767  -15.3981   27.1741 C   0  0  0  0  0  0  0  0  0  0  0  0
    8.3443  -14.2107   26.4522 C   0  0  0  0  0  0  0  0  0  0  0  0
    7.6231  -14.1186   25.1554 C   0  0  0  0  0  0  0  0  0  0  0  0
    8.6010  -14.1775   23.9844 C   0  0  2  0  0  0  0  0  0  0  0  0
    7.8311  -13.9715   22.7743 N   0  0  0  0  0  0  0  0  0  0  0  0
    9.1464  -15.5578   23.9330 C   0  0  0  0  0  0  0  0  0  0  0  0
    8.4101  -16.5598   23.7329 O   0  0  0  0  0  0  0  0  0  0  0  0
    9.0155  -13.1439   27.0127 C   0  0  0  0  0  0  0  0  0  0  0  0
    9.6819  -13.2379   28.2159 C   0  0  0  0  0  0  0  0  0  0  0  0
   11.9718  -16.5706   21.9937 O   0  0  0  0  0  0  0  0  0  0  0  0
   12.3447  -17.1259   23.2244 C   0  0  0  0  0  0  0  0  0  0  0  0
   11.0791  -17.1653   24.0743 C   0  0  2  0  0  0  0  0  0  0  0  0
   10.5436  -15.8233   24.1089 N   0  0  0  0  0  0  0  0  0  0  0  0
   11.3496  -17.6900   25.4351 C   0  0  0  0  0  0  0  0  0  0  0  0
   11.8693  -18.9674   25.5841 O   0  0  0  0  0  0  0  0  0  0  0  0
   11.1304  -17.0296   26.4826 O   0  0  0  0  0  0  0  0  0  0  0  0
  2  4  1  0
  2  1  1  6
  3  2  1  0
  4  5  1  6
  6  7  2  0
  6  4  1  0
  8  9  1  0
  9 19  2  0
  9 10  1  0
 10 11  2  0
 11 12  1  0
 12 13  1  0
 14 13  1  1
 14 16  1  0
 14 15  1  0
 15  6  1  0
 16 23  1  0
 17 16  2  0
 18 12  2  0
 19 18  1  0
 21 20  1  0
 22 21  1  6
 23 22  1  0
 24 25  1  0
 24 22  1  0
 26 24  2  0
M  END
$$$$
