TYS.pdb
     RDKit          3D

 26 26  0  0  1  0  0  0  0  0999 V2000
    6.3613  -15.8238   20.5655 C   0  0  0  0  0  0  0  0  0  0  0  0
    7.2723  -14.9740   19.7087 C   0  0  1  0  0  0  0  0  0  0  0  0
    6.5437  -14.6634   18.5435 O   0  0  0  0  0  0  0  0  0  0  0  0
    7.4952  -13.6600   20.4261 C   0  0  2  0  0  0  0  0  0  0  0  0
    7.9415  -12.6094   19.5665 N   0  0  0  0  0  0  0  0  0  0  0  0
    8.4291  -13.7981   21.5699 C   0  0  0  0  0  0  0  0  0  0  0  0
    9.6742  -13.6623   21.4265 O   0  0  0  0  0  0  0  0  0  0  0  0
   10.6998  -15.3470   30.0372 O   0  0  0  0  0  0  0  0  0  0  0  0
   10.0151  -15.0360   28.8701 C   0  0  0  0  0  0  0  0  0  0  0  0
    9.2765  -16.0010   28.2194 C   0  0  0  0  0  0  0  0  0  0  0  0
    8.5888  -15.7144   27.0593 C   0  0  0  0  0  0  0  0  0  0  0  0
    8.6056  -14.4459   26.4911 C   0  0  0  0  0  0  0  0  0  0  0  0
    7.8582  -14.1541   25.2395 C   0  0  0  0  0  0  0  0  0  0  0  0
    8.7562  -14.3288   24.0171 C   0  0  2  0  0  0  0  0  0  0  0  0
    7.9367  -14.0857   22.8471 N   0  0  0  0  0  0  0  0  0  0  0  0
    9.1751  -15.7530   23.9764 C   0  0  0  0  0  0  0  0  0  0  0  0
    8.3487  -16.6876   23.8042 O   0  0  0  0  0  0  0  0  0  0  0  0
    9.3502  -13.4949   27.1572 C   0  0  0  0  0  0  0  0  0  0  0  0
   10.0403  -13.7740   28.3175 C   0  0  0  0  0  0  0  0  0  0  0  0
   11.5188  -19.0135   22.3693 O   0  0  0  0  0  0  0  0  0  0  0  0
   11.7780  -17.7102   22.8123 C   0  0  0  0  0  0  0  0  0  0  0  0
   10.9616  -17.5237   24.0868 C   0  0  2  0  0  0  0  0  0  0  0  0
   10.5461  -16.1401   24.1314 N   0  0  0  0  0  0  0  0  0  0  0  0
   11.7336  -17.9104   25.2929 C   0  0  0  0  0  0  0  0  0  0  0  0
   12.1445  -19.2262   25.4485 O   0  0  0  0  0  0  0  0  0  0  0  0
   12.0431  -17.0973   26.2009 O   0  0  0  0  0  0  0  0  0  0  0  0
  2  4  1  0
  2  1  1  1
  3  2  1  0
  4  5  1  6
  6  7  2  0
  6  4  1  0
  8  9  1  0
  9 19  2  0
  9 10  1  0
 10 11  2  0
 11 12  1  0
 12 13  1  0
 14 13  1  1
 14 16  1  0
 14 15  1  0
 15  6  1  0
 16 23  1  0
 17 16  2  0
 18 12  2  0
 19 18  1  0
 21 20  1  0
 22 21  1  6
 23 22  1  0
 24 25  1  0
 24 22  1  0
 26 24  2  0
M  END
$$$$
