MES.pdb
     RDKit          3D

 24 23  0  0  1  0  0  0  0  0999 V2000
    7.5036  -11.4559   19.5570 C   0  0  0  0  0  0  0  0  0  0  0  0
    8.2527  -12.9328   20.1981 S   0  0  0  0  0  0  0  0  0  0  0  0
    7.0955  -14.2595   20.4822 C   0  0  0  0  0  0  0  0  0  0  0  0
    7.6932  -15.4718   21.1060 C   0  0  0  0  0  0  0  0  0  0  0  0
    8.7179  -16.1129   20.2481 C   0  0  2  0  0  0  0  0  0  0  0  0
    8.0204  -16.9101   19.2473 N   0  0  0  0  0  0  0  0  0  0  0  0
    9.5965  -17.0289   21.0752 C   0  0  0  0  0  0  0  0  0  0  0  0
    9.0389  -17.9752   21.6778 O   0  0  0  0  0  0  0  0  0  0  0  0
   10.9810  -16.7716   21.1237 N   0  0  0  0  0  0  0  0  0  0  0  0
   11.8489  -17.5854   22.0091 C   0  0  1  0  0  0  0  0  0  0  0  0
   13.2797  -17.4243   21.5900 C   0  0  0  0  0  0  0  0  0  0  0  0
   13.5549  -18.1391   20.3124 C   0  0  0  0  0  0  0  0  0  0  0  0
   14.9847  -17.9336   19.9278 C   0  0  0  0  0  0  0  0  0  0  0  0
   15.9128  -18.3062   20.6881 O   0  0  0  0  0  0  0  0  0  0  0  0
   11.6690  -17.0458   23.3758 C   0  0  0  0  0  0  0  0  0  0  0  0
   12.0598  -15.9166   23.7698 O   0  0  0  0  0  0  0  0  0  0  0  0
   15.2908  -17.3280   18.7245 O   0  0  0  0  0  0  0  0  0  0  0  0
    8.7540  -18.3771   25.7423 O   0  0  0  0  0  0  0  0  0  0  0  0
    9.4589  -17.2678   26.1488 C   0  0  0  0  0  0  0  0  0  0  0  0
   10.9377  -17.4289   25.7737 C   0  0  2  0  0  0  0  0  0  0  0  0
   11.0061  -17.7986   24.4087 N   0  0  0  0  0  0  0  0  0  0  0  0
   11.5331  -18.3379   26.7270 C   0  0  0  0  0  0  0  0  0  0  0  0
   11.9601  -19.4542   26.3804 O   0  0  0  0  0  0  0  0  0  0  0  0
   11.6411  -17.9835   28.0524 O   0  0  0  0  0  0  0  0  0  0  0  0
  1  2  1  0
  3  2  1  0
  4  3  1  0
  5  4  1  0
  5  7  1  0
  5  6  1  6
  7  8  2  0
  9  7  1  0
  9 10  1  0
 10 11  1  6
 11 12  1  0
 12 13  1  0
 13 17  1  0
 13 14  2  0
 15 10  1  0
 15 16  2  0
 18 19  1  0
 20 19  1  1
 20 22  1  0
 20 21  1  0
 21 15  1  0
 22 24  1  0
 23 22  2  0
M  END
$$$$
