MES.pdb
     RDKit          3D

 24 23  0  0  1  0  0  0  0  0999 V2000
    8.7614  -11.3524   19.4314 C   0  0  0  0  0  0  0  0  0  0  0  0
    7.4412  -12.5142   19.1855 S   0  0  0  0  0  0  0  0  0  0  0  0
    7.9474  -14.0119   18.3606 C   0  0  0  0  0  0  0  0  0  0  0  0
    8.7176  -13.7909   17.1060 C   0  0  0  0  0  0  0  0  0  0  0  0
    9.0280  -15.0528   16.3932 C   0  0  2  0  0  0  0  0  0  0  0  0
    7.7628  -15.6894   16.0503 N   0  0  0  0  0  0  0  0  0  0  0  0
    9.8143  -15.9841   17.2930 C   0  0  0  0  0  0  0  0  0  0  0  0
    9.1738  -16.8613   17.9174 O   0  0  0  0  0  0  0  0  0  0  0  0
   11.2106  -15.8171   17.3803 N   0  0  0  0  0  0  0  0  0  0  0  0
   12.0157  -16.7701   18.1822 C   0  0  1  0  0  0  0  0  0  0  0  0
   13.3947  -16.8699   17.6015 C   0  0  0  0  0  0  0  0  0  0  0  0
   13.3841  -17.5919   16.2985 C   0  0  0  0  0  0  0  0  0  0  0  0
   14.7751  -17.6533   15.7548 C   0  0  0  0  0  0  0  0  0  0  0  0
   14.9872  -18.0436   14.5796 O   0  0  0  0  0  0  0  0  0  0  0  0
   12.0927  -16.2018   19.5470 C   0  0  0  0  0  0  0  0  0  0  0  0
   12.5622  -15.0718   19.8395 O   0  0  0  0  0  0  0  0  0  0  0  0
   15.8398  -17.2773   16.5508 O   0  0  0  0  0  0  0  0  0  0  0  0
   10.2414  -18.3177   22.4319 O   0  0  0  0  0  0  0  0  0  0  0  0
   10.4545  -17.0046   22.7825 C   0  0  0  0  0  0  0  0  0  0  0  0
   11.6800  -16.4625   22.0356 C   0  0  2  0  0  0  0  0  0  0  0  0
   11.6183  -16.9242   20.6986 N   0  0  0  0  0  0  0  0  0  0  0  0
   12.8525  -16.8268   22.7988 C   0  0  0  0  0  0  0  0  0  0  0  0
   13.0526  -16.3702   23.9390 O   0  0  0  0  0  0  0  0  0  0  0  0
   13.7818  -17.6958   22.2742 O   0  0  0  0  0  0  0  0  0  0  0  0
  1  2  1  0
  3  2  1  0
  4  3  1  0
  5  4  1  0
  5  7  1  0
  5  6  1  1
  7  8  2  0
  9  7  1  0
  9 10  1  0
 10 11  1  6
 11 12  1  0
 12 13  1  0
 13 17  1  0
 13 14  2  0
 15 10  1  0
 15 16  2  0
 18 19  1  0
 20 19  1  1
 20 22  1  0
 20 21  1  0
 21 15  1  0
 22 24  1  0
 23 22  2  0
M  END
$$$$
