MES.pdb
     RDKit          3D

 24 23  0  0  1  0  0  0  0  0999 V2000
    6.9452  -11.4693   24.6494 C   0  0  0  0  0  0  0  0  0  0  0  0
    6.6960  -11.9581   26.3383 S   0  0  0  0  0  0  0  0  0  0  0  0
    5.9072  -13.5474   26.5166 C   0  0  0  0  0  0  0  0  0  0  0  0
    6.8329  -14.7078   26.4035 C   0  0  0  0  0  0  0  0  0  0  0  0
    6.7237  -15.4042   25.0997 C   0  0  2  0  0  0  0  0  0  0  0  0
    5.4403  -16.0940   25.0733 N   0  0  0  0  0  0  0  0  0  0  0  0
    7.8308  -16.4285   24.9575 C   0  0  0  0  0  0  0  0  0  0  0  0
    7.7111  -17.5007   25.5945 O   0  0  0  0  0  0  0  0  0  0  0  0
    8.9264  -16.1255   24.1249 N   0  0  0  0  0  0  0  0  0  0  0  0
    9.9765  -17.1465   23.8919 C   0  0  1  0  0  0  0  0  0  0  0  0
   10.8259  -16.7315   22.7280 C   0  0  0  0  0  0  0  0  0  0  0  0
   11.8691  -17.7513   22.4263 C   0  0  0  0  0  0  0  0  0  0  0  0
   12.6636  -17.3111   21.2391 C   0  0  0  0  0  0  0  0  0  0  0  0
   13.8816  -17.6025   21.1393 O   0  0  0  0  0  0  0  0  0  0  0  0
   10.8017  -17.1803   25.1205 C   0  0  0  0  0  0  0  0  0  0  0  0
   11.3304  -16.1796   25.6700 O   0  0  0  0  0  0  0  0  0  0  0  0
   12.0542  -16.5766   20.2403 O   0  0  0  0  0  0  0  0  0  0  0  0
   10.0602  -19.5976   27.9523 O   0  0  0  0  0  0  0  0  0  0  0  0
   11.4225  -19.7047   27.7931 C   0  0  0  0  0  0  0  0  0  0  0  0
   11.9359  -18.5410   26.9353 C   0  0  2  0  0  0  0  0  0  0  0  0
   11.0790  -18.4102   25.8158 N   0  0  0  0  0  0  0  0  0  0  0  0
   13.3345  -18.7841   26.6623 C   0  0  0  0  0  0  0  0  0  0  0  0
   13.7644  -18.8626   25.4971 O   0  0  0  0  0  0  0  0  0  0  0  0
   14.2292  -18.9356   27.6969 O   0  0  0  0  0  0  0  0  0  0  0  0
  1  2  1  0
  3  2  1  0
  4  3  1  0
  5  4  1  0
  5  7  1  0
  5  6  1  1
  7  8  2  0
  9  7  1  0
  9 10  1  0
 10 11  1  6
 11 12  1  0
 12 13  1  0
 13 17  1  0
 13 14  2  0
 15 10  1  0
 15 16  2  0
 18 19  1  0
 20 19  1  1
 20 22  1  0
 20 21  1  0
 21 15  1  0
 22 24  1  0
 23 22  2  0
M  END
$$$$
