MES.pdb
     RDKit          3D

 24 23  0  0  1  0  0  0  0  0999 V2000
    7.6183  -11.3662   25.8458 C   0  0  0  0  0  0  0  0  0  0  0  0
    6.3872  -12.6414   25.9517 S   0  0  0  0  0  0  0  0  0  0  0  0
    6.7414  -14.0668   24.9405 C   0  0  0  0  0  0  0  0  0  0  0  0
    7.3952  -13.7500   23.6412 C   0  0  0  0  0  0  0  0  0  0  0  0
    7.5588  -14.9417   22.7753 C   0  0  2  0  0  0  0  0  0  0  0  0
    6.2357  -15.5094   22.5501 N   0  0  0  0  0  0  0  0  0  0  0  0
    8.4227  -15.9773   23.4654 C   0  0  0  0  0  0  0  0  0  0  0  0
    7.8455  -16.8216   24.1891 O   0  0  0  0  0  0  0  0  0  0  0  0
    9.8161  -15.9378   23.2600 N   0  0  0  0  0  0  0  0  0  0  0  0
   10.6690  -17.0257   23.7969 C   0  0  1  0  0  0  0  0  0  0  0  0
   12.0184  -16.9691   23.1454 C   0  0  0  0  0  0  0  0  0  0  0  0
   11.9633  -17.4572   21.7391 C   0  0  0  0  0  0  0  0  0  0  0  0
   13.2888  -17.2348   21.0851 C   0  0  0  0  0  0  0  0  0  0  0  0
   13.4083  -16.4135   20.1419 O   0  0  0  0  0  0  0  0  0  0  0  0
   10.8079  -16.7659   25.2477 C   0  0  0  0  0  0  0  0  0  0  0  0
   10.5397  -15.6789   25.8215 O   0  0  0  0  0  0  0  0  0  0  0  0
   14.3950  -17.9384   21.5206 O   0  0  0  0  0  0  0  0  0  0  0  0
    9.0731  -19.5314   27.8451 O   0  0  0  0  0  0  0  0  0  0  0  0
    9.3166  -18.2410   27.4350 C   0  0  0  0  0  0  0  0  0  0  0  0
   10.8236  -17.9580   27.4860 C   0  0  2  0  0  0  0  0  0  0  0  0
   11.2807  -17.7759   26.1585 N   0  0  0  0  0  0  0  0  0  0  0  0
   11.4411  -19.0189   28.2496 C   0  0  0  0  0  0  0  0  0  0  0  0
   12.2122  -19.8378   27.7172 O   0  0  0  0  0  0  0  0  0  0  0  0
   11.1859  -19.1465   29.5959 O   0  0  0  0  0  0  0  0  0  0  0  0
  1  2  1  0
  3  2  1  0
  4  3  1  0
  5  4  1  0
  5  7  1  0
  5  6  1  1
  7  8  2  0
  9  7  1  0
  9 10  1  0
 10 11  1  6
 11 12  1  0
 12 13  1  0
 13 17  1  0
 13 14  2  0
 15 10  1  0
 15 16  2  0
 18 19  1  0
 20 19  1  6
 20 22  1  0
 20 21  1  0
 21 15  1  0
 22 24  1  0
 23 22  2  0
M  END
$$$$
