MES.pdb
     RDKit          3D

 24 23  0  0  1  0  0  0  0  0999 V2000
    6.3462  -11.3232   19.6146 C   0  0  0  0  0  0  0  0  0  0  0  0
    7.5835  -12.5849   19.7893 S   0  0  0  0  0  0  0  0  0  0  0  0
    6.9635  -14.1074   20.4801 C   0  0  0  0  0  0  0  0  0  0  0  0
    8.0078  -15.1393   20.7266 C   0  0  0  0  0  0  0  0  0  0  0  0
    8.7931  -15.4628   19.5119 C   0  0  2  0  0  0  0  0  0  0  0  0
    7.9433  -16.2583   18.6352 N   0  0  0  0  0  0  0  0  0  0  0  0
   10.0151  -16.2796   19.8789 C   0  0  0  0  0  0  0  0  0  0  0  0
    9.8451  -17.4973   20.1195 O   0  0  0  0  0  0  0  0  0  0  0  0
   11.2665  -15.6341   19.9304 N   0  0  0  0  0  0  0  0  0  0  0  0
   12.4728  -16.4007   20.3260 C   0  0  1  0  0  0  0  0  0  0  0  0
   13.6998  -15.6739   19.8625 C   0  0  0  0  0  0  0  0  0  0  0  0
   13.6871  -15.4736   18.3865 C   0  0  0  0  0  0  0  0  0  0  0  0
   14.9223  -14.7391   17.9755 C   0  0  0  0  0  0  0  0  0  0  0  0
   14.9952  -13.4906   18.0948 O   0  0  0  0  0  0  0  0  0  0  0  0
   12.4604  -16.4589   21.8052 C   0  0  0  0  0  0  0  0  0  0  0  0
   11.8108  -15.6885   22.5585 O   0  0  0  0  0  0  0  0  0  0  0  0
   15.9961  -15.4383   17.4590 O   0  0  0  0  0  0  0  0  0  0  0  0
   14.7241  -15.7098   24.3697 O   0  0  0  0  0  0  0  0  0  0  0  0
   13.4265  -16.1393   24.5253 C   0  0  0  0  0  0  0  0  0  0  0  0
   13.2760  -17.5510   23.9437 C   0  0  2  0  0  0  0  0  0  0  0  0
   13.2214  -17.4406   22.5333 N   0  0  0  0  0  0  0  0  0  0  0  0
   12.1446  -18.1725   24.5944 C   0  0  0  0  0  0  0  0  0  0  0  0
   11.1090  -18.4560   23.9653 O   0  0  0  0  0  0  0  0  0  0  0  0
   12.1900  -18.4667   25.9380 O   0  0  0  0  0  0  0  0  0  0  0  0
  1  2  1  0
  3  2  1  0
  4  3  1  0
  5  4  1  0
  5  7  1  0
  5  6  1  6
  7  8  2  0
  9  7  1  0
  9 10  1  0
 10 11  1  1
 11 12  1  0
 12 13  1  0
 13 17  1  0
 13 14  2  0
 15 10  1  0
 15 16  2  0
 18 19  1  0
 20 19  1  1
 20 22  1  0
 20 21  1  0
 21 15  1  0
 22 24  1  0
 23 22  2  0
M  END
$$$$
