MES.pdb
     RDKit          3D

 24 23  0  0  1  0  0  0  0  0999 V2000
    9.2850  -12.4716   20.3016 C   0  0  0  0  0  0  0  0  0  0  0  0
    7.5923  -13.0080   20.2955 S   0  0  0  0  0  0  0  0  0  0  0  0
    7.2882  -14.4362   21.3189 C   0  0  0  0  0  0  0  0  0  0  0  0
    6.6254  -15.5669   20.6130 C   0  0  0  0  0  0  0  0  0  0  0  0
    7.5246  -16.2506   19.6535 C   0  0  2  0  0  0  0  0  0  0  0  0
    6.7606  -17.3127   19.0117 N   0  0  0  0  0  0  0  0  0  0  0  0
    8.6995  -16.8682   20.3839 C   0  0  0  0  0  0  0  0  0  0  0  0
    8.4560  -17.7975   21.1881 O   0  0  0  0  0  0  0  0  0  0  0  0
    9.9918  -16.3705   20.1238 N   0  0  0  0  0  0  0  0  0  0  0  0
   11.1735  -17.0599   20.6963 C   0  0  1  0  0  0  0  0  0  0  0  0
   12.4232  -16.4900   20.0946 C   0  0  0  0  0  0  0  0  0  0  0  0
   13.6367  -17.1948   20.5945 C   0  0  0  0  0  0  0  0  0  0  0  0
   14.8460  -16.6473   19.9075 C   0  0  0  0  0  0  0  0  0  0  0  0
   14.7445  -16.0640   18.7994 O   0  0  0  0  0  0  0  0  0  0  0  0
   11.1518  -16.7815   22.1500 C   0  0  0  0  0  0  0  0  0  0  0  0
   11.2467  -15.6419   22.6745 O   0  0  0  0  0  0  0  0  0  0  0  0
   16.0889  -16.7828   20.4952 O   0  0  0  0  0  0  0  0  0  0  0  0
    9.7308  -19.5896   24.5025 O   0  0  0  0  0  0  0  0  0  0  0  0
    9.9917  -18.4308   25.1965 C   0  0  0  0  0  0  0  0  0  0  0  0
   11.1441  -17.6737   24.5239 C   0  0  2  0  0  0  0  0  0  0  0  0
   11.0156  -17.8340   23.1231 N   0  0  0  0  0  0  0  0  0  0  0  0
   12.3767  -18.1333   25.1235 C   0  0  0  0  0  0  0  0  0  0  0  0
   13.2527  -18.7052   24.4495 O   0  0  0  0  0  0  0  0  0  0  0  0
   12.6091  -17.9459   26.4669 O   0  0  0  0  0  0  0  0  0  0  0  0
  1  2  1  0
  3  2  1  0
  4  3  1  0
  5  4  1  0
  5  7  1  0
  5  6  1  1
  7  8  2  0
  9  7  1  0
  9 10  1  0
 10 11  1  6
 11 12  1  0
 12 13  1  0
 13 17  1  0
 13 14  2  0
 15 10  1  0
 15 16  2  0
 18 19  1  0
 20 19  1  1
 20 22  1  0
 20 21  1  0
 21 15  1  0
 22 24  1  0
 23 22  2  0
M  END
$$$$
