MES.pdb
     RDKit          3D

 24 23  0  0  1  0  0  0  0  0999 V2000
    7.3291  -11.5101   20.2124 C   0  0  0  0  0  0  0  0  0  0  0  0
    8.0130  -13.1234   20.5005 S   0  0  0  0  0  0  0  0  0  0  0  0
    6.9117  -14.2254   21.3680 C   0  0  0  0  0  0  0  0  0  0  0  0
    7.5346  -15.5112   21.7862 C   0  0  0  0  0  0  0  0  0  0  0  0
    7.8819  -16.3811   20.6375 C   0  0  2  0  0  0  0  0  0  0  0  0
    6.6642  -17.0597   20.2130 N   0  0  0  0  0  0  0  0  0  0  0  0
    8.8995  -17.4222   21.0565 C   0  0  0  0  0  0  0  0  0  0  0  0
    8.5234  -18.3074   21.8594 O   0  0  0  0  0  0  0  0  0  0  0  0
   10.2029  -17.3420   20.5272 N   0  0  0  0  0  0  0  0  0  0  0  0
   11.2142  -18.3577   20.9078 C   0  0  1  0  0  0  0  0  0  0  0  0
   12.3742  -18.2859   19.9602 C   0  0  0  0  0  0  0  0  0  0  0  0
   13.3962  -19.3235   20.2735 C   0  0  0  0  0  0  0  0  0  0  0  0
   14.5210  -19.2225   19.2944 C   0  0  0  0  0  0  0  0  0  0  0  0
   14.8966  -18.1041   18.8628 O   0  0  0  0  0  0  0  0  0  0  0  0
   11.6660  -18.0019   22.2719 C   0  0  0  0  0  0  0  0  0  0  0  0
   12.2906  -16.9547   22.5819 O   0  0  0  0  0  0  0  0  0  0  0  0
   15.1556  -20.3696   18.8584 O   0  0  0  0  0  0  0  0  0  0  0  0
   10.2834  -20.2355   25.4367 O   0  0  0  0  0  0  0  0  0  0  0  0
   10.7594  -18.9708   25.6946 C   0  0  0  0  0  0  0  0  0  0  0  0
   11.8931  -18.6357   24.7170 C   0  0  2  0  0  0  0  0  0  0  0  0
   11.4185  -18.8592   23.4019 N   0  0  0  0  0  0  0  0  0  0  0  0
   13.0588  -19.3861   25.1269 C   0  0  0  0  0  0  0  0  0  0  0  0
   13.5285  -20.2944   24.4177 O   0  0  0  0  0  0  0  0  0  0  0  0
   13.6798  -19.1083   26.3231 O   0  0  0  0  0  0  0  0  0  0  0  0
  1  2  1  0
  3  2  1  0
  4  3  1  0
  5  4  1  0
  5  7  1  0
  5  6  1  1
  7  8  2  0
  9  7  1  0
  9 10  1  0
 10 11  1  6
 11 12  1  0
 12 13  1  0
 13 17  1  0
 13 14  2  0
 15 10  1  0
 15 16  2  0
 18 19  1  0
 20 19  1  1
 20 22  1  0
 20 21  1  0
 21 15  1  0
 22 24  1  0
 23 22  2  0
M  END
$$$$
