MES.pdb
     RDKit          3D

 24 23  0  0  1  0  0  0  0  0999 V2000
    7.6336  -11.5217   26.3901 C   0  0  0  0  0  0  0  0  0  0  0  0
    6.1665  -12.4099   25.9295 S   0  0  0  0  0  0  0  0  0  0  0  0
    6.4580  -13.7138   24.7486 C   0  0  0  0  0  0  0  0  0  0  0  0
    7.1891  -13.2820   23.5259 C   0  0  0  0  0  0  0  0  0  0  0  0
    7.3492  -14.3744   22.5370 C   0  0  2  0  0  0  0  0  0  0  0  0
    6.0167  -14.7971   22.1257 N   0  0  0  0  0  0  0  0  0  0  0  0
    8.0617  -15.5532   23.1679 C   0  0  0  0  0  0  0  0  0  0  0  0
    7.3546  -16.4254   23.7238 O   0  0  0  0  0  0  0  0  0  0  0  0
    9.4679  -15.6070   23.0977 N   0  0  0  0  0  0  0  0  0  0  0  0
   10.1778  -16.8393   23.5182 C   0  0  1  0  0  0  0  0  0  0  0  0
   11.5926  -16.7932   23.0234 C   0  0  0  0  0  0  0  0  0  0  0  0
   12.3514  -18.0075   23.4344 C   0  0  0  0  0  0  0  0  0  0  0  0
   13.7428  -17.9288   22.8942 C   0  0  0  0  0  0  0  0  0  0  0  0
   13.9450  -17.7799   21.6632 O   0  0  0  0  0  0  0  0  0  0  0  0
   10.1703  -16.8374   24.9985 C   0  0  0  0  0  0  0  0  0  0  0  0
   10.5866  -15.9002   25.7274 O   0  0  0  0  0  0  0  0  0  0  0  0
   14.8190  -18.0202   23.7556 O   0  0  0  0  0  0  0  0  0  0  0  0
    8.3558  -20.0069   26.9263 O   0  0  0  0  0  0  0  0  0  0  0  0
    8.4856  -18.8354   27.6359 C   0  0  0  0  0  0  0  0  0  0  0  0
    9.7361  -18.0817   27.1653 C   0  0  2  0  0  0  0  0  0  0  0  0
    9.6663  -17.9527   25.7571 N   0  0  0  0  0  0  0  0  0  0  0  0
   10.8883  -18.7706   27.7015 C   0  0  0  0  0  0  0  0  0  0  0  0
   11.7323  -19.3013   26.9567 O   0  0  0  0  0  0  0  0  0  0  0  0
   11.0777  -18.8548   29.0620 O   0  0  0  0  0  0  0  0  0  0  0  0
  1  2  1  0
  3  2  1  0
  4  3  1  0
  5  4  1  0
  5  7  1  0
  5  6  1  1
  7  8  2  0
  9  7  1  0
  9 10  1  0
 10 11  1  1
 11 12  1  0
 12 13  1  0
 13 17  1  0
 13 14  2  0
 15 10  1  0
 15 16  2  0
 18 19  1  0
 20 19  1  6
 20 22  1  0
 20 21  1  0
 21 15  1  0
 22 24  1  0
 23 22  2  0
M  END
$$$$
