MES.pdb
     RDKit          3D

 24 23  0  0  1  0  0  0  0  0999 V2000
    7.9941  -12.1492   27.2290 C   0  0  0  0  0  0  0  0  0  0  0  0
    7.0826  -12.1788   25.7053 S   0  0  0  0  0  0  0  0  0  0  0  0
    6.0876  -13.6432   25.4925 C   0  0  0  0  0  0  0  0  0  0  0  0
    6.8654  -14.9116   25.4438 C   0  0  0  0  0  0  0  0  0  0  0  0
    7.0312  -15.4307   24.0654 C   0  0  2  0  0  0  0  0  0  0  0  0
    5.7420  -15.9540   23.6322 N   0  0  0  0  0  0  0  0  0  0  0  0
    8.0454  -16.5559   24.0467 C   0  0  0  0  0  0  0  0  0  0  0  0
    7.6680  -17.6805   24.4499 O   0  0  0  0  0  0  0  0  0  0  0  0
    9.3471  -16.2824   23.5819 N   0  0  0  0  0  0  0  0  0  0  0  0
   10.3571  -17.3677   23.5448 C   0  0  1  0  0  0  0  0  0  0  0  0
   11.4764  -16.9760   22.6270 C   0  0  0  0  0  0  0  0  0  0  0  0
   12.5328  -18.0253   22.5805 C   0  0  0  0  0  0  0  0  0  0  0  0
   12.4884  -18.7147   21.2550 C   0  0  0  0  0  0  0  0  0  0  0  0
   13.4007  -19.5085   20.9146 O   0  0  0  0  0  0  0  0  0  0  0  0
   10.8726  -17.5015   24.9260 C   0  0  0  0  0  0  0  0  0  0  0  0
   11.4393  -16.5904   25.5830 O   0  0  0  0  0  0  0  0  0  0  0  0
   11.4342  -18.4783   20.3941 O   0  0  0  0  0  0  0  0  0  0  0  0
    9.1333  -19.5578   27.7361 O   0  0  0  0  0  0  0  0  0  0  0  0
   10.4268  -20.0178   27.6469 C   0  0  0  0  0  0  0  0  0  0  0  0
   11.3019  -18.9680   26.9500 C   0  0  2  0  0  0  0  0  0  0  0  0
   10.7644  -18.7348   25.6611 N   0  0  0  0  0  0  0  0  0  0  0  0
   12.6705  -19.4295   27.0131 C   0  0  0  0  0  0  0  0  0  0  0  0
   13.3358  -19.6311   25.9810 O   0  0  0  0  0  0  0  0  0  0  0  0
   13.2722  -19.6580   28.2295 O   0  0  0  0  0  0  0  0  0  0  0  0
  1  2  1  0
  3  2  1  0
  4  3  1  0
  5  4  1  0
  5  7  1  0
  5  6  1  1
  7  8  2  0
  9  7  1  0
  9 10  1  0
 10 11  1  6
 11 12  1  0
 12 13  1  0
 13 17  1  0
 13 14  2  0
 15 10  1  0
 15 16  2  0
 18 19  1  0
 20 19  1  6
 20 22  1  0
 20 21  1  0
 21 15  1  0
 22 24  1  0
 23 22  2  0
M  END
$$$$
