MES.pdb
     RDKit          3D

 24 23  0  0  1  0  0  0  0  0999 V2000
    6.9394  -11.8908   27.2715 C   0  0  0  0  0  0  0  0  0  0  0  0
    7.3034  -11.8066   25.5355 S   0  0  0  0  0  0  0  0  0  0  0  0
    6.2414  -12.8258   24.5291 C   0  0  0  0  0  0  0  0  0  0  0  0
    6.6879  -14.2404   24.4037 C   0  0  0  0  0  0  0  0  0  0  0  0
    7.6070  -14.4529   23.2605 C   0  0  2  0  0  0  0  0  0  0  0  0
    6.7920  -14.6384   22.0667 N   0  0  0  0  0  0  0  0  0  0  0  0
    8.4394  -15.6993   23.4809 C   0  0  0  0  0  0  0  0  0  0  0  0
    7.8393  -16.7989   23.5000 O   0  0  0  0  0  0  0  0  0  0  0  0
    9.8310  -15.5589   23.6515 N   0  0  0  0  0  0  0  0  0  0  0  0
   10.6784  -16.7667   23.8015 C   0  0  1  0  0  0  0  0  0  0  0  0
   12.0637  -16.4680   23.3112 C   0  0  0  0  0  0  0  0  0  0  0  0
   12.9501  -17.6594   23.4293 C   0  0  0  0  0  0  0  0  0  0  0  0
   14.2983  -17.3309   22.8738 C   0  0  0  0  0  0  0  0  0  0  0  0
   14.4101  -16.7263   21.7782 O   0  0  0  0  0  0  0  0  0  0  0  0
   10.7196  -17.0669   25.2505 C   0  0  0  0  0  0  0  0  0  0  0  0
   10.9547  -16.2307   26.1607 O   0  0  0  0  0  0  0  0  0  0  0  0
   15.4343  -17.6948   23.5706 O   0  0  0  0  0  0  0  0  0  0  0  0
    9.7448  -20.4347   28.6217 O   0  0  0  0  0  0  0  0  0  0  0  0
    9.6977  -20.0323   27.3069 C   0  0  0  0  0  0  0  0  0  0  0  0
   10.5499  -18.7702   27.1217 C   0  0  2  0  0  0  0  0  0  0  0  0
   10.4852  -18.3936   25.7584 N   0  0  0  0  0  0  0  0  0  0  0  0
   11.8623  -19.0468   27.6611 C   0  0  0  0  0  0  0  0  0  0  0  0
   12.8169  -19.3504   26.9228 O   0  0  0  0  0  0  0  0  0  0  0  0
   12.0853  -18.9795   29.0175 O   0  0  0  0  0  0  0  0  0  0  0  0
  1  2  1  0
  3  2  1  0
  4  3  1  0
  5  4  1  0
  5  7  1  0
  5  6  1  6
  7  8  2  0
  9  7  1  0
  9 10  1  0
 10 11  1  1
 11 12  1  0
 12 13  1  0
 13 17  1  0
 13 14  2  0
 15 10  1  0
 15 16  2  0
 18 19  1  0
 20 19  1  6
 20 22  1  0
 20 21  1  0
 21 15  1  0
 22 24  1  0
 23 22  2  0
M  END
$$$$
