MES.pdb
     RDKit          3D

 24 23  0  0  1  0  0  0  0  0999 V2000
    7.7264  -12.2489   19.1324 C   0  0  0  0  0  0  0  0  0  0  0  0
    7.6227  -12.6928   20.8486 S   0  0  0  0  0  0  0  0  0  0  0  0
    6.6694  -14.1689   21.1519 C   0  0  0  0  0  0  0  0  0  0  0  0
    7.4721  -15.3326   21.6184 C   0  0  0  0  0  0  0  0  0  0  0  0
    7.6285  -16.3762   20.5776 C   0  0  2  0  0  0  0  0  0  0  0  0
    6.3606  -17.0864   20.4699 N   0  0  0  0  0  0  0  0  0  0  0  0
    8.7065  -17.3616   20.9802 C   0  0  0  0  0  0  0  0  0  0  0  0
    8.3912  -18.2638   21.7902 O   0  0  0  0  0  0  0  0  0  0  0  0
    9.9947  -17.2137   20.4288 N   0  0  0  0  0  0  0  0  0  0  0  0
   11.0779  -18.1426   20.8328 C   0  0  1  0  0  0  0  0  0  0  0  0
   12.2903  -17.8932   19.9864 C   0  0  0  0  0  0  0  0  0  0  0  0
   13.3830  -18.8536   20.3067 C   0  0  0  0  0  0  0  0  0  0  0  0
   14.5493  -18.5948   19.4084 C   0  0  0  0  0  0  0  0  0  0  0  0
   15.4718  -17.8192   19.7632 O   0  0  0  0  0  0  0  0  0  0  0  0
   11.3871  -17.8291   22.2461 C   0  0  0  0  0  0  0  0  0  0  0  0
   11.5292  -16.6728   22.7210 O   0  0  0  0  0  0  0  0  0  0  0  0
   14.6157  -19.2137   18.1751 O   0  0  0  0  0  0  0  0  0  0  0  0
   11.0268  -19.3232   26.7576 O   0  0  0  0  0  0  0  0  0  0  0  0
   10.8088  -19.4977   25.4105 C   0  0  0  0  0  0  0  0  0  0  0  0
   11.8025  -18.6450   24.6111 C   0  0  2  0  0  0  0  0  0  0  0  0
   11.5583  -18.8629   23.2337 N   0  0  0  0  0  0  0  0  0  0  0  0
   13.1294  -18.9522   25.0957 C   0  0  0  0  0  0  0  0  0  0  0  0
   13.9845  -19.4760   24.3589 O   0  0  0  0  0  0  0  0  0  0  0  0
   13.4780  -18.6684   26.3964 O   0  0  0  0  0  0  0  0  0  0  0  0
  1  2  1  0
  3  2  1  0
  4  3  1  0
  5  4  1  0
  5  7  1  0
  5  6  1  1
  7  8  2  0
  9  7  1  0
  9 10  1  0
 10 11  1  6
 11 12  1  0
 12 13  1  0
 13 17  1  0
 13 14  2  0
 15 10  1  0
 15 16  2  0
 18 19  1  0
 20 19  1  1
 20 22  1  0
 20 21  1  0
 21 15  1  0
 22 24  1  0
 23 22  2  0
M  END
$$$$
