MES.pdb
     RDKit          3D

 24 23  0  0  1  0  0  0  0  0999 V2000
    7.5689  -11.3715   25.9706 C   0  0  0  0  0  0  0  0  0  0  0  0
    6.4729  -12.6254   26.5870 S   0  0  0  0  0  0  0  0  0  0  0  0
    6.4193  -14.0926   25.5749 C   0  0  0  0  0  0  0  0  0  0  0  0
    6.8594  -13.8839   24.1682 C   0  0  0  0  0  0  0  0  0  0  0  0
    6.8277  -15.1298   23.3660 C   0  0  2  0  0  0  0  0  0  0  0  0
    5.5419  -15.7741   23.6010 N   0  0  0  0  0  0  0  0  0  0  0  0
    7.9314  -16.0679   23.8097 C   0  0  0  0  0  0  0  0  0  0  0  0
    7.6312  -16.9662   24.6298 O   0  0  0  0  0  0  0  0  0  0  0  0
    9.2251  -15.8835   23.2827 N   0  0  0  0  0  0  0  0  0  0  0  0
   10.2604  -16.9238   23.4956 C   0  0  1  0  0  0  0  0  0  0  0  0
   11.4412  -16.6397   22.6160 C   0  0  0  0  0  0  0  0  0  0  0  0
   11.9160  -17.8736   21.9296 C   0  0  0  0  0  0  0  0  0  0  0  0
   13.0854  -17.5384   21.0610 C   0  0  0  0  0  0  0  0  0  0  0  0
   13.5451  -16.3697   21.0280 O   0  0  0  0  0  0  0  0  0  0  0  0
   10.6646  -16.8216   24.9161 C   0  0  0  0  0  0  0  0  0  0  0  0
   11.0785  -15.7769   25.4818 O   0  0  0  0  0  0  0  0  0  0  0  0
   13.6682  -18.5223   20.2858 O   0  0  0  0  0  0  0  0  0  0  0  0
    9.6959  -19.8652   27.4194 O   0  0  0  0  0  0  0  0  0  0  0  0
   10.0874  -18.6878   28.0137 C   0  0  0  0  0  0  0  0  0  0  0  0
   11.1188  -17.9789   27.1265 C   0  0  2  0  0  0  0  0  0  0  0  0
   10.6161  -17.9547   25.8031 N   0  0  0  0  0  0  0  0  0  0  0  0
   12.3919  -18.6330   27.3295 C   0  0  0  0  0  0  0  0  0  0  0  0
   13.0150  -19.1487   26.3838 O   0  0  0  0  0  0  0  0  0  0  0  0
   12.9471  -18.6996   28.5870 O   0  0  0  0  0  0  0  0  0  0  0  0
  1  2  1  0
  3  2  1  0
  4  3  1  0
  5  4  1  0
  5  7  1  0
  5  6  1  1
  7  8  2  0
  9  7  1  0
  9 10  1  0
 10 11  1  6
 11 12  1  0
 12 13  1  0
 13 17  1  0
 13 14  2  0
 15 10  1  0
 15 16  2  0
 18 19  1  0
 20 19  1  1
 20 22  1  0
 20 21  1  0
 21 15  1  0
 22 24  1  0
 23 22  2  0
M  END
$$$$
