QQW.pdb
     RDKit          3D

 33 34  0  0  1  0  0  0  0  0999 V2000
   29.5785  -15.6400  -16.6396 N   0  0  0  0  0  0  0  0  0  0  0  0
   29.1146  -16.3858  -17.7793 C   0  0  0  0  0  0  0  0  0  0  0  0
   29.7230  -16.2330  -18.8618 O   0  0  0  0  0  0  0  0  0  0  0  0
   27.9676  -17.2625  -17.5670 C   0  0  0  0  0  0  0  0  0  0  0  0
   27.5809  -17.3253  -16.1165 C   0  0  0  0  0  0  0  0  0  0  0  0
   27.4452  -18.7288  -15.6595 C   0  0  2  0  0  0  0  0  0  0  0  0
   26.6679  -19.5521  -16.5663 N   0  0  0  0  0  0  0  0  0  0  0  0
   26.8367  -18.8470  -14.3037 C   0  0  0  0  0  0  0  0  0  0  0  0
   27.3126  -18.1482  -13.3893 O   0  0  0  0  0  0  0  0  0  0  0  0
   21.1757  -21.6073  -13.7000 N   0  0  0  0  0  0  0  0  0  0  0  0
   22.2834  -22.4849  -13.7018 C   0  0  0  0  0  0  0  0  0  0  0  0
   22.1605  -23.7256  -13.9328 O   0  0  0  0  0  0  0  0  0  0  0  0
   23.6347  -21.9444  -13.4259 C   0  0  0  0  0  0  0  0  0  0  0  0
   23.6073  -20.4720  -13.1076 C   0  0  0  0  0  0  0  0  0  0  0  0
   25.0110  -19.9448  -12.8865 C   0  0  2  0  0  0  0  0  0  0  0  0
   25.7612  -19.7239  -14.0834 N   0  0  0  0  0  0  0  0  0  0  0  0
   25.7448  -20.5839  -11.8036 C   0  0  0  0  0  0  0  0  0  0  0  0
   26.4367  -21.6356  -11.9528 O   0  0  0  0  0  0  0  0  0  0  0  0
   25.7120  -20.0348  -10.4951 N   0  0  0  0  0  0  0  0  0  0  0  0
   26.4315  -20.7039   -9.3930 C   0  0  1  0  0  0  0  0  0  0  0  0
   27.5680  -19.8056   -8.9860 C   0  0  0  0  0  0  0  0  0  0  0  0
   28.3171  -20.3676   -7.8514 C   0  0  0  0  0  0  0  0  0  0  0  0
   29.1149  -21.5078   -7.9261 C   0  0  0  0  0  0  0  0  0  0  0  0
   29.6870  -21.7094   -6.7470 N   0  0  0  0  0  0  0  0  0  0  0  0
   29.2909  -20.7400   -5.8992 C   0  0  0  0  0  0  0  0  0  0  0  0
   29.5873  -20.5116   -4.5809 C   0  0  0  0  0  0  0  0  0  0  0  0
   29.0352  -19.4389   -3.9097 C   0  0  0  0  0  0  0  0  0  0  0  0
   28.1858  -18.6059   -4.5809 C   0  0  0  0  0  0  0  0  0  0  0  0
   27.8784  -18.8176   -5.8967 C   0  0  0  0  0  0  0  0  0  0  0  0
   28.4290  -19.8929   -6.5849 C   0  0  0  0  0  0  0  0  0  0  0  0
   25.4622  -20.9870   -8.3465 C   0  0  0  0  0  0  0  0  0  0  0  0
   24.3548  -20.3972   -8.3358 O   0  0  0  0  0  0  0  0  0  0  0  0
   25.6664  -21.8968   -7.3190 O   0  0  0  0  0  0  0  0  0  0  0  0
  2  1  1  0
  3  2  2  0
  4  2  1  0
  5  4  1  0
  6  5  1  0
  6  7  1  6
  8  9  2  0
  8  6  1  0
 10 11  1  0
 11 12  2  0
 11 13  1  0
 13 14  1  0
 15 14  1  6
 15 16  1  0
 16  8  1  0
 17 15  1  0
 17 19  1  0
 18 17  2  0
 20 19  1  0
 20 31  1  0
 20 21  1  1
 22 21  1  0
 23 22  2  0
 24 23  1  0
 24 25  1  0
 25 30  2  0
 26 25  1  0
 26 27  2  0
 27 28  1  0
 28 29  2  0
 30 22  1  0
 30 29  1  0
 31 33  1  0
 32 31  2  0
M  END
$$$$
