QQW.pdb
     RDKit          3D

 33 34  0  0  1  0  0  0  0  0999 V2000
   26.7760  -25.6966  -16.3395 N   0  0  0  0  0  0  0  0  0  0  0  0
   27.2500  -25.0750  -17.5475 C   0  0  0  0  0  0  0  0  0  0  0  0
   26.6297  -25.3144  -18.6073 O   0  0  0  0  0  0  0  0  0  0  0  0
   28.4203  -24.2119  -17.4257 C   0  0  0  0  0  0  0  0  0  0  0  0
   28.3742  -23.3926  -16.1670 C   0  0  0  0  0  0  0  0  0  0  0  0
   27.4898  -22.2141  -16.3283 C   0  0  2  0  0  0  0  0  0  0  0  0
   27.9851  -21.2568  -17.2992 N   0  0  0  0  0  0  0  0  0  0  0  0
   27.2495  -21.4832  -15.0514 C   0  0  0  0  0  0  0  0  0  0  0  0
   28.2335  -21.2323  -14.3304 O   0  0  0  0  0  0  0  0  0  0  0  0
   22.1652  -17.8278  -14.0014 N   0  0  0  0  0  0  0  0  0  0  0  0
   23.3927  -17.4333  -14.5799 C   0  0  0  0  0  0  0  0  0  0  0  0
   23.5274  -16.3292  -15.1887 O   0  0  0  0  0  0  0  0  0  0  0  0
   24.5642  -18.3339  -14.4752 C   0  0  0  0  0  0  0  0  0  0  0  0
   24.2563  -19.5832  -13.6912 C   0  0  0  0  0  0  0  0  0  0  0  0
   25.5044  -20.4235  -13.5092 C   0  0  2  0  0  0  0  0  0  0  0  0
   25.9478  -21.0976  -14.6895 N   0  0  0  0  0  0  0  0  0  0  0  0
   25.5378  -21.2196  -12.2907 C   0  0  0  0  0  0  0  0  0  0  0  0
   24.9112  -22.3128  -12.1521 O   0  0  0  0  0  0  0  0  0  0  0  0
   26.2994  -20.7869  -11.1736 N   0  0  0  0  0  0  0  0  0  0  0  0
   26.2552  -21.5464   -9.9083 C   0  0  1  0  0  0  0  0  0  0  0  0
   27.6113  -21.4318   -9.2664 C   0  0  0  0  0  0  0  0  0  0  0  0
   27.5940  -20.4863   -8.1394 C   0  0  0  0  0  0  0  0  0  0  0  0
   26.6495  -19.4741   -7.9794 C   0  0  0  0  0  0  0  0  0  0  0  0
   26.8875  -18.8415   -6.8385 N   0  0  0  0  0  0  0  0  0  0  0  0
   27.9578  -19.4037   -6.2438 C   0  0  0  0  0  0  0  0  0  0  0  0
   28.6007  -19.1104   -5.0697 C   0  0  0  0  0  0  0  0  0  0  0  0
   29.7073  -19.8339   -4.6720 C   0  0  0  0  0  0  0  0  0  0  0  0
   30.1540  -20.8494   -5.4689 C   0  0  0  0  0  0  0  0  0  0  0  0
   29.5252  -21.1570   -6.6439 C   0  0  0  0  0  0  0  0  0  0  0  0
   28.4087  -20.4377   -7.0551 C   0  0  0  0  0  0  0  0  0  0  0  0
   25.1520  -21.0196   -9.1206 C   0  0  0  0  0  0  0  0  0  0  0  0
   24.6882  -19.8802   -9.3673 O   0  0  0  0  0  0  0  0  0  0  0  0
   24.5408  -21.7026   -8.0790 O   0  0  0  0  0  0  0  0  0  0  0  0
  2  1  1  0
  3  2  2  0
  4  2  1  0
  5  4  1  0
  6  5  1  0
  6  7  1  6
  8  9  2  0
  8  6  1  0
 10 11  1  0
 11 12  2  0
 11 13  1  0
 13 14  1  0
 15 14  1  6
 15 16  1  0
 16  8  1  0
 17 15  1  0
 17 19  1  0
 18 17  2  0
 20 19  1  0
 20 31  1  0
 20 21  1  1
 22 21  1  0
 23 22  2  0
 24 23  1  0
 24 25  1  0
 25 30  2  0
 26 25  1  0
 26 27  2  0
 27 28  1  0
 28 29  2  0
 30 22  1  0
 30 29  1  0
 31 33  1  0
 32 31  2  0
M  END
$$$$
