QQW.pdb
     RDKit          3D

 33 34  0  0  1  0  0  0  0  0999 V2000
   14.1162  -22.3766    9.6419 N   0  0  0  0  0  0  0  0  0  0  0  0
   14.2566  -22.7859   11.0142 C   0  0  0  0  0  0  0  0  0  0  0  0
   13.3539  -23.5008   11.5036 O   0  0  0  0  0  0  0  0  0  0  0  0
   15.4509  -22.3281   11.7165 C   0  0  0  0  0  0  0  0  0  0  0  0
   16.3241  -21.4855   10.8305 C   0  0  0  0  0  0  0  0  0  0  0  0
   16.9936  -22.3116    9.7979 C   0  0  2  0  0  0  0  0  0  0  0  0
   18.2416  -22.8943   10.2533 N   0  0  0  0  0  0  0  0  0  0  0  0
   17.2744  -21.5625    8.5399 C   0  0  0  0  0  0  0  0  0  0  0  0
   18.2793  -20.8274    8.5124 O   0  0  0  0  0  0  0  0  0  0  0  0
   15.0320  -23.2269    2.7916 N   0  0  0  0  0  0  0  0  0  0  0  0
   15.5074  -21.9153    2.5663 C   0  0  0  0  0  0  0  0  0  0  0  0
   15.5057  -21.3860    1.4140 O   0  0  0  0  0  0  0  0  0  0  0  0
   16.0257  -21.1275    3.7087 C   0  0  0  0  0  0  0  0  0  0  0  0
   15.8445  -21.8405    5.0236 C   0  0  0  0  0  0  0  0  0  0  0  0
   16.5138  -21.0735    6.1464 C   0  0  2  0  0  0  0  0  0  0  0  0
   16.4216  -21.6941    7.4312 N   0  0  0  0  0  0  0  0  0  0  0  0
   16.2814  -19.6363    6.1337 C   0  0  0  0  0  0  0  0  0  0  0  0
   15.2832  -19.0843    6.6868 O   0  0  0  0  0  0  0  0  0  0  0  0
   17.1950  -18.7694    5.4790 N   0  0  0  0  0  0  0  0  0  0  0  0
   16.9628  -17.3113    5.4802 C   0  0  1  0  0  0  0  0  0  0  0  0
   18.3036  -16.6416    5.6137 C   0  0  0  0  0  0  0  0  0  0  0  0
   18.2003  -15.1878    5.4133 C   0  0  0  0  0  0  0  0  0  0  0  0
   17.7821  -14.2890    6.3927 C   0  0  0  0  0  0  0  0  0  0  0  0
   17.8541  -13.0581    5.9047 N   0  0  0  0  0  0  0  0  0  0  0  0
   18.3049  -13.1182    4.6364 C   0  0  0  0  0  0  0  0  0  0  0  0
   18.5392  -12.1360    3.7100 C   0  0  0  0  0  0  0  0  0  0  0  0
   18.9949  -12.4532    2.4459 C   0  0  0  0  0  0  0  0  0  0  0  0
   19.2091  -13.7649    2.1308 C   0  0  0  0  0  0  0  0  0  0  0  0
   18.9812  -14.7589    3.0421 C   0  0  0  0  0  0  0  0  0  0  0  0
   18.5240  -14.4531    4.3191 C   0  0  0  0  0  0  0  0  0  0  0  0
   16.2267  -16.9850    4.2693 C   0  0  0  0  0  0  0  0  0  0  0  0
   16.3588  -17.6915    3.2408 O   0  0  0  0  0  0  0  0  0  0  0  0
   15.3499  -15.9159    4.1531 O   0  0  0  0  0  0  0  0  0  0  0  0
  2  1  1  0
  3  2  2  0
  4  2  1  0
  5  4  1  0
  6  5  1  0
  6  7  1  1
  8  9  2  0
  8  6  1  0
 10 11  1  0
 11 12  2  0
 11 13  1  0
 13 14  1  0
 15 14  1  6
 15 16  1  0
 16  8  1  0
 17 15  1  0
 17 19  1  0
 18 17  2  0
 20 19  1  0
 20 31  1  0
 20 21  1  6
 22 21  1  0
 23 22  2  0
 24 23  1  0
 24 25  1  0
 25 30  2  0
 26 25  1  0
 26 27  2  0
 27 28  1  0
 28 29  2  0
 30 22  1  0
 30 29  1  0
 31 33  1  0
 32 31  2  0
M  END
$$$$
