QQW.pdb
     RDKit          3D

 33 34  0  0  1  0  0  0  0  0999 V2000
   11.8549   -7.7444  -14.1024 N   0  0  0  0  0  0  0  0  0  0  0  0
   11.8817   -9.0676  -14.6670 C   0  0  0  0  0  0  0  0  0  0  0  0
   10.8552   -9.7726  -14.5465 O   0  0  0  0  0  0  0  0  0  0  0  0
   13.1139   -9.4702  -15.3371 C   0  0  0  0  0  0  0  0  0  0  0  0
   14.1314   -8.3646  -15.3339 C   0  0  0  0  0  0  0  0  0  0  0  0
   15.3942   -8.7983  -15.9774 C   0  0  2  0  0  0  0  0  0  0  0  0
   15.4074  -10.2086  -16.3168 N   0  0  0  0  0  0  0  0  0  0  0  0
   16.6005   -8.5197  -15.1468 C   0  0  0  0  0  0  0  0  0  0  0  0
   16.4674   -8.5211  -13.9085 O   0  0  0  0  0  0  0  0  0  0  0  0
   21.6786  -10.9957  -15.1629 N   0  0  0  0  0  0  0  0  0  0  0  0
   22.2364   -9.7705  -14.7328 C   0  0  0  0  0  0  0  0  0  0  0  0
   23.3037   -9.7180  -14.0502 O   0  0  0  0  0  0  0  0  0  0  0  0
   21.5575   -8.5026  -15.0876 C   0  0  0  0  0  0  0  0  0  0  0  0
   20.2737   -8.7333  -15.8418 C   0  0  0  0  0  0  0  0  0  0  0  0
   19.1144   -8.0433  -15.1513 C   0  0  2  0  0  0  0  0  0  0  0  0
   17.8394   -8.2660  -15.7589 N   0  0  0  0  0  0  0  0  0  0  0  0
   19.3731   -6.6716  -14.7373 C   0  0  0  0  0  0  0  0  0  0  0  0
   20.4195   -6.3136  -14.1179 O   0  0  0  0  0  0  0  0  0  0  0  0
   18.4310   -5.6485  -15.0214 N   0  0  0  0  0  0  0  0  0  0  0  0
   18.8438   -4.2314  -14.9865 C   0  0  1  0  0  0  0  0  0  0  0  0
   19.6868   -3.9774  -16.2067 C   0  0  0  0  0  0  0  0  0  0  0  0
   21.0428   -3.5392  -15.8412 C   0  0  0  0  0  0  0  0  0  0  0  0
   22.0236   -4.3790  -15.3169 C   0  0  0  0  0  0  0  0  0  0  0  0
   23.1400   -3.6832  -15.1498 N   0  0  0  0  0  0  0  0  0  0  0  0
   22.9252   -2.4135  -15.5460 C   0  0  0  0  0  0  0  0  0  0  0  0
   23.7475   -1.3174  -15.5622 C   0  0  0  0  0  0  0  0  0  0  0  0
   23.2850   -0.0955  -16.0086 C   0  0  0  0  0  0  0  0  0  0  0  0
   21.9912    0.0055  -16.4348 C   0  0  0  0  0  0  0  0  0  0  0  0
   21.1558   -1.0773  -16.4263 C   0  0  0  0  0  0  0  0  0  0  0  0
   21.6094   -2.3140  -15.9811 C   0  0  0  0  0  0  0  0  0  0  0  0
   17.6363   -3.4266  -14.8909 C   0  0  0  0  0  0  0  0  0  0  0  0
   16.5089   -3.9632  -15.0152 O   0  0  0  0  0  0  0  0  0  0  0  0
   17.6264   -2.0587  -14.6590 O   0  0  0  0  0  0  0  0  0  0  0  0
  2  1  1  0
  3  2  2  0
  4  2  1  0
  5  4  1  0
  6  5  1  0
  6  7  1  1
  8  9  2  0
  8  6  1  0
 10 11  1  0
 11 12  2  0
 11 13  1  0
 13 14  1  0
 15 14  1  6
 15 16  1  0
 16  8  1  0
 17 15  1  0
 17 19  1  0
 18 17  2  0
 20 19  1  0
 20 31  1  0
 20 21  1  6
 22 21  1  0
 23 22  2  0
 24 23  1  0
 24 25  1  0
 25 30  2  0
 26 25  1  0
 26 27  2  0
 27 28  1  0
 28 29  2  0
 30 22  1  0
 30 29  1  0
 31 33  1  0
 32 31  2  0
M  END
$$$$
