QQW.pdb
     RDKit          3D

 33 34  0  0  1  0  0  0  0  0999 V2000
   29.1677  -23.4434  -15.6350 N   0  0  0  0  0  0  0  0  0  0  0  0
   29.3283  -23.3260  -17.0600 C   0  0  0  0  0  0  0  0  0  0  0  0
   29.7806  -24.3153  -17.6782 O   0  0  0  0  0  0  0  0  0  0  0  0
   28.9437  -22.0531  -17.6610 C   0  0  0  0  0  0  0  0  0  0  0  0
   28.4036  -21.0981  -16.6345 C   0  0  0  0  0  0  0  0  0  0  0  0
   26.9921  -20.7477  -16.9206 C   0  0  2  0  0  0  0  0  0  0  0  0
   26.8096  -20.1258  -18.2184 N   0  0  0  0  0  0  0  0  0  0  0  0
   26.3936  -19.8449  -15.8962 C   0  0  0  0  0  0  0  0  0  0  0  0
   26.1394  -18.6725  -16.2310 O   0  0  0  0  0  0  0  0  0  0  0  0
   22.5102  -18.4192  -15.8810 N   0  0  0  0  0  0  0  0  0  0  0  0
   22.2414  -19.5762  -15.1155 C   0  0  0  0  0  0  0  0  0  0  0  0
   21.2717  -20.3494  -15.3795 O   0  0  0  0  0  0  0  0  0  0  0  0
   23.1169  -19.9025  -13.9660 C   0  0  0  0  0  0  0  0  0  0  0  0
   24.2452  -18.9164  -13.8090 C   0  0  0  0  0  0  0  0  0  0  0  0
   25.5431  -19.6322  -13.4925 C   0  0  2  0  0  0  0  0  0  0  0  0
   26.1316  -20.3189  -14.5998 N   0  0  0  0  0  0  0  0  0  0  0  0
   25.5511  -20.3638  -12.2337 C   0  0  0  0  0  0  0  0  0  0  0  0
   25.2033  -21.5782  -12.1283 O   0  0  0  0  0  0  0  0  0  0  0  0
   25.9627  -19.7227  -11.0360 N   0  0  0  0  0  0  0  0  0  0  0  0
   26.0318  -20.4857   -9.7738 C   0  0  1  0  0  0  0  0  0  0  0  0
   27.0739  -19.8311   -8.9081 C   0  0  0  0  0  0  0  0  0  0  0  0
   27.0230  -20.3395   -7.5285 C   0  0  0  0  0  0  0  0  0  0  0  0
   26.2889  -21.4553   -7.1307 C   0  0  0  0  0  0  0  0  0  0  0  0
   26.5025  -21.6717   -5.8399 N   0  0  0  0  0  0  0  0  0  0  0  0
   27.3519  -20.7344   -5.3759 C   0  0  0  0  0  0  0  0  0  0  0  0
   27.8684  -20.5185   -4.1251 C   0  0  0  0  0  0  0  0  0  0  0  0
   28.7248  -19.4616   -3.8887 C   0  0  0  0  0  0  0  0  0  0  0  0
   29.0504  -18.6312   -4.9232 C   0  0  0  0  0  0  0  0  0  0  0  0
   28.5451  -18.8309   -6.1783 C   0  0  0  0  0  0  0  0  0  0  0  0
   27.6833  -19.8925   -6.4304 C   0  0  0  0  0  0  0  0  0  0  0  0
   24.6919  -20.5195   -9.2096 C   0  0  0  0  0  0  0  0  0  0  0  0
   23.8733  -19.6056   -9.4724 O   0  0  0  0  0  0  0  0  0  0  0  0
   24.2220  -21.5227   -8.3742 O   0  0  0  0  0  0  0  0  0  0  0  0
  2  1  1  0
  3  2  2  0
  4  2  1  0
  5  4  1  0
  6  5  1  0
  6  7  1  6
  8  9  2  0
  8  6  1  0
 10 11  1  0
 11 12  2  0
 11 13  1  0
 13 14  1  0
 15 14  1  6
 15 16  1  0
 16  8  1  0
 17 15  1  0
 17 19  1  0
 18 17  2  0
 20 19  1  0
 20 31  1  0
 20 21  1  1
 22 21  1  0
 23 22  2  0
 24 23  1  0
 24 25  1  0
 25 30  2  0
 26 25  1  0
 26 27  2  0
 27 28  1  0
 28 29  2  0
 30 22  1  0
 30 29  1  0
 31 33  1  0
 32 31  2  0
M  END
$$$$
