QQW.pdb
     RDKit          3D

 33 34  0  0  1  0  0  0  0  0999 V2000
   25.6179  -19.5425  -17.4280 N   0  0  0  0  0  0  0  0  0  0  0  0
   25.0263  -20.6919  -16.7959 C   0  0  0  0  0  0  0  0  0  0  0  0
   25.6581  -21.7708  -16.8416 O   0  0  0  0  0  0  0  0  0  0  0  0
   23.7325  -20.4928  -16.1511 C   0  0  0  0  0  0  0  0  0  0  0  0
   23.3340  -19.0441  -16.1473 C   0  0  0  0  0  0  0  0  0  0  0  0
   22.0824  -18.8319  -16.9124 C   0  0  2  0  0  0  0  0  0  0  0  0
   22.0472  -19.5636  -18.1645 N   0  0  0  0  0  0  0  0  0  0  0  0
   21.8187  -17.3966  -17.2175 C   0  0  0  0  0  0  0  0  0  0  0  0
   22.5794  -16.8229  -18.0195 O   0  0  0  0  0  0  0  0  0  0  0  0
   16.1825  -14.7019  -16.3115 N   0  0  0  0  0  0  0  0  0  0  0  0
   16.6157  -15.6275  -17.2875 C   0  0  0  0  0  0  0  0  0  0  0  0
   15.8019  -16.2520  -18.0330 O   0  0  0  0  0  0  0  0  0  0  0  0
   18.0660  -15.8812  -17.4506 C   0  0  0  0  0  0  0  0  0  0  0  0
   18.8990  -15.0737  -16.4892 C   0  0  0  0  0  0  0  0  0  0  0  0
   20.3749  -15.3498  -16.6954 C   0  0  2  0  0  0  0  0  0  0  0  0
   20.7419  -16.7291  -16.6103 N   0  0  0  0  0  0  0  0  0  0  0  0
   21.2741  -14.4259  -16.0190 C   0  0  0  0  0  0  0  0  0  0  0  0
   21.4311  -14.3972  -14.7614 O   0  0  0  0  0  0  0  0  0  0  0  0
   22.0349  -13.4903  -16.7678 N   0  0  0  0  0  0  0  0  0  0  0  0
   22.8769  -12.4959  -16.0736 C   0  0  1  0  0  0  0  0  0  0  0  0
   24.2822  -12.6587  -16.5864 C   0  0  0  0  0  0  0  0  0  0  0  0
   25.1649  -11.5958  -16.0812 C   0  0  0  0  0  0  0  0  0  0  0  0
   26.0079  -11.7339  -14.9801 C   0  0  0  0  0  0  0  0  0  0  0  0
   26.7010  -10.6138  -14.8270 N   0  0  0  0  0  0  0  0  0  0  0  0
   26.3407   -9.7436  -15.7905 C   0  0  0  0  0  0  0  0  0  0  0  0
   26.7516   -8.4635  -16.0557 C   0  0  0  0  0  0  0  0  0  0  0  0
   26.2141   -7.7550  -17.1117 C   0  0  0  0  0  0  0  0  0  0  0  0
   25.2629   -8.3503  -17.8907 C   0  0  0  0  0  0  0  0  0  0  0  0
   24.8405   -9.6270  -17.6415 C   0  0  0  0  0  0  0  0  0  0  0  0
   25.3750  -10.3523  -16.5826 C   0  0  0  0  0  0  0  0  0  0  0  0
   22.2843  -11.1873  -16.2997 C   0  0  0  0  0  0  0  0  0  0  0  0
   21.6506  -10.9558  -17.3576 O   0  0  0  0  0  0  0  0  0  0  0  0
   22.3599  -10.1309  -15.4033 O   0  0  0  0  0  0  0  0  0  0  0  0
  2  1  1  0
  3  2  2  0
  4  2  1  0
  5  4  1  0
  6  5  1  0
  6  7  1  6
  8  9  2  0
  8  6  1  0
 10 11  1  0
 11 12  2  0
 11 13  1  0
 13 14  1  0
 15 14  1  1
 15 16  1  0
 16  8  1  0
 17 15  1  0
 17 19  1  0
 18 17  2  0
 20 19  1  0
 20 31  1  0
 20 21  1  6
 22 21  1  0
 23 22  2  0
 24 23  1  0
 24 25  1  0
 25 30  2  0
 26 25  1  0
 26 27  2  0
 27 28  1  0
 28 29  2  0
 30 22  1  0
 30 29  1  0
 31 33  1  0
 32 31  2  0
M  END
$$$$
