QQW.pdb
     RDKit          3D

 33 34  0  0  1  0  0  0  0  0999 V2000
   28.1631  -27.1540  -16.9038 N   0  0  0  0  0  0  0  0  0  0  0  0
   27.3738  -26.7703  -18.0440 C   0  0  0  0  0  0  0  0  0  0  0  0
   27.0751  -27.6602  -18.8711 O   0  0  0  0  0  0  0  0  0  0  0  0
   26.9876  -25.3658  -18.1321 C   0  0  0  0  0  0  0  0  0  0  0  0
   27.4610  -24.5866  -16.9378 C   0  0  0  0  0  0  0  0  0  0  0  0
   27.9727  -23.2541  -17.3374 C   0  0  2  0  0  0  0  0  0  0  0  0
   29.2496  -23.3146  -18.0230 N   0  0  0  0  0  0  0  0  0  0  0  0
   28.1176  -22.3141  -16.1894 C   0  0  0  0  0  0  0  0  0  0  0  0
   29.1238  -22.4311  -15.4649 O   0  0  0  0  0  0  0  0  0  0  0  0
   26.9481  -16.3342  -15.8802 N   0  0  0  0  0  0  0  0  0  0  0  0
   28.0965  -17.0837  -16.2216 C   0  0  0  0  0  0  0  0  0  0  0  0
   29.0954  -16.5607  -16.8015 O   0  0  0  0  0  0  0  0  0  0  0  0
   28.1415  -18.5277  -15.8941 C   0  0  0  0  0  0  0  0  0  0  0  0
   26.9006  -18.9895  -15.1750 C   0  0  0  0  0  0  0  0  0  0  0  0
   26.9999  -20.4608  -14.8246 C   0  0  2  0  0  0  0  0  0  0  0  0
   27.1404  -21.3339  -15.9481 N   0  0  0  0  0  0  0  0  0  0  0  0
   26.0700  -20.9133  -13.7998 C   0  0  0  0  0  0  0  0  0  0  0  0
   24.8535  -21.1852  -14.0301 O   0  0  0  0  0  0  0  0  0  0  0  0
   26.5056  -21.0724  -12.4582 N   0  0  0  0  0  0  0  0  0  0  0  0
   25.5452  -21.4719  -11.4104 C   0  0  1  0  0  0  0  0  0  0  0  0
   26.3425  -21.9263  -10.2179 C   0  0  0  0  0  0  0  0  0  0  0  0
   26.5838  -20.8192   -9.2796 C   0  0  0  0  0  0  0  0  0  0  0  0
   25.7691  -19.6941   -9.1681 C   0  0  0  0  0  0  0  0  0  0  0  0
   26.2359  -18.9206   -8.1974 N   0  0  0  0  0  0  0  0  0  0  0  0
   27.3312  -19.4997   -7.6677 C   0  0  0  0  0  0  0  0  0  0  0  0
   28.1715  -19.0998   -6.6618 C   0  0  0  0  0  0  0  0  0  0  0  0
   29.2577  -19.8722   -6.3016 C   0  0  0  0  0  0  0  0  0  0  0  0
   29.4837  -21.0446   -6.9650 C   0  0  0  0  0  0  0  0  0  0  0  0
   28.6559  -21.4602   -7.9713 C   0  0  0  0  0  0  0  0  0  0  0  0
   27.5575  -20.6929   -8.3427 C   0  0  0  0  0  0  0  0  0  0  0  0
   24.6645  -20.3399  -11.1701 C   0  0  0  0  0  0  0  0  0  0  0  0
   25.0554  -19.1732  -11.4154 O   0  0  0  0  0  0  0  0  0  0  0  0
   23.3722  -20.4475  -10.6765 O   0  0  0  0  0  0  0  0  0  0  0  0
  2  1  1  0
  3  2  2  0
  4  2  1  0
  5  4  1  0
  6  5  1  0
  6  7  1  1
  8  9  2  0
  8  6  1  0
 10 11  1  0
 11 12  2  0
 11 13  1  0
 13 14  1  0
 15 14  1  6
 15 16  1  0
 16  8  1  0
 17 15  1  0
 17 19  1  0
 18 17  2  0
 20 19  1  0
 20 31  1  0
 20 21  1  1
 22 21  1  0
 23 22  2  0
 24 23  1  0
 24 25  1  0
 25 30  2  0
 26 25  1  0
 26 27  2  0
 27 28  1  0
 28 29  2  0
 30 22  1  0
 30 29  1  0
 31 33  1  0
 32 31  2  0
M  END
$$$$
