QQW.pdb
     RDKit          3D

 33 34  0  0  1  0  0  0  0  0999 V2000
   20.6216  -12.6314  -22.9442 N   0  0  0  0  0  0  0  0  0  0  0  0
   19.7071  -13.6674  -22.5431 C   0  0  0  0  0  0  0  0  0  0  0  0
   19.7315  -14.7439  -23.1801 O   0  0  0  0  0  0  0  0  0  0  0  0
   18.8276  -13.3667  -21.4182 C   0  0  0  0  0  0  0  0  0  0  0  0
   19.0899  -11.9954  -20.8628 C   0  0  0  0  0  0  0  0  0  0  0  0
   19.3099  -12.0451  -19.3978 C   0  0  2  0  0  0  0  0  0  0  0  0
   18.1598  -12.5380  -18.6639 N   0  0  0  0  0  0  0  0  0  0  0  0
   19.6874  -10.7249  -18.8173 C   0  0  0  0  0  0  0  0  0  0  0  0
   20.5185  -10.0335  -19.4357 O   0  0  0  0  0  0  0  0  0  0  0  0
   15.8428   -7.0006  -15.5031 N   0  0  0  0  0  0  0  0  0  0  0  0
   17.0843   -6.3289  -15.4350 C   0  0  0  0  0  0  0  0  0  0  0  0
   17.1798   -5.1259  -15.0457 O   0  0  0  0  0  0  0  0  0  0  0  0
   18.3181   -7.0475  -15.8295 C   0  0  0  0  0  0  0  0  0  0  0  0
   18.0246   -8.3887  -16.4500 C   0  0  0  0  0  0  0  0  0  0  0  0
   19.3033   -9.0550  -16.9171 C   0  0  2  0  0  0  0  0  0  0  0  0
   19.1137  -10.2910  -17.6104 N   0  0  0  0  0  0  0  0  0  0  0  0
   20.3902   -9.0476  -15.9485 C   0  0  0  0  0  0  0  0  0  0  0  0
   20.4262   -9.8038  -14.9317 O   0  0  0  0  0  0  0  0  0  0  0  0
   21.4883   -8.1630  -16.1117 N   0  0  0  0  0  0  0  0  0  0  0  0
   22.8119   -8.5162  -15.5611 C   0  0  1  0  0  0  0  0  0  0  0  0
   23.2385   -9.8069  -16.2062 C   0  0  0  0  0  0  0  0  0  0  0  0
   24.6002  -10.1867  -15.7989 C   0  0  0  0  0  0  0  0  0  0  0  0
   24.8952  -10.9766  -14.6893 C   0  0  0  0  0  0  0  0  0  0  0  0
   26.2057  -11.1722  -14.6379 N   0  0  0  0  0  0  0  0  0  0  0  0
   26.7821  -10.5362  -15.6766 C   0  0  0  0  0  0  0  0  0  0  0  0
   28.0940  -10.4249  -16.0565 C   0  0  0  0  0  0  0  0  0  0  0  0
   28.4450   -9.6921  -17.1727 C   0  0  0  0  0  0  0  0  0  0  0  0
   27.4623   -9.0771  -17.8951 C   0  0  0  0  0  0  0  0  0  0  0  0
   26.1477   -9.1770  -17.5315 C   0  0  0  0  0  0  0  0  0  0  0  0
   25.7803   -9.9134  -16.4108 C   0  0  0  0  0  0  0  0  0  0  0  0
   23.6977   -7.3866  -15.7938 C   0  0  0  0  0  0  0  0  0  0  0  0
   23.5291   -6.6481  -16.7941 O   0  0  0  0  0  0  0  0  0  0  0  0
   24.7547   -7.0399  -14.9645 O   0  0  0  0  0  0  0  0  0  0  0  0
  2  1  1  0
  3  2  2  0
  4  2  1  0
  5  4  1  0
  6  5  1  0
  6  7  1  1
  8  9  2  0
  8  6  1  0
 10 11  1  0
 11 12  2  0
 11 13  1  0
 13 14  1  0
 15 14  1  1
 15 16  1  0
 16  8  1  0
 17 15  1  0
 17 19  1  0
 18 17  2  0
 20 19  1  0
 20 31  1  0
 20 21  1  6
 22 21  1  0
 23 22  2  0
 24 23  1  0
 24 25  1  0
 25 30  2  0
 26 25  1  0
 26 27  2  0
 27 28  1  0
 28 29  2  0
 30 22  1  0
 30 29  1  0
 31 33  1  0
 32 31  2  0
M  END
$$$$
