QQW.pdb
     RDKit          3D

 33 34  0  0  1  0  0  0  0  0999 V2000
   30.5230  -25.4859  -18.3437 N   0  0  0  0  0  0  0  0  0  0  0  0
   31.0211  -25.1966  -17.0251 C   0  0  0  0  0  0  0  0  0  0  0  0
   32.0954  -25.7356  -16.6776 O   0  0  0  0  0  0  0  0  0  0  0  0
   30.2223  -24.2909  -16.2061 C   0  0  0  0  0  0  0  0  0  0  0  0
   29.0271  -23.7757  -16.9569 C   0  0  0  0  0  0  0  0  0  0  0  0
   27.8039  -24.5325  -16.5992 C   0  0  2  0  0  0  0  0  0  0  0  0
   27.8419  -25.9168  -17.0314 N   0  0  0  0  0  0  0  0  0  0  0  0
   26.5573  -23.9212  -17.1420 C   0  0  0  0  0  0  0  0  0  0  0  0
   26.4377  -23.8446  -18.3794 O   0  0  0  0  0  0  0  0  0  0  0  0
   21.2835  -24.3760  -18.9108 N   0  0  0  0  0  0  0  0  0  0  0  0
   22.0656  -25.3119  -18.1969 C   0  0  0  0  0  0  0  0  0  0  0  0
   21.7427  -26.5352  -18.1117 O   0  0  0  0  0  0  0  0  0  0  0  0
   23.3040  -24.8560  -17.5240 C   0  0  0  0  0  0  0  0  0  0  0  0
   23.5724  -23.3911  -17.7525 C   0  0  0  0  0  0  0  0  0  0  0  0
   24.3289  -22.7954  -16.5821 C   0  0  2  0  0  0  0  0  0  0  0  0
   25.5601  -23.4521  -16.2705 N   0  0  0  0  0  0  0  0  0  0  0  0
   23.5066  -22.4419  -15.4338 C   0  0  0  0  0  0  0  0  0  0  0  0
   23.1529  -23.2731  -14.5444 O   0  0  0  0  0  0  0  0  0  0  0  0
   23.0544  -21.1075  -15.2610 N   0  0  0  0  0  0  0  0  0  0  0  0
   22.4781  -20.6823  -13.9699 C   0  0  1  0  0  0  0  0  0  0  0  0
   23.4687  -19.7566  -13.3173 C   0  0  0  0  0  0  0  0  0  0  0  0
   23.9881  -18.7657  -14.2726 C   0  0  0  0  0  0  0  0  0  0  0  0
   23.2186  -17.7611  -14.8565 C   0  0  0  0  0  0  0  0  0  0  0  0
   24.0002  -17.0122  -15.6224 N   0  0  0  0  0  0  0  0  0  0  0  0
   25.2579  -17.4919  -15.5621 C   0  0  0  0  0  0  0  0  0  0  0  0
   26.4143  -17.0831  -16.1732 C   0  0  0  0  0  0  0  0  0  0  0  0
   27.5999  -17.7585  -15.9623 C   0  0  0  0  0  0  0  0  0  0  0  0
   27.6033  -18.8442  -15.1334 C   0  0  0  0  0  0  0  0  0  0  0  0
   26.4592  -19.2668  -14.5146 C   0  0  0  0  0  0  0  0  0  0  0  0
   25.2590  -18.5945  -14.7168 C   0  0  0  0  0  0  0  0  0  0  0  0
   21.1746  -20.0987  -14.2441 C   0  0  0  0  0  0  0  0  0  0  0  0
   20.4015  -19.8093  -13.2992 O   0  0  0  0  0  0  0  0  0  0  0  0
   20.6968  -19.8190  -15.5163 O   0  0  0  0  0  0  0  0  0  0  0  0
  2  1  1  0
  3  2  2  0
  4  2  1  0
  5  4  1  0
  6  5  1  0
  6  7  1  6
  8  9  2  0
  8  6  1  0
 10 11  1  0
 11 12  2  0
 11 13  1  0
 13 14  1  0
 15 14  1  6
 15 16  1  0
 16  8  1  0
 17 15  1  0
 17 19  1  0
 18 17  2  0
 20 19  1  0
 20 31  1  0
 20 21  1  6
 22 21  1  0
 23 22  2  0
 24 23  1  0
 24 25  1  0
 25 30  2  0
 26 25  1  0
 26 27  2  0
 27 28  1  0
 28 29  2  0
 30 22  1  0
 30 29  1  0
 31 33  1  0
 32 31  2  0
M  END
$$$$
