QQW.pdb
     RDKit          3D

 33 34  0  0  1  0  0  0  0  0999 V2000
   32.9420  -33.2800  -16.5327 N   0  0  0  0  0  0  0  0  0  0  0  0
   32.9738  -33.1364  -17.9640 C   0  0  0  0  0  0  0  0  0  0  0  0
   33.2157  -34.1569  -18.6462 O   0  0  0  0  0  0  0  0  0  0  0  0
   32.7164  -31.8019  -18.4954 C   0  0  0  0  0  0  0  0  0  0  0  0
   32.5728  -30.7876  -17.3962 C   0  0  0  0  0  0  0  0  0  0  0  0
   33.0006  -29.4431  -17.8501 C   0  0  2  0  0  0  0  0  0  0  0  0
   34.4292  -29.2251  -17.7234 N   0  0  0  0  0  0  0  0  0  0  0  0
   32.3068  -28.3349  -17.1338 C   0  0  0  0  0  0  0  0  0  0  0  0
   31.0663  -28.2708  -17.2235 O   0  0  0  0  0  0  0  0  0  0  0  0
   35.1175  -24.8892  -12.5414 N   0  0  0  0  0  0  0  0  0  0  0  0
   35.6380  -24.8757  -13.8552 C   0  0  0  0  0  0  0  0  0  0  0  0
   36.7956  -24.4295  -14.1175 O   0  0  0  0  0  0  0  0  0  0  0  0
   34.8100  -25.3983  -14.9667 C   0  0  0  0  0  0  0  0  0  0  0  0
   33.4442  -25.8362  -14.5049 C   0  0  0  0  0  0  0  0  0  0  0  0
   32.5846  -26.2448  -15.6845 C   0  0  2  0  0  0  0  0  0  0  0  0
   33.0451  -27.4021  -16.3863 N   0  0  0  0  0  0  0  0  0  0  0  0
   32.1345  -25.1464  -16.5275 C   0  0  0  0  0  0  0  0  0  0  0  0
   32.8613  -24.5987  -17.4099 O   0  0  0  0  0  0  0  0  0  0  0  0
   30.8197  -24.6297  -16.3882 N   0  0  0  0  0  0  0  0  0  0  0  0
   30.3556  -23.5391  -17.2686 C   0  0  1  0  0  0  0  0  0  0  0  0
   30.3212  -24.0777  -18.6732 C   0  0  0  0  0  0  0  0  0  0  0  0
   29.0051  -24.6499  -18.9970 C   0  0  0  0  0  0  0  0  0  0  0  0
   27.7970  -24.1735  -18.4915 C   0  0  0  0  0  0  0  0  0  0  0  0
   26.8038  -24.8744  -19.0212 N   0  0  0  0  0  0  0  0  0  0  0  0
   27.3192  -25.7965  -19.8576 C   0  0  0  0  0  0  0  0  0  0  0  0
   26.7191  -26.7581  -20.6278 C   0  0  0  0  0  0  0  0  0  0  0  0
   27.4754  -27.6118  -21.4057 C   0  0  0  0  0  0  0  0  0  0  0  0
   28.8354  -27.4842  -21.3960 C   0  0  0  0  0  0  0  0  0  0  0  0
   29.4521  -26.5305  -20.6340 C   0  0  0  0  0  0  0  0  0  0  0  0
   28.7022  -25.6631  -19.8476 C   0  0  0  0  0  0  0  0  0  0  0  0
   29.0774  -23.0751  -16.7531 C   0  0  0  0  0  0  0  0  0  0  0  0
   28.4484  -23.7633  -15.9134 O   0  0  0  0  0  0  0  0  0  0  0  0
   28.4728  -21.8826  -17.1239 O   0  0  0  0  0  0  0  0  0  0  0  0
  2  1  1  0
  3  2  2  0
  4  2  1  0
  5  4  1  0
  6  5  1  0
  6  7  1  1
  8  9  2  0
  8  6  1  0
 10 11  1  0
 11 12  2  0
 11 13  1  0
 13 14  1  0
 15 14  1  6
 15 16  1  0
 16  8  1  0
 17 15  1  0
 17 19  1  0
 18 17  2  0
 20 19  1  0
 20 31  1  0
 20 21  1  6
 22 21  1  0
 23 22  2  0
 24 23  1  0
 24 25  1  0
 25 30  2  0
 26 25  1  0
 26 27  2  0
 27 28  1  0
 28 29  2  0
 30 22  1  0
 30 29  1  0
 31 33  1  0
 32 31  2  0
M  END
$$$$
