QQW.pdb
     RDKit          3D

 33 34  0  0  1  0  0  0  0  0999 V2000
   27.3666  -14.8892  -17.4725 N   0  0  0  0  0  0  0  0  0  0  0  0
   27.1080  -15.9897  -18.3627 C   0  0  0  0  0  0  0  0  0  0  0  0
   27.6266  -15.9521  -19.5006 O   0  0  0  0  0  0  0  0  0  0  0  0
   26.2584  -17.0607  -17.8522 C   0  0  0  0  0  0  0  0  0  0  0  0
   25.8489  -16.8103  -16.4284 C   0  0  0  0  0  0  0  0  0  0  0  0
   26.4074  -17.8417  -15.5222 C   0  0  2  0  0  0  0  0  0  0  0  0
   26.7115  -19.0899  -16.1959 N   0  0  0  0  0  0  0  0  0  0  0  0
   25.5151  -18.1535  -14.3693 C   0  0  0  0  0  0  0  0  0  0  0  0
   24.7871  -17.2417  -13.9337 O   0  0  0  0  0  0  0  0  0  0  0  0
   21.0777  -21.9364  -13.6507 N   0  0  0  0  0  0  0  0  0  0  0  0
   21.3538  -21.6742  -12.2898 C   0  0  0  0  0  0  0  0  0  0  0  0
   20.5391  -21.9758  -11.3661 O   0  0  0  0  0  0  0  0  0  0  0  0
   22.6345  -21.0264  -11.9233 C   0  0  0  0  0  0  0  0  0  0  0  0
   23.4509  -20.6497  -13.1324 C   0  0  0  0  0  0  0  0  0  0  0  0
   24.7265  -19.9431  -12.7194 C   0  0  2  0  0  0  0  0  0  0  0  0
   25.5090  -19.4403  -13.8053 N   0  0  0  0  0  0  0  0  0  0  0  0
   25.4818  -20.6035  -11.6643 C   0  0  0  0  0  0  0  0  0  0  0  0
   26.5057  -21.3190  -11.8800 O   0  0  0  0  0  0  0  0  0  0  0  0
   25.0866  -20.4663  -10.3079 N   0  0  0  0  0  0  0  0  0  0  0  0
   25.9456  -20.9940   -9.2293 C   0  0  1  0  0  0  0  0  0  0  0  0
   26.9997  -19.9584   -8.9453 C   0  0  0  0  0  0  0  0  0  0  0  0
   27.9131  -20.3998   -7.8799 C   0  0  0  0  0  0  0  0  0  0  0  0
   28.7350  -21.5219   -7.9666 C   0  0  0  0  0  0  0  0  0  0  0  0
   29.4659  -21.6050   -6.8634 N   0  0  0  0  0  0  0  0  0  0  0  0
   29.1510  -20.5750   -6.0537 C   0  0  0  0  0  0  0  0  0  0  0  0
   29.6117  -20.2245   -4.8116 C   0  0  0  0  0  0  0  0  0  0  0  0
   29.1150  -19.1111   -4.1638 C   0  0  0  0  0  0  0  0  0  0  0  0
   28.1540  -18.3616   -4.7807 C   0  0  0  0  0  0  0  0  0  0  0  0
   27.6822  -18.6956   -6.0202 C   0  0  0  0  0  0  0  0  0  0  0  0
   28.1751  -19.8132   -6.6844 C   0  0  0  0  0  0  0  0  0  0  0  0
   25.0835  -21.3229   -8.1053 C   0  0  0  0  0  0  0  0  0  0  0  0
   23.9166  -20.8652   -8.0500 O   0  0  0  0  0  0  0  0  0  0  0  0
   25.4577  -22.1389   -7.0474 O   0  0  0  0  0  0  0  0  0  0  0  0
  2  1  1  0
  3  2  2  0
  4  2  1  0
  5  4  1  0
  6  5  1  0
  6  7  1  6
  8  9  2  0
  8  6  1  0
 10 11  1  0
 11 12  2  0
 11 13  1  0
 13 14  1  0
 15 14  1  6
 15 16  1  0
 16  8  1  0
 17 15  1  0
 17 19  1  0
 18 17  2  0
 20 19  1  0
 20 31  1  0
 20 21  1  1
 22 21  1  0
 23 22  2  0
 24 23  1  0
 24 25  1  0
 25 30  2  0
 26 25  1  0
 26 27  2  0
 27 28  1  0
 28 29  2  0
 30 22  1  0
 30 29  1  0
 31 33  1  0
 32 31  2  0
M  END
$$$$
