QQW.pdb
     RDKit          3D

 33 34  0  0  1  0  0  0  0  0999 V2000
   23.1671  -15.4685  -17.1809 N   0  0  0  0  0  0  0  0  0  0  0  0
   23.2304  -16.6976  -17.9264 C   0  0  0  0  0  0  0  0  0  0  0  0
   23.3236  -16.6189  -19.1716 O   0  0  0  0  0  0  0  0  0  0  0  0
   23.1821  -17.9357  -17.1557 C   0  0  0  0  0  0  0  0  0  0  0  0
   23.1086  -17.6652  -15.6795 C   0  0  0  0  0  0  0  0  0  0  0  0
   24.3259  -18.1491  -14.9860 C   0  0  2  0  0  0  0  0  0  0  0  0
   25.2300  -18.8745  -15.8583 N   0  0  0  0  0  0  0  0  0  0  0  0
   24.0252  -19.0226  -13.8159 C   0  0  0  0  0  0  0  0  0  0  0  0
   23.0596  -18.7140  -13.0923 O   0  0  0  0  0  0  0  0  0  0  0  0
   23.6783  -24.9713  -14.0316 N   0  0  0  0  0  0  0  0  0  0  0  0
   22.7047  -23.9520  -14.1337 C   0  0  0  0  0  0  0  0  0  0  0  0
   21.5673  -24.1556  -14.6560 O   0  0  0  0  0  0  0  0  0  0  0  0
   23.0164  -22.5996  -13.6158 C   0  0  0  0  0  0  0  0  0  0  0  0
   24.3842  -22.5293  -12.9879 C   0  0  0  0  0  0  0  0  0  0  0  0
   24.6836  -21.1224  -12.5106 C   0  0  2  0  0  0  0  0  0  0  0  0
   24.8164  -20.1535  -13.5536 N   0  0  0  0  0  0  0  0  0  0  0  0
   25.6759  -21.0309  -11.4491 C   0  0  0  0  0  0  0  0  0  0  0  0
   26.9102  -20.8343  -11.6606 O   0  0  0  0  0  0  0  0  0  0  0  0
   25.2852  -21.1631  -10.0908 N   0  0  0  0  0  0  0  0  0  0  0  0
   26.3086  -21.3140   -9.0373 C   0  0  1  0  0  0  0  0  0  0  0  0
   27.2387  -20.1357   -9.1405 C   0  0  0  0  0  0  0  0  0  0  0  0
   28.3359  -20.2304   -8.1650 C   0  0  0  0  0  0  0  0  0  0  0  0
   29.5659  -20.8320   -8.4243 C   0  0  0  0  0  0  0  0  0  0  0  0
   30.3421  -20.6990   -7.3574 N   0  0  0  0  0  0  0  0  0  0  0  0
   29.6626  -20.0308   -6.4050 C   0  0  0  0  0  0  0  0  0  0  0  0
   30.0141  -19.6560   -5.1346 C   0  0  0  0  0  0  0  0  0  0  0  0
   29.1223  -18.9786   -4.3271 C   0  0  0  0  0  0  0  0  0  0  0  0
   27.8800  -18.6868   -4.8144 C   0  0  0  0  0  0  0  0  0  0  0  0
   27.5114  -19.0524   -6.0797 C   0  0  0  0  0  0  0  0  0  0  0  0
   28.4004  -19.7332   -6.9038 C   0  0  0  0  0  0  0  0  0  0  0  0
   25.6125  -21.4426   -7.7670 C   0  0  0  0  0  0  0  0  0  0  0  0
   24.4958  -20.8950   -7.6012 O   0  0  0  0  0  0  0  0  0  0  0  0
   26.0981  -22.1544   -6.6795 O   0  0  0  0  0  0  0  0  0  0  0  0
  2  1  1  0
  3  2  2  0
  4  2  1  0
  5  4  1  0
  6  5  1  0
  6  7  1  6
  8  9  2  0
  8  6  1  0
 10 11  1  0
 11 12  2  0
 11 13  1  0
 13 14  1  0
 15 14  1  6
 15 16  1  0
 16  8  1  0
 17 15  1  0
 17 19  1  0
 18 17  2  0
 20 19  1  0
 20 31  1  0
 20 21  1  1
 22 21  1  0
 23 22  2  0
 24 23  1  0
 24 25  1  0
 25 30  2  0
 26 25  1  0
 26 27  2  0
 27 28  1  0
 28 29  2  0
 30 22  1  0
 30 29  1  0
 31 33  1  0
 32 31  2  0
M  END
$$$$
