QQW.pdb
     RDKit          3D

 33 34  0  0  1  0  0  0  0  0999 V2000
   26.8522  -18.4180  -22.3797 N   0  0  0  0  0  0  0  0  0  0  0  0
   27.7181  -18.0020  -21.3084 C   0  0  0  0  0  0  0  0  0  0  0  0
   28.6949  -17.2759  -21.5982 O   0  0  0  0  0  0  0  0  0  0  0  0
   27.3741  -18.4667  -19.9686 C   0  0  0  0  0  0  0  0  0  0  0  0
   26.1294  -19.3082  -19.9782 C   0  0  0  0  0  0  0  0  0  0  0  0
   25.8038  -19.7968  -18.6172 C   0  0  2  0  0  0  0  0  0  0  0  0
   26.9240  -20.4415  -17.9585 N   0  0  0  0  0  0  0  0  0  0  0  0
   24.6556  -20.7475  -18.5954 C   0  0  0  0  0  0  0  0  0  0  0  0
   24.3796  -21.3508  -19.6493 O   0  0  0  0  0  0  0  0  0  0  0  0
   26.9496  -24.9232  -16.5362 N   0  0  0  0  0  0  0  0  0  0  0  0
   25.6972  -25.3504  -16.0401 C   0  0  0  0  0  0  0  0  0  0  0  0
   25.5229  -26.5098  -15.5570 O   0  0  0  0  0  0  0  0  0  0  0  0
   24.5464  -24.4187  -16.0827 C   0  0  0  0  0  0  0  0  0  0  0  0
   24.9312  -23.0588  -16.6050 C   0  0  0  0  0  0  0  0  0  0  0  0
   23.7226  -22.1462  -16.6667 C   0  0  2  0  0  0  0  0  0  0  0  0
   23.9201  -20.9437  -17.4145 N   0  0  0  0  0  0  0  0  0  0  0  0
   23.0093  -21.9838  -15.4079 C   0  0  0  0  0  0  0  0  0  0  0  0
   22.6132  -22.9565  -14.6980 O   0  0  0  0  0  0  0  0  0  0  0  0
   22.7207  -20.6858  -14.9112 N   0  0  0  0  0  0  0  0  0  0  0  0
   22.0686  -20.5242  -13.5964 C   0  0  1  0  0  0  0  0  0  0  0  0
   22.7518  -19.3837  -12.8917 C   0  0  0  0  0  0  0  0  0  0  0  0
   23.9900  -19.8249  -12.2309 C   0  0  0  0  0  0  0  0  0  0  0  0
   25.2495  -19.7977  -12.8268 C   0  0  0  0  0  0  0  0  0  0  0  0
   26.1502  -20.2105  -11.9456 N   0  0  0  0  0  0  0  0  0  0  0  0
   25.5244  -20.5092  -10.7904 C   0  0  0  0  0  0  0  0  0  0  0  0
   26.0025  -20.9810   -9.5960 C   0  0  0  0  0  0  0  0  0  0  0  0
   25.1457  -21.2294   -8.5422 C   0  0  0  0  0  0  0  0  0  0  0  0
   23.8098  -20.9978   -8.7083 C   0  0  0  0  0  0  0  0  0  0  0  0
   23.3142  -20.5269   -9.8929 C   0  0  0  0  0  0  0  0  0  0  0  0
   24.1663  -20.2707  -10.9613 C   0  0  0  0  0  0  0  0  0  0  0  0
   20.6457  -20.3406  -13.8338 C   0  0  0  0  0  0  0  0  0  0  0  0
   20.2201  -20.1471  -14.9982 O   0  0  0  0  0  0  0  0  0  0  0  0
   19.6786  -20.3678  -12.8393 O   0  0  0  0  0  0  0  0  0  0  0  0
  2  1  1  0
  3  2  2  0
  4  2  1  0
  5  4  1  0
  6  5  1  0
  6  7  1  6
  8  9  2  0
  8  6  1  0
 10 11  1  0
 11 12  2  0
 11 13  1  0
 13 14  1  0
 15 14  1  1
 15 16  1  0
 16  8  1  0
 17 15  1  0
 17 19  1  0
 18 17  2  0
 20 19  1  0
 20 31  1  0
 20 21  1  6
 22 21  1  0
 23 22  2  0
 24 23  1  0
 24 25  1  0
 25 30  2  0
 26 25  1  0
 26 27  2  0
 27 28  1  0
 28 29  2  0
 30 22  1  0
 30 29  1  0
 31 33  1  0
 32 31  2  0
M  END
$$$$
