KHK.pdb
     RDKit          3D

 29 29  0  0  1  0  0  0  0  0999 V2000
    8.3771  -16.2109   19.5774 N   0  0  0  0  0  0  0  0  0  0  0  0
    9.2696  -15.0921   19.7880 C   0  0  1  0  0  0  0  0  0  0  0  0
    8.7810  -13.9634   18.9078 C   0  0  0  0  0  0  0  0  0  0  0  0
    8.6178  -14.5324   17.5154 C   0  0  0  0  0  0  0  0  0  0  0  0
    8.1100  -13.5506   16.5126 C   0  0  0  0  0  0  0  0  0  0  0  0
    7.9608  -14.2067   15.1633 C   0  0  0  0  0  0  0  0  0  0  0  0
    7.5489  -13.1478   14.2369 N   0  0  0  0  0  0  0  0  0  0  0  0
    9.2466  -14.7357   21.2217 C   0  0  0  0  0  0  0  0  0  0  0  0
   10.0850  -13.9204   21.6628 O   0  0  0  0  0  0  0  0  0  0  0  0
    8.3104  -15.2756   22.1442 N   0  0  0  0  0  0  0  0  0  0  0  0
    8.2995  -14.9046   23.5602 C   0  0  1  0  0  0  0  0  0  0  0  0
    6.9740  -14.3290   23.9385 C   0  0  0  0  0  0  0  0  0  0  0  0
    6.8655  -13.8710   25.3307 C   0  0  0  0  0  0  0  0  0  0  0  0
    7.2879  -12.6634   25.8160 C   0  0  0  0  0  0  0  0  0  0  0  0
    7.0001  -12.6644   27.1444 N   0  0  0  0  0  0  0  0  0  0  0  0
    6.4207  -13.8380   27.4541 C   0  0  0  0  0  0  0  0  0  0  0  0
    6.3299  -14.5932   26.3496 N   0  0  0  0  0  0  0  0  0  0  0  0
    8.6970  -16.0776   24.3984 C   0  0  0  0  0  0  0  0  0  0  0  0
    8.3716  -17.2344   24.0345 O   0  0  0  0  0  0  0  0  0  0  0  0
    9.4259  -15.8605   25.5769 N   0  0  0  0  0  0  0  0  0  0  0  0
    9.7982  -16.9569   26.4479 C   0  0  1  0  0  0  0  0  0  0  0  0
   10.5865  -16.3509   27.5816 C   0  0  0  0  0  0  0  0  0  0  0  0
   11.0627  -17.3701   28.5830 C   0  0  0  0  0  0  0  0  0  0  0  0
   11.9063  -16.6984   29.6556 C   0  0  0  0  0  0  0  0  0  0  0  0
   12.3343  -17.7995   30.6144 C   0  0  0  0  0  0  0  0  0  0  0  0
   13.1349  -17.1962   31.6736 N   0  0  0  0  0  0  0  0  0  0  0  0
    8.6130  -17.7113   26.8604 C   0  0  0  0  0  0  0  0  0  0  0  0
    7.4857  -17.1811   26.9598 O   0  0  0  0  0  0  0  0  0  0  0  0
    8.7220  -19.0553   27.1548 O   0  0  0  0  0  0  0  0  0  0  0  0
  2  8  1  0
  2  1  1  1
  3  2  1  0
  4  3  1  0
  4  5  1  0
  5  6  1  0
  7  6  1  0
  8  9  2  0
 10 11  1  0
 10  8  1  0
 12 13  1  0
 11 12  1  1
 13 14  2  0
 14 15  1  0
 16 15  1  0
 17 13  1  0
 17 16  2  0
 18 11  1  0
 19 18  2  0
 20 18  1  0
 21 20  1  0
 21 27  1  0
 21 22  1  1
 23 22  1  0
 23 24  1  0
 25 24  1  0
 26 25  1  0
 27 29  1  0
 28 27  2  0
M  END
$$$$
