KHK.pdb
     RDKit          3D

 29 29  0  0  1  0  0  0  0  0999 V2000
   10.2052  -17.1980   16.2374 N   0  0  0  0  0  0  0  0  0  0  0  0
    9.3773  -17.7876   17.2669 C   0  0  1  0  0  0  0  0  0  0  0  0
    9.6584  -19.2737   17.2648 C   0  0  0  0  0  0  0  0  0  0  0  0
    9.4424  -19.7588   15.8481 C   0  0  0  0  0  0  0  0  0  0  0  0
    9.6293  -21.2291   15.6734 C   0  0  0  0  0  0  0  0  0  0  0  0
    9.3025  -21.6362   14.2589 C   0  0  0  0  0  0  0  0  0  0  0  0
    9.6542  -23.0553   14.1500 N   0  0  0  0  0  0  0  0  0  0  0  0
    9.7125  -17.1550   18.5593 C   0  0  0  0  0  0  0  0  0  0  0  0
   10.8579  -16.6852   18.7316 O   0  0  0  0  0  0  0  0  0  0  0  0
    8.7923  -17.0478   19.6367 N   0  0  0  0  0  0  0  0  0  0  0  0
    9.1307  -16.3816   20.8955 C   0  0  1  0  0  0  0  0  0  0  0  0
    8.0253  -15.4693   21.3166 C   0  0  0  0  0  0  0  0  0  0  0  0
    7.8133  -14.3020   20.4493 C   0  0  0  0  0  0  0  0  0  0  0  0
    6.8490  -14.1794   19.4862 C   0  0  0  0  0  0  0  0  0  0  0  0
    7.0207  -12.9517   18.9288 N   0  0  0  0  0  0  0  0  0  0  0  0
    8.0582  -12.3491   19.5364 C   0  0  0  0  0  0  0  0  0  0  0  0
    8.5582  -13.1658   20.4751 N   0  0  0  0  0  0  0  0  0  0  0  0
    9.4863  -17.3992   21.9321 C   0  0  0  0  0  0  0  0  0  0  0  0
    8.7126  -18.3663   22.1382 O   0  0  0  0  0  0  0  0  0  0  0  0
   10.6792  -17.2513   22.6550 N   0  0  0  0  0  0  0  0  0  0  0  0
   11.1112  -18.2491   23.6125 C   0  0  1  0  0  0  0  0  0  0  0  0
   12.5619  -18.5288   23.3102 C   0  0  0  0  0  0  0  0  0  0  0  0
   13.1601  -19.5839   24.2032 C   0  0  0  0  0  0  0  0  0  0  0  0
   14.5871  -19.8879   23.7740 C   0  0  0  0  0  0  0  0  0  0  0  0
   15.0800  -21.0007   24.6871 C   0  0  0  0  0  0  0  0  0  0  0  0
   16.3964  -21.4227   24.2223 N   0  0  0  0  0  0  0  0  0  0  0  0
   10.8463  -17.7981   24.9802 C   0  0  0  0  0  0  0  0  0  0  0  0
   11.0239  -18.5366   25.9726 O   0  0  0  0  0  0  0  0  0  0  0  0
   10.3834  -16.5173   25.2038 O   0  0  0  0  0  0  0  0  0  0  0  0
  2  8  1  0
  2  1  1  6
  3  2  1  0
  4  3  1  0
  4  5  1  0
  5  6  1  0
  7  6  1  0
  8  9  2  0
 10 11  1  0
 10  8  1  0
 12 13  1  0
 11 12  1  1
 13 14  2  0
 14 15  1  0
 16 15  1  0
 17 13  1  0
 17 16  2  0
 18 11  1  0
 19 18  2  0
 20 18  1  0
 21 20  1  0
 21 27  1  0
 21 22  1  1
 23 22  1  0
 23 24  1  0
 25 24  1  0
 26 25  1  0
 27 29  1  0
 28 27  2  0
M  END
$$$$
