KHK.pdb
     RDKit          3D

 29 29  0  0  1  0  0  0  0  0999 V2000
    9.3876  -20.0094   16.0702 N   0  0  0  0  0  0  0  0  0  0  0  0
   10.7158  -19.8121   16.6086 C   0  0  1  0  0  0  0  0  0  0  0  0
   11.6309  -19.5286   15.4382 C   0  0  0  0  0  0  0  0  0  0  0  0
   11.3336  -20.5742   14.3859 C   0  0  0  0  0  0  0  0  0  0  0  0
   12.2687  -20.5499   13.2230 C   0  0  0  0  0  0  0  0  0  0  0  0
   11.8834  -21.6044   12.2165 C   0  0  0  0  0  0  0  0  0  0  0  0
   12.8902  -21.5418   11.1527 N   0  0  0  0  0  0  0  0  0  0  0  0
   10.6715  -18.6914   17.5704 C   0  0  0  0  0  0  0  0  0  0  0  0
   11.7345  -18.2893   18.0905 O   0  0  0  0  0  0  0  0  0  0  0  0
    9.4695  -18.0327   17.9450 N   0  0  0  0  0  0  0  0  0  0  0  0
    9.4440  -16.9352   18.9133 C   0  0  1  0  0  0  0  0  0  0  0  0
    8.2555  -16.0608   18.6799 C   0  0  0  0  0  0  0  0  0  0  0  0
    8.1545  -14.8931   19.5664 C   0  0  0  0  0  0  0  0  0  0  0  0
    9.0119  -14.5800   20.5859 C   0  0  0  0  0  0  0  0  0  0  0  0
    8.5413  -13.4319   21.1408 N   0  0  0  0  0  0  0  0  0  0  0  0
    7.4318  -13.0612   20.4771 C   0  0  0  0  0  0  0  0  0  0  0  0
    7.1789  -13.9492   19.5046 N   0  0  0  0  0  0  0  0  0  0  0  0
    9.5148  -17.4798   20.3044 C   0  0  0  0  0  0  0  0  0  0  0  0
    8.6652  -18.3245   20.6800 O   0  0  0  0  0  0  0  0  0  0  0  0
   10.5305  -17.0340   21.1627 N   0  0  0  0  0  0  0  0  0  0  0  0
   10.6740  -17.5646   22.5032 C   0  0  1  0  0  0  0  0  0  0  0  0
   12.0042  -18.2741   22.5397 C   0  0  0  0  0  0  0  0  0  0  0  0
   12.2779  -18.9519   23.8566 C   0  0  0  0  0  0  0  0  0  0  0  0
   13.5855  -19.7256   23.7875 C   0  0  0  0  0  0  0  0  0  0  0  0
   13.6891  -20.5068   25.0890 C   0  0  0  0  0  0  0  0  0  0  0  0
   14.9782  -21.1882   25.1106 N   0  0  0  0  0  0  0  0  0  0  0  0
   10.5199  -16.5002   23.4969 C   0  0  0  0  0  0  0  0  0  0  0  0
   11.0035  -15.3595   23.3334 O   0  0  0  0  0  0  0  0  0  0  0  0
    9.8208  -16.7437   24.6617 O   0  0  0  0  0  0  0  0  0  0  0  0
  2  8  1  0
  2  1  1  6
  3  2  1  0
  4  3  1  0
  4  5  1  0
  5  6  1  0
  7  6  1  0
  8  9  2  0
 10 11  1  0
 10  8  1  0
 12 13  1  0
 11 12  1  1
 13 14  2  0
 14 15  1  0
 16 15  1  0
 17 13  1  0
 17 16  2  0
 18 11  1  0
 19 18  2  0
 20 18  1  0
 21 20  1  0
 21 27  1  0
 21 22  1  6
 23 22  1  0
 23 24  1  0
 25 24  1  0
 26 25  1  0
 27 29  1  0
 28 27  2  0
M  END
$$$$
