KHK.pdb
     RDKit          3D

 29 29  0  0  1  0  0  0  0  0999 V2000
    5.9397  -15.9027   24.8715 N   0  0  0  0  0  0  0  0  0  0  0  0
    6.8664  -14.8618   24.4832 C   0  0  1  0  0  0  0  0  0  0  0  0
    7.4123  -14.2564   25.7571 C   0  0  0  0  0  0  0  0  0  0  0  0
    6.2671  -13.5224   26.4196 C   0  0  0  0  0  0  0  0  0  0  0  0
    6.5863  -12.1156   26.8020 C   0  0  0  0  0  0  0  0  0  0  0  0
    5.4195  -11.4891   27.5228 C   0  0  0  0  0  0  0  0  0  0  0  0
    5.8711  -10.1640   27.9578 N   0  0  0  0  0  0  0  0  0  0  0  0
    7.9267  -15.4638   23.6488 C   0  0  0  0  0  0  0  0  0  0  0  0
    8.2308  -16.6643   23.8181 O   0  0  0  0  0  0  0  0  0  0  0  0
    8.6332  -14.7446   22.6474 N   0  0  0  0  0  0  0  0  0  0  0  0
    9.7215  -15.3418   21.8716 C   0  0  1  0  0  0  0  0  0  0  0  0
   10.0919  -14.4576   20.7260 C   0  0  0  0  0  0  0  0  0  0  0  0
    9.1347  -14.4447   19.6111 C   0  0  0  0  0  0  0  0  0  0  0  0
    8.0221  -15.2330   19.4963 C   0  0  0  0  0  0  0  0  0  0  0  0
    7.4367  -14.8970   18.3166 N   0  0  0  0  0  0  0  0  0  0  0  0
    8.1731  -13.9339   17.7344 C   0  0  0  0  0  0  0  0  0  0  0  0
    9.2223  -13.6431   18.5174 N   0  0  0  0  0  0  0  0  0  0  0  0
   10.8736  -15.6611   22.7702 C   0  0  0  0  0  0  0  0  0  0  0  0
   11.4461  -14.7330   23.3925 O   0  0  0  0  0  0  0  0  0  0  0  0
   11.2921  -16.9936   22.8987 N   0  0  0  0  0  0  0  0  0  0  0  0
   12.2396  -17.3929   23.9194 C   0  0  1  0  0  0  0  0  0  0  0  0
   11.6449  -18.5979   24.6040 C   0  0  0  0  0  0  0  0  0  0  0  0
   12.4596  -19.0741   25.7778 C   0  0  0  0  0  0  0  0  0  0  0  0
   11.8855  -20.3726   26.3233 C   0  0  0  0  0  0  0  0  0  0  0  0
   12.8032  -20.8019   27.4585 C   0  0  0  0  0  0  0  0  0  0  0  0
   12.2041  -21.9567   28.1174 N   0  0  0  0  0  0  0  0  0  0  0  0
   13.5639  -17.6122   23.3343 C   0  0  0  0  0  0  0  0  0  0  0  0
   13.7180  -17.9656   22.1455 O   0  0  0  0  0  0  0  0  0  0  0  0
   14.6943  -17.4286   24.1044 O   0  0  0  0  0  0  0  0  0  0  0  0
  2  8  1  0
  2  1  1  1
  3  2  1  0
  4  3  1  0
  4  5  1  0
  5  6  1  0
  7  6  1  0
  8  9  2  0
 10 11  1  0
 10  8  1  0
 12 13  1  0
 11 12  1  6
 13 14  2  0
 14 15  1  0
 16 15  1  0
 17 13  1  0
 17 16  2  0
 18 11  1  0
 19 18  2  0
 20 18  1  0
 21 20  1  0
 21 27  1  0
 21 22  1  6
 23 22  1  0
 23 24  1  0
 25 24  1  0
 26 25  1  0
 27 29  1  0
 28 27  2  0
M  END
$$$$
