KHK.pdb
     RDKit          3D

 29 29  0  0  1  0  0  0  0  0999 V2000
    5.5412  -19.2137   20.1785 N   0  0  0  0  0  0  0  0  0  0  0  0
    5.1709  -18.0046   20.8811 C   0  0  1  0  0  0  0  0  0  0  0  0
    4.2725  -18.4149   22.0265 C   0  0  0  0  0  0  0  0  0  0  0  0
    2.9920  -18.9383   21.4137 C   0  0  0  0  0  0  0  0  0  0  0  0
    1.9705  -19.3682   22.4132 C   0  0  0  0  0  0  0  0  0  0  0  0
    0.7171  -19.8342   21.7167 C   0  0  0  0  0  0  0  0  0  0  0  0
   -0.1951  -20.2829   22.7730 N   0  0  0  0  0  0  0  0  0  0  0  0
    6.4030  -17.3351   21.3465 C   0  0  0  0  0  0  0  0  0  0  0  0
    7.4112  -18.0249   21.6112 O   0  0  0  0  0  0  0  0  0  0  0  0
    6.5102  -15.9282   21.5137 N   0  0  0  0  0  0  0  0  0  0  0  0
    7.7695  -15.2733   21.8716 C   0  0  1  0  0  0  0  0  0  0  0  0
    7.8009  -13.8772   21.3411 C   0  0  0  0  0  0  0  0  0  0  0  0
    7.9451  -13.7656   19.8828 C   0  0  0  0  0  0  0  0  0  0  0  0
    7.6687  -12.6573   19.1293 C   0  0  0  0  0  0  0  0  0  0  0  0
    7.9349  -12.9966   17.8403 N   0  0  0  0  0  0  0  0  0  0  0  0
    8.3597  -14.2724   17.8143 C   0  0  0  0  0  0  0  0  0  0  0  0
    8.3722  -14.7615   19.0630 N   0  0  0  0  0  0  0  0  0  0  0  0
    7.9828  -15.3502   23.3499 C   0  0  0  0  0  0  0  0  0  0  0  0
    7.0005  -15.2270   24.1221 O   0  0  0  0  0  0  0  0  0  0  0  0
    9.2789  -15.5580   23.8441 N   0  0  0  0  0  0  0  0  0  0  0  0
    9.5059  -16.0290   25.1953 C   0  0  1  0  0  0  0  0  0  0  0  0
    8.8295  -17.3730   25.2966 C   0  0  0  0  0  0  0  0  0  0  0  0
    9.0446  -18.0454   26.6271 C   0  0  0  0  0  0  0  0  0  0  0  0
    8.2593  -19.3463   26.6912 C   0  0  0  0  0  0  0  0  0  0  0  0
    8.5642  -19.9629   28.0484 C   0  0  0  0  0  0  0  0  0  0  0  0
    7.8936  -21.2558   28.1229 N   0  0  0  0  0  0  0  0  0  0  0  0
   10.9375  -16.0389   25.5028 C   0  0  0  0  0  0  0  0  0  0  0  0
   11.3684  -16.0056   26.6754 O   0  0  0  0  0  0  0  0  0  0  0  0
   11.8601  -16.0859   24.4776 O   0  0  0  0  0  0  0  0  0  0  0  0
  2  8  1  0
  2  1  1  1
  3  2  1  0
  4  3  1  0
  4  5  1  0
  5  6  1  0
  7  6  1  0
  8  9  2  0
 10 11  1  0
 10  8  1  0
 12 13  1  0
 11 12  1  1
 13 14  2  0
 14 15  1  0
 16 15  1  0
 17 13  1  0
 17 16  2  0
 18 11  1  0
 19 18  2  0
 20 18  1  0
 21 20  1  0
 21 27  1  0
 21 22  1  6
 23 22  1  0
 23 24  1  0
 25 24  1  0
 26 25  1  0
 27 29  1  0
 28 27  2  0
M  END
$$$$
