KHK.pdb
     RDKit          3D

 29 29  0  0  1  0  0  0  0  0999 V2000
   10.1856  -20.1294   17.1700 N   0  0  0  0  0  0  0  0  0  0  0  0
   11.3703  -19.2996   17.1905 C   0  0  1  0  0  0  0  0  0  0  0  0
   11.7053  -18.9695   15.7530 C   0  0  0  0  0  0  0  0  0  0  0  0
   12.2876  -20.2239   15.1394 C   0  0  0  0  0  0  0  0  0  0  0  0
   13.6056  -20.0183   14.4699 C   0  0  0  0  0  0  0  0  0  0  0  0
   14.0270  -21.2704   13.7431 C   0  0  0  0  0  0  0  0  0  0  0  0
   15.4026  -21.0384   13.2926 N   0  0  0  0  0  0  0  0  0  0  0  0
   11.0843  -18.0915   17.9915 C   0  0  0  0  0  0  0  0  0  0  0  0
   11.9889  -17.2475   18.1700 O   0  0  0  0  0  0  0  0  0  0  0  0
    9.8185  -17.8288   18.5812 N   0  0  0  0  0  0  0  0  0  0  0  0
    9.5937  -16.7039   19.4906 C   0  0  1  0  0  0  0  0  0  0  0  0
    8.3487  -15.9694   19.1142 C   0  0  0  0  0  0  0  0  0  0  0  0
    8.1025  -14.7302   19.8650 C   0  0  0  0  0  0  0  0  0  0  0  0
    8.8215  -14.2846   20.9406 C   0  0  0  0  0  0  0  0  0  0  0  0
    8.2487  -13.1128   21.3230 N   0  0  0  0  0  0  0  0  0  0  0  0
    7.2137  -12.8567   20.5032 C   0  0  0  0  0  0  0  0  0  0  0  0
    7.1090  -13.8420   19.5996 N   0  0  0  0  0  0  0  0  0  0  0  0
    9.5928  -17.1847   20.9068 C   0  0  0  0  0  0  0  0  0  0  0  0
    8.9424  -18.2156   21.2078 O   0  0  0  0  0  0  0  0  0  0  0  0
   10.3194  -16.4717   21.8716 N   0  0  0  0  0  0  0  0  0  0  0  0
   10.3466  -16.8899   23.2586 C   0  0  1  0  0  0  0  0  0  0  0  0
   11.4627  -17.8970   23.3776 C   0  0  0  0  0  0  0  0  0  0  0  0
   11.6050  -18.4620   24.7664 C   0  0  0  0  0  0  0  0  0  0  0  0
   12.6636  -19.5538   24.7835 C   0  0  0  0  0  0  0  0  0  0  0  0
   12.7737  -20.0197   26.2277 C   0  0  0  0  0  0  0  0  0  0  0  0
   13.8208  -21.0321   26.3018 N   0  0  0  0  0  0  0  0  0  0  0  0
   10.4714  -15.7297   24.1432 C   0  0  0  0  0  0  0  0  0  0  0  0
   10.0520  -15.7399   25.3204 O   0  0  0  0  0  0  0  0  0  0  0  0
   11.0690  -14.5746   23.6812 O   0  0  0  0  0  0  0  0  0  0  0  0
  2  8  1  0
  2  1  1  6
  3  2  1  0
  4  3  1  0
  4  5  1  0
  5  6  1  0
  7  6  1  0
  8  9  2  0
 10 11  1  0
 10  8  1  0
 12 13  1  0
 11 12  1  6
 13 14  2  0
 14 15  1  0
 16 15  1  0
 17 13  1  0
 17 16  2  0
 18 11  1  0
 19 18  2  0
 20 18  1  0
 21 20  1  0
 21 27  1  0
 21 22  1  6
 23 22  1  0
 23 24  1  0
 25 24  1  0
 26 25  1  0
 27 29  1  0
 28 27  2  0
M  END
$$$$
