KHK.pdb
     RDKit          3D

 29 29  0  0  1  0  0  0  0  0999 V2000
    7.8407  -15.5277   19.3507 N   0  0  0  0  0  0  0  0  0  0  0  0
    8.6126  -14.3531   19.6932 C   0  0  1  0  0  0  0  0  0  0  0  0
    7.8842  -13.1601   19.1157 C   0  0  0  0  0  0  0  0  0  0  0  0
    8.3796  -12.9888   17.6964 C   0  0  0  0  0  0  0  0  0  0  0  0
    7.8638  -14.0154   16.7439 C   0  0  0  0  0  0  0  0  0  0  0  0
    8.4115  -13.7712   15.3605 C   0  0  0  0  0  0  0  0  0  0  0  0
    7.9038  -14.8609   14.5213 N   0  0  0  0  0  0  0  0  0  0  0  0
    8.7303  -14.2805   21.1642 C   0  0  0  0  0  0  0  0  0  0  0  0
    9.4184  -13.3727   21.6786 O   0  0  0  0  0  0  0  0  0  0  0  0
    8.0956  -15.1987   22.0433 N   0  0  0  0  0  0  0  0  0  0  0  0
    8.2633  -15.1391   23.4963 C   0  0  1  0  0  0  0  0  0  0  0  0
    6.9714  -14.7833   24.1565 C   0  0  0  0  0  0  0  0  0  0  0  0
    7.0973  -14.0257   25.4094 C   0  0  0  0  0  0  0  0  0  0  0  0
    8.2684  -13.6870   26.0310 C   0  0  0  0  0  0  0  0  0  0  0  0
    7.9206  -13.0020   27.1523 N   0  0  0  0  0  0  0  0  0  0  0  0
    6.5789  -12.9283   27.2079 C   0  0  0  0  0  0  0  0  0  0  0  0
    6.0556  -13.5532   26.1430 N   0  0  0  0  0  0  0  0  0  0  0  0
    8.8504  -16.4209   23.9955 C   0  0  0  0  0  0  0  0  0  0  0  0
    8.3159  -17.5106   23.6741 O   0  0  0  0  0  0  0  0  0  0  0  0
    9.9879  -16.3788   24.8149 N   0  0  0  0  0  0  0  0  0  0  0  0
   10.6315  -17.5919   25.2770 C   0  0  1  0  0  0  0  0  0  0  0  0
   12.0960  -17.4488   24.9467 C   0  0  0  0  0  0  0  0  0  0  0  0
   12.9206  -18.6294   25.3880 C   0  0  0  0  0  0  0  0  0  0  0  0
   14.3933  -18.3768   25.1045 C   0  0  0  0  0  0  0  0  0  0  0  0
   15.1217  -19.6685   25.4451 C   0  0  0  0  0  0  0  0  0  0  0  0
   16.5302  -19.5008   25.1066 N   0  0  0  0  0  0  0  0  0  0  0  0
   10.3426  -17.8195   26.6944 C   0  0  0  0  0  0  0  0  0  0  0  0
    9.9230  -16.9118   27.4440 O   0  0  0  0  0  0  0  0  0  0  0  0
   10.5338  -19.0717   27.2421 O   0  0  0  0  0  0  0  0  0  0  0  0
  2  8  1  0
  2  1  1  1
  3  2  1  0
  4  3  1  0
  4  5  1  0
  5  6  1  0
  7  6  1  0
  8  9  2  0
 10 11  1  0
 10  8  1  0
 12 13  1  0
 11 12  1  1
 13 14  2  0
 14 15  1  0
 16 15  1  0
 17 13  1  0
 17 16  2  0
 18 11  1  0
 19 18  2  0
 20 18  1  0
 21 20  1  0
 21 27  1  0
 21 22  1  1
 23 22  1  0
 23 24  1  0
 25 24  1  0
 26 25  1  0
 27 29  1  0
 28 27  2  0
M  END
$$$$
