KHK.pdb
     RDKit          3D

 29 29  0  0  1  0  0  0  0  0999 V2000
    7.9465  -20.9508   17.1991 N   0  0  0  0  0  0  0  0  0  0  0  0
    7.2971  -20.4762   18.4015 C   0  0  1  0  0  0  0  0  0  0  0  0
    7.4424  -21.5637   19.4426 C   0  0  0  0  0  0  0  0  0  0  0  0
    6.0432  -21.9809   19.8391 C   0  0  0  0  0  0  0  0  0  0  0  0
    5.4185  -22.9714   18.9138 C   0  0  0  0  0  0  0  0  0  0  0  0
    4.0308  -23.3273   19.3839 C   0  0  0  0  0  0  0  0  0  0  0  0
    3.5201  -24.3215   18.4353 N   0  0  0  0  0  0  0  0  0  0  0  0
    7.9410  -19.2128   18.8163 C   0  0  0  0  0  0  0  0  0  0  0  0
    9.1833  -19.1741   18.9486 O   0  0  0  0  0  0  0  0  0  0  0  0
    7.2173  -18.0183   19.0781 N   0  0  0  0  0  0  0  0  0  0  0  0
    7.8708  -16.7842   19.5174 C   0  0  1  0  0  0  0  0  0  0  0  0
    6.9742  -15.6107   19.2929 C   0  0  0  0  0  0  0  0  0  0  0  0
    7.5467  -14.3075   19.6585 C   0  0  0  0  0  0  0  0  0  0  0  0
    7.3354  -13.6363   20.8321 C   0  0  0  0  0  0  0  0  0  0  0  0
    8.0456  -12.4808   20.7437 N   0  0  0  0  0  0  0  0  0  0  0  0
    8.6683  -12.4533   19.5519 C   0  0  0  0  0  0  0  0  0  0  0  0
    8.3724  -13.5699   18.8707 N   0  0  0  0  0  0  0  0  0  0  0  0
    8.3214  -16.9226   20.9367 C   0  0  0  0  0  0  0  0  0  0  0  0
    7.5245  -17.3735   21.7958 O   0  0  0  0  0  0  0  0  0  0  0  0
    9.6276  -16.5438   21.2796 N   0  0  0  0  0  0  0  0  0  0  0  0
   10.1089  -16.6398   22.6429 C   0  0  1  0  0  0  0  0  0  0  0  0
   10.5961  -18.0555   22.8234 C   0  0  0  0  0  0  0  0  0  0  0  0
   11.0896  -18.3386   24.2180 C   0  0  0  0  0  0  0  0  0  0  0  0
   11.4632  -19.8065   24.3551 C   0  0  0  0  0  0  0  0  0  0  0  0
   11.9267  -19.9970   25.7917 C   0  0  0  0  0  0  0  0  0  0  0  0
   12.3490  -21.3833   25.9547 N   0  0  0  0  0  0  0  0  0  0  0  0
   11.1135  -15.6077   22.9074 C   0  0  0  0  0  0  0  0  0  0  0  0
   11.5081  -15.3412   24.0628 O   0  0  0  0  0  0  0  0  0  0  0  0
   11.6559  -14.8922   21.8593 O   0  0  0  0  0  0  0  0  0  0  0  0
  2  8  1  0
  2  1  1  6
  3  2  1  0
  4  3  1  0
  4  5  1  0
  5  6  1  0
  7  6  1  0
  8  9  2  0
 10 11  1  0
 10  8  1  0
 12 13  1  0
 11 12  1  1
 13 14  2  0
 14 15  1  0
 16 15  1  0
 17 13  1  0
 17 16  2  0
 18 11  1  0
 19 18  2  0
 20 18  1  0
 21 20  1  0
 21 27  1  0
 21 22  1  6
 23 22  1  0
 23 24  1  0
 25 24  1  0
 26 25  1  0
 27 29  1  0
 28 27  2  0
M  END
$$$$
