KHK.pdb
     RDKit          3D

 29 29  0  0  1  0  0  0  0  0999 V2000
    8.9807  -18.3068   17.2572 N   0  0  0  0  0  0  0  0  0  0  0  0
    8.2421  -18.3309   18.5008 C   0  0  1  0  0  0  0  0  0  0  0  0
    8.2777  -19.7545   19.0101 C   0  0  0  0  0  0  0  0  0  0  0  0
    7.3940  -20.5707   18.0925 C   0  0  0  0  0  0  0  0  0  0  0  0
    7.1326  -21.9584   18.5755 C   0  0  0  0  0  0  0  0  0  0  0  0
    6.3539  -22.7359   17.5447 C   0  0  0  0  0  0  0  0  0  0  0  0
    6.1024  -24.0555   18.1317 N   0  0  0  0  0  0  0  0  0  0  0  0
    8.8739  -17.3826   19.4412 C   0  0  0  0  0  0  0  0  0  0  0  0
   10.1076  -17.1912   19.3804 O   0  0  0  0  0  0  0  0  0  0  0  0
    8.1478  -16.6629   20.4281 N   0  0  0  0  0  0  0  0  0  0  0  0
    8.8024  -15.7914   21.4053 C   0  0  1  0  0  0  0  0  0  0  0  0
    8.0553  -14.5049   21.5399 C   0  0  0  0  0  0  0  0  0  0  0  0
    8.0286  -13.6680   20.3322 C   0  0  0  0  0  0  0  0  0  0  0  0
    6.9238  -13.3768   19.5791 C   0  0  0  0  0  0  0  0  0  0  0  0
    7.3539  -12.5847   18.5617 N   0  0  0  0  0  0  0  0  0  0  0  0
    8.6797  -12.4020   18.6948 C   0  0  0  0  0  0  0  0  0  0  0  0
    9.1118  -13.0617   19.7795 N   0  0  0  0  0  0  0  0  0  0  0  0
    8.9726  -16.5162   22.7024 C   0  0  0  0  0  0  0  0  0  0  0  0
    7.9577  -16.8294   23.3718 O   0  0  0  0  0  0  0  0  0  0  0  0
   10.2656  -16.8308   23.1455 N   0  0  0  0  0  0  0  0  0  0  0  0
   10.4845  -17.5825   24.3646 C   0  0  1  0  0  0  0  0  0  0  0  0
   10.9696  -18.9465   23.9421 C   0  0  0  0  0  0  0  0  0  0  0  0
   11.3393  -19.8298   25.1047 C   0  0  0  0  0  0  0  0  0  0  0  0
   11.9713  -21.1195   24.6043 C   0  0  0  0  0  0  0  0  0  0  0  0
   12.3066  -21.9391   25.8415 C   0  0  0  0  0  0  0  0  0  0  0  0
   12.8839  -23.2058   25.4068 N   0  0  0  0  0  0  0  0  0  0  0  0
   11.3913  -16.8597   25.2587 C   0  0  0  0  0  0  0  0  0  0  0  0
   12.1056  -15.9139   24.8625 O   0  0  0  0  0  0  0  0  0  0  0  0
   11.4761  -17.2190   26.5885 O   0  0  0  0  0  0  0  0  0  0  0  0
  2  8  1  0
  2  1  1  6
  3  2  1  0
  4  3  1  0
  4  5  1  0
  5  6  1  0
  7  6  1  0
  8  9  2  0
 10 11  1  0
 10  8  1  0
 12 13  1  0
 11 12  1  1
 13 14  2  0
 14 15  1  0
 16 15  1  0
 17 13  1  0
 17 16  2  0
 18 11  1  0
 19 18  2  0
 20 18  1  0
 21 20  1  0
 21 27  1  0
 21 22  1  6
 23 22  1  0
 23 24  1  0
 25 24  1  0
 26 25  1  0
 27 29  1  0
 28 27  2  0
M  END
$$$$
