KHK.pdb
     RDKit          3D

 29 29  0  0  1  0  0  0  0  0999 V2000
    9.0382  -19.9873   18.7244 N   0  0  0  0  0  0  0  0  0  0  0  0
    8.5430  -18.7217   19.2203 C   0  0  1  0  0  0  0  0  0  0  0  0
    7.1834  -18.9851   19.8281 C   0  0  0  0  0  0  0  0  0  0  0  0
    6.2721  -19.4088   18.6971 C   0  0  0  0  0  0  0  0  0  0  0  0
    4.8353  -19.5235   19.0838 C   0  0  0  0  0  0  0  0  0  0  0  0
    4.0164  -20.0251   17.9214 C   0  0  0  0  0  0  0  0  0  0  0  0
    2.6209  -20.0174   18.3706 N   0  0  0  0  0  0  0  0  0  0  0  0
    9.5067  -18.1946   20.2085 C   0  0  0  0  0  0  0  0  0  0  0  0
   10.1252  -18.9924   20.9455 O   0  0  0  0  0  0  0  0  0  0  0  0
    9.7758  -16.8091   20.3724 N   0  0  0  0  0  0  0  0  0  0  0  0
   10.7082  -16.3039   21.3816 C   0  0  1  0  0  0  0  0  0  0  0  0
   11.1235  -14.9066   21.0554 C   0  0  0  0  0  0  0  0  0  0  0  0
   12.1359  -14.7861   19.9969 C   0  0  0  0  0  0  0  0  0  0  0  0
   12.7634  -15.8229   19.3616 C   0  0  0  0  0  0  0  0  0  0  0  0
   13.6196  -15.2605   18.4682 N   0  0  0  0  0  0  0  0  0  0  0  0
   13.5136  -13.9229   18.5602 C   0  0  0  0  0  0  0  0  0  0  0  0
   12.6048  -13.6131   19.4963 N   0  0  0  0  0  0  0  0  0  0  0  0
   10.1085  -16.4408   22.7448 C   0  0  0  0  0  0  0  0  0  0  0  0
    8.9760  -15.9489   22.9726 O   0  0  0  0  0  0  0  0  0  0  0  0
   10.8257  -17.1166   23.7428 N   0  0  0  0  0  0  0  0  0  0  0  0
   10.2487  -17.3703   25.0474 C   0  0  1  0  0  0  0  0  0  0  0  0
    9.7661  -18.7989   25.0287 C   0  0  0  0  0  0  0  0  0  0  0  0
    9.3026  -19.2851   26.3767 C   0  0  0  0  0  0  0  0  0  0  0  0
    9.0403  -20.7826   26.3333 C   0  0  0  0  0  0  0  0  0  0  0  0
    8.6232  -21.1843   27.7403 C   0  0  0  0  0  0  0  0  0  0  0  0
    8.5094  -22.6375   27.7849 N   0  0  0  0  0  0  0  0  0  0  0  0
   11.2138  -17.0635   26.1051 C   0  0  0  0  0  0  0  0  0  0  0  0
   10.9140  -17.1142   27.3172 O   0  0  0  0  0  0  0  0  0  0  0  0
   12.5043  -16.7033   25.7742 O   0  0  0  0  0  0  0  0  0  0  0  0
  2  8  1  0
  2  1  1  1
  3  2  1  0
  4  3  1  0
  4  5  1  0
  5  6  1  0
  7  6  1  0
  8  9  2  0
 10 11  1  0
 10  8  1  0
 12 13  1  0
 11 12  1  6
 13 14  2  0
 14 15  1  0
 16 15  1  0
 17 13  1  0
 17 16  2  0
 18 11  1  0
 19 18  2  0
 20 18  1  0
 21 20  1  0
 21 27  1  0
 21 22  1  6
 23 22  1  0
 23 24  1  0
 25 24  1  0
 26 25  1  0
 27 29  1  0
 28 27  2  0
M  END
$$$$
