KHK.pdb
     RDKit          3D

 29 29  0  0  1  0  0  0  0  0999 V2000
   13.0134  -21.0860   14.5563 N   0  0  0  0  0  0  0  0  0  0  0  0
   12.5623  -19.7443   14.8547 C   0  0  1  0  0  0  0  0  0  0  0  0
   11.2860  -19.8736   15.6560 C   0  0  0  0  0  0  0  0  0  0  0  0
   11.4680  -21.0556   16.5827 C   0  0  0  0  0  0  0  0  0  0  0  0
   10.3259  -21.2771   17.5177 C   0  0  0  0  0  0  0  0  0  0  0  0
   10.5869  -22.4781   18.3910 C   0  0  0  0  0  0  0  0  0  0  0  0
    9.4504  -22.5683   19.3128 N   0  0  0  0  0  0  0  0  0  0  0  0
   13.6270  -19.0462   15.6044 C   0  0  0  0  0  0  0  0  0  0  0  0
   14.6184  -19.6936   16.0047 O   0  0  0  0  0  0  0  0  0  0  0  0
   13.5887  -17.6573   15.9018 N   0  0  0  0  0  0  0  0  0  0  0  0
   14.6465  -16.9867   16.6597 C   0  0  1  0  0  0  0  0  0  0  0  0
   14.5515  -15.5057   16.4897 C   0  0  0  0  0  0  0  0  0  0  0  0
   15.7402  -14.7506   16.9097 C   0  0  0  0  0  0  0  0  0  0  0  0
   16.8703  -15.2769   17.4737 C   0  0  0  0  0  0  0  0  0  0  0  0
   17.7036  -14.2288   17.7074 N   0  0  0  0  0  0  0  0  0  0  0  0
   17.0959  -13.1014   17.2970 C   0  0  0  0  0  0  0  0  0  0  0  0
   15.8863  -13.4038   16.8032 N   0  0  0  0  0  0  0  0  0  0  0  0
   14.6049  -17.4229   18.0896 C   0  0  0  0  0  0  0  0  0  0  0  0
   13.5180  -17.3788   18.7166 O   0  0  0  0  0  0  0  0  0  0  0  0
   15.7839  -17.8722   18.7022 N   0  0  0  0  0  0  0  0  0  0  0  0
   15.7749  -18.4336   20.0379 C   0  0  1  0  0  0  0  0  0  0  0  0
   16.2108  -19.8705   19.8985 C   0  0  0  0  0  0  0  0  0  0  0  0
   15.5337  -20.7925   20.8782 C   0  0  0  0  0  0  0  0  0  0  0  0
   16.1014  -22.1981   20.7553 C   0  0  0  0  0  0  0  0  0  0  0  0
   15.3124  -23.0640   21.7263 C   0  0  0  0  0  0  0  0  0  0  0  0
   15.8280  -24.4257   21.6455 N   0  0  0  0  0  0  0  0  0  0  0  0
   16.6001  -17.6278   20.9400 C   0  0  0  0  0  0  0  0  0  0  0  0
   17.7117  -17.1706   20.5979 O   0  0  0  0  0  0  0  0  0  0  0  0
   16.1543  -17.3520   22.2167 O   0  0  0  0  0  0  0  0  0  0  0  0
  2  8  1  0
  2  1  1  1
  3  2  1  0
  4  3  1  0
  4  5  1  0
  5  6  1  0
  7  6  1  0
  8  9  2  0
 10 11  1  0
 10  8  1  0
 12 13  1  0
 11 12  1  1
 13 14  2  0
 14 15  1  0
 16 15  1  0
 17 13  1  0
 17 16  2  0
 18 11  1  0
 19 18  2  0
 20 18  1  0
 21 20  1  0
 21 27  1  0
 21 22  1  6
 23 22  1  0
 23 24  1  0
 25 24  1  0
 26 25  1  0
 27 29  1  0
 28 27  2  0
M  END
$$$$
