KHK.pdb
     RDKit          3D

 29 29  0  0  1  0  0  0  0  0999 V2000
    8.4737  -12.7058   18.7080 N   0  0  0  0  0  0  0  0  0  0  0  0
    7.9694  -13.8800   19.3860 C   0  0  1  0  0  0  0  0  0  0  0  0
    8.5853  -15.0828   18.7068 C   0  0  0  0  0  0  0  0  0  0  0  0
    8.2527  -14.9734   17.2349 C   0  0  0  0  0  0  0  0  0  0  0  0
    8.7678  -16.1047   16.4090 C   0  0  0  0  0  0  0  0  0  0  0  0
    8.2872  -15.9779   14.9855 C   0  0  0  0  0  0  0  0  0  0  0  0
    8.8181  -17.1417   14.2693 N   0  0  0  0  0  0  0  0  0  0  0  0
    8.3373  -13.7926   20.8142 C   0  0  0  0  0  0  0  0  0  0  0  0
    9.5058  -13.4773   21.1267 O   0  0  0  0  0  0  0  0  0  0  0  0
    7.4240  -14.0507   21.8717 N   0  0  0  0  0  0  0  0  0  0  0  0
    7.8016  -13.9358   23.2814 C   0  0  1  0  0  0  0  0  0  0  0  0
    6.7458  -13.2069   24.0465 C   0  0  0  0  0  0  0  0  0  0  0  0
    7.0102  -13.0511   25.4837 C   0  0  0  0  0  0  0  0  0  0  0  0
    6.2935  -13.6213   26.5004 C   0  0  0  0  0  0  0  0  0  0  0  0
    6.8766  -13.2080   27.6565 N   0  0  0  0  0  0  0  0  0  0  0  0
    7.9155  -12.4112   27.3488 C   0  0  0  0  0  0  0  0  0  0  0  0
    8.0125  -12.3035   26.0156 N   0  0  0  0  0  0  0  0  0  0  0  0
    8.1102  -15.2887   23.8392 C   0  0  0  0  0  0  0  0  0  0  0  0
    7.3310  -16.2449   23.6048 O   0  0  0  0  0  0  0  0  0  0  0  0
    9.2657  -15.4613   24.6151 N   0  0  0  0  0  0  0  0  0  0  0  0
    9.6347  -16.7593   25.1426 C   0  0  1  0  0  0  0  0  0  0  0  0
   10.9905  -17.0828   24.5669 C   0  0  0  0  0  0  0  0  0  0  0  0
   11.0898  -18.4903   24.0403 C   0  0  0  0  0  0  0  0  0  0  0  0
   12.4161  -18.6907   23.3235 C   0  0  0  0  0  0  0  0  0  0  0  0
   12.3781  -20.0950   22.7391 C   0  0  0  0  0  0  0  0  0  0  0  0
   13.6233  -20.3214   22.0145 N   0  0  0  0  0  0  0  0  0  0  0  0
    9.5754  -16.7556   26.6057 C   0  0  0  0  0  0  0  0  0  0  0  0
    9.2203  -17.7583   27.2617 O   0  0  0  0  0  0  0  0  0  0  0  0
    9.9186  -15.6160   27.3043 O   0  0  0  0  0  0  0  0  0  0  0  0
  2  8  1  0
  2  1  1  6
  3  2  1  0
  4  3  1  0
  4  5  1  0
  5  6  1  0
  7  6  1  0
  8  9  2  0
 10 11  1  0
 10  8  1  0
 12 13  1  0
 11 12  1  1
 13 14  2  0
 14 15  1  0
 16 15  1  0
 17 13  1  0
 17 16  2  0
 18 11  1  0
 19 18  2  0
 20 18  1  0
 21 20  1  0
 21 27  1  0
 21 22  1  1
 23 22  1  0
 23 24  1  0
 25 24  1  0
 26 25  1  0
 27 29  1  0
 28 27  2  0
M  END
$$$$
