KHK.pdb
     RDKit          3D

 29 29  0  0  1  0  0  0  0  0999 V2000
   10.4142  -23.4212   14.7528 N   0  0  0  0  0  0  0  0  0  0  0  0
   10.3097  -22.2010   15.5229 C   0  0  1  0  0  0  0  0  0  0  0  0
    9.2490  -22.4311   16.5762 C   0  0  0  0  0  0  0  0  0  0  0  0
    7.9297  -22.5656   15.8478 C   0  0  0  0  0  0  0  0  0  0  0  0
    6.7488  -22.7078   16.7492 C   0  0  0  0  0  0  0  0  0  0  0  0
    5.4762  -22.7683   15.9429 C   0  0  0  0  0  0  0  0  0  0  0  0
    4.3935  -22.9984   16.9041 N   0  0  0  0  0  0  0  0  0  0  0  0
   11.6310  -21.9030   16.1131 C   0  0  0  0  0  0  0  0  0  0  0  0
   12.4848  -22.8125   16.1923 O   0  0  0  0  0  0  0  0  0  0  0  0
   11.9939  -20.6201   16.6044 N   0  0  0  0  0  0  0  0  0  0  0  0
   13.3093  -20.3441   17.1843 C   0  0  1  0  0  0  0  0  0  0  0  0
   13.9034  -19.1186   16.5707 C   0  0  0  0  0  0  0  0  0  0  0  0
   14.2989  -19.2536   15.1618 C   0  0  0  0  0  0  0  0  0  0  0  0
   13.6221  -18.7504   14.0842 C   0  0  0  0  0  0  0  0  0  0  0  0
   14.3331  -19.1134   12.9840 N   0  0  0  0  0  0  0  0  0  0  0  0
   15.4082  -19.8155   13.3839 C   0  0  0  0  0  0  0  0  0  0  0  0
   15.4032  -19.9116   14.7214 N   0  0  0  0  0  0  0  0  0  0  0  0
   13.2049  -20.2696   18.6744 C   0  0  0  0  0  0  0  0  0  0  0  0
   12.0950  -20.0143   19.2029 O   0  0  0  0  0  0  0  0  0  0  0  0
   14.3519  -20.4860   19.4521 N   0  0  0  0  0  0  0  0  0  0  0  0
   14.2876  -20.5237   20.8991 C   0  0  1  0  0  0  0  0  0  0  0  0
   13.3048  -21.6112   21.2532 C   0  0  0  0  0  0  0  0  0  0  0  0
   13.2175  -21.8713   22.7341 C   0  0  0  0  0  0  0  0  0  0  0  0
   12.1751  -22.9416   23.0190 C   0  0  0  0  0  0  0  0  0  0  0  0
   12.2421  -23.2160   24.5140 C   0  0  0  0  0  0  0  0  0  0  0  0
   10.8929  -23.5070   24.9852 N   0  0  0  0  0  0  0  0  0  0  0  0
   15.6252  -20.6975   21.4689 C   0  0  0  0  0  0  0  0  0  0  0  0
   15.9728  -20.1469   22.5356 O   0  0  0  0  0  0  0  0  0  0  0  0
   16.5498  -21.4918   20.8218 O   0  0  0  0  0  0  0  0  0  0  0  0
  2  8  1  0
  2  1  1  1
  3  2  1  0
  4  3  1  0
  4  5  1  0
  5  6  1  0
  7  6  1  0
  8  9  2  0
 10 11  1  0
 10  8  1  0
 12 13  1  0
 11 12  1  6
 13 14  2  0
 14 15  1  0
 16 15  1  0
 17 13  1  0
 17 16  2  0
 18 11  1  0
 19 18  2  0
 20 18  1  0
 21 20  1  0
 21 27  1  0
 21 22  1  6
 23 22  1  0
 23 24  1  0
 25 24  1  0
 26 25  1  0
 27 29  1  0
 28 27  2  0
M  END
$$$$
