WAP.pdb
     RDKit          3D

 27 29  0  0  1  0  0  0  0  0999 V2000
    6.2917  -17.4214   23.3794 N   0  0  0  0  0  0  0  0  0  0  0  0
    6.6413  -16.0433   23.1803 C   0  0  1  0  0  0  0  0  0  0  0  0
    7.6811  -15.6034   24.1798 C   0  0  0  0  0  0  0  0  0  0  0  0
    7.1584  -15.0308   25.4172 C   0  0  0  0  0  0  0  0  0  0  0  0
    6.4782  -15.6820   26.4485 C   0  0  0  0  0  0  0  0  0  0  0  0
    6.1289  -14.8160   27.4083 N   0  0  0  0  0  0  0  0  0  0  0  0
    6.5670  -13.5972   27.0320 C   0  0  0  0  0  0  0  0  0  0  0  0
    6.5100  -12.3470   27.6054 C   0  0  0  0  0  0  0  0  0  0  0  0
    7.0568  -11.2373   27.0085 C   0  0  0  0  0  0  0  0  0  0  0  0
    7.6957  -11.3410   25.7873 C   0  0  0  0  0  0  0  0  0  0  0  0
    7.7621  -12.5729   25.2022 C   0  0  0  0  0  0  0  0  0  0  0  0
    7.2107  -13.7008   25.7989 C   0  0  0  0  0  0  0  0  0  0  0  0
    7.2704  -15.9078   21.8351 C   0  0  0  0  0  0  0  0  0  0  0  0
    7.9047  -16.9174   21.4165 O   0  0  0  0  0  0  0  0  0  0  0  0
    8.0212  -13.4081   19.1668 C   0  0  0  0  0  0  0  0  0  0  0  0
    7.8437  -14.8117   19.6973 C   0  0  2  0  0  0  0  0  0  0  0  0
    7.2210  -14.7821   21.0117 N   0  0  0  0  0  0  0  0  0  0  0  0
    9.1199  -15.5641   19.7528 C   0  0  0  0  0  0  0  0  0  0  0  0
    9.7731  -15.5256   20.8289 O   0  0  0  0  0  0  0  0  0  0  0  0
    9.6335  -16.3163   18.6653 N   0  0  0  0  0  0  0  0  0  0  0  0
    8.9558  -16.4485   17.3763 C   0  0  0  0  0  0  0  0  0  0  0  0
    9.2275  -17.8936   17.0329 C   0  0  0  0  0  0  0  0  0  0  0  0
   10.3962  -18.3333   17.8500 C   0  0  0  0  0  0  0  0  0  0  0  0
   10.8434  -17.0721   18.5388 C   0  0  1  0  0  0  0  0  0  0  0  0
   11.8427  -16.3987   17.6624 C   0  0  0  0  0  0  0  0  0  0  0  0
   11.4702  -15.4249   16.7573 O   0  0  0  0  0  0  0  0  0  0  0  0
   13.0635  -16.6889   17.7114 O   0  0  0  0  0  0  0  0  0  0  0  0
  2  1  1  1
  3  2  1  0
  4  5  2  0
  4  3  1  0
  6  5  1  0
  7 12  2  0
  7  6  1  0
  8  7  1  0
  9  8  2  0
  9 10  1  0
 10 11  2  0
 11 12  1  0
 12  4  1  0
 13  2  1  0
 14 13  2  0
 16 17  1  0
 16 15  1  1
 17 13  1  0
 18 16  1  0
 19 18  2  0
 20 18  1  0
 21 22  1  0
 21 20  1  0
 23 24  1  0
 23 22  1  0
 24 20  1  0
 24 25  1  6
 26 25  1  0
 27 25  2  0
M  END
$$$$
