WAP.pdb
     RDKit          3D

 27 29  0  0  1  0  0  0  0  0999 V2000
    7.7524  -15.9600   21.5535 N   0  0  0  0  0  0  0  0  0  0  0  0
    8.1789  -15.4973   22.8439 C   0  0  1  0  0  0  0  0  0  0  0  0
    7.1054  -15.7256   23.8779 C   0  0  0  0  0  0  0  0  0  0  0  0
    6.8301  -14.5923   24.7565 C   0  0  0  0  0  0  0  0  0  0  0  0
    5.6239  -13.9109   24.9324 C   0  0  0  0  0  0  0  0  0  0  0  0
    5.7694  -12.9041   25.8033 N   0  0  0  0  0  0  0  0  0  0  0  0
    7.0551  -12.9050   26.2108 C   0  0  0  0  0  0  0  0  0  0  0  0
    7.7752  -12.1267   27.0887 C   0  0  0  0  0  0  0  0  0  0  0  0
    9.1068  -12.3454   27.3453 C   0  0  0  0  0  0  0  0  0  0  0  0
    9.7819  -13.3755   26.7179 C   0  0  0  0  0  0  0  0  0  0  0  0
    9.0847  -14.1584   25.8430 C   0  0  0  0  0  0  0  0  0  0  0  0
    7.7374  -13.9435   25.5769 C   0  0  0  0  0  0  0  0  0  0  0  0
    9.3518  -16.3129   23.2713 C   0  0  0  0  0  0  0  0  0  0  0  0
    9.2301  -17.5646   23.1478 O   0  0  0  0  0  0  0  0  0  0  0  0
   12.8513  -16.0006   24.5714 C   0  0  0  0  0  0  0  0  0  0  0  0
   11.5741  -16.7449   24.2585 C   0  0  2  0  0  0  0  0  0  0  0  0
   10.5522  -15.8229   23.7877 N   0  0  0  0  0  0  0  0  0  0  0  0
   11.0693  -17.5198   25.4173 C   0  0  0  0  0  0  0  0  0  0  0  0
   10.0629  -17.0693   26.0259 O   0  0  0  0  0  0  0  0  0  0  0  0
   11.6581  -18.7294   25.8670 N   0  0  0  0  0  0  0  0  0  0  0  0
   12.7841  -19.3823   25.2006 C   0  0  0  0  0  0  0  0  0  0  0  0
   12.4114  -20.8403   25.3248 C   0  0  0  0  0  0  0  0  0  0  0  0
   11.4119  -20.9521   26.4271 C   0  0  0  0  0  0  0  0  0  0  0  0
   11.3487  -19.5589   26.9928 C   0  0  1  0  0  0  0  0  0  0  0  0
   12.3711  -19.4535   28.0717 C   0  0  0  0  0  0  0  0  0  0  0  0
   13.5953  -18.8545   27.8511 O   0  0  0  0  0  0  0  0  0  0  0  0
   12.1610  -19.9046   29.2247 O   0  0  0  0  0  0  0  0  0  0  0  0
  2  1  1  6
  3  2  1  0
  4  5  2  0
  4  3  1  0
  6  5  1  0
  7 12  2  0
  7  6  1  0
  8  7  1  0
  9  8  2  0
  9 10  1  0
 10 11  2  0
 11 12  1  0
 12  4  1  0
 13  2  1  0
 14 13  2  0
 16 17  1  0
 16 15  1  1
 17 13  1  0
 18 16  1  0
 19 18  2  0
 20 18  1  0
 21 22  1  0
 21 20  1  0
 23 24  1  0
 23 22  1  0
 24 20  1  0
 24 25  1  1
 26 25  1  0
 27 25  2  0
M  END
$$$$
