WAP.pdb
     RDKit          3D

 27 29  0  0  1  0  0  0  0  0999 V2000
    6.3065  -17.4059   25.2866 N   0  0  0  0  0  0  0  0  0  0  0  0
    6.8465  -16.1708   24.7927 C   0  0  1  0  0  0  0  0  0  0  0  0
    8.2074  -15.9049   25.3851 C   0  0  0  0  0  0  0  0  0  0  0  0
    8.2366  -14.9396   26.4803 C   0  0  0  0  0  0  0  0  0  0  0  0
    8.8048  -15.0902   27.7471 C   0  0  0  0  0  0  0  0  0  0  0  0
    8.6039  -13.9951   28.4912 N   0  0  0  0  0  0  0  0  0  0  0  0
    7.9105  -13.1167   27.7385 C   0  0  0  0  0  0  0  0  0  0  0  0
    7.4333  -11.8443   27.9585 C   0  0  0  0  0  0  0  0  0  0  0  0
    6.7480  -11.1387   26.9998 C   0  0  0  0  0  0  0  0  0  0  0  0
    6.5100  -11.6938   25.7566 C   0  0  0  0  0  0  0  0  0  0  0  0
    6.9753  -12.9554   25.5193 C   0  0  0  0  0  0  0  0  0  0  0  0
    7.6688  -13.6768   26.4841 C   0  0  0  0  0  0  0  0  0  0  0  0
    7.0490  -16.3018   23.3211 C   0  0  0  0  0  0  0  0  0  0  0  0
    7.1641  -17.4807   22.8810 O   0  0  0  0  0  0  0  0  0  0  0  0
    7.4858  -14.2393   20.2185 C   0  0  0  0  0  0  0  0  0  0  0  0
    7.4122  -15.5280   21.0039 C   0  0  2  0  0  0  0  0  0  0  0  0
    7.1217  -15.2535   22.4026 N   0  0  0  0  0  0  0  0  0  0  0  0
    8.6497  -16.3361   20.8875 C   0  0  0  0  0  0  0  0  0  0  0  0
    9.4160  -16.3760   21.8861 O   0  0  0  0  0  0  0  0  0  0  0  0
    9.0068  -17.0579   19.7198 N   0  0  0  0  0  0  0  0  0  0  0  0
    8.2226  -17.0466   18.4855 C   0  0  0  0  0  0  0  0  0  0  0  0
    8.3332  -18.4845   18.0379 C   0  0  0  0  0  0  0  0  0  0  0  0
    9.5159  -19.0763   18.7291 C   0  0  0  0  0  0  0  0  0  0  0  0
   10.1287  -17.9063   19.4505 C   0  0  1  0  0  0  0  0  0  0  0  0
   11.1154  -17.2669   18.5350 C   0  0  0  0  0  0  0  0  0  0  0  0
   10.8300  -16.0887   17.8742 O   0  0  0  0  0  0  0  0  0  0  0  0
   12.2459  -17.7728   18.3277 O   0  0  0  0  0  0  0  0  0  0  0  0
  2  1  1  1
  3  2  1  0
  4  5  2  0
  4  3  1  0
  6  5  1  0
  7 12  2  0
  7  6  1  0
  8  7  1  0
  9  8  2  0
  9 10  1  0
 10 11  2  0
 11 12  1  0
 12  4  1  0
 13  2  1  0
 14 13  2  0
 16 17  1  0
 16 15  1  6
 17 13  1  0
 18 16  1  0
 19 18  2  0
 20 18  1  0
 21 22  1  0
 21 20  1  0
 23 24  1  0
 23 22  1  0
 24 20  1  0
 24 25  1  6
 26 25  1  0
 27 25  2  0
M  END
$$$$
