WAP.pdb
     RDKit          3D

 27 29  0  0  1  0  0  0  0  0999 V2000
    6.1370  -18.7049   24.7062 N   0  0  0  0  0  0  0  0  0  0  0  0
    6.3002  -17.2888   24.5356 C   0  0  1  0  0  0  0  0  0  0  0  0
    7.1136  -16.7026   25.6618 C   0  0  0  0  0  0  0  0  0  0  0  0
    6.6705  -15.3964   26.1412 C   0  0  0  0  0  0  0  0  0  0  0  0
    5.3713  -14.9858   26.4475 C   0  0  0  0  0  0  0  0  0  0  0  0
    5.3563  -13.7025   26.8295 N   0  0  0  0  0  0  0  0  0  0  0  0
    6.6267  -13.2519   26.7828 C   0  0  0  0  0  0  0  0  0  0  0  0
    7.2177  -12.0415   27.0666 C   0  0  0  0  0  0  0  0  0  0  0  0
    8.5705  -11.8361   26.9457 C   0  0  0  0  0  0  0  0  0  0  0  0
    9.4004  -12.8589   26.5269 C   0  0  0  0  0  0  0  0  0  0  0  0
    8.8327  -14.0671   26.2401 C   0  0  0  0  0  0  0  0  0  0  0  0
    7.4647  -14.2832   26.3587 C   0  0  0  0  0  0  0  0  0  0  0  0
    7.0822  -17.0531   23.2879 C   0  0  0  0  0  0  0  0  0  0  0  0
    7.8961  -17.9640   22.9645 O   0  0  0  0  0  0  0  0  0  0  0  0
    7.7186  -14.4651   20.6560 C   0  0  0  0  0  0  0  0  0  0  0  0
    7.8160  -15.8458   21.2620 C   0  0  2  0  0  0  0  0  0  0  0  0
    6.9955  -15.9329   22.4601 N   0  0  0  0  0  0  0  0  0  0  0  0
    9.2133  -16.2344   21.5697 C   0  0  0  0  0  0  0  0  0  0  0  0
    9.6168  -16.0716   22.7515 O   0  0  0  0  0  0  0  0  0  0  0  0
   10.1057  -16.7743   20.6084 N   0  0  0  0  0  0  0  0  0  0  0  0
    9.7755  -16.9361   19.1931 C   0  0  0  0  0  0  0  0  0  0  0  0
   10.4241  -18.2622   18.8758 C   0  0  0  0  0  0  0  0  0  0  0  0
   11.4498  -18.5196   19.9286 C   0  0  0  0  0  0  0  0  0  0  0  0
   11.4482  -17.2544   20.7436 C   0  0  1  0  0  0  0  0  0  0  0  0
   12.4459  -16.3218   20.1475 C   0  0  0  0  0  0  0  0  0  0  0  0
   12.0896  -15.4065   19.1771 O   0  0  0  0  0  0  0  0  0  0  0  0
   13.6502  -16.3300   20.5032 O   0  0  0  0  0  0  0  0  0  0  0  0
  2  1  1  1
  3  2  1  0
  4  5  2  0
  4  3  1  0
  6  5  1  0
  7 12  2  0
  7  6  1  0
  8  7  1  0
  9  8  2  0
  9 10  1  0
 10 11  2  0
 11 12  1  0
 12  4  1  0
 13  2  1  0
 14 13  2  0
 16 17  1  0
 16 15  1  1
 17 13  1  0
 18 16  1  0
 19 18  2  0
 20 18  1  0
 21 22  1  0
 21 20  1  0
 23 24  1  0
 23 22  1  0
 24 20  1  0
 24 25  1  6
 26 25  1  0
 27 25  2  0
M  END
$$$$
