WAP.pdb
     RDKit          3D

 27 29  0  0  1  0  0  0  0  0999 V2000
    5.9969  -17.3617   24.7571 N   0  0  0  0  0  0  0  0  0  0  0  0
    6.6123  -16.1139   24.4033 C   0  0  1  0  0  0  0  0  0  0  0  0
    7.9833  -15.9975   25.0201 C   0  0  0  0  0  0  0  0  0  0  0  0
    8.0735  -15.1246   26.1872 C   0  0  0  0  0  0  0  0  0  0  0  0
    8.6299  -15.4098   27.4360 C   0  0  0  0  0  0  0  0  0  0  0  0
    8.4990  -14.3656   28.2641 N   0  0  0  0  0  0  0  0  0  0  0  0
    7.8640  -13.3885   27.5852 C   0  0  0  0  0  0  0  0  0  0  0  0
    7.4691  -12.1093   27.9059 C   0  0  0  0  0  0  0  0  0  0  0  0
    6.8311  -11.2885   27.0081 C   0  0  0  0  0  0  0  0  0  0  0  0
    6.5591  -11.7284   25.7264 C   0  0  0  0  0  0  0  0  0  0  0  0
    6.9427  -12.9947   25.3893 C   0  0  0  0  0  0  0  0  0  0  0  0
    7.5878  -13.8322   26.2919 C   0  0  0  0  0  0  0  0  0  0  0  0
    6.8149  -16.0922   22.9260 C   0  0  0  0  0  0  0  0  0  0  0  0
    6.7969  -17.2160   22.3484 O   0  0  0  0  0  0  0  0  0  0  0  0
    7.3828  -13.7345   20.0646 C   0  0  0  0  0  0  0  0  0  0  0  0
    7.2493  -15.0947   20.7088 C   0  0  2  0  0  0  0  0  0  0  0  0
    7.0195  -14.9583   22.1387 N   0  0  0  0  0  0  0  0  0  0  0  0
    8.4275  -15.9596   20.4602 C   0  0  0  0  0  0  0  0  0  0  0  0
    9.2418  -16.1217   21.4071 O   0  0  0  0  0  0  0  0  0  0  0  0
    8.6777  -16.6054   19.2223 N   0  0  0  0  0  0  0  0  0  0  0  0
    7.8579  -16.4161   18.0263 C   0  0  0  0  0  0  0  0  0  0  0  0
    7.8201  -17.8134   17.4552 C   0  0  0  0  0  0  0  0  0  0  0  0
    8.9649  -18.5669   18.0455 C   0  0  0  0  0  0  0  0  0  0  0  0
    9.7068  -17.5240   18.8372 C   0  0  1  0  0  0  0  0  0  0  0  0
   10.7179  -16.8978   17.9395 C   0  0  0  0  0  0  0  0  0  0  0  0
   10.4569  -15.7202   17.2677 O   0  0  0  0  0  0  0  0  0  0  0  0
   11.8478  -17.4148   17.7578 O   0  0  0  0  0  0  0  0  0  0  0  0
  2  1  1  6
  3  2  1  0
  4  5  2  0
  4  3  1  0
  6  5  1  0
  7 12  2  0
  7  6  1  0
  8  7  1  0
  9  8  2  0
  9 10  1  0
 10 11  2  0
 11 12  1  0
 12  4  1  0
 13  2  1  0
 14 13  2  0
 16 17  1  0
 16 15  1  1
 17 13  1  0
 18 16  1  0
 19 18  2  0
 20 18  1  0
 21 22  1  0
 21 20  1  0
 23 24  1  0
 23 22  1  0
 24 20  1  0
 24 25  1  6
 26 25  1  0
 27 25  2  0
M  END
$$$$
