WAP.pdb
     RDKit          3D

 27 29  0  0  1  0  0  0  0  0999 V2000
    6.3544  -18.6152   24.7171 N   0  0  0  0  0  0  0  0  0  0  0  0
    6.4564  -17.1963   24.5242 C   0  0  1  0  0  0  0  0  0  0  0  0
    7.1379  -16.5422   25.6995 C   0  0  0  0  0  0  0  0  0  0  0  0
    6.5106  -15.3165   26.1855 C   0  0  0  0  0  0  0  0  0  0  0  0
    5.1784  -15.1176   26.5545 C   0  0  0  0  0  0  0  0  0  0  0  0
    4.9716  -13.8464   26.9210 N   0  0  0  0  0  0  0  0  0  0  0  0
    6.1468  -13.1952   26.8023 C   0  0  0  0  0  0  0  0  0  0  0  0
    6.5443  -11.8988   27.0399 C   0  0  0  0  0  0  0  0  0  0  0  0
    7.8372  -11.4776   26.8458 C   0  0  0  0  0  0  0  0  0  0  0  0
    8.8020  -12.3593   26.3965 C   0  0  0  0  0  0  0  0  0  0  0  0
    8.4271  -13.6498   26.1547 C   0  0  0  0  0  0  0  0  0  0  0  0
    7.1208  -14.0842   26.3475 C   0  0  0  0  0  0  0  0  0  0  0  0
    7.3288  -16.9445   23.3414 C   0  0  0  0  0  0  0  0  0  0  0  0
    8.2671  -17.7712   23.1597 O   0  0  0  0  0  0  0  0  0  0  0  0
    7.9417  -14.4756   20.5952 C   0  0  0  0  0  0  0  0  0  0  0  0
    8.0845  -15.8155   21.2787 C   0  0  2  0  0  0  0  0  0  0  0  0
    7.2021  -15.8929   22.4326 N   0  0  0  0  0  0  0  0  0  0  0  0
    9.4819  -16.1013   21.6833 C   0  0  0  0  0  0  0  0  0  0  0  0
    9.8436  -15.7310   22.8314 O   0  0  0  0  0  0  0  0  0  0  0  0
   10.4187  -16.7640   20.8495 N   0  0  0  0  0  0  0  0  0  0  0  0
   10.1162  -17.2297   19.4967 C   0  0  0  0  0  0  0  0  0  0  0  0
   10.8533  -18.5467   19.4529 C   0  0  0  0  0  0  0  0  0  0  0  0
   11.8813  -18.5178   20.5342 C   0  0  0  0  0  0  0  0  0  0  0  0
   11.7879  -17.1171   21.0765 C   0  0  1  0  0  0  0  0  0  0  0  0
   12.7296  -16.2601   20.3023 C   0  0  0  0  0  0  0  0  0  0  0  0
   12.3077  -15.5242   19.2130 O   0  0  0  0  0  0  0  0  0  0  0  0
   13.9442  -16.1722   20.6089 O   0  0  0  0  0  0  0  0  0  0  0  0
  2  1  1  1
  3  2  1  0
  4  5  2  0
  4  3  1  0
  6  5  1  0
  7 12  2  0
  7  6  1  0
  8  7  1  0
  9  8  2  0
  9 10  1  0
 10 11  2  0
 11 12  1  0
 12  4  1  0
 13  2  1  0
 14 13  2  0
 16 17  1  0
 16 15  1  1
 17 13  1  0
 18 16  1  0
 19 18  2  0
 20 18  1  0
 21 22  1  0
 21 20  1  0
 23 24  1  0
 23 22  1  0
 24 20  1  0
 24 25  1  6
 26 25  1  0
 27 25  2  0
M  END
$$$$
