WAP.pdb
     RDKit          3D

 27 29  0  0  1  0  0  0  0  0999 V2000
    6.7426  -18.9690   25.7300 N   0  0  0  0  0  0  0  0  0  0  0  0
    7.3732  -17.6978   25.9474 C   0  0  1  0  0  0  0  0  0  0  0  0
    8.8725  -17.8459   26.0097 C   0  0  0  0  0  0  0  0  0  0  0  0
    9.5110  -17.2687   27.1892 C   0  0  0  0  0  0  0  0  0  0  0  0
   10.0613  -17.9367   28.2853 C   0  0  0  0  0  0  0  0  0  0  0  0
   10.5300  -17.0645   29.1869 N   0  0  0  0  0  0  0  0  0  0  0  0
   10.3007  -15.8250   28.7073 C   0  0  0  0  0  0  0  0  0  0  0  0
   10.5650  -14.5588   29.1784 C   0  0  0  0  0  0  0  0  0  0  0  0
   10.2315  -13.4269   28.4753 C   0  0  0  0  0  0  0  0  0  0  0  0
    9.6069  -13.5234   27.2461 C   0  0  0  0  0  0  0  0  0  0  0  0
    9.3359  -14.7710   26.7621 C   0  0  0  0  0  0  0  0  0  0  0  0
    9.6690  -15.9216   27.4674 C   0  0  0  0  0  0  0  0  0  0  0  0
    7.0874  -16.8246   24.7729 C   0  0  0  0  0  0  0  0  0  0  0  0
    7.3146  -17.3316   23.6380 O   0  0  0  0  0  0  0  0  0  0  0  0
    7.3279  -13.2738   24.2122 C   0  0  0  0  0  0  0  0  0  0  0  0
    6.8409  -14.6112   23.7050 C   0  0  2  0  0  0  0  0  0  0  0  0
    6.5994  -15.5178   24.8167 N   0  0  0  0  0  0  0  0  0  0  0  0
    7.7791  -15.2278   22.7367 C   0  0  0  0  0  0  0  0  0  0  0  0
    8.1966  -16.3890   22.9881 O   0  0  0  0  0  0  0  0  0  0  0  0
    8.2226  -14.5803   21.5551 N   0  0  0  0  0  0  0  0  0  0  0  0
    8.0253  -13.1567   21.2851 C   0  0  0  0  0  0  0  0  0  0  0  0
    7.7103  -13.1646   19.8084 C   0  0  0  0  0  0  0  0  0  0  0  0
    8.2114  -14.4559   19.2531 C   0  0  0  0  0  0  0  0  0  0  0  0
    8.9256  -15.0901   20.4162 C   0  0  1  0  0  0  0  0  0  0  0  0
   10.3470  -14.6442   20.3818 C   0  0  0  0  0  0  0  0  0  0  0  0
   11.2826  -15.2737   19.5852 O   0  0  0  0  0  0  0  0  0  0  0  0
   10.7515  -13.6785   21.0751 O   0  0  0  0  0  0  0  0  0  0  0  0
  2  1  1  6
  3  2  1  0
  4  5  2  0
  4  3  1  0
  6  5  1  0
  7 12  2  0
  7  6  1  0
  8  7  1  0
  9  8  2  0
  9 10  1  0
 10 11  2  0
 11 12  1  0
 12  4  1  0
 13  2  1  0
 14 13  2  0
 16 17  1  0
 16 15  1  1
 17 13  1  0
 18 16  1  0
 19 18  2  0
 20 18  1  0
 21 22  1  0
 21 20  1  0
 23 24  1  0
 23 22  1  0
 24 20  1  0
 24 25  1  1
 26 25  1  0
 27 25  2  0
M  END
$$$$
