WAP.pdb
     RDKit          3D

 27 29  0  0  1  0  0  0  0  0999 V2000
    9.6272  -15.6586   22.1028 N   0  0  0  0  0  0  0  0  0  0  0  0
    9.0732  -15.1217   23.3135 C   0  0  1  0  0  0  0  0  0  0  0  0
    7.7590  -15.7837   23.6423 C   0  0  0  0  0  0  0  0  0  0  0  0
    6.8832  -15.0297   24.5349 C   0  0  0  0  0  0  0  0  0  0  0  0
    5.7794  -15.4934   25.2538 C   0  0  0  0  0  0  0  0  0  0  0  0
    5.2075  -14.4968   25.9415 N   0  0  0  0  0  0  0  0  0  0  0  0
    5.9147  -13.3757   25.6920 C   0  0  0  0  0  0  0  0  0  0  0  0
    5.8094  -12.0704   26.1164 C   0  0  0  0  0  0  0  0  0  0  0  0
    6.6860  -11.0923   25.7143 C   0  0  0  0  0  0  0  0  0  0  0  0
    7.7243  -11.3921   24.8527 C   0  0  0  0  0  0  0  0  0  0  0  0
    7.8451  -12.6816   24.4203 C   0  0  0  0  0  0  0  0  0  0  0  0
    6.9620  -13.6773   24.8214 C   0  0  0  0  0  0  0  0  0  0  0  0
    9.9980  -15.4462   24.4375 C   0  0  0  0  0  0  0  0  0  0  0  0
   10.7111  -16.4784   24.2870 O   0  0  0  0  0  0  0  0  0  0  0  0
   10.9855  -14.2796   27.8632 C   0  0  0  0  0  0  0  0  0  0  0  0
   11.0199  -15.2105   26.6736 C   0  0  2  0  0  0  0  0  0  0  0  0
   10.1421  -14.7218   25.6216 N   0  0  0  0  0  0  0  0  0  0  0  0
   10.6625  -16.6041   27.0318 C   0  0  0  0  0  0  0  0  0  0  0  0
    9.5263  -17.0220   26.6847 O   0  0  0  0  0  0  0  0  0  0  0  0
   11.5287  -17.4781   27.7374 N   0  0  0  0  0  0  0  0  0  0  0  0
   12.8852  -17.1201   28.1498 C   0  0  0  0  0  0  0  0  0  0  0  0
   13.6316  -18.4094   27.9040 C   0  0  0  0  0  0  0  0  0  0  0  0
   12.6205  -19.5055   27.8476 C   0  0  0  0  0  0  0  0  0  0  0  0
   11.3300  -18.8177   28.2032 C   0  0  1  0  0  0  0  0  0  0  0  0
   11.1656  -18.8843   29.6827 C   0  0  0  0  0  0  0  0  0  0  0  0
   11.3580  -17.7749   30.4818 O   0  0  0  0  0  0  0  0  0  0  0  0
   10.8453  -19.9510   30.2627 O   0  0  0  0  0  0  0  0  0  0  0  0
  2  1  1  6
  3  2  1  0
  4  5  2  0
  4  3  1  0
  6  5  1  0
  7 12  2  0
  7  6  1  0
  8  7  1  0
  9  8  2  0
  9 10  1  0
 10 11  2  0
 11 12  1  0
 12  4  1  0
 13  2  1  0
 14 13  2  0
 16 17  1  0
 16 15  1  1
 17 13  1  0
 18 16  1  0
 19 18  2  0
 20 18  1  0
 21 22  1  0
 21 20  1  0
 23 24  1  0
 23 22  1  0
 24 20  1  0
 24 25  1  1
 26 25  1  0
 27 25  2  0
M  END
$$$$
