WAP.pdb
     RDKit          3D

 27 29  0  0  1  0  0  0  0  0999 V2000
    6.3788  -18.0357   24.4845 N   0  0  0  0  0  0  0  0  0  0  0  0
    6.8140  -16.7748   23.9539 C   0  0  1  0  0  0  0  0  0  0  0  0
    7.6799  -16.0438   24.9486 C   0  0  0  0  0  0  0  0  0  0  0  0
    6.9879  -15.0639   25.7811 C   0  0  0  0  0  0  0  0  0  0  0  0
    5.8661  -15.2586   26.5897 C   0  0  0  0  0  0  0  0  0  0  0  0
    5.5010  -14.1132   27.1797 N   0  0  0  0  0  0  0  0  0  0  0  0
    6.3637  -13.1581   26.7764 C   0  0  0  0  0  0  0  0  0  0  0  0
    6.4932  -11.8156   27.0518 C   0  0  0  0  0  0  0  0  0  0  0  0
    7.4913  -11.0449   26.5071 C   0  0  0  0  0  0  0  0  0  0  0  0
    8.4181  -11.6032   25.6471 C   0  0  0  0  0  0  0  0  0  0  0  0
    8.3060  -12.9336   25.3613 C   0  0  0  0  0  0  0  0  0  0  0  0
    7.2985  -13.7205   25.9072 C   0  0  0  0  0  0  0  0  0  0  0  0
    7.6738  -17.0374   22.7641 C   0  0  0  0  0  0  0  0  0  0  0  0
    8.4597  -18.0227   22.8559 O   0  0  0  0  0  0  0  0  0  0  0  0
    8.5796  -15.6123   19.4197 C   0  0  0  0  0  0  0  0  0  0  0  0
    8.6030  -16.6614   20.5068 C   0  0  2  0  0  0  0  0  0  0  0  0
    7.6865  -16.3023   21.5779 N   0  0  0  0  0  0  0  0  0  0  0  0
    9.9636  -16.8855   21.0514 C   0  0  0  0  0  0  0  0  0  0  0  0
   10.2741  -16.2806   22.1115 O   0  0  0  0  0  0  0  0  0  0  0  0
   10.9198  -17.7386   20.4432 N   0  0  0  0  0  0  0  0  0  0  0  0
   10.6614  -18.5169   19.2326 C   0  0  0  0  0  0  0  0  0  0  0  0
   11.3762  -19.8109   19.5406 C   0  0  0  0  0  0  0  0  0  0  0  0
   12.3621  -19.5279   20.6244 C   0  0  0  0  0  0  0  0  0  0  0  0
   12.2728  -18.0367   20.8061 C   0  0  1  0  0  0  0  0  0  0  0  0
   13.2587  -17.4013   19.8870 C   0  0  0  0  0  0  0  0  0  0  0  0
   12.9163  -17.0370   18.6001 O   0  0  0  0  0  0  0  0  0  0  0  0
   14.4401  -17.1712   20.2452 O   0  0  0  0  0  0  0  0  0  0  0  0
  2  1  1  1
  3  2  1  0
  4  5  2  0
  4  3  1  0
  6  5  1  0
  7 12  2  0
  7  6  1  0
  8  7  1  0
  9  8  2  0
  9 10  1  0
 10 11  2  0
 11 12  1  0
 12  4  1  0
 13  2  1  0
 14 13  2  0
 16 17  1  0
 16 15  1  6
 17 13  1  0
 18 16  1  0
 19 18  2  0
 20 18  1  0
 21 22  1  0
 21 20  1  0
 23 24  1  0
 23 22  1  0
 24 20  1  0
 24 25  1  6
 26 25  1  0
 27 25  2  0
M  END
$$$$
