WAP.pdb
     RDKit          3D

 27 29  0  0  1  0  0  0  0  0999 V2000
    9.7747  -18.0927   25.3877 N   0  0  0  0  0  0  0  0  0  0  0  0
    8.9598  -16.9486   25.0911 C   0  0  1  0  0  0  0  0  0  0  0  0
    8.8442  -16.0456   26.2931 C   0  0  0  0  0  0  0  0  0  0  0  0
    7.6006  -15.2865   26.3897 C   0  0  0  0  0  0  0  0  0  0  0  0
    6.2915  -15.7573   26.2672 C   0  0  0  0  0  0  0  0  0  0  0  0
    5.4126  -14.7540   26.3866 N   0  0  0  0  0  0  0  0  0  0  0  0
    6.1170  -13.6215   26.5875 C   0  0  0  0  0  0  0  0  0  0  0  0
    5.7657  -12.3051   26.7843 C   0  0  0  0  0  0  0  0  0  0  0  0
    6.6977  -11.3157   26.9819 C   0  0  0  0  0  0  0  0  0  0  0  0
    8.0470  -11.6149   26.9901 C   0  0  0  0  0  0  0  0  0  0  0  0
    8.4155  -12.9153   26.7961 C   0  0  0  0  0  0  0  0  0  0  0  0
    7.4790  -13.9225   26.5945 C   0  0  0  0  0  0  0  0  0  0  0  0
    9.6397  -16.1496   24.0314 C   0  0  0  0  0  0  0  0  0  0  0  0
   10.0079  -14.9877   24.3648 O   0  0  0  0  0  0  0  0  0  0  0  0
   11.4060  -15.7490   20.9937 C   0  0  0  0  0  0  0  0  0  0  0  0
   10.0625  -15.5830   21.6649 C   0  0  2  0  0  0  0  0  0  0  0  0
    9.9003  -16.5658   22.7250 N   0  0  0  0  0  0  0  0  0  0  0  0
    8.9339  -15.6722   20.7076 C   0  0  0  0  0  0  0  0  0  0  0  0
    8.1122  -16.6141   20.8614 O   0  0  0  0  0  0  0  0  0  0  0  0
    8.7378  -14.7583   19.6407 N   0  0  0  0  0  0  0  0  0  0  0  0
    9.6076  -13.6115   19.3823 C   0  0  0  0  0  0  0  0  0  0  0  0
    8.6099  -12.5556   18.9706 C   0  0  0  0  0  0  0  0  0  0  0  0
    7.3611  -13.2599   18.5571 C   0  0  0  0  0  0  0  0  0  0  0  0
    7.7374  -14.7159   18.6167 C   0  0  1  0  0  0  0  0  0  0  0  0
    8.2751  -15.1072   17.2832 C   0  0  0  0  0  0  0  0  0  0  0  0
    7.4389  -15.4459   16.2381 O   0  0  0  0  0  0  0  0  0  0  0  0
    9.5095  -15.1445   17.0557 O   0  0  0  0  0  0  0  0  0  0  0  0
  2  1  1  1
  3  2  1  0
  4  5  2  0
  4  3  1  0
  6  5  1  0
  7 12  2  0
  7  6  1  0
  8  7  1  0
  9  8  2  0
  9 10  1  0
 10 11  2  0
 11 12  1  0
 12  4  1  0
 13  2  1  0
 14 13  2  0
 16 17  1  0
 16 15  1  6
 17 13  1  0
 18 16  1  0
 19 18  2  0
 20 18  1  0
 21 22  1  0
 21 20  1  0
 23 24  1  0
 23 22  1  0
 24 20  1  0
 24 25  1  6
 26 25  1  0
 27 25  2  0
M  END
$$$$
