WAP.pdb
     RDKit          3D

 27 29  0  0  1  0  0  0  0  0999 V2000
    6.1722  -18.6869   24.6416 N   0  0  0  0  0  0  0  0  0  0  0  0
    6.3355  -17.2650   24.5292 C   0  0  1  0  0  0  0  0  0  0  0  0
    7.0713  -16.7130   25.7240 C   0  0  0  0  0  0  0  0  0  0  0  0
    6.6578  -15.3802   26.1540 C   0  0  0  0  0  0  0  0  0  0  0  0
    5.3600  -14.8848   26.2977 C   0  0  0  0  0  0  0  0  0  0  0  0
    5.3809  -13.6030   26.6848 N   0  0  0  0  0  0  0  0  0  0  0  0
    6.6738  -13.2372   26.8018 C   0  0  0  0  0  0  0  0  0  0  0  0
    7.3023  -12.0682   27.1672 C   0  0  0  0  0  0  0  0  0  0  0  0
    8.6700  -11.9525   27.2191 C   0  0  0  0  0  0  0  0  0  0  0  0
    9.4774  -13.0279   26.9000 C   0  0  0  0  0  0  0  0  0  0  0  0
    8.8725  -14.1962   26.5347 C   0  0  0  0  0  0  0  0  0  0  0  0
    7.4893  -14.3217   26.4785 C   0  0  0  0  0  0  0  0  0  0  0  0
    7.1934  -16.9831   23.3425 C   0  0  0  0  0  0  0  0  0  0  0  0
    8.1009  -17.8288   23.1022 O   0  0  0  0  0  0  0  0  0  0  0  0
    7.8963  -14.3679   20.7650 C   0  0  0  0  0  0  0  0  0  0  0  0
    7.9658  -15.7642   21.3380 C   0  0  2  0  0  0  0  0  0  0  0  0
    7.0836  -15.8848   22.4884 N   0  0  0  0  0  0  0  0  0  0  0  0
    9.3461  -16.1588   21.7083 C   0  0  0  0  0  0  0  0  0  0  0  0
    9.6908  -16.0144   22.9109 O   0  0  0  0  0  0  0  0  0  0  0  0
   10.2848  -16.6850   20.7842 N   0  0  0  0  0  0  0  0  0  0  0  0
   10.0211  -16.8344   19.3536 C   0  0  0  0  0  0  0  0  0  0  0  0
   10.6906  -18.1542   19.0538 C   0  0  0  0  0  0  0  0  0  0  0  0
   11.6679  -18.4170   20.1504 C   0  0  0  0  0  0  0  0  0  0  0  0
   11.6221  -17.1600   20.9766 C   0  0  1  0  0  0  0  0  0  0  0  0
   12.6413  -16.2168   20.4362 C   0  0  0  0  0  0  0  0  0  0  0  0
   13.9499  -16.2371   20.8762 O   0  0  0  0  0  0  0  0  0  0  0  0
   12.3521  -15.3659   19.5592 O   0  0  0  0  0  0  0  0  0  0  0  0
  2  1  1  1
  3  2  1  0
  4  5  2  0
  4  3  1  0
  6  5  1  0
  7 12  2  0
  7  6  1  0
  8  7  1  0
  9  8  2  0
  9 10  1  0
 10 11  2  0
 11 12  1  0
 12  4  1  0
 13  2  1  0
 14 13  2  0
 16 17  1  0
 16 15  1  1
 17 13  1  0
 18 16  1  0
 19 18  2  0
 20 18  1  0
 21 22  1  0
 21 20  1  0
 23 24  1  0
 23 22  1  0
 24 20  1  0
 24 25  1  6
 26 25  1  0
 27 25  2  0
M  END
$$$$
