WAP.pdb
     RDKit          3D

 27 29  0  0  1  0  0  0  0  0999 V2000
    6.2201  -17.3933   22.9654 N   0  0  0  0  0  0  0  0  0  0  0  0
    6.6204  -16.0146   22.9631 C   0  0  1  0  0  0  0  0  0  0  0  0
    7.5742  -15.7306   24.0959 C   0  0  0  0  0  0  0  0  0  0  0  0
    6.9841  -15.0861   25.2657 C   0  0  0  0  0  0  0  0  0  0  0  0
    6.0502  -15.6125   26.1607 C   0  0  0  0  0  0  0  0  0  0  0  0
    5.7234  -14.7085   27.0929 N   0  0  0  0  0  0  0  0  0  0  0  0
    6.4264  -13.5873   26.8325 C   0  0  0  0  0  0  0  0  0  0  0  0
    6.5113  -12.3551   27.4404 C   0  0  0  0  0  0  0  0  0  0  0  0
    7.3334  -11.3586   26.9736 C   0  0  0  0  0  0  0  0  0  0  0  0
    8.1190  -11.5640   25.8552 C   0  0  0  0  0  0  0  0  0  0  0  0
    8.0483  -12.7799   25.2379 C   0  0  0  0  0  0  0  0  0  0  0  0
    7.2184  -13.7934   25.7030 C   0  0  0  0  0  0  0  0  0  0  0  0
    7.3737  -15.7462   21.7045 C   0  0  0  0  0  0  0  0  0  0  0  0
    8.0375  -16.7156   21.2394 O   0  0  0  0  0  0  0  0  0  0  0  0
    8.2148  -12.9981   19.3005 C   0  0  0  0  0  0  0  0  0  0  0  0
    8.1573  -14.4352   19.7635 C   0  0  2  0  0  0  0  0  0  0  0  0
    7.4094  -14.5379   21.0070 N   0  0  0  0  0  0  0  0  0  0  0  0
    9.5036  -15.0347   19.9253 C   0  0  0  0  0  0  0  0  0  0  0  0
    9.9661  -15.1224   21.0933 O   0  0  0  0  0  0  0  0  0  0  0  0
   10.2853  -15.5088   18.8407 N   0  0  0  0  0  0  0  0  0  0  0  0
    9.8422  -15.4840   17.4473 C   0  0  0  0  0  0  0  0  0  0  0  0
   10.3761  -16.7989   16.9315 C   0  0  0  0  0  0  0  0  0  0  0  0
   11.4567  -17.2368   17.8628 C   0  0  0  0  0  0  0  0  0  0  0  0
   11.5991  -16.0780   18.8125 C   0  0  1  0  0  0  0  0  0  0  0  0
   12.6103  -15.1410   18.2469 C   0  0  0  0  0  0  0  0  0  0  0  0
   13.9467  -15.2321   18.5816 O   0  0  0  0  0  0  0  0  0  0  0  0
   12.2886  -14.2314   17.4432 O   0  0  0  0  0  0  0  0  0  0  0  0
  2  1  1  6
  3  2  1  0
  4  5  2  0
  4  3  1  0
  6  5  1  0
  7 12  2  0
  7  6  1  0
  8  7  1  0
  9  8  2  0
  9 10  1  0
 10 11  2  0
 11 12  1  0
 12  4  1  0
 13  2  1  0
 14 13  2  0
 16 17  1  0
 16 15  1  1
 17 13  1  0
 18 16  1  0
 19 18  2  0
 20 18  1  0
 21 22  1  0
 21 20  1  0
 23 24  1  0
 23 22  1  0
 24 20  1  0
 24 25  1  6
 26 25  1  0
 27 25  2  0
M  END
$$$$
