WAP.pdb
     RDKit          3D

 27 29  0  0  1  0  0  0  0  0999 V2000
    5.9399  -19.0292   21.0684 N   0  0  0  0  0  0  0  0  0  0  0  0
    6.8377  -17.9195   21.2210 C   0  0  1  0  0  0  0  0  0  0  0  0
    6.5443  -16.8475   20.2021 C   0  0  0  0  0  0  0  0  0  0  0  0
    7.6389  -15.9181   19.9370 C   0  0  0  0  0  0  0  0  0  0  0  0
    8.9426  -16.2142   19.5332 C   0  0  0  0  0  0  0  0  0  0  0  0
    9.6707  -15.0960   19.4204 N   0  0  0  0  0  0  0  0  0  0  0  0
    8.8710  -14.0589   19.7427 C   0  0  0  0  0  0  0  0  0  0  0  0
    9.0569  -12.6960   19.7990 C   0  0  0  0  0  0  0  0  0  0  0  0
    8.0524  -11.8297   20.1555 C   0  0  0  0  0  0  0  0  0  0  0  0
    6.7955  -12.3072   20.4759 C   0  0  0  0  0  0  0  0  0  0  0  0
    6.5915  -13.6564   20.4263 C   0  0  0  0  0  0  0  0  0  0  0  0
    7.6027  -14.5401   20.0675 C   0  0  0  0  0  0  0  0  0  0  0  0
    6.5993  -17.3028   22.5577 C   0  0  0  0  0  0  0  0  0  0  0  0
    5.4761  -16.7466   22.7182 O   0  0  0  0  0  0  0  0  0  0  0  0
    6.6742  -17.5341   25.9091 C   0  0  0  0  0  0  0  0  0  0  0  0
    7.1563  -16.5705   24.8498 C   0  0  2  0  0  0  0  0  0  0  0  0
    7.4936  -17.2861   23.6290 N   0  0  0  0  0  0  0  0  0  0  0  0
    8.3114  -15.7590   25.3028 C   0  0  0  0  0  0  0  0  0  0  0  0
    9.4427  -16.0373   24.8244 O   0  0  0  0  0  0  0  0  0  0  0  0
    8.2041  -14.6971   26.2371 N   0  0  0  0  0  0  0  0  0  0  0  0
    6.9330  -14.2071   26.7684 C   0  0  0  0  0  0  0  0  0  0  0  0
    7.1732  -12.7171   26.8150 C   0  0  0  0  0  0  0  0  0  0  0  0
    8.6497  -12.5029   26.7863 C   0  0  0  0  0  0  0  0  0  0  0  0
    9.2129  -13.8964   26.8636 C   0  0  1  0  0  0  0  0  0  0  0  0
    9.3959  -14.2397   28.3020 C   0  0  0  0  0  0  0  0  0  0  0  0
    8.5867  -15.1633   28.9331 O   0  0  0  0  0  0  0  0  0  0  0  0
   10.2931  -13.7036   28.9982 O   0  0  0  0  0  0  0  0  0  0  0  0
  2  1  1  6
  3  2  1  0
  4  5  2  0
  4  3  1  0
  6  5  1  0
  7 12  2  0
  7  6  1  0
  8  7  1  0
  9  8  2  0
  9 10  1  0
 10 11  2  0
 11 12  1  0
 12  4  1  0
 13  2  1  0
 14 13  2  0
 16 17  1  0
 16 15  1  1
 17 13  1  0
 18 16  1  0
 19 18  2  0
 20 18  1  0
 21 22  1  0
 21 20  1  0
 23 24  1  0
 23 22  1  0
 24 20  1  0
 24 25  1  1
 26 25  1  0
 27 25  2  0
M  END
$$$$
