WAP.pdb
     RDKit          3D

 27 29  0  0  1  0  0  0  0  0999 V2000
    6.7370  -17.5543   24.9843 N   0  0  0  0  0  0  0  0  0  0  0  0
    6.9510  -16.2176   24.5064 C   0  0  1  0  0  0  0  0  0  0  0  0
    8.3143  -15.7151   24.9095 C   0  0  0  0  0  0  0  0  0  0  0  0
    8.3547  -14.9315   26.1410 C   0  0  0  0  0  0  0  0  0  0  0  0
    8.9300  -15.2789   27.3652 C   0  0  0  0  0  0  0  0  0  0  0  0
    8.7387  -14.3118   28.2715 N   0  0  0  0  0  0  0  0  0  0  0  0
    8.0449  -13.3247   27.6689 C   0  0  0  0  0  0  0  0  0  0  0  0
    7.5749  -12.1001   28.0868 C   0  0  0  0  0  0  0  0  0  0  0  0
    6.8871  -11.2518   27.2538 C   0  0  0  0  0  0  0  0  0  0  0  0
    6.6390  -11.6064   25.9412 C   0  0  0  0  0  0  0  0  0  0  0  0
    7.0969  -12.8176   25.5079 C   0  0  0  0  0  0  0  0  0  0  0  0
    7.7929  -13.6825   26.3444 C   0  0  0  0  0  0  0  0  0  0  0  0
    6.9388  -16.2441   23.0155 C   0  0  0  0  0  0  0  0  0  0  0  0
    7.6031  -17.1721   22.4730 O   0  0  0  0  0  0  0  0  0  0  0  0
    7.8668  -13.5133   22.0725 C   0  0  0  0  0  0  0  0  0  0  0  0
    7.0217  -14.4857   21.2831 C   0  0  2  0  0  0  0  0  0  0  0  0
    6.2692  -15.3484   22.1806 N   0  0  0  0  0  0  0  0  0  0  0  0
    7.8246  -15.3029   20.3419 C   0  0  0  0  0  0  0  0  0  0  0  0
    7.9536  -16.5291   20.5984 O   0  0  0  0  0  0  0  0  0  0  0  0
    8.4461  -14.7758   19.1809 N   0  0  0  0  0  0  0  0  0  0  0  0
    8.5889  -13.3453   18.9134 C   0  0  0  0  0  0  0  0  0  0  0  0
    8.3331  -13.2836   17.4265 C   0  0  0  0  0  0  0  0  0  0  0  0
    8.5455  -14.6561   16.8808 C   0  0  0  0  0  0  0  0  0  0  0  0
    9.0541  -15.4347   18.0640 C   0  0  1  0  0  0  0  0  0  0  0  0
   10.5401  -15.3255   18.0824 C   0  0  0  0  0  0  0  0  0  0  0  0
   11.1889  -14.4348   18.9142 O   0  0  0  0  0  0  0  0  0  0  0  0
   11.2623  -16.0387   17.3430 O   0  0  0  0  0  0  0  0  0  0  0  0
  2  1  1  1
  3  2  1  0
  4  5  2  0
  4  3  1  0
  6  5  1  0
  7 12  2  0
  7  6  1  0
  8  7  1  0
  9  8  2  0
  9 10  1  0
 10 11  2  0
 11 12  1  0
 12  4  1  0
 13  2  1  0
 14 13  2  0
 16 17  1  0
 16 15  1  1
 17 13  1  0
 18 16  1  0
 19 18  2  0
 20 18  1  0
 21 22  1  0
 21 20  1  0
 23 24  1  0
 23 22  1  0
 24 20  1  0
 24 25  1  1
 26 25  1  0
 27 25  2  0
M  END
$$$$
