LMV.pdb
     RDKit          3D

 24 23  0  0  1  0  0  0  0  0999 V2000
    6.4786  -17.0018   19.0993 C   0  0  0  0  0  0  0  0  0  0  0  0
    7.7731  -17.7208   19.4011 C   0  0  2  0  0  0  0  0  0  0  0  0
    7.4980  -19.2182   19.3429 C   0  0  0  0  0  0  0  0  0  0  0  0
    8.3323  -17.3945   20.7535 C   0  0  0  0  0  0  0  0  0  0  0  0
    8.4798  -15.8928   20.8906 C   0  0  2  0  0  0  0  0  0  0  0  0
    9.4566  -15.3666   19.9600 N   0  0  0  0  0  0  0  0  0  0  0  0
    8.9397  -15.5681   22.2863 C   0  0  0  0  0  0  0  0  0  0  0  0
   10.1667  -15.5331   22.5649 O   0  0  0  0  0  0  0  0  0  0  0  0
    7.5103  -11.7489   27.3888 C   0  0  0  0  0  0  0  0  0  0  0  0
    6.1459  -12.0715   26.2253 S   0  0  0  0  0  0  0  0  0  0  0  0
    6.7815  -13.0171   24.7792 C   0  0  0  0  0  0  0  0  0  0  0  0
    7.1494  -14.3598   25.3177 C   0  0  0  0  0  0  0  0  0  0  0  0
    8.3313  -15.0169   24.6745 C   0  0  2  0  0  0  0  0  0  0  0  0
    7.9835  -15.3031   23.2768 N   0  0  0  0  0  0  0  0  0  0  0  0
    8.6691  -16.2850   25.3181 C   0  0  0  0  0  0  0  0  0  0  0  0
    7.8249  -17.2426   25.2712 O   0  0  0  0  0  0  0  0  0  0  0  0
   12.5457  -17.8008   25.9888 C   0  0  0  0  0  0  0  0  0  0  0  0
   11.2388  -18.5989   25.8405 C   0  0  2  0  0  0  0  0  0  0  0  0
   10.9957  -18.8853   24.3738 C   0  0  0  0  0  0  0  0  0  0  0  0
   10.1165  -17.8835   26.4957 C   0  0  2  0  0  0  0  0  0  0  0  0
    9.8919  -16.5511   26.0108 N   0  0  0  0  0  0  0  0  0  0  0  0
   10.5300  -17.7789   27.9809 C   0  0  0  0  0  0  0  0  0  0  0  0
   10.6646  -18.7469   28.7093 O   0  0  0  0  0  0  0  0  0  0  0  0
   10.7350  -16.4922   28.4307 O   0  0  0  0  0  0  0  0  0  0  0  0
  2  1  1  1
  3  2  1  0
  4  5  1  0
  4  2  1  0
  5  6  1  6
  7  5  1  0
  7  8  2  0
 10  9  1  0
 11 10  1  0
 12 11  1  0
 13 12  1  1
 13 14  1  0
 14  7  1  0
 15 13  1  0
 16 15  2  0
 18 17  1  6
 18 20  1  0
 19 18  1  0
 20 21  1  6
 20 22  1  0
 21 15  1  0
 22 24  1  0
 23 22  2  0
M  END
$$$$
