LMV.pdb
     RDKit          3D

 24 23  0  0  1  0  0  0  0  0999 V2000
    9.4344  -14.3883   19.7909 C   0  0  0  0  0  0  0  0  0  0  0  0
    8.0862  -14.3200   19.1116 C   0  0  2  0  0  0  0  0  0  0  0  0
    7.8512  -12.8752   18.6887 C   0  0  0  0  0  0  0  0  0  0  0  0
    6.9530  -14.7444   19.9968 C   0  0  0  0  0  0  0  0  0  0  0  0
    7.2361  -16.1248   20.5536 C   0  0  2  0  0  0  0  0  0  0  0  0
    6.6162  -17.1595   19.7523 N   0  0  0  0  0  0  0  0  0  0  0  0
    6.6806  -16.2168   21.9492 C   0  0  0  0  0  0  0  0  0  0  0  0
    5.4385  -16.1775   22.1485 O   0  0  0  0  0  0  0  0  0  0  0  0
    7.4136  -20.7241   25.5559 C   0  0  0  0  0  0  0  0  0  0  0  0
    7.8836  -19.5557   26.8724 S   0  0  0  0  0  0  0  0  0  0  0  0
    7.2432  -17.8787   26.4637 C   0  0  0  0  0  0  0  0  0  0  0  0
    7.4778  -17.7139   24.9988 C   0  0  0  0  0  0  0  0  0  0  0  0
    7.1247  -16.3743   24.4303 C   0  0  2  0  0  0  0  0  0  0  0  0
    7.5647  -16.3482   23.0296 N   0  0  0  0  0  0  0  0  0  0  0  0
    7.8045  -15.2867   25.1311 C   0  0  0  0  0  0  0  0  0  0  0  0
    9.0478  -15.0947   24.9099 O   0  0  0  0  0  0  0  0  0  0  0  0
    5.9977  -12.3892   27.7702 C   0  0  0  0  0  0  0  0  0  0  0  0
    7.2670  -12.1078   26.9477 C   0  0  2  0  0  0  0  0  0  0  0  0
    6.8905  -11.3316   25.7036 C   0  0  0  0  0  0  0  0  0  0  0  0
    7.9889  -13.3712   26.6589 C   0  0  2  0  0  0  0  0  0  0  0  0
    7.1820  -14.3987   26.0638 N   0  0  0  0  0  0  0  0  0  0  0  0
    8.4560  -13.8823   28.0403 C   0  0  0  0  0  0  0  0  0  0  0  0
    8.0045  -14.8811   28.5735 O   0  0  0  0  0  0  0  0  0  0  0  0
    9.4320  -13.1135   28.6372 O   0  0  0  0  0  0  0  0  0  0  0  0
  2  1  1  1
  3  2  1  0
  4  5  1  0
  4  2  1  0
  5  6  1  6
  7  5  1  0
  7  8  2  0
 10  9  1  0
 11 10  1  0
 12 11  1  0
 13 12  1  1
 13 14  1  0
 14  7  1  0
 15 13  1  0
 16 15  2  0
 18 17  1  6
 18 20  1  0
 19 18  1  0
 20 21  1  1
 20 22  1  0
 21 15  1  0
 22 24  1  0
 23 22  2  0
M  END
$$$$
