LMV.pdb
     RDKit          3D

 24 23  0  0  1  0  0  0  0  0999 V2000
    6.5772  -19.3975   20.1507 C   0  0  0  0  0  0  0  0  0  0  0  0
    6.7726  -17.9093   19.9747 C   0  0  2  0  0  0  0  0  0  0  0  0
    6.6157  -17.5917   18.4929 C   0  0  0  0  0  0  0  0  0  0  0  0
    8.1214  -17.4306   20.4212 C   0  0  0  0  0  0  0  0  0  0  0  0
    8.1146  -15.9185   20.5179 C   0  0  2  0  0  0  0  0  0  0  0  0
    8.8823  -15.3133   19.4496 N   0  0  0  0  0  0  0  0  0  0  0  0
    8.7286  -15.5057   21.8284 C   0  0  0  0  0  0  0  0  0  0  0  0
    9.9791  -15.4687   21.9669 O   0  0  0  0  0  0  0  0  0  0  0  0
    6.3812  -10.9933   25.7629 C   0  0  0  0  0  0  0  0  0  0  0  0
    6.2691  -12.4719   26.8213 S   0  0  0  0  0  0  0  0  0  0  0  0
    7.5870  -13.6676   26.3491 C   0  0  0  0  0  0  0  0  0  0  0  0
    7.3268  -13.9945   24.9161 C   0  0  0  0  0  0  0  0  0  0  0  0
    8.3922  -14.7895   24.2267 C   0  0  2  0  0  0  0  0  0  0  0  0
    7.8899  -15.1604   22.8976 N   0  0  0  0  0  0  0  0  0  0  0  0
    8.7047  -16.0234   24.9451 C   0  0  0  0  0  0  0  0  0  0  0  0
    7.7968  -16.9144   25.0609 O   0  0  0  0  0  0  0  0  0  0  0  0
   12.6113  -17.5449   25.7747 C   0  0  0  0  0  0  0  0  0  0  0  0
   11.3274  -18.3718   25.5885 C   0  0  2  0  0  0  0  0  0  0  0  0
   11.1951  -18.7620   24.1317 C   0  0  0  0  0  0  0  0  0  0  0  0
   10.1527  -17.6309   26.1098 C   0  0  2  0  0  0  0  0  0  0  0  0
    9.9690  -16.3251   25.5422 N   0  0  0  0  0  0  0  0  0  0  0  0
   10.4381  -17.4512   27.6178 C   0  0  0  0  0  0  0  0  0  0  0  0
   10.6905  -16.3738   28.1288 O   0  0  0  0  0  0  0  0  0  0  0  0
   10.3899  -18.6154   28.3542 O   0  0  0  0  0  0  0  0  0  0  0  0
  2  1  1  6
  3  2  1  0
  4  5  1  0
  4  2  1  0
  5  6  1  6
  7  5  1  0
  7  8  2  0
 10  9  1  0
 11 10  1  0
 12 11  1  0
 13 12  1  1
 13 14  1  0
 14  7  1  0
 15 13  1  0
 16 15  2  0
 18 17  1  6
 18 20  1  0
 19 18  1  0
 20 21  1  6
 20 22  1  0
 21 15  1  0
 22 24  1  0
 23 22  2  0
M  END
$$$$
