LMV.pdb
     RDKit          3D

 24 23  0  0  1  0  0  0  0  0999 V2000
    9.0810  -13.0588   20.5191 C   0  0  0  0  0  0  0  0  0  0  0  0
    8.0266  -13.4864   19.5247 C   0  0  2  0  0  0  0  0  0  0  0  0
    7.3870  -12.2267   18.9543 C   0  0  0  0  0  0  0  0  0  0  0  0
    6.9472  -14.3326   20.1306 C   0  0  0  0  0  0  0  0  0  0  0  0
    7.5650  -15.5620   20.7651 C   0  0  2  0  0  0  0  0  0  0  0  0
    6.5653  -16.5658   21.0648 N   0  0  0  0  0  0  0  0  0  0  0  0
    8.2345  -15.1677   22.0540 C   0  0  0  0  0  0  0  0  0  0  0  0
    9.3625  -14.6094   22.0457 O   0  0  0  0  0  0  0  0  0  0  0  0
    7.5174  -11.6820   27.4491 C   0  0  0  0  0  0  0  0  0  0  0  0
    6.0727  -12.4891   26.6870 S   0  0  0  0  0  0  0  0  0  0  0  0
    6.5734  -13.2734   25.0984 C   0  0  0  0  0  0  0  0  0  0  0  0
    7.1178  -14.6115   25.4744 C   0  0  0  0  0  0  0  0  0  0  0  0
    8.1891  -15.1527   24.5790 C   0  0  2  0  0  0  0  0  0  0  0  0
    7.5856  -15.4292   23.2691 N   0  0  0  0  0  0  0  0  0  0  0  0
    8.7447  -16.4055   25.0868 C   0  0  0  0  0  0  0  0  0  0  0  0
    7.9999  -17.4430   25.1125 O   0  0  0  0  0  0  0  0  0  0  0  0
   12.9048  -17.2840   25.4924 C   0  0  0  0  0  0  0  0  0  0  0  0
   11.7887  -18.2983   25.1883 C   0  0  2  0  0  0  0  0  0  0  0  0
   11.6449  -18.4432   23.6882 C   0  0  0  0  0  0  0  0  0  0  0  0
   10.5297  -17.9034   25.8663 C   0  0  2  0  0  0  0  0  0  0  0  0
   10.0814  -16.5726   25.5677 N   0  0  0  0  0  0  0  0  0  0  0  0
   10.8604  -17.9598   27.3747 C   0  0  0  0  0  0  0  0  0  0  0  0
   10.9578  -16.9687   28.0773 O   0  0  0  0  0  0  0  0  0  0  0  0
   11.0442  -19.2309   27.8751 O   0  0  0  0  0  0  0  0  0  0  0  0
  2  1  1  1
  3  2  1  0
  4  5  1  0
  4  2  1  0
  5  6  1  1
  7  5  1  0
  7  8  2  0
 10  9  1  0
 11 10  1  0
 12 11  1  0
 13 12  1  1
 13 14  1  0
 14  7  1  0
 15 13  1  0
 16 15  2  0
 18 17  1  6
 18 20  1  0
 19 18  1  0
 20 21  1  6
 20 22  1  0
 21 15  1  0
 22 24  1  0
 23 22  2  0
M  END
$$$$
