LMV.pdb
     RDKit          3D

 24 23  0  0  1  0  0  0  0  0999 V2000
    6.2790  -20.3869   22.8639 C   0  0  0  0  0  0  0  0  0  0  0  0
    7.7762  -20.5913   22.8412 C   0  0  2  0  0  0  0  0  0  0  0  0
    8.1199  -21.6300   23.9015 C   0  0  0  0  0  0  0  0  0  0  0  0
    8.5507  -19.3414   23.1344 C   0  0  0  0  0  0  0  0  0  0  0  0
    8.1648  -18.2632   22.1422 C   0  0  2  0  0  0  0  0  0  0  0  0
    8.6254  -18.5797   20.8063 N   0  0  0  0  0  0  0  0  0  0  0  0
    8.7946  -16.9616   22.5591 C   0  0  0  0  0  0  0  0  0  0  0  0
    9.9640  -16.6701   22.1961 O   0  0  0  0  0  0  0  0  0  0  0  0
    5.3878  -13.2787   26.7194 C   0  0  0  0  0  0  0  0  0  0  0  0
    6.3150  -12.0291   25.7718 S   0  0  0  0  0  0  0  0  0  0  0  0
    7.8918  -12.7616   25.1665 C   0  0  0  0  0  0  0  0  0  0  0  0
    7.5044  -14.0490   24.5180 C   0  0  0  0  0  0  0  0  0  0  0  0
    8.6243  -14.8306   23.9036 C   0  0  2  0  0  0  0  0  0  0  0  0
    8.0620  -16.0728   23.3586 N   0  0  0  0  0  0  0  0  0  0  0  0
    9.6405  -15.1961   24.8884 C   0  0  0  0  0  0  0  0  0  0  0  0
   10.8670  -14.9554   24.6250 O   0  0  0  0  0  0  0  0  0  0  0  0
    9.1440  -14.9567   28.9057 C   0  0  0  0  0  0  0  0  0  0  0  0
   10.4967  -14.9886   28.1736 C   0  0  2  0  0  0  0  0  0  0  0  0
   10.8488  -13.5878   27.7197 C   0  0  0  0  0  0  0  0  0  0  0  0
   10.4650  -15.9767   27.0674 C   0  0  2  0  0  0  0  0  0  0  0  0
    9.3725  -15.8134   26.1506 N   0  0  0  0  0  0  0  0  0  0  0  0
   10.2913  -17.3441   27.7659 C   0  0  0  0  0  0  0  0  0  0  0  0
    9.2633  -17.9970   27.7153 O   0  0  0  0  0  0  0  0  0  0  0  0
   11.3980  -17.7770   28.4643 O   0  0  0  0  0  0  0  0  0  0  0  0
  2  1  1  1
  3  2  1  0
  4  5  1  0
  4  2  1  0
  5  6  1  6
  7  5  1  0
  7  8  2  0
 10  9  1  0
 11 10  1  0
 12 11  1  0
 13 12  1  1
 13 14  1  0
 14  7  1  0
 15 13  1  0
 16 15  2  0
 18 17  1  6
 18 20  1  0
 19 18  1  0
 20 21  1  6
 20 22  1  0
 21 15  1  0
 22 24  1  0
 23 22  2  0
M  END
$$$$
