LMV.pdb
     RDKit          3D

 24 23  0  0  1  0  0  0  0  0999 V2000
    9.3368  -19.1996   19.0372 C   0  0  0  0  0  0  0  0  0  0  0  0
    8.3710  -18.0425   18.9289 C   0  0  2  0  0  0  0  0  0  0  0  0
    8.3649  -17.5758   17.4786 C   0  0  0  0  0  0  0  0  0  0  0  0
    8.7389  -16.8783   19.7991 C   0  0  0  0  0  0  0  0  0  0  0  0
    8.8204  -17.3320   21.2425 C   0  0  2  0  0  0  0  0  0  0  0  0
    7.5248  -17.7365   21.7473 N   0  0  0  0  0  0  0  0  0  0  0  0
    9.3187  -16.1925   22.0900 C   0  0  0  0  0  0  0  0  0  0  0  0
   10.4393  -15.6667   21.8622 O   0  0  0  0  0  0  0  0  0  0  0  0
    6.0573  -12.8434   26.6619 C   0  0  0  0  0  0  0  0  0  0  0  0
    5.7129  -12.3704   24.9365 S   0  0  0  0  0  0  0  0  0  0  0  0
    6.9151  -13.2038   23.8187 C   0  0  0  0  0  0  0  0  0  0  0  0
    7.7336  -14.0822   24.7055 C   0  0  0  0  0  0  0  0  0  0  0  0
    8.9554  -14.6805   24.0798 C   0  0  2  0  0  0  0  0  0  0  0  0
    8.5180  -15.7203   23.1396 N   0  0  0  0  0  0  0  0  0  0  0  0
    9.8234  -15.3129   25.0712 C   0  0  0  0  0  0  0  0  0  0  0  0
   11.0767  -15.3846   24.8350 O   0  0  0  0  0  0  0  0  0  0  0  0
   10.0302  -13.6105   28.0775 C   0  0  0  0  0  0  0  0  0  0  0  0
   10.0631  -15.0792   28.5346 C   0  0  2  0  0  0  0  0  0  0  0  0
   11.0681  -15.2274   29.6572 C   0  0  0  0  0  0  0  0  0  0  0  0
   10.3288  -15.9754   27.3827 C   0  0  2  0  0  0  0  0  0  0  0  0
    9.3790  -15.8703   26.3113 N   0  0  0  0  0  0  0  0  0  0  0  0
   10.2253  -17.4037   27.9632 C   0  0  0  0  0  0  0  0  0  0  0  0
    9.2850  -18.1486   27.7476 O   0  0  0  0  0  0  0  0  0  0  0  0
   11.2873  -17.7791   28.7578 O   0  0  0  0  0  0  0  0  0  0  0  0
  2  1  1  6
  3  2  1  0
  4  5  1  0
  4  2  1  0
  5  6  1  1
  7  5  1  0
  7  8  2  0
 10  9  1  0
 11 10  1  0
 12 11  1  0
 13 12  1  1
 13 14  1  0
 14  7  1  0
 15 13  1  0
 16 15  2  0
 18 17  1  6
 18 20  1  0
 19 18  1  0
 20 21  1  6
 20 22  1  0
 21 15  1  0
 22 24  1  0
 23 22  2  0
M  END
$$$$
