LMV.pdb
     RDKit          3D

 24 23  0  0  1  0  0  0  0  0999 V2000
    9.4401  -14.4831   17.9717 C   0  0  0  0  0  0  0  0  0  0  0  0
    8.2031  -13.8763   18.5923 C   0  0  2  0  0  0  0  0  0  0  0  0
    7.8911  -12.5871   17.8427 C   0  0  0  0  0  0  0  0  0  0  0  0
    8.3672  -13.5503   20.0466 C   0  0  0  0  0  0  0  0  0  0  0  0
    8.7492  -14.8046   20.8058 C   0  0  2  0  0  0  0  0  0  0  0  0
    7.7140  -15.8136   20.7222 N   0  0  0  0  0  0  0  0  0  0  0  0
    8.9518  -14.4601   22.2567 C   0  0  0  0  0  0  0  0  0  0  0  0
    9.8883  -13.6966   22.6095 O   0  0  0  0  0  0  0  0  0  0  0  0
    6.3584  -11.1631   26.3328 C   0  0  0  0  0  0  0  0  0  0  0  0
    5.2352  -12.5838   26.1348 S   0  0  0  0  0  0  0  0  0  0  0  0
    6.1772  -14.1490   26.3628 C   0  0  0  0  0  0  0  0  0  0  0  0
    6.5095  -14.6130   24.9836 C   0  0  0  0  0  0  0  0  0  0  0  0
    7.9400  -14.4528   24.5705 C   0  0  2  0  0  0  0  0  0  0  0  0
    8.0825  -14.9999   23.2153 N   0  0  0  0  0  0  0  0  0  0  0  0
    8.8478  -15.1908   25.4466 C   0  0  0  0  0  0  0  0  0  0  0  0
    9.3137  -16.3109   25.0464 O   0  0  0  0  0  0  0  0  0  0  0  0
   10.7669  -13.5658   28.8244 C   0  0  0  0  0  0  0  0  0  0  0  0
   10.5442  -15.0881   28.8160 C   0  0  2  0  0  0  0  0  0  0  0  0
   11.7516  -15.7697   29.4241 C   0  0  0  0  0  0  0  0  0  0  0  0
   10.2292  -15.5590   27.4450 C   0  0  2  0  0  0  0  0  0  0  0  0
    9.2688  -14.7557   26.7425 N   0  0  0  0  0  0  0  0  0  0  0  0
    9.6126  -16.9620   27.6426 C   0  0  0  0  0  0  0  0  0  0  0  0
    8.4158  -17.1573   27.7652 O   0  0  0  0  0  0  0  0  0  0  0  0
   10.5279  -17.9922   27.6749 O   0  0  0  0  0  0  0  0  0  0  0  0
  2  1  1  6
  3  2  1  0
  4  5  1  0
  4  2  1  0
  5  6  1  1
  7  5  1  0
  7  8  2  0
 10  9  1  0
 11 10  1  0
 12 11  1  0
 13 12  1  1
 13 14  1  0
 14  7  1  0
 15 13  1  0
 16 15  2  0
 18 17  1  6
 18 20  1  0
 19 18  1  0
 20 21  1  1
 20 22  1  0
 21 15  1  0
 22 24  1  0
 23 22  2  0
M  END
$$$$
