LMV.pdb
     RDKit          3D

 24 23  0  0  1  0  0  0  0  0999 V2000
    5.4377  -20.6322   24.8266 C   0  0  0  0  0  0  0  0  0  0  0  0
    6.8866  -20.9110   24.4997 C   0  0  2  0  0  0  0  0  0  0  0  0
    7.4647  -21.7535   25.6298 C   0  0  0  0  0  0  0  0  0  0  0  0
    7.7146  -19.6684   24.3644 C   0  0  0  0  0  0  0  0  0  0  0  0
    7.0412  -18.7149   23.3983 C   0  0  2  0  0  0  0  0  0  0  0  0
    7.0504  -19.2327   22.0460 N   0  0  0  0  0  0  0  0  0  0  0  0
    7.7807  -17.4042   23.4034 C   0  0  0  0  0  0  0  0  0  0  0  0
    8.8347  -17.2604   22.7306 O   0  0  0  0  0  0  0  0  0  0  0  0
    6.5547  -11.2183   25.4438 C   0  0  0  0  0  0  0  0  0  0  0  0
    5.8555  -12.4691   26.5689 S   0  0  0  0  0  0  0  0  0  0  0  0
    6.5027  -14.1325   26.1177 C   0  0  0  0  0  0  0  0  0  0  0  0
    6.8753  -14.0320   24.6758 C   0  0  0  0  0  0  0  0  0  0  0  0
    7.9039  -15.0110   24.2002 C   0  0  2  0  0  0  0  0  0  0  0  0
    7.2809  -16.3403   24.1678 N   0  0  0  0  0  0  0  0  0  0  0  0
    9.0520  -15.0789   25.1020 C   0  0  0  0  0  0  0  0  0  0  0  0
   10.0957  -14.3979   24.8214 O   0  0  0  0  0  0  0  0  0  0  0  0
    9.8813  -13.4150   27.8319 C   0  0  0  0  0  0  0  0  0  0  0  0
   10.1447  -14.8601   28.2893 C   0  0  2  0  0  0  0  0  0  0  0  0
   11.3485  -14.8786   29.2073 C   0  0  0  0  0  0  0  0  0  0  0  0
   10.2829  -15.7586   27.1170 C   0  0  2  0  0  0  0  0  0  0  0  0
    9.1075  -15.8599   26.2991 N   0  0  0  0  0  0  0  0  0  0  0  0
   10.5562  -17.1544   27.7209 C   0  0  0  0  0  0  0  0  0  0  0  0
    9.7662  -18.0802   27.6544 O   0  0  0  0  0  0  0  0  0  0  0  0
   11.7747  -17.2780   28.3534 O   0  0  0  0  0  0  0  0  0  0  0  0
  2  1  1  1
  3  2  1  0
  4  5  1  0
  4  2  1  0
  5  6  1  6
  7  5  1  0
  7  8  2  0
 10  9  1  0
 11 10  1  0
 12 11  1  0
 13 12  1  1
 13 14  1  0
 14  7  1  0
 15 13  1  0
 16 15  2  0
 18 17  1  6
 18 20  1  0
 19 18  1  0
 20 21  1  1
 20 22  1  0
 21 15  1  0
 22 24  1  0
 23 22  2  0
M  END
$$$$
