LMV.pdb
     RDKit          3D

 24 23  0  0  1  0  0  0  0  0999 V2000
    8.4905  -14.0739   17.8462 C   0  0  0  0  0  0  0  0  0  0  0  0
    7.4057  -13.5007   18.7284 C   0  0  2  0  0  0  0  0  0  0  0  0
    7.1283  -12.0778   18.2598 C   0  0  0  0  0  0  0  0  0  0  0  0
    7.7816  -13.4564   20.1792 C   0  0  0  0  0  0  0  0  0  0  0  0
    8.1353  -14.8517   20.6525 C   0  0  2  0  0  0  0  0  0  0  0  0
    6.9898  -15.7363   20.6047 N   0  0  0  0  0  0  0  0  0  0  0  0
    8.6145  -14.7821   22.0774 C   0  0  0  0  0  0  0  0  0  0  0  0
    9.8134  -14.5003   22.3374 O   0  0  0  0  0  0  0  0  0  0  0  0
    6.5444  -11.5358   27.0192 C   0  0  0  0  0  0  0  0  0  0  0  0
    7.7349  -12.9099   27.1370 S   0  0  0  0  0  0  0  0  0  0  0  0
    6.8820  -14.4968   26.7581 C   0  0  0  0  0  0  0  0  0  0  0  0
    6.7748  -14.5404   25.2699 C   0  0  0  0  0  0  0  0  0  0  0  0
    8.0411  -14.8569   24.5357 C   0  0  2  0  0  0  0  0  0  0  0  0
    7.7078  -15.0345   23.1167 N   0  0  0  0  0  0  0  0  0  0  0  0
    8.6516  -16.0978   25.0087 C   0  0  0  0  0  0  0  0  0  0  0  0
    7.9887  -17.1854   24.9117 O   0  0  0  0  0  0  0  0  0  0  0  0
   12.1308  -17.4032   23.9972 C   0  0  0  0  0  0  0  0  0  0  0  0
   11.9066  -17.6937   25.4913 C   0  0  2  0  0  0  0  0  0  0  0  0
   12.4364  -19.0748   25.8135 C   0  0  0  0  0  0  0  0  0  0  0  0
   10.4777  -17.5123   25.8465 C   0  0  2  0  0  0  0  0  0  0  0  0
    9.9576  -16.2004   25.5830 N   0  0  0  0  0  0  0  0  0  0  0  0
   10.4194  -17.7422   27.3734 C   0  0  0  0  0  0  0  0  0  0  0  0
   10.2319  -16.8475   28.1796 O   0  0  0  0  0  0  0  0  0  0  0  0
   10.6017  -19.0514   27.7644 O   0  0  0  0  0  0  0  0  0  0  0  0
  2  1  1  6
  3  2  1  0
  4  5  1  0
  4  2  1  0
  5  6  1  1
  7  5  1  0
  7  8  2  0
 10  9  1  0
 11 10  1  0
 12 11  1  0
 13 12  1  1
 13 14  1  0
 14  7  1  0
 15 13  1  0
 16 15  2  0
 18 17  1  6
 18 20  1  0
 19 18  1  0
 20 21  1  1
 20 22  1  0
 21 15  1  0
 22 24  1  0
 23 22  2  0
M  END
$$$$
