LMV.pdb
     RDKit          3D

 24 23  0  0  1  0  0  0  0  0999 V2000
    7.7882  -12.7918   18.1861 C   0  0  0  0  0  0  0  0  0  0  0  0
    7.6091  -13.8905   19.2081 C   0  0  2  0  0  0  0  0  0  0  0  0
    6.8114  -13.3170   20.3726 C   0  0  0  0  0  0  0  0  0  0  0  0
    8.9055  -14.4242   19.7396 C   0  0  0  0  0  0  0  0  0  0  0  0
    8.6318  -15.6102   20.6420 C   0  0  2  0  0  0  0  0  0  0  0  0
    7.2197  -15.9271   20.6911 N   0  0  0  0  0  0  0  0  0  0  0  0
    9.0875  -15.2827   22.0383 C   0  0  0  0  0  0  0  0  0  0  0  0
   10.2913  -14.9966   22.2692 O   0  0  0  0  0  0  0  0  0  0  0  0
    6.8774  -10.9844   26.1809 C   0  0  0  0  0  0  0  0  0  0  0  0
    6.2941  -12.5748   26.8513 S   0  0  0  0  0  0  0  0  0  0  0  0
    7.5555  -13.8769   26.5311 C   0  0  0  0  0  0  0  0  0  0  0  0
    7.3772  -14.2537   25.0978 C   0  0  0  0  0  0  0  0  0  0  0  0
    8.5058  -15.0215   24.4819 C   0  0  2  0  0  0  0  0  0  0  0  0
    8.1532  -15.2988   23.0837 N   0  0  0  0  0  0  0  0  0  0  0  0
    8.7231  -16.3036   25.1492 C   0  0  0  0  0  0  0  0  0  0  0  0
    7.8202  -17.2030   25.0623 O   0  0  0  0  0  0  0  0  0  0  0  0
   12.4792  -18.0050   25.9592 C   0  0  0  0  0  0  0  0  0  0  0  0
   11.1500  -18.7445   25.7285 C   0  0  2  0  0  0  0  0  0  0  0  0
   10.9639  -18.9798   24.2445 C   0  0  0  0  0  0  0  0  0  0  0  0
   10.0278  -18.0021   26.3533 C   0  0  2  0  0  0  0  0  0  0  0  0
    9.8868  -16.6447   25.9077 N   0  0  0  0  0  0  0  0  0  0  0  0
   10.3687  -17.9684   27.8601 C   0  0  0  0  0  0  0  0  0  0  0  0
   10.6891  -16.9526   28.4526 O   0  0  0  0  0  0  0  0  0  0  0  0
   10.2871  -19.1893   28.4949 O   0  0  0  0  0  0  0  0  0  0  0  0
  2  1  1  6
  3  2  1  0
  4  5  1  0
  4  2  1  0
  5  6  1  1
  7  5  1  0
  7  8  2  0
 10  9  1  0
 11 10  1  0
 12 11  1  0
 13 12  1  1
 13 14  1  0
 14  7  1  0
 15 13  1  0
 16 15  2  0
 18 17  1  6
 18 20  1  0
 19 18  1  0
 20 21  1  6
 20 22  1  0
 21 15  1  0
 22 24  1  0
 23 22  2  0
M  END
$$$$
