LMV.pdb
     RDKit          3D

 24 23  0  0  1  0  0  0  0  0999 V2000
    8.6242  -14.9804   17.7878 C   0  0  0  0  0  0  0  0  0  0  0  0
    7.8340  -14.1491   18.7719 C   0  0  2  0  0  0  0  0  0  0  0  0
    7.5334  -12.8088   18.1127 C   0  0  0  0  0  0  0  0  0  0  0  0
    8.5663  -13.8919   20.0547 C   0  0  0  0  0  0  0  0  0  0  0  0
    8.7103  -15.1896   20.8235 C   0  0  2  0  0  0  0  0  0  0  0  0
    7.5233  -16.0110   20.7084 N   0  0  0  0  0  0  0  0  0  0  0  0
    8.9255  -14.8784   22.2801 C   0  0  0  0  0  0  0  0  0  0  0  0
    9.8893  -14.1561   22.6455 O   0  0  0  0  0  0  0  0  0  0  0  0
    5.9929  -11.7438   27.5593 C   0  0  0  0  0  0  0  0  0  0  0  0
    5.7685  -12.6780   26.0114 S   0  0  0  0  0  0  0  0  0  0  0  0
    6.0816  -14.4656   26.3210 C   0  0  0  0  0  0  0  0  0  0  0  0
    6.4533  -15.0359   24.9926 C   0  0  0  0  0  0  0  0  0  0  0  0
    7.8795  -14.8439   24.5784 C   0  0  2  0  0  0  0  0  0  0  0  0
    8.0370  -15.4027   23.2296 N   0  0  0  0  0  0  0  0  0  0  0  0
    8.8052  -15.5483   25.4633 C   0  0  0  0  0  0  0  0  0  0  0  0
    9.1551  -16.7400   25.1646 O   0  0  0  0  0  0  0  0  0  0  0  0
    9.9116  -14.8273   29.6129 C   0  0  0  0  0  0  0  0  0  0  0  0
   10.9643  -15.1015   28.5250 C   0  0  2  0  0  0  0  0  0  0  0  0
   11.6526  -13.8028   28.1617 C   0  0  0  0  0  0  0  0  0  0  0  0
   10.3446  -15.7856   27.3637 C   0  0  2  0  0  0  0  0  0  0  0  0
    9.3658  -15.0045   26.6616 N   0  0  0  0  0  0  0  0  0  0  0  0
    9.6219  -17.0104   27.9681 C   0  0  0  0  0  0  0  0  0  0  0  0
   10.2043  -18.0075   28.3583 O   0  0  0  0  0  0  0  0  0  0  0  0
    8.2499  -16.8942   28.0314 O   0  0  0  0  0  0  0  0  0  0  0  0
  2  1  1  6
  3  2  1  0
  4  5  1  0
  4  2  1  0
  5  6  1  1
  7  5  1  0
  7  8  2  0
 10  9  1  0
 11 10  1  0
 12 11  1  0
 13 12  1  1
 13 14  1  0
 14  7  1  0
 15 13  1  0
 16 15  2  0
 18 17  1  1
 18 20  1  0
 19 18  1  0
 20 21  1  1
 20 22  1  0
 21 15  1  0
 22 24  1  0
 23 22  2  0
M  END
$$$$
