LMV.pdb
     RDKit          3D

 24 23  0  0  1  0  0  0  0  0999 V2000
    8.0039  -14.3733   17.6972 C   0  0  0  0  0  0  0  0  0  0  0  0
    7.4784  -13.6225   18.8988 C   0  0  2  0  0  0  0  0  0  0  0  0
    7.2155  -12.1843   18.4701 C   0  0  0  0  0  0  0  0  0  0  0  0
    8.4350  -13.6050   20.0532 C   0  0  0  0  0  0  0  0  0  0  0  0
    8.5256  -14.9922   20.6557 C   0  0  2  0  0  0  0  0  0  0  0  0
    7.2175  -15.5964   20.7999 N   0  0  0  0  0  0  0  0  0  0  0  0
    9.1509  -14.8967   22.0212 C   0  0  0  0  0  0  0  0  0  0  0  0
   10.3555  -14.5561   22.1521 O   0  0  0  0  0  0  0  0  0  0  0  0
    5.5139  -12.5115   27.5168 C   0  0  0  0  0  0  0  0  0  0  0  0
    7.2795  -12.3543   27.0959 S   0  0  0  0  0  0  0  0  0  0  0  0
    7.9709  -14.0172   26.7134 C   0  0  0  0  0  0  0  0  0  0  0  0
    7.7586  -14.2041   25.2478 C   0  0  0  0  0  0  0  0  0  0  0  0
    8.8332  -14.9569   24.5258 C   0  0  2  0  0  0  0  0  0  0  0  0
    8.3742  -15.1913   23.1508 N   0  0  0  0  0  0  0  0  0  0  0  0
    9.0932  -16.2590   25.1367 C   0  0  0  0  0  0  0  0  0  0  0  0
    8.1844  -17.1552   25.0850 O   0  0  0  0  0  0  0  0  0  0  0  0
   11.9516  -18.4444   24.1697 C   0  0  0  0  0  0  0  0  0  0  0  0
   11.8009  -18.5705   25.6956 C   0  0  2  0  0  0  0  0  0  0  0  0
   11.9952  -20.0176   26.0958 C   0  0  0  0  0  0  0  0  0  0  0  0
   10.5023  -18.0055   26.1374 C   0  0  2  0  0  0  0  0  0  0  0  0
   10.3060  -16.6236   25.8017 N   0  0  0  0  0  0  0  0  0  0  0  0
   10.5293  -18.1149   27.6785 C   0  0  0  0  0  0  0  0  0  0  0  0
   10.6491  -17.1527   28.4171 O   0  0  0  0  0  0  0  0  0  0  0  0
   10.4104  -19.3990   28.1653 O   0  0  0  0  0  0  0  0  0  0  0  0
  2  1  1  6
  3  2  1  0
  4  5  1  0
  4  2  1  0
  5  6  1  1
  7  5  1  0
  7  8  2  0
 10  9  1  0
 11 10  1  0
 12 11  1  0
 13 12  1  1
 13 14  1  0
 14  7  1  0
 15 13  1  0
 16 15  2  0
 18 17  1  6
 18 20  1  0
 19 18  1  0
 20 21  1  1
 20 22  1  0
 21 15  1  0
 22 24  1  0
 23 22  2  0
M  END
$$$$
