LMV.pdb
     RDKit          3D

 24 23  0  0  1  0  0  0  0  0999 V2000
    7.7651  -13.0229   19.7365 C   0  0  0  0  0  0  0  0  0  0  0  0
    8.1125  -14.4087   20.2291 C   0  0  2  0  0  0  0  0  0  0  0  0
    9.5092  -14.7459   19.7223 C   0  0  0  0  0  0  0  0  0  0  0  0
    7.1655  -15.4657   19.7453 C   0  0  0  0  0  0  0  0  0  0  0  0
    7.3962  -16.7454   20.5230 C   0  0  2  0  0  0  0  0  0  0  0  0
    6.7458  -17.8756   19.8933 N   0  0  0  0  0  0  0  0  0  0  0  0
    6.8282  -16.5897   21.9080 C   0  0  0  0  0  0  0  0  0  0  0  0
    5.5878  -16.4654   22.0818 O   0  0  0  0  0  0  0  0  0  0  0  0
    7.3902  -20.8389   26.6448 C   0  0  0  0  0  0  0  0  0  0  0  0
    8.3521  -19.3698   27.1303 S   0  0  0  0  0  0  0  0  0  0  0  0
    7.4850  -17.8501   26.5576 C   0  0  0  0  0  0  0  0  0  0  0  0
    7.7655  -17.7648   25.0940 C   0  0  0  0  0  0  0  0  0  0  0  0
    7.2350  -16.5485   24.4000 C   0  0  2  0  0  0  0  0  0  0  0  0
    7.6986  -16.5852   23.0072 N   0  0  0  0  0  0  0  0  0  0  0  0
    7.7336  -15.3140   25.0031 C   0  0  0  0  0  0  0  0  0  0  0  0
    8.9109  -14.9166   24.7069 O   0  0  0  0  0  0  0  0  0  0  0  0
    5.5502  -11.9562   26.2783 C   0  0  0  0  0  0  0  0  0  0  0  0
    6.7303  -12.3941   27.1629 C   0  0  2  0  0  0  0  0  0  0  0  0
    7.4304  -11.1643   27.7011 C   0  0  0  0  0  0  0  0  0  0  0  0
    7.6304  -13.3049   26.4139 C   0  0  2  0  0  0  0  0  0  0  0  0
    6.9988  -14.4943   25.9165 N   0  0  0  0  0  0  0  0  0  0  0  0
    8.6990  -13.7365   27.4433 C   0  0  0  0  0  0  0  0  0  0  0  0
    8.7395  -14.8479   27.9419 O   0  0  0  0  0  0  0  0  0  0  0  0
    9.6148  -12.7577   27.7650 O   0  0  0  0  0  0  0  0  0  0  0  0
  2  1  1  6
  3  2  1  0
  4  5  1  0
  4  2  1  0
  5  6  1  6
  7  5  1  0
  7  8  2  0
 10  9  1  0
 11 10  1  0
 12 11  1  0
 13 12  1  1
 13 14  1  0
 14  7  1  0
 15 13  1  0
 16 15  2  0
 18 17  1  6
 18 20  1  0
 19 18  1  0
 20 21  1  1
 20 22  1  0
 21 15  1  0
 22 24  1  0
 23 22  2  0
M  END
$$$$
