MQA.pdb
     RDKit          3D

 23 22  0  0  1  0  0  0  0  0999 V2000
    7.6183  -11.7972   19.9414 C   0  0  0  0  0  0  0  0  0  0  0  0
    7.2791  -13.3675   20.7652 S   0  0  0  0  0  0  0  0  0  0  0  0
    8.1192  -14.7051   19.8550 C   0  0  0  0  0  0  0  0  0  0  0  0
    8.5823  -14.1629   18.5198 C   0  0  0  0  0  0  0  0  0  0  0  0
    9.2190  -15.2673   17.7109 C   0  0  2  0  0  0  0  0  0  0  0  0
    8.2930  -16.3392   17.4364 N   0  0  0  0  0  0  0  0  0  0  0  0
   10.4041  -15.8434   18.3895 C   0  0  0  0  0  0  0  0  0  0  0  0
   10.5697  -17.0856   18.4514 O   0  0  0  0  0  0  0  0  0  0  0  0
   15.3567  -14.9566   16.7361 N   0  0  0  0  0  0  0  0  0  0  0  0
   15.8281  -14.3598   17.9436 C   0  0  0  0  0  0  0  0  0  0  0  0
   16.8508  -13.6308   17.8654 O   0  0  0  0  0  0  0  0  0  0  0  0
   15.1072  -14.6180   19.2179 C   0  0  0  0  0  0  0  0  0  0  0  0
   13.6664  -14.2586   18.9977 C   0  0  0  0  0  0  0  0  0  0  0  0
   12.7552  -15.4702   19.2385 C   0  0  2  0  0  0  0  0  0  0  0  0
   11.3962  -15.0276   18.9944 N   0  0  0  0  0  0  0  0  0  0  0  0
   12.9228  -15.9721   20.6264 C   0  0  0  0  0  0  0  0  0  0  0  0
   14.0266  -16.4721   20.9728 O   0  0  0  0  0  0  0  0  0  0  0  0
   11.7349  -17.8252   22.9773 C   0  0  0  0  0  0  0  0  0  0  0  0
   12.0005  -16.3331   22.8780 C   0  0  2  0  0  0  0  0  0  0  0  0
   11.8230  -15.8691   21.5196 N   0  0  0  0  0  0  0  0  0  0  0  0
   13.3658  -16.0238   23.3831 C   0  0  0  0  0  0  0  0  0  0  0  0
   14.2333  -15.4842   22.6543 O   0  0  0  0  0  0  0  0  0  0  0  0
   13.6942  -16.3344   24.6823 O   0  0  0  0  0  0  0  0  0  0  0  0
  1  2  1  0
  3  2  1  0
  4  3  1  0
  5  4  1  0
  5  7  1  0
  5  6  1  1
  7  8  2  0
  9 10  1  0
 10 11  2  0
 10 12  1  0
 12 13  1  0
 14 13  1  1
 15  7  1  0
 15 14  1  0
 16 14  1  0
 16 20  1  0
 17 16  2  0
 19 20  1  0
 19 18  1  6
 21 19  1  0
 21 23  1  0
 22 21  2  0
M  END
$$$$
