MQA.pdb
     RDKit          3D

 23 22  0  0  1  0  0  0  0  0999 V2000
    8.1614  -11.7905   20.0843 C   0  0  0  0  0  0  0  0  0  0  0  0
    8.4788  -12.8098   18.6282 S   0  0  0  0  0  0  0  0  0  0  0  0
    8.3299  -14.5661   19.0933 C   0  0  0  0  0  0  0  0  0  0  0  0
    7.6185  -14.6533   20.4265 C   0  0  0  0  0  0  0  0  0  0  0  0
    7.4792  -16.0988   20.8398 C   0  0  2  0  0  0  0  0  0  0  0  0
    6.6396  -16.8421   19.9318 N   0  0  0  0  0  0  0  0  0  0  0  0
    6.9187  -16.2369   22.2049 C   0  0  0  0  0  0  0  0  0  0  0  0
    5.6858  -16.1236   22.4089 O   0  0  0  0  0  0  0  0  0  0  0  0
    6.4163  -19.8350   26.4941 N   0  0  0  0  0  0  0  0  0  0  0  0
    7.7694  -19.6898   26.0647 C   0  0  0  0  0  0  0  0  0  0  0  0
    8.5450  -20.6606   26.2641 O   0  0  0  0  0  0  0  0  0  0  0  0
    8.1991  -18.4245   25.4131 C   0  0  0  0  0  0  0  0  0  0  0  0
    7.0078  -17.5116   25.3792 C   0  0  0  0  0  0  0  0  0  0  0  0
    7.3539  -16.1824   24.6939 C   0  0  2  0  0  0  0  0  0  0  0  0
    7.7395  -16.5006   23.3329 N   0  0  0  0  0  0  0  0  0  0  0  0
    8.4511  -15.4975   25.4241 C   0  0  0  0  0  0  0  0  0  0  0  0
    9.6450  -15.8352   25.2023 O   0  0  0  0  0  0  0  0  0  0  0  0
    8.8026  -12.4822   27.5768 C   0  0  0  0  0  0  0  0  0  0  0  0
    9.1729  -13.8886   27.1391 C   0  0  2  0  0  0  0  0  0  0  0  0
    8.1113  -14.4784   26.3536 N   0  0  0  0  0  0  0  0  0  0  0  0
    9.4966  -14.7236   28.3278 C   0  0  0  0  0  0  0  0  0  0  0  0
    8.8026  -15.7204   28.6438 O   0  0  0  0  0  0  0  0  0  0  0  0
   10.5838  -14.4014   29.1066 O   0  0  0  0  0  0  0  0  0  0  0  0
  1  2  1  0
  3  2  1  0
  4  3  1  0
  5  4  1  0
  5  7  1  0
  5  6  1  6
  7  8  2  0
  9 10  1  0
 10 11  2  0
 10 12  1  0
 12 13  1  0
 14 13  1  1
 15  7  1  0
 15 14  1  0
 16 14  1  0
 16 20  1  0
 17 16  2  0
 19 20  1  0
 19 18  1  1
 21 19  1  0
 21 23  1  0
 22 21  2  0
M  END
$$$$
