MQA.pdb
     RDKit          3D

 23 22  0  0  1  0  0  0  0  0999 V2000
    8.0549  -12.1705   19.3695 C   0  0  0  0  0  0  0  0  0  0  0  0
    8.6110  -12.8763   20.9356 S   0  0  0  0  0  0  0  0  0  0  0  0
    7.2068  -13.7217   21.7337 C   0  0  0  0  0  0  0  0  0  0  0  0
    6.8574  -14.9493   20.9200 C   0  0  0  0  0  0  0  0  0  0  0  0
    7.8962  -16.0226   21.1396 C   0  0  2  0  0  0  0  0  0  0  0  0
    7.5938  -17.2264   20.4039 N   0  0  0  0  0  0  0  0  0  0  0  0
    8.0354  -16.3793   22.5715 C   0  0  0  0  0  0  0  0  0  0  0  0
    7.0248  -16.5047   23.3046 O   0  0  0  0  0  0  0  0  0  0  0  0
   12.2474  -20.0812   24.7395 N   0  0  0  0  0  0  0  0  0  0  0  0
   12.7649  -18.8197   24.3186 C   0  0  0  0  0  0  0  0  0  0  0  0
   13.9972  -18.7555   24.0714 O   0  0  0  0  0  0  0  0  0  0  0  0
   11.8470  -17.6571   24.1918 C   0  0  0  0  0  0  0  0  0  0  0  0
   10.4786  -18.1209   24.5990 C   0  0  0  0  0  0  0  0  0  0  0  0
    9.4735  -16.9611   24.5667 C   0  0  2  0  0  0  0  0  0  0  0  0
    9.3027  -16.5934   23.1745 N   0  0  0  0  0  0  0  0  0  0  0  0
    9.9785  -15.8202   25.3725 C   0  0  0  0  0  0  0  0  0  0  0  0
   10.9477  -15.1403   24.9403 O   0  0  0  0  0  0  0  0  0  0  0  0
    8.9411  -13.3516   27.6258 C   0  0  0  0  0  0  0  0  0  0  0  0
    9.9154  -14.5033   27.4492 C   0  0  2  0  0  0  0  0  0  0  0  0
    9.3448  -15.5351   26.6115 N   0  0  0  0  0  0  0  0  0  0  0  0
   10.3139  -15.0419   28.7781 C   0  0  0  0  0  0  0  0  0  0  0  0
   10.1137  -16.2403   29.0923 O   0  0  0  0  0  0  0  0  0  0  0  0
   10.9184  -14.2108   29.6926 O   0  0  0  0  0  0  0  0  0  0  0  0
  1  2  1  0
  3  2  1  0
  4  3  1  0
  5  4  1  0
  5  7  1  0
  5  6  1  6
  7  8  2  0
  9 10  1  0
 10 11  2  0
 10 12  1  0
 12 13  1  0
 14 13  1  6
 15  7  1  0
 15 14  1  0
 16 14  1  0
 16 20  1  0
 17 16  2  0
 19 20  1  0
 19 18  1  1
 21 19  1  0
 21 23  1  0
 22 21  2  0
M  END
$$$$
