MQA.pdb
     RDKit          3D

 23 22  0  0  1  0  0  0  0  0999 V2000
    7.1135  -10.8383   26.2774 C   0  0  0  0  0  0  0  0  0  0  0  0
    6.3529  -11.8535   27.5622 S   0  0  0  0  0  0  0  0  0  0  0  0
    6.7446  -13.6045   27.2400 C   0  0  0  0  0  0  0  0  0  0  0  0
    6.7462  -13.8308   25.7433 C   0  0  0  0  0  0  0  0  0  0  0  0
    7.1616  -15.2502   25.4398 C   0  0  2  0  0  0  0  0  0  0  0  0
    8.4917  -15.5384   25.9188 N   0  0  0  0  0  0  0  0  0  0  0  0
    7.1196  -15.5452   23.9879 C   0  0  0  0  0  0  0  0  0  0  0  0
    6.2000  -16.2456   23.4999 O   0  0  0  0  0  0  0  0  0  0  0  0
    8.4281  -11.7330   19.5921 N   0  0  0  0  0  0  0  0  0  0  0  0
    8.1289  -13.1282   19.5714 C   0  0  0  0  0  0  0  0  0  0  0  0
    8.0187  -13.6776   18.4447 O   0  0  0  0  0  0  0  0  0  0  0  0
    7.9629  -13.8605   20.8545 C   0  0  0  0  0  0  0  0  0  0  0  0
    8.9216  -15.0156   20.8379 C   0  0  0  0  0  0  0  0  0  0  0  0
    8.7606  -15.8811   22.0953 C   0  0  2  0  0  0  0  0  0  0  0  0
    8.1053  -15.0556   23.0911 N   0  0  0  0  0  0  0  0  0  0  0  0
   10.0871  -16.3535   22.5679 C   0  0  0  0  0  0  0  0  0  0  0  0
   11.1035  -16.1601   21.8482 O   0  0  0  0  0  0  0  0  0  0  0  0
   12.1934  -17.0210   25.1777 C   0  0  0  0  0  0  0  0  0  0  0  0
   11.3637  -17.7529   24.1372 C   0  0  2  0  0  0  0  0  0  0  0  0
   10.1617  -17.0117   23.8245 N   0  0  0  0  0  0  0  0  0  0  0  0
   11.0458  -19.1266   24.6133 C   0  0  0  0  0  0  0  0  0  0  0  0
    9.8622  -19.5210   24.7502 O   0  0  0  0  0  0  0  0  0  0  0  0
   12.0705  -19.9939   24.9135 O   0  0  0  0  0  0  0  0  0  0  0  0
  1  2  1  0
  3  2  1  0
  4  3  1  0
  5  4  1  0
  5  7  1  0
  5  6  1  6
  7  8  2  0
  9 10  1  0
 10 11  2  0
 10 12  1  0
 12 13  1  0
 14 13  1  6
 15  7  1  0
 15 14  1  0
 16 14  1  0
 16 20  1  0
 17 16  2  0
 19 20  1  0
 19 18  1  1
 21 19  1  0
 21 23  1  0
 22 21  2  0
M  END
$$$$
