MQA.pdb
     RDKit          3D

 23 22  0  0  1  0  0  0  0  0999 V2000
    7.4293  -13.1744   26.6344 C   0  0  0  0  0  0  0  0  0  0  0  0
    6.6055  -12.1441   25.4015 S   0  0  0  0  0  0  0  0  0  0  0  0
    7.3392  -12.4795   23.7667 C   0  0  0  0  0  0  0  0  0  0  0  0
    7.0506  -13.9180   23.3945 C   0  0  0  0  0  0  0  0  0  0  0  0
    7.7872  -14.2773   22.1265 C   0  0  2  0  0  0  0  0  0  0  0  0
    6.8863  -14.4911   21.0200 N   0  0  0  0  0  0  0  0  0  0  0  0
    8.6161  -15.4952   22.2892 C   0  0  0  0  0  0  0  0  0  0  0  0
    8.7516  -16.3120   21.3463 O   0  0  0  0  0  0  0  0  0  0  0  0
   13.5241  -15.5374   21.2366 N   0  0  0  0  0  0  0  0  0  0  0  0
   13.7595  -16.7123   22.0116 C   0  0  0  0  0  0  0  0  0  0  0  0
   14.8939  -17.2486   21.9156 O   0  0  0  0  0  0  0  0  0  0  0  0
   12.6782  -17.2439   22.8824 C   0  0  0  0  0  0  0  0  0  0  0  0
   11.5219  -16.2908   22.7926 C   0  0  0  0  0  0  0  0  0  0  0  0
   10.3293  -16.7949   23.6170 C   0  0  2  0  0  0  0  0  0  0  0  0
    9.2880  -15.7922   23.5040 N   0  0  0  0  0  0  0  0  0  0  0  0
   10.7329  -17.0030   25.0312 C   0  0  0  0  0  0  0  0  0  0  0  0
   11.1627  -16.0254   25.7007 O   0  0  0  0  0  0  0  0  0  0  0  0
    9.5415  -19.3613   27.5023 C   0  0  0  0  0  0  0  0  0  0  0  0
   10.6549  -18.4473   27.0208 C   0  0  2  0  0  0  0  0  0  0  0  0
   10.6185  -18.3075   25.5817 N   0  0  0  0  0  0  0  0  0  0  0  0
   11.9726  -18.9624   27.4828 C   0  0  0  0  0  0  0  0  0  0  0  0
   12.8703  -19.3006   26.6736 O   0  0  0  0  0  0  0  0  0  0  0  0
   12.2217  -19.0739   28.8311 O   0  0  0  0  0  0  0  0  0  0  0  0
  1  2  1  0
  3  2  1  0
  4  3  1  0
  5  4  1  0
  5  7  1  0
  5  6  1  6
  7  8  2  0
  9 10  1  0
 10 11  2  0
 10 12  1  0
 12 13  1  0
 14 13  1  6
 15  7  1  0
 15 14  1  0
 16 14  1  0
 16 20  1  0
 17 16  2  0
 19 20  1  0
 19 18  1  6
 21 19  1  0
 21 23  1  0
 22 21  2  0
M  END
$$$$
