MQA.pdb
     RDKit          3D

 23 22  0  0  1  0  0  0  0  0999 V2000
    5.8908  -11.6187   26.4962 C   0  0  0  0  0  0  0  0  0  0  0  0
    6.8429  -11.2088   25.0178 S   0  0  0  0  0  0  0  0  0  0  0  0
    6.5361  -12.4795   23.7471 C   0  0  0  0  0  0  0  0  0  0  0  0
    7.0383  -13.8103   24.2648 C   0  0  0  0  0  0  0  0  0  0  0  0
    7.7960  -14.5310   23.1758 C   0  0  2  0  0  0  0  0  0  0  0  0
    6.9276  -14.9619   22.1072 N   0  0  0  0  0  0  0  0  0  0  0  0
    8.5183  -15.7183   23.6911 C   0  0  0  0  0  0  0  0  0  0  0  0
    7.8946  -16.6774   24.2066 O   0  0  0  0  0  0  0  0  0  0  0  0
   14.0346  -17.9650   22.3080 N   0  0  0  0  0  0  0  0  0  0  0  0
   12.7663  -18.2339   21.7117 C   0  0  0  0  0  0  0  0  0  0  0  0
   12.7656  -18.8128   20.5943 O   0  0  0  0  0  0  0  0  0  0  0  0
   11.5236  -17.8280   22.4196 C   0  0  0  0  0  0  0  0  0  0  0  0
   11.9357  -17.1406   23.6889 C   0  0  0  0  0  0  0  0  0  0  0  0
   10.7082  -16.6916   24.4938 C   0  0  2  0  0  0  0  0  0  0  0  0
    9.9324  -15.8260   23.6270 N   0  0  0  0  0  0  0  0  0  0  0  0
   11.1335  -15.9848   25.7290 C   0  0  0  0  0  0  0  0  0  0  0  0
   12.1550  -15.2473   25.6974 O   0  0  0  0  0  0  0  0  0  0  0  0
   10.1122  -14.5631   28.7324 C   0  0  0  0  0  0  0  0  0  0  0  0
   10.9250  -15.7138   28.1649 C   0  0  2  0  0  0  0  0  0  0  0  0
   10.3663  -16.1678   26.9105 N   0  0  0  0  0  0  0  0  0  0  0  0
   11.0024  -16.8207   29.1567 C   0  0  0  0  0  0  0  0  0  0  0  0
   10.5289  -17.9578   28.9160 O   0  0  0  0  0  0  0  0  0  0  0  0
   11.6076  -16.6004   30.3723 O   0  0  0  0  0  0  0  0  0  0  0  0
  1  2  1  0
  3  2  1  0
  4  3  1  0
  5  4  1  0
  5  7  1  0
  5  6  1  6
  7  8  2  0
  9 10  1  0
 10 11  2  0
 10 12  1  0
 12 13  1  0
 14 13  1  6
 15  7  1  0
 15 14  1  0
 16 14  1  0
 16 20  1  0
 17 16  2  0
 19 20  1  0
 19 18  1  1
 21 19  1  0
 21 23  1  0
 22 21  2  0
M  END
$$$$
