MQA.pdb
     RDKit          3D

 23 22  0  0  1  0  0  0  0  0999 V2000
    8.6757  -12.3500   20.7644 C   0  0  0  0  0  0  0  0  0  0  0  0
    7.6821  -13.1598   19.4928 S   0  0  0  0  0  0  0  0  0  0  0  0
    7.4507  -14.9094   19.9498 C   0  0  0  0  0  0  0  0  0  0  0  0
    7.1570  -14.9857   21.4327 C   0  0  0  0  0  0  0  0  0  0  0  0
    6.8871  -16.4174   21.8289 C   0  0  2  0  0  0  0  0  0  0  0  0
    5.7576  -16.9703   21.1217 N   0  0  0  0  0  0  0  0  0  0  0  0
    6.6343  -16.5554   23.2828 C   0  0  0  0  0  0  0  0  0  0  0  0
    5.4663  -16.5154   23.7395 O   0  0  0  0  0  0  0  0  0  0  0  0
   10.2843  -19.6956   26.9462 N   0  0  0  0  0  0  0  0  0  0  0  0
    9.4271  -19.1716   27.9597 C   0  0  0  0  0  0  0  0  0  0  0  0
    9.5544  -19.6392   29.1210 O   0  0  0  0  0  0  0  0  0  0  0  0
    8.4395  -18.1169   27.6099 C   0  0  0  0  0  0  0  0  0  0  0  0
    8.6148  -17.8052   26.1520 C   0  0  0  0  0  0  0  0  0  0  0  0
    7.4735  -16.9159   25.6394 C   0  0  2  0  0  0  0  0  0  0  0  0
    7.6882  -16.7373   24.2165 N   0  0  0  0  0  0  0  0  0  0  0  0
    7.4728  -15.6154   26.3569 C   0  0  0  0  0  0  0  0  0  0  0  0
    7.5405  -15.6047   27.6154 O   0  0  0  0  0  0  0  0  0  0  0  0
    7.8396  -12.0316   25.3652 C   0  0  0  0  0  0  0  0  0  0  0  0
    7.4172  -13.1570   26.2935 C   0  0  2  0  0  0  0  0  0  0  0  0
    7.3954  -14.4213   25.5913 N   0  0  0  0  0  0  0  0  0  0  0  0
    6.0925  -12.8490   26.8979 C   0  0  0  0  0  0  0  0  0  0  0  0
    5.0933  -13.5847   26.7096 O   0  0  0  0  0  0  0  0  0  0  0  0
    5.9505  -11.7300   27.6852 O   0  0  0  0  0  0  0  0  0  0  0  0
  1  2  1  0
  3  2  1  0
  4  3  1  0
  5  4  1  0
  5  7  1  0
  5  6  1  6
  7  8  2  0
  9 10  1  0
 10 11  2  0
 10 12  1  0
 12 13  1  0
 14 13  1  1
 15  7  1  0
 15 14  1  0
 16 14  1  0
 16 20  1  0
 17 16  2  0
 19 20  1  0
 19 18  1  6
 21 19  1  0
 21 23  1  0
 22 21  2  0
M  END
$$$$
