MQA.pdb
     RDKit          3D

 23 22  0  0  1  0  0  0  0  0999 V2000
    7.7083  -11.7758   21.6686 C   0  0  0  0  0  0  0  0  0  0  0  0
    7.7740  -12.3387   19.9544 S   0  0  0  0  0  0  0  0  0  0  0  0
    7.3605  -14.1133   19.8996 C   0  0  0  0  0  0  0  0  0  0  0  0
    7.4792  -14.6795   21.2983 C   0  0  0  0  0  0  0  0  0  0  0  0
    8.3126  -15.9382   21.2729 C   0  0  2  0  0  0  0  0  0  0  0  0
    7.7362  -16.9512   20.4224 N   0  0  0  0  0  0  0  0  0  0  0  0
    8.4897  -16.5171   22.6258 C   0  0  0  0  0  0  0  0  0  0  0  0
    7.5671  -17.1682   23.1730 O   0  0  0  0  0  0  0  0  0  0  0  0
   14.6887  -15.6064   24.7391 N   0  0  0  0  0  0  0  0  0  0  0  0
   13.6844  -16.5594   24.3933 C   0  0  0  0  0  0  0  0  0  0  0  0
   14.0633  -17.7356   24.1552 O   0  0  0  0  0  0  0  0  0  0  0  0
   12.2615  -16.1334   24.3297 C   0  0  0  0  0  0  0  0  0  0  0  0
   11.4227  -17.3147   24.7228 C   0  0  0  0  0  0  0  0  0  0  0  0
    9.9276  -16.9739   24.6534 C   0  0  2  0  0  0  0  0  0  0  0  0
    9.6964  -16.3648   23.3581 N   0  0  0  0  0  0  0  0  0  0  0  0
    9.5575  -16.0554   25.7604 C   0  0  0  0  0  0  0  0  0  0  0  0
    9.4498  -16.5109   26.9306 O   0  0  0  0  0  0  0  0  0  0  0  0
    7.4789  -13.7056   26.7007 C   0  0  0  0  0  0  0  0  0  0  0  0
    8.9866  -13.7932   26.5397 C   0  0  2  0  0  0  0  0  0  0  0  0
    9.3366  -14.6854   25.4565 N   0  0  0  0  0  0  0  0  0  0  0  0
    9.6117  -14.2228   27.8201 C   0  0  0  0  0  0  0  0  0  0  0  0
    9.5061  -13.5410   28.8684 O   0  0  0  0  0  0  0  0  0  0  0  0
   10.3263  -15.3974   27.8647 O   0  0  0  0  0  0  0  0  0  0  0  0
  1  2  1  0
  3  2  1  0
  4  3  1  0
  5  4  1  0
  5  7  1  0
  5  6  1  6
  7  8  2  0
  9 10  1  0
 10 11  2  0
 10 12  1  0
 12 13  1  0
 14 13  1  1
 15  7  1  0
 15 14  1  0
 16 14  1  0
 16 20  1  0
 17 16  2  0
 19 20  1  0
 19 18  1  1
 21 19  1  0
 21 23  1  0
 22 21  2  0
M  END
$$$$
