MQA.pdb
     RDKit          3D

 23 22  0  0  1  0  0  0  0  0999 V2000
    8.0087  -11.8958   21.1224 C   0  0  0  0  0  0  0  0  0  0  0  0
    7.7870  -12.4924   19.4328 S   0  0  0  0  0  0  0  0  0  0  0  0
    6.7643  -14.0010   19.4690 C   0  0  0  0  0  0  0  0  0  0  0  0
    7.3970  -14.9898   20.4247 C   0  0  0  0  0  0  0  0  0  0  0  0
    7.8559  -16.2128   19.6676 C   0  0  2  0  0  0  0  0  0  0  0  0
    6.7470  -16.9644   19.1316 N   0  0  0  0  0  0  0  0  0  0  0  0
    8.6639  -17.1221   20.5143 C   0  0  0  0  0  0  0  0  0  0  0  0
    8.1117  -17.9454   21.2835 O   0  0  0  0  0  0  0  0  0  0  0  0
   14.4495  -19.2911   19.2639 N   0  0  0  0  0  0  0  0  0  0  0  0
   14.4659  -19.0569   20.6715 C   0  0  0  0  0  0  0  0  0  0  0  0
   15.5901  -18.9204   21.2202 O   0  0  0  0  0  0  0  0  0  0  0  0
   13.1815  -18.9851   21.4168 C   0  0  0  0  0  0  0  0  0  0  0  0
   12.2815  -18.0455   20.6681 C   0  0  0  0  0  0  0  0  0  0  0  0
   10.9037  -17.9537   21.3385 C   0  0  2  0  0  0  0  0  0  0  0  0
   10.0834  -17.1054   20.4959 N   0  0  0  0  0  0  0  0  0  0  0  0
   11.0346  -17.3957   22.7088 C   0  0  0  0  0  0  0  0  0  0  0  0
   11.8412  -16.4496   22.9156 O   0  0  0  0  0  0  0  0  0  0  0  0
    9.0030  -17.4711   25.7938 C   0  0  0  0  0  0  0  0  0  0  0  0
   10.3327  -17.3739   25.0663 C   0  0  2  0  0  0  0  0  0  0  0  0
   10.2388  -17.9539   23.7447 N   0  0  0  0  0  0  0  0  0  0  0  0
   11.4022  -18.0256   25.8702 C   0  0  0  0  0  0  0  0  0  0  0  0
   12.0039  -19.0490   25.4631 O   0  0  0  0  0  0  0  0  0  0  0  0
   11.7469  -17.4988   27.0933 O   0  0  0  0  0  0  0  0  0  0  0  0
  1  2  1  0
  3  2  1  0
  4  3  1  0
  5  4  1  0
  5  7  1  0
  5  6  1  1
  7  8  2  0
  9 10  1  0
 10 11  2  0
 10 12  1  0
 12 13  1  0
 14 13  1  6
 15  7  1  0
 15 14  1  0
 16 14  1  0
 16 20  1  0
 17 16  2  0
 19 20  1  0
 19 18  1  1
 21 19  1  0
 21 23  1  0
 22 21  2  0
M  END
$$$$
