MQA.pdb
     RDKit          3D

 23 22  0  0  1  0  0  0  0  0999 V2000
    7.6766  -11.3445   25.8476 C   0  0  0  0  0  0  0  0  0  0  0  0
    6.1470  -12.1136   26.4211 S   0  0  0  0  0  0  0  0  0  0  0  0
    5.8404  -13.6199   25.4411 C   0  0  0  0  0  0  0  0  0  0  0  0
    7.0147  -14.5583   25.6189 C   0  0  0  0  0  0  0  0  0  0  0  0
    6.8043  -15.8050   24.7938 C   0  0  2  0  0  0  0  0  0  0  0  0
    5.6629  -16.5645   25.2432 N   0  0  0  0  0  0  0  0  0  0  0  0
    7.9892  -16.6951   24.8162 C   0  0  0  0  0  0  0  0  0  0  0  0
    8.1291  -17.5578   25.7167 O   0  0  0  0  0  0  0  0  0  0  0  0
   12.1613  -16.8209   20.2077 N   0  0  0  0  0  0  0  0  0  0  0  0
   12.7198  -17.8187   21.0614 C   0  0  0  0  0  0  0  0  0  0  0  0
   13.6268  -18.5467   20.5810 O   0  0  0  0  0  0  0  0  0  0  0  0
   12.2182  -17.9549   22.4543 C   0  0  0  0  0  0  0  0  0  0  0  0
   10.9923  -17.0968   22.5744 C   0  0  0  0  0  0  0  0  0  0  0  0
   10.1400  -17.5221   23.7781 C   0  0  2  0  0  0  0  0  0  0  0  0
    9.0098  -16.6154   23.8326 N   0  0  0  0  0  0  0  0  0  0  0  0
   10.9452  -17.4631   25.0249 C   0  0  0  0  0  0  0  0  0  0  0  0
   11.5864  -16.4126   25.2965 O   0  0  0  0  0  0  0  0  0  0  0  0
   11.0569  -19.0837   28.2639 C   0  0  0  0  0  0  0  0  0  0  0  0
   11.8055  -18.5675   27.0475 C   0  0  2  0  0  0  0  0  0  0  0  0
   10.9628  -18.6029   25.8725 N   0  0  0  0  0  0  0  0  0  0  0  0
   13.0525  -19.3542   26.8448 C   0  0  0  0  0  0  0  0  0  0  0  0
   13.2394  -20.0416   25.8116 O   0  0  0  0  0  0  0  0  0  0  0  0
   14.0316  -19.3331   27.8109 O   0  0  0  0  0  0  0  0  0  0  0  0
  1  2  1  0
  3  2  1  0
  4  3  1  0
  5  4  1  0
  5  7  1  0
  5  6  1  1
  7  8  2  0
  9 10  1  0
 10 11  2  0
 10 12  1  0
 12 13  1  0
 14 13  1  6
 15  7  1  0
 15 14  1  0
 16 14  1  0
 16 20  1  0
 17 16  2  0
 19 20  1  0
 19 18  1  1
 21 19  1  0
 21 23  1  0
 22 21  2  0
M  END
$$$$
