DWK.pdb
     RDKit          3D

 32 33  0  0  1  0  0  0  0  0999 V2000
   27.2603  -21.8159  -15.4311 N   0  0  0  0  0  0  0  0  0  0  0  0
   27.8938  -21.1240  -14.3351 C   0  0  1  0  0  0  0  0  0  0  0  0
   28.0544  -19.6667  -14.6957 C   0  0  0  0  0  0  0  0  0  0  0  0
   26.8112  -19.0079  -15.0741 C   0  0  0  0  0  0  0  0  0  0  0  0
   26.5530  -17.8876  -14.5652 O   0  0  0  0  0  0  0  0  0  0  0  0
   27.2079  -21.2774  -13.0422 C   0  0  0  0  0  0  0  0  0  0  0  0
   26.0477  -21.8058  -12.9546 O   0  0  0  0  0  0  0  0  0  0  0  0
   25.8958  -19.5364  -15.9601 O   0  0  0  0  0  0  0  0  0  0  0  0
   27.7583  -20.8635  -11.8168 N   0  0  0  0  0  0  0  0  0  0  0  0
   27.0818  -21.0634  -10.5516 C   0  0  1  0  0  0  0  0  0  0  0  0
   27.9969  -20.8031   -9.4359 C   0  0  0  0  0  0  0  0  0  0  0  0
   27.2788  -20.7626   -8.1362 C   0  0  0  0  0  0  0  0  0  0  0  0
   26.0107  -21.3335   -7.9539 C   0  0  0  0  0  0  0  0  0  0  0  0
   25.6868  -21.1495   -6.6778 N   0  0  0  0  0  0  0  0  0  0  0  0
   26.6557  -20.4981   -6.0178 C   0  0  0  0  0  0  0  0  0  0  0  0
   26.8111  -20.0595   -4.7171 C   0  0  0  0  0  0  0  0  0  0  0  0
   27.9410  -19.3907   -4.3402 C   0  0  0  0  0  0  0  0  0  0  0  0
   28.9485  -19.1376   -5.2414 C   0  0  0  0  0  0  0  0  0  0  0  0
   28.7902  -19.5776   -6.5395 C   0  0  0  0  0  0  0  0  0  0  0  0
   27.6559  -20.2515   -6.9227 C   0  0  0  0  0  0  0  0  0  0  0  0
   25.8500  -20.2661  -10.5853 C   0  0  0  0  0  0  0  0  0  0  0  0
   25.9210  -19.0319  -10.8163 O   0  0  0  0  0  0  0  0  0  0  0  0
   24.5506  -20.7775  -10.3752 N   0  0  0  0  0  0  0  0  0  0  0  0
   23.3412  -20.0888  -10.8992 C   0  0  1  0  0  0  0  0  0  0  0  0
   23.3840  -20.1222  -12.4062 C   0  0  0  0  0  0  0  0  0  0  0  0
   22.2153  -19.3830  -12.9754 C   0  0  0  0  0  0  0  0  0  0  0  0
   22.1431  -19.3612  -14.4718 C   0  0  0  0  0  0  0  0  0  0  0  0
   21.0473  -18.5555  -15.0646 C   0  0  0  0  0  0  0  0  0  0  0  0
   20.9802  -18.5781  -16.5072 N   0  0  0  0  0  0  0  0  0  0  0  0
   22.2161  -20.9072  -10.4084 C   0  0  0  0  0  0  0  0  0  0  0  0
   22.2662  -22.3192  -10.4951 O   0  0  0  0  0  0  0  0  0  0  0  0
   21.1562  -20.4709   -9.8923 O   0  0  0  0  0  0  0  0  0  0  0  0
  2  1  1  6
  2  3  1  0
  3  4  1  0
  4  8  1  0
  5  4  2  0
  6  7  2  0
  6  2  1  0
  9  6  1  0
 10  9  1  0
 10 11  1  1
 11 12  1  0
 12 13  2  0
 12 20  1  0
 13 14  1  0
 14 15  1  0
 15 16  2  0
 16 17  1  0
 18 17  2  0
 19 18  1  0
 20 19  2  0
 20 15  1  0
 21 10  1  0
 22 21  2  0
 23 21  1  0
 24 25  1  6
 24 23  1  0
 26 25  1  0
 27 26  1  0
 27 28  1  0
 28 29  1  0
 30 24  1  0
 31 30  1  0
 32 30  2  0
M  END
$$$$
