DWK.pdb
     RDKit          3D

 32 33  0  0  1  0  0  0  0  0999 V2000
   32.6539  -26.1469  -21.0457 N   0  0  0  0  0  0  0  0  0  0  0  0
   31.2553  -26.1882  -20.6949 C   0  0  1  0  0  0  0  0  0  0  0  0
   30.4493  -25.5381  -21.7937 C   0  0  0  0  0  0  0  0  0  0  0  0
   30.4027  -24.0840  -21.7155 C   0  0  0  0  0  0  0  0  0  0  0  0
   29.8186  -23.4572  -22.6356 O   0  0  0  0  0  0  0  0  0  0  0  0
   30.7450  -27.5343  -20.3893 C   0  0  0  0  0  0  0  0  0  0  0  0
   30.6609  -28.4413  -21.2855 O   0  0  0  0  0  0  0  0  0  0  0  0
   30.9599  -23.3476  -20.6910 O   0  0  0  0  0  0  0  0  0  0  0  0
   30.3142  -27.9302  -19.1112 N   0  0  0  0  0  0  0  0  0  0  0  0
   29.9506  -29.2976  -18.8004 C   0  0  1  0  0  0  0  0  0  0  0  0
   30.8614  -29.8525  -17.7941 C   0  0  0  0  0  0  0  0  0  0  0  0
   32.1538  -30.2699  -18.3956 C   0  0  0  0  0  0  0  0  0  0  0  0
   33.2230  -29.3818  -18.5841 C   0  0  0  0  0  0  0  0  0  0  0  0
   34.2220  -30.0885  -19.1034 N   0  0  0  0  0  0  0  0  0  0  0  0
   33.8766  -31.3741  -19.2665 C   0  0  0  0  0  0  0  0  0  0  0  0
   34.5205  -32.4913  -19.7621 C   0  0  0  0  0  0  0  0  0  0  0  0
   33.8793  -33.6965  -19.8140 C   0  0  0  0  0  0  0  0  0  0  0  0
   32.5822  -33.8284  -19.3765 C   0  0  0  0  0  0  0  0  0  0  0  0
   31.9424  -32.7106  -18.8816 C   0  0  0  0  0  0  0  0  0  0  0  0
   32.5837  -31.4969  -18.8266 C   0  0  0  0  0  0  0  0  0  0  0  0
   28.5225  -29.3026  -18.4620 C   0  0  0  0  0  0  0  0  0  0  0  0
   28.0581  -28.3870  -17.7356 O   0  0  0  0  0  0  0  0  0  0  0  0
   27.5934  -30.2747  -18.8933 N   0  0  0  0  0  0  0  0  0  0  0  0
   26.1543  -30.2036  -18.5253 C   0  0  1  0  0  0  0  0  0  0  0  0
   25.4242  -31.3248  -19.2210 C   0  0  0  0  0  0  0  0  0  0  0  0
   24.9350  -32.3245  -18.2221 C   0  0  0  0  0  0  0  0  0  0  0  0
   23.5687  -32.8774  -18.4914 C   0  0  0  0  0  0  0  0  0  0  0  0
   23.0744  -33.8999  -17.5368 C   0  0  0  0  0  0  0  0  0  0  0  0
   21.7417  -34.3911  -17.7993 N   0  0  0  0  0  0  0  0  0  0  0  0
   26.1415  -30.4223  -17.0663 C   0  0  0  0  0  0  0  0  0  0  0  0
   25.0360  -30.0013  -16.2887 O   0  0  0  0  0  0  0  0  0  0  0  0
   27.0513  -30.9706  -16.3942 O   0  0  0  0  0  0  0  0  0  0  0  0
  2  1  1  6
  2  3  1  0
  3  4  1  0
  4  8  1  0
  5  4  2  0
  6  7  2  0
  6  2  1  0
  9  6  1  0
 10  9  1  0
 10 11  1  1
 11 12  1  0
 12 13  2  0
 12 20  1  0
 13 14  1  0
 14 15  1  0
 15 16  2  0
 16 17  1  0
 18 17  2  0
 19 18  1  0
 20 19  2  0
 20 15  1  0
 21 10  1  0
 22 21  2  0
 23 21  1  0
 24 25  1  6
 24 23  1  0
 26 25  1  0
 27 26  1  0
 27 28  1  0
 28 29  1  0
 30 24  1  0
 31 30  1  0
 32 30  2  0
M  END
$$$$
