DWK.pdb
     RDKit          3D

 32 33  0  0  1  0  0  0  0  0999 V2000
   28.3398  -22.6239  -16.2803 N   0  0  0  0  0  0  0  0  0  0  0  0
   28.0948  -21.3832  -15.5863 C   0  0  1  0  0  0  0  0  0  0  0  0
   27.2835  -20.4705  -16.4743 C   0  0  0  0  0  0  0  0  0  0  0  0
   27.9933  -20.0112  -17.6608 C   0  0  0  0  0  0  0  0  0  0  0  0
   27.4568  -20.1943  -18.7830 O   0  0  0  0  0  0  0  0  0  0  0  0
   27.4610  -21.5396  -14.2674 C   0  0  0  0  0  0  0  0  0  0  0  0
   26.4787  -22.3360  -14.0833 O   0  0  0  0  0  0  0  0  0  0  0  0
   29.2214  -19.3841  -17.6316 O   0  0  0  0  0  0  0  0  0  0  0  0
   27.8727  -20.8402  -13.1198 N   0  0  0  0  0  0  0  0  0  0  0  0
   27.1998  -20.9721  -11.8437 C   0  0  1  0  0  0  0  0  0  0  0  0
   27.9907  -20.3430  -10.7813 C   0  0  0  0  0  0  0  0  0  0  0  0
   27.2378  -20.2789   -9.5025 C   0  0  0  0  0  0  0  0  0  0  0  0
   25.8395  -20.1814   -9.4513 C   0  0  0  0  0  0  0  0  0  0  0  0
   25.5013  -20.1841   -8.1658 N   0  0  0  0  0  0  0  0  0  0  0  0
   26.5823  -20.2758   -7.3774 C   0  0  0  0  0  0  0  0  0  0  0  0
   26.7806  -20.3060   -6.0106 C   0  0  0  0  0  0  0  0  0  0  0  0
   28.0422  -20.3920   -5.4937 C   0  0  0  0  0  0  0  0  0  0  0  0
   29.1426  -20.4504   -6.3165 C   0  0  0  0  0  0  0  0  0  0  0  0
   28.9408  -20.4206   -7.6811 C   0  0  0  0  0  0  0  0  0  0  0  0
   27.6738  -20.3352   -8.2053 C   0  0  0  0  0  0  0  0  0  0  0  0
   25.8303  -20.4746  -12.0198 C   0  0  0  0  0  0  0  0  0  0  0  0
   25.6474  -19.2693  -12.3286 O   0  0  0  0  0  0  0  0  0  0  0  0
   24.6621  -21.2537  -11.8689 N   0  0  0  0  0  0  0  0  0  0  0  0
   23.3068  -20.6927  -12.1140 C   0  0  1  0  0  0  0  0  0  0  0  0
   22.6628  -21.4649  -13.2378 C   0  0  0  0  0  0  0  0  0  0  0  0
   23.1230  -20.9388  -14.5599 C   0  0  0  0  0  0  0  0  0  0  0  0
   22.4846  -21.5763  -15.7560 C   0  0  0  0  0  0  0  0  0  0  0  0
   22.9680  -21.1168  -17.0814 C   0  0  0  0  0  0  0  0  0  0  0  0
   22.3958  -21.8043  -18.2154 N   0  0  0  0  0  0  0  0  0  0  0  0
   22.5798  -20.9360  -10.8535 C   0  0  0  0  0  0  0  0  0  0  0  0
   21.3693  -20.2543  -10.5818 O   0  0  0  0  0  0  0  0  0  0  0  0
   22.9311  -21.7240   -9.9393 O   0  0  0  0  0  0  0  0  0  0  0  0
  2  1  1  6
  2  3  1  0
  3  4  1  0
  4  8  1  0
  5  4  2  0
  6  7  2  0
  6  2  1  0
  9  6  1  0
 10  9  1  0
 10 11  1  1
 11 12  1  0
 12 13  2  0
 12 20  1  0
 13 14  1  0
 14 15  1  0
 15 16  2  0
 16 17  1  0
 18 17  2  0
 19 18  1  0
 20 19  2  0
 20 15  1  0
 21 10  1  0
 22 21  2  0
 23 21  1  0
 24 25  1  6
 24 23  1  0
 26 25  1  0
 27 26  1  0
 27 28  1  0
 28 29  1  0
 30 24  1  0
 31 30  1  0
 32 30  2  0
M  END
$$$$
