DWK.pdb
     RDKit          3D

 32 33  0  0  1  0  0  0  0  0999 V2000
   21.2914  -20.1569  -12.9476 N   0  0  0  0  0  0  0  0  0  0  0  0
   22.0723  -19.5416  -13.9929 C   0  0  1  0  0  0  0  0  0  0  0  0
   21.7358  -18.0714  -14.0627 C   0  0  0  0  0  0  0  0  0  0  0  0
   20.3220  -17.7952  -14.2801 C   0  0  0  0  0  0  0  0  0  0  0  0
   19.5644  -18.7580  -14.5625 O   0  0  0  0  0  0  0  0  0  0  0  0
   23.5241  -19.7474  -13.8680 C   0  0  0  0  0  0  0  0  0  0  0  0
   24.3624  -18.8367  -14.1854 O   0  0  0  0  0  0  0  0  0  0  0  0
   19.7584  -16.5392  -14.1942 O   0  0  0  0  0  0  0  0  0  0  0  0
   24.1022  -20.9397  -13.3988 N   0  0  0  0  0  0  0  0  0  0  0  0
   25.5317  -21.0962  -13.2236 C   0  0  1  0  0  0  0  0  0  0  0  0
   25.8133  -22.0906  -12.1836 C   0  0  0  0  0  0  0  0  0  0  0  0
   26.1205  -21.4481  -10.8800 C   0  0  0  0  0  0  0  0  0  0  0  0
   25.1242  -20.9453  -10.0303 C   0  0  0  0  0  0  0  0  0  0  0  0
   25.7411  -20.4803   -8.9485 N   0  0  0  0  0  0  0  0  0  0  0  0
   27.0692  -20.6450   -9.0358 C   0  0  0  0  0  0  0  0  0  0  0  0
   28.1365  -20.3347   -8.2155 C   0  0  0  0  0  0  0  0  0  0  0  0
   29.4150  -20.6241   -8.6000 C   0  0  0  0  0  0  0  0  0  0  0  0
   29.6718  -21.2289   -9.8081 C   0  0  0  0  0  0  0  0  0  0  0  0
   28.6034  -21.5379  -10.6247 C   0  0  0  0  0  0  0  0  0  0  0  0
   27.3159  -21.2496  -10.2416 C   0  0  0  0  0  0  0  0  0  0  0  0
   26.1072  -21.3563  -14.5485 C   0  0  0  0  0  0  0  0  0  0  0  0
   25.4227  -21.9675  -15.4085 O   0  0  0  0  0  0  0  0  0  0  0  0
   27.4022  -20.9687  -14.9570 N   0  0  0  0  0  0  0  0  0  0  0  0
   27.9031  -21.2305  -16.3326 C   0  0  1  0  0  0  0  0  0  0  0  0
   29.0422  -20.2844  -16.6177 C   0  0  0  0  0  0  0  0  0  0  0  0
   28.5167  -18.9255  -16.9550 C   0  0  0  0  0  0  0  0  0  0  0  0
   27.8322  -18.8193  -18.2835 C   0  0  0  0  0  0  0  0  0  0  0  0
   27.3764  -17.4645  -18.6809 C   0  0  0  0  0  0  0  0  0  0  0  0
   26.6447  -17.4034  -19.9246 N   0  0  0  0  0  0  0  0  0  0  0  0
   28.4013  -22.6181  -16.2796 C   0  0  0  0  0  0  0  0  0  0  0  0
   28.4329  -23.4129  -17.4506 O   0  0  0  0  0  0  0  0  0  0  0  0
   28.8253  -23.2114  -15.2557 O   0  0  0  0  0  0  0  0  0  0  0  0
  2  1  1  1
  2  3  1  0
  3  4  1  0
  4  8  1  0
  5  4  2  0
  6  7  2  0
  6  2  1  0
  9  6  1  0
 10  9  1  0
 10 11  1  1
 11 12  1  0
 12 13  2  0
 12 20  1  0
 13 14  1  0
 14 15  1  0
 15 16  2  0
 16 17  1  0
 18 17  2  0
 19 18  1  0
 20 19  2  0
 20 15  1  0
 21 10  1  0
 22 21  2  0
 23 21  1  0
 24 25  1  1
 24 23  1  0
 26 25  1  0
 27 26  1  0
 27 28  1  0
 28 29  1  0
 30 24  1  0
 31 30  1  0
 32 30  2  0
M  END
$$$$
