DWK.pdb
     RDKit          3D

 32 33  0  0  1  0  0  0  0  0999 V2000
   28.7237  -21.4403  -15.1006 N   0  0  0  0  0  0  0  0  0  0  0  0
   27.6987  -20.4975  -14.7246 C   0  0  1  0  0  0  0  0  0  0  0  0
   27.0163  -19.9845  -15.9699 C   0  0  0  0  0  0  0  0  0  0  0  0
   27.9088  -19.3044  -16.8991 C   0  0  0  0  0  0  0  0  0  0  0  0
   28.5953  -18.3431  -16.4685 O   0  0  0  0  0  0  0  0  0  0  0  0
   26.7176  -21.0193  -13.7597 C   0  0  0  0  0  0  0  0  0  0  0  0
   26.2152  -22.1884  -13.8768 O   0  0  0  0  0  0  0  0  0  0  0  0
   28.0505  -19.6499  -18.2268 O   0  0  0  0  0  0  0  0  0  0  0  0
   26.2573  -20.2912  -12.6490 N   0  0  0  0  0  0  0  0  0  0  0  0
   25.3177  -20.8398  -11.6926 C   0  0  1  0  0  0  0  0  0  0  0  0
   25.5076  -20.2212  -10.3769 C   0  0  0  0  0  0  0  0  0  0  0  0
   26.8248  -20.5767   -9.7893 C   0  0  0  0  0  0  0  0  0  0  0  0
   27.7988  -21.2981  -10.4952 C   0  0  0  0  0  0  0  0  0  0  0  0
   28.8535  -21.4050   -9.6933 N   0  0  0  0  0  0  0  0  0  0  0  0
   28.6331  -20.8040   -8.5148 C   0  0  0  0  0  0  0  0  0  0  0  0
   29.3750  -20.6395   -7.3612 C   0  0  0  0  0  0  0  0  0  0  0  0
   28.8540  -19.9708   -6.2899 C   0  0  0  0  0  0  0  0  0  0  0  0
   27.5833  -19.4465   -6.3316 C   0  0  0  0  0  0  0  0  0  0  0  0
   26.8453  -19.6122   -7.4855 C   0  0  0  0  0  0  0  0  0  0  0  0
   27.3656  -20.2831   -8.5657 C   0  0  0  0  0  0  0  0  0  0  0  0
   23.9784  -20.7235  -12.2816 C   0  0  0  0  0  0  0  0  0  0  0  0
   23.5747  -19.6001  -12.6773 O   0  0  0  0  0  0  0  0  0  0  0  0
   23.0737  -21.7948  -12.4494 N   0  0  0  0  0  0  0  0  0  0  0  0
   21.7242  -21.5977  -13.0423 C   0  0  1  0  0  0  0  0  0  0  0  0
   21.1005  -22.9502  -13.2782 C   0  0  0  0  0  0  0  0  0  0  0  0
   19.6919  -22.7963  -13.7563 C   0  0  0  0  0  0  0  0  0  0  0  0
   18.9580  -24.0797  -13.9990 C   0  0  0  0  0  0  0  0  0  0  0  0
   17.5546  -23.9558  -14.4640 C   0  0  0  0  0  0  0  0  0  0  0  0
   16.8884  -25.2062  -14.7448 N   0  0  0  0  0  0  0  0  0  0  0  0
   20.9730  -20.8706  -12.0013 C   0  0  0  0  0  0  0  0  0  0  0  0
   21.1306  -21.2094  -10.6359 O   0  0  0  0  0  0  0  0  0  0  0  0
   20.1617  -19.9307  -12.1974 O   0  0  0  0  0  0  0  0  0  0  0  0
  2  1  1  6
  2  3  1  0
  3  4  1  0
  4  8  1  0
  5  4  2  0
  6  7  2  0
  6  2  1  0
  9  6  1  0
 10  9  1  0
 10 11  1  1
 11 12  1  0
 12 13  2  0
 12 20  1  0
 13 14  1  0
 14 15  1  0
 15 16  2  0
 16 17  1  0
 18 17  2  0
 19 18  1  0
 20 19  2  0
 20 15  1  0
 21 10  1  0
 22 21  2  0
 23 21  1  0
 24 25  1  1
 24 23  1  0
 26 25  1  0
 27 26  1  0
 27 28  1  0
 28 29  1  0
 30 24  1  0
 31 30  1  0
 32 30  2  0
M  END
$$$$
