DWK.pdb
     RDKit          3D

 32 33  0  0  1  0  0  0  0  0999 V2000
   22.3833  -21.2757  -15.7371 N   0  0  0  0  0  0  0  0  0  0  0  0
   22.9826  -20.7756  -14.5239 C   0  0  1  0  0  0  0  0  0  0  0  0
   23.6628  -19.4591  -14.8134 C   0  0  0  0  0  0  0  0  0  0  0  0
   24.6575  -19.5253  -15.8759 C   0  0  0  0  0  0  0  0  0  0  0  0
   25.2983  -18.4807  -16.1568 O   0  0  0  0  0  0  0  0  0  0  0  0
   22.0506  -20.6525  -13.3918 C   0  0  0  0  0  0  0  0  0  0  0  0
   22.4003  -20.1113  -12.2882 O   0  0  0  0  0  0  0  0  0  0  0  0
   24.9435  -20.6665  -16.5959 O   0  0  0  0  0  0  0  0  0  0  0  0
   20.7223  -21.1110  -13.4256 N   0  0  0  0  0  0  0  0  0  0  0  0
   19.8063  -20.9279  -12.3183 C   0  0  1  0  0  0  0  0  0  0  0  0
   18.6608  -20.1116  -12.7322 C   0  0  0  0  0  0  0  0  0  0  0  0
   18.9553  -18.6596  -12.6248 C   0  0  0  0  0  0  0  0  0  0  0  0
   19.3893  -18.0613  -11.4326 C   0  0  0  0  0  0  0  0  0  0  0  0
   19.5915  -16.7750  -11.7001 N   0  0  0  0  0  0  0  0  0  0  0  0
   19.3186  -16.4950  -12.9830 C   0  0  0  0  0  0  0  0  0  0  0  0
   19.3508  -15.3453  -13.7482 C   0  0  0  0  0  0  0  0  0  0  0  0
   18.9897  -15.3773  -15.0653 C   0  0  0  0  0  0  0  0  0  0  0  0
   18.5865  -16.5493  -15.6611 C   0  0  0  0  0  0  0  0  0  0  0  0
   18.5560  -17.6958  -14.8941 C   0  0  0  0  0  0  0  0  0  0  0  0
   18.9192  -17.6684  -13.5694 C   0  0  0  0  0  0  0  0  0  0  0  0
   19.4995  -22.2591  -11.7818 C   0  0  0  0  0  0  0  0  0  0  0  0
   19.5854  -23.2621  -12.5356 O   0  0  0  0  0  0  0  0  0  0  0  0
   19.1041  -22.5228  -10.4520 N   0  0  0  0  0  0  0  0  0  0  0  0
   18.8518  -23.9059   -9.9672 C   0  0  1  0  0  0  0  0  0  0  0  0
   18.7787  -23.8816   -8.4612 C   0  0  0  0  0  0  0  0  0  0  0  0
   18.3324  -25.2109   -7.9415 C   0  0  0  0  0  0  0  0  0  0  0  0
   18.1582  -25.2877   -6.4553 C   0  0  0  0  0  0  0  0  0  0  0  0
   17.7176  -26.5964   -5.9126 C   0  0  0  0  0  0  0  0  0  0  0  0
   17.5312  -26.6356   -4.4809 N   0  0  0  0  0  0  0  0  0  0  0  0
   17.5331  -24.2531  -10.5305 C   0  0  0  0  0  0  0  0  0  0  0  0
   17.2959  -25.5470  -11.0535 O   0  0  0  0  0  0  0  0  0  0  0  0
   16.5379  -23.4888  -10.6047 O   0  0  0  0  0  0  0  0  0  0  0  0
  2  1  1  6
  2  3  1  0
  3  4  1  0
  4  8  1  0
  5  4  2  0
  6  7  2  0
  6  2  1  0
  9  6  1  0
 10  9  1  0
 10 11  1  6
 11 12  1  0
 12 13  2  0
 12 20  1  0
 13 14  1  0
 14 15  1  0
 15 16  2  0
 16 17  1  0
 18 17  2  0
 19 18  1  0
 20 19  2  0
 20 15  1  0
 21 10  1  0
 22 21  2  0
 23 21  1  0
 24 25  1  1
 24 23  1  0
 26 25  1  0
 27 26  1  0
 27 28  1  0
 28 29  1  0
 30 24  1  0
 31 30  1  0
 32 30  2  0
M  END
$$$$
