DWK.pdb
     RDKit          3D

 32 33  0  0  1  0  0  0  0  0999 V2000
   27.8218  -21.9209  -15.2446 N   0  0  0  0  0  0  0  0  0  0  0  0
   27.6848  -20.7650  -14.3925 C   0  0  1  0  0  0  0  0  0  0  0  0
   26.9321  -19.6878  -15.1359 C   0  0  0  0  0  0  0  0  0  0  0  0
   27.6445  -19.1528  -16.2887 C   0  0  0  0  0  0  0  0  0  0  0  0
   28.3453  -18.1213  -16.1286 O   0  0  0  0  0  0  0  0  0  0  0  0
   27.0625  -21.0421  -13.0880 C   0  0  0  0  0  0  0  0  0  0  0  0
   25.9870  -21.7250  -12.9873 O   0  0  0  0  0  0  0  0  0  0  0  0
   27.6003  -19.7090  -17.5500 O   0  0  0  0  0  0  0  0  0  0  0  0
   27.5863  -20.5881  -11.8652 N   0  0  0  0  0  0  0  0  0  0  0  0
   26.9255  -20.8259  -10.5982 C   0  0  1  0  0  0  0  0  0  0  0  0
   27.7862  -20.4094   -9.4867 C   0  0  0  0  0  0  0  0  0  0  0  0
   27.0774  -20.4924   -8.1839 C   0  0  0  0  0  0  0  0  0  0  0  0
   25.7929  -21.0408   -8.0545 C   0  0  0  0  0  0  0  0  0  0  0  0
   25.4825  -20.9907   -6.7629 N   0  0  0  0  0  0  0  0  0  0  0  0
   26.4754  -20.4474   -6.0434 C   0  0  0  0  0  0  0  0  0  0  0  0
   26.6523  -20.1620   -4.7034 C   0  0  0  0  0  0  0  0  0  0  0  0
   27.8051  -19.5746   -4.2648 C   0  0  0  0  0  0  0  0  0  0  0  0
   28.8148  -19.2535   -5.1416 C   0  0  0  0  0  0  0  0  0  0  0  0
   28.6349  -19.5405   -6.4792 C   0  0  0  0  0  0  0  0  0  0  0  0
   27.4777  -20.1320   -6.9245 C   0  0  0  0  0  0  0  0  0  0  0  0
   25.6025  -20.1947  -10.6715 C   0  0  0  0  0  0  0  0  0  0  0  0
   25.5094  -18.9449  -10.5668 O   0  0  0  0  0  0  0  0  0  0  0  0
   24.3858  -20.8876  -10.8552 N   0  0  0  0  0  0  0  0  0  0  0  0
   23.0941  -20.1728  -11.0343 C   0  0  1  0  0  0  0  0  0  0  0  0
   22.6105  -20.3993  -12.4445 C   0  0  0  0  0  0  0  0  0  0  0  0
   23.1408  -19.3359  -13.3524 C   0  0  0  0  0  0  0  0  0  0  0  0
   22.6666  -19.4156  -14.7715 C   0  0  0  0  0  0  0  0  0  0  0  0
   23.2713  -18.4492  -15.7211 C   0  0  0  0  0  0  0  0  0  0  0  0
   22.8302  -18.5767  -17.0905 N   0  0  0  0  0  0  0  0  0  0  0  0
   22.1815  -20.8268  -10.0771 C   0  0  0  0  0  0  0  0  0  0  0  0
   21.1817  -20.0759   -9.4134 O   0  0  0  0  0  0  0  0  0  0  0  0
   22.1894  -22.0441   -9.7639 O   0  0  0  0  0  0  0  0  0  0  0  0
  2  1  1  6
  2  3  1  0
  3  4  1  0
  4  8  1  0
  5  4  2  0
  6  7  2  0
  6  2  1  0
  9  6  1  0
 10  9  1  0
 10 11  1  1
 11 12  1  0
 12 13  2  0
 12 20  1  0
 13 14  1  0
 14 15  1  0
 15 16  2  0
 16 17  1  0
 18 17  2  0
 19 18  1  0
 20 19  2  0
 20 15  1  0
 21 10  1  0
 22 21  2  0
 23 21  1  0
 24 25  1  6
 24 23  1  0
 26 25  1  0
 27 26  1  0
 27 28  1  0
 28 29  1  0
 30 24  1  0
 31 30  1  0
 32 30  2  0
M  END
$$$$
