DWK.pdb
     RDKit          3D

 32 33  0  0  1  0  0  0  0  0999 V2000
   24.0097  -11.9194  -20.2413 N   0  0  0  0  0  0  0  0  0  0  0  0
   23.9170  -10.5373  -20.6440 C   0  0  1  0  0  0  0  0  0  0  0  0
   22.8095  -10.3903  -21.6596 C   0  0  0  0  0  0  0  0  0  0  0  0
   22.9403  -11.2709  -22.8129 C   0  0  0  0  0  0  0  0  0  0  0  0
   24.0968  -11.5792  -23.1977 O   0  0  0  0  0  0  0  0  0  0  0  0
   23.7440   -9.5904  -19.5309 C   0  0  0  0  0  0  0  0  0  0  0  0
   23.0825   -9.8988  -18.4820 O   0  0  0  0  0  0  0  0  0  0  0  0
   21.8714  -11.7916  -23.5121 O   0  0  0  0  0  0  0  0  0  0  0  0
   24.2801   -8.2910  -19.5258 N   0  0  0  0  0  0  0  0  0  0  0  0
   24.1937   -7.4169  -18.3738 C   0  0  1  0  0  0  0  0  0  0  0  0
   25.5202   -6.8986  -18.0248 C   0  0  0  0  0  0  0  0  0  0  0  0
   26.3682   -7.9430  -17.3950 C   0  0  0  0  0  0  0  0  0  0  0  0
   27.6812   -8.2055  -17.8127 C   0  0  0  0  0  0  0  0  0  0  0  0
   28.1528   -9.1615  -17.0185 N   0  0  0  0  0  0  0  0  0  0  0  0
   27.2377   -9.5395  -16.1139 C   0  0  0  0  0  0  0  0  0  0  0  0
   27.2143  -10.4737  -15.0966 C   0  0  0  0  0  0  0  0  0  0  0  0
   26.0940  -10.6410  -14.3329 C   0  0  0  0  0  0  0  0  0  0  0  0
   24.9655   -9.8873  -14.5559 C   0  0  0  0  0  0  0  0  0  0  0  0
   24.9926   -8.9547  -15.5724 C   0  0  0  0  0  0  0  0  0  0  0  0
   26.1173   -8.7825  -16.3422 C   0  0  0  0  0  0  0  0  0  0  0  0
   23.1574   -6.4181  -18.6613 C   0  0  0  0  0  0  0  0  0  0  0  0
   23.1855   -5.7983  -19.7553 O   0  0  0  0  0  0  0  0  0  0  0  0
   22.0974   -6.0804  -17.7916 N   0  0  0  0  0  0  0  0  0  0  0  0
   21.0037   -5.1619  -18.2059 C   0  0  1  0  0  0  0  0  0  0  0  0
   19.6857   -5.7649  -17.7895 C   0  0  0  0  0  0  0  0  0  0  0  0
   18.5564   -4.8670  -18.1830 C   0  0  0  0  0  0  0  0  0  0  0  0
   17.1903   -5.3685  -17.8263 C   0  0  0  0  0  0  0  0  0  0  0  0
   16.0468   -4.5438  -18.2885 C   0  0  0  0  0  0  0  0  0  0  0  0
   14.7414   -5.1060  -18.0319 N   0  0  0  0  0  0  0  0  0  0  0  0
   21.2574   -3.9266  -17.4402 C   0  0  0  0  0  0  0  0  0  0  0  0
   21.2328   -2.6666  -18.0848 O   0  0  0  0  0  0  0  0  0  0  0  0
   21.5078   -3.8591  -16.2102 O   0  0  0  0  0  0  0  0  0  0  0  0
  2  1  1  1
  2  3  1  0
  3  4  1  0
  4  8  1  0
  5  4  2  0
  6  7  2  0
  6  2  1  0
  9  6  1  0
 10  9  1  0
 10 11  1  6
 11 12  1  0
 12 13  2  0
 12 20  1  0
 13 14  1  0
 14 15  1  0
 15 16  2  0
 16 17  1  0
 18 17  2  0
 19 18  1  0
 20 19  2  0
 20 15  1  0
 21 10  1  0
 22 21  2  0
 23 21  1  0
 24 25  1  1
 24 23  1  0
 26 25  1  0
 27 26  1  0
 27 28  1  0
 28 29  1  0
 30 24  1  0
 31 30  1  0
 32 30  2  0
M  END
$$$$
