DWK.pdb
     RDKit          3D

 32 33  0  0  1  0  0  0  0  0999 V2000
   28.6556  -21.5001  -15.3070 N   0  0  0  0  0  0  0  0  0  0  0  0
   27.4629  -20.7214  -15.0789 C   0  0  1  0  0  0  0  0  0  0  0  0
   26.7040  -20.5855  -16.3770 C   0  0  0  0  0  0  0  0  0  0  0  0
   27.2408  -19.5723  -17.2759 C   0  0  0  0  0  0  0  0  0  0  0  0
   27.9743  -18.6744  -16.7897 O   0  0  0  0  0  0  0  0  0  0  0  0
   26.5947  -21.2389  -14.0093 C   0  0  0  0  0  0  0  0  0  0  0  0
   26.2053  -22.4559  -13.9887 O   0  0  0  0  0  0  0  0  0  0  0  0
   26.9958  -19.5358  -18.6327 O   0  0  0  0  0  0  0  0  0  0  0  0
   26.1276  -20.4550  -12.9402 N   0  0  0  0  0  0  0  0  0  0  0  0
   25.3100  -20.9981  -11.8747 C   0  0  1  0  0  0  0  0  0  0  0  0
   25.6098  -20.3254  -10.6068 C   0  0  0  0  0  0  0  0  0  0  0  0
   26.8939  -20.7961  -10.0270 C   0  0  0  0  0  0  0  0  0  0  0  0
   27.8182  -21.5600  -10.7547 C   0  0  0  0  0  0  0  0  0  0  0  0
   28.8569  -21.7719   -9.9527 N   0  0  0  0  0  0  0  0  0  0  0  0
   28.6722  -21.1995   -8.7540 C   0  0  0  0  0  0  0  0  0  0  0  0
   29.4161  -21.1310   -7.5920 C   0  0  0  0  0  0  0  0  0  0  0  0
   28.9373  -20.4656   -6.4991 C   0  0  0  0  0  0  0  0  0  0  0  0
   27.7080  -19.8497   -6.5270 C   0  0  0  0  0  0  0  0  0  0  0  0
   26.9679  -19.9197   -7.6894 C   0  0  0  0  0  0  0  0  0  0  0  0
   27.4460  -20.5870   -8.7912 C   0  0  0  0  0  0  0  0  0  0  0  0
   23.9147  -20.9471  -12.3269 C   0  0  0  0  0  0  0  0  0  0  0  0
   23.4336  -19.8534  -12.7194 O   0  0  0  0  0  0  0  0  0  0  0  0
   23.0359  -22.0520  -12.3621 N   0  0  0  0  0  0  0  0  0  0  0  0
   21.6204  -21.9162  -12.7973 C   0  0  1  0  0  0  0  0  0  0  0  0
   20.9641  -23.2722  -12.7288 C   0  0  0  0  0  0  0  0  0  0  0  0
   19.7334  -23.2969  -13.5779 C   0  0  0  0  0  0  0  0  0  0  0  0
   19.0952  -24.6434  -13.7351 C   0  0  0  0  0  0  0  0  0  0  0  0
   17.9266  -24.7138  -14.6465 C   0  0  0  0  0  0  0  0  0  0  0  0
   18.2237  -24.4967  -16.0432 N   0  0  0  0  0  0  0  0  0  0  0  0
   21.0183  -21.0134  -11.7978 C   0  0  0  0  0  0  0  0  0  0  0  0
   20.1470  -19.9744  -12.2041 O   0  0  0  0  0  0  0  0  0  0  0  0
   21.2000  -21.0623  -10.5549 O   0  0  0  0  0  0  0  0  0  0  0  0
  2  1  1  6
  2  3  1  0
  3  4  1  0
  4  8  1  0
  5  4  2  0
  6  7  2  0
  6  2  1  0
  9  6  1  0
 10  9  1  0
 10 11  1  1
 11 12  1  0
 12 13  2  0
 12 20  1  0
 13 14  1  0
 14 15  1  0
 15 16  2  0
 16 17  1  0
 18 17  2  0
 19 18  1  0
 20 19  2  0
 20 15  1  0
 21 10  1  0
 22 21  2  0
 23 21  1  0
 24 25  1  1
 24 23  1  0
 26 25  1  0
 27 26  1  0
 27 28  1  0
 28 29  1  0
 30 24  1  0
 31 30  1  0
 32 30  2  0
M  END
$$$$
