DWK.pdb
     RDKit          3D

 32 33  0  0  1  0  0  0  0  0999 V2000
   28.3397  -23.0914  -16.7520 N   0  0  0  0  0  0  0  0  0  0  0  0
   27.5179  -21.9077  -16.6848 C   0  0  1  0  0  0  0  0  0  0  0  0
   26.7390  -21.7715  -17.9711 C   0  0  0  0  0  0  0  0  0  0  0  0
   27.4031  -20.9629  -18.9849 C   0  0  0  0  0  0  0  0  0  0  0  0
   27.5253  -19.7292  -18.7757 O   0  0  0  0  0  0  0  0  0  0  0  0
   26.6247  -21.8537  -15.5165 C   0  0  0  0  0  0  0  0  0  0  0  0
   25.9839  -22.8825  -15.1114 O   0  0  0  0  0  0  0  0  0  0  0  0
   27.9098  -21.4669  -20.1646 O   0  0  0  0  0  0  0  0  0  0  0  0
   26.4032  -20.6892  -14.7611 N   0  0  0  0  0  0  0  0  0  0  0  0
   25.6326  -20.6910  -13.5344 C   0  0  1  0  0  0  0  0  0  0  0  0
   26.1650  -19.6991  -12.5949 C   0  0  0  0  0  0  0  0  0  0  0  0
   27.1648  -20.2981  -11.6740 C   0  0  0  0  0  0  0  0  0  0  0  0
   28.4432  -20.6914  -12.0966 C   0  0  0  0  0  0  0  0  0  0  0  0
   29.0802  -21.1449  -11.0216 N   0  0  0  0  0  0  0  0  0  0  0  0
   28.3049  -21.0746   -9.9295 C   0  0  0  0  0  0  0  0  0  0  0  0
   28.4740  -21.4168   -8.6018 C   0  0  0  0  0  0  0  0  0  0  0  0
   27.4618  -21.2330   -7.7030 C   0  0  0  0  0  0  0  0  0  0  0  0
   26.2537  -20.7052   -8.0945 C   0  0  0  0  0  0  0  0  0  0  0  0
   26.0885  -20.3640   -9.4212 C   0  0  0  0  0  0  0  0  0  0  0  0
   27.1041  -20.5462  -10.3283 C   0  0  0  0  0  0  0  0  0  0  0  0
   24.2204  -20.5456  -13.9066 C   0  0  0  0  0  0  0  0  0  0  0  0
   23.9016  -19.7282  -14.8077 O   0  0  0  0  0  0  0  0  0  0  0  0
   23.1533  -21.2649  -13.3250 N   0  0  0  0  0  0  0  0  0  0  0  0
   21.7473  -21.0848  -13.7746 C   0  0  1  0  0  0  0  0  0  0  0  0
   21.0175  -22.3938  -13.6073 C   0  0  0  0  0  0  0  0  0  0  0  0
   20.3220  -22.4351  -12.2841 C   0  0  0  0  0  0  0  0  0  0  0  0
   19.6231  -23.7231  -11.9720 C   0  0  0  0  0  0  0  0  0  0  0  0
   18.9257  -23.7916  -10.6643 C   0  0  0  0  0  0  0  0  0  0  0  0
   18.2444  -25.0368  -10.3967 N   0  0  0  0  0  0  0  0  0  0  0  0
   21.1959  -20.0779  -12.8479 C   0  0  0  0  0  0  0  0  0  0  0  0
   19.9687  -19.4345  -13.1370 O   0  0  0  0  0  0  0  0  0  0  0  0
   21.7201  -19.7030  -11.7686 O   0  0  0  0  0  0  0  0  0  0  0  0
  2  1  1  6
  2  3  1  0
  3  4  1  0
  4  8  1  0
  5  4  2  0
  6  7  2  0
  6  2  1  0
  9  6  1  0
 10  9  1  0
 10 11  1  1
 11 12  1  0
 12 13  2  0
 12 20  1  0
 13 14  1  0
 14 15  1  0
 15 16  2  0
 16 17  1  0
 18 17  2  0
 19 18  1  0
 20 19  2  0
 20 15  1  0
 21 10  1  0
 22 21  2  0
 23 21  1  0
 24 25  1  1
 24 23  1  0
 26 25  1  0
 27 26  1  0
 27 28  1  0
 28 29  1  0
 30 24  1  0
 31 30  1  0
 32 30  2  0
M  END
$$$$
