DWK.pdb
     RDKit          3D

 32 33  0  0  1  0  0  0  0  0999 V2000
   28.8494  -22.4741  -16.5448 N   0  0  0  0  0  0  0  0  0  0  0  0
   27.8319  -21.4608  -16.4079 C   0  0  1  0  0  0  0  0  0  0  0  0
   26.9902  -21.4311  -17.6611 C   0  0  0  0  0  0  0  0  0  0  0  0
   27.5452  -20.6116  -18.7302 C   0  0  0  0  0  0  0  0  0  0  0  0
   27.8573  -19.4224  -18.4671 O   0  0  0  0  0  0  0  0  0  0  0  0
   26.9911  -21.6022  -15.2084 C   0  0  0  0  0  0  0  0  0  0  0  0
   26.4087  -22.7028  -14.9211 O   0  0  0  0  0  0  0  0  0  0  0  0
   27.7524  -21.0593  -20.0182 O   0  0  0  0  0  0  0  0  0  0  0  0
   26.7602  -20.5598  -14.2942 N   0  0  0  0  0  0  0  0  0  0  0  0
   26.0009  -20.7468  -13.0747 C   0  0  1  0  0  0  0  0  0  0  0  0
   26.4152  -19.7728  -12.0601 C   0  0  0  0  0  0  0  0  0  0  0  0
   27.3896  -20.3584  -11.1039 C   0  0  0  0  0  0  0  0  0  0  0  0
   28.6390  -20.8542  -11.5046 C   0  0  0  0  0  0  0  0  0  0  0  0
   29.2609  -21.2629  -10.4032 N   0  0  0  0  0  0  0  0  0  0  0  0
   28.5027  -21.0681   -9.3142 C   0  0  0  0  0  0  0  0  0  0  0  0
   28.6665  -21.3207   -7.9660 C   0  0  0  0  0  0  0  0  0  0  0  0
   27.6760  -21.0137   -7.0766 C   0  0  0  0  0  0  0  0  0  0  0  0
   26.4955  -20.4480   -7.4982 C   0  0  0  0  0  0  0  0  0  0  0  0
   26.3356  -20.1966   -8.8454 C   0  0  0  0  0  0  0  0  0  0  0  0
   27.3294  -20.5028   -9.7432 C   0  0  0  0  0  0  0  0  0  0  0  0
   24.5797  -20.7432  -13.4414 C   0  0  0  0  0  0  0  0  0  0  0  0
   24.1199  -19.7866  -14.1160 O   0  0  0  0  0  0  0  0  0  0  0  0
   23.6530  -21.7504  -13.0936 N   0  0  0  0  0  0  0  0  0  0  0  0
   22.1988  -21.6094  -13.3709 C   0  0  1  0  0  0  0  0  0  0  0  0
   21.5290  -22.9352  -13.1109 C   0  0  0  0  0  0  0  0  0  0  0  0
   20.0470  -22.8073  -13.2649 C   0  0  0  0  0  0  0  0  0  0  0  0
   19.2780  -24.0835  -13.1073 C   0  0  0  0  0  0  0  0  0  0  0  0
   17.8037  -23.9823  -13.2395 C   0  0  0  0  0  0  0  0  0  0  0  0
   17.0888  -25.2306  -13.1099 N   0  0  0  0  0  0  0  0  0  0  0  0
   21.7372  -20.6100  -12.3886 C   0  0  0  0  0  0  0  0  0  0  0  0
   20.7052  -19.7006  -12.7232 O   0  0  0  0  0  0  0  0  0  0  0  0
   22.1798  -20.4634  -11.2213 O   0  0  0  0  0  0  0  0  0  0  0  0
  2  1  1  6
  2  3  1  0
  3  4  1  0
  4  8  1  0
  5  4  2  0
  6  7  2  0
  6  2  1  0
  9  6  1  0
 10  9  1  0
 10 11  1  1
 11 12  1  0
 12 13  2  0
 12 20  1  0
 13 14  1  0
 14 15  1  0
 15 16  2  0
 16 17  1  0
 18 17  2  0
 19 18  1  0
 20 19  2  0
 20 15  1  0
 21 10  1  0
 22 21  2  0
 23 21  1  0
 24 25  1  1
 24 23  1  0
 26 25  1  0
 27 26  1  0
 27 28  1  0
 28 29  1  0
 30 24  1  0
 31 30  1  0
 32 30  2  0
M  END
$$$$
