DWK.pdb
     RDKit          3D

 32 33  0  0  1  0  0  0  0  0999 V2000
   27.0518  -24.5403  -16.1439 N   0  0  0  0  0  0  0  0  0  0  0  0
   25.9622  -23.6966  -16.5703 C   0  0  1  0  0  0  0  0  0  0  0  0
   24.9760  -24.5226  -17.3609 C   0  0  0  0  0  0  0  0  0  0  0  0
   25.5266  -25.0983  -18.5807 C   0  0  0  0  0  0  0  0  0  0  0  0
   25.0483  -26.1851  -18.9940 O   0  0  0  0  0  0  0  0  0  0  0  0
   25.2915  -22.9723  -15.4788 C   0  0  0  0  0  0  0  0  0  0  0  0
   24.4738  -23.5545  -14.6879 O   0  0  0  0  0  0  0  0  0  0  0  0
   26.5429  -24.5240  -19.3154 O   0  0  0  0  0  0  0  0  0  0  0  0
   25.4880  -21.6052  -15.2179 N   0  0  0  0  0  0  0  0  0  0  0  0
   24.8684  -20.9291  -14.0964 C   0  0  1  0  0  0  0  0  0  0  0  0
   25.7198  -19.8312  -13.6277 C   0  0  0  0  0  0  0  0  0  0  0  0
   26.6508  -20.2774  -12.5597 C   0  0  0  0  0  0  0  0  0  0  0  0
   27.9942  -20.5937  -12.8099 C   0  0  0  0  0  0  0  0  0  0  0  0
   28.5375  -20.9140  -11.6398 N   0  0  0  0  0  0  0  0  0  0  0  0
   27.6408  -20.8288  -10.6461 C   0  0  0  0  0  0  0  0  0  0  0  0
   27.6837  -21.0588   -9.2846 C   0  0  0  0  0  0  0  0  0  0  0  0
   26.5657  -20.8944   -8.5170 C   0  0  0  0  0  0  0  0  0  0  0  0
   25.3739  -20.4977   -9.0769 C   0  0  0  0  0  0  0  0  0  0  0  0
   25.3348  -20.2684  -10.4369 C   0  0  0  0  0  0  0  0  0  0  0  0
   26.4570  -20.4315  -11.2126 C   0  0  0  0  0  0  0  0  0  0  0  0
   23.5048  -20.5699  -14.5034 C   0  0  0  0  0  0  0  0  0  0  0  0
   23.2949  -20.1843  -15.6819 O   0  0  0  0  0  0  0  0  0  0  0  0
   22.3711  -20.6205  -13.6630 N   0  0  0  0  0  0  0  0  0  0  0  0
   21.0222  -20.2126  -14.1382 C   0  0  1  0  0  0  0  0  0  0  0  0
   20.2127  -21.4551  -14.4116 C   0  0  0  0  0  0  0  0  0  0  0  0
   20.6226  -22.0658  -15.7137 C   0  0  0  0  0  0  0  0  0  0  0  0
   19.9204  -23.3411  -16.0679 C   0  0  0  0  0  0  0  0  0  0  0  0
   20.2781  -23.9467  -17.3743 C   0  0  0  0  0  0  0  0  0  0  0  0
   19.5877  -25.1752  -17.6908 N   0  0  0  0  0  0  0  0  0  0  0  0
   20.4439  -19.4745  -12.9992 C   0  0  0  0  0  0  0  0  0  0  0  0
   19.1517  -18.9047  -13.0968 O   0  0  0  0  0  0  0  0  0  0  0  0
   20.9978  -19.2811  -11.8874 O   0  0  0  0  0  0  0  0  0  0  0  0
  2  1  1  1
  2  3  1  0
  3  4  1  0
  4  8  1  0
  5  4  2  0
  6  7  2  0
  6  2  1  0
  9  6  1  0
 10  9  1  0
 10 11  1  6
 11 12  1  0
 12 13  2  0
 12 20  1  0
 13 14  1  0
 14 15  1  0
 15 16  2  0
 16 17  1  0
 18 17  2  0
 19 18  1  0
 20 19  2  0
 20 15  1  0
 21 10  1  0
 22 21  2  0
 23 21  1  0
 24 25  1  1
 24 23  1  0
 26 25  1  0
 27 26  1  0
 27 28  1  0
 28 29  1  0
 30 24  1  0
 31 30  1  0
 32 30  2  0
M  END
$$$$
