YQP.pdb
     RDKit          3D

 29 30  0  0  1  0  0  0  0  0999 V2000
   16.4137  -22.1776  -17.9967 O   0  0  0  0  0  0  0  0  0  0  0  0
   17.4733  -21.5291  -17.3609 C   0  0  0  0  0  0  0  0  0  0  0  0
   17.2938  -20.3408  -16.7022 C   0  0  0  0  0  0  0  0  0  0  0  0
   18.3633  -19.7122  -16.0758 C   0  0  0  0  0  0  0  0  0  0  0  0
   19.6408  -20.2566  -16.0923 C   0  0  0  0  0  0  0  0  0  0  0  0
   20.7754  -19.5831  -15.4238 C   0  0  0  0  0  0  0  0  0  0  0  0
   21.0666  -20.3777  -14.1495 C   0  0  2  0  0  0  0  0  0  0  0  0
   20.0757  -19.9802  -13.1822 N   0  0  0  0  0  0  0  0  0  0  0  0
   22.4611  -20.1239  -13.6859 C   0  0  0  0  0  0  0  0  0  0  0  0
   22.6931  -18.9808  -13.2384 O   0  0  0  0  0  0  0  0  0  0  0  0
   19.7815  -21.4612  -16.7699 C   0  0  0  0  0  0  0  0  0  0  0  0
   18.7415  -22.0938  -17.3916 C   0  0  0  0  0  0  0  0  0  0  0  0
   24.9837  -20.5788  -10.0829 N   0  0  0  0  0  0  0  0  0  0  0  0
   26.3259  -20.9461  -10.4693 C   0  0  0  0  0  0  0  0  0  0  0  0
   27.2261  -20.5755   -9.7077 O   0  0  0  0  0  0  0  0  0  0  0  0
   26.4521  -21.7134  -11.7123 C   0  0  0  0  0  0  0  0  0  0  0  0
   25.2351  -21.8953  -12.5149 C   0  0  0  0  0  0  0  0  0  0  0  0
   24.8405  -20.8783  -13.5246 C   0  0  2  0  0  0  0  0  0  0  0  0
   23.4066  -21.1637  -13.7794 N   0  0  0  0  0  0  0  0  0  0  0  0
   25.6017  -20.7425  -14.7411 C   0  0  0  0  0  0  0  0  0  0  0  0
   25.4256  -21.6417  -15.6352 O   0  0  0  0  0  0  0  0  0  0  0  0
   26.5338  -19.7099  -15.0774 N   0  0  0  0  0  0  0  0  0  0  0  0
   26.9638  -18.7275  -14.1084 C   0  0  0  0  0  0  0  0  0  0  0  0
   28.3275  -18.3078  -14.5770 C   0  0  0  0  0  0  0  0  0  0  0  0
   28.0270  -18.1605  -16.0834 C   0  0  0  0  0  0  0  0  0  0  0  0
   27.2314  -19.4701  -16.2971 C   0  0  1  0  0  0  0  0  0  0  0  0
   28.2085  -20.5215  -16.6370 C   0  0  0  0  0  0  0  0  0  0  0  0
   28.4935  -21.3929  -15.7974 O   0  0  0  0  0  0  0  0  0  0  0  0
   28.8030  -20.5444  -17.8726 O   0  0  0  0  0  0  0  0  0  0  0  0
  2  1  1  0
  3  2  2  0
  4  3  1  0
  5  4  2  0
  5 11  1  0
  6  5  1  0
  7  8  1  1
  7  6  1  0
  9  7  1  0
  9 19  1  0
 10  9  2  0
 11 12  2  0
 12  2  1  0
 14 16  1  0
 14 13  1  0
 15 14  2  0
 17 16  1  0
 18 19  1  0
 18 17  1  1
 20 18  1  0
 21 20  2  0
 22 20  1  0
 23 22  1  0
 24 25  1  0
 24 23  1  0
 25 26  1  0
 26 22  1  0
 26 27  1  1
 27 29  1  0
 28 27  2  0
M  END
$$$$
