YQP.pdb
     RDKit          3D

 29 30  0  0  1  0  0  0  0  0999 V2000
   16.3309  -16.2411  -14.4401 O   0  0  0  0  0  0  0  0  0  0  0  0
   17.2337  -17.2907  -14.2644 C   0  0  0  0  0  0  0  0  0  0  0  0
   18.5557  -17.0592  -13.9872 C   0  0  0  0  0  0  0  0  0  0  0  0
   19.4374  -18.1198  -13.8160 C   0  0  0  0  0  0  0  0  0  0  0  0
   19.0189  -19.4400  -13.9177 C   0  0  0  0  0  0  0  0  0  0  0  0
   19.9619  -20.5648  -13.7344 C   0  0  0  0  0  0  0  0  0  0  0  0
   20.7853  -20.6590  -15.0201 C   0  0  2  0  0  0  0  0  0  0  0  0
   20.1802  -21.6926  -15.8207 N   0  0  0  0  0  0  0  0  0  0  0  0
   22.2156  -20.9374  -14.7021 C   0  0  0  0  0  0  0  0  0  0  0  0
   22.4690  -22.0770  -14.2575 O   0  0  0  0  0  0  0  0  0  0  0  0
   17.6723  -19.6327  -14.1995 C   0  0  0  0  0  0  0  0  0  0  0  0
   16.7907  -18.6024  -14.3711 C   0  0  0  0  0  0  0  0  0  0  0  0
   26.7063  -17.2932  -16.7966 N   0  0  0  0  0  0  0  0  0  0  0  0
   27.4969  -17.9771  -15.8002 C   0  0  0  0  0  0  0  0  0  0  0  0
   28.6883  -17.6527  -15.7422 O   0  0  0  0  0  0  0  0  0  0  0  0
   26.7885  -18.9662  -14.9820 C   0  0  0  0  0  0  0  0  0  0  0  0
   25.3488  -19.1301  -15.2246 C   0  0  0  0  0  0  0  0  0  0  0  0
   24.5566  -20.1012  -14.4252 C   0  0  2  0  0  0  0  0  0  0  0  0
   23.1681  -19.9224  -14.9175 N   0  0  0  0  0  0  0  0  0  0  0  0
   24.6397  -20.0821  -12.9863 C   0  0  0  0  0  0  0  0  0  0  0  0
   24.0008  -19.1504  -12.3839 O   0  0  0  0  0  0  0  0  0  0  0  0
   25.3500  -20.9919  -12.1404 N   0  0  0  0  0  0  0  0  0  0  0  0
   26.1893  -22.0369  -12.6814 C   0  0  0  0  0  0  0  0  0  0  0  0
   27.2126  -22.2899  -11.6117 C   0  0  0  0  0  0  0  0  0  0  0  0
   26.2779  -22.2943  -10.3839 C   0  0  0  0  0  0  0  0  0  0  0  0
   25.4388  -21.0383  -10.7185 C   0  0  1  0  0  0  0  0  0  0  0  0
   26.1374  -19.8798  -10.1307 C   0  0  0  0  0  0  0  0  0  0  0  0
   26.8791  -19.1809  -10.8428 O   0  0  0  0  0  0  0  0  0  0  0  0
   25.9733  -19.5685   -8.8052 O   0  0  0  0  0  0  0  0  0  0  0  0
  2  1  1  0
  3  2  2  0
  4  3  1  0
  5  4  2  0
  5 11  1  0
  6  5  1  0
  7  8  1  6
  7  6  1  0
  9  7  1  0
  9 19  1  0
 10  9  2  0
 11 12  2  0
 12  2  1  0
 14 16  1  0
 14 13  1  0
 15 14  2  0
 17 16  1  0
 18 19  1  0
 18 17  1  6
 20 18  1  0
 21 20  2  0
 22 20  1  0
 23 22  1  0
 24 25  1  0
 24 23  1  0
 25 26  1  0
 26 22  1  0
 26 27  1  6
 27 29  1  0
 28 27  2  0
M  END
$$$$
