YQP.pdb
     RDKit          3D

 29 30  0  0  1  0  0  0  0  0999 V2000
   16.2156  -20.0108  -19.1563 O   0  0  0  0  0  0  0  0  0  0  0  0
   17.2082  -19.6551  -18.2422 C   0  0  0  0  0  0  0  0  0  0  0  0
   16.9972  -18.6849  -17.2975 C   0  0  0  0  0  0  0  0  0  0  0  0
   18.0001  -18.3465  -16.3968 C   0  0  0  0  0  0  0  0  0  0  0  0
   19.2405  -18.9704  -16.4181 C   0  0  0  0  0  0  0  0  0  0  0  0
   20.3042  -18.6062  -15.4569 C   0  0  0  0  0  0  0  0  0  0  0  0
   20.6270  -19.8722  -14.6612 C   0  0  2  0  0  0  0  0  0  0  0  0
   19.6834  -19.9257  -13.5739 N   0  0  0  0  0  0  0  0  0  0  0  0
   22.0438  -19.8466  -14.1961 C   0  0  0  0  0  0  0  0  0  0  0  0
   22.3032  -19.0559  -13.2644 O   0  0  0  0  0  0  0  0  0  0  0  0
   19.4149  -19.9477  -17.3899 C   0  0  0  0  0  0  0  0  0  0  0  0
   18.4405  -20.2937  -18.2838 C   0  0  0  0  0  0  0  0  0  0  0  0
   25.2700  -21.3185  -11.1787 N   0  0  0  0  0  0  0  0  0  0  0  0
   26.4065  -21.7056  -11.9814 C   0  0  0  0  0  0  0  0  0  0  0  0
   27.5072  -21.6422  -11.4225 O   0  0  0  0  0  0  0  0  0  0  0  0
   26.1127  -22.1273  -13.3545 C   0  0  0  0  0  0  0  0  0  0  0  0
   24.7562  -21.8737  -13.8585 C   0  0  0  0  0  0  0  0  0  0  0  0
   24.4196  -20.5712  -14.4909 C   0  0  2  0  0  0  0  0  0  0  0  0
   22.9782  -20.6952  -14.8213 N   0  0  0  0  0  0  0  0  0  0  0  0
   25.2020  -20.0899  -15.6017 C   0  0  0  0  0  0  0  0  0  0  0  0
   24.9351  -20.5839  -16.7523 O   0  0  0  0  0  0  0  0  0  0  0  0
   26.2458  -19.1113  -15.5757 N   0  0  0  0  0  0  0  0  0  0  0  0
   26.7550  -18.5743  -14.3342 C   0  0  0  0  0  0  0  0  0  0  0  0
   28.1660  -18.1683  -14.6498 C   0  0  0  0  0  0  0  0  0  0  0  0
   27.9178  -17.4805  -16.0087 C   0  0  0  0  0  0  0  0  0  0  0  0
   26.9929  -18.5431  -16.6484 C   0  0  1  0  0  0  0  0  0  0  0  0
   27.8606  -19.5120  -17.3441 C   0  0  0  0  0  0  0  0  0  0  0  0
   28.0280  -20.6460  -16.8629 O   0  0  0  0  0  0  0  0  0  0  0  0
   28.4822  -19.1705  -18.5179 O   0  0  0  0  0  0  0  0  0  0  0  0
  2  1  1  0
  3  2  2  0
  4  3  1  0
  5  4  2  0
  5 11  1  0
  6  5  1  0
  7  8  1  1
  7  6  1  0
  9  7  1  0
  9 19  1  0
 10  9  2  0
 11 12  2  0
 12  2  1  0
 14 16  1  0
 14 13  1  0
 15 14  2  0
 17 16  1  0
 18 19  1  0
 18 17  1  6
 20 18  1  0
 21 20  2  0
 22 20  1  0
 23 22  1  0
 24 25  1  0
 24 23  1  0
 25 26  1  0
 26 22  1  0
 26 27  1  1
 27 29  1  0
 28 27  2  0
M  END
$$$$
