YQP.pdb
     RDKit          3D

 29 30  0  0  1  0  0  0  0  0999 V2000
   16.9634  -22.9565  -18.4183 O   0  0  0  0  0  0  0  0  0  0  0  0
   17.8600  -22.1208  -17.7511 C   0  0  0  0  0  0  0  0  0  0  0  0
   19.1964  -22.4161  -17.6794 C   0  0  0  0  0  0  0  0  0  0  0  0
   20.0715  -21.5694  -17.0095 C   0  0  0  0  0  0  0  0  0  0  0  0
   19.6320  -20.4049  -16.3939 C   0  0  0  0  0  0  0  0  0  0  0  0
   20.5681  -19.5074  -15.6823 C   0  0  0  0  0  0  0  0  0  0  0  0
   20.9247  -20.2017  -14.3667 C   0  0  2  0  0  0  0  0  0  0  0  0
   19.9181  -19.8139  -13.4117 N   0  0  0  0  0  0  0  0  0  0  0  0
   22.3030  -19.8266  -13.9380 C   0  0  0  0  0  0  0  0  0  0  0  0
   22.5127  -18.6074  -13.7639 O   0  0  0  0  0  0  0  0  0  0  0  0
   18.2713  -20.1411  -16.4890 C   0  0  0  0  0  0  0  0  0  0  0  0
   17.3959  -20.9618  -17.1433 C   0  0  0  0  0  0  0  0  0  0  0  0
   28.6280  -20.2598  -12.6595 N   0  0  0  0  0  0  0  0  0  0  0  0
   27.6456  -21.2749  -12.9600 C   0  0  0  0  0  0  0  0  0  0  0  0
   27.8555  -21.9427  -13.9787 O   0  0  0  0  0  0  0  0  0  0  0  0
   26.5264  -21.3878  -12.0197 C   0  0  0  0  0  0  0  0  0  0  0  0
   25.1781  -21.5005  -12.5921 C   0  0  0  0  0  0  0  0  0  0  0  0
   24.6858  -20.4887  -13.5633 C   0  0  2  0  0  0  0  0  0  0  0  0
   23.2589  -20.8457  -13.7606 N   0  0  0  0  0  0  0  0  0  0  0  0
   25.3836  -20.2914  -14.8090 C   0  0  0  0  0  0  0  0  0  0  0  0
   25.3868  -21.2735  -15.6303 O   0  0  0  0  0  0  0  0  0  0  0  0
   26.0734  -19.1165  -15.2470 N   0  0  0  0  0  0  0  0  0  0  0  0
   26.3245  -18.0052  -14.3578 C   0  0  0  0  0  0  0  0  0  0  0  0
   27.5576  -17.3508  -14.9114 C   0  0  0  0  0  0  0  0  0  0  0  0
   27.1848  -17.3678  -16.4087 C   0  0  0  0  0  0  0  0  0  0  0  0
   26.6673  -18.8224  -16.5090 C   0  0  1  0  0  0  0  0  0  0  0  0
   27.8273  -19.6750  -16.8306 C   0  0  0  0  0  0  0  0  0  0  0  0
   28.2653  -20.4670  -15.9783 O   0  0  0  0  0  0  0  0  0  0  0  0
   28.4243  -19.6001  -18.0630 O   0  0  0  0  0  0  0  0  0  0  0  0
  2  1  1  0
  3  2  2  0
  4  3  1  0
  5  4  2  0
  5 11  1  0
  6  5  1  0
  7  8  1  1
  7  6  1  0
  9  7  1  0
  9 19  1  0
 10  9  2  0
 11 12  2  0
 12  2  1  0
 14 16  1  0
 14 13  1  0
 15 14  2  0
 17 16  1  0
 18 19  1  0
 18 17  1  6
 20 18  1  0
 21 20  2  0
 22 20  1  0
 23 22  1  0
 24 25  1  0
 24 23  1  0
 25 26  1  0
 26 22  1  0
 26 27  1  1
 27 29  1  0
 28 27  2  0
M  END
$$$$
