YQP.pdb
     RDKit          3D

 29 30  0  0  1  0  0  0  0  0999 V2000
   21.3700  -10.5915    7.0405 O   0  0  0  0  0  0  0  0  0  0  0  0
   20.3288  -11.5170    6.9585 C   0  0  0  0  0  0  0  0  0  0  0  0
   20.1384  -12.4683    7.9266 C   0  0  0  0  0  0  0  0  0  0  0  0
   19.0947  -13.3803    7.8246 C   0  0  0  0  0  0  0  0  0  0  0  0
   18.2140  -13.3640    6.7510 C   0  0  0  0  0  0  0  0  0  0  0  0
   17.1049  -14.3372    6.6478 C   0  0  0  0  0  0  0  0  0  0  0  0
   17.6548  -15.5486    5.8926 C   0  0  2  0  0  0  0  0  0  0  0  0
   16.6012  -16.0021    5.0209 N   0  0  0  0  0  0  0  0  0  0  0  0
   18.1037  -16.5989    6.8515 C   0  0  0  0  0  0  0  0  0  0  0  0
   17.2875  -17.5151    7.0863 O   0  0  0  0  0  0  0  0  0  0  0  0
   18.4404  -12.3852    5.7915 C   0  0  0  0  0  0  0  0  0  0  0  0
   19.4613  -11.4802    5.8749 C   0  0  0  0  0  0  0  0  0  0  0  0
   24.0711  -17.2746    8.1016 N   0  0  0  0  0  0  0  0  0  0  0  0
   23.5858  -18.0989    9.1836 C   0  0  0  0  0  0  0  0  0  0  0  0
   24.4523  -18.6111    9.9010 O   0  0  0  0  0  0  0  0  0  0  0  0
   22.1293  -18.2223    9.2973 C   0  0  0  0  0  0  0  0  0  0  0  0
   21.3141  -17.4170    8.3779 C   0  0  0  0  0  0  0  0  0  0  0  0
   19.8302  -17.4907    8.4263 C   0  0  2  0  0  0  0  0  0  0  0  0
   19.3888  -16.4948    7.4186 N   0  0  0  0  0  0  0  0  0  0  0  0
   19.1456  -17.3432    9.6862 C   0  0  0  0  0  0  0  0  0  0  0  0
   19.1214  -16.1688   10.1954 O   0  0  0  0  0  0  0  0  0  0  0  0
   18.4762  -18.3584   10.4405 N   0  0  0  0  0  0  0  0  0  0  0  0
   18.3663  -19.7167    9.9589 C   0  0  0  0  0  0  0  0  0  0  0  0
   18.2500  -20.5495   11.2032 C   0  0  0  0  0  0  0  0  0  0  0  0
   17.2386  -19.6795   11.9787 C   0  0  0  0  0  0  0  0  0  0  0  0
   17.8795  -18.2928   11.7334 C   0  0  1  0  0  0  0  0  0  0  0  0
   18.8485  -18.0634   12.8217 C   0  0  0  0  0  0  0  0  0  0  0  0
   20.0640  -18.0171   12.5652 O   0  0  0  0  0  0  0  0  0  0  0  0
   18.4170  -17.9001   14.1132 O   0  0  0  0  0  0  0  0  0  0  0  0
  2  1  1  0
  3  2  2  0
  4  3  1  0
  5  4  2  0
  5 11  1  0
  6  5  1  0
  7  8  1  6
  7  6  1  0
  9  7  1  0
  9 19  1  0
 10  9  2  0
 11 12  2  0
 12  2  1  0
 14 16  1  0
 14 13  1  0
 15 14  2  0
 17 16  1  0
 18 19  1  0
 18 17  1  1
 20 18  1  0
 21 20  2  0
 22 20  1  0
 23 22  1  0
 24 25  1  0
 24 23  1  0
 25 26  1  0
 26 22  1  0
 26 27  1  1
 27 29  1  0
 28 27  2  0
M  END
$$$$
