YQP.pdb
     RDKit          3D

 29 30  0  0  1  0  0  0  0  0999 V2000
   15.2419  -10.7227  -23.1445 O   0  0  0  0  0  0  0  0  0  0  0  0
   15.5844   -9.9429  -22.0390 C   0  0  0  0  0  0  0  0  0  0  0  0
   14.6922   -9.7054  -21.0262 C   0  0  0  0  0  0  0  0  0  0  0  0
   15.0548   -8.9256  -19.9344 C   0  0  0  0  0  0  0  0  0  0  0  0
   16.3200   -8.3632  -19.8277 C   0  0  0  0  0  0  0  0  0  0  0  0
   16.7003   -7.5341  -18.6632 C   0  0  0  0  0  0  0  0  0  0  0  0
   17.6754   -8.3692  -17.8315 C   0  0  2  0  0  0  0  0  0  0  0  0
   16.9069   -9.4403  -17.2505 N   0  0  0  0  0  0  0  0  0  0  0  0
   18.3464   -7.5177  -16.8073 C   0  0  0  0  0  0  0  0  0  0  0  0
   17.6727   -7.2448  -15.7913 O   0  0  0  0  0  0  0  0  0  0  0  0
   17.1948   -8.6271  -20.8741 C   0  0  0  0  0  0  0  0  0  0  0  0
   16.8561   -9.3914  -21.9555 C   0  0  0  0  0  0  0  0  0  0  0  0
   20.6824   -7.0923  -12.7934 N   0  0  0  0  0  0  0  0  0  0  0  0
   21.9414   -6.4505  -13.0913 C   0  0  0  0  0  0  0  0  0  0  0  0
   22.5528   -5.9878  -12.1217 O   0  0  0  0  0  0  0  0  0  0  0  0
   22.3373   -6.4307  -14.5028 C   0  0  0  0  0  0  0  0  0  0  0  0
   21.3975   -7.0115  -15.4713 C   0  0  0  0  0  0  0  0  0  0  0  0
   20.3261   -6.1761  -16.0743 C   0  0  2  0  0  0  0  0  0  0  0  0
   19.6658   -7.0850  -17.0439 N   0  0  0  0  0  0  0  0  0  0  0  0
   20.6536   -4.8963  -16.6510 C   0  0  0  0  0  0  0  0  0  0  0  0
   21.4454   -4.9026  -17.6571 O   0  0  0  0  0  0  0  0  0  0  0  0
   20.1904   -3.6073  -16.2365 N   0  0  0  0  0  0  0  0  0  0  0  0
   19.3172   -3.4426  -15.0966 C   0  0  0  0  0  0  0  0  0  0  0  0
   19.6043   -2.0549  -14.5994 C   0  0  0  0  0  0  0  0  0  0  0  0
   19.6287   -1.3166  -15.9543 C   0  0  0  0  0  0  0  0  0  0  0  0
   20.4980   -2.3154  -16.7545 C   0  0  1  0  0  0  0  0  0  0  0  0
   21.9054   -1.9192  -16.5602 C   0  0  0  0  0  0  0  0  0  0  0  0
   22.6238   -2.5615  -15.7747 O   0  0  0  0  0  0  0  0  0  0  0  0
   22.4262   -0.8485  -17.2407 O   0  0  0  0  0  0  0  0  0  0  0  0
  2  1  1  0
  3  2  2  0
  4  3  1  0
  5  4  2  0
  5 11  1  0
  6  5  1  0
  7  8  1  1
  7  6  1  0
  9  7  1  0
  9 19  1  0
 10  9  2  0
 11 12  2  0
 12  2  1  0
 14 16  1  0
 14 13  1  0
 15 14  2  0
 17 16  1  0
 18 19  1  0
 18 17  1  6
 20 18  1  0
 21 20  2  0
 22 20  1  0
 23 22  1  0
 24 25  1  0
 24 23  1  0
 25 26  1  0
 26 22  1  0
 26 27  1  1
 27 29  1  0
 28 27  2  0
M  END
$$$$
