YQP.pdb
     RDKit          3D

 29 30  0  0  1  0  0  0  0  0999 V2000
   26.5105  -15.5255  -16.3193 O   0  0  0  0  0  0  0  0  0  0  0  0
   25.6713  -14.4290  -16.5216 C   0  0  0  0  0  0  0  0  0  0  0  0
   24.8039  -14.3771  -17.5814 C   0  0  0  0  0  0  0  0  0  0  0  0
   23.9770  -13.2751  -17.7636 C   0  0  0  0  0  0  0  0  0  0  0  0
   23.9966  -12.1960  -16.8898 C   0  0  0  0  0  0  0  0  0  0  0  0
   23.1141  -11.0256  -17.0887 C   0  0  0  0  0  0  0  0  0  0  0  0
   22.0637  -11.0760  -15.9778 C   0  0  2  0  0  0  0  0  0  0  0  0
   21.3241  -12.2977  -16.1670 N   0  0  0  0  0  0  0  0  0  0  0  0
   21.1977   -9.8628  -16.0259 C   0  0  0  0  0  0  0  0  0  0  0  0
   20.4116   -9.7856  -16.9938 O   0  0  0  0  0  0  0  0  0  0  0  0
   24.8889  -12.2867  -15.8288 C   0  0  0  0  0  0  0  0  0  0  0  0
   25.7095  -13.3621  -15.6336 C   0  0  0  0  0  0  0  0  0  0  0  0
   17.6865   -8.1601  -11.8450 N   0  0  0  0  0  0  0  0  0  0  0  0
   19.0025   -8.6957  -11.5860 C   0  0  0  0  0  0  0  0  0  0  0  0
   19.1624   -9.2194  -10.4778 O   0  0  0  0  0  0  0  0  0  0  0  0
   19.9810   -8.5542  -12.6686 C   0  0  0  0  0  0  0  0  0  0  0  0
   19.5357   -7.8702  -13.8902 C   0  0  0  0  0  0  0  0  0  0  0  0
   20.4689   -7.6860  -15.0325 C   0  0  2  0  0  0  0  0  0  0  0  0
   21.3175   -8.9031  -15.0019 N   0  0  0  0  0  0  0  0  0  0  0  0
   21.2431   -6.4747  -15.1378 C   0  0  0  0  0  0  0  0  0  0  0  0
   22.2761   -6.3832  -14.3870 O   0  0  0  0  0  0  0  0  0  0  0  0
   20.9995   -5.3543  -15.9940 N   0  0  0  0  0  0  0  0  0  0  0  0
   19.9046   -5.3409  -16.9374 C   0  0  0  0  0  0  0  0  0  0  0  0
   19.5777   -3.8859  -17.1148 C   0  0  0  0  0  0  0  0  0  0  0  0
   21.0128   -3.3330  -17.2419 C   0  0  0  0  0  0  0  0  0  0  0  0
   21.6677   -4.0972  -16.0667 C   0  0  1  0  0  0  0  0  0  0  0  0
   21.4984   -3.2660  -14.8599 C   0  0  0  0  0  0  0  0  0  0  0  0
   20.6196   -3.5561  -14.0298 O   0  0  0  0  0  0  0  0  0  0  0  0
   22.3044   -2.1769  -14.6476 O   0  0  0  0  0  0  0  0  0  0  0  0
  2  1  1  0
  3  2  2  0
  4  3  1  0
  5  4  2  0
  5 11  1  0
  6  5  1  0
  7  8  1  6
  7  6  1  0
  9  7  1  0
  9 19  1  0
 10  9  2  0
 11 12  2  0
 12  2  1  0
 14 16  1  0
 14 13  1  0
 15 14  2  0
 17 16  1  0
 18 19  1  0
 18 17  1  1
 20 18  1  0
 21 20  2  0
 22 20  1  0
 23 22  1  0
 24 25  1  0
 24 23  1  0
 25 26  1  0
 26 22  1  0
 26 27  1  1
 27 29  1  0
 28 27  2  0
M  END
$$$$
