YQP.pdb
     RDKit          3D

 29 30  0  0  1  0  0  0  0  0999 V2000
   14.5965  -13.9215  -17.6518 O   0  0  0  0  0  0  0  0  0  0  0  0
   15.4764  -12.9889  -17.1009 C   0  0  0  0  0  0  0  0  0  0  0  0
   15.9278  -11.9160  -17.8243 C   0  0  0  0  0  0  0  0  0  0  0  0
   16.8039  -10.9993  -17.2556 C   0  0  0  0  0  0  0  0  0  0  0  0
   17.2513  -11.1324  -15.9477 C   0  0  0  0  0  0  0  0  0  0  0  0
   18.1838  -10.1535  -15.3476 C   0  0  0  0  0  0  0  0  0  0  0  0
   19.4804  -10.2326  -16.1555 C   0  0  2  0  0  0  0  0  0  0  0  0
   20.0903  -11.4967  -15.8307 N   0  0  0  0  0  0  0  0  0  0  0  0
   20.3596   -9.0694  -15.8424 C   0  0  0  0  0  0  0  0  0  0  0  0
   20.6657   -8.9184  -14.6406 O   0  0  0  0  0  0  0  0  0  0  0  0
   16.7711  -12.2324  -15.2480 C   0  0  0  0  0  0  0  0  0  0  0  0
   15.9093  -13.1440  -15.7907 C   0  0  0  0  0  0  0  0  0  0  0  0
   22.5887   -8.8304  -19.8832 N   0  0  0  0  0  0  0  0  0  0  0  0
   23.6137   -9.0968  -18.9012 C   0  0  0  0  0  0  0  0  0  0  0  0
   24.3304  -10.0790  -19.1236 O   0  0  0  0  0  0  0  0  0  0  0  0
   23.6776   -8.1691  -17.7677 C   0  0  0  0  0  0  0  0  0  0  0  0
   22.6628   -7.1083  -17.7109 C   0  0  0  0  0  0  0  0  0  0  0  0
   21.6659   -7.0787  -16.6087 C   0  0  2  0  0  0  0  0  0  0  0  0
   20.7798   -8.2340  -16.8957 N   0  0  0  0  0  0  0  0  0  0  0  0
   20.9285   -5.8694  -16.3410 C   0  0  0  0  0  0  0  0  0  0  0  0
   19.9713   -5.5879  -17.1434 O   0  0  0  0  0  0  0  0  0  0  0  0
   21.1331   -4.9402  -15.2721 N   0  0  0  0  0  0  0  0  0  0  0  0
   22.1037   -5.1819  -14.2287 C   0  0  0  0  0  0  0  0  0  0  0  0
   22.4937   -3.8122  -13.7523 C   0  0  0  0  0  0  0  0  0  0  0  0
   21.0899   -3.1751  -13.6830 C   0  0  0  0  0  0  0  0  0  0  0  0
   20.5383   -3.6653  -15.0429 C   0  0  1  0  0  0  0  0  0  0  0  0
   20.9032   -2.6518  -16.0505 C   0  0  0  0  0  0  0  0  0  0  0  0
   20.2835   -1.5749  -16.0943 O   0  0  0  0  0  0  0  0  0  0  0  0
   21.9216   -2.8894  -16.9378 O   0  0  0  0  0  0  0  0  0  0  0  0
  2  1  1  0
  3  2  2  0
  4  3  1  0
  5  4  2  0
  5 11  1  0
  6  5  1  0
  7  8  1  1
  7  6  1  0
  9  7  1  0
  9 19  1  0
 10  9  2  0
 11 12  2  0
 12  2  1  0
 14 16  1  0
 14 13  1  0
 15 14  2  0
 17 16  1  0
 18 19  1  0
 18 17  1  6
 20 18  1  0
 21 20  2  0
 22 20  1  0
 23 22  1  0
 24 25  1  0
 24 23  1  0
 25 26  1  0
 26 22  1  0
 26 27  1  6
 27 29  1  0
 28 27  2  0
M  END
$$$$
