YQP.pdb
     RDKit          3D

 29 30  0  0  1  0  0  0  0  0999 V2000
   36.8252  -25.5084  -18.4866 O   0  0  0  0  0  0  0  0  0  0  0  0
   35.4415  -25.3821  -18.6156 C   0  0  0  0  0  0  0  0  0  0  0  0
   34.8401  -24.1541  -18.7082 C   0  0  0  0  0  0  0  0  0  0  0  0
   33.4600  -24.0517  -18.8362 C   0  0  0  0  0  0  0  0  0  0  0  0
   32.6456  -25.1758  -18.8749 C   0  0  0  0  0  0  0  0  0  0  0  0
   31.1772  -25.0607  -19.0112 C   0  0  0  0  0  0  0  0  0  0  0  0
   30.6298  -24.7680  -17.6131 C   0  0  2  0  0  0  0  0  0  0  0  0
   30.6496  -26.0166  -16.8947 N   0  0  0  0  0  0  0  0  0  0  0  0
   29.2645  -24.1748  -17.7032 C   0  0  0  0  0  0  0  0  0  0  0  0
   28.3133  -24.9842  -17.7319 O   0  0  0  0  0  0  0  0  0  0  0  0
   33.2928  -26.4012  -18.7782 C   0  0  0  0  0  0  0  0  0  0  0  0
   34.6485  -26.5214  -18.6519 C   0  0  0  0  0  0  0  0  0  0  0  0
   24.1150  -20.5271  -16.4550 N   0  0  0  0  0  0  0  0  0  0  0  0
   25.4125  -20.9130  -15.9518 C   0  0  0  0  0  0  0  0  0  0  0  0
   25.4091  -21.7264  -15.0211 O   0  0  0  0  0  0  0  0  0  0  0  0
   26.5688  -20.2954  -16.6085 C   0  0  0  0  0  0  0  0  0  0  0  0
   27.7587  -21.1354  -16.8010 C   0  0  0  0  0  0  0  0  0  0  0  0
   27.7893  -22.1621  -17.8755 C   0  0  2  0  0  0  0  0  0  0  0  0
   29.1359  -22.7729  -17.7493 N   0  0  0  0  0  0  0  0  0  0  0  0
   27.4761  -21.7898  -19.2323 C   0  0  0  0  0  0  0  0  0  0  0  0
   28.2739  -20.9675  -19.8037 O   0  0  0  0  0  0  0  0  0  0  0  0
   26.3752  -22.2384  -20.0290 N   0  0  0  0  0  0  0  0  0  0  0  0
   25.3939  -23.1678  -19.5170 C   0  0  0  0  0  0  0  0  0  0  0  0
   24.1476  -22.8693  -20.2999 C   0  0  0  0  0  0  0  0  0  0  0  0
   24.7723  -22.7496  -21.7059 C   0  0  0  0  0  0  0  0  0  0  0  0
   25.9919  -21.8664  -21.3506 C   0  0  1  0  0  0  0  0  0  0  0  0
   25.5595  -20.4610  -21.4682 C   0  0  0  0  0  0  0  0  0  0  0  0
   25.4161  -19.7723  -20.4432 O   0  0  0  0  0  0  0  0  0  0  0  0
   25.3161  -19.9097  -22.7001 O   0  0  0  0  0  0  0  0  0  0  0  0
  2  1  1  0
  3  2  2  0
  4  3  1  0
  5  4  2  0
  5 11  1  0
  6  5  1  0
  7  8  1  1
  7  6  1  0
  9  7  1  0
  9 19  1  0
 10  9  2  0
 11 12  2  0
 12  2  1  0
 14 16  1  0
 14 13  1  0
 15 14  2  0
 17 16  1  0
 18 19  1  0
 18 17  1  1
 20 18  1  0
 21 20  2  0
 22 20  1  0
 23 22  1  0
 24 25  1  0
 24 23  1  0
 25 26  1  0
 26 22  1  0
 26 27  1  1
 27 29  1  0
 28 27  2  0
M  END
$$$$
