YQP.pdb
     RDKit          3D

 29 30  0  0  1  0  0  0  0  0999 V2000
   28.4030  -18.4289   -3.5052 O   0  0  0  0  0  0  0  0  0  0  0  0
   28.1885  -19.0389   -4.7419 C   0  0  0  0  0  0  0  0  0  0  0  0
   28.1074  -20.4015   -4.8638 C   0  0  0  0  0  0  0  0  0  0  0  0
   27.8933  -20.9877   -6.1056 C   0  0  0  0  0  0  0  0  0  0  0  0
   27.7548  -20.2253   -7.2580 C   0  0  0  0  0  0  0  0  0  0  0  0
   27.5271  -20.8548   -8.5770 C   0  0  0  0  0  0  0  0  0  0  0  0
   26.0403  -20.6825   -8.8930 C   0  0  2  0  0  0  0  0  0  0  0  0
   25.3178  -21.3929   -7.8689 N   0  0  0  0  0  0  0  0  0  0  0  0
   25.7393  -21.1828  -10.2653 C   0  0  0  0  0  0  0  0  0  0  0  0
   25.9404  -22.3996  -10.4642 O   0  0  0  0  0  0  0  0  0  0  0  0
   27.8431  -18.8488   -7.0927 C   0  0  0  0  0  0  0  0  0  0  0  0
   28.0532  -18.2546   -5.8798 C   0  0  0  0  0  0  0  0  0  0  0  0
   21.3721  -18.9537  -12.3004 N   0  0  0  0  0  0  0  0  0  0  0  0
   21.4861  -20.1902  -11.5630 C   0  0  0  0  0  0  0  0  0  0  0  0
   20.6220  -20.3848  -10.7009 O   0  0  0  0  0  0  0  0  0  0  0  0
   22.6082  -21.0593  -11.9307 C   0  0  0  0  0  0  0  0  0  0  0  0
   23.6022  -20.5127  -12.8643 C   0  0  0  0  0  0  0  0  0  0  0  0
   25.0542  -20.7251  -12.6271 C   0  0  2  0  0  0  0  0  0  0  0  0
   25.2585  -20.2740  -11.2281 N   0  0  0  0  0  0  0  0  0  0  0  0
   26.0195  -20.1606  -13.5366 C   0  0  0  0  0  0  0  0  0  0  0  0
   26.1362  -18.8857  -13.5356 O   0  0  0  0  0  0  0  0  0  0  0  0
   26.8774  -20.8597  -14.4438 N   0  0  0  0  0  0  0  0  0  0  0  0
   26.9100  -22.3035  -14.5013 C   0  0  0  0  0  0  0  0  0  0  0  0
   27.3411  -22.6151  -15.9057 C   0  0  0  0  0  0  0  0  0  0  0  0
   28.4813  -21.5839  -16.0394 C   0  0  0  0  0  0  0  0  0  0  0  0
   27.7604  -20.3525  -15.4414 C   0  0  1  0  0  0  0  0  0  0  0  0
   27.0697  -19.6713  -16.5525 C   0  0  0  0  0  0  0  0  0  0  0  0
   25.8390  -19.7925  -16.6802 O   0  0  0  0  0  0  0  0  0  0  0  0
   27.7758  -18.9050  -17.4442 O   0  0  0  0  0  0  0  0  0  0  0  0
  2  1  1  0
  3  2  2  0
  4  3  1  0
  5  4  2  0
  5 11  1  0
  6  5  1  0
  7  8  1  1
  7  6  1  0
  9  7  1  0
  9 19  1  0
 10  9  2  0
 11 12  2  0
 12  2  1  0
 14 16  1  0
 14 13  1  0
 15 14  2  0
 17 16  1  0
 18 19  1  0
 18 17  1  6
 20 18  1  0
 21 20  2  0
 22 20  1  0
 23 22  1  0
 24 25  1  0
 24 23  1  0
 25 26  1  0
 26 22  1  0
 26 27  1  6
 27 29  1  0
 28 27  2  0
M  END
$$$$
