YQP.pdb
     RDKit          3D

 29 30  0  0  1  0  0  0  0  0999 V2000
   21.6740  -21.2155   -8.0907 O   0  0  0  0  0  0  0  0  0  0  0  0
   22.7090  -20.9393   -8.9851 C   0  0  0  0  0  0  0  0  0  0  0  0
   23.9957  -20.7476   -8.5542 C   0  0  0  0  0  0  0  0  0  0  0  0
   25.0111  -20.4736   -9.4628 C   0  0  0  0  0  0  0  0  0  0  0  0
   24.7651  -20.3844  -10.8266 C   0  0  0  0  0  0  0  0  0  0  0  0
   25.8498  -20.0925  -11.7890 C   0  0  0  0  0  0  0  0  0  0  0  0
   26.0442  -21.3580  -12.6259 C   0  0  2  0  0  0  0  0  0  0  0  0
   26.7355  -22.3033  -11.7868 N   0  0  0  0  0  0  0  0  0  0  0  0
   26.7903  -21.0434  -13.8783 C   0  0  0  0  0  0  0  0  0  0  0  0
   27.9498  -20.6020  -13.7322 O   0  0  0  0  0  0  0  0  0  0  0  0
   23.4488  -20.5848  -11.2231 C   0  0  0  0  0  0  0  0  0  0  0  0
   22.4375  -20.8551  -10.3443 C   0  0  0  0  0  0  0  0  0  0  0  0
   26.4054  -24.7612  -16.0775 N   0  0  0  0  0  0  0  0  0  0  0  0
   27.5519  -24.5055  -16.9176 C   0  0  0  0  0  0  0  0  0  0  0  0
   28.3909  -25.4114  -16.9742 O   0  0  0  0  0  0  0  0  0  0  0  0
   27.5756  -23.2075  -17.5989 C   0  0  0  0  0  0  0  0  0  0  0  0
   26.5524  -22.2273  -17.2109 C   0  0  0  0  0  0  0  0  0  0  0  0
   26.9144  -21.0516  -16.3765 C   0  0  2  0  0  0  0  0  0  0  0  0
   26.1564  -21.2584  -15.1176 N   0  0  0  0  0  0  0  0  0  0  0  0
   26.7548  -19.7203  -16.9056 C   0  0  0  0  0  0  0  0  0  0  0  0
   25.5574  -19.2773  -17.0013 O   0  0  0  0  0  0  0  0  0  0  0  0
   27.7828  -18.8216  -17.3337 N   0  0  0  0  0  0  0  0  0  0  0  0
   29.1836  -19.1618  -17.2284 C   0  0  0  0  0  0  0  0  0  0  0  0
   29.8471  -18.3674  -18.3166 C   0  0  0  0  0  0  0  0  0  0  0  0
   29.1273  -17.0196  -18.1007 C   0  0  0  0  0  0  0  0  0  0  0  0
   27.6786  -17.5435  -17.9562 C   0  0  1  0  0  0  0  0  0  0  0  0
   27.0965  -17.5903  -19.3107 C   0  0  0  0  0  0  0  0  0  0  0  0
   27.0356  -18.6731  -19.9185 O   0  0  0  0  0  0  0  0  0  0  0  0
   26.6215  -16.4481  -19.9028 O   0  0  0  0  0  0  0  0  0  0  0  0
  2  1  1  0
  3  2  2  0
  4  3  1  0
  5  4  2  0
  5 11  1  0
  6  5  1  0
  7  8  1  1
  7  6  1  0
  9  7  1  0
  9 19  1  0
 10  9  2  0
 11 12  2  0
 12  2  1  0
 14 16  1  0
 14 13  1  0
 15 14  2  0
 17 16  1  0
 18 19  1  0
 18 17  1  6
 20 18  1  0
 21 20  2  0
 22 20  1  0
 23 22  1  0
 24 25  1  0
 24 23  1  0
 25 26  1  0
 26 22  1  0
 26 27  1  6
 27 29  1  0
 28 27  2  0
M  END
$$$$
