VNM.pdb
     RDKit          3D

 24 23  0  0  1  0  0  0  0  0999 V2000
    6.7228  -14.3250   19.0369 C   0  0  0  0  0  0  0  0  0  0  0  0
    7.6456  -13.2893   19.5992 C   0  0  2  0  0  0  0  0  0  0  0  0
    7.9781  -12.2227   18.5718 C   0  0  0  0  0  0  0  0  0  0  0  0
    8.9265  -13.9031   20.1094 C   0  0  2  0  0  0  0  0  0  0  0  0
    9.6342  -14.6458   19.1190 N   0  0  0  0  0  0  0  0  0  0  0  0
    8.5944  -14.8010   21.2405 C   0  0  0  0  0  0  0  0  0  0  0  0
    7.6677  -14.5090   22.0396 O   0  0  0  0  0  0  0  0  0  0  0  0
   10.0694  -19.3412   20.1801 N   0  0  0  0  0  0  0  0  0  0  0  0
    9.3011  -18.9769   21.3344 C   0  0  0  0  0  0  0  0  0  0  0  0
    8.1345  -19.4235   21.3878 O   0  0  0  0  0  0  0  0  0  0  0  0
    9.9119  -18.1206   22.3647 C   0  0  0  0  0  0  0  0  0  0  0  0
    9.0795  -16.8856   22.5490 C   0  0  2  0  0  0  0  0  0  0  0  0
    9.3383  -16.0023   21.4136 N   0  0  0  0  0  0  0  0  0  0  0  0
    9.5334  -16.1530   23.7887 C   0  0  0  0  0  0  0  0  0  0  0  0
   10.7357  -15.8393   23.9654 O   0  0  0  0  0  0  0  0  0  0  0  0
    6.5908  -11.0424   25.9999 C   0  0  0  0  0  0  0  0  0  0  0  0
    6.9118  -11.8880   27.5598 S   0  0  0  0  0  0  0  0  0  0  0  0
    8.2664  -13.0918   27.3448 C   0  0  0  0  0  0  0  0  0  0  0  0
    7.9897  -13.9824   26.1884 C   0  0  0  0  0  0  0  0  0  0  0  0
    9.0712  -15.0062   25.9503 C   0  0  2  0  0  0  0  0  0  0  0  0
    8.6094  -15.7913   24.8041 N   0  0  0  0  0  0  0  0  0  0  0  0
    9.2383  -15.8338   27.1404 C   0  0  0  0  0  0  0  0  0  0  0  0
    8.8551  -17.1884   27.0631 O   0  0  0  0  0  0  0  0  0  0  0  0
    9.6902  -15.4516   28.2225 O   0  0  0  0  0  0  0  0  0  0  0  0
  2  1  1  6
  2  3  1  0
  4  2  1  0
  4  6  1  0
  4  5  1  6
  6  7  2  0
  9 11  1  0
  9  8  1  0
 10  9  2  0
 12 11  1  6
 13  6  1  0
 13 12  1  0
 14 12  1  0
 14 15  2  0
 16 17  1  0
 18 17  1  0
 19 18  1  0
 20 21  1  0
 20 19  1  1
 21 14  1  0
 22 20  1  0
 23 22  1  0
 24 22  2  0
M  END
$$$$
