VNM.pdb
     RDKit          3D

 24 23  0  0  1  0  0  0  0  0999 V2000
    9.2181  -14.1316   19.3967 C   0  0  0  0  0  0  0  0  0  0  0  0
    7.8001  -14.5662   19.5980 C   0  0  2  0  0  0  0  0  0  0  0  0
    6.8206  -13.5304   19.0770 C   0  0  0  0  0  0  0  0  0  0  0  0
    7.5036  -14.8423   21.0518 C   0  0  2  0  0  0  0  0  0  0  0  0
    7.5492  -13.6768   21.8720 N   0  0  0  0  0  0  0  0  0  0  0  0
    8.4957  -15.8232   21.5514 C   0  0  0  0  0  0  0  0  0  0  0  0
    8.3858  -17.0447   21.2716 O   0  0  0  0  0  0  0  0  0  0  0  0
   11.8843  -17.8922   20.9501 N   0  0  0  0  0  0  0  0  0  0  0  0
   12.2877  -16.5264   21.1146 C   0  0  0  0  0  0  0  0  0  0  0  0
   12.9340  -16.0215   20.1709 O   0  0  0  0  0  0  0  0  0  0  0  0
   11.9283  -15.8136   22.3518 C   0  0  0  0  0  0  0  0  0  0  0  0
   10.5947  -16.2978   22.8406 C   0  0  2  0  0  0  0  0  0  0  0  0
    9.5787  -15.3663   22.3544 N   0  0  0  0  0  0  0  0  0  0  0  0
   10.5596  -16.2389   24.3489 C   0  0  0  0  0  0  0  0  0  0  0  0
   11.4935  -16.7016   25.0480 O   0  0  0  0  0  0  0  0  0  0  0  0
    5.9164  -12.3949   26.4276 C   0  0  0  0  0  0  0  0  0  0  0  0
    7.5245  -12.0998   27.1883 S   0  0  0  0  0  0  0  0  0  0  0  0
    8.7502  -13.2767   26.5229 C   0  0  0  0  0  0  0  0  0  0  0  0
    8.3824  -14.6692   26.8870 C   0  0  0  0  0  0  0  0  0  0  0  0
    9.4266  -15.6848   26.4961 C   0  0  2  0  0  0  0  0  0  0  0  0
    9.4616  -15.6541   25.0329 N   0  0  0  0  0  0  0  0  0  0  0  0
    9.0486  -17.0008   27.0004 C   0  0  0  0  0  0  0  0  0  0  0  0
    9.3946  -17.3246   28.3282 O   0  0  0  0  0  0  0  0  0  0  0  0
    8.4460  -17.8677   26.3627 O   0  0  0  0  0  0  0  0  0  0  0  0
  2  1  1  1
  2  3  1  0
  4  2  1  0
  4  6  1  0
  4  5  1  1
  6  7  2  0
  9 11  1  0
  9  8  1  0
 10  9  2  0
 12 11  1  6
 13  6  1  0
 13 12  1  0
 14 12  1  0
 14 15  2  0
 16 17  1  0
 18 17  1  0
 19 18  1  0
 20 21  1  0
 20 19  1  6
 21 14  1  0
 22 20  1  0
 23 22  1  0
 24 22  2  0
M  END
$$$$
