VNM.pdb
     RDKit          3D

 24 23  0  0  1  0  0  0  0  0999 V2000
    7.2896  -13.0740   20.2442 C   0  0  0  0  0  0  0  0  0  0  0  0
    8.5729  -13.3653   19.5311 C   0  0  2  0  0  0  0  0  0  0  0  0
    8.7428  -12.4838   18.3073 C   0  0  0  0  0  0  0  0  0  0  0  0
    8.6626  -14.8134   19.1158 C   0  0  2  0  0  0  0  0  0  0  0  0
    7.8317  -15.1377   18.0034 N   0  0  0  0  0  0  0  0  0  0  0  0
    8.2719  -15.6545   20.2716 C   0  0  0  0  0  0  0  0  0  0  0  0
    7.0667  -15.9600   20.4633 O   0  0  0  0  0  0  0  0  0  0  0  0
   11.8808  -17.9848   21.1867 N   0  0  0  0  0  0  0  0  0  0  0  0
   11.1320  -17.8450   22.4013 C   0  0  0  0  0  0  0  0  0  0  0  0
   11.7750  -17.4833   23.4107 O   0  0  0  0  0  0  0  0  0  0  0  0
    9.6870  -18.1273   22.3927 C   0  0  0  0  0  0  0  0  0  0  0  0
    8.9232  -16.8356   22.3868 C   0  0  2  0  0  0  0  0  0  0  0  0
    9.2791  -16.1149   21.1661 N   0  0  0  0  0  0  0  0  0  0  0  0
    9.3704  -15.9810   23.5484 C   0  0  0  0  0  0  0  0  0  0  0  0
   10.4711  -15.3781   23.5372 O   0  0  0  0  0  0  0  0  0  0  0  0
    5.8240  -11.6965   25.6343 C   0  0  0  0  0  0  0  0  0  0  0  0
    6.6994  -11.8296   27.2051 S   0  0  0  0  0  0  0  0  0  0  0  0
    8.1260  -12.9535   27.0262 C   0  0  0  0  0  0  0  0  0  0  0  0
    7.8569  -13.9696   25.9764 C   0  0  0  0  0  0  0  0  0  0  0  0
    8.9936  -14.9410   25.7794 C   0  0  2  0  0  0  0  0  0  0  0  0
    8.5557  -15.8290   24.7011 N   0  0  0  0  0  0  0  0  0  0  0  0
    9.2373  -15.6734   27.0176 C   0  0  0  0  0  0  0  0  0  0  0  0
    9.8814  -14.9942   28.0720 O   0  0  0  0  0  0  0  0  0  0  0  0
    8.9274  -16.8483   27.2293 O   0  0  0  0  0  0  0  0  0  0  0  0
  2  1  1  6
  2  3  1  0
  4  2  1  0
  4  6  1  0
  4  5  1  6
  6  7  2  0
  9 11  1  0
  9  8  1  0
 10  9  2  0
 12 11  1  6
 13  6  1  0
 13 12  1  0
 14 12  1  0
 14 15  2  0
 16 17  1  0
 18 17  1  0
 19 18  1  0
 20 21  1  0
 20 19  1  1
 21 14  1  0
 22 20  1  0
 23 22  1  0
 24 22  2  0
M  END
$$$$
