VNM.pdb
     RDKit          3D

 24 23  0  0  1  0  0  0  0  0999 V2000
    9.3400  -13.3842   19.6632 C   0  0  0  0  0  0  0  0  0  0  0  0
    7.9868  -13.9280   19.3267 C   0  0  2  0  0  0  0  0  0  0  0  0
    7.0581  -12.8385   18.8227 C   0  0  0  0  0  0  0  0  0  0  0  0
    7.3514  -14.6125   20.5121 C   0  0  2  0  0  0  0  0  0  0  0  0
    7.1184  -13.7388   21.6147 N   0  0  0  0  0  0  0  0  0  0  0  0
    8.2435  -15.7126   20.9481 C   0  0  0  0  0  0  0  0  0  0  0  0
    8.5094  -16.6671   20.1731 O   0  0  0  0  0  0  0  0  0  0  0  0
   11.5817  -17.7080   19.5846 N   0  0  0  0  0  0  0  0  0  0  0  0
   10.7536  -17.7375   20.7545 C   0  0  0  0  0  0  0  0  0  0  0  0
    9.9326  -18.6774   20.8294 O   0  0  0  0  0  0  0  0  0  0  0  0
   10.9116  -16.6879   21.7750 C   0  0  0  0  0  0  0  0  0  0  0  0
    9.7329  -16.7092   22.7035 C   0  0  2  0  0  0  0  0  0  0  0  0
    8.7984  -15.6772   22.2586 N   0  0  0  0  0  0  0  0  0  0  0  0
   10.1805  -16.3273   24.0941 C   0  0  0  0  0  0  0  0  0  0  0  0
   11.0821  -16.9621   24.6933 O   0  0  0  0  0  0  0  0  0  0  0  0
    5.8293  -11.9054   26.9462 C   0  0  0  0  0  0  0  0  0  0  0  0
    7.6279  -11.7783   26.9708 S   0  0  0  0  0  0  0  0  0  0  0  0
    8.3542  -13.0561   25.8891 C   0  0  0  0  0  0  0  0  0  0  0  0
    8.2356  -14.3965   26.5185 C   0  0  0  0  0  0  0  0  0  0  0  0
    9.4077  -15.2996   26.2266 C   0  0  2  0  0  0  0  0  0  0  0  0
    9.5929  -15.2295   24.7760 N   0  0  0  0  0  0  0  0  0  0  0  0
    9.1070  -16.6573   26.6683 C   0  0  0  0  0  0  0  0  0  0  0  0
    9.6311  -17.0813   27.9066 O   0  0  0  0  0  0  0  0  0  0  0  0
    8.4270  -17.4793   26.0493 O   0  0  0  0  0  0  0  0  0  0  0  0
  2  1  1  1
  2  3  1  0
  4  2  1  0
  4  6  1  0
  4  5  1  1
  6  7  2  0
  9 11  1  0
  9  8  1  0
 10  9  2  0
 12 11  1  6
 13  6  1  0
 13 12  1  0
 14 12  1  0
 14 15  2  0
 16 17  1  0
 18 17  1  0
 19 18  1  0
 20 21  1  0
 20 19  1  6
 21 14  1  0
 22 20  1  0
 23 22  1  0
 24 22  2  0
M  END
$$$$
