VNM.pdb
     RDKit          3D

 24 23  0  0  1  0  0  0  0  0999 V2000
   -1.9854  -25.3138   23.6464 C   0  0  0  0  0  0  0  0  0  0  0  0
   -1.3226  -25.9630   24.8209 C   0  0  2  0  0  0  0  0  0  0  0  0
   -1.9045  -27.3367   25.1000 C   0  0  0  0  0  0  0  0  0  0  0  0
   -1.4362  -25.1142   26.0635 C   0  0  2  0  0  0  0  0  0  0  0  0
   -0.7833  -25.6788   27.1985 N   0  0  0  0  0  0  0  0  0  0  0  0
   -2.8738  -24.9332   26.3741 C   0  0  0  0  0  0  0  0  0  0  0  0
   -3.6349  -24.3437   25.5644 O   0  0  0  0  0  0  0  0  0  0  0  0
   -7.8305  -27.1940   26.5827 N   0  0  0  0  0  0  0  0  0  0  0  0
   -6.9753  -26.1904   27.1456 C   0  0  0  0  0  0  0  0  0  0  0  0
   -7.5388  -25.2799   27.7909 O   0  0  0  0  0  0  0  0  0  0  0  0
   -5.5207  -26.2852   26.9381 C   0  0  0  0  0  0  0  0  0  0  0  0
   -4.8161  -25.3734   27.8994 C   0  0  2  0  0  0  0  0  0  0  0  0
   -3.3861  -25.4357   27.6035 N   0  0  0  0  0  0  0  0  0  0  0  0
   -4.9969  -25.8891   29.3070 C   0  0  0  0  0  0  0  0  0  0  0  0
   -6.1363  -26.0569   29.8056 O   0  0  0  0  0  0  0  0  0  0  0  0
    0.6837  -29.4212   31.6219 C   0  0  0  0  0  0  0  0  0  0  0  0
   -0.2708  -28.0504   32.3012 S   0  0  0  0  0  0  0  0  0  0  0  0
   -1.9475  -28.0459   31.5808 C   0  0  0  0  0  0  0  0  0  0  0  0
   -2.7165  -26.8706   32.0649 C   0  0  0  0  0  0  0  0  0  0  0  0
   -4.0919  -26.7641   31.4555 C   0  0  2  0  0  0  0  0  0  0  0  0
   -3.8766  -26.2039   30.1202 N   0  0  0  0  0  0  0  0  0  0  0  0
   -4.9301  -25.8971   32.2769 C   0  0  0  0  0  0  0  0  0  0  0  0
   -5.5278  -26.4516   33.4271 O   0  0  0  0  0  0  0  0  0  0  0  0
   -5.1668  -24.7073   32.0542 O   0  0  0  0  0  0  0  0  0  0  0  0
  2  1  1  6
  2  3  1  0
  4  2  1  0
  4  6  1  0
  4  5  1  1
  6  7  2  0
  9 11  1  0
  9  8  1  0
 10  9  2  0
 12 11  1  6
 13  6  1  0
 13 12  1  0
 14 12  1  0
 14 15  2  0
 16 17  1  0
 18 17  1  0
 19 18  1  0
 20 21  1  0
 20 19  1  1
 21 14  1  0
 22 20  1  0
 23 22  1  0
 24 22  2  0
M  END
$$$$
