VNM.pdb
     RDKit          3D

 24 23  0  0  1  0  0  0  0  0999 V2000
    6.7698  -14.5383   18.9825 C   0  0  0  0  0  0  0  0  0  0  0  0
    7.4537  -13.3422   19.5672 C   0  0  2  0  0  0  0  0  0  0  0  0
    7.7566  -12.2997   18.5066 C   0  0  0  0  0  0  0  0  0  0  0  0
    8.7342  -13.7214   20.2702 C   0  0  2  0  0  0  0  0  0  0  0  0
    9.7203  -14.2688   19.3978 N   0  0  0  0  0  0  0  0  0  0  0  0
    8.4122  -14.7167   21.3198 C   0  0  0  0  0  0  0  0  0  0  0  0
    7.3820  -14.5881   22.0302 O   0  0  0  0  0  0  0  0  0  0  0  0
   10.1110  -18.9312   19.8270 N   0  0  0  0  0  0  0  0  0  0  0  0
    9.2321  -18.6814   20.9318 C   0  0  0  0  0  0  0  0  0  0  0  0
    8.0348  -19.0041   20.7719 O   0  0  0  0  0  0  0  0  0  0  0  0
    9.7735  -18.0754   22.1596 C   0  0  0  0  0  0  0  0  0  0  0  0
    8.9774  -16.8521   22.5087 C   0  0  2  0  0  0  0  0  0  0  0  0
    9.2847  -15.8242   21.5161 N   0  0  0  0  0  0  0  0  0  0  0  0
    9.4315  -16.3210   23.8471 C   0  0  0  0  0  0  0  0  0  0  0  0
   10.6190  -16.4412   24.2349 O   0  0  0  0  0  0  0  0  0  0  0  0
    6.7589  -11.2355   27.7100 C   0  0  0  0  0  0  0  0  0  0  0  0
    6.0673  -12.3883   26.5082 S   0  0  0  0  0  0  0  0  0  0  0  0
    7.4082  -13.3531   25.7324 C   0  0  0  0  0  0  0  0  0  0  0  0
    7.8374  -14.4575   26.6286 C   0  0  0  0  0  0  0  0  0  0  0  0
    8.9656  -15.2826   26.0620 C   0  0  2  0  0  0  0  0  0  0  0  0
    8.5246  -15.6629   24.7188 N   0  0  0  0  0  0  0  0  0  0  0  0
    9.1957  -16.4501   26.9063 C   0  0  0  0  0  0  0  0  0  0  0  0
    9.9936  -16.2871   28.0572 O   0  0  0  0  0  0  0  0  0  0  0  0
    8.7502  -17.5821   26.7026 O   0  0  0  0  0  0  0  0  0  0  0  0
  2  1  1  6
  2  3  1  0
  4  2  1  0
  4  6  1  0
  4  5  1  6
  6  7  2  0
  9 11  1  0
  9  8  1  0
 10  9  2  0
 12 11  1  6
 13  6  1  0
 13 12  1  0
 14 12  1  0
 14 15  2  0
 16 17  1  0
 18 17  1  0
 19 18  1  0
 20 21  1  0
 20 19  1  1
 21 14  1  0
 22 20  1  0
 23 22  1  0
 24 22  2  0
M  END
$$$$
