VNM.pdb
     RDKit          3D

 24 23  0  0  1  0  0  0  0  0999 V2000
    4.3233  -18.6743   20.5555 C   0  0  0  0  0  0  0  0  0  0  0  0
    4.1981  -19.5153   21.7873 C   0  0  2  0  0  0  0  0  0  0  0  0
    2.7996  -19.4416   22.3725 C   0  0  0  0  0  0  0  0  0  0  0  0
    5.1991  -19.1105   22.8417 C   0  0  2  0  0  0  0  0  0  0  0  0
    4.9026  -17.8580   23.4552 N   0  0  0  0  0  0  0  0  0  0  0  0
    6.5368  -19.0333   22.2088 C   0  0  0  0  0  0  0  0  0  0  0  0
    7.1523  -20.0806   21.8819 O   0  0  0  0  0  0  0  0  0  0  0  0
    8.7740  -18.5424   18.4427 N   0  0  0  0  0  0  0  0  0  0  0  0
    7.9007  -17.6036   19.0840 C   0  0  0  0  0  0  0  0  0  0  0  0
    6.7356  -17.5344   18.6360 O   0  0  0  0  0  0  0  0  0  0  0  0
    8.4106  -16.7952   20.2040 C   0  0  0  0  0  0  0  0  0  0  0  0
    8.4768  -17.6394   21.4430 C   0  0  2  0  0  0  0  0  0  0  0  0
    7.1200  -17.7562   21.9738 N   0  0  0  0  0  0  0  0  0  0  0  0
    9.2999  -16.9306   22.4917 C   0  0  0  0  0  0  0  0  0  0  0  0
   10.4996  -16.6223   22.2900 O   0  0  0  0  0  0  0  0  0  0  0  0
    8.9523  -11.9486   28.4728 C   0  0  0  0  0  0  0  0  0  0  0  0
    8.1588  -12.8517   27.1288 S   0  0  0  0  0  0  0  0  0  0  0  0
    9.3369  -14.0399   26.4003 C   0  0  0  0  0  0  0  0  0  0  0  0
    8.6765  -14.8378   25.3353 C   0  0  0  0  0  0  0  0  0  0  0  0
    9.5703  -15.8974   24.7413 C   0  0  2  0  0  0  0  0  0  0  0  0
    8.7412  -16.5861   23.7506 N   0  0  0  0  0  0  0  0  0  0  0  0
   10.0254  -16.8042   25.7899 C   0  0  0  0  0  0  0  0  0  0  0  0
   11.1548  -16.4281   26.5453 O   0  0  0  0  0  0  0  0  0  0  0  0
    9.5054  -17.8844   26.0799 O   0  0  0  0  0  0  0  0  0  0  0  0
  2  1  1  6
  2  3  1  0
  4  2  1  0
  4  6  1  0
  4  5  1  6
  6  7  2  0
  9 11  1  0
  9  8  1  0
 10  9  2  0
 12 11  1  6
 13  6  1  0
 13 12  1  0
 14 12  1  0
 14 15  2  0
 16 17  1  0
 18 17  1  0
 19 18  1  0
 20 21  1  0
 20 19  1  1
 21 14  1  0
 22 20  1  0
 23 22  1  0
 24 22  2  0
M  END
$$$$
