VNM.pdb
     RDKit          3D

 24 23  0  0  1  0  0  0  0  0999 V2000
    8.3567  -12.1101   20.0948 C   0  0  0  0  0  0  0  0  0  0  0  0
    8.3235  -13.1415   19.0107 C   0  0  2  0  0  0  0  0  0  0  0  0
    6.9518  -13.7803   18.8913 C   0  0  0  0  0  0  0  0  0  0  0  0
    9.3550  -14.2198   19.2365 C   0  0  2  0  0  0  0  0  0  0  0  0
    9.4874  -15.1181   18.1370 N   0  0  0  0  0  0  0  0  0  0  0  0
    8.9694  -14.9879   20.4437 C   0  0  0  0  0  0  0  0  0  0  0  0
    7.9333  -14.6871   21.0905 O   0  0  0  0  0  0  0  0  0  0  0  0
   10.9056  -19.5311   20.1875 N   0  0  0  0  0  0  0  0  0  0  0  0
    9.9575  -19.0406   21.1445 C   0  0  0  0  0  0  0  0  0  0  0  0
    8.8063  -19.5245   21.0831 O   0  0  0  0  0  0  0  0  0  0  0  0
   10.3806  -18.0220   22.1198 C   0  0  0  0  0  0  0  0  0  0  0  0
    9.4473  -16.8485   22.0569 C   0  0  2  0  0  0  0  0  0  0  0  0
    9.7875  -16.0740   20.8650 N   0  0  0  0  0  0  0  0  0  0  0  0
    9.6857  -15.9512   23.2476 C   0  0  0  0  0  0  0  0  0  0  0  0
   10.8218  -15.4826   23.5021 O   0  0  0  0  0  0  0  0  0  0  0  0
    6.4293  -10.7997   26.5003 C   0  0  0  0  0  0  0  0  0  0  0  0
    6.2231  -12.4237   27.2565 S   0  0  0  0  0  0  0  0  0  0  0  0
    7.7285  -13.4226   26.9996 C   0  0  0  0  0  0  0  0  0  0  0  0
    7.6963  -14.0749   25.6652 C   0  0  0  0  0  0  0  0  0  0  0  0
    8.9265  -14.8964   25.3718 C   0  0  2  0  0  0  0  0  0  0  0  0
    8.6258  -15.6043   24.1260 N   0  0  0  0  0  0  0  0  0  0  0  0
    9.1768  -15.8213   26.4723 C   0  0  0  0  0  0  0  0  0  0  0  0
    8.9963  -17.1988   26.2325 O   0  0  0  0  0  0  0  0  0  0  0  0
    9.5366  -15.5040   27.6085 O   0  0  0  0  0  0  0  0  0  0  0  0
  2  1  1  1
  2  3  1  0
  4  2  1  0
  4  6  1  0
  4  5  1  6
  6  7  2  0
  9 11  1  0
  9  8  1  0
 10  9  2  0
 12 11  1  1
 13  6  1  0
 13 12  1  0
 14 12  1  0
 14 15  2  0
 16 17  1  0
 18 17  1  0
 19 18  1  0
 20 21  1  0
 20 19  1  1
 21 14  1  0
 22 20  1  0
 23 22  1  0
 24 22  2  0
M  END
$$$$
