VNM.pdb
     RDKit          3D

 24 23  0  0  1  0  0  0  0  0999 V2000
    9.6300  -13.5508   17.9100 C   0  0  0  0  0  0  0  0  0  0  0  0
    8.2590  -14.1101   18.1286 C   0  0  2  0  0  0  0  0  0  0  0  0
    7.1900  -13.2148   17.5290 C   0  0  0  0  0  0  0  0  0  0  0  0
    7.9689  -14.3153   19.5954 C   0  0  2  0  0  0  0  0  0  0  0  0
    7.9138  -13.0999   20.3389 N   0  0  0  0  0  0  0  0  0  0  0  0
    9.0292  -15.1810   20.1632 C   0  0  0  0  0  0  0  0  0  0  0  0
    9.1373  -16.3814   19.8032 O   0  0  0  0  0  0  0  0  0  0  0  0
   13.2033  -14.2118   19.3970 N   0  0  0  0  0  0  0  0  0  0  0  0
   12.7776  -15.2470   20.2927 C   0  0  0  0  0  0  0  0  0  0  0  0
   12.8824  -16.4204   19.8742 O   0  0  0  0  0  0  0  0  0  0  0  0
   12.2548  -14.8808   21.6196 C   0  0  0  0  0  0  0  0  0  0  0  0
   10.8965  -15.4901   21.8095 C   0  0  2  0  0  0  0  0  0  0  0  0
    9.9275  -14.6371   21.1242 N   0  0  0  0  0  0  0  0  0  0  0  0
   10.5378  -15.4732   23.2761 C   0  0  0  0  0  0  0  0  0  0  0  0
   11.2925  -15.9743   24.1445 O   0  0  0  0  0  0  0  0  0  0  0  0
    5.8284  -11.4205   26.8376 C   0  0  0  0  0  0  0  0  0  0  0  0
    7.3017  -12.3359   27.3306 S   0  0  0  0  0  0  0  0  0  0  0  0
    7.2212  -14.0379   26.6771 C   0  0  0  0  0  0  0  0  0  0  0  0
    7.7485  -14.0856   25.2890 C   0  0  0  0  0  0  0  0  0  0  0  0
    8.9928  -14.9265   25.1510 C   0  0  2  0  0  0  0  0  0  0  0  0
    9.3262  -14.8858   23.7260 N   0  0  0  0  0  0  0  0  0  0  0  0
    8.7223  -16.2868   25.6044 C   0  0  0  0  0  0  0  0  0  0  0  0
    8.8770  -16.5695   26.9769 O   0  0  0  0  0  0  0  0  0  0  0  0
    8.3659  -17.2247   24.8871 O   0  0  0  0  0  0  0  0  0  0  0  0
  2  1  1  1
  2  3  1  0
  4  2  1  0
  4  6  1  0
  4  5  1  1
  6  7  2  0
  9 11  1  0
  9  8  1  0
 10  9  2  0
 12 11  1  1
 13  6  1  0
 13 12  1  0
 14 12  1  0
 14 15  2  0
 16 17  1  0
 18 17  1  0
 19 18  1  0
 20 21  1  0
 20 19  1  6
 21 14  1  0
 22 20  1  0
 23 22  1  0
 24 22  2  0
M  END
$$$$
