VNM.pdb
     RDKit          3D

 24 23  0  0  1  0  0  0  0  0999 V2000
    8.3583  -15.0336   18.3588 C   0  0  0  0  0  0  0  0  0  0  0  0
    7.2815  -14.1902   18.9665 C   0  0  2  0  0  0  0  0  0  0  0  0
    7.1680  -12.8457   18.2715 C   0  0  0  0  0  0  0  0  0  0  0  0
    7.5136  -13.9685   20.4412 C   0  0  2  0  0  0  0  0  0  0  0  0
    8.4406  -12.9212   20.7190 N   0  0  0  0  0  0  0  0  0  0  0  0
    8.0215  -15.2310   21.0277 C   0  0  0  0  0  0  0  0  0  0  0  0
    7.3297  -16.2808   20.9857 O   0  0  0  0  0  0  0  0  0  0  0  0
   11.5642  -17.5072   19.1929 N   0  0  0  0  0  0  0  0  0  0  0  0
   11.0817  -17.7574   20.5195 C   0  0  0  0  0  0  0  0  0  0  0  0
   10.5816  -18.8849   20.7243 O   0  0  0  0  0  0  0  0  0  0  0  0
   11.1986  -16.7017   21.5391 C   0  0  0  0  0  0  0  0  0  0  0  0
    9.8632  -16.4792   22.1866 C   0  0  2  0  0  0  0  0  0  0  0  0
    9.3058  -15.2429   21.6416 N   0  0  0  0  0  0  0  0  0  0  0  0
   10.0525  -16.2606   23.6686 C   0  0  0  0  0  0  0  0  0  0  0  0
   10.9435  -16.8637   24.3147 O   0  0  0  0  0  0  0  0  0  0  0  0
    7.4597  -11.1886   26.9224 C   0  0  0  0  0  0  0  0  0  0  0  0
    6.3792  -12.6292   26.8287 S   0  0  0  0  0  0  0  0  0  0  0  0
    7.2127  -13.9705   25.9141 C   0  0  0  0  0  0  0  0  0  0  0  0
    8.6662  -13.9817   26.2209 C   0  0  0  0  0  0  0  0  0  0  0  0
    9.3468  -15.2734   25.8431 C   0  0  2  0  0  0  0  0  0  0  0  0
    9.2235  -15.3593   24.3868 N   0  0  0  0  0  0  0  0  0  0  0  0
    8.6873  -16.3920   26.5085 C   0  0  0  0  0  0  0  0  0  0  0  0
    9.0252  -16.6548   27.8518 O   0  0  0  0  0  0  0  0  0  0  0  0
    7.8500  -17.1389   25.9964 O   0  0  0  0  0  0  0  0  0  0  0  0
  2  1  1  6
  2  3  1  0
  4  2  1  0
  4  6  1  0
  4  5  1  6
  6  7  2  0
  9 11  1  0
  9  8  1  0
 10  9  2  0
 12 11  1  6
 13  6  1  0
 13 12  1  0
 14 12  1  0
 14 15  2  0
 16 17  1  0
 18 17  1  0
 19 18  1  0
 20 21  1  0
 20 19  1  1
 21 14  1  0
 22 20  1  0
 23 22  1  0
 24 22  2  0
M  END
$$$$
