VNM.pdb
     RDKit          3D

 24 23  0  0  1  0  0  0  0  0999 V2000
    7.1058  -12.9434   21.0902 C   0  0  0  0  0  0  0  0  0  0  0  0
    8.1844  -13.2532   20.0999 C   0  0  2  0  0  0  0  0  0  0  0  0
    8.1544  -12.2930   18.9248 C   0  0  0  0  0  0  0  0  0  0  0  0
    8.0793  -14.6686   19.5869 C   0  0  2  0  0  0  0  0  0  0  0  0
    6.8529  -14.9382   18.9114 N   0  0  0  0  0  0  0  0  0  0  0  0
    8.2094  -15.5922   20.7384 C   0  0  0  0  0  0  0  0  0  0  0  0
    7.1951  -16.1526   21.2279 O   0  0  0  0  0  0  0  0  0  0  0  0
   10.4835  -19.8215   23.0379 N   0  0  0  0  0  0  0  0  0  0  0  0
   11.1519  -18.5598   23.1665 C   0  0  0  0  0  0  0  0  0  0  0  0
   11.8685  -18.4125   24.1804 O   0  0  0  0  0  0  0  0  0  0  0  0
   10.9625  -17.5354   22.1260 C   0  0  0  0  0  0  0  0  0  0  0  0
    9.6791  -16.7986   22.3748 C   0  0  2  0  0  0  0  0  0  0  0  0
    9.4997  -15.8394   21.2867 N   0  0  0  0  0  0  0  0  0  0  0  0
    9.7964  -15.9997   23.6506 C   0  0  0  0  0  0  0  0  0  0  0  0
   10.7356  -15.1881   23.8354 O   0  0  0  0  0  0  0  0  0  0  0  0
    6.7888  -10.8344   26.1864 C   0  0  0  0  0  0  0  0  0  0  0  0
    7.2499  -12.3683   27.0148 S   0  0  0  0  0  0  0  0  0  0  0  0
    7.4238  -13.7074   25.7872 C   0  0  0  0  0  0  0  0  0  0  0  0
    7.7880  -14.9817   26.4584 C   0  0  0  0  0  0  0  0  0  0  0  0
    9.1115  -15.5413   26.0005 C   0  0  2  0  0  0  0  0  0  0  0  0
    8.8418  -16.1400   24.6920 N   0  0  0  0  0  0  0  0  0  0  0  0
    9.5876  -16.5316   26.9605 C   0  0  0  0  0  0  0  0  0  0  0  0
    9.3745  -17.8938   26.6661 O   0  0  0  0  0  0  0  0  0  0  0  0
   10.1672  -16.2828   28.0204 O   0  0  0  0  0  0  0  0  0  0  0  0
  2  1  1  1
  2  3  1  0
  4  2  1  0
  4  6  1  0
  4  5  1  1
  6  7  2  0
  9 11  1  0
  9  8  1  0
 10  9  2  0
 12 11  1  6
 13  6  1  0
 13 12  1  0
 14 12  1  0
 14 15  2  0
 16 17  1  0
 18 17  1  0
 19 18  1  0
 20 21  1  0
 20 19  1  1
 21 14  1  0
 22 20  1  0
 23 22  1  0
 24 22  2  0
M  END
$$$$
