VNM.pdb
     RDKit          3D

 24 23  0  0  1  0  0  0  0  0999 V2000
    8.1022  -12.4651   18.2792 C   0  0  0  0  0  0  0  0  0  0  0  0
    8.0238  -13.3692   19.4694 C   0  0  2  0  0  0  0  0  0  0  0  0
    8.8510  -12.8398   20.6267 C   0  0  0  0  0  0  0  0  0  0  0  0
    8.4768  -14.7696   19.1355 C   0  0  2  0  0  0  0  0  0  0  0  0
    7.7989  -15.3337   18.0151 N   0  0  0  0  0  0  0  0  0  0  0  0
    8.2475  -15.6285   20.3212 C   0  0  0  0  0  0  0  0  0  0  0  0
    7.1480  -16.2182   20.4820 O   0  0  0  0  0  0  0  0  0  0  0  0
   11.4404  -16.6679   21.1817 N   0  0  0  0  0  0  0  0  0  0  0  0
   10.8376  -17.9412   21.4474 C   0  0  0  0  0  0  0  0  0  0  0  0
   11.4686  -18.9465   21.0543 O   0  0  0  0  0  0  0  0  0  0  0  0
    9.5444  -17.9930   22.1493 C   0  0  0  0  0  0  0  0  0  0  0  0
    9.0935  -16.5990   22.4741 C   0  0  2  0  0  0  0  0  0  0  0  0
    9.2889  -15.7794   21.2798 N   0  0  0  0  0  0  0  0  0  0  0  0
    9.9784  -16.0222   23.5530 C   0  0  0  0  0  0  0  0  0  0  0  0
   11.0033  -16.6241   23.9559 O   0  0  0  0  0  0  0  0  0  0  0  0
    6.7727  -11.1420   26.9839 C   0  0  0  0  0  0  0  0  0  0  0  0
    5.8698  -12.6247   26.4962 S   0  0  0  0  0  0  0  0  0  0  0  0
    6.9651  -14.0805   26.6034 C   0  0  0  0  0  0  0  0  0  0  0  0
    7.6871  -14.2815   25.3207 C   0  0  0  0  0  0  0  0  0  0  0  0
    9.1132  -14.7370   25.5026 C   0  0  2  0  0  0  0  0  0  0  0  0
    9.6794  -14.7707   24.1529 N   0  0  0  0  0  0  0  0  0  0  0  0
    9.1348  -16.0536   26.1310 C   0  0  0  0  0  0  0  0  0  0  0  0
    8.6909  -17.1559   25.3723 O   0  0  0  0  0  0  0  0  0  0  0  0
    9.5109  -16.2939   27.2808 O   0  0  0  0  0  0  0  0  0  0  0  0
  2  1  1  6
  2  3  1  0
  4  2  1  0
  4  6  1  0
  4  5  1  6
  6  7  2  0
  9 11  1  0
  9  8  1  0
 10  9  2  0
 12 11  1  6
 13  6  1  0
 13 12  1  0
 14 12  1  0
 14 15  2  0
 16 17  1  0
 18 17  1  0
 19 18  1  0
 20 21  1  0
 20 19  1  6
 21 14  1  0
 22 20  1  0
 23 22  1  0
 24 22  2  0
M  END
$$$$
