VNM.pdb
     RDKit          3D

 24 23  0  0  1  0  0  0  0  0999 V2000
    7.3890  -14.6954   18.4084 C   0  0  0  0  0  0  0  0  0  0  0  0
    7.6928  -13.4979   19.2533 C   0  0  2  0  0  0  0  0  0  0  0  0
    8.0024  -12.2798   18.4024 C   0  0  0  0  0  0  0  0  0  0  0  0
    8.8480  -13.7558   20.1895 C   0  0  2  0  0  0  0  0  0  0  0  0
   10.0642  -14.0742   19.5165 N   0  0  0  0  0  0  0  0  0  0  0  0
    8.4818  -14.8802   21.0825 C   0  0  0  0  0  0  0  0  0  0  0  0
    7.3485  -14.9233   21.6266 O   0  0  0  0  0  0  0  0  0  0  0  0
   12.1080  -17.7449   20.5468 N   0  0  0  0  0  0  0  0  0  0  0  0
   11.4580  -17.5835   21.8144 C   0  0  0  0  0  0  0  0  0  0  0  0
   12.1107  -16.9908   22.7009 O   0  0  0  0  0  0  0  0  0  0  0  0
   10.0953  -18.1104   21.9969 C   0  0  0  0  0  0  0  0  0  0  0  0
    9.1535  -16.9777   22.2835 C   0  0  2  0  0  0  0  0  0  0  0  0
    9.4302  -15.9152   21.3188 N   0  0  0  0  0  0  0  0  0  0  0  0
    9.4454  -16.4147   23.6537 C   0  0  0  0  0  0  0  0  0  0  0  0
   10.5841  -15.9855   23.9605 O   0  0  0  0  0  0  0  0  0  0  0  0
    6.8532  -11.1299   28.1832 C   0  0  0  0  0  0  0  0  0  0  0  0
    6.8210  -12.1967   26.7297 S   0  0  0  0  0  0  0  0  0  0  0  0
    7.2808  -13.8989   27.2001 C   0  0  0  0  0  0  0  0  0  0  0  0
    7.3109  -14.7774   26.0025 C   0  0  0  0  0  0  0  0  0  0  0  0
    8.6278  -15.4884   25.8158 C   0  0  2  0  0  0  0  0  0  0  0  0
    8.4349  -16.3512   24.6489 N   0  0  0  0  0  0  0  0  0  0  0  0
    8.9462  -16.2603   27.0123 C   0  0  0  0  0  0  0  0  0  0  0  0
    9.0323  -17.6624   26.8914 O   0  0  0  0  0  0  0  0  0  0  0  0
    9.1497  -15.7923   28.1352 O   0  0  0  0  0  0  0  0  0  0  0  0
  2  1  1  6
  2  3  1  0
  4  2  1  0
  4  6  1  0
  4  5  1  6
  6  7  2  0
  9 11  1  0
  9  8  1  0
 10  9  2  0
 12 11  1  6
 13  6  1  0
 13 12  1  0
 14 12  1  0
 14 15  2  0
 16 17  1  0
 18 17  1  0
 19 18  1  0
 20 21  1  0
 20 19  1  1
 21 14  1  0
 22 20  1  0
 23 22  1  0
 24 22  2  0
M  END
$$$$
