CGF.pdb
     RDKit          3D

 22 22  0  0  1  0  0  0  0  0999 V2000
   26.3248  -12.8652  -17.6663 N   0  0  0  0  0  0  0  0  0  0  0  0
   26.0583  -11.8796  -16.6673 C   0  0  1  0  0  0  0  0  0  0  0  0
   27.2685  -11.0459  -16.3176 C   0  0  0  0  0  0  0  0  0  0  0  0
   28.6064  -12.0506  -15.6345 S   0  0  0  0  0  0  0  0  0  0  0  0
   24.9715  -10.9360  -17.0383 C   0  0  0  0  0  0  0  0  0  0  0  0
   25.0093  -10.4062  -18.1640 O   0  0  0  0  0  0  0  0  0  0  0  0
   23.9175  -10.6370  -16.1505 N   0  0  0  0  0  0  0  0  0  0  0  0
   22.8646   -9.7150  -16.3977 C   0  0  0  0  0  0  0  0  0  0  0  0
   22.9594   -8.4375  -15.6552 C   0  0  0  0  0  0  0  0  0  0  0  0
   23.8376   -8.2920  -14.7285 O   0  0  0  0  0  0  0  0  0  0  0  0
   22.1166   -7.3248  -15.9114 N   0  0  0  0  0  0  0  0  0  0  0  0
   22.2664   -6.0733  -15.1615 C   0  0  1  0  0  0  0  0  0  0  0  0
   22.5632   -4.9619  -16.1379 C   0  0  0  0  0  0  0  0  0  0  0  0
   23.8096   -5.1573  -16.8665 C   0  0  0  0  0  0  0  0  0  0  0  0
   24.9570   -4.5494  -16.4070 C   0  0  0  0  0  0  0  0  0  0  0  0
   26.1416   -4.7369  -17.0839 C   0  0  0  0  0  0  0  0  0  0  0  0
   26.2108   -5.5225  -18.2176 C   0  0  0  0  0  0  0  0  0  0  0  0
   25.0585   -6.1281  -18.6721 C   0  0  0  0  0  0  0  0  0  0  0  0
   23.8714   -5.9425  -17.9971 C   0  0  0  0  0  0  0  0  0  0  0  0
   21.1206   -5.8297  -14.2856 C   0  0  0  0  0  0  0  0  0  0  0  0
   21.2336   -4.9566  -13.2198 O   0  0  0  0  0  0  0  0  0  0  0  0
   20.0181   -6.3971  -14.4709 O   0  0  0  0  0  0  0  0  0  0  0  0
  2  1  1  6
  2  3  1  0
  3  4  1  0
  5  2  1  0
  6  5  2  0
  7  5  1  0
  8  7  1  0
  8  9  1  0
  9 11  1  0
  9 10  2  0
 11 12  1  0
 12 13  1  6
 13 14  1  0
 14 19  2  0
 15 16  2  0
 15 14  1  0
 16 17  1  0
 17 18  2  0
 19 18  1  0
 20 12  1  0
 20 21  1  0
 22 20  2  0
M  END
$$$$
