CGF.pdb
     RDKit          3D

 22 22  0  0  1  0  0  0  0  0999 V2000
   17.2819  -11.3670  -17.7360 N   0  0  0  0  0  0  0  0  0  0  0  0
   18.6290  -11.8395  -17.7874 C   0  0  1  0  0  0  0  0  0  0  0  0
   18.9138  -12.6911  -19.0020 C   0  0  0  0  0  0  0  0  0  0  0  0
   17.9278  -14.2057  -19.0114 S   0  0  0  0  0  0  0  0  0  0  0  0
   19.6415  -10.7516  -17.7708 C   0  0  0  0  0  0  0  0  0  0  0  0
   20.8401  -11.0634  -17.6455 O   0  0  0  0  0  0  0  0  0  0  0  0
   19.2719   -9.3962  -17.8927 N   0  0  0  0  0  0  0  0  0  0  0  0
   20.1681   -8.2934  -17.9125 C   0  0  0  0  0  0  0  0  0  0  0  0
   20.5104   -7.7364  -16.5841 C   0  0  0  0  0  0  0  0  0  0  0  0
   19.8624   -8.1109  -15.5395 O   0  0  0  0  0  0  0  0  0  0  0  0
   21.5447   -6.7859  -16.3824 N   0  0  0  0  0  0  0  0  0  0  0  0
   21.8677   -6.2920  -15.0396 C   0  0  1  0  0  0  0  0  0  0  0  0
   23.2902   -6.6774  -14.7163 C   0  0  0  0  0  0  0  0  0  0  0  0
   24.2552   -6.1673  -15.6814 C   0  0  0  0  0  0  0  0  0  0  0  0
   24.7027   -6.9980  -16.6849 C   0  0  0  0  0  0  0  0  0  0  0  0
   25.6072   -6.5210  -17.6073 C   0  0  0  0  0  0  0  0  0  0  0  0
   26.0806   -5.2247  -17.5532 C   0  0  0  0  0  0  0  0  0  0  0  0
   25.6286   -4.3986  -16.5461 C   0  0  0  0  0  0  0  0  0  0  0  0
   24.7234   -4.8728  -15.6214 C   0  0  0  0  0  0  0  0  0  0  0  0
   21.5736   -4.8656  -14.9052 C   0  0  0  0  0  0  0  0  0  0  0  0
   21.2359   -4.1176  -16.0177 O   0  0  0  0  0  0  0  0  0  0  0  0
   21.6190   -4.2859  -13.7945 O   0  0  0  0  0  0  0  0  0  0  0  0
  2  1  1  6
  2  3  1  0
  3  4  1  0
  5  2  1  0
  6  5  2  0
  7  5  1  0
  8  7  1  0
  8  9  1  0
  9 11  1  0
  9 10  2  0
 11 12  1  0
 12 13  1  6
 13 14  1  0
 14 19  2  0
 15 16  2  0
 15 14  1  0
 16 17  1  0
 17 18  2  0
 19 18  1  0
 20 12  1  0
 20 21  1  0
 22 20  2  0
M  END
$$$$
