CGF.pdb
     RDKit          3D

 22 22  0  0  1  0  0  0  0  0999 V2000
   32.2611  -29.2650  -17.8201 N   0  0  0  0  0  0  0  0  0  0  0  0
   31.6445  -29.4199  -19.0992 C   0  0  1  0  0  0  0  0  0  0  0  0
   32.0666  -30.6825  -19.8131 C   0  0  0  0  0  0  0  0  0  0  0  0
   33.6927  -30.5118  -20.5829 S   0  0  0  0  0  0  0  0  0  0  0  0
   30.1591  -29.4250  -19.0464 C   0  0  0  0  0  0  0  0  0  0  0  0
   29.5307  -29.3666  -20.1193 O   0  0  0  0  0  0  0  0  0  0  0  0
   29.4635  -29.4937  -17.8217 N   0  0  0  0  0  0  0  0  0  0  0  0
   28.0504  -29.4760  -17.6713 C   0  0  0  0  0  0  0  0  0  0  0  0
   27.4065  -30.8082  -17.6170 C   0  0  0  0  0  0  0  0  0  0  0  0
   28.1221  -31.8745  -17.6636 O   0  0  0  0  0  0  0  0  0  0  0  0
   26.0031  -30.9898  -17.5103 N   0  0  0  0  0  0  0  0  0  0  0  0
   25.4181  -32.3318  -17.4201 C   0  0  1  0  0  0  0  0  0  0  0  0
   25.8069  -32.9361  -16.0933 C   0  0  0  0  0  0  0  0  0  0  0  0
   24.6751  -33.1217  -15.1948 C   0  0  0  0  0  0  0  0  0  0  0  0
   23.8179  -34.1789  -15.4062 C   0  0  0  0  0  0  0  0  0  0  0  0
   22.7512  -34.3677  -14.5558 C   0  0  0  0  0  0  0  0  0  0  0  0
   22.5163  -33.5208  -13.4905 C   0  0  0  0  0  0  0  0  0  0  0  0
   23.3783  -32.4646  -13.2846 C   0  0  0  0  0  0  0  0  0  0  0  0
   24.4467  -32.2728  -14.1338 C   0  0  0  0  0  0  0  0  0  0  0  0
   23.9800  -32.3115  -17.6863 C   0  0  0  0  0  0  0  0  0  0  0  0
   23.2756  -31.1245  -17.6096 O   0  0  0  0  0  0  0  0  0  0  0  0
   23.3514  -33.3539  -17.9865 O   0  0  0  0  0  0  0  0  0  0  0  0
  2  1  1  1
  2  3  1  0
  3  4  1  0
  5  2  1  0
  6  5  2  0
  7  5  1  0
  8  7  1  0
  8  9  1  0
  9 11  1  0
  9 10  2  0
 11 12  1  0
 12 13  1  1
 13 14  1  0
 14 19  2  0
 15 16  2  0
 15 14  1  0
 16 17  1  0
 17 18  2  0
 19 18  1  0
 20 12  1  0
 20 21  1  0
 22 20  2  0
M  END
$$$$
