CGF.pdb
     RDKit          3D

 22 22  0  0  1  0  0  0  0  0999 V2000
   15.7478  -12.2307  -14.8219 N   0  0  0  0  0  0  0  0  0  0  0  0
   16.7621  -11.3122  -15.2317 C   0  0  1  0  0  0  0  0  0  0  0  0
   16.2569  -10.2568  -16.1871 C   0  0  0  0  0  0  0  0  0  0  0  0
   14.4586  -10.0901  -16.1200 S   0  0  0  0  0  0  0  0  0  0  0  0
   17.4120  -10.6005  -14.1002 C   0  0  0  0  0  0  0  0  0  0  0  0
   18.4202   -9.9105  -14.3387 O   0  0  0  0  0  0  0  0  0  0  0  0
   16.9130  -10.6933  -12.7846 N   0  0  0  0  0  0  0  0  0  0  0  0
   17.4543  -10.0361  -11.6467 C   0  0  0  0  0  0  0  0  0  0  0  0
   17.0188   -8.6329  -11.4639 C   0  0  0  0  0  0  0  0  0  0  0  0
   16.9451   -7.8420  -12.4740 O   0  0  0  0  0  0  0  0  0  0  0  0
   16.6628   -8.0871  -10.2031 N   0  0  0  0  0  0  0  0  0  0  0  0
   16.1805   -6.7071  -10.0846 C   0  0  1  0  0  0  0  0  0  0  0  0
   14.6832   -6.7048  -10.2709 C   0  0  0  0  0  0  0  0  0  0  0  0
   13.9700   -7.3654   -9.1856 C   0  0  0  0  0  0  0  0  0  0  0  0
   13.6183   -6.6348   -8.0722 C   0  0  0  0  0  0  0  0  0  0  0  0
   12.9353   -7.2489   -7.0461 C   0  0  0  0  0  0  0  0  0  0  0  0
   12.5913   -8.5852   -7.1035 C   0  0  0  0  0  0  0  0  0  0  0  0
   12.9464   -9.3106   -8.2210 C   0  0  0  0  0  0  0  0  0  0  0  0
   13.6300   -8.6992   -9.2496 C   0  0  0  0  0  0  0  0  0  0  0  0
   16.6452   -6.0784   -8.8484 C   0  0  0  0  0  0  0  0  0  0  0  0
   16.4558   -4.7244   -8.6434 O   0  0  0  0  0  0  0  0  0  0  0  0
   17.2214   -6.7375   -7.9510 O   0  0  0  0  0  0  0  0  0  0  0  0
  2  1  1  1
  2  3  1  0
  3  4  1  0
  5  2  1  0
  6  5  2  0
  7  5  1  0
  8  7  1  0
  8  9  1  0
  9 11  1  0
  9 10  2  0
 11 12  1  0
 12 13  1  1
 13 14  1  0
 14 19  2  0
 15 16  2  0
 15 14  1  0
 16 17  1  0
 17 18  2  0
 19 18  1  0
 20 12  1  0
 20 21  1  0
 22 20  2  0
M  END
$$$$
