CGF.pdb
     RDKit          3D

 22 22  0  0  1  0  0  0  0  0999 V2000
   28.9137  -18.2519  -18.3769 N   0  0  0  0  0  0  0  0  0  0  0  0
   27.7063  -17.9855  -17.6616 C   0  0  1  0  0  0  0  0  0  0  0  0
   26.4847  -18.5910  -18.3120 C   0  0  0  0  0  0  0  0  0  0  0  0
   26.1313  -17.8391  -19.9169 S   0  0  0  0  0  0  0  0  0  0  0  0
   27.7319  -18.4620  -16.2540 C   0  0  0  0  0  0  0  0  0  0  0  0
   28.3004  -19.5414  -16.0070 O   0  0  0  0  0  0  0  0  0  0  0  0
   27.1328  -17.7233  -15.2129 N   0  0  0  0  0  0  0  0  0  0  0  0
   27.1524  -18.0710  -13.8350 C   0  0  0  0  0  0  0  0  0  0  0  0
   26.3163  -19.2365  -13.4680 C   0  0  0  0  0  0  0  0  0  0  0  0
   25.4699  -19.7152  -14.3080 O   0  0  0  0  0  0  0  0  0  0  0  0
   26.3939  -19.8829  -12.2069 N   0  0  0  0  0  0  0  0  0  0  0  0
   25.5451  -21.0377  -11.8947 C   0  0  1  0  0  0  0  0  0  0  0  0
   26.2332  -21.8667  -10.8383 C   0  0  0  0  0  0  0  0  0  0  0  0
   26.6321  -21.0910   -9.6713 C   0  0  0  0  0  0  0  0  0  0  0  0
   25.6584  -20.5597   -8.8548 C   0  0  0  0  0  0  0  0  0  0  0  0
   26.0266  -19.8336   -7.7441 C   0  0  0  0  0  0  0  0  0  0  0  0
   27.3536  -19.6225   -7.4247 C   0  0  0  0  0  0  0  0  0  0  0  0
   28.3232  -20.1572   -8.2463 C   0  0  0  0  0  0  0  0  0  0  0  0
   27.9581  -20.8843   -9.3587 C   0  0  0  0  0  0  0  0  0  0  0  0
   24.1811  -20.6289  -11.5607 C   0  0  0  0  0  0  0  0  0  0  0  0
   23.1436  -21.5391  -11.6399 O   0  0  0  0  0  0  0  0  0  0  0  0
   23.9146  -19.4585  -11.1989 O   0  0  0  0  0  0  0  0  0  0  0  0
  2  1  1  6
  2  3  1  0
  3  4  1  0
  5  2  1  0
  6  5  2  0
  7  5  1  0
  8  7  1  0
  8  9  1  0
  9 11  1  0
  9 10  2  0
 11 12  1  0
 12 13  1  1
 13 14  1  0
 14 19  2  0
 15 16  2  0
 15 14  1  0
 16 17  1  0
 17 18  2  0
 19 18  1  0
 20 12  1  0
 20 21  1  0
 22 20  2  0
M  END
$$$$
