CGF.pdb
     RDKit          3D

 22 22  0  0  1  0  0  0  0  0999 V2000
   27.6266  -22.5328  -18.5129 N   0  0  0  0  0  0  0  0  0  0  0  0
   27.9328  -22.4348  -17.1211 C   0  0  1  0  0  0  0  0  0  0  0  0
   29.4066  -22.2458  -16.8490 C   0  0  0  0  0  0  0  0  0  0  0  0
   30.3348  -23.7821  -17.0592 S   0  0  0  0  0  0  0  0  0  0  0  0
   27.2170  -21.3298  -16.4314 C   0  0  0  0  0  0  0  0  0  0  0  0
   27.3846  -20.1686  -16.8473 O   0  0  0  0  0  0  0  0  0  0  0  0
   26.3666  -21.5722  -15.3331 N   0  0  0  0  0  0  0  0  0  0  0  0
   25.6922  -20.5777  -14.5742 C   0  0  0  0  0  0  0  0  0  0  0  0
   24.7810  -21.0946  -13.5278 C   0  0  0  0  0  0  0  0  0  0  0  0
   24.5805  -22.3586  -13.4119 O   0  0  0  0  0  0  0  0  0  0  0  0
   24.0939  -20.2564  -12.6117 N   0  0  0  0  0  0  0  0  0  0  0  0
   23.1249  -20.8095  -11.6597 C   0  0  1  0  0  0  0  0  0  0  0  0
   23.1388  -19.9595  -10.4131 C   0  0  0  0  0  0  0  0  0  0  0  0
   24.3735  -20.0827   -9.6496 C   0  0  0  0  0  0  0  0  0  0  0  0
   25.1804  -18.9768   -9.4970 C   0  0  0  0  0  0  0  0  0  0  0  0
   26.3443  -19.0818   -8.7684 C   0  0  0  0  0  0  0  0  0  0  0  0
   26.7268  -20.2728   -8.1831 C   0  0  0  0  0  0  0  0  0  0  0  0
   25.9145  -21.3759   -8.3398 C   0  0  0  0  0  0  0  0  0  0  0  0
   24.7491  -21.2742   -9.0683 C   0  0  0  0  0  0  0  0  0  0  0  0
   21.8069  -20.9801  -12.2705 C   0  0  0  0  0  0  0  0  0  0  0  0
   21.5317  -20.4111  -13.4999 O   0  0  0  0  0  0  0  0  0  0  0  0
   20.8999  -21.6365  -11.7063 O   0  0  0  0  0  0  0  0  0  0  0  0
  2  1  1  6
  2  3  1  0
  3  4  1  0
  5  2  1  0
  6  5  2  0
  7  5  1  0
  8  7  1  0
  8  9  1  0
  9 11  1  0
  9 10  2  0
 11 12  1  0
 12 13  1  1
 13 14  1  0
 14 19  2  0
 15 16  2  0
 15 14  1  0
 16 17  1  0
 17 18  2  0
 19 18  1  0
 20 12  1  0
 20 21  1  0
 22 20  2  0
M  END
$$$$
