CGF.pdb
     RDKit          3D

 22 22  0  0  1  0  0  0  0  0999 V2000
   30.3118  -24.2531  -16.0316 N   0  0  0  0  0  0  0  0  0  0  0  0
   30.1043  -23.4021  -17.1599 C   0  0  1  0  0  0  0  0  0  0  0  0
   29.8686  -24.1637  -18.4430 C   0  0  0  0  0  0  0  0  0  0  0  0
   31.1208  -25.4389  -18.7114 S   0  0  0  0  0  0  0  0  0  0  0  0
   28.9639  -22.4633  -16.9946 C   0  0  0  0  0  0  0  0  0  0  0  0
   28.7977  -21.5800  -17.8559 O   0  0  0  0  0  0  0  0  0  0  0  0
   28.0835  -22.5561  -15.8971 N   0  0  0  0  0  0  0  0  0  0  0  0
   27.0032  -21.6731  -15.6266 C   0  0  0  0  0  0  0  0  0  0  0  0
   26.4276  -21.7808  -14.2668 C   0  0  0  0  0  0  0  0  0  0  0  0
   26.4476  -22.9043  -13.6433 O   0  0  0  0  0  0  0  0  0  0  0  0
   25.8378  -20.6860  -13.5830 N   0  0  0  0  0  0  0  0  0  0  0  0
   25.3188  -20.8359  -12.2194 C   0  0  1  0  0  0  0  0  0  0  0  0
   26.0311  -19.8518  -11.3245 C   0  0  0  0  0  0  0  0  0  0  0  0
   27.1288  -20.4493  -10.5756 C   0  0  0  0  0  0  0  0  0  0  0  0
   28.2723  -20.8236  -11.2461 C   0  0  0  0  0  0  0  0  0  0  0  0
   29.3186  -21.3798  -10.5445 C   0  0  0  0  0  0  0  0  0  0  0  0
   29.2522  -21.5737   -9.1787 C   0  0  0  0  0  0  0  0  0  0  0  0
   28.1047  -21.1968   -8.5137 C   0  0  0  0  0  0  0  0  0  0  0  0
   27.0558  -20.6399   -9.2128 C   0  0  0  0  0  0  0  0  0  0  0  0
   23.8591  -20.7492  -12.1861 C   0  0  0  0  0  0  0  0  0  0  0  0
   23.1588  -21.2324  -11.0965 O   0  0  0  0  0  0  0  0  0  0  0  0
   23.2080  -20.2429  -13.1303 O   0  0  0  0  0  0  0  0  0  0  0  0
  2  1  1  1
  2  3  1  0
  3  4  1  0
  5  2  1  0
  6  5  2  0
  7  5  1  0
  8  7  1  0
  8  9  1  0
  9 11  1  0
  9 10  2  0
 11 12  1  0
 12 13  1  1
 13 14  1  0
 14 19  2  0
 15 16  2  0
 15 14  1  0
 16 17  1  0
 17 18  2  0
 19 18  1  0
 20 12  1  0
 20 21  1  0
 22 20  2  0
M  END
$$$$
