CGF.pdb
     RDKit          3D

 22 22  0  0  1  0  0  0  0  0999 V2000
   27.4761  -19.0443  -15.4078 N   0  0  0  0  0  0  0  0  0  0  0  0
   27.2194  -20.4417  -15.5555 C   0  0  1  0  0  0  0  0  0  0  0  0
   28.4718  -21.2846  -15.5023 C   0  0  0  0  0  0  0  0  0  0  0  0
   28.1079  -23.0467  -15.6710 S   0  0  0  0  0  0  0  0  0  0  0  0
   26.2846  -20.9854  -14.5358 C   0  0  0  0  0  0  0  0  0  0  0  0
   25.7813  -22.1062  -14.7354 O   0  0  0  0  0  0  0  0  0  0  0  0
   25.9651  -20.2640  -13.3671 N   0  0  0  0  0  0  0  0  0  0  0  0
   25.1159  -20.7176  -12.3217 C   0  0  0  0  0  0  0  0  0  0  0  0
   25.8046  -21.0697  -11.0592 C   0  0  0  0  0  0  0  0  0  0  0  0
   26.0170  -22.3013  -10.7603 O   0  0  0  0  0  0  0  0  0  0  0  0
   26.2635  -20.1023  -10.1277 N   0  0  0  0  0  0  0  0  0  0  0  0
   26.6992  -20.4933   -8.7829 C   0  0  1  0  0  0  0  0  0  0  0  0
   27.6932  -19.4729   -8.2854 C   0  0  0  0  0  0  0  0  0  0  0  0
   28.1087  -19.7024   -6.9080 C   0  0  0  0  0  0  0  0  0  0  0  0
   27.5353  -18.9569   -5.9018 C   0  0  0  0  0  0  0  0  0  0  0  0
   27.9149  -19.1743   -4.5959 C   0  0  0  0  0  0  0  0  0  0  0  0
   28.8605  -20.1252   -4.2659 C   0  0  0  0  0  0  0  0  0  0  0  0
   29.4306  -20.8679   -5.2781 C   0  0  0  0  0  0  0  0  0  0  0  0
   29.0530  -20.6529   -6.5859 C   0  0  0  0  0  0  0  0  0  0  0  0
   25.5610  -20.7241   -7.8938 C   0  0  0  0  0  0  0  0  0  0  0  0
   25.6703  -21.6137   -6.8413 O   0  0  0  0  0  0  0  0  0  0  0  0
   24.4678  -20.1323   -8.0568 O   0  0  0  0  0  0  0  0  0  0  0  0
  2  1  1  1
  2  3  1  0
  3  4  1  0
  5  2  1  0
  6  5  2  0
  7  5  1  0
  8  7  1  0
  8  9  1  0
  9 11  1  0
  9 10  2  0
 11 12  1  0
 12 13  1  1
 13 14  1  0
 14 19  2  0
 15 16  2  0
 15 14  1  0
 16 17  1  0
 17 18  2  0
 19 18  1  0
 20 12  1  0
 20 21  1  0
 22 20  2  0
M  END
$$$$
