CGF.pdb
     RDKit          3D

 22 22  0  0  1  0  0  0  0  0999 V2000
   26.1785  -22.0487  -16.8433 N   0  0  0  0  0  0  0  0  0  0  0  0
   27.2782  -21.2429  -16.4168 C   0  0  1  0  0  0  0  0  0  0  0  0
   27.6232  -20.1436  -17.3937 C   0  0  0  0  0  0  0  0  0  0  0  0
   28.4745  -20.7809  -18.8549 S   0  0  0  0  0  0  0  0  0  0  0  0
   27.0658  -20.5995  -15.0939 C   0  0  0  0  0  0  0  0  0  0  0  0
   26.0248  -19.9398  -14.9193 O   0  0  0  0  0  0  0  0  0  0  0  0
   28.0085  -20.7228  -14.0524 N   0  0  0  0  0  0  0  0  0  0  0  0
   27.8982  -20.1345  -12.7634 C   0  0  0  0  0  0  0  0  0  0  0  0
   26.8987  -20.7615  -11.8689 C   0  0  0  0  0  0  0  0  0  0  0  0
   26.6066  -22.0063  -11.9975 O   0  0  0  0  0  0  0  0  0  0  0  0
   26.2216  -20.0536  -10.8420 N   0  0  0  0  0  0  0  0  0  0  0  0
   25.2645  -20.7302   -9.9604 C   0  0  1  0  0  0  0  0  0  0  0  0
   25.3540  -20.1086   -8.5885 C   0  0  0  0  0  0  0  0  0  0  0  0
   26.7000  -20.1414   -8.0316 C   0  0  0  0  0  0  0  0  0  0  0  0
   27.5554  -21.1544   -8.4050 C   0  0  0  0  0  0  0  0  0  0  0  0
   28.8326  -21.1874   -7.8912 C   0  0  0  0  0  0  0  0  0  0  0  0
   29.2819  -20.2267   -7.0065 C   0  0  0  0  0  0  0  0  0  0  0  0
   28.4205  -19.2156   -6.6370 C   0  0  0  0  0  0  0  0  0  0  0  0
   27.1416  -19.1796   -7.1492 C   0  0  0  0  0  0  0  0  0  0  0  0
   23.9208  -20.7494  -10.5379 C   0  0  0  0  0  0  0  0  0  0  0  0
   22.9092  -21.4617   -9.9211 O   0  0  0  0  0  0  0  0  0  0  0  0
   23.6494  -20.1310  -11.5942 O   0  0  0  0  0  0  0  0  0  0  0  0
  2  1  1  6
  2  3  1  0
  3  4  1  0
  5  2  1  0
  6  5  2  0
  7  5  1  0
  8  7  1  0
  8  9  1  0
  9 11  1  0
  9 10  2  0
 11 12  1  0
 12 13  1  1
 13 14  1  0
 14 19  2  0
 15 16  2  0
 15 14  1  0
 16 17  1  0
 17 18  2  0
 19 18  1  0
 20 12  1  0
 20 21  1  0
 22 20  2  0
M  END
$$$$
