CGF.pdb
     RDKit          3D

 22 22  0  0  1  0  0  0  0  0999 V2000
   28.5929  -19.5372  -19.1232 N   0  0  0  0  0  0  0  0  0  0  0  0
   27.4092  -20.1809  -18.6489 C   0  0  1  0  0  0  0  0  0  0  0  0
   27.6088  -21.6490  -18.3542 C   0  0  0  0  0  0  0  0  0  0  0  0
   27.8509  -22.6140  -19.8630 S   0  0  0  0  0  0  0  0  0  0  0  0
   26.8480  -19.5621  -17.4196 C   0  0  0  0  0  0  0  0  0  0  0  0
   27.6097  -18.8968  -16.6938 O   0  0  0  0  0  0  0  0  0  0  0  0
   25.4906  -19.7143  -17.0692 N   0  0  0  0  0  0  0  0  0  0  0  0
   24.8558  -19.1226  -15.9438 C   0  0  0  0  0  0  0  0  0  0  0  0
   24.6639  -20.0227  -14.7839 C   0  0  0  0  0  0  0  0  0  0  0  0
   24.8052  -21.2925  -14.9207 O   0  0  0  0  0  0  0  0  0  0  0  0
   24.3255  -19.5578  -13.4865 N   0  0  0  0  0  0  0  0  0  0  0  0
   24.1361  -20.4932  -12.3727 C   0  0  1  0  0  0  0  0  0  0  0  0
   25.0532  -20.0881  -11.2451 C   0  0  0  0  0  0  0  0  0  0  0  0
   26.4650  -20.1881  -11.5909 C   0  0  0  0  0  0  0  0  0  0  0  0
   27.2223  -21.1938  -11.0322 C   0  0  0  0  0  0  0  0  0  0  0  0
   28.5552  -21.3018  -11.3614 C   0  0  0  0  0  0  0  0  0  0  0  0
   29.1567  -20.4239  -12.2416 C   0  0  0  0  0  0  0  0  0  0  0  0
   28.3928  -19.4195  -12.7972 C   0  0  0  0  0  0  0  0  0  0  0  0
   27.0587  -19.3086  -12.4700 C   0  0  0  0  0  0  0  0  0  0  0  0
   22.7260  -20.6122  -12.0031 C   0  0  0  0  0  0  0  0  0  0  0  0
   22.2853  -21.7095  -11.2871 O   0  0  0  0  0  0  0  0  0  0  0  0
   21.8863  -19.7369  -12.3202 O   0  0  0  0  0  0  0  0  0  0  0  0
  2  1  1  1
  2  3  1  0
  3  4  1  0
  5  2  1  0
  6  5  2  0
  7  5  1  0
  8  7  1  0
  8  9  1  0
  9 11  1  0
  9 10  2  0
 11 12  1  0
 12 13  1  1
 13 14  1  0
 14 19  2  0
 15 16  2  0
 15 14  1  0
 16 17  1  0
 17 18  2  0
 19 18  1  0
 20 12  1  0
 20 21  1  0
 22 20  2  0
M  END
$$$$
