CGF.pdb
     RDKit          3D

 22 22  0  0  1  0  0  0  0  0999 V2000
   21.0368  -11.6378  -19.5571 N   0  0  0  0  0  0  0  0  0  0  0  0
   21.3972  -10.8134  -20.6666 C   0  0  1  0  0  0  0  0  0  0  0  0
   20.5244  -11.0350  -21.8794 C   0  0  0  0  0  0  0  0  0  0  0  0
   21.5008  -11.3848  -23.3594 S   0  0  0  0  0  0  0  0  0  0  0  0
   21.3604   -9.3589  -20.3630 C   0  0  0  0  0  0  0  0  0  0  0  0
   20.2933   -8.7450  -20.5470 O   0  0  0  0  0  0  0  0  0  0  0  0
   22.4952   -8.6762  -19.8787 N   0  0  0  0  0  0  0  0  0  0  0  0
   22.5508   -7.2949  -19.5488 C   0  0  0  0  0  0  0  0  0  0  0  0
   22.1487   -6.9621  -18.1633 C   0  0  0  0  0  0  0  0  0  0  0  0
   21.2072   -7.6204  -17.5874 O   0  0  0  0  0  0  0  0  0  0  0  0
   22.7581   -5.9301  -17.4033 N   0  0  0  0  0  0  0  0  0  0  0  0
   22.3244   -5.6428  -16.0320 C   0  0  1  0  0  0  0  0  0  0  0  0
   23.4780   -5.9129  -15.0977 C   0  0  0  0  0  0  0  0  0  0  0  0
   23.9930   -7.2718  -15.2015 C   0  0  0  0  0  0  0  0  0  0  0  0
   23.3997   -8.2717  -14.4631 C   0  0  0  0  0  0  0  0  0  0  0  0
   23.8737   -9.5609  -14.5629 C   0  0  0  0  0  0  0  0  0  0  0  0
   24.9341   -9.8802  -15.3881 C   0  0  0  0  0  0  0  0  0  0  0  0
   25.5234   -8.8744  -16.1244 C   0  0  0  0  0  0  0  0  0  0  0  0
   25.0515   -7.5833  -16.0269 C   0  0  0  0  0  0  0  0  0  0  0  0
   21.7451   -4.3044  -15.9195 C   0  0  0  0  0  0  0  0  0  0  0  0
   21.1160   -3.9152  -14.7517 O   0  0  0  0  0  0  0  0  0  0  0  0
   21.7996   -3.4821  -16.8643 O   0  0  0  0  0  0  0  0  0  0  0  0
  2  1  1  1
  2  3  1  0
  3  4  1  0
  5  2  1  0
  6  5  2  0
  7  5  1  0
  8  7  1  0
  8  9  1  0
  9 11  1  0
  9 10  2  0
 11 12  1  0
 12 13  1  1
 13 14  1  0
 14 19  2  0
 15 16  2  0
 15 14  1  0
 16 17  1  0
 17 18  2  0
 19 18  1  0
 20 12  1  0
 20 21  1  0
 22 20  2  0
M  END
$$$$
