CYI.pdb
     RDKit          3D

 27 27  0  0  1  0  0  0  0  0999 V2000
    3.7583  -20.9674   20.9036 N   0  0  0  0  0  0  0  0  0  0  0  0
    4.0802  -20.2617   22.1581 C   0  0  1  0  0  0  0  0  0  0  0  0
    4.5667  -21.2931   23.1336 C   0  0  0  0  0  0  0  0  0  0  0  0
    4.8667  -20.6482   24.7812 S   0  0  0  0  0  0  0  0  0  0  0  0
    5.1017  -19.2673   21.7837 C   0  0  0  0  0  0  0  0  0  0  0  0
    6.1457  -19.6032   21.1171 O   0  0  0  0  0  0  0  0  0  0  0  0
    9.3217  -12.0745   19.1295 O   0  0  0  0  0  0  0  0  0  0  0  0
    8.3807  -12.9854   19.6271 C   0  0  0  0  0  0  0  0  0  0  0  0
    7.6644  -12.7306   20.7906 C   0  0  0  0  0  0  0  0  0  0  0  0
    6.7333  -13.6161   21.2957 C   0  0  0  0  0  0  0  0  0  0  0  0
    6.5065  -14.8131   20.6066 C   0  0  0  0  0  0  0  0  0  0  0  0
    5.5277  -15.7390   21.1537 C   0  0  0  0  0  0  0  0  0  0  0  0
    6.0991  -16.9820   21.7940 C   0  0  2  0  0  0  0  0  0  0  0  0
    5.0203  -17.8987   22.1123 N   0  0  0  0  0  0  0  0  0  0  0  0
    6.9027  -16.7248   22.9991 C   0  0  0  0  0  0  0  0  0  0  0  0
    6.3634  -16.2517   24.0680 O   0  0  0  0  0  0  0  0  0  0  0  0
    7.2029  -15.0891   19.4524 C   0  0  0  0  0  0  0  0  0  0  0  0
    8.1319  -14.1890   18.9619 C   0  0  0  0  0  0  0  0  0  0  0  0
    8.2118  -19.4356   26.8086 C   0  0  0  0  0  0  0  0  0  0  0  0
    8.0509  -18.2323   25.9452 C   0  0  0  0  0  0  0  0  0  0  0  0
    9.2934  -17.7399   25.2705 C   0  0  2  0  0  0  0  0  0  0  0  0
   10.1707  -17.1546   26.3941 C   0  0  0  0  0  0  0  0  0  0  0  0
    9.0500  -16.5914   24.3297 C   0  0  2  0  0  0  0  0  0  0  0  0
    8.2966  -16.9463   23.1433 N   0  0  0  0  0  0  0  0  0  0  0  0
   10.3711  -16.1090   23.8726 C   0  0  0  0  0  0  0  0  0  0  0  0
   10.7151  -16.3120   22.6945 O   0  0  0  0  0  0  0  0  0  0  0  0
   11.2114  -15.4457   24.7300 O   0  0  0  0  0  0  0  0  0  0  0  0
  2  1  1  6
  2  3  1  0
  3  4  1  0
  5  2  1  0
  6  5  2  0
  8  7  1  0
  8 18  2  0
  9  8  1  0
 10  9  2  0
 10 11  1  0
 11 17  2  0
 12 11  1  0
 13 12  1  1
 13 14  1  0
 14  5  1  0
 15 24  1  0
 15 13  1  0
 16 15  2  0
 17 18  1  0
 20 19  1  0
 21 20  1  0
 21 22  1  1
 23 21  1  0
 23 24  1  6
 25 23  1  0
 25 27  1  0
 26 25  2  0
M  END
$$$$
