CYI.pdb
     RDKit          3D

 27 27  0  0  1  0  0  0  0  0999 V2000
    6.3924  -18.4230   18.9981 N   0  0  0  0  0  0  0  0  0  0  0  0
    7.3059  -17.4089   19.5572 C   0  0  1  0  0  0  0  0  0  0  0  0
    6.9489  -16.0954   18.9251 C   0  0  0  0  0  0  0  0  0  0  0  0
    7.6785  -14.6748   19.7437 S   0  0  0  0  0  0  0  0  0  0  0  0
    7.0765  -17.4514   21.0125 C   0  0  0  0  0  0  0  0  0  0  0  0
    5.9044  -17.6481   21.4968 O   0  0  0  0  0  0  0  0  0  0  0  0
    8.0151  -19.2206   29.5519 O   0  0  0  0  0  0  0  0  0  0  0  0
    8.0433  -19.0956   28.1568 C   0  0  0  0  0  0  0  0  0  0  0  0
    9.2349  -18.9094   27.4658 C   0  0  0  0  0  0  0  0  0  0  0  0
    9.2821  -18.7843   26.0917 C   0  0  0  0  0  0  0  0  0  0  0  0
    8.0828  -18.8481   25.3729 C   0  0  0  0  0  0  0  0  0  0  0  0
    8.1471  -18.7083   23.9269 C   0  0  0  0  0  0  0  0  0  0  0  0
    7.8097  -17.3363   23.3930 C   0  0  2  0  0  0  0  0  0  0  0  0
    8.0971  -17.2889   21.9716 N   0  0  0  0  0  0  0  0  0  0  0  0
    8.5059  -16.2351   24.0764 C   0  0  0  0  0  0  0  0  0  0  0  0
    9.7881  -16.1301   24.0297 O   0  0  0  0  0  0  0  0  0  0  0  0
    6.8897  -19.0315   26.0335 C   0  0  0  0  0  0  0  0  0  0  0  0
    6.8629  -19.1549   27.4111 C   0  0  0  0  0  0  0  0  0  0  0  0
    5.8534  -12.2262   27.3408 C   0  0  0  0  0  0  0  0  0  0  0  0
    6.5621  -13.3460   26.6603 C   0  0  0  0  0  0  0  0  0  0  0  0
    7.8214  -12.9807   25.9378 C   0  0  2  0  0  0  0  0  0  0  0  0
    7.3672  -12.3413   24.6112 C   0  0  0  0  0  0  0  0  0  0  0  0
    8.6470  -14.1713   25.5324 C   0  0  2  0  0  0  0  0  0  0  0  0
    7.9010  -15.2007   24.8360 N   0  0  0  0  0  0  0  0  0  0  0  0
    9.1735  -14.7845   26.7709 C   0  0  0  0  0  0  0  0  0  0  0  0
    8.7495  -15.9002   27.1214 O   0  0  0  0  0  0  0  0  0  0  0  0
   10.1168  -14.1379   27.5282 O   0  0  0  0  0  0  0  0  0  0  0  0
  2  1  1  6
  2  3  1  0
  3  4  1  0
  5  2  1  0
  6  5  2  0
  8  7  1  0
  8 18  2  0
  9  8  1  0
 10  9  2  0
 10 11  1  0
 11 17  2  0
 12 11  1  0
 13 12  1  1
 13 14  1  0
 14  5  1  0
 15 24  1  0
 15 13  1  0
 16 15  2  0
 17 18  1  0
 20 19  1  0
 21 20  1  0
 21 22  1  6
 23 21  1  0
 23 24  1  1
 25 23  1  0
 25 27  1  0
 26 25  2  0
M  END
$$$$
