CYI.pdb
     RDKit          3D

 27 27  0  0  1  0  0  0  0  0999 V2000
    7.8242  -16.8534   17.9253 N   0  0  0  0  0  0  0  0  0  0  0  0
    8.7857  -16.2048   18.8366 C   0  0  1  0  0  0  0  0  0  0  0  0
    8.9051  -14.7720   18.4070 C   0  0  0  0  0  0  0  0  0  0  0  0
    7.6530  -13.6969   19.1118 S   0  0  0  0  0  0  0  0  0  0  0  0
    8.2097  -16.3772   20.1823 C   0  0  0  0  0  0  0  0  0  0  0  0
    6.9771  -16.6962   20.3437 O   0  0  0  0  0  0  0  0  0  0  0  0
    7.3953  -19.6486   28.2412 O   0  0  0  0  0  0  0  0  0  0  0  0
    7.7427  -19.2330   26.9492 C   0  0  0  0  0  0  0  0  0  0  0  0
    9.0489  -18.8901   26.6205 C   0  0  0  0  0  0  0  0  0  0  0  0
    9.4098  -18.4786   25.3529 C   0  0  0  0  0  0  0  0  0  0  0  0
    8.4195  -18.4058   24.3664 C   0  0  0  0  0  0  0  0  0  0  0  0
    8.8130  -17.9646   23.0378 C   0  0  0  0  0  0  0  0  0  0  0  0
    8.3757  -16.5683   22.6630 C   0  0  2  0  0  0  0  0  0  0  0  0
    8.9437  -16.2155   21.3752 N   0  0  0  0  0  0  0  0  0  0  0  0
    8.7233  -15.5403   23.6563 C   0  0  0  0  0  0  0  0  0  0  0  0
    9.9376  -15.1364   23.7963 O   0  0  0  0  0  0  0  0  0  0  0  0
    7.1188  -18.7396   24.6664 C   0  0  0  0  0  0  0  0  0  0  0  0
    6.7768  -19.1499   25.9426 C   0  0  0  0  0  0  0  0  0  0  0  0
    6.6606  -10.5206   26.6740 C   0  0  0  0  0  0  0  0  0  0  0  0
    7.5136  -11.7419   26.6652 C   0  0  0  0  0  0  0  0  0  0  0  0
    7.1265  -12.8036   25.6832 C   0  0  2  0  0  0  0  0  0  0  0  0
    5.9913  -13.5978   26.3578 C   0  0  0  0  0  0  0  0  0  0  0  0
    8.2126  -13.8143   25.4336 C   0  0  2  0  0  0  0  0  0  0  0  0
    7.8267  -14.8919   24.5442 N   0  0  0  0  0  0  0  0  0  0  0  0
    8.5487  -14.4301   26.7355 C   0  0  0  0  0  0  0  0  0  0  0  0
    8.1447  -15.5803   26.9833 O   0  0  0  0  0  0  0  0  0  0  0  0
    9.2954  -13.7486   27.6626 O   0  0  0  0  0  0  0  0  0  0  0  0
  2  1  1  6
  2  3  1  0
  3  4  1  0
  5  2  1  0
  6  5  2  0
  8  7  1  0
  8 18  2  0
  9  8  1  0
 10  9  2  0
 10 11  1  0
 11 17  2  0
 12 11  1  0
 13 12  1  1
 13 14  1  0
 14  5  1  0
 15 24  1  0
 15 13  1  0
 16 15  2  0
 17 18  1  0
 20 19  1  0
 21 20  1  0
 21 22  1  1
 23 21  1  0
 23 24  1  6
 25 23  1  0
 25 27  1  0
 26 25  2  0
M  END
$$$$
