CYI.pdb
     RDKit          3D

 27 27  0  0  1  0  0  0  0  0999 V2000
   10.0523  -16.6293   18.6379 N   0  0  0  0  0  0  0  0  0  0  0  0
    8.7823  -16.8839   19.3435 C   0  0  1  0  0  0  0  0  0  0  0  0
    8.6066  -18.3725   19.4149 C   0  0  0  0  0  0  0  0  0  0  0  0
    7.2347  -18.8919   20.4486 S   0  0  0  0  0  0  0  0  0  0  0  0
    8.9425  -16.2393   20.6593 C   0  0  0  0  0  0  0  0  0  0  0  0
   10.0938  -16.1422   21.2180 O   0  0  0  0  0  0  0  0  0  0  0  0
    7.0691  -11.6958   28.0922 O   0  0  0  0  0  0  0  0  0  0  0  0
    7.0282  -12.3167   26.8369 C   0  0  0  0  0  0  0  0  0  0  0  0
    7.5182  -11.6896   25.6974 C   0  0  0  0  0  0  0  0  0  0  0  0
    7.4864  -12.2858   24.4526 C   0  0  0  0  0  0  0  0  0  0  0  0
    6.9395  -13.5693   24.3397 C   0  0  0  0  0  0  0  0  0  0  0  0
    6.9069  -14.1822   23.0214 C   0  0  0  0  0  0  0  0  0  0  0  0
    8.0969  -15.0473   22.6797 C   0  0  2  0  0  0  0  0  0  0  0  0
    7.8753  -15.6849   21.3952 N   0  0  0  0  0  0  0  0  0  0  0  0
    8.4114  -16.0677   23.6917 C   0  0  0  0  0  0  0  0  0  0  0  0
    7.7046  -17.1385   23.7965 O   0  0  0  0  0  0  0  0  0  0  0  0
    6.4475  -14.2115   25.4528 C   0  0  0  0  0  0  0  0  0  0  0  0
    6.4883  -13.5975   26.6918 C   0  0  0  0  0  0  0  0  0  0  0  0
   13.0784  -19.3169   25.7194 C   0  0  0  0  0  0  0  0  0  0  0  0
   11.7547  -18.7158   26.0445 C   0  0  0  0  0  0  0  0  0  0  0  0
   11.2547  -17.6777   25.0886 C   0  0  2  0  0  0  0  0  0  0  0  0
   12.2000  -16.4721   25.2547 C   0  0  0  0  0  0  0  0  0  0  0  0
    9.8889  -17.1510   25.4359 C   0  0  2  0  0  0  0  0  0  0  0  0
    9.4694  -16.0176   24.6356 N   0  0  0  0  0  0  0  0  0  0  0  0
    9.9382  -16.6914   26.8407 C   0  0  0  0  0  0  0  0  0  0  0  0
    9.9386  -15.4703   27.0784 O   0  0  0  0  0  0  0  0  0  0  0  0
    9.9831  -17.5933   27.8732 O   0  0  0  0  0  0  0  0  0  0  0  0
  2  1  1  6
  2  3  1  0
  3  4  1  0
  5  2  1  0
  6  5  2  0
  8  7  1  0
  8 18  2  0
  9  8  1  0
 10  9  2  0
 10 11  1  0
 11 17  2  0
 12 11  1  0
 13 12  1  1
 13 14  1  0
 14  5  1  0
 15 24  1  0
 15 13  1  0
 16 15  2  0
 17 18  1  0
 20 19  1  0
 21 20  1  0
 21 22  1  1
 23 21  1  0
 23 24  1  6
 25 23  1  0
 25 27  1  0
 26 25  2  0
M  END
$$$$
