CYI.pdb
     RDKit          3D

 27 27  0  0  1  0  0  0  0  0999 V2000
   11.7337  -16.4807   19.3124 N   0  0  0  0  0  0  0  0  0  0  0  0
   11.1650  -17.4149   20.3022 C   0  0  1  0  0  0  0  0  0  0  0  0
   12.2380  -18.4079   20.6407 C   0  0  0  0  0  0  0  0  0  0  0  0
   11.7693  -19.5731   21.9225 S   0  0  0  0  0  0  0  0  0  0  0  0
   10.7594  -16.5662   21.4369 C   0  0  0  0  0  0  0  0  0  0  0  0
   11.5072  -15.6106   21.8549 O   0  0  0  0  0  0  0  0  0  0  0  0
    5.8109  -11.8896   27.0395 O   0  0  0  0  0  0  0  0  0  0  0  0
    6.2810  -12.7951   26.0794 C   0  0  0  0  0  0  0  0  0  0  0  0
    7.0192  -12.3734   24.9798 C   0  0  0  0  0  0  0  0  0  0  0  0
    7.4907  -13.2510   24.0239 C   0  0  0  0  0  0  0  0  0  0  0  0
    7.2121  -14.6146   24.1728 C   0  0  0  0  0  0  0  0  0  0  0  0
    7.7096  -15.5264   23.1550 C   0  0  0  0  0  0  0  0  0  0  0  0
    9.1863  -15.8356   23.2283 C   0  0  2  0  0  0  0  0  0  0  0  0
    9.5467  -16.7233   22.1386 N   0  0  0  0  0  0  0  0  0  0  0  0
    9.6172  -16.4208   24.5074 C   0  0  0  0  0  0  0  0  0  0  0  0
    9.6175  -17.6955   24.6875 O   0  0  0  0  0  0  0  0  0  0  0  0
    6.4832  -15.0576   25.2525 C   0  0  0  0  0  0  0  0  0  0  0  0
    6.0193  -14.1626   26.1999 C   0  0  0  0  0  0  0  0  0  0  0  0
   10.3190  -13.4047   29.3761 C   0  0  0  0  0  0  0  0  0  0  0  0
    9.9219  -14.3860   28.3280 C   0  0  0  0  0  0  0  0  0  0  0  0
   10.9666  -15.3844   27.9366 C   0  0  2  0  0  0  0  0  0  0  0  0
   12.0936  -14.5671   27.2758 C   0  0  0  0  0  0  0  0  0  0  0  0
   10.5091  -16.3454   26.8733 C   0  0  2  0  0  0  0  0  0  0  0  0
   10.0633  -15.7081   25.6502 N   0  0  0  0  0  0  0  0  0  0  0  0
    9.3520  -17.0874   27.4187 C   0  0  0  0  0  0  0  0  0  0  0  0
    8.2278  -16.9096   26.9166 O   0  0  0  0  0  0  0  0  0  0  0  0
    9.5080  -17.9617   28.4641 O   0  0  0  0  0  0  0  0  0  0  0  0
  2  1  1  6
  2  3  1  0
  3  4  1  0
  5  2  1  0
  6  5  2  0
  8  7  1  0
  8 18  2  0
  9  8  1  0
 10  9  2  0
 10 11  1  0
 11 17  2  0
 12 11  1  0
 13 12  1  1
 13 14  1  0
 14  5  1  0
 15 24  1  0
 15 13  1  0
 16 15  2  0
 17 18  1  0
 20 19  1  0
 21 20  1  0
 21 22  1  6
 23 21  1  0
 23 24  1  6
 25 23  1  0
 25 27  1  0
 26 25  2  0
M  END
$$$$
