CYI.pdb
     RDKit          3D

 27 27  0  0  1  0  0  0  0  0999 V2000
    3.7452  -18.5229   21.0243 N   0  0  0  0  0  0  0  0  0  0  0  0
    5.2194  -18.5088   21.0685 C   0  0  1  0  0  0  0  0  0  0  0  0
    5.6834  -17.5177   20.0415 C   0  0  0  0  0  0  0  0  0  0  0  0
    6.7081  -16.2056   20.7111 S   0  0  0  0  0  0  0  0  0  0  0  0
    5.5549  -18.1324   22.4535 C   0  0  0  0  0  0  0  0  0  0  0  0
    4.8204  -17.3169   23.1188 O   0  0  0  0  0  0  0  0  0  0  0  0
    9.3109  -18.3624   30.5164 O   0  0  0  0  0  0  0  0  0  0  0  0
    8.8767  -18.6252   29.2106 C   0  0  0  0  0  0  0  0  0  0  0  0
    7.5387  -18.8671   28.9222 C   0  0  0  0  0  0  0  0  0  0  0  0
    7.0926  -19.1277   27.6419 C   0  0  0  0  0  0  0  0  0  0  0  0
    8.0266  -19.1479   26.5996 C   0  0  0  0  0  0  0  0  0  0  0  0
    7.5433  -19.4301   25.2574 C   0  0  0  0  0  0  0  0  0  0  0  0
    6.9299  -18.2571   24.5299 C   0  0  2  0  0  0  0  0  0  0  0  0
    6.6775  -18.6257   23.1494 N   0  0  0  0  0  0  0  0  0  0  0  0
    7.7390  -17.0292   24.5750 C   0  0  0  0  0  0  0  0  0  0  0  0
    8.7943  -16.9027   23.8487 O   0  0  0  0  0  0  0  0  0  0  0  0
    9.3572  -18.9118   26.8588 C   0  0  0  0  0  0  0  0  0  0  0  0
    9.7848  -18.6524   28.1486 C   0  0  0  0  0  0  0  0  0  0  0  0
    5.8212  -12.2338   27.0015 C   0  0  0  0  0  0  0  0  0  0  0  0
    6.5378  -13.4983   26.6746 C   0  0  0  0  0  0  0  0  0  0  0  0
    7.5430  -13.4138   25.5683 C   0  0  2  0  0  0  0  0  0  0  0  0
    6.7233  -13.2210   24.2777 C   0  0  0  0  0  0  0  0  0  0  0  0
    8.3086  -14.6912   25.3548 C   0  0  2  0  0  0  0  0  0  0  0  0
    7.4871  -15.8853   25.3755 N   0  0  0  0  0  0  0  0  0  0  0  0
    9.2767  -14.8153   26.4659 C   0  0  0  0  0  0  0  0  0  0  0  0
   10.2069  -13.9940   26.5527 O   0  0  0  0  0  0  0  0  0  0  0  0
    9.1572  -15.8199   27.3922 O   0  0  0  0  0  0  0  0  0  0  0  0
  2  1  1  1
  2  3  1  0
  3  4  1  0
  5  2  1  0
  6  5  2  0
  8  7  1  0
  8 18  2  0
  9  8  1  0
 10  9  2  0
 10 11  1  0
 11 17  2  0
 12 11  1  0
 13 12  1  6
 13 14  1  0
 14  5  1  0
 15 24  1  0
 15 13  1  0
 16 15  2  0
 17 18  1  0
 20 19  1  0
 21 20  1  0
 21 22  1  6
 23 21  1  0
 23 24  1  1
 25 23  1  0
 25 27  1  0
 26 25  2  0
M  END
$$$$
