CYI.pdb
     RDKit          3D

 27 27  0  0  1  0  0  0  0  0999 V2000
    8.1255  -17.5756   18.3165 N   0  0  0  0  0  0  0  0  0  0  0  0
    8.4956  -16.3409   19.0335 C   0  0  1  0  0  0  0  0  0  0  0  0
    7.8203  -15.2009   18.3290 C   0  0  0  0  0  0  0  0  0  0  0  0
    7.9047  -13.6456   19.2203 S   0  0  0  0  0  0  0  0  0  0  0  0
    8.0269  -16.5485   20.4154 C   0  0  0  0  0  0  0  0  0  0  0  0
    6.9384  -17.1822   20.6617 O   0  0  0  0  0  0  0  0  0  0  0  0
    7.8335  -19.8275   28.3814 O   0  0  0  0  0  0  0  0  0  0  0  0
    8.0799  -19.3448   27.0895 C   0  0  0  0  0  0  0  0  0  0  0  0
    9.3303  -18.8658   26.7167 C   0  0  0  0  0  0  0  0  0  0  0  0
    9.5916  -18.3866   25.4485 C   0  0  0  0  0  0  0  0  0  0  0  0
    8.5554  -18.3854   24.5076 C   0  0  0  0  0  0  0  0  0  0  0  0
    8.8435  -17.8718   23.1780 C   0  0  0  0  0  0  0  0  0  0  0  0
    8.3175  -16.4852   22.8911 C   0  0  2  0  0  0  0  0  0  0  0  0
    8.7170  -16.0859   21.5546 N   0  0  0  0  0  0  0  0  0  0  0  0
    8.7447  -15.4653   23.8615 C   0  0  0  0  0  0  0  0  0  0  0  0
    9.9193  -14.9421   23.8007 O   0  0  0  0  0  0  0  0  0  0  0  0
    7.3083  -18.8541   24.8518 C   0  0  0  0  0  0  0  0  0  0  0  0
    7.0660  -19.3305   26.1277 C   0  0  0  0  0  0  0  0  0  0  0  0
    6.3990  -10.6031   26.8630 C   0  0  0  0  0  0  0  0  0  0  0  0
    7.4735  -11.6266   26.7319 C   0  0  0  0  0  0  0  0  0  0  0  0
    7.1260  -12.8413   25.9288 C   0  0  2  0  0  0  0  0  0  0  0  0
    6.1922  -13.6774   26.8254 C   0  0  0  0  0  0  0  0  0  0  0  0
    8.3040  -13.7358   25.6541 C   0  0  2  0  0  0  0  0  0  0  0  0
    7.9721  -14.9489   24.9336 N   0  0  0  0  0  0  0  0  0  0  0  0
    8.8573  -14.1495   26.9617 C   0  0  0  0  0  0  0  0  0  0  0  0
    9.3203  -13.2827   27.7246 O   0  0  0  0  0  0  0  0  0  0  0  0
    8.8634  -15.4692   27.3357 O   0  0  0  0  0  0  0  0  0  0  0  0
  2  1  1  6
  2  3  1  0
  3  4  1  0
  5  2  1  0
  6  5  2  0
  8  7  1  0
  8 18  2  0
  9  8  1  0
 10  9  2  0
 10 11  1  0
 11 17  2  0
 12 11  1  0
 13 12  1  1
 13 14  1  0
 14  5  1  0
 15 24  1  0
 15 13  1  0
 16 15  2  0
 17 18  1  0
 20 19  1  0
 21 20  1  0
 21 22  1  1
 23 21  1  0
 23 24  1  1
 25 23  1  0
 25 27  1  0
 26 25  2  0
M  END
$$$$
