CYI.pdb
     RDKit          3D

 27 27  0  0  1  0  0  0  0  0999 V2000
    8.0981  -18.3987   19.6807 N   0  0  0  0  0  0  0  0  0  0  0  0
    8.8312  -17.2000   20.1293 C   0  0  1  0  0  0  0  0  0  0  0  0
    8.1574  -16.0113   19.5088 C   0  0  0  0  0  0  0  0  0  0  0  0
    8.8823  -14.4389   19.9804 S   0  0  0  0  0  0  0  0  0  0  0  0
    8.7476  -17.2315   21.6005 C   0  0  0  0  0  0  0  0  0  0  0  0
    7.6640  -17.5701   22.1992 O   0  0  0  0  0  0  0  0  0  0  0  0
   10.8213  -17.6929   30.1805 O   0  0  0  0  0  0  0  0  0  0  0  0
   10.8276  -17.6678   28.7797 C   0  0  0  0  0  0  0  0  0  0  0  0
    9.9311  -18.4233   28.0332 C   0  0  0  0  0  0  0  0  0  0  0  0
    9.9225  -18.4111   26.6526 C   0  0  0  0  0  0  0  0  0  0  0  0
   10.8532  -17.6063   25.9854 C   0  0  0  0  0  0  0  0  0  0  0  0
   10.8367  -17.6084   24.5313 C   0  0  0  0  0  0  0  0  0  0  0  0
    9.6637  -16.9000   23.8958 C   0  0  2  0  0  0  0  0  0  0  0  0
    9.8219  -16.9059   22.4535 N   0  0  0  0  0  0  0  0  0  0  0  0
    9.4649  -15.5206   24.3669 C   0  0  0  0  0  0  0  0  0  0  0  0
   10.2932  -14.5863   24.0534 O   0  0  0  0  0  0  0  0  0  0  0  0
   11.7517  -16.8490   26.7014 C   0  0  0  0  0  0  0  0  0  0  0  0
   11.7445  -16.8746   28.0845 C   0  0  0  0  0  0  0  0  0  0  0  0
    5.4558  -11.1459   26.2500 C   0  0  0  0  0  0  0  0  0  0  0  0
    6.8132  -11.7599   26.2506 C   0  0  0  0  0  0  0  0  0  0  0  0
    6.8985  -13.1600   25.7275 C   0  0  2  0  0  0  0  0  0  0  0  0
    6.1709  -14.0353   26.7664 C   0  0  0  0  0  0  0  0  0  0  0  0
    8.3026  -13.6983   25.6812 C   0  0  2  0  0  0  0  0  0  0  0  0
    8.4010  -15.0557   25.1823 N   0  0  0  0  0  0  0  0  0  0  0  0
    8.8152  -13.7112   27.0684 C   0  0  0  0  0  0  0  0  0  0  0  0
    9.1102  -12.6333   27.6146 O   0  0  0  0  0  0  0  0  0  0  0  0
    8.9662  -14.8919   27.7500 O   0  0  0  0  0  0  0  0  0  0  0  0
  2  1  1  6
  2  3  1  0
  3  4  1  0
  5  2  1  0
  6  5  2  0
  8  7  1  0
  8 18  2  0
  9  8  1  0
 10  9  2  0
 10 11  1  0
 11 17  2  0
 12 11  1  0
 13 12  1  1
 13 14  1  0
 14  5  1  0
 15 24  1  0
 15 13  1  0
 16 15  2  0
 17 18  1  0
 20 19  1  0
 21 20  1  0
 21 22  1  1
 23 21  1  0
 23 24  1  1
 25 23  1  0
 25 27  1  0
 26 25  2  0
M  END
$$$$
