CYI.pdb
     RDKit          3D

 27 27  0  0  1  0  0  0  0  0999 V2000
    8.7944  -15.5530   19.5346 N   0  0  0  0  0  0  0  0  0  0  0  0
    7.7765  -15.1507   20.5233 C   0  0  1  0  0  0  0  0  0  0  0  0
    6.5260  -15.9181   20.2080 C   0  0  0  0  0  0  0  0  0  0  0  0
    5.2972  -15.8703   21.5149 S   0  0  0  0  0  0  0  0  0  0  0  0
    8.3656  -15.4838   21.8326 C   0  0  0  0  0  0  0  0  0  0  0  0
    9.1477  -16.4915   21.9744 O   0  0  0  0  0  0  0  0  0  0  0  0
   10.8089  -15.0318   30.3761 O   0  0  0  0  0  0  0  0  0  0  0  0
   10.2931  -14.7758   29.0989 C   0  0  0  0  0  0  0  0  0  0  0  0
    9.0766  -14.1274   28.9208 C   0  0  0  0  0  0  0  0  0  0  0  0
    8.5528  -13.8667   27.6703 C   0  0  0  0  0  0  0  0  0  0  0  0
    9.2777  -14.2725   26.5438 C   0  0  0  0  0  0  0  0  0  0  0  0
    8.7106  -13.9970   25.2334 C   0  0  0  0  0  0  0  0  0  0  0  0
    8.6577  -15.1751   24.2897 C   0  0  2  0  0  0  0  0  0  0  0  0
    8.1312  -14.7423   23.0087 N   0  0  0  0  0  0  0  0  0  0  0  0
    7.8713  -16.3135   24.7896 C   0  0  0  0  0  0  0  0  0  0  0  0
    6.5943  -16.2282   24.9284 O   0  0  0  0  0  0  0  0  0  0  0  0
   10.4845  -14.9165   26.6933 C   0  0  0  0  0  0  0  0  0  0  0  0
   10.9930  -15.1687   27.9548 C   0  0  0  0  0  0  0  0  0  0  0  0
    6.3800  -20.5247   22.5884 C   0  0  0  0  0  0  0  0  0  0  0  0
    6.4976  -19.4611   23.6249 C   0  0  0  0  0  0  0  0  0  0  0  0
    7.3271  -19.8039   24.8232 C   0  0  2  0  0  0  0  0  0  0  0  0
    6.4777  -20.7920   25.6460 C   0  0  0  0  0  0  0  0  0  0  0  0
    7.5639  -18.6366   25.7423 C   0  0  2  0  0  0  0  0  0  0  0  0
    8.3775  -17.5842   25.1666 N   0  0  0  0  0  0  0  0  0  0  0  0
    8.2929  -19.1469   26.9235 C   0  0  0  0  0  0  0  0  0  0  0  0
    9.5201  -18.9601   27.0046 O   0  0  0  0  0  0  0  0  0  0  0  0
    7.6319  -19.8182   27.9205 O   0  0  0  0  0  0  0  0  0  0  0  0
  2  1  1  6
  2  3  1  0
  3  4  1  0
  5  2  1  0
  6  5  2  0
  8  7  1  0
  8 18  2  0
  9  8  1  0
 10  9  2  0
 10 11  1  0
 11 17  2  0
 12 11  1  0
 13 12  1  1
 13 14  1  0
 14  5  1  0
 15 24  1  0
 15 13  1  0
 16 15  2  0
 17 18  1  0
 20 19  1  0
 21 20  1  0
 21 22  1  1
 23 21  1  0
 23 24  1  6
 25 23  1  0
 25 27  1  0
 26 25  2  0
M  END
$$$$
