CYI.pdb
     RDKit          3D

 27 27  0  0  1  0  0  0  0  0999 V2000
    7.0488  -21.8030   21.5411 N   0  0  0  0  0  0  0  0  0  0  0  0
    6.2495  -21.0898   22.5549 C   0  0  1  0  0  0  0  0  0  0  0  0
    6.3337  -21.8852   23.8246 C   0  0  0  0  0  0  0  0  0  0  0  0
    5.7282  -21.0105   25.2697 S   0  0  0  0  0  0  0  0  0  0  0  0
    6.8605  -19.7517   22.6486 C   0  0  0  0  0  0  0  0  0  0  0  0
    8.1326  -19.5942   22.5846 O   0  0  0  0  0  0  0  0  0  0  0  0
    9.2873  -12.1480   19.8375 O   0  0  0  0  0  0  0  0  0  0  0  0
    8.4919  -13.1841   20.3440 C   0  0  0  0  0  0  0  0  0  0  0  0
    8.6077  -14.4875   19.8754 C   0  0  0  0  0  0  0  0  0  0  0  0
    7.8327  -15.5211   20.3625 C   0  0  0  0  0  0  0  0  0  0  0  0
    6.8974  -15.2403   21.3652 C   0  0  0  0  0  0  0  0  0  0  0  0
    6.0837  -16.3374   21.8640 C   0  0  0  0  0  0  0  0  0  0  0  0
    6.7739  -17.2666   22.8344 C   0  0  2  0  0  0  0  0  0  0  0  0
    6.1207  -18.5620   22.8075 N   0  0  0  0  0  0  0  0  0  0  0  0
    6.8247  -16.7658   24.2168 C   0  0  0  0  0  0  0  0  0  0  0  0
    5.8151  -16.8912   25.0056 O   0  0  0  0  0  0  0  0  0  0  0  0
    6.7631  -13.9580   21.8460 C   0  0  0  0  0  0  0  0  0  0  0  0
    7.5490  -12.9356   21.3452 C   0  0  0  0  0  0  0  0  0  0  0  0
   10.2687  -12.6690   26.7097 C   0  0  0  0  0  0  0  0  0  0  0  0
    9.1635  -13.5208   26.1878 C   0  0  0  0  0  0  0  0  0  0  0  0
    9.1729  -14.9503   26.6326 C   0  0  2  0  0  0  0  0  0  0  0  0
   10.3257  -15.6176   25.8578 C   0  0  0  0  0  0  0  0  0  0  0  0
    7.9405  -15.7123   26.2277 C   0  0  2  0  0  0  0  0  0  0  0  0
    7.9228  -16.1143   24.8352 N   0  0  0  0  0  0  0  0  0  0  0  0
    6.7817  -14.8165   26.4320 C   0  0  0  0  0  0  0  0  0  0  0  0
    6.2177  -14.3208   25.4402 O   0  0  0  0  0  0  0  0  0  0  0  0
    6.3290  -14.5311   27.6950 O   0  0  0  0  0  0  0  0  0  0  0  0
  2  1  1  6
  2  3  1  0
  3  4  1  0
  5  2  1  0
  6  5  2  0
  8  7  1  0
  8 18  2  0
  9  8  1  0
 10  9  2  0
 10 11  1  0
 11 17  2  0
 12 11  1  0
 13 12  1  6
 13 14  1  0
 14  5  1  0
 15 24  1  0
 15 13  1  0
 16 15  2  0
 17 18  1  0
 20 19  1  0
 21 20  1  0
 21 22  1  6
 23 21  1  0
 23 24  1  6
 25 23  1  0
 25 27  1  0
 26 25  2  0
M  END
$$$$
