DIC.pdb
     RDKit          3D

 23 22  0  0  1  0  0  0  0  0999 V2000
   28.2132  -21.7326  -16.8472 N   0  0  0  0  0  0  0  0  0  0  0  0
   27.5816  -20.6464  -16.1419 C   0  0  1  0  0  0  0  0  0  0  0  0
   26.7150  -19.8773  -17.1344 C   0  0  0  0  0  0  0  0  0  0  0  0
   27.5840  -19.1777  -18.0764 C   0  0  0  0  0  0  0  0  0  0  0  0
   28.5598  -18.5060  -17.6750 O   0  0  0  0  0  0  0  0  0  0  0  0
   26.7008  -21.1793  -15.0925 C   0  0  0  0  0  0  0  0  0  0  0  0
   26.0937  -22.2796  -15.3257 O   0  0  0  0  0  0  0  0  0  0  0  0
   27.3383  -19.2488  -19.4342 O   0  0  0  0  0  0  0  0  0  0  0  0
   28.5893  -21.0713  -10.2558 C   0  0  0  0  0  0  0  0  0  0  0  0
   27.7448  -21.4648  -11.4033 C   0  0  0  0  0  0  0  0  0  0  0  0
   26.4008  -20.8936  -11.5440 C   0  0  2  0  0  0  0  0  0  0  0  0
   25.5457  -21.0828  -10.2884 C   0  0  0  0  0  0  0  0  0  0  0  0
   25.6499  -21.1887  -12.7805 C   0  0  2  0  0  0  0  0  0  0  0  0
   26.4859  -20.5556  -13.8532 N   0  0  0  0  0  0  0  0  0  0  0  0
   24.3170  -20.6755  -12.9845 C   0  0  0  0  0  0  0  0  0  0  0  0
   24.1012  -19.4100  -12.8448 O   0  0  0  0  0  0  0  0  0  0  0  0
   23.1336  -21.3954  -13.3479 N   0  0  0  0  0  0  0  0  0  0  0  0
   21.8531  -20.7446  -13.4927 C   0  0  1  0  0  0  0  0  0  0  0  0
   21.0997  -21.4832  -14.6109 C   0  0  0  0  0  0  0  0  0  0  0  0
   20.9873  -23.2119  -14.0528 S   0  0  0  0  0  0  0  0  0  0  0  0
   21.0131  -20.7537  -12.2850 C   0  0  0  0  0  0  0  0  0  0  0  0
   21.3904  -21.4178  -11.1306 O   0  0  0  0  0  0  0  0  0  0  0  0
   19.9203  -20.1470  -12.2848 O   0  0  0  0  0  0  0  0  0  0  0  0
  2  1  1  6
  2  3  1  0
  3  4  1  0
  4  8  1  0
  4  5  2  0
  6  2  1  0
  6  7  2  0
  9 10  1  0
 10 11  1  0
 11 13  1  0
 11 12  1  1
 13 14  1  6
 14  6  1  0
 15 13  1  0
 16 15  2  0
 17 15  1  0
 18 19  1  6
 18 17  1  0
 19 20  1  0
 21 22  1  0
 21 18  1  0
 23 21  2  0
M  END
$$$$
