DIC.pdb
     RDKit          3D

 23 22  0  0  1  0  0  0  0  0999 V2000
   26.9823  -20.9629  -15.9257 N   0  0  0  0  0  0  0  0  0  0  0  0
   26.0350  -20.0821  -15.2909 C   0  0  1  0  0  0  0  0  0  0  0  0
   25.0987  -19.5392  -16.3662 C   0  0  0  0  0  0  0  0  0  0  0  0
   25.8123  -18.5352  -17.1502 C   0  0  0  0  0  0  0  0  0  0  0  0
   26.2749  -18.8098  -18.2794 O   0  0  0  0  0  0  0  0  0  0  0  0
   25.2232  -20.8365  -14.3250 C   0  0  0  0  0  0  0  0  0  0  0  0
   24.9526  -22.0557  -14.5973 O   0  0  0  0  0  0  0  0  0  0  0  0
   25.9874  -17.2586  -16.6516 O   0  0  0  0  0  0  0  0  0  0  0  0
   26.4771  -20.5301   -9.2826 C   0  0  0  0  0  0  0  0  0  0  0  0
   25.8754  -21.0199  -10.5406 C   0  0  0  0  0  0  0  0  0  0  0  0
   24.4724  -20.7135  -10.8406 C   0  0  2  0  0  0  0  0  0  0  0  0
   23.5303  -21.0803   -9.6911 C   0  0  0  0  0  0  0  0  0  0  0  0
   23.9392  -21.1287  -12.1534 C   0  0  2  0  0  0  0  0  0  0  0  0
   24.7280  -20.3017  -13.1251 N   0  0  0  0  0  0  0  0  0  0  0  0
   22.5564  -20.9081  -12.5008 C   0  0  0  0  0  0  0  0  0  0  0  0
   22.1075  -19.6988  -12.5610 O   0  0  0  0  0  0  0  0  0  0  0  0
   21.5534  -21.8804  -12.8158 N   0  0  0  0  0  0  0  0  0  0  0  0
   20.1855  -21.5105  -13.0921 C   0  0  1  0  0  0  0  0  0  0  0  0
   19.6491  -22.5172  -14.1226 C   0  0  0  0  0  0  0  0  0  0  0  0
   20.8580  -22.5013  -15.4830 S   0  0  0  0  0  0  0  0  0  0  0  0
   19.2917  -21.5243  -11.9237 C   0  0  0  0  0  0  0  0  0  0  0  0
   19.6861  -22.0394  -10.7008 O   0  0  0  0  0  0  0  0  0  0  0  0
   18.1355  -21.0596  -12.0215 O   0  0  0  0  0  0  0  0  0  0  0  0
  2  1  1  6
  2  3  1  0
  3  4  1  0
  4  8  1  0
  4  5  2  0
  6  2  1  0
  6  7  2  0
  9 10  1  0
 10 11  1  0
 11 13  1  0
 11 12  1  1
 13 14  1  6
 14  6  1  0
 15 13  1  0
 16 15  2  0
 17 15  1  0
 18 19  1  6
 18 17  1  0
 19 20  1  0
 21 22  1  0
 21 18  1  0
 23 21  2  0
M  END
$$$$
