DIC.pdb
     RDKit          3D

 23 22  0  0  1  0  0  0  0  0999 V2000
   19.5789  -23.6202  -14.9939 N   0  0  0  0  0  0  0  0  0  0  0  0
   18.6440  -23.3171  -13.9402 C   0  0  1  0  0  0  0  0  0  0  0  0
   17.4556  -24.2644  -14.0742 C   0  0  0  0  0  0  0  0  0  0  0  0
   16.5607  -23.7554  -15.1095 C   0  0  0  0  0  0  0  0  0  0  0  0
   16.1933  -24.4837  -16.0576 O   0  0  0  0  0  0  0  0  0  0  0  0
   19.2704  -23.5615  -12.6330 C   0  0  0  0  0  0  0  0  0  0  0  0
   20.1356  -24.4990  -12.5524 O   0  0  0  0  0  0  0  0  0  0  0  0
   16.1043  -22.4524  -15.0555 O   0  0  0  0  0  0  0  0  0  0  0  0
   21.7216  -20.1252   -8.4924 C   0  0  0  0  0  0  0  0  0  0  0  0
   21.0356  -21.4157   -8.7129 C   0  0  0  0  0  0  0  0  0  0  0  0
   20.3657  -21.6712   -9.9929 C   0  0  2  0  0  0  0  0  0  0  0  0
   19.4199  -20.5383  -10.3995 C   0  0  0  0  0  0  0  0  0  0  0  0
   19.7650  -23.0032  -10.2053 C   0  0  2  0  0  0  0  0  0  0  0  0
   18.9778  -22.8306  -11.4706 N   0  0  0  0  0  0  0  0  0  0  0  0
   18.8369  -23.5635   -9.2533 C   0  0  0  0  0  0  0  0  0  0  0  0
   17.6228  -23.1245   -9.2241 O   0  0  0  0  0  0  0  0  0  0  0  0
   19.0685  -24.5967   -8.2891 N   0  0  0  0  0  0  0  0  0  0  0  0
   18.0488  -25.0222   -7.3600 C   0  0  1  0  0  0  0  0  0  0  0  0
   18.1840  -26.5466   -7.2144 C   0  0  0  0  0  0  0  0  0  0  0  0
   16.8440  -27.0416   -6.0868 S   0  0  0  0  0  0  0  0  0  0  0  0
   18.1401  -24.4200   -6.0209 C   0  0  0  0  0  0  0  0  0  0  0  0
   17.0167  -24.1273   -5.2669 O   0  0  0  0  0  0  0  0  0  0  0  0
   19.2609  -24.1580   -5.5335 O   0  0  0  0  0  0  0  0  0  0  0  0
  2  1  1  6
  2  3  1  0
  3  4  1  0
  4  8  1  0
  4  5  2  0
  6  2  1  0
  6  7  2  0
  9 10  1  0
 10 11  1  0
 11 13  1  0
 11 12  1  1
 13 14  1  6
 14  6  1  0
 15 13  1  0
 16 15  2  0
 17 15  1  0
 18 19  1  1
 18 17  1  0
 19 20  1  0
 21 22  1  0
 21 18  1  0
 23 21  2  0
M  END
$$$$
