DIC.pdb
     RDKit          3D

 23 22  0  0  1  0  0  0  0  0999 V2000
   22.5970  -19.1127  -18.6100 N   0  0  0  0  0  0  0  0  0  0  0  0
   22.9251  -18.4237  -17.3879 C   0  0  1  0  0  0  0  0  0  0  0  0
   21.6346  -18.2118  -16.6023 C   0  0  0  0  0  0  0  0  0  0  0  0
   20.8419  -17.1807  -17.2660 C   0  0  0  0  0  0  0  0  0  0  0  0
   19.5975  -17.2780  -17.3467 O   0  0  0  0  0  0  0  0  0  0  0  0
   23.8189  -19.2571  -16.5708 C   0  0  0  0  0  0  0  0  0  0  0  0
   23.6050  -20.5171  -16.5495 O   0  0  0  0  0  0  0  0  0  0  0  0
   21.4604  -16.0754  -17.8179 O   0  0  0  0  0  0  0  0  0  0  0  0
   28.9104  -18.7286  -17.2232 C   0  0  0  0  0  0  0  0  0  0  0  0
   27.5941  -19.2648  -16.8177 C   0  0  0  0  0  0  0  0  0  0  0  0
   27.1597  -19.1412  -15.4218 C   0  0  2  0  0  0  0  0  0  0  0  0
   28.2366  -19.5837  -14.4280 C   0  0  0  0  0  0  0  0  0  0  0  0
   25.8239  -19.6592  -15.0648 C   0  0  2  0  0  0  0  0  0  0  0  0
   24.8900  -18.7556  -15.8143 N   0  0  0  0  0  0  0  0  0  0  0  0
   25.3570  -19.6411  -13.6997 C   0  0  0  0  0  0  0  0  0  0  0  0
   25.1599  -18.5059  -13.1166 O   0  0  0  0  0  0  0  0  0  0  0  0
   25.0530  -20.7529  -12.8499 N   0  0  0  0  0  0  0  0  0  0  0  0
   24.8007  -20.5930  -11.4374 C   0  0  1  0  0  0  0  0  0  0  0  0
   23.4451  -21.2573  -11.1471 C   0  0  0  0  0  0  0  0  0  0  0  0
   23.2181  -21.1174   -9.3467 S   0  0  0  0  0  0  0  0  0  0  0  0
   25.8105  -21.1980  -10.5550 C   0  0  0  0  0  0  0  0  0  0  0  0
   26.1548  -20.6375   -9.3371 O   0  0  0  0  0  0  0  0  0  0  0  0
   26.3854  -22.2523  -10.9015 O   0  0  0  0  0  0  0  0  0  0  0  0
  2  1  1  6
  2  3  1  0
  3  4  1  0
  4  8  1  0
  4  5  2  0
  6  2  1  0
  6  7  2  0
  9 10  1  0
 10 11  1  0
 11 13  1  0
 11 12  1  1
 13 14  1  6
 14  6  1  0
 15 13  1  0
 16 15  2  0
 17 15  1  0
 18 19  1  1
 18 17  1  0
 19 20  1  0
 21 22  1  0
 21 18  1  0
 23 21  2  0
M  END
$$$$
