DIC.pdb
     RDKit          3D

 23 22  0  0  1  0  0  0  0  0999 V2000
   20.1515  -19.9764  -12.5515 N   0  0  0  0  0  0  0  0  0  0  0  0
   21.0561  -21.0940  -12.6455 C   0  0  1  0  0  0  0  0  0  0  0  0
   20.7263  -21.8646  -13.9203 C   0  0  0  0  0  0  0  0  0  0  0  0
   19.5281  -22.6666  -13.6903 C   0  0  0  0  0  0  0  0  0  0  0  0
   18.8728  -22.5554  -12.6307 O   0  0  0  0  0  0  0  0  0  0  0  0
   22.4388  -20.6076  -12.7574 C   0  0  0  0  0  0  0  0  0  0  0  0
   22.6218  -19.4359  -13.2344 O   0  0  0  0  0  0  0  0  0  0  0  0
   19.0987  -23.5659  -14.6472 O   0  0  0  0  0  0  0  0  0  0  0  0
   25.5095  -20.8073   -8.6537 C   0  0  0  0  0  0  0  0  0  0  0  0
   24.9467  -20.5113   -9.9880 C   0  0  0  0  0  0  0  0  0  0  0  0
   25.5608  -21.1035  -11.1815 C   0  0  2  0  0  0  0  0  0  0  0  0
   27.0843  -20.9547  -11.1960 C   0  0  0  0  0  0  0  0  0  0  0  0
   24.9576  -20.7973  -12.4940 C   0  0  2  0  0  0  0  0  0  0  0  0
   23.5677  -21.3488  -12.3738 N   0  0  0  0  0  0  0  0  0  0  0  0
   25.4883  -21.3648  -13.7097 C   0  0  0  0  0  0  0  0  0  0  0  0
   25.8690  -22.5987  -13.7149 O   0  0  0  0  0  0  0  0  0  0  0  0
   25.6570  -20.7348  -14.9846 N   0  0  0  0  0  0  0  0  0  0  0  0
   26.3051  -21.4000  -16.0899 C   0  0  1  0  0  0  0  0  0  0  0  0
   25.3269  -21.3551  -17.2749 C   0  0  0  0  0  0  0  0  0  0  0  0
   23.8525  -22.2632  -16.7146 S   0  0  0  0  0  0  0  0  0  0  0  0
   27.5768  -20.7963  -16.5170 C   0  0  0  0  0  0  0  0  0  0  0  0
   28.6002  -21.5478  -17.0686 O   0  0  0  0  0  0  0  0  0  0  0  0
   27.7552  -19.5663  -16.3847 O   0  0  0  0  0  0  0  0  0  0  0  0
  2  1  1  6
  2  3  1  0
  3  4  1  0
  4  8  1  0
  4  5  2  0
  6  2  1  0
  6  7  2  0
  9 10  1  0
 10 11  1  0
 11 13  1  0
 11 12  1  6
 13 14  1  1
 14  6  1  0
 15 13  1  0
 16 15  2  0
 17 15  1  0
 18 19  1  6
 18 17  1  0
 19 20  1  0
 21 22  1  0
 21 18  1  0
 23 21  2  0
M  END
$$$$
