DIC.pdb
     RDKit          3D

 23 22  0  0  1  0  0  0  0  0999 V2000
   21.3338  -33.2028  -10.0149 N   0  0  0  0  0  0  0  0  0  0  0  0
   21.9551  -32.9529   -8.7391 C   0  0  1  0  0  0  0  0  0  0  0  0
   21.0757  -33.5688   -7.6551 C   0  0  0  0  0  0  0  0  0  0  0  0
   19.9081  -32.7157   -7.4535 C   0  0  0  0  0  0  0  0  0  0  0  0
   19.0630  -32.9795   -6.5699 O   0  0  0  0  0  0  0  0  0  0  0  0
   23.2667  -33.6147   -8.6857 C   0  0  0  0  0  0  0  0  0  0  0  0
   23.4202  -34.6893   -9.3606 O   0  0  0  0  0  0  0  0  0  0  0  0
   19.7194  -31.5969   -8.2420 O   0  0  0  0  0  0  0  0  0  0  0  0
   26.4958  -34.0777  -11.1819 C   0  0  0  0  0  0  0  0  0  0  0  0
   26.1104  -32.9175  -10.3512 C   0  0  0  0  0  0  0  0  0  0  0  0
   26.4614  -32.8970   -8.9269 C   0  0  2  0  0  0  0  0  0  0  0  0
   27.9722  -32.9703   -8.6911 C   0  0  0  0  0  0  0  0  0  0  0  0
   25.7108  -33.7849   -8.0167 C   0  0  2  0  0  0  0  0  0  0  0  0
   24.3583  -33.1402   -7.9411 N   0  0  0  0  0  0  0  0  0  0  0  0
   26.1219  -33.9681   -6.6460 C   0  0  0  0  0  0  0  0  0  0  0  0
   25.8372  -33.0574   -5.7759 O   0  0  0  0  0  0  0  0  0  0  0  0
   26.8286  -35.0727   -6.0705 N   0  0  0  0  0  0  0  0  0  0  0  0
   27.1228  -35.1444   -4.6590 C   0  0  1  0  0  0  0  0  0  0  0  0
   25.7862  -34.9923   -3.9150 C   0  0  0  0  0  0  0  0  0  0  0  0
   26.2175  -35.0020   -2.1469 S   0  0  0  0  0  0  0  0  0  0  0  0
   27.7559  -36.3979   -4.2206 C   0  0  0  0  0  0  0  0  0  0  0  0
   28.6514  -36.4411   -3.1659 O   0  0  0  0  0  0  0  0  0  0  0  0
   27.4873  -37.4674   -4.8090 O   0  0  0  0  0  0  0  0  0  0  0  0
  2  1  1  6
  2  3  1  0
  3  4  1  0
  4  8  1  0
  4  5  2  0
  6  2  1  0
  6  7  2  0
  9 10  1  0
 10 11  1  0
 11 13  1  0
 11 12  1  6
 13 14  1  1
 14  6  1  0
 15 13  1  0
 16 15  2  0
 17 15  1  0
 18 19  1  1
 18 17  1  0
 19 20  1  0
 21 22  1  0
 21 18  1  0
 23 21  2  0
M  END
$$$$
