DIC.pdb
     RDKit          3D

 23 22  0  0  1  0  0  0  0  0999 V2000
   25.3861  -21.0393  -18.4655 N   0  0  0  0  0  0  0  0  0  0  0  0
   24.4643  -21.3965  -17.4173 C   0  0  1  0  0  0  0  0  0  0  0  0
   23.7563  -22.6841  -17.8274 C   0  0  0  0  0  0  0  0  0  0  0  0
   22.8144  -22.3833  -18.9017 C   0  0  0  0  0  0  0  0  0  0  0  0
   22.8688  -22.9902  -19.9940 O   0  0  0  0  0  0  0  0  0  0  0  0
   25.2025  -21.6638  -16.1745 C   0  0  0  0  0  0  0  0  0  0  0  0
   25.6275  -22.8531  -15.9776 O   0  0  0  0  0  0  0  0  0  0  0  0
   21.8431  -21.4167  -18.7249 O   0  0  0  0  0  0  0  0  0  0  0  0
   29.5857  -20.7454  -13.0354 C   0  0  0  0  0  0  0  0  0  0  0  0
   28.3188  -19.9973  -12.8945 C   0  0  0  0  0  0  0  0  0  0  0  0
   27.3489  -20.0000  -13.9952 C   0  0  2  0  0  0  0  0  0  0  0  0
   26.8205  -18.6002  -14.3186 C   0  0  0  0  0  0  0  0  0  0  0  0
   26.2723  -21.0101  -13.9658 C   0  0  2  0  0  0  0  0  0  0  0  0
   25.4687  -20.6959  -15.1930 N   0  0  0  0  0  0  0  0  0  0  0  0
   25.3168  -21.0509  -12.8856 C   0  0  0  0  0  0  0  0  0  0  0  0
   24.1816  -20.4517  -13.0260 O   0  0  0  0  0  0  0  0  0  0  0  0
   25.4397  -21.6993  -11.6147 N   0  0  0  0  0  0  0  0  0  0  0  0
   24.5069  -21.4625  -10.5386 C   0  0  1  0  0  0  0  0  0  0  0  0
   25.1819  -21.9493   -9.2461 C   0  0  0  0  0  0  0  0  0  0  0  0
   23.9342  -21.7262   -7.9400 S   0  0  0  0  0  0  0  0  0  0  0  0
   24.1165  -20.0560  -10.3550 C   0  0  0  0  0  0  0  0  0  0  0  0
   22.7911  -19.6626  -10.2860 O   0  0  0  0  0  0  0  0  0  0  0  0
   24.9979  -19.1753  -10.2562 O   0  0  0  0  0  0  0  0  0  0  0  0
  2  1  1  6
  2  3  1  0
  3  4  1  0
  4  8  1  0
  4  5  2  0
  6  2  1  0
  6  7  2  0
  9 10  1  0
 10 11  1  0
 11 13  1  0
 11 12  1  1
 13 14  1  6
 14  6  1  0
 15 13  1  0
 16 15  2  0
 17 15  1  0
 18 19  1  1
 18 17  1  0
 19 20  1  0
 21 22  1  0
 21 18  1  0
 23 21  2  0
M  END
$$$$
