DIC.pdb
     RDKit          3D

 23 22  0  0  1  0  0  0  0  0999 V2000
   20.5904  -12.9779  -18.5868 N   0  0  0  0  0  0  0  0  0  0  0  0
   21.0090  -12.2638  -17.4074 C   0  0  1  0  0  0  0  0  0  0  0  0
   22.5104  -12.0142  -17.5125 C   0  0  0  0  0  0  0  0  0  0  0  0
   23.2085  -13.2938  -17.4282 C   0  0  0  0  0  0  0  0  0  0  0  0
   23.9046  -13.7111  -18.3799 O   0  0  0  0  0  0  0  0  0  0  0  0
   20.3374  -10.9573  -17.3515 C   0  0  0  0  0  0  0  0  0  0  0  0
   20.1536  -10.3339  -18.4522 O   0  0  0  0  0  0  0  0  0  0  0  0
   23.1089  -14.0667  -16.2873 O   0  0  0  0  0  0  0  0  0  0  0  0
   15.2737   -8.9708  -15.4438 C   0  0  0  0  0  0  0  0  0  0  0  0
   16.6652   -8.5440  -15.7009 C   0  0  0  0  0  0  0  0  0  0  0  0
   17.7068   -9.5557  -15.9108 C   0  0  2  0  0  0  0  0  0  0  0  0
   17.6678  -10.6685  -14.8603 C   0  0  0  0  0  0  0  0  0  0  0  0
   19.0816   -9.0879  -16.1776 C   0  0  2  0  0  0  0  0  0  0  0  0
   19.8867  -10.3537  -16.1669 N   0  0  0  0  0  0  0  0  0  0  0  0
   19.7578   -8.1992  -15.2641 C   0  0  0  0  0  0  0  0  0  0  0  0
   20.2141   -8.6684  -14.1508 O   0  0  0  0  0  0  0  0  0  0  0  0
   20.0228   -6.8003  -15.4178 N   0  0  0  0  0  0  0  0  0  0  0  0
   20.6313   -6.0146  -14.3707 C   0  0  1  0  0  0  0  0  0  0  0  0
   22.1127   -5.8424  -14.7438 C   0  0  0  0  0  0  0  0  0  0  0  0
   22.8031   -4.7405  -13.4706 S   0  0  0  0  0  0  0  0  0  0  0  0
   20.0450   -4.6793  -14.1773 C   0  0  0  0  0  0  0  0  0  0  0  0
   19.9264   -4.1014  -12.9250 O   0  0  0  0  0  0  0  0  0  0  0  0
   19.6359   -4.0323  -15.1654 O   0  0  0  0  0  0  0  0  0  0  0  0
  2  1  1  6
  2  3  1  0
  3  4  1  0
  4  8  1  0
  4  5  2  0
  6  2  1  0
  6  7  2  0
  9 10  1  0
 10 11  1  0
 11 13  1  0
 11 12  1  1
 13 14  1  1
 14  6  1  0
 15 13  1  0
 16 15  2  0
 17 15  1  0
 18 19  1  6
 18 17  1  0
 19 20  1  0
 21 22  1  0
 21 18  1  0
 23 21  2  0
M  END
$$$$
