DIC.pdb
     RDKit          3D

 23 22  0  0  1  0  0  0  0  0999 V2000
   20.0509  -12.5725  -19.0752 N   0  0  0  0  0  0  0  0  0  0  0  0
   20.6154  -11.2484  -19.1388 C   0  0  1  0  0  0  0  0  0  0  0  0
   19.5388  -10.2986  -19.6549 C   0  0  0  0  0  0  0  0  0  0  0  0
   19.2919  -10.5866  -21.0649 C   0  0  0  0  0  0  0  0  0  0  0  0
   20.2236  -10.5640  -21.8991 O   0  0  0  0  0  0  0  0  0  0  0  0
   20.9991  -10.8053  -17.7906 C   0  0  0  0  0  0  0  0  0  0  0  0
   20.3250  -11.2535  -16.8014 O   0  0  0  0  0  0  0  0  0  0  0  0
   18.0162  -10.8904  -21.4998 O   0  0  0  0  0  0  0  0  0  0  0  0
   25.0901  -12.2886  -15.6539 C   0  0  0  0  0  0  0  0  0  0  0  0
   23.7916  -11.6149  -15.8649 C   0  0  0  0  0  0  0  0  0  0  0  0
   23.7345  -10.1497  -15.9140 C   0  0  2  0  0  0  0  0  0  0  0  0
   24.5183   -9.4908  -14.7761 C   0  0  0  0  0  0  0  0  0  0  0  0
   22.4179   -9.5156  -16.1252 C   0  0  2  0  0  0  0  0  0  0  0  0
   22.0575   -9.9224  -17.5234 N   0  0  0  0  0  0  0  0  0  0  0  0
   22.2673   -8.0810  -16.0956 C   0  0  0  0  0  0  0  0  0  0  0  0
   22.9693   -7.3574  -16.9026 O   0  0  0  0  0  0  0  0  0  0  0  0
   21.4024   -7.2952  -15.2678 N   0  0  0  0  0  0  0  0  0  0  0  0
   21.4447   -5.8522  -15.2653 C   0  0  1  0  0  0  0  0  0  0  0  0
   19.9984   -5.3618  -15.4416 C   0  0  0  0  0  0  0  0  0  0  0  0
   19.4414   -6.0693  -17.0232 S   0  0  0  0  0  0  0  0  0  0  0  0
   21.9908   -5.2503  -14.0391 C   0  0  0  0  0  0  0  0  0  0  0  0
   22.2970   -3.9030  -13.9533 O   0  0  0  0  0  0  0  0  0  0  0  0
   22.1905   -5.9646  -13.0330 O   0  0  0  0  0  0  0  0  0  0  0  0
  2  1  1  1
  2  3  1  0
  3  4  1  0
  4  8  1  0
  4  5  2  0
  6  2  1  0
  6  7  2  0
  9 10  1  0
 10 11  1  0
 11 13  1  0
 11 12  1  1
 13 14  1  6
 14  6  1  0
 15 13  1  0
 16 15  2  0
 17 15  1  0
 18 19  1  1
 18 17  1  0
 19 20  1  0
 21 22  1  0
 21 18  1  0
 23 21  2  0
M  END
$$$$
