DIC.pdb
     RDKit          3D

 23 22  0  0  1  0  0  0  0  0999 V2000
   18.0238  -15.0376  -17.7175 N   0  0  0  0  0  0  0  0  0  0  0  0
   18.9939  -14.2737  -16.9749 C   0  0  1  0  0  0  0  0  0  0  0  0
   20.3569  -14.4735  -17.6306 C   0  0  0  0  0  0  0  0  0  0  0  0
   20.7944  -15.8474  -17.4005 C   0  0  0  0  0  0  0  0  0  0  0  0
   20.2264  -16.5702  -16.5523 O   0  0  0  0  0  0  0  0  0  0  0  0
   18.6634  -12.8432  -17.0484 C   0  0  0  0  0  0  0  0  0  0  0  0
   18.3034  -12.3719  -18.1807 O   0  0  0  0  0  0  0  0  0  0  0  0
   21.8497  -16.3715  -18.1220 O   0  0  0  0  0  0  0  0  0  0  0  0
   15.6706   -8.5150  -16.2307 C   0  0  0  0  0  0  0  0  0  0  0  0
   16.4032   -9.1685  -15.1258 C   0  0  0  0  0  0  0  0  0  0  0  0
   17.0229  -10.4805  -15.3429 C   0  0  2  0  0  0  0  0  0  0  0  0
   17.0432  -11.3396  -14.0760 C   0  0  0  0  0  0  0  0  0  0  0  0
   18.3074  -10.5269  -16.0694 C   0  0  2  0  0  0  0  0  0  0  0  0
   18.7189  -11.9650  -15.9544 N   0  0  0  0  0  0  0  0  0  0  0  0
   19.4481   -9.7677  -15.6176 C   0  0  0  0  0  0  0  0  0  0  0  0
   19.8995   -9.9600  -14.4231 O   0  0  0  0  0  0  0  0  0  0  0  0
   20.2030   -8.7858  -16.3364 N   0  0  0  0  0  0  0  0  0  0  0  0
   21.3058   -8.0740  -15.7352 C   0  0  1  0  0  0  0  0  0  0  0  0
   22.1957   -7.5742  -16.8848 C   0  0  0  0  0  0  0  0  0  0  0  0
   22.8815   -9.0770  -17.6487 S   0  0  0  0  0  0  0  0  0  0  0  0
   20.9216   -6.9172  -14.9115 C   0  0  0  0  0  0  0  0  0  0  0  0
   21.6640   -6.5152  -13.8146 O   0  0  0  0  0  0  0  0  0  0  0  0
   19.8942   -6.2655  -15.1979 O   0  0  0  0  0  0  0  0  0  0  0  0
  2  1  1  6
  2  3  1  0
  3  4  1  0
  4  8  1  0
  4  5  2  0
  6  2  1  0
  6  7  2  0
  9 10  1  0
 10 11  1  0
 11 13  1  0
 11 12  1  1
 13 14  1  1
 14  6  1  0
 15 13  1  0
 16 15  2  0
 17 15  1  0
 18 19  1  6
 18 17  1  0
 19 20  1  0
 21 22  1  0
 21 18  1  0
 23 21  2  0
M  END
$$$$
