DIC.pdb
     RDKit          3D

 23 22  0  0  1  0  0  0  0  0999 V2000
   16.0435  -10.8361  -12.9071 N   0  0  0  0  0  0  0  0  0  0  0  0
   16.7217   -9.7481  -12.2495 C   0  0  1  0  0  0  0  0  0  0  0  0
   17.4813   -8.9543  -13.3079 C   0  0  0  0  0  0  0  0  0  0  0  0
   18.5015   -9.8142  -13.9009 C   0  0  0  0  0  0  0  0  0  0  0  0
   19.2846  -10.4735  -13.1821 O   0  0  0  0  0  0  0  0  0  0  0  0
   15.7371   -8.8485  -11.6312 C   0  0  0  0  0  0  0  0  0  0  0  0
   14.6940   -8.5511  -12.3075 O   0  0  0  0  0  0  0  0  0  0  0  0
   18.6165   -9.9120  -15.2742 O   0  0  0  0  0  0  0  0  0  0  0  0
   12.7879  -10.1595   -8.0391 C   0  0  0  0  0  0  0  0  0  0  0  0
   13.3999   -9.3136   -9.0853 C   0  0  0  0  0  0  0  0  0  0  0  0
   14.2238   -8.1633   -8.6976 C   0  0  2  0  0  0  0  0  0  0  0  0
   13.5493   -7.2848   -7.6407 C   0  0  0  0  0  0  0  0  0  0  0  0
   14.8464   -7.3649   -9.7723 C   0  0  2  0  0  0  0  0  0  0  0  0
   15.8716   -8.2972  -10.3471 N   0  0  0  0  0  0  0  0  0  0  0  0
   15.5621   -6.1471   -9.4781 C   0  0  0  0  0  0  0  0  0  0  0  0
   16.5556   -6.1840   -8.6540 O   0  0  0  0  0  0  0  0  0  0  0  0
   15.3307   -4.8330   -9.9979 N   0  0  0  0  0  0  0  0  0  0  0  0
   16.0900   -3.6877   -9.5552 C   0  0  1  0  0  0  0  0  0  0  0  0
   16.2255   -2.7466  -10.7632 C   0  0  0  0  0  0  0  0  0  0  0  0
   16.8746   -3.7847  -12.1098 S   0  0  0  0  0  0  0  0  0  0  0  0
   15.4845   -2.9333   -8.4469 C   0  0  0  0  0  0  0  0  0  0  0  0
   16.1622   -1.9225   -7.7872 O   0  0  0  0  0  0  0  0  0  0  0  0
   14.3211   -3.2011   -8.0767 O   0  0  0  0  0  0  0  0  0  0  0  0
  2  1  1  6
  2  3  1  0
  3  4  1  0
  4  8  1  0
  4  5  2  0
  6  2  1  0
  6  7  2  0
  9 10  1  0
 10 11  1  0
 11 13  1  0
 11 12  1  6
 13 14  1  1
 14  6  1  0
 15 13  1  0
 16 15  2  0
 17 15  1  0
 18 19  1  6
 18 17  1  0
 19 20  1  0
 21 22  1  0
 21 18  1  0
 23 21  2  0
M  END
$$$$
