DIC.pdb
     RDKit          3D

 23 22  0  0  1  0  0  0  0  0999 V2000
   20.9976   -6.8985  -20.5766 N   0  0  0  0  0  0  0  0  0  0  0  0
   21.8501   -7.2422  -19.4669 C   0  0  1  0  0  0  0  0  0  0  0  0
   22.4597   -5.9545  -18.9212 C   0  0  0  0  0  0  0  0  0  0  0  0
   23.5313   -5.5240  -19.8146 C   0  0  0  0  0  0  0  0  0  0  0  0
   24.1755   -4.4760  -19.5887 O   0  0  0  0  0  0  0  0  0  0  0  0
   21.0505   -7.8523  -18.3948 C   0  0  0  0  0  0  0  0  0  0  0  0
   19.8089   -7.5544  -18.3338 O   0  0  0  0  0  0  0  0  0  0  0  0
   23.8506   -6.2743  -20.9300 O   0  0  0  0  0  0  0  0  0  0  0  0
   20.6619  -12.8383  -18.1159 C   0  0  0  0  0  0  0  0  0  0  0  0
   20.3448  -11.4302  -17.7979 C   0  0  0  0  0  0  0  0  0  0  0  0
   20.9077  -10.8151  -16.5908 C   0  0  2  0  0  0  0  0  0  0  0  0
   20.6157  -11.6255  -15.3253 C   0  0  0  0  0  0  0  0  0  0  0  0
   20.6949   -9.3680  -16.3883 C   0  0  2  0  0  0  0  0  0  0  0  0
   21.5651   -8.7398  -17.4364 N   0  0  0  0  0  0  0  0  0  0  0  0
   21.0654   -8.7253  -15.1509 C   0  0  0  0  0  0  0  0  0  0  0  0
   22.3159   -8.5417  -14.8864 O   0  0  0  0  0  0  0  0  0  0  0  0
   20.2085   -8.2237  -14.1189 N   0  0  0  0  0  0  0  0  0  0  0  0
   20.7230   -7.5172  -12.9698 C   0  0  1  0  0  0  0  0  0  0  0  0
   21.4342   -6.2610  -13.4984 C   0  0  0  0  0  0  0  0  0  0  0  0
   22.0121   -5.3774  -12.0161 S   0  0  0  0  0  0  0  0  0  0  0  0
   19.7054   -7.0964  -11.9943 C   0  0  0  0  0  0  0  0  0  0  0  0
   19.9451   -7.1027  -10.6310 O   0  0  0  0  0  0  0  0  0  0  0  0
   18.5828   -6.7179  -12.3929 O   0  0  0  0  0  0  0  0  0  0  0  0
  2  1  1  6
  2  3  1  0
  3  4  1  0
  4  8  1  0
  4  5  2  0
  6  2  1  0
  6  7  2  0
  9 10  1  0
 10 11  1  0
 11 13  1  0
 11 12  1  1
 13 14  1  6
 14  6  1  0
 15 13  1  0
 16 15  2  0
 17 15  1  0
 18 19  1  6
 18 17  1  0
 19 20  1  0
 21 22  1  0
 21 18  1  0
 23 21  2  0
M  END
$$$$
