PRE.pdb
     RDKit          3D

 28 28  0  0  1  0  0  0  0  0999 V2000
    7.6393  -15.1756   19.2057 N   0  0  0  0  0  0  0  0  0  0  0  0
    7.1370  -14.7250   17.8761 C   0  0  0  0  0  0  0  0  0  0  0  0
    7.2256  -13.2312   17.9759 C   0  0  0  0  0  0  0  0  0  0  0  0
    8.2328  -12.9818   19.0532 C   0  0  0  0  0  0  0  0  0  0  0  0
    8.8591  -14.3579   19.2984 C   0  0  1  0  0  0  0  0  0  0  0  0
    9.4192  -14.3620   20.6727 C   0  0  0  0  0  0  0  0  0  0  0  0
   10.4582  -13.7041   20.9082 O   0  0  0  0  0  0  0  0  0  0  0  0
    6.4171  -14.1486   27.3472 N   0  0  0  0  0  0  0  0  0  0  0  0
    6.4910  -12.8052   26.9209 C   0  0  0  0  0  0  0  0  0  0  0  0
    6.6980  -11.8314   27.7736 N   0  0  0  0  0  0  0  0  0  0  0  0
    6.3513  -12.4138   25.5712 N   0  0  0  0  0  0  0  0  0  0  0  0
    6.2340  -13.3002   24.4551 C   0  0  0  0  0  0  0  0  0  0  0  0
    7.4998  -13.5230   23.6781 C   0  0  0  0  0  0  0  0  0  0  0  0
    8.0664  -14.8640   23.9514 C   0  0  0  0  0  0  0  0  0  0  0  0
    9.3281  -15.1567   23.0656 C   0  0  2  0  0  0  0  0  0  0  0  0
    8.7984  -15.0858   21.7182 N   0  0  0  0  0  0  0  0  0  0  0  0
   10.0261  -16.3485   23.4357 C   0  0  0  0  0  0  0  0  0  0  0  0
    9.5076  -17.4852   23.1597 O   0  0  0  0  0  0  0  0  0  0  0  0
    6.7452  -10.8727   27.3899 N   0  0  0  0  0  0  0  0  0  0  0  0
   11.2834  -16.3511   24.0963 C   0  0  2  0  0  0  0  0  0  0  0  0
   11.8847  -17.6323   24.4783 C   0  0  0  0  0  0  0  0  0  0  0  0
   13.3736  -17.3848   24.4670 C   0  0  0  0  0  0  0  0  0  0  0  0
   13.9627  -17.1057   23.1250 C   0  0  0  0  0  0  0  0  0  0  0  0
   15.3047  -16.5105   23.1545 O   0  0  0  0  0  0  0  0  0  0  0  0
   15.8517  -16.2489   24.2340 C   0  0  0  0  0  0  0  0  0  0  0  0
   11.4016  -18.0881   25.8039 O   0  0  0  0  0  0  0  0  0  0  0  0
   10.6379  -17.4403   26.5575 O   0  0  0  0  0  0  0  0  0  0  0  0
   16.0172  -16.2166   21.9898 O   0  0  0  0  0  0  0  0  0  0  0  0
  1  5  1  0
  1  2  1  0
  2  3  1  0
  4  3  1  0
  5  4  1  0
  6  7  2  0
  5  6  1  1
  9  8  1  0
 10  9  2  0
 11  9  1  0
 12 13  1  0
 12 11  1  0
 13 14  1  0
 15 14  1  1
 15 16  1  0
 16  6  1  0
 17 15  1  0
 18 17  2  0
 19 17  1  0
 20 25  1  0
 20 19  1  0
 20 21  1  6
 22 21  1  0
 23 27  1  0
 23 22  1  0
 24 23  2  0
 25 28  1  0
 26 25  2  0
M  END
$$$$
