PRE.pdb
     RDKit          3D

 28 28  0  0  1  0  0  0  0  0999 V2000
    8.4463  -14.3290   18.6816 N   0  0  0  0  0  0  0  0  0  0  0  0
    7.9224  -13.1382   17.9532 C   0  0  0  0  0  0  0  0  0  0  0  0
    6.9978  -12.5150   18.9560 C   0  0  0  0  0  0  0  0  0  0  0  0
    7.4674  -13.0328   20.2784 C   0  0  0  0  0  0  0  0  0  0  0  0
    8.8106  -13.6960   19.9590 C   0  0  1  0  0  0  0  0  0  0  0  0
    9.0798  -14.7044   21.0140 C   0  0  0  0  0  0  0  0  0  0  0  0
    9.2989  -14.3170   22.1843 O   0  0  0  0  0  0  0  0  0  0  0  0
   12.9687  -20.5035   20.3824 N   0  0  0  0  0  0  0  0  0  0  0  0
   12.5664  -20.6594   19.0385 C   0  0  0  0  0  0  0  0  0  0  0  0
   13.4268  -20.9836   18.1042 N   0  0  0  0  0  0  0  0  0  0  0  0
   11.2341  -20.4824   18.6051 N   0  0  0  0  0  0  0  0  0  0  0  0
   10.1330  -20.0995   19.4334 C   0  0  0  0  0  0  0  0  0  0  0  0
   10.2922  -18.7859   20.1440 C   0  0  0  0  0  0  0  0  0  0  0  0
    9.0735  -18.4424   20.9126 C   0  0  0  0  0  0  0  0  0  0  0  0
    9.2543  -17.1167   21.7324 C   0  0  2  0  0  0  0  0  0  0  0  0
    9.0850  -16.0894   20.7239 N   0  0  0  0  0  0  0  0  0  0  0  0
   10.4528  -17.0819   22.5116 C   0  0  0  0  0  0  0  0  0  0  0  0
   11.4512  -16.4026   22.0887 O   0  0  0  0  0  0  0  0  0  0  0  0
   13.0559  -21.1128   17.1480 N   0  0  0  0  0  0  0  0  0  0  0  0
   10.6063  -17.7603   23.7499 C   0  0  2  0  0  0  0  0  0  0  0  0
   11.8500  -17.5890   24.5065 C   0  0  0  0  0  0  0  0  0  0  0  0
   11.4175  -17.4592   25.9467 C   0  0  0  0  0  0  0  0  0  0  0  0
   11.4210  -18.7292   26.7298 C   0  0  0  0  0  0  0  0  0  0  0  0
   11.0409  -18.5826   28.1405 O   0  0  0  0  0  0  0  0  0  0  0  0
   11.6121  -17.7539   28.8616 C   0  0  0  0  0  0  0  0  0  0  0  0
   12.7761  -18.7283   24.2993 O   0  0  0  0  0  0  0  0  0  0  0  0
   12.4732  -19.8175   23.7584 O   0  0  0  0  0  0  0  0  0  0  0  0
   10.0355  -19.3542   28.7271 O   0  0  0  0  0  0  0  0  0  0  0  0
  1  5  1  0
  1  2  1  0
  2  3  1  0
  4  3  1  0
  5  4  1  0
  6  7  2  0
  5  6  1  1
  9  8  1  0
 10  9  2  0
 11  9  1  0
 12 13  1  0
 12 11  1  0
 13 14  1  0
 15 14  1  6
 15 16  1  0
 16  6  1  0
 17 15  1  0
 18 17  2  0
 19 17  1  0
 20 25  1  0
 20 19  1  0
 20 21  1  1
 22 21  1  0
 23 27  1  0
 23 22  1  0
 24 23  2  0
 25 28  1  0
 26 25  2  0
M  END
$$$$
