PRE.pdb
     RDKit          3D

 28 28  0  0  1  0  0  0  0  0999 V2000
    8.2141  -14.6686   17.9187 N   0  0  0  0  0  0  0  0  0  0  0  0
    7.7618  -13.5143   17.0903 C   0  0  0  0  0  0  0  0  0  0  0  0
    7.4891  -12.4551   18.1163 C   0  0  0  0  0  0  0  0  0  0  0  0
    8.2927  -12.8661   19.3090 C   0  0  0  0  0  0  0  0  0  0  0  0
    9.1934  -13.9858   18.7789 C   0  0  1  0  0  0  0  0  0  0  0  0
    9.5928  -14.8297   19.9324 C   0  0  0  0  0  0  0  0  0  0  0  0
   10.4010  -14.3705   20.7714 O   0  0  0  0  0  0  0  0  0  0  0  0
    9.3700  -24.1397   20.1392 N   0  0  0  0  0  0  0  0  0  0  0  0
    8.5546  -23.0543   20.5256 C   0  0  0  0  0  0  0  0  0  0  0  0
    7.2471  -23.1370   20.4834 N   0  0  0  0  0  0  0  0  0  0  0  0
    9.0728  -21.8212   20.9787 N   0  0  0  0  0  0  0  0  0  0  0  0
    8.2971  -20.7046   21.4220 C   0  0  0  0  0  0  0  0  0  0  0  0
    9.0820  -19.4629   21.7348 C   0  0  0  0  0  0  0  0  0  0  0  0
    8.7163  -18.3548   20.8224 C   0  0  0  0  0  0  0  0  0  0  0  0
    9.5482  -17.0572   21.1165 C   0  0  2  0  0  0  0  0  0  0  0  0
    9.0730  -16.1345   20.1046 N   0  0  0  0  0  0  0  0  0  0  0  0
   10.9583  -17.2831   21.1902 C   0  0  0  0  0  0  0  0  0  0  0  0
   11.5410  -17.9008   20.2331 O   0  0  0  0  0  0  0  0  0  0  0  0
    6.7145  -22.2785   20.7017 N   0  0  0  0  0  0  0  0  0  0  0  0
   11.7685  -16.8524   22.2742 C   0  0  1  0  0  0  0  0  0  0  0  0
   13.1937  -17.1954   22.2783 C   0  0  0  0  0  0  0  0  0  0  0  0
   13.9102  -15.8949   22.0070 C   0  0  0  0  0  0  0  0  0  0  0  0
   15.3969  -15.9515   22.1184 C   0  0  0  0  0  0  0  0  0  0  0  0
   16.0866  -14.6994   21.7829 O   0  0  0  0  0  0  0  0  0  0  0  0
   15.4407  -13.6654   21.5672 C   0  0  0  0  0  0  0  0  0  0  0  0
   13.6046  -17.8043   23.5663 O   0  0  0  0  0  0  0  0  0  0  0  0
   12.9249  -17.7976   24.6192 O   0  0  0  0  0  0  0  0  0  0  0  0
   17.4777  -14.6138   21.6933 O   0  0  0  0  0  0  0  0  0  0  0  0
  1  5  1  0
  1  2  1  0
  2  3  1  0
  4  3  1  0
  5  4  1  0
  6  7  2  0
  5  6  1  1
  9  8  1  0
 10  9  2  0
 11  9  1  0
 12 13  1  0
 12 11  1  0
 13 14  1  0
 15 14  1  6
 15 16  1  0
 16  6  1  0
 17 15  1  0
 18 17  2  0
 19 17  1  0
 20 25  1  0
 20 19  1  0
 20 21  1  1
 22 21  1  0
 23 27  1  0
 23 22  1  0
 24 23  2  0
 25 28  1  0
 26 25  2  0
M  END
$$$$
