PRE.pdb
     RDKit          3D

 28 28  0  0  1  0  0  0  0  0999 V2000
    8.3241  -14.9067   17.9860 N   0  0  0  0  0  0  0  0  0  0  0  0
    7.9484  -14.0217   16.8463 C   0  0  0  0  0  0  0  0  0  0  0  0
    7.6151  -12.7273   17.5263 C   0  0  0  0  0  0  0  0  0  0  0  0
    8.3241  -12.7958   18.8415 C   0  0  0  0  0  0  0  0  0  0  0  0
    9.2466  -14.0103   18.7004 C   0  0  1  0  0  0  0  0  0  0  0  0
    9.5500  -14.5093   20.0647 C   0  0  0  0  0  0  0  0  0  0  0  0
   10.4051  -13.9099   20.7557 O   0  0  0  0  0  0  0  0  0  0  0  0
    6.8655  -19.4864   18.1843 N   0  0  0  0  0  0  0  0  0  0  0  0
    7.4391  -20.4543   19.0365 C   0  0  0  0  0  0  0  0  0  0  0  0
    8.2708  -21.3575   18.5774 N   0  0  0  0  0  0  0  0  0  0  0  0
    7.1679  -20.5234   20.4207 N   0  0  0  0  0  0  0  0  0  0  0  0
    7.1148  -19.4089   21.3153 C   0  0  0  0  0  0  0  0  0  0  0  0
    8.1885  -18.3774   21.1183 C   0  0  0  0  0  0  0  0  0  0  0  0
    8.0482  -17.2671   22.0887 C   0  0  0  0  0  0  0  0  0  0  0  0
    9.1740  -16.1889   21.9095 C   0  0  2  0  0  0  0  0  0  0  0  0
    8.8875  -15.6398   20.5990 N   0  0  0  0  0  0  0  0  0  0  0  0
   10.4930  -16.6920   22.1376 C   0  0  0  0  0  0  0  0  0  0  0  0
   10.9092  -17.6846   21.4458 O   0  0  0  0  0  0  0  0  0  0  0  0
    8.6774  -22.0144   19.2641 N   0  0  0  0  0  0  0  0  0  0  0  0
   11.3885  -16.1464   23.0955 C   0  0  1  0  0  0  0  0  0  0  0  0
   12.6636  -16.8249   23.3459 C   0  0  0  0  0  0  0  0  0  0  0  0
   13.7232  -15.8139   22.9808 C   0  0  0  0  0  0  0  0  0  0  0  0
   13.9892  -15.6694   21.5198 C   0  0  0  0  0  0  0  0  0  0  0  0
   15.0395  -14.7015   21.1790 O   0  0  0  0  0  0  0  0  0  0  0  0
   16.2165  -14.9138   21.4993 C   0  0  0  0  0  0  0  0  0  0  0  0
   12.7763  -17.2719   24.7551 O   0  0  0  0  0  0  0  0  0  0  0  0
   11.9753  -16.9788   25.6733 O   0  0  0  0  0  0  0  0  0  0  0  0
   14.7688  -13.5176   20.4895 O   0  0  0  0  0  0  0  0  0  0  0  0
  1  5  1  0
  1  2  1  0
  2  3  1  0
  4  3  1  0
  5  4  1  0
  6  7  2  0
  5  6  1  1
  9  8  1  0
 10  9  2  0
 11  9  1  0
 12 13  1  0
 12 11  1  0
 13 14  1  0
 15 14  1  6
 15 16  1  0
 16  6  1  0
 17 15  1  0
 18 17  2  0
 19 17  1  0
 20 25  1  0
 20 19  1  0
 20 21  1  1
 22 21  1  0
 23 27  1  0
 23 22  1  0
 24 23  2  0
 25 28  1  0
 26 25  2  0
M  END
$$$$
