PRE.pdb
     RDKit          3D

 28 28  0  0  1  0  0  0  0  0999 V2000
    7.7559  -14.8638   18.8857 N   0  0  0  0  0  0  0  0  0  0  0  0
    6.7252  -14.2159   18.0249 C   0  0  0  0  0  0  0  0  0  0  0  0
    6.8421  -12.7682   18.3982 C   0  0  0  0  0  0  0  0  0  0  0  0
    8.2157  -12.6347   18.9750 C   0  0  0  0  0  0  0  0  0  0  0  0
    8.8920  -13.9646   18.6288 C   0  0  1  0  0  0  0  0  0  0  0  0
    9.9924  -14.1794   19.6011 C   0  0  0  0  0  0  0  0  0  0  0  0
   11.0736  -13.5684   19.4412 O   0  0  0  0  0  0  0  0  0  0  0  0
   13.0566  -17.6934   26.1613 N   0  0  0  0  0  0  0  0  0  0  0  0
   12.2907  -18.8010   25.7388 C   0  0  0  0  0  0  0  0  0  0  0  0
   12.7234  -20.0280   25.8989 N   0  0  0  0  0  0  0  0  0  0  0  0
   11.0252  -18.6765   25.1243 N   0  0  0  0  0  0  0  0  0  0  0  0
   10.3474  -17.4462   24.8562 C   0  0  0  0  0  0  0  0  0  0  0  0
   11.0376  -16.5331   23.8837 C   0  0  0  0  0  0  0  0  0  0  0  0
   10.1619  -16.2188   22.7311 C   0  0  0  0  0  0  0  0  0  0  0  0
   10.8651  -15.2592   21.7078 C   0  0  2  0  0  0  0  0  0  0  0  0
    9.8395  -15.0517   20.7048 N   0  0  0  0  0  0  0  0  0  0  0  0
   12.1379  -15.7313   21.2588 C   0  0  0  0  0  0  0  0  0  0  0  0
   12.1925  -16.7919   20.5451 O   0  0  0  0  0  0  0  0  0  0  0  0
   12.1151  -20.7896   25.5546 N   0  0  0  0  0  0  0  0  0  0  0  0
   13.3666  -15.0831   21.5544 C   0  0  1  0  0  0  0  0  0  0  0  0
   14.6010  -15.5830   20.9419 C   0  0  0  0  0  0  0  0  0  0  0  0
   14.9960  -14.5266   19.9388 C   0  0  0  0  0  0  0  0  0  0  0  0
   16.3097  -14.7463   19.2664 C   0  0  0  0  0  0  0  0  0  0  0  0
   16.7386  -13.6542   18.3836 O   0  0  0  0  0  0  0  0  0  0  0  0
   15.9307  -13.1118   17.6181 C   0  0  0  0  0  0  0  0  0  0  0  0
   15.6573  -15.8170   21.9558 O   0  0  0  0  0  0  0  0  0  0  0  0
   15.6138  -15.4322   23.1477 O   0  0  0  0  0  0  0  0  0  0  0  0
   18.0526  -13.1815   18.3646 O   0  0  0  0  0  0  0  0  0  0  0  0
  1  5  1  0
  1  2  1  0
  2  3  1  0
  4  3  1  0
  5  4  1  0
  6  7  2  0
  5  6  1  1
  9  8  1  0
 10  9  2  0
 11  9  1  0
 12 13  1  0
 12 11  1  0
 13 14  1  0
 15 14  1  1
 15 16  1  0
 16  6  1  0
 17 15  1  0
 18 17  2  0
 19 17  1  0
 20 25  1  0
 20 19  1  0
 20 21  1  1
 22 21  1  0
 23 27  1  0
 23 22  1  0
 24 23  2  0
 25 28  1  0
 26 25  2  0
M  END
$$$$
