PRE.pdb
     RDKit          3D

 28 28  0  0  1  0  0  0  0  0999 V2000
    8.2243  -14.4249   18.5756 N   0  0  0  0  0  0  0  0  0  0  0  0
    7.3132  -13.5032   17.8385 C   0  0  0  0  0  0  0  0  0  0  0  0
    7.5973  -12.1753   18.4750 C   0  0  0  0  0  0  0  0  0  0  0  0
    8.9559  -12.3281   19.0817 C   0  0  0  0  0  0  0  0  0  0  0  0
    9.4721  -13.6487   18.5024 C   0  0  1  0  0  0  0  0  0  0  0  0
   10.5026  -14.1777   19.4301 C   0  0  0  0  0  0  0  0  0  0  0  0
   11.6164  -13.6088   19.4908 O   0  0  0  0  0  0  0  0  0  0  0  0
   12.2632  -21.5361   22.4936 N   0  0  0  0  0  0  0  0  0  0  0  0
   12.1291  -21.0347   23.8061 C   0  0  0  0  0  0  0  0  0  0  0  0
   12.7180  -21.6192   24.8210 N   0  0  0  0  0  0  0  0  0  0  0  0
   11.3669  -19.8885   24.1215 N   0  0  0  0  0  0  0  0  0  0  0  0
   10.6272  -19.0976   23.1874 C   0  0  0  0  0  0  0  0  0  0  0  0
   11.3185  -17.8509   22.7145 C   0  0  0  0  0  0  0  0  0  0  0  0
   10.4560  -17.0787   21.7905 C   0  0  0  0  0  0  0  0  0  0  0  0
   11.1953  -15.8192   21.2167 C   0  0  2  0  0  0  0  0  0  0  0  0
   10.2473  -15.3030   20.2493 N   0  0  0  0  0  0  0  0  0  0  0  0
   12.5216  -16.0914   20.7568 C   0  0  0  0  0  0  0  0  0  0  0  0
   12.6823  -16.7902   19.6971 O   0  0  0  0  0  0  0  0  0  0  0  0
   12.5579  -21.2100   25.7566 N   0  0  0  0  0  0  0  0  0  0  0  0
   13.6926  -15.6220   21.4093 C   0  0  2  0  0  0  0  0  0  0  0  0
   15.0038  -15.9470   20.8403 C   0  0  0  0  0  0  0  0  0  0  0  0
   15.7796  -14.6529   20.8804 C   0  0  0  0  0  0  0  0  0  0  0  0
   17.2009  -14.7483   20.4367 C   0  0  0  0  0  0  0  0  0  0  0  0
   17.9634  -13.4980   20.5433 O   0  0  0  0  0  0  0  0  0  0  0  0
   18.0351  -12.8967   21.6232 C   0  0  0  0  0  0  0  0  0  0  0  0
   15.6759  -17.0279   21.6009 O   0  0  0  0  0  0  0  0  0  0  0  0
   15.4660  -17.3032   22.8053 O   0  0  0  0  0  0  0  0  0  0  0  0
   18.6334  -12.9367   19.4540 O   0  0  0  0  0  0  0  0  0  0  0  0
  1  5  1  0
  1  2  1  0
  2  3  1  0
  4  3  1  0
  5  4  1  0
  6  7  2  0
  5  6  1  1
  9  8  1  0
 10  9  2  0
 11  9  1  0
 12 13  1  0
 12 11  1  0
 13 14  1  0
 15 14  1  6
 15 16  1  0
 16  6  1  0
 17 15  1  0
 18 17  2  0
 19 17  1  0
 20 25  1  0
 20 19  1  0
 20 21  1  1
 22 21  1  0
 23 27  1  0
 23 22  1  0
 24 23  2  0
 25 28  1  0
 26 25  2  0
M  END
$$$$
