PRE.pdb
     RDKit          3D

 28 28  0  0  1  0  0  0  0  0999 V2000
    8.6225  -14.6718   18.7312 N   0  0  0  0  0  0  0  0  0  0  0  0
    8.3271  -13.5929   17.7453 C   0  0  0  0  0  0  0  0  0  0  0  0
    7.3233  -12.7462   18.4696 C   0  0  0  0  0  0  0  0  0  0  0  0
    7.5378  -13.0574   19.9167 C   0  0  0  0  0  0  0  0  0  0  0  0
    8.8467  -13.8529   19.9329 C   0  0  1  0  0  0  0  0  0  0  0  0
    8.8589  -14.6792   21.1656 C   0  0  0  0  0  0  0  0  0  0  0  0
    8.8293  -14.1097   22.2802 O   0  0  0  0  0  0  0  0  0  0  0  0
   12.8535  -18.4364   19.7459 N   0  0  0  0  0  0  0  0  0  0  0  0
   12.1697  -19.2800   18.8443 C   0  0  0  0  0  0  0  0  0  0  0  0
   12.4162  -19.2425   17.5574 N   0  0  0  0  0  0  0  0  0  0  0  0
   11.1881  -20.2108   19.2498 N   0  0  0  0  0  0  0  0  0  0  0  0
   10.1331  -19.9557   20.1809 C   0  0  0  0  0  0  0  0  0  0  0  0
   10.0933  -18.5614   20.7379 C   0  0  0  0  0  0  0  0  0  0  0  0
    8.9470  -18.3860   21.6595 C   0  0  0  0  0  0  0  0  0  0  0  0
    8.9091  -16.9439   22.2767 C   0  0  2  0  0  0  0  0  0  0  0  0
    8.8950  -16.0925   21.1037 N   0  0  0  0  0  0  0  0  0  0  0  0
    9.9313  -16.7076   23.2483 C   0  0  0  0  0  0  0  0  0  0  0  0
   11.0809  -16.3042   22.8575 O   0  0  0  0  0  0  0  0  0  0  0  0
   11.8690  -19.8800   16.9553 N   0  0  0  0  0  0  0  0  0  0  0  0
    9.7467  -16.8895   24.6448 C   0  0  1  0  0  0  0  0  0  0  0  0
   10.8397  -16.5444   25.5586 C   0  0  0  0  0  0  0  0  0  0  0  0
   10.3152  -15.3907   26.3783 C   0  0  0  0  0  0  0  0  0  0  0  0
   10.4563  -15.5430   27.8558 C   0  0  0  0  0  0  0  0  0  0  0  0
    9.8979  -14.4370   28.6439 O   0  0  0  0  0  0  0  0  0  0  0  0
    9.2681  -13.5266   28.0894 C   0  0  0  0  0  0  0  0  0  0  0  0
   11.2312  -17.6996   26.4018 O   0  0  0  0  0  0  0  0  0  0  0  0
   10.5492  -18.7378   26.5682 O   0  0  0  0  0  0  0  0  0  0  0  0
   10.0453  -14.3591   30.0305 O   0  0  0  0  0  0  0  0  0  0  0  0
  1  5  1  0
  1  2  1  0
  2  3  1  0
  4  3  1  0
  5  4  1  0
  6  7  2  0
  5  6  1  1
  9  8  1  0
 10  9  2  0
 11  9  1  0
 12 13  1  0
 12 11  1  0
 13 14  1  0
 15 14  1  6
 15 16  1  0
 16  6  1  0
 17 15  1  0
 18 17  2  0
 19 17  1  0
 20 25  1  0
 20 19  1  0
 20 21  1  1
 22 21  1  0
 23 27  1  0
 23 22  1  0
 24 23  2  0
 25 28  1  0
 26 25  2  0
M  END
$$$$
