PRE.pdb
     RDKit          3D

 28 28  0  0  1  0  0  0  0  0999 V2000
    7.9216  -15.1188   18.9382 N   0  0  0  0  0  0  0  0  0  0  0  0
    8.0887  -14.2446   17.7419 C   0  0  0  0  0  0  0  0  0  0  0  0
    7.4646  -12.9543   18.1831 C   0  0  0  0  0  0  0  0  0  0  0  0
    7.5031  -13.0054   19.6775 C   0  0  0  0  0  0  0  0  0  0  0  0
    8.4077  -14.2032   19.9824 C   0  0  1  0  0  0  0  0  0  0  0  0
    8.0686  -14.6920   21.3420 C   0  0  0  0  0  0  0  0  0  0  0  0
    8.3707  -13.9900   22.3339 O   0  0  0  0  0  0  0  0  0  0  0  0
    6.4620  -20.9360   26.8541 N   0  0  0  0  0  0  0  0  0  0  0  0
    6.9311  -21.0306   25.5263 C   0  0  0  0  0  0  0  0  0  0  0  0
    8.2139  -21.0658   25.2590 N   0  0  0  0  0  0  0  0  0  0  0  0
    6.0734  -21.0939   24.4062 N   0  0  0  0  0  0  0  0  0  0  0  0
    6.0211  -20.1394   23.3426 C   0  0  0  0  0  0  0  0  0  0  0  0
    6.5594  -18.7776   23.6768 C   0  0  0  0  0  0  0  0  0  0  0  0
    6.4847  -17.8711   22.5077 C   0  0  0  0  0  0  0  0  0  0  0  0
    7.0395  -16.4416   22.8406 C   0  0  2  0  0  0  0  0  0  0  0  0
    7.4061  -15.9273   21.5359 N   0  0  0  0  0  0  0  0  0  0  0  0
    8.0469  -16.4381   23.8554 C   0  0  0  0  0  0  0  0  0  0  0  0
    9.2018  -16.9196   23.5882 O   0  0  0  0  0  0  0  0  0  0  0  0
    8.4865  -21.0644   24.2619 N   0  0  0  0  0  0  0  0  0  0  0  0
    7.8455  -15.9196   25.1622 C   0  0  2  0  0  0  0  0  0  0  0  0
    9.0008  -15.7564   26.0496 C   0  0  0  0  0  0  0  0  0  0  0  0
    8.7040  -14.5146   26.8544 C   0  0  0  0  0  0  0  0  0  0  0  0
    8.1032  -13.3858   26.0856 C   0  0  0  0  0  0  0  0  0  0  0  0
    7.7739  -12.2015   26.8887 O   0  0  0  0  0  0  0  0  0  0  0  0
    7.9773  -12.1950   28.1100 C   0  0  0  0  0  0  0  0  0  0  0  0
    9.2010  -16.9478   26.9093 O   0  0  0  0  0  0  0  0  0  0  0  0
    8.4063  -17.9119   27.0060 O   0  0  0  0  0  0  0  0  0  0  0  0
    7.2270  -11.0461   26.3262 O   0  0  0  0  0  0  0  0  0  0  0  0
  1  5  1  0
  1  2  1  0
  2  3  1  0
  4  3  1  0
  5  4  1  0
  6  7  2  0
  5  6  1  1
  9  8  1  0
 10  9  2  0
 11  9  1  0
 12 13  1  0
 12 11  1  0
 13 14  1  0
 15 14  1  6
 15 16  1  0
 16  6  1  0
 17 15  1  0
 18 17  2  0
 19 17  1  0
 20 25  1  0
 20 19  1  0
 20 21  1  1
 22 21  1  0
 23 27  1  0
 23 22  1  0
 24 23  2  0
 25 28  1  0
 26 25  2  0
M  END
$$$$
