PRE.pdb
     RDKit          3D

 28 28  0  0  1  0  0  0  0  0999 V2000
    7.5264  -15.1569   19.2055 N   0  0  0  0  0  0  0  0  0  0  0  0
    7.1709  -14.3881   17.9785 C   0  0  0  0  0  0  0  0  0  0  0  0
    7.1004  -12.9763   18.4793 C   0  0  0  0  0  0  0  0  0  0  0  0
    7.9208  -12.9757   19.7300 C   0  0  0  0  0  0  0  0  0  0  0  0
    8.6372  -14.3293   19.7017 C   0  0  1  0  0  0  0  0  0  0  0  0
    9.0004  -14.6783   21.0977 C   0  0  0  0  0  0  0  0  0  0  0  0
    9.9656  -14.0932   21.6397 O   0  0  0  0  0  0  0  0  0  0  0  0
    5.8055  -21.1319   26.0948 N   0  0  0  0  0  0  0  0  0  0  0  0
    6.5752  -20.2714   26.9066 C   0  0  0  0  0  0  0  0  0  0  0  0
    7.0755  -20.6796   28.0474 N   0  0  0  0  0  0  0  0  0  0  0  0
    6.8607  -18.9324   26.5603 N   0  0  0  0  0  0  0  0  0  0  0  0
    6.9524  -18.4182   25.2291 C   0  0  0  0  0  0  0  0  0  0  0  0
    7.1969  -16.9397   25.1287 C   0  0  0  0  0  0  0  0  0  0  0  0
    7.1389  -16.4822   23.7211 C   0  0  0  0  0  0  0  0  0  0  0  0
    8.5317  -15.9637   23.2176 C   0  0  2  0  0  0  0  0  0  0  0  0
    8.2740  -15.6500   21.8261 N   0  0  0  0  0  0  0  0  0  0  0  0
    9.6134  -16.8550   23.5011 C   0  0  0  0  0  0  0  0  0  0  0  0
    9.6060  -18.0268   22.9875 O   0  0  0  0  0  0  0  0  0  0  0  0
    7.6920  -20.0213   28.5526 N   0  0  0  0  0  0  0  0  0  0  0  0
   10.7181  -16.5142   24.3262 C   0  0  2  0  0  0  0  0  0  0  0  0
   11.6807  -17.5567   24.6940 C   0  0  0  0  0  0  0  0  0  0  0  0
   13.0306  -16.8848   24.6258 C   0  0  0  0  0  0  0  0  0  0  0  0
   13.4509  -16.4365   23.2663 C   0  0  0  0  0  0  0  0  0  0  0  0
   14.8111  -15.8883   23.1930 O   0  0  0  0  0  0  0  0  0  0  0  0
   15.7874  -16.6430   23.0916 C   0  0  0  0  0  0  0  0  0  0  0  0
   11.3971  -18.1110   26.0397 O   0  0  0  0  0  0  0  0  0  0  0  0
   10.5243  -17.6815   26.8297 O   0  0  0  0  0  0  0  0  0  0  0  0
   15.0663  -14.5158   23.2321 O   0  0  0  0  0  0  0  0  0  0  0  0
  1  5  1  0
  1  2  1  0
  2  3  1  0
  4  3  1  0
  5  4  1  0
  6  7  2  0
  5  6  1  1
  9  8  1  0
 10  9  2  0
 11  9  1  0
 12 13  1  0
 12 11  1  0
 13 14  1  0
 15 14  1  6
 15 16  1  0
 16  6  1  0
 17 15  1  0
 18 17  2  0
 19 17  1  0
 20 25  1  0
 20 19  1  0
 20 21  1  1
 22 21  1  0
 23 27  1  0
 23 22  1  0
 24 23  2  0
 25 28  1  0
 26 25  2  0
M  END
$$$$
