PRE.pdb
     RDKit          3D

 28 28  0  0  1  0  0  0  0  0999 V2000
    8.8842  -12.6605   18.9494 N   0  0  0  0  0  0  0  0  0  0  0  0
    7.4619  -12.3009   18.6831 C   0  0  0  0  0  0  0  0  0  0  0  0
    6.8617  -13.6086   18.2603 C   0  0  0  0  0  0  0  0  0  0  0  0
    7.7768  -14.6471   18.8271 C   0  0  0  0  0  0  0  0  0  0  0  0
    8.6842  -13.8601   19.7775 C   0  0  1  0  0  0  0  0  0  0  0  0
    9.9427  -14.6291   19.9423 C   0  0  0  0  0  0  0  0  0  0  0  0
    9.8927  -15.7804   20.4320 O   0  0  0  0  0  0  0  0  0  0  0  0
   18.5767  -16.0951   16.3042 N   0  0  0  0  0  0  0  0  0  0  0  0
   17.2257  -15.6875   16.3268 C   0  0  0  0  0  0  0  0  0  0  0  0
   16.3153  -16.3107   15.6188 N   0  0  0  0  0  0  0  0  0  0  0  0
   16.7591  -14.6001   17.0977 N   0  0  0  0  0  0  0  0  0  0  0  0
   15.3974  -14.1752   17.1994 C   0  0  0  0  0  0  0  0  0  0  0  0
   14.6120  -14.8032   18.3149 C   0  0  0  0  0  0  0  0  0  0  0  0
   13.2654  -14.1967   18.4284 C   0  0  0  0  0  0  0  0  0  0  0  0
   12.4332  -14.8360   19.5951 C   0  0  2  0  0  0  0  0  0  0  0  0
   11.1911  -14.0904   19.5500 N   0  0  0  0  0  0  0  0  0  0  0  0
   13.1305  -14.8770   20.8428 C   0  0  0  0  0  0  0  0  0  0  0  0
   13.4861  -13.7784   21.3940 O   0  0  0  0  0  0  0  0  0  0  0  0
   15.3430  -15.9689   15.6979 N   0  0  0  0  0  0  0  0  0  0  0  0
   13.4538  -16.0804   21.5244 C   0  0  2  0  0  0  0  0  0  0  0  0
   14.2155  -16.0082   22.7747 C   0  0  0  0  0  0  0  0  0  0  0  0
   13.7606  -17.2012   23.5797 C   0  0  0  0  0  0  0  0  0  0  0  0
   12.3713  -17.1148   24.1168 C   0  0  0  0  0  0  0  0  0  0  0  0
   11.9490  -18.2705   24.9180 O   0  0  0  0  0  0  0  0  0  0  0  0
   12.6933  -19.2518   25.0450 C   0  0  0  0  0  0  0  0  0  0  0  0
   15.6770  -16.0241   22.5249 O   0  0  0  0  0  0  0  0  0  0  0  0
   16.5585  -15.7448   23.3708 O   0  0  0  0  0  0  0  0  0  0  0  0
   10.7122  -18.3191   25.5648 O   0  0  0  0  0  0  0  0  0  0  0  0
  1  5  1  0
  1  2  1  0
  2  3  1  0
  4  3  1  0
  5  4  1  0
  6  7  2  0
  5  6  1  6
  9  8  1  0
 10  9  2  0
 11  9  1  0
 12 13  1  0
 12 11  1  0
 13 14  1  0
 15 14  1  6
 15 16  1  0
 16  6  1  0
 17 15  1  0
 18 17  2  0
 19 17  1  0
 20 25  1  0
 20 19  1  0
 20 21  1  6
 22 21  1  0
 23 27  1  0
 23 22  1  0
 24 23  2  0
 25 28  1  0
 26 25  2  0
M  END
$$$$
