PRE.pdb
     RDKit          3D

 28 28  0  0  1  0  0  0  0  0999 V2000
    8.9875  -14.2609   18.9532 N   0  0  0  0  0  0  0  0  0  0  0  0
    8.6419  -13.2069   17.9568 C   0  0  0  0  0  0  0  0  0  0  0  0
    7.3675  -12.6367   18.5043 C   0  0  0  0  0  0  0  0  0  0  0  0
    7.3882  -12.9879   19.9581 C   0  0  0  0  0  0  0  0  0  0  0  0
    8.8151  -13.4916   20.1956 C   0  0  1  0  0  0  0  0  0  0  0  0
    8.7910  -14.3741   21.3885 C   0  0  0  0  0  0  0  0  0  0  0  0
    8.3487  -13.9235   22.4698 O   0  0  0  0  0  0  0  0  0  0  0  0
    9.3524  -20.0851   16.8926 N   0  0  0  0  0  0  0  0  0  0  0  0
    8.1413  -20.2515   17.5982 C   0  0  0  0  0  0  0  0  0  0  0  0
    7.1482  -20.9408   17.0914 N   0  0  0  0  0  0  0  0  0  0  0  0
    7.9104  -19.7007   18.8779 N   0  0  0  0  0  0  0  0  0  0  0  0
    8.7731  -18.7855   19.5584 C   0  0  0  0  0  0  0  0  0  0  0  0
    8.2959  -18.3403   20.9111 C   0  0  0  0  0  0  0  0  0  0  0  0
    9.4353  -18.0158   21.8002 C   0  0  0  0  0  0  0  0  0  0  0  0
    9.2733  -16.6040   22.4657 C   0  0  2  0  0  0  0  0  0  0  0  0
    9.2490  -15.7114   21.3239 N   0  0  0  0  0  0  0  0  0  0  0  0
   10.2362  -16.3370   23.4886 C   0  0  0  0  0  0  0  0  0  0  0  0
   11.4317  -16.0280   23.1532 O   0  0  0  0  0  0  0  0  0  0  0  0
    6.2831  -21.0019   17.6541 N   0  0  0  0  0  0  0  0  0  0  0  0
    9.9435  -16.3878   24.8774 C   0  0  2  0  0  0  0  0  0  0  0  0
   11.0098  -16.0996   25.8411 C   0  0  0  0  0  0  0  0  0  0  0  0
   10.3008  -15.5628   27.0606 C   0  0  0  0  0  0  0  0  0  0  0  0
   11.1622  -15.3655   28.2628 C   0  0  0  0  0  0  0  0  0  0  0  0
   10.4691  -14.8073   29.4307 O   0  0  0  0  0  0  0  0  0  0  0  0
    9.3039  -14.4000   29.3336 C   0  0  0  0  0  0  0  0  0  0  0  0
   11.8119  -17.3091   26.1452 O   0  0  0  0  0  0  0  0  0  0  0  0
   13.0191  -17.3107   26.4817 O   0  0  0  0  0  0  0  0  0  0  0  0
   11.0770  -14.7109   30.6844 O   0  0  0  0  0  0  0  0  0  0  0  0
  1  5  1  0
  1  2  1  0
  2  3  1  0
  4  3  1  0
  5  4  1  0
  6  7  2  0
  5  6  1  1
  9  8  1  0
 10  9  2  0
 11  9  1  0
 12 13  1  0
 12 11  1  0
 13 14  1  0
 15 14  1  6
 15 16  1  0
 16  6  1  0
 17 15  1  0
 18 17  2  0
 19 17  1  0
 20 25  1  0
 20 19  1  0
 20 21  1  6
 22 21  1  0
 23 27  1  0
 23 22  1  0
 24 23  2  0
 25 28  1  0
 26 25  2  0
M  END
$$$$
