KWG.pdb
     RDKit          3D

 28 29  0  0  1  0  0  0  0  0999 V2000
    7.5741  -16.2100   20.9061 N   0  0  0  0  0  0  0  0  0  0  0  0
    8.4966  -15.1398   20.7985 C   0  0  1  0  0  0  0  0  0  0  0  0
    7.8815  -13.8381   20.4031 C   0  0  0  0  0  0  0  0  0  0  0  0
    7.2184  -13.8872   19.0893 C   0  0  0  0  0  0  0  0  0  0  0  0
    8.0790  -13.4399   17.9567 C   0  0  0  0  0  0  0  0  0  0  0  0
    7.3423  -13.6661   16.6557 C   0  0  0  0  0  0  0  0  0  0  0  0
    8.1307  -13.1950   15.5141 N   0  0  0  0  0  0  0  0  0  0  0  0
    9.2432  -14.8901   22.0672 C   0  0  0  0  0  0  0  0  0  0  0  0
    9.8522  -13.8111   22.1878 O   0  0  0  0  0  0  0  0  0  0  0  0
    9.2348  -15.8710   23.0731 N   0  0  0  0  0  0  0  0  0  0  0  0
    9.9105  -15.7282   24.3425 C   0  0  1  0  0  0  0  0  0  0  0  0
    9.0370  -16.0435   25.4897 C   0  0  0  0  0  0  0  0  0  0  0  0
    7.7316  -15.3786   25.5296 C   0  0  0  0  0  0  0  0  0  0  0  0
    6.4524  -15.8114   25.3312 C   0  0  0  0  0  0  0  0  0  0  0  0
    5.5496  -14.8149   25.4934 N   0  0  0  0  0  0  0  0  0  0  0  0
    6.2613  -13.7141   25.8028 C   0  0  0  0  0  0  0  0  0  0  0  0
    5.8226  -12.4202   26.0668 C   0  0  0  0  0  0  0  0  0  0  0  0
    6.7494  -11.4474   26.3601 C   0  0  0  0  0  0  0  0  0  0  0  0
    8.1025  -11.7166   26.4003 C   0  0  0  0  0  0  0  0  0  0  0  0
    8.5083  -13.0103   26.1341 C   0  0  0  0  0  0  0  0  0  0  0  0
    7.6122  -14.0137   25.8362 C   0  0  0  0  0  0  0  0  0  0  0  0
   11.2128  -16.4495   24.3497 C   0  0  0  0  0  0  0  0  0  0  0  0
   11.8537  -16.5203   25.4414 O   0  0  0  0  0  0  0  0  0  0  0  0
   11.7346  -17.0457   23.1753 N   0  0  0  0  0  0  0  0  0  0  0  0
   12.9452  -17.8359   23.2682 C   0  0  0  0  0  0  0  0  0  0  0  0
   13.1978  -18.4354   21.9284 C   0  0  0  0  0  0  0  0  0  0  0  0
   12.4737  -18.2116   20.9354 O   0  0  0  0  0  0  0  0  0  0  0  0
   14.2799  -19.2906   21.7282 O   0  0  0  0  0  0  0  0  0  0  0  0
  2  1  1  1
  2  3  1  0
  3  4  1  0
  5  6  1  0
  5  4  1  0
  7  6  1  0
  8  9  2  0
  8  2  1  0
 10  8  1  0
 11 10  1  0
 11 12  1  1
 12 13  1  0
 13 21  1  0
 13 14  2  0
 14 15  1  0
 16 15  1  0
 16 17  2  0
 18 17  1  0
 19 18  2  0
 20 21  2  0
 20 19  1  0
 21 16  1  0
 22 24  1  0
 22 11  1  0
 23 22  2  0
 25 26  1  0
 25 24  1  0
 26 28  1  0
 27 26  2  0
M  END
$$$$
