KWG.pdb
     RDKit          3D

 28 29  0  0  1  0  0  0  0  0999 V2000
    5.8304  -16.3872   21.2191 N   0  0  0  0  0  0  0  0  0  0  0  0
    7.1054  -15.7744   21.1368 C   0  0  1  0  0  0  0  0  0  0  0  0
    7.1464  -14.5596   20.2699 C   0  0  0  0  0  0  0  0  0  0  0  0
    7.5674  -14.8485   18.8888 C   0  0  0  0  0  0  0  0  0  0  0  0
    7.7617  -13.6341   18.0456 C   0  0  0  0  0  0  0  0  0  0  0  0
    8.1674  -14.0586   16.6521 C   0  0  0  0  0  0  0  0  0  0  0  0
    8.2372  -12.9070   15.7490 N   0  0  0  0  0  0  0  0  0  0  0  0
    7.6371  -15.3642   22.4704 C   0  0  0  0  0  0  0  0  0  0  0  0
    7.2038  -14.3131   22.9774 O   0  0  0  0  0  0  0  0  0  0  0  0
    8.5995  -16.1690   23.1029 N   0  0  0  0  0  0  0  0  0  0  0  0
    9.6009  -15.6617   24.0129 C   0  0  1  0  0  0  0  0  0  0  0  0
    9.1920  -15.7722   25.4267 C   0  0  0  0  0  0  0  0  0  0  0  0
    7.8659  -15.2541   25.7743 C   0  0  0  0  0  0  0  0  0  0  0  0
    6.6219  -15.8142   25.8166 C   0  0  0  0  0  0  0  0  0  0  0  0
    5.6810  -14.9281   26.2212 N   0  0  0  0  0  0  0  0  0  0  0  0
    6.3313  -13.7699   26.4446 C   0  0  0  0  0  0  0  0  0  0  0  0
    5.8342  -12.5424   26.8716 C   0  0  0  0  0  0  0  0  0  0  0  0
    6.7029  -11.4877   27.0273 C   0  0  0  0  0  0  0  0  0  0  0  0
    8.0538  -11.6107   26.7725 C   0  0  0  0  0  0  0  0  0  0  0  0
    8.5183  -12.8416   26.3501 C   0  0  0  0  0  0  0  0  0  0  0  0
    7.6815  -13.9232   26.1817 C   0  0  0  0  0  0  0  0  0  0  0  0
   10.9433  -16.2341   23.7185 C   0  0  0  0  0  0  0  0  0  0  0  0
   11.2765  -17.3116   24.2979 O   0  0  0  0  0  0  0  0  0  0  0  0
   11.8354  -15.6025   22.8173 N   0  0  0  0  0  0  0  0  0  0  0  0
   13.1719  -15.2729   23.2685 C   0  0  0  0  0  0  0  0  0  0  0  0
   14.0326  -16.4672   23.0432 C   0  0  0  0  0  0  0  0  0  0  0  0
   13.8810  -17.5417   23.6620 O   0  0  0  0  0  0  0  0  0  0  0  0
   15.0662  -16.4288   22.1090 O   0  0  0  0  0  0  0  0  0  0  0  0
  2  1  1  1
  2  3  1  0
  3  4  1  0
  5  6  1  0
  5  4  1  0
  7  6  1  0
  8  9  2  0
  8  2  1  0
 10  8  1  0
 11 10  1  0
 11 12  1  1
 12 13  1  0
 13 21  1  0
 13 14  2  0
 14 15  1  0
 16 15  1  0
 16 17  2  0
 18 17  1  0
 19 18  2  0
 20 21  2  0
 20 19  1  0
 21 16  1  0
 22 24  1  0
 22 11  1  0
 23 22  2  0
 25 26  1  0
 25 24  1  0
 26 28  1  0
 27 26  2  0
M  END
$$$$
