KWG.pdb
     RDKit          3D

 28 29  0  0  1  0  0  0  0  0999 V2000
    7.9968  -18.2994   21.5894 N   0  0  0  0  0  0  0  0  0  0  0  0
    8.8572  -17.3004   21.0701 C   0  0  1  0  0  0  0  0  0  0  0  0
    8.2285  -16.4288   20.0338 C   0  0  0  0  0  0  0  0  0  0  0  0
    7.9334  -17.1418   18.7798 C   0  0  0  0  0  0  0  0  0  0  0  0
    7.2878  -16.2949   17.7360 C   0  0  0  0  0  0  0  0  0  0  0  0
    6.9207  -17.1616   16.5525 C   0  0  0  0  0  0  0  0  0  0  0  0
    6.1920  -16.3919   15.5408 N   0  0  0  0  0  0  0  0  0  0  0  0
    9.3900  -16.3897   22.1266 C   0  0  0  0  0  0  0  0  0  0  0  0
    9.7759  -15.2566   21.7852 O   0  0  0  0  0  0  0  0  0  0  0  0
    9.4384  -16.8368   23.4577 N   0  0  0  0  0  0  0  0  0  0  0  0
    9.9976  -16.0672   24.5455 C   0  0  1  0  0  0  0  0  0  0  0  0
    9.1788  -16.1384   25.7715 C   0  0  0  0  0  0  0  0  0  0  0  0
    7.8515  -15.5194   25.7174 C   0  0  0  0  0  0  0  0  0  0  0  0
    6.6065  -15.9949   25.4225 C   0  0  0  0  0  0  0  0  0  0  0  0
    5.6598  -15.0315   25.5218 N   0  0  0  0  0  0  0  0  0  0  0  0
    6.3075  -13.9089   25.8883 C   0  0  0  0  0  0  0  0  0  0  0  0
    5.8052  -12.6329   26.1250 C   0  0  0  0  0  0  0  0  0  0  0  0
    6.6731  -11.6308   26.4909 C   0  0  0  0  0  0  0  0  0  0  0  0
    8.0281  -11.8532   26.6304 C   0  0  0  0  0  0  0  0  0  0  0  0
    8.4976  -13.1301   26.3890 C   0  0  0  0  0  0  0  0  0  0  0  0
    7.6618  -14.1617   26.0206 C   0  0  0  0  0  0  0  0  0  0  0  0
   11.4371  -16.3849   24.7529 C   0  0  0  0  0  0  0  0  0  0  0  0
   12.0180  -15.9012   25.7709 O   0  0  0  0  0  0  0  0  0  0  0  0
   12.1520  -17.2044   23.8449 N   0  0  0  0  0  0  0  0  0  0  0  0
   13.5408  -17.5110   24.1205 C   0  0  0  0  0  0  0  0  0  0  0  0
   14.1768  -17.9197   22.8374 C   0  0  0  0  0  0  0  0  0  0  0  0
   13.7212  -18.8281   22.1110 O   0  0  0  0  0  0  0  0  0  0  0  0
   15.3345  -17.2868   22.3881 O   0  0  0  0  0  0  0  0  0  0  0  0
  2  1  1  1
  2  3  1  0
  3  4  1  0
  5  6  1  0
  5  4  1  0
  7  6  1  0
  8  9  2  0
  8  2  1  0
 10  8  1  0
 11 10  1  0
 11 12  1  1
 12 13  1  0
 13 21  1  0
 13 14  2  0
 14 15  1  0
 16 15  1  0
 16 17  2  0
 18 17  1  0
 19 18  2  0
 20 21  2  0
 20 19  1  0
 21 16  1  0
 22 24  1  0
 22 11  1  0
 23 22  2  0
 25 26  1  0
 25 24  1  0
 26 28  1  0
 27 26  2  0
M  END
$$$$
