KWG.pdb
     RDKit          3D

 28 29  0  0  1  0  0  0  0  0999 V2000
    7.8686  -16.5628   20.3001 N   0  0  0  0  0  0  0  0  0  0  0  0
    8.7296  -17.1854   21.2378 C   0  0  1  0  0  0  0  0  0  0  0  0
    9.9057  -17.8730   20.6271 C   0  0  0  0  0  0  0  0  0  0  0  0
    9.5379  -19.0699   19.8524 C   0  0  0  0  0  0  0  0  0  0  0  0
    9.3187  -18.8109   18.4004 C   0  0  0  0  0  0  0  0  0  0  0  0
    9.0653  -20.1246   17.6958 C   0  0  0  0  0  0  0  0  0  0  0  0
   10.2790  -20.6116   17.0349 N   0  0  0  0  0  0  0  0  0  0  0  0
    9.2725  -16.2293   22.2480 C   0  0  0  0  0  0  0  0  0  0  0  0
    9.4981  -15.0594   21.8877 O   0  0  0  0  0  0  0  0  0  0  0  0
    9.5090  -16.6766   23.5588 N   0  0  0  0  0  0  0  0  0  0  0  0
    9.8987  -15.8096   24.6472 C   0  0  1  0  0  0  0  0  0  0  0  0
    9.0732  -16.0073   25.8546 C   0  0  0  0  0  0  0  0  0  0  0  0
    7.7122  -15.4645   25.8216 C   0  0  0  0  0  0  0  0  0  0  0  0
    6.4876  -16.0180   25.5829 C   0  0  0  0  0  0  0  0  0  0  0  0
    5.4917  -15.1052   25.6792 N   0  0  0  0  0  0  0  0  0  0  0  0
    6.0862  -13.9362   25.9861 C   0  0  0  0  0  0  0  0  0  0  0  0
    5.5205  -12.6821   26.1948 C   0  0  0  0  0  0  0  0  0  0  0  0
    6.3413  -11.6212   26.4983 C   0  0  0  0  0  0  0  0  0  0  0  0
    7.7102  -11.7637   26.6021 C   0  0  0  0  0  0  0  0  0  0  0  0
    8.2432  -13.0207   26.3899 C   0  0  0  0  0  0  0  0  0  0  0  0
    7.4559  -14.1093   26.0839 C   0  0  0  0  0  0  0  0  0  0  0  0
   11.3657  -15.8713   24.8933 C   0  0  0  0  0  0  0  0  0  0  0  0
   11.8152  -15.3741   25.9696 O   0  0  0  0  0  0  0  0  0  0  0  0
   12.2481  -16.4665   23.9584 N   0  0  0  0  0  0  0  0  0  0  0  0
   13.6736  -16.4225   24.2128 C   0  0  0  0  0  0  0  0  0  0  0  0
   14.3442  -17.2521   23.1735 C   0  0  0  0  0  0  0  0  0  0  0  0
   13.7355  -17.7493   22.2026 O   0  0  0  0  0  0  0  0  0  0  0  0
   15.7116  -17.5109   23.2481 O   0  0  0  0  0  0  0  0  0  0  0  0
  2  1  1  6
  2  3  1  0
  3  4  1  0
  5  6  1  0
  5  4  1  0
  7  6  1  0
  8  9  2  0
  8  2  1  0
 10  8  1  0
 11 10  1  0
 11 12  1  1
 12 13  1  0
 13 21  1  0
 13 14  2  0
 14 15  1  0
 16 15  1  0
 16 17  2  0
 18 17  1  0
 19 18  2  0
 20 21  2  0
 20 19  1  0
 21 16  1  0
 22 24  1  0
 22 11  1  0
 23 22  2  0
 25 26  1  0
 25 24  1  0
 26 28  1  0
 27 26  2  0
M  END
$$$$
