KWG.pdb
     RDKit          3D

 28 29  0  0  1  0  0  0  0  0999 V2000
    8.0636  -16.3530   21.1291 N   0  0  0  0  0  0  0  0  0  0  0  0
    8.8440  -15.1775   21.2603 C   0  0  1  0  0  0  0  0  0  0  0  0
    8.1202  -13.9194   20.9104 C   0  0  0  0  0  0  0  0  0  0  0  0
    7.5515  -13.9380   19.5523 C   0  0  0  0  0  0  0  0  0  0  0  0
    8.4541  -13.3751   18.5073 C   0  0  0  0  0  0  0  0  0  0  0  0
    7.7611  -13.4440   17.1651 C   0  0  0  0  0  0  0  0  0  0  0  0
    8.1341  -14.6618   16.4406 N   0  0  0  0  0  0  0  0  0  0  0  0
    9.3802  -14.9904   22.6412 C   0  0  0  0  0  0  0  0  0  0  0  0
    9.9771  -13.9294   22.9008 O   0  0  0  0  0  0  0  0  0  0  0  0
    9.1960  -16.0076   23.5927 N   0  0  0  0  0  0  0  0  0  0  0  0
    9.8125  -16.0086   24.8997 C   0  0  1  0  0  0  0  0  0  0  0  0
    8.8273  -16.1244   25.9926 C   0  0  0  0  0  0  0  0  0  0  0  0
    7.6258  -15.2914   25.8911 C   0  0  0  0  0  0  0  0  0  0  0  0
    6.3354  -15.5473   25.5272 C   0  0  0  0  0  0  0  0  0  0  0  0
    5.5583  -14.4408   25.6048 N   0  0  0  0  0  0  0  0  0  0  0  0
    6.3646  -13.4482   26.0275 C   0  0  0  0  0  0  0  0  0  0  0  0
    6.0703  -12.1100   26.2704 C   0  0  0  0  0  0  0  0  0  0  0  0
    7.0733  -11.2728   26.7000 C   0  0  0  0  0  0  0  0  0  0  0  0
    8.3637  -11.7208   26.8974 C   0  0  0  0  0  0  0  0  0  0  0  0
    8.6259  -13.0545   26.6482 C   0  0  0  0  0  0  0  0  0  0  0  0
    7.6496  -13.9259   26.2170 C   0  0  0  0  0  0  0  0  0  0  0  0
   10.9268  -16.9930   24.9748 C   0  0  0  0  0  0  0  0  0  0  0  0
   11.6532  -16.9993   26.0140 O   0  0  0  0  0  0  0  0  0  0  0  0
   11.1809  -17.9044   23.9204 N   0  0  0  0  0  0  0  0  0  0  0  0
   12.2982  -18.8190   24.0377 C   0  0  0  0  0  0  0  0  0  0  0  0
   11.8818  -19.9283   24.9400 C   0  0  0  0  0  0  0  0  0  0  0  0
   10.7431  -20.0007   25.4485 O   0  0  0  0  0  0  0  0  0  0  0  0
   12.7708  -20.9533   25.2585 O   0  0  0  0  0  0  0  0  0  0  0  0
  2  1  1  1
  2  3  1  0
  3  4  1  0
  5  6  1  0
  5  4  1  0
  7  6  1  0
  8  9  2  0
  8  2  1  0
 10  8  1  0
 11 10  1  0
 11 12  1  1
 12 13  1  0
 13 21  1  0
 13 14  2  0
 14 15  1  0
 16 15  1  0
 16 17  2  0
 18 17  1  0
 19 18  2  0
 20 21  2  0
 20 19  1  0
 21 16  1  0
 22 24  1  0
 22 11  1  0
 23 22  2  0
 25 26  1  0
 25 24  1  0
 26 28  1  0
 27 26  2  0
M  END
$$$$
