KWG.pdb
     RDKit          3D

 28 29  0  0  1  0  0  0  0  0999 V2000
    6.4045  -15.6320   20.7253 N   0  0  0  0  0  0  0  0  0  0  0  0
    7.7857  -15.6404   21.0416 C   0  0  1  0  0  0  0  0  0  0  0  0
    8.6228  -14.7802   20.1537 C   0  0  0  0  0  0  0  0  0  0  0  0
    7.9649  -14.4536   18.8775 C   0  0  0  0  0  0  0  0  0  0  0  0
    8.8949  -14.3855   17.7139 C   0  0  0  0  0  0  0  0  0  0  0  0
    8.1211  -13.9620   16.4858 C   0  0  0  0  0  0  0  0  0  0  0  0
    9.0222  -13.6836   15.3644 N   0  0  0  0  0  0  0  0  0  0  0  0
    8.0609  -15.2020   22.4421 C   0  0  0  0  0  0  0  0  0  0  0  0
    7.6871  -14.0655   22.7860 O   0  0  0  0  0  0  0  0  0  0  0  0
    8.7264  -16.0770   23.3171 N   0  0  0  0  0  0  0  0  0  0  0  0
    9.5402  -15.6395   24.4283 C   0  0  1  0  0  0  0  0  0  0  0  0
    8.8794  -15.8448   25.7320 C   0  0  0  0  0  0  0  0  0  0  0  0
    7.5864  -15.1838   25.9296 C   0  0  0  0  0  0  0  0  0  0  0  0
    6.2923  -15.5987   25.8027 C   0  0  0  0  0  0  0  0  0  0  0  0
    5.4128  -14.6171   26.1150 N   0  0  0  0  0  0  0  0  0  0  0  0
    6.1552  -13.5445   26.4503 C   0  0  0  0  0  0  0  0  0  0  0  0
    5.7487  -12.2748   26.8491 C   0  0  0  0  0  0  0  0  0  0  0  0
    6.7033  -11.3289   27.1410 C   0  0  0  0  0  0  0  0  0  0  0  0
    8.0532  -11.6016   27.0501 C   0  0  0  0  0  0  0  0  0  0  0  0
    8.4266  -12.8709   26.6517 C   0  0  0  0  0  0  0  0  0  0  0  0
    7.5021  -13.8470   26.3503 C   0  0  0  0  0  0  0  0  0  0  0  0
   10.9177  -16.1982   24.3468 C   0  0  0  0  0  0  0  0  0  0  0  0
   11.7223  -15.9524   25.2954 O   0  0  0  0  0  0  0  0  0  0  0  0
   11.3326  -16.9854   23.2444 N   0  0  0  0  0  0  0  0  0  0  0  0
   12.6764  -17.5266   23.2350 C   0  0  0  0  0  0  0  0  0  0  0  0
   13.4504  -16.7971   22.1925 C   0  0  0  0  0  0  0  0  0  0  0  0
   14.6552  -17.0259   21.9549 O   0  0  0  0  0  0  0  0  0  0  0  0
   12.8428  -15.8061   21.4236 O   0  0  0  0  0  0  0  0  0  0  0  0
  2  1  1  6
  2  3  1  0
  3  4  1  0
  5  6  1  0
  5  4  1  0
  7  6  1  0
  8  9  2  0
  8  2  1  0
 10  8  1  0
 11 10  1  0
 11 12  1  1
 12 13  1  0
 13 21  1  0
 13 14  2  0
 14 15  1  0
 16 15  1  0
 16 17  2  0
 18 17  1  0
 19 18  2  0
 20 21  2  0
 20 19  1  0
 21 16  1  0
 22 24  1  0
 22 11  1  0
 23 22  2  0
 25 26  1  0
 25 24  1  0
 26 28  1  0
 27 26  2  0
M  END
$$$$
