KWG.pdb
     RDKit          3D

 28 29  0  0  1  0  0  0  0  0999 V2000
    6.6764  -16.7205   21.5054 N   0  0  0  0  0  0  0  0  0  0  0  0
    7.6884  -15.8691   20.9964 C   0  0  1  0  0  0  0  0  0  0  0  0
    7.1740  -14.7032   20.2185 C   0  0  0  0  0  0  0  0  0  0  0  0
    7.5627  -14.7384   18.7987 C   0  0  0  0  0  0  0  0  0  0  0  0
    7.9490  -13.4105   18.2409 C   0  0  0  0  0  0  0  0  0  0  0  0
    8.3167  -13.5739   16.7833 C   0  0  0  0  0  0  0  0  0  0  0  0
    8.3730  -12.2765   16.1048 N   0  0  0  0  0  0  0  0  0  0  0  0
    8.5681  -15.3124   22.0667 C   0  0  0  0  0  0  0  0  0  0  0  0
    9.0196  -14.1621   21.9166 O   0  0  0  0  0  0  0  0  0  0  0  0
    8.8552  -16.0969   23.1964 N   0  0  0  0  0  0  0  0  0  0  0  0
    9.8141  -15.7256   24.2117 C   0  0  1  0  0  0  0  0  0  0  0  0
    9.2524  -15.7915   25.5750 C   0  0  0  0  0  0  0  0  0  0  0  0
    7.9172  -15.2191   25.7688 C   0  0  0  0  0  0  0  0  0  0  0  0
    6.6608  -15.7523   25.7782 C   0  0  0  0  0  0  0  0  0  0  0  0
    5.7142  -14.8139   26.0183 N   0  0  0  0  0  0  0  0  0  0  0  0
    6.3736  -13.6489   26.1666 C   0  0  0  0  0  0  0  0  0  0  0  0
    5.8758  -12.3755   26.4258 C   0  0  0  0  0  0  0  0  0  0  0  0
    6.7554  -11.3238   26.5338 C   0  0  0  0  0  0  0  0  0  0  0  0
    8.1178  -11.4940   26.3927 C   0  0  0  0  0  0  0  0  0  0  0  0
    8.5826  -12.7697   26.1360 C   0  0  0  0  0  0  0  0  0  0  0  0
    7.7351  -13.8499   26.0206 C   0  0  0  0  0  0  0  0  0  0  0  0
   11.0971  -16.4616   24.0433 C   0  0  0  0  0  0  0  0  0  0  0  0
   11.2383  -17.5677   24.6469 O   0  0  0  0  0  0  0  0  0  0  0  0
   12.1416  -15.9517   23.2333 N   0  0  0  0  0  0  0  0  0  0  0  0
   13.2989  -16.7839   22.9747 C   0  0  0  0  0  0  0  0  0  0  0  0
   14.2834  -16.5409   24.0655 C   0  0  0  0  0  0  0  0  0  0  0  0
   13.9991  -15.9234   25.1135 O   0  0  0  0  0  0  0  0  0  0  0  0
   15.5925  -17.0056   23.9539 O   0  0  0  0  0  0  0  0  0  0  0  0
  2  1  1  1
  2  3  1  0
  3  4  1  0
  5  6  1  0
  5  4  1  0
  7  6  1  0
  8  9  2  0
  8  2  1  0
 10  8  1  0
 11 10  1  0
 11 12  1  1
 12 13  1  0
 13 21  1  0
 13 14  2  0
 14 15  1  0
 16 15  1  0
 16 17  2  0
 18 17  1  0
 19 18  2  0
 20 21  2  0
 20 19  1  0
 21 16  1  0
 22 24  1  0
 22 11  1  0
 23 22  2  0
 25 26  1  0
 25 24  1  0
 26 28  1  0
 27 26  2  0
M  END
$$$$
