KWG.pdb
     RDKit          3D

 28 29  0  0  1  0  0  0  0  0999 V2000
    7.7754  -16.5198   21.1530 N   0  0  0  0  0  0  0  0  0  0  0  0
    8.6125  -15.3785   21.0833 C   0  0  1  0  0  0  0  0  0  0  0  0
    7.9217  -14.1397   20.6174 C   0  0  0  0  0  0  0  0  0  0  0  0
    7.3246  -14.2791   19.2787 C   0  0  0  0  0  0  0  0  0  0  0  0
    8.1569  -13.7114   18.1794 C   0  0  0  0  0  0  0  0  0  0  0  0
    7.5195  -14.0497   16.8505 C   0  0  0  0  0  0  0  0  0  0  0  0
    8.3510  -13.5913   15.7346 N   0  0  0  0  0  0  0  0  0  0  0  0
    9.2467  -15.0456   22.3934 C   0  0  0  0  0  0  0  0  0  0  0  0
    9.8395  -13.9561   22.4989 O   0  0  0  0  0  0  0  0  0  0  0  0
    9.1552  -15.9634   23.4533 N   0  0  0  0  0  0  0  0  0  0  0  0
    9.7949  -15.7785   24.7358 C   0  0  1  0  0  0  0  0  0  0  0  0
    8.8917  -16.0639   25.8676 C   0  0  0  0  0  0  0  0  0  0  0  0
    7.6329  -15.3149   25.9147 C   0  0  0  0  0  0  0  0  0  0  0  0
    6.3254  -15.6670   25.7433 C   0  0  0  0  0  0  0  0  0  0  0  0
    5.4918  -14.6113   25.9005 N   0  0  0  0  0  0  0  0  0  0  0  0
    6.2781  -13.5538   26.1790 C   0  0  0  0  0  0  0  0  0  0  0  0
    5.9284  -12.2297   26.4257 C   0  0  0  0  0  0  0  0  0  0  0  0
    6.9208  -11.3144   26.6873 C   0  0  0  0  0  0  0  0  0  0  0  0
    8.2541  -11.6703   26.7125 C   0  0  0  0  0  0  0  0  0  0  0  0
    8.5709  -12.9921   26.4640 C   0  0  0  0  0  0  0  0  0  0  0  0
    7.6071  -13.9400   26.1979 C   0  0  0  0  0  0  0  0  0  0  0  0
   11.1000  -16.4917   24.8005 C   0  0  0  0  0  0  0  0  0  0  0  0
   11.7178  -16.5137   25.9076 O   0  0  0  0  0  0  0  0  0  0  0  0
   11.6496  -17.1334   23.6633 N   0  0  0  0  0  0  0  0  0  0  0  0
   12.8969  -17.8573   23.8005 C   0  0  0  0  0  0  0  0  0  0  0  0
   13.1831  -18.5163   22.4959 C   0  0  0  0  0  0  0  0  0  0  0  0
   12.3799  -19.2907   21.9341 O   0  0  0  0  0  0  0  0  0  0  0  0
   14.3895  -18.2871   21.8367 O   0  0  0  0  0  0  0  0  0  0  0  0
  2  1  1  1
  2  3  1  0
  3  4  1  0
  5  6  1  0
  5  4  1  0
  7  6  1  0
  8  9  2  0
  8  2  1  0
 10  8  1  0
 11 10  1  0
 11 12  1  1
 12 13  1  0
 13 21  1  0
 13 14  2  0
 14 15  1  0
 16 15  1  0
 16 17  2  0
 18 17  1  0
 19 18  2  0
 20 21  2  0
 20 19  1  0
 21 16  1  0
 22 24  1  0
 22 11  1  0
 23 22  2  0
 25 26  1  0
 25 24  1  0
 26 28  1  0
 27 26  2  0
M  END
$$$$
