KWG.pdb
     RDKit          3D

 28 29  0  0  1  0  0  0  0  0999 V2000
    7.8264  -16.6077   21.2296 N   0  0  0  0  0  0  0  0  0  0  0  0
    8.8814  -15.6705   21.1008 C   0  0  1  0  0  0  0  0  0  0  0  0
    8.4666  -14.3563   20.5264 C   0  0  0  0  0  0  0  0  0  0  0  0
    7.5407  -14.4885   19.3891 C   0  0  0  0  0  0  0  0  0  0  0  0
    7.1777  -13.1928   18.7467 C   0  0  0  0  0  0  0  0  0  0  0  0
    7.9736  -13.0325   17.4710 C   0  0  0  0  0  0  0  0  0  0  0  0
    7.6124  -14.0602   16.4911 N   0  0  0  0  0  0  0  0  0  0  0  0
    9.5536  -15.3741   22.4006 C   0  0  0  0  0  0  0  0  0  0  0  0
   10.2946  -14.3759   22.4646 O   0  0  0  0  0  0  0  0  0  0  0  0
    9.3308  -16.2229   23.4979 N   0  0  0  0  0  0  0  0  0  0  0  0
    9.8966  -16.0076   24.8101 C   0  0  1  0  0  0  0  0  0  0  0  0
    8.9319  -16.2728   25.8952 C   0  0  0  0  0  0  0  0  0  0  0  0
    7.6845  -15.5038   25.8741 C   0  0  0  0  0  0  0  0  0  0  0  0
    6.3908  -15.8235   25.5790 C   0  0  0  0  0  0  0  0  0  0  0  0
    5.5624  -14.7610   25.7170 N   0  0  0  0  0  0  0  0  0  0  0  0
    6.3381  -13.7321   26.1093 C   0  0  0  0  0  0  0  0  0  0  0  0
    5.9882  -12.4146   26.3889 C   0  0  0  0  0  0  0  0  0  0  0  0
    6.9687  -11.5307   26.7745 C   0  0  0  0  0  0  0  0  0  0  0  0
    8.2900  -11.9118   26.8925 C   0  0  0  0  0  0  0  0  0  0  0  0
    8.6072  -13.2263   26.6085 C   0  0  0  0  0  0  0  0  0  0  0  0
    7.6552  -14.1431   26.2192 C   0  0  0  0  0  0  0  0  0  0  0  0
   11.1982  -16.7136   24.9637 C   0  0  0  0  0  0  0  0  0  0  0  0
   11.7464  -16.7200   26.1070 O   0  0  0  0  0  0  0  0  0  0  0  0
   11.8198  -17.3653   23.8701 N   0  0  0  0  0  0  0  0  0  0  0  0
   13.0924  -18.0256   24.0781 C   0  0  0  0  0  0  0  0  0  0  0  0
   13.5143  -18.6145   22.7768 C   0  0  0  0  0  0  0  0  0  0  0  0
   12.9083  -18.4018   21.7054 O   0  0  0  0  0  0  0  0  0  0  0  0
   14.6300  -19.4465   22.7050 O   0  0  0  0  0  0  0  0  0  0  0  0
  2  1  1  1
  2  3  1  0
  3  4  1  0
  5  6  1  0
  5  4  1  0
  7  6  1  0
  8  9  2  0
  8  2  1  0
 10  8  1  0
 11 10  1  0
 11 12  1  1
 12 13  1  0
 13 21  1  0
 13 14  2  0
 14 15  1  0
 16 15  1  0
 16 17  2  0
 18 17  1  0
 19 18  2  0
 20 21  2  0
 20 19  1  0
 21 16  1  0
 22 24  1  0
 22 11  1  0
 23 22  2  0
 25 26  1  0
 25 24  1  0
 26 28  1  0
 27 26  2  0
M  END
$$$$
