KWG.pdb
     RDKit          3D

 28 29  0  0  1  0  0  0  0  0999 V2000
    8.5001  -18.4063   21.2019 N   0  0  0  0  0  0  0  0  0  0  0  0
    8.7707  -17.0705   20.8140 C   0  0  1  0  0  0  0  0  0  0  0  0
    7.6116  -16.3675   20.1886 C   0  0  0  0  0  0  0  0  0  0  0  0
    7.2868  -16.8712   18.8436 C   0  0  0  0  0  0  0  0  0  0  0  0
    5.9619  -17.5492   18.7516 C   0  0  0  0  0  0  0  0  0  0  0  0
    5.7220  -17.9753   17.3208 C   0  0  0  0  0  0  0  0  0  0  0  0
    4.3808  -18.5421   17.1568 N   0  0  0  0  0  0  0  0  0  0  0  0
    9.2219  -16.2176   21.9534 C   0  0  0  0  0  0  0  0  0  0  0  0
    9.4326  -15.0102   21.7358 O   0  0  0  0  0  0  0  0  0  0  0  0
    9.3929  -16.7993   23.2208 N   0  0  0  0  0  0  0  0  0  0  0  0
    9.8619  -16.0773   24.3814 C   0  0  1  0  0  0  0  0  0  0  0  0
    8.9631  -16.2232   25.5429 C   0  0  0  0  0  0  0  0  0  0  0  0
    7.6794  -15.5190   25.4787 C   0  0  0  0  0  0  0  0  0  0  0  0
    6.4065  -15.9149   25.1856 C   0  0  0  0  0  0  0  0  0  0  0  0
    5.5249  -14.8903   25.2720 N   0  0  0  0  0  0  0  0  0  0  0  0
    6.2443  -13.8088   25.6280 C   0  0  0  0  0  0  0  0  0  0  0  0
    5.8265  -12.5000   25.8495 C   0  0  0  0  0  0  0  0  0  0  0  0
    6.7577  -11.5531   26.2068 C   0  0  0  0  0  0  0  0  0  0  0  0
    8.0949  -11.8625   26.3522 C   0  0  0  0  0  0  0  0  0  0  0  0
    8.4799  -13.1701   26.1259 C   0  0  0  0  0  0  0  0  0  0  0  0
    7.5788  -14.1485   25.7666 C   0  0  0  0  0  0  0  0  0  0  0  0
   11.2898  -16.3827   24.6715 C   0  0  0  0  0  0  0  0  0  0  0  0
   11.7647  -16.0246   25.7913 O   0  0  0  0  0  0  0  0  0  0  0  0
   12.1084  -17.0550   23.7308 N   0  0  0  0  0  0  0  0  0  0  0  0
   13.4770  -17.3673   24.0885 C   0  0  0  0  0  0  0  0  0  0  0  0
   14.1395  -17.9408   22.8842 C   0  0  0  0  0  0  0  0  0  0  0  0
   13.5153  -18.5477   21.9884 O   0  0  0  0  0  0  0  0  0  0  0  0
   15.5166  -17.8181   22.7079 O   0  0  0  0  0  0  0  0  0  0  0  0
  2  1  1  1
  2  3  1  0
  3  4  1  0
  5  6  1  0
  5  4  1  0
  7  6  1  0
  8  9  2  0
  8  2  1  0
 10  8  1  0
 11 10  1  0
 11 12  1  1
 12 13  1  0
 13 21  1  0
 13 14  2  0
 14 15  1  0
 16 15  1  0
 16 17  2  0
 18 17  1  0
 19 18  2  0
 20 21  2  0
 20 19  1  0
 21 16  1  0
 22 24  1  0
 22 11  1  0
 23 22  2  0
 25 26  1  0
 25 24  1  0
 26 28  1  0
 27 26  2  0
M  END
$$$$
