KWG.pdb
     RDKit          3D

 28 29  0  0  1  0  0  0  0  0999 V2000
    7.2311  -14.7427   20.2648 N   0  0  0  0  0  0  0  0  0  0  0  0
    8.0031  -15.7963   20.8142 C   0  0  1  0  0  0  0  0  0  0  0  0
    8.9533  -16.4265   19.8504 C   0  0  0  0  0  0  0  0  0  0  0  0
    8.2966  -17.3521   18.9122 C   0  0  0  0  0  0  0  0  0  0  0  0
    9.2408  -18.0910   18.0257 C   0  0  0  0  0  0  0  0  0  0  0  0
    8.4569  -19.0456   17.1535 C   0  0  0  0  0  0  0  0  0  0  0  0
    9.3431  -19.7824   16.2488 N   0  0  0  0  0  0  0  0  0  0  0  0
    8.8138  -15.3660   21.9919 C   0  0  0  0  0  0  0  0  0  0  0  0
    9.3925  -14.2653   21.9360 O   0  0  0  0  0  0  0  0  0  0  0  0
    8.8967  -16.2087   23.1131 N   0  0  0  0  0  0  0  0  0  0  0  0
    9.5820  -15.8568   24.3357 C   0  0  1  0  0  0  0  0  0  0  0  0
    8.7431  -16.0537   25.5340 C   0  0  0  0  0  0  0  0  0  0  0  0
    7.4455  -15.3727   25.5525 C   0  0  0  0  0  0  0  0  0  0  0  0
    6.1650  -15.7888   25.3285 C   0  0  0  0  0  0  0  0  0  0  0  0
    5.2718  -14.7818   25.4780 N   0  0  0  0  0  0  0  0  0  0  0  0
    5.9912  -13.6911   25.8051 C   0  0  0  0  0  0  0  0  0  0  0  0
    5.5636  -12.3929   26.0663 C   0  0  0  0  0  0  0  0  0  0  0  0
    6.4968  -11.4329   26.3808 C   0  0  0  0  0  0  0  0  0  0  0  0
    7.8455  -11.7191   26.4452 C   0  0  0  0  0  0  0  0  0  0  0  0
    8.2401  -13.0167   26.1811 C   0  0  0  0  0  0  0  0  0  0  0  0
    7.3373  -14.0076   25.8624 C   0  0  0  0  0  0  0  0  0  0  0  0
   10.9208  -16.5029   24.4142 C   0  0  0  0  0  0  0  0  0  0  0  0
   11.5754  -16.3984   25.4951 O   0  0  0  0  0  0  0  0  0  0  0  0
   11.4621  -17.2187   23.3180 N   0  0  0  0  0  0  0  0  0  0  0  0
   12.7645  -17.8374   23.4584 C   0  0  0  0  0  0  0  0  0  0  0  0
   13.7883  -16.8307   23.0632 C   0  0  0  0  0  0  0  0  0  0  0  0
   13.7157  -16.1639   22.0094 O   0  0  0  0  0  0  0  0  0  0  0  0
   14.8944  -16.5893   23.8762 O   0  0  0  0  0  0  0  0  0  0  0  0
  2  1  1  6
  2  3  1  0
  3  4  1  0
  5  6  1  0
  5  4  1  0
  7  6  1  0
  8  9  2  0
  8  2  1  0
 10  8  1  0
 11 10  1  0
 11 12  1  1
 12 13  1  0
 13 21  1  0
 13 14  2  0
 14 15  1  0
 16 15  1  0
 16 17  2  0
 18 17  1  0
 19 18  2  0
 20 21  2  0
 20 19  1  0
 21 16  1  0
 22 24  1  0
 22 11  1  0
 23 22  2  0
 25 26  1  0
 25 24  1  0
 26 28  1  0
 27 26  2  0
M  END
$$$$
