KWG.pdb
     RDKit          3D

 28 29  0  0  1  0  0  0  0  0999 V2000
    7.2659  -17.9191   21.2499 N   0  0  0  0  0  0  0  0  0  0  0  0
    8.6427  -17.6285   21.0834 C   0  0  1  0  0  0  0  0  0  0  0  0
    9.0097  -17.1653   19.7124 C   0  0  0  0  0  0  0  0  0  0  0  0
    9.4041  -18.2652   18.8165 C   0  0  0  0  0  0  0  0  0  0  0  0
    9.7620  -17.8272   17.4368 C   0  0  0  0  0  0  0  0  0  0  0  0
   11.0688  -18.4737   17.0355 C   0  0  0  0  0  0  0  0  0  0  0  0
   11.5037  -18.0094   15.7156 N   0  0  0  0  0  0  0  0  0  0  0  0
    9.1319  -16.5837   22.0312 C   0  0  0  0  0  0  0  0  0  0  0  0
    9.2576  -15.4196   21.6084 O   0  0  0  0  0  0  0  0  0  0  0  0
    9.4319  -16.9445   23.3556 N   0  0  0  0  0  0  0  0  0  0  0  0
    9.9115  -16.0163   24.3539 C   0  0  1  0  0  0  0  0  0  0  0  0
    9.0059  -15.9122   25.5147 C   0  0  0  0  0  0  0  0  0  0  0  0
    7.7732  -15.1425   25.3251 C   0  0  0  0  0  0  0  0  0  0  0  0
    6.6177  -15.3771   24.6376 C   0  0  0  0  0  0  0  0  0  0  0  0
    5.7338  -14.3596   24.7704 N   0  0  0  0  0  0  0  0  0  0  0  0
    6.3318  -13.4473   25.5606 C   0  0  0  0  0  0  0  0  0  0  0  0
    5.8606  -12.2164   26.0069 C   0  0  0  0  0  0  0  0  0  0  0  0
    6.6644  -11.4466   26.8148 C   0  0  0  0  0  0  0  0  0  0  0  0
    7.9252  -11.8589   27.1962 C   0  0  0  0  0  0  0  0  0  0  0  0
    8.3659  -13.0857   26.7377 C   0  0  0  0  0  0  0  0  0  0  0  0
    7.5920  -13.8871   25.9270 C   0  0  0  0  0  0  0  0  0  0  0  0
   11.3319  -16.2856   24.7093 C   0  0  0  0  0  0  0  0  0  0  0  0
   11.5930  -16.6701   25.8890 O   0  0  0  0  0  0  0  0  0  0  0  0
   12.3748  -16.1208   23.7647 N   0  0  0  0  0  0  0  0  0  0  0  0
   13.7409  -16.3704   24.1772 C   0  0  0  0  0  0  0  0  0  0  0  0
   14.5993  -16.3053   22.9619 C   0  0  0  0  0  0  0  0  0  0  0  0
   15.8464  -16.3603   23.0061 O   0  0  0  0  0  0  0  0  0  0  0  0
   14.0274  -16.1772   21.6974 O   0  0  0  0  0  0  0  0  0  0  0  0
  2  1  1  6
  2  3  1  0
  3  4  1  0
  5  6  1  0
  5  4  1  0
  7  6  1  0
  8  9  2  0
  8  2  1  0
 10  8  1  0
 11 10  1  0
 11 12  1  1
 12 13  1  0
 13 21  1  0
 13 14  2  0
 14 15  1  0
 16 15  1  0
 16 17  2  0
 18 17  1  0
 19 18  2  0
 20 21  2  0
 20 19  1  0
 21 16  1  0
 22 24  1  0
 22 11  1  0
 23 22  2  0
 25 26  1  0
 25 24  1  0
 26 28  1  0
 27 26  2  0
M  END
$$$$
