KWG.pdb
     RDKit          3D

 28 29  0  0  1  0  0  0  0  0999 V2000
    7.6642  -16.1126   21.1943 N   0  0  0  0  0  0  0  0  0  0  0  0
    8.5305  -14.9913   21.1918 C   0  0  1  0  0  0  0  0  0  0  0  0
    7.8574  -13.6978   20.8711 C   0  0  0  0  0  0  0  0  0  0  0  0
    7.1146  -13.7320   19.6002 C   0  0  0  0  0  0  0  0  0  0  0  0
    7.9794  -13.6539   18.3880 C   0  0  0  0  0  0  0  0  0  0  0  0
    7.1041  -13.6440   17.1551 C   0  0  0  0  0  0  0  0  0  0  0  0
    7.9110  -13.7197   15.9344 N   0  0  0  0  0  0  0  0  0  0  0  0
    9.2277  -14.7963   22.4977 C   0  0  0  0  0  0  0  0  0  0  0  0
    9.8127  -13.7155   22.6956 O   0  0  0  0  0  0  0  0  0  0  0  0
    9.2016  -15.8285   23.4507 N   0  0  0  0  0  0  0  0  0  0  0  0
    9.9054  -15.7778   24.7118 C   0  0  1  0  0  0  0  0  0  0  0  0
    9.0180  -16.0127   25.8675 C   0  0  0  0  0  0  0  0  0  0  0  0
    7.6754  -15.4289   25.8002 C   0  0  0  0  0  0  0  0  0  0  0  0
    6.4406  -15.9455   25.5332 C   0  0  0  0  0  0  0  0  0  0  0  0
    5.4711  -15.0024   25.6031 N   0  0  0  0  0  0  0  0  0  0  0  0
    6.0934  -13.8512   25.9216 C   0  0  0  0  0  0  0  0  0  0  0  0
    5.5613  -12.5797   26.1135 C   0  0  0  0  0  0  0  0  0  0  0  0
    6.4067  -11.5435   26.4343 C   0  0  0  0  0  0  0  0  0  0  0  0
    7.7677  -11.7272   26.5716 C   0  0  0  0  0  0  0  0  0  0  0  0
    8.2669  -13.0006   26.3753 C   0  0  0  0  0  0  0  0  0  0  0  0
    7.4544  -14.0656   26.0530 C   0  0  0  0  0  0  0  0  0  0  0  0
   11.1216  -16.6361   24.6909 C   0  0  0  0  0  0  0  0  0  0  0  0
   11.7695  -16.7855   25.7705 O   0  0  0  0  0  0  0  0  0  0  0  0
   11.5556  -17.2751   23.5033 N   0  0  0  0  0  0  0  0  0  0  0  0
   12.6102  -18.2650   23.5845 C   0  0  0  0  0  0  0  0  0  0  0  0
   13.9075  -17.5610   23.3856 C   0  0  0  0  0  0  0  0  0  0  0  0
   13.9980  -16.3202   23.2729 O   0  0  0  0  0  0  0  0  0  0  0  0
   15.0995  -18.2797   23.3161 O   0  0  0  0  0  0  0  0  0  0  0  0
  2  1  1  1
  2  3  1  0
  3  4  1  0
  5  6  1  0
  5  4  1  0
  7  6  1  0
  8  9  2  0
  8  2  1  0
 10  8  1  0
 11 10  1  0
 11 12  1  1
 12 13  1  0
 13 21  1  0
 13 14  2  0
 14 15  1  0
 16 15  1  0
 16 17  2  0
 18 17  1  0
 19 18  2  0
 20 21  2  0
 20 19  1  0
 21 16  1  0
 22 24  1  0
 22 11  1  0
 23 22  2  0
 25 26  1  0
 25 24  1  0
 26 28  1  0
 27 26  2  0
M  END
$$$$
