RLQ.pdb
     RDKit          3D

 29 28  0  0  1  0  0  0  0  0999 V2000
   29.7190  -19.1027  -20.6680 N   0  0  0  0  0  0  0  0  0  0  0  0
   30.3288  -19.1856  -19.3927 C   0  0  0  0  0  0  0  0  0  0  0  0
   31.0453  -18.2279  -18.9056 N   0  0  0  0  0  0  0  0  0  0  0  0
   30.1655  -20.3544  -18.5915 N   0  0  0  0  0  0  0  0  0  0  0  0
   29.3691  -21.4806  -19.0351 C   0  0  0  0  0  0  0  0  0  0  0  0
   27.9244  -21.2075  -18.5790 C   0  0  0  0  0  0  0  0  0  0  0  0
   27.7628  -21.5155  -17.1235 C   0  0  0  0  0  0  0  0  0  0  0  0
   26.3857  -21.2518  -16.6298 C   0  0  2  0  0  0  0  0  0  0  0  0
   25.9872  -19.8960  -17.0238 N   0  0  0  0  0  0  0  0  0  0  0  0
   26.1842  -21.4513  -15.1776 C   0  0  0  0  0  0  0  0  0  0  0  0
   26.0701  -22.5920  -14.6865 O   0  0  0  0  0  0  0  0  0  0  0  0
   31.4510  -18.2621  -17.9515 C   0  0  0  0  0  0  0  0  0  0  0  0
   29.4704  -19.9953  -11.5991 C   0  0  1  0  0  0  0  0  0  0  0  0
   28.3423  -20.7089  -12.2458 C   0  0  0  0  0  0  0  0  0  0  0  0
   28.2645  -22.1304  -11.7179 C   0  0  0  0  0  0  0  0  0  0  0  0
   27.0433  -20.0348  -12.0410 C   0  0  2  0  0  0  0  0  0  0  0  0
   25.8766  -20.5491  -12.8242 N   0  0  0  0  0  0  0  0  0  0  0  0
   26.1095  -20.3582  -14.2642 C   0  0  0  0  0  0  0  0  0  0  0  0
   24.5626  -19.9970  -12.4947 O   0  0  0  0  0  0  0  0  0  0  0  0
   24.3554  -18.7315  -12.4611 N   0  0  0  0  0  0  0  0  0  0  0  0
   21.6176  -20.3994  -16.8626 C   0  0  0  0  0  0  0  0  0  0  0  0
   20.8088  -19.5112  -16.1079 O   0  0  0  0  0  0  0  0  0  0  0  0
   20.2189  -18.5420  -16.6467 C   0  0  0  0  0  0  0  0  0  0  0  0
   20.7004  -19.7937  -14.6461 C   0  0  0  0  0  0  0  0  0  0  0  0
   22.0839  -20.1489  -14.1484 C   0  0  1  0  0  0  0  0  0  0  0  0
   22.0790  -20.4162  -12.6495 N   0  0  0  0  0  0  0  0  0  0  0  0
   23.4045  -20.7719  -12.1893 C   0  0  0  0  0  0  0  0  0  0  0  0
   21.0381  -21.3889  -12.2757 O   0  0  0  0  0  0  0  0  0  0  0  0
   21.2102  -22.6366  -12.4874 O   0  0  0  0  0  0  0  0  0  0  0  0
  2  1  1  0
  2  3  2  0
  4  2  1  0
  5  4  1  0
  6  5  1  0
  7  6  1  0
  8 10  1  0
  8  7  1  0
  8  9  1  1
 10 11  2  0
 13 12  1  6
 14 13  1  0
 15 13  1  0
 16 15  1  6
 17 16  1  0
 17 10  1  0
 18 16  1  0
 18 19  2  0
 20 21  1  0
 21 23  1  0
 21 22  2  0
 23 24  1  0
 25 24  1  1
 25 26  1  0
 25 27  1  0
 26 18  1  0
 27 28  2  0
 27 29  1  0
M  END
$$$$
