RLQ.pdb
     RDKit          3D

 29 28  0  0  1  0  0  0  0  0999 V2000
   30.4154  -23.9947  -15.7777 N   0  0  0  0  0  0  0  0  0  0  0  0
   30.2409  -23.5714  -17.1176 C   0  0  0  0  0  0  0  0  0  0  0  0
   30.3255  -24.3858  -18.1164 N   0  0  0  0  0  0  0  0  0  0  0  0
   29.9599  -22.2038  -17.4095 N   0  0  0  0  0  0  0  0  0  0  0  0
   29.4010  -21.3089  -16.4164 C   0  0  0  0  0  0  0  0  0  0  0  0
   27.9968  -21.8429  -16.0803 C   0  0  0  0  0  0  0  0  0  0  0  0
   27.6736  -21.6078  -14.6381 C   0  0  0  0  0  0  0  0  0  0  0  0
   26.3213  -21.0232  -14.4403 C   0  0  2  0  0  0  0  0  0  0  0  0
   26.4316  -19.5605  -14.4099 N   0  0  0  0  0  0  0  0  0  0  0  0
   25.5863  -21.5137  -13.2535 C   0  0  0  0  0  0  0  0  0  0  0  0
   25.2554  -22.7109  -13.1412 O   0  0  0  0  0  0  0  0  0  0  0  0
   30.2868  -24.0675  -19.1029 C   0  0  0  0  0  0  0  0  0  0  0  0
   26.6316  -19.3248   -8.5185 C   0  0  1  0  0  0  0  0  0  0  0  0
   26.3039  -20.2304   -9.6466 C   0  0  0  0  0  0  0  0  0  0  0  0
   27.0325  -21.5510   -9.4725 C   0  0  0  0  0  0  0  0  0  0  0  0
   24.8536  -20.4809   -9.7793 C   0  0  2  0  0  0  0  0  0  0  0  0
   24.3827  -21.1045  -11.0555 N   0  0  0  0  0  0  0  0  0  0  0  0
   25.2176  -20.6512  -12.1789 C   0  0  0  0  0  0  0  0  0  0  0  0
   22.9796  -20.8995  -11.4146 O   0  0  0  0  0  0  0  0  0  0  0  0
   22.0371  -21.0623  -10.5597 N   0  0  0  0  0  0  0  0  0  0  0  0
   20.5928  -18.6007  -16.6860 C   0  0  0  0  0  0  0  0  0  0  0  0
   19.4069  -18.5699  -15.9079 O   0  0  0  0  0  0  0  0  0  0  0  0
   18.3316  -18.1117  -16.3680 C   0  0  0  0  0  0  0  0  0  0  0  0
   19.5105  -19.1102  -14.5202 C   0  0  0  0  0  0  0  0  0  0  0  0
   20.9563  -19.4886  -14.2871 C   0  0  2  0  0  0  0  0  0  0  0  0
   21.1159  -20.2931  -13.0042 N   0  0  0  0  0  0  0  0  0  0  0  0
   22.5160  -20.5060  -12.7051 C   0  0  0  0  0  0  0  0  0  0  0  0
   20.3195  -21.5316  -13.0385 O   0  0  0  0  0  0  0  0  0  0  0  0
   20.7903  -22.5909  -13.5747 O   0  0  0  0  0  0  0  0  0  0  0  0
  2  1  1  0
  2  3  2  0
  4  2  1  0
  5  4  1  0
  6  5  1  0
  7  6  1  0
  8 10  1  0
  8  7  1  0
  8  9  1  1
 10 11  2  0
 13 12  1  6
 14 13  1  0
 15 13  1  0
 16 15  1  1
 17 16  1  0
 17 10  1  0
 18 16  1  0
 18 19  2  0
 20 21  1  0
 21 23  1  0
 21 22  2  0
 23 24  1  0
 25 24  1  1
 25 26  1  0
 25 27  1  0
 26 18  1  0
 27 28  2  0
 27 29  1  0
M  END
$$$$
