RLQ.pdb
     RDKit          3D

 29 28  0  0  1  0  0  0  0  0999 V2000
   23.9523  -16.8746  -19.3329 N   0  0  0  0  0  0  0  0  0  0  0  0
   24.2927  -17.0732  -20.6930 C   0  0  0  0  0  0  0  0  0  0  0  0
   24.0830  -16.1743  -21.5964 N   0  0  0  0  0  0  0  0  0  0  0  0
   24.8903  -18.2981  -21.1138 N   0  0  0  0  0  0  0  0  0  0  0  0
   25.2108  -19.3548  -20.1757 C   0  0  0  0  0  0  0  0  0  0  0  0
   26.4367  -18.8788  -19.3755 C   0  0  0  0  0  0  0  0  0  0  0  0
   26.1686  -18.9524  -17.9050 C   0  0  0  0  0  0  0  0  0  0  0  0
   26.7580  -20.1620  -17.2733 C   0  0  2  0  0  0  0  0  0  0  0  0
   27.1701  -21.0987  -18.3246 N   0  0  0  0  0  0  0  0  0  0  0  0
   25.8971  -20.8415  -16.2801 C   0  0  0  0  0  0  0  0  0  0  0  0
   25.2947  -21.8983  -16.5550 O   0  0  0  0  0  0  0  0  0  0  0  0
   24.3630  -16.3008  -22.5872 C   0  0  0  0  0  0  0  0  0  0  0  0
   24.4194  -22.6499  -11.3116 C   0  0  2  0  0  0  0  0  0  0  0  0
   24.2734  -21.1935  -11.5520 C   0  0  0  0  0  0  0  0  0  0  0  0
   24.5446  -20.4318  -10.2668 C   0  0  0  0  0  0  0  0  0  0  0  0
   25.1665  -20.6951  -12.6186 C   0  0  1  0  0  0  0  0  0  0  0  0
   24.7173  -20.8924  -14.0323 N   0  0  0  0  0  0  0  0  0  0  0  0
   25.7092  -20.3298  -14.9620 C   0  0  0  0  0  0  0  0  0  0  0  0
   23.4015  -20.3623  -14.3892 O   0  0  0  0  0  0  0  0  0  0  0  0
   22.9427  -19.2895  -13.8563 N   0  0  0  0  0  0  0  0  0  0  0  0
   20.5395  -22.7286  -11.5851 C   0  0  0  0  0  0  0  0  0  0  0  0
   19.4029  -22.9947  -12.3914 O   0  0  0  0  0  0  0  0  0  0  0  0
   18.3079  -23.3469  -11.8867 C   0  0  0  0  0  0  0  0  0  0  0  0
   19.5828  -22.8328  -13.8644 C   0  0  0  0  0  0  0  0  0  0  0  0
   21.0258  -22.4492  -14.1061 C   0  0  2  0  0  0  0  0  0  0  0  0
   21.1289  -21.2482  -15.0363 N   0  0  0  0  0  0  0  0  0  0  0  0
   22.5134  -20.9519  -15.3373 C   0  0  0  0  0  0  0  0  0  0  0  0
   20.3724  -20.0953  -14.5187 O   0  0  0  0  0  0  0  0  0  0  0  0
   19.1093  -20.0181  -14.6911 O   0  0  0  0  0  0  0  0  0  0  0  0
  2  1  1  0
  2  3  2  0
  4  2  1  0
  5  4  1  0
  6  5  1  0
  7  6  1  0
  8 10  1  0
  8  7  1  0
  8  9  1  6
 10 11  2  0
 13 12  1  1
 14 13  1  0
 15 13  1  0
 16 15  1  6
 17 16  1  0
 17 10  1  0
 18 16  1  0
 18 19  2  0
 20 21  1  0
 21 23  1  0
 21 22  2  0
 23 24  1  0
 25 24  1  6
 25 26  1  0
 25 27  1  0
 26 18  1  0
 27 28  2  0
 27 29  1  0
M  END
$$$$
