RLQ.pdb
     RDKit          3D

 29 28  0  0  1  0  0  0  0  0999 V2000
   25.2528  -19.1769  -19.2229 N   0  0  0  0  0  0  0  0  0  0  0  0
   26.2373  -18.4957  -19.9792 C   0  0  0  0  0  0  0  0  0  0  0  0
   25.9461  -17.8072  -21.0324 N   0  0  0  0  0  0  0  0  0  0  0  0
   27.6087  -18.5508  -19.5910 N   0  0  0  0  0  0  0  0  0  0  0  0
   28.0337  -19.2168  -18.3764 C   0  0  0  0  0  0  0  0  0  0  0  0
   27.6894  -20.7076  -18.5459 C   0  0  0  0  0  0  0  0  0  0  0  0
   26.7064  -21.1442  -17.5053 C   0  0  0  0  0  0  0  0  0  0  0  0
   27.1348  -20.7915  -16.1263 C   0  0  2  0  0  0  0  0  0  0  0  0
   28.4399  -21.4059  -15.8584 N   0  0  0  0  0  0  0  0  0  0  0  0
   26.1708  -21.1321  -15.0567 C   0  0  0  0  0  0  0  0  0  0  0  0
   25.0509  -21.6144  -15.3186 O   0  0  0  0  0  0  0  0  0  0  0  0
   26.6706  -17.3837  -21.6421 C   0  0  0  0  0  0  0  0  0  0  0  0
   24.7555  -22.3729   -9.8435 C   0  0  2  0  0  0  0  0  0  0  0  0
   25.1805  -20.9753  -10.1010 C   0  0  0  0  0  0  0  0  0  0  0  0
   25.8842  -20.4193   -8.8758 C   0  0  0  0  0  0  0  0  0  0  0  0
   26.0663  -20.8519  -11.2772 C   0  0  1  0  0  0  0  0  0  0  0  0
   25.4614  -21.1234  -12.6187 N   0  0  0  0  0  0  0  0  0  0  0  0
   26.4659  -20.9293  -13.6760 C   0  0  0  0  0  0  0  0  0  0  0  0
   24.2672  -20.3570  -12.9741 O   0  0  0  0  0  0  0  0  0  0  0  0
   24.3154  -19.0897  -13.1669 N   0  0  0  0  0  0  0  0  0  0  0  0
   20.9791  -19.9107  -17.4128 C   0  0  0  0  0  0  0  0  0  0  0  0
   20.0491  -19.1740  -16.6348 O   0  0  0  0  0  0  0  0  0  0  0  0
   19.1003  -18.5459  -17.1667 C   0  0  0  0  0  0  0  0  0  0  0  0
   20.2624  -19.1887  -15.1575 C   0  0  0  0  0  0  0  0  0  0  0  0
   21.4917  -20.0267  -14.8845 C   0  0  1  0  0  0  0  0  0  0  0  0
   21.7926  -20.0952  -13.3935 N   0  0  0  0  0  0  0  0  0  0  0  0
   22.9631  -20.9096  -13.1450 C   0  0  0  0  0  0  0  0  0  0  0  0
   20.6078  -20.5040  -12.6197 O   0  0  0  0  0  0  0  0  0  0  0  0
   20.4277  -21.7293  -12.3080 O   0  0  0  0  0  0  0  0  0  0  0  0
  2  1  1  0
  2  3  2  0
  4  2  1  0
  5  4  1  0
  6  5  1  0
  7  6  1  0
  8 10  1  0
  8  7  1  0
  8  9  1  1
 10 11  2  0
 13 12  1  1
 14 13  1  0
 15 13  1  0
 16 15  1  1
 17 16  1  0
 17 10  1  0
 18 16  1  0
 18 19  2  0
 20 21  1  0
 21 23  1  0
 21 22  2  0
 23 24  1  0
 25 24  1  6
 25 26  1  0
 25 27  1  0
 26 18  1  0
 27 28  2  0
 27 29  1  0
M  END
$$$$
