RLQ.pdb
     RDKit          3D

 29 28  0  0  1  0  0  0  0  0999 V2000
   25.6095  -17.5224  -21.4863 N   0  0  0  0  0  0  0  0  0  0  0  0
   24.7265  -18.5488  -21.0715 C   0  0  0  0  0  0  0  0  0  0  0  0
   24.2775  -19.4452  -21.8857 N   0  0  0  0  0  0  0  0  0  0  0  0
   24.2986  -18.6244  -19.7129 N   0  0  0  0  0  0  0  0  0  0  0  0
   24.6903  -17.6333  -18.7313 C   0  0  0  0  0  0  0  0  0  0  0  0
   25.9553  -18.1724  -18.0392 C   0  0  0  0  0  0  0  0  0  0  0  0
   25.7622  -19.5962  -17.6206 C   0  0  0  0  0  0  0  0  0  0  0  0
   26.8872  -20.1103  -16.7961 C   0  0  2  0  0  0  0  0  0  0  0  0
   27.5751  -21.1748  -17.5350 N   0  0  0  0  0  0  0  0  0  0  0  0
   26.5188  -20.5734  -15.4400 C   0  0  0  0  0  0  0  0  0  0  0  0
   25.8371  -21.6032  -15.2662 O   0  0  0  0  0  0  0  0  0  0  0  0
   23.6765  -20.2318  -21.5758 C   0  0  0  0  0  0  0  0  0  0  0  0
   29.9749  -20.2865  -11.2957 C   0  0  1  0  0  0  0  0  0  0  0  0
   28.8683  -20.7833  -12.1494 C   0  0  0  0  0  0  0  0  0  0  0  0
   28.6456  -22.2628  -11.8908 C   0  0  0  0  0  0  0  0  0  0  0  0
   27.6038  -20.0493  -11.9354 C   0  0  2  0  0  0  0  0  0  0  0  0
   26.5001  -20.2906  -12.9167 N   0  0  0  0  0  0  0  0  0  0  0  0
   26.9199  -19.8734  -14.2636 C   0  0  0  0  0  0  0  0  0  0  0  0
   25.2079  -19.6700  -12.6259 O   0  0  0  0  0  0  0  0  0  0  0  0
   24.8449  -18.5778  -13.1925 N   0  0  0  0  0  0  0  0  0  0  0  0
   20.9599  -22.4153  -15.0381 C   0  0  0  0  0  0  0  0  0  0  0  0
   20.6365  -21.0434  -14.8766 O   0  0  0  0  0  0  0  0  0  0  0  0
   20.1265  -20.3749  -15.8097 C   0  0  0  0  0  0  0  0  0  0  0  0
   20.9356  -20.4446  -13.5423 C   0  0  0  0  0  0  0  0  0  0  0  0
   22.4137  -20.6320  -13.2815 C   0  0  2  0  0  0  0  0  0  0  0  0
   22.8129  -20.0549  -11.9303 N   0  0  0  0  0  0  0  0  0  0  0  0
   24.2383  -20.1897  -11.7177 C   0  0  0  0  0  0  0  0  0  0  0  0
   21.9932  -20.6107  -10.8400 O   0  0  0  0  0  0  0  0  0  0  0  0
   22.4411  -21.5579  -10.1098 O   0  0  0  0  0  0  0  0  0  0  0  0
  2  1  1  0
  2  3  2  0
  4  2  1  0
  5  4  1  0
  6  5  1  0
  7  6  1  0
  8 10  1  0
  8  7  1  0
  8  9  1  6
 10 11  2  0
 13 12  1  6
 14 13  1  0
 15 13  1  0
 16 15  1  6
 17 16  1  0
 17 10  1  0
 18 16  1  0
 18 19  2  0
 20 21  1  0
 21 23  1  0
 21 22  2  0
 23 24  1  0
 25 24  1  6
 25 26  1  0
 25 27  1  0
 26 18  1  0
 27 28  2  0
 27 29  1  0
M  END
$$$$
