RLQ.pdb
     RDKit          3D

 29 28  0  0  1  0  0  0  0  0999 V2000
   27.1124  -17.9887  -18.9794 N   0  0  0  0  0  0  0  0  0  0  0  0
   25.9858  -17.3863  -18.3686 C   0  0  0  0  0  0  0  0  0  0  0  0
   25.2539  -16.5134  -18.9771 N   0  0  0  0  0  0  0  0  0  0  0  0
   25.6183  -17.7341  -17.0349 N   0  0  0  0  0  0  0  0  0  0  0  0
   26.2302  -18.8478  -16.3387 C   0  0  0  0  0  0  0  0  0  0  0  0
   25.7360  -20.1293  -17.0341 C   0  0  0  0  0  0  0  0  0  0  0  0
   24.8028  -20.8873  -16.1430 C   0  0  0  0  0  0  0  0  0  0  0  0
   25.5021  -21.5554  -15.0141 C   0  0  2  0  0  0  0  0  0  0  0  0
   26.1010  -22.8056  -15.4944 N   0  0  0  0  0  0  0  0  0  0  0  0
   24.6737  -21.8037  -13.8135 C   0  0  0  0  0  0  0  0  0  0  0  0
   24.0199  -22.8573  -13.6798 O   0  0  0  0  0  0  0  0  0  0  0  0
   24.4338  -16.0617  -18.5304 C   0  0  0  0  0  0  0  0  0  0  0  0
   26.2089  -19.9706   -8.8716 C   0  0  1  0  0  0  0  0  0  0  0  0
   25.6894  -20.7623  -10.0133 C   0  0  0  0  0  0  0  0  0  0  0  0
   25.7646  -22.2433   -9.6869 C   0  0  0  0  0  0  0  0  0  0  0  0
   24.3014  -20.4066  -10.3746 C   0  0  2  0  0  0  0  0  0  0  0  0
   23.7157  -21.0781  -11.5768 N   0  0  0  0  0  0  0  0  0  0  0  0
   24.5770  -20.8589  -12.7492 C   0  0  0  0  0  0  0  0  0  0  0  0
   22.3464  -20.7121  -11.9385 O   0  0  0  0  0  0  0  0  0  0  0  0
   21.3667  -20.8958  -11.1310 N   0  0  0  0  0  0  0  0  0  0  0  0
   20.2173  -19.1724  -17.5631 C   0  0  0  0  0  0  0  0  0  0  0  0
   18.9745  -19.0937  -16.8833 O   0  0  0  0  0  0  0  0  0  0  0  0
   17.9066  -18.8423  -17.4949 C   0  0  0  0  0  0  0  0  0  0  0  0
   19.0096  -19.3255  -15.4091 C   0  0  0  0  0  0  0  0  0  0  0  0
   20.4464  -19.6044  -15.0274 C   0  0  2  0  0  0  0  0  0  0  0  0
   20.5761  -19.8888  -13.5372 N   0  0  0  0  0  0  0  0  0  0  0  0
   21.9584  -20.1275  -13.1806 C   0  0  0  0  0  0  0  0  0  0  0  0
   19.6574  -20.9568  -13.1073 O   0  0  0  0  0  0  0  0  0  0  0  0
   19.9471  -22.1834  -13.3135 O   0  0  0  0  0  0  0  0  0  0  0  0
  2  1  1  0
  2  3  2  0
  4  2  1  0
  5  4  1  0
  6  5  1  0
  7  6  1  0
  8 10  1  0
  8  7  1  0
  8  9  1  6
 10 11  2  0
 13 12  1  6
 14 13  1  0
 15 13  1  0
 16 15  1  1
 17 16  1  0
 17 10  1  0
 18 16  1  0
 18 19  2  0
 20 21  1  0
 21 23  1  0
 21 22  2  0
 23 24  1  0
 25 24  1  1
 25 26  1  0
 25 27  1  0
 26 18  1  0
 27 28  2  0
 27 29  1  0
M  END
$$$$
