RLQ.pdb
     RDKit          3D

 29 28  0  0  1  0  0  0  0  0999 V2000
   17.1521   -9.7258  -16.7754 N   0  0  0  0  0  0  0  0  0  0  0  0
   18.2637  -10.5739  -16.5515 C   0  0  0  0  0  0  0  0  0  0  0  0
   18.5628  -11.5461  -17.3473 N   0  0  0  0  0  0  0  0  0  0  0  0
   19.1038  -10.3745  -15.4161 N   0  0  0  0  0  0  0  0  0  0  0  0
   18.8536   -9.3192  -14.4553 C   0  0  0  0  0  0  0  0  0  0  0  0
   17.8612   -9.8864  -13.4241 C   0  0  0  0  0  0  0  0  0  0  0  0
   17.5672   -8.8740  -12.3618 C   0  0  0  0  0  0  0  0  0  0  0  0
   16.6798   -9.4035  -11.2934 C   0  0  2  0  0  0  0  0  0  0  0  0
   15.9800  -10.5908  -11.7967 N   0  0  0  0  0  0  0  0  0  0  0  0
   15.7161   -8.4319  -10.7307 C   0  0  0  0  0  0  0  0  0  0  0  0
   14.6691   -8.1278  -11.3363 O   0  0  0  0  0  0  0  0  0  0  0  0
   19.3232  -12.2218  -17.1443 C   0  0  0  0  0  0  0  0  0  0  0  0
   12.9888   -8.5946   -6.2007 C   0  0  1  0  0  0  0  0  0  0  0  0
   13.4263   -8.2435   -7.5738 C   0  0  0  0  0  0  0  0  0  0  0  0
   12.2383   -7.7493   -8.3800 C   0  0  0  0  0  0  0  0  0  0  0  0
   14.4944   -7.2225   -7.5928 C   0  0  2  0  0  0  0  0  0  0  0  0
   14.9998   -6.7884   -8.9327 N   0  0  0  0  0  0  0  0  0  0  0  0
   15.9288   -7.7930   -9.4733 C   0  0  0  0  0  0  0  0  0  0  0  0
   15.6479   -5.4789   -9.0036 O   0  0  0  0  0  0  0  0  0  0  0  0
   16.9251   -5.3604   -8.9926 N   0  0  0  0  0  0  0  0  0  0  0  0
   16.9521   -3.6109  -13.4229 C   0  0  0  0  0  0  0  0  0  0  0  0
   17.1635   -2.2842  -12.9669 O   0  0  0  0  0  0  0  0  0  0  0  0
   17.6913   -1.4135  -13.7024 C   0  0  0  0  0  0  0  0  0  0  0  0
   16.7251   -1.9853  -11.5716 C   0  0  0  0  0  0  0  0  0  0  0  0
   16.1591   -3.2618  -10.9902 C   0  0  1  0  0  0  0  0  0  0  0  0
   15.5854   -3.0275   -9.5994 N   0  0  0  0  0  0  0  0  0  0  0  0
   14.9611   -4.2318   -9.0943 C   0  0  0  0  0  0  0  0  0  0  0  0
   14.7092   -1.8440   -9.5667 O   0  0  0  0  0  0  0  0  0  0  0  0
   13.4397   -1.9778   -9.5278 O   0  0  0  0  0  0  0  0  0  0  0  0
  2  1  1  0
  2  3  2  0
  4  2  1  0
  5  4  1  0
  6  5  1  0
  7  6  1  0
  8 10  1  0
  8  7  1  0
  8  9  1  6
 10 11  2  0
 13 12  1  6
 14 13  1  0
 15 13  1  0
 16 15  1  6
 17 16  1  0
 17 10  1  0
 18 16  1  0
 18 19  2  0
 20 21  1  0
 21 23  1  0
 21 22  2  0
 23 24  1  0
 25 24  1  1
 25 26  1  0
 25 27  1  0
 26 18  1  0
 27 28  2  0
 27 29  1  0
M  END
$$$$
