RLQ.pdb
     RDKit          3D

 29 28  0  0  1  0  0  0  0  0999 V2000
   26.5273  -19.3330  -18.4940 N   0  0  0  0  0  0  0  0  0  0  0  0
   25.6907  -18.2238  -18.2202 C   0  0  0  0  0  0  0  0  0  0  0  0
   25.2653  -17.4331  -19.1486 N   0  0  0  0  0  0  0  0  0  0  0  0
   25.2842  -17.9418  -16.8824 N   0  0  0  0  0  0  0  0  0  0  0  0
   25.8244  -18.6665  -15.7500 C   0  0  0  0  0  0  0  0  0  0  0  0
   24.9312  -19.9043  -15.5503 C   0  0  0  0  0  0  0  0  0  0  0  0
   24.5123  -20.0279  -14.1189 C   0  0  0  0  0  0  0  0  0  0  0  0
   25.6299  -20.4322  -13.2261 C   0  0  2  0  0  0  0  0  0  0  0  0
   26.4602  -21.4247  -13.9175 N   0  0  0  0  0  0  0  0  0  0  0  0
   25.2270  -20.9303  -11.8923 C   0  0  0  0  0  0  0  0  0  0  0  0
   24.9112  -22.1230  -11.7105 O   0  0  0  0  0  0  0  0  0  0  0  0
   24.7339  -16.5658  -18.9449 C   0  0  0  0  0  0  0  0  0  0  0  0
   27.4515  -18.6649   -7.3612 C   0  0  1  0  0  0  0  0  0  0  0  0
   26.9319  -19.6871   -8.3021 C   0  0  0  0  0  0  0  0  0  0  0  0
   27.4536  -21.0579   -7.9095 C   0  0  0  0  0  0  0  0  0  0  0  0
   25.4555  -19.7185   -8.3579 C   0  0  2  0  0  0  0  0  0  0  0  0
   24.8306  -20.5814   -9.4087 N   0  0  0  0  0  0  0  0  0  0  0  0
   25.1775  -20.0804  -10.7477 C   0  0  0  0  0  0  0  0  0  0  0  0
   23.3796  -20.7558   -9.3457 O   0  0  0  0  0  0  0  0  0  0  0  0
   22.5751  -19.8048   -9.6526 N   0  0  0  0  0  0  0  0  0  0  0  0
   20.0557  -23.9343   -6.0756 C   0  0  0  0  0  0  0  0  0  0  0  0
   18.9537  -23.2593   -6.6609 O   0  0  0  0  0  0  0  0  0  0  0  0
   17.7818  -23.6975   -6.5509 C   0  0  0  0  0  0  0  0  0  0  0  0
   19.2659  -22.0063   -7.4099 C   0  0  0  0  0  0  0  0  0  0  0  0
   20.7718  -21.8822   -7.4795 C   0  0  2  0  0  0  0  0  0  0  0  0
   21.2762  -22.0777   -8.9027 N   0  0  0  0  0  0  0  0  0  0  0  0
   22.7177  -21.9577   -8.9553 C   0  0  0  0  0  0  0  0  0  0  0  0
   20.5708  -21.2010   -9.8531 O   0  0  0  0  0  0  0  0  0  0  0  0
   21.0371  -20.0471  -10.1400 O   0  0  0  0  0  0  0  0  0  0  0  0
  2  1  1  0
  2  3  2  0
  4  2  1  0
  5  4  1  0
  6  5  1  0
  7  6  1  0
  8 10  1  0
  8  7  1  0
  8  9  1  6
 10 11  2  0
 13 12  1  6
 14 13  1  0
 15 13  1  0
 16 15  1  6
 17 16  1  0
 17 10  1  0
 18 16  1  0
 18 19  2  0
 20 21  1  0
 21 23  1  0
 21 22  2  0
 23 24  1  0
 25 24  1  1
 25 26  1  0
 25 27  1  0
 26 18  1  0
 27 28  2  0
 27 29  1  0
M  END
$$$$
