RLQ.pdb
     RDKit          3D

 29 28  0  0  1  0  0  0  0  0999 V2000
   28.2113  -24.4139  -19.3142 N   0  0  0  0  0  0  0  0  0  0  0  0
   28.8559  -24.4653  -18.0545 C   0  0  0  0  0  0  0  0  0  0  0  0
   28.8080  -25.5093  -17.2956 N   0  0  0  0  0  0  0  0  0  0  0  0
   29.5931  -23.3415  -17.5769 N   0  0  0  0  0  0  0  0  0  0  0  0
   29.7283  -22.1279  -18.3568 C   0  0  0  0  0  0  0  0  0  0  0  0
   28.8817  -21.0526  -17.6518 C   0  0  0  0  0  0  0  0  0  0  0  0
   28.3828  -21.5541  -16.3330 C   0  0  0  0  0  0  0  0  0  0  0  0
   27.5410  -20.5574  -15.6205 C   0  0  2  0  0  0  0  0  0  0  0  0
   28.2804  -19.2946  -15.5144 N   0  0  0  0  0  0  0  0  0  0  0  0
   27.0434  -20.9814  -14.2931 C   0  0  0  0  0  0  0  0  0  0  0  0
   26.2749  -21.9554  -14.1663 O   0  0  0  0  0  0  0  0  0  0  0  0
   29.2863  -25.5553  -16.3763 C   0  0  0  0  0  0  0  0  0  0  0  0
   30.3730  -20.4736  -10.1725 C   0  0  1  0  0  0  0  0  0  0  0  0
   29.3330  -20.9957  -11.0922 C   0  0  0  0  0  0  0  0  0  0  0  0
   29.3747  -22.5134  -11.1051 C   0  0  0  0  0  0  0  0  0  0  0  0
   27.9721  -20.5426  -10.7369 C   0  0  2  0  0  0  0  0  0  0  0  0
   26.9049  -20.7102  -11.7724 N   0  0  0  0  0  0  0  0  0  0  0  0
   27.4121  -20.3051  -13.0926 C   0  0  0  0  0  0  0  0  0  0  0  0
   25.6379  -20.0186  -11.5356 O   0  0  0  0  0  0  0  0  0  0  0  0
   25.4719  -18.7899  -11.8647 N   0  0  0  0  0  0  0  0  0  0  0  0
   22.7323  -20.7104  -15.4185 C   0  0  0  0  0  0  0  0  0  0  0  0
   21.5348  -20.2747  -14.7949 O   0  0  0  0  0  0  0  0  0  0  0  0
   20.4879  -20.0668  -15.4570 C   0  0  0  0  0  0  0  0  0  0  0  0
   21.5911  -20.0791  -13.3161 C   0  0  0  0  0  0  0  0  0  0  0  0
   22.9846  -20.4522  -12.8614 C   0  0  2  0  0  0  0  0  0  0  0  0
   23.1355  -20.2893  -11.3551 N   0  0  0  0  0  0  0  0  0  0  0  0
   24.4844  -20.6089  -10.9388 C   0  0  0  0  0  0  0  0  0  0  0  0
   22.0949  -21.0312  -10.6227 O   0  0  0  0  0  0  0  0  0  0  0  0
   22.3684  -22.1419  -10.0548 O   0  0  0  0  0  0  0  0  0  0  0  0
  2  1  1  0
  2  3  2  0
  4  2  1  0
  5  4  1  0
  6  5  1  0
  7  6  1  0
  8 10  1  0
  8  7  1  0
  8  9  1  1
 10 11  2  0
 13 12  1  6
 14 13  1  0
 15 13  1  0
 16 15  1  6
 17 16  1  0
 17 10  1  0
 18 16  1  0
 18 19  2  0
 20 21  1  0
 21 23  1  0
 21 22  2  0
 23 24  1  0
 25 24  1  6
 25 26  1  0
 25 27  1  0
 26 18  1  0
 27 28  2  0
 27 29  1  0
M  END
$$$$
