RLQ.pdb
     RDKit          3D

 29 28  0  0  1  0  0  0  0  0999 V2000
   23.5951  -20.4440   -8.7014 N   0  0  0  0  0  0  0  0  0  0  0  0
   22.6359  -20.2886   -9.7314 C   0  0  0  0  0  0  0  0  0  0  0  0
   21.6002  -19.5278   -9.6025 N   0  0  0  0  0  0  0  0  0  0  0  0
   22.7893  -20.9824  -10.9682 N   0  0  0  0  0  0  0  0  0  0  0  0
   24.0008  -21.7076  -11.2933 C   0  0  0  0  0  0  0  0  0  0  0  0
   25.0259  -20.6637  -11.7722 C   0  0  0  0  0  0  0  0  0  0  0  0
   26.0011  -21.2800  -12.7256 C   0  0  0  0  0  0  0  0  0  0  0  0
   25.4599  -21.3974  -14.1051 C   0  0  2  0  0  0  0  0  0  0  0  0
   26.2338  -22.4048  -14.8391 N   0  0  0  0  0  0  0  0  0  0  0  0
   25.3956  -20.1325  -14.8702 C   0  0  0  0  0  0  0  0  0  0  0  0
   24.8306  -19.1206  -14.4095 O   0  0  0  0  0  0  0  0  0  0  0  0
   20.8906  -19.4171  -10.3510 C   0  0  0  0  0  0  0  0  0  0  0  0
   29.4394  -18.7721  -18.3677 C   0  0  1  0  0  0  0  0  0  0  0  0
   28.3788  -18.6389  -17.3394 C   0  0  0  0  0  0  0  0  0  0  0  0
   28.5777  -17.3504  -16.5613 C   0  0  0  0  0  0  0  0  0  0  0  0
   27.0169  -18.6640  -17.9123 C   0  0  2  0  0  0  0  0  0  0  0  0
   25.8738  -18.7586  -16.9513 N   0  0  0  0  0  0  0  0  0  0  0  0
   25.9719  -20.0003  -16.1683 C   0  0  0  0  0  0  0  0  0  0  0  0
   24.5264  -18.6766  -17.5147 O   0  0  0  0  0  0  0  0  0  0  0  0
   23.8091  -19.7248  -17.6949 N   0  0  0  0  0  0  0  0  0  0  0  0
   19.3172  -18.9987  -15.3185 C   0  0  0  0  0  0  0  0  0  0  0  0
   19.4055  -17.8191  -16.1016 O   0  0  0  0  0  0  0  0  0  0  0  0
   18.8736  -16.7434  -15.7306 C   0  0  0  0  0  0  0  0  0  0  0  0
   20.1623  -17.9298  -17.3835 C   0  0  0  0  0  0  0  0  0  0  0  0
   21.6361  -17.9099  -17.0439 C   0  0  2  0  0  0  0  0  0  0  0  0
   22.4652  -17.4002  -18.2149 N   0  0  0  0  0  0  0  0  0  0  0  0
   23.8783  -17.4685  -17.9090 C   0  0  0  0  0  0  0  0  0  0  0  0
   22.0157  -16.0697  -18.6588 O   0  0  0  0  0  0  0  0  0  0  0  0
   22.6264  -15.0166  -18.2725 O   0  0  0  0  0  0  0  0  0  0  0  0
  2  1  1  0
  2  3  2  0
  4  2  1  0
  5  4  1  0
  6  5  1  0
  7  6  1  0
  8 10  1  0
  8  7  1  0
  8  9  1  6
 10 11  2  0
 13 12  1  1
 14 13  1  0
 15 13  1  0
 16 15  1  1
 17 16  1  0
 17 10  1  0
 18 16  1  0
 18 19  2  0
 20 21  1  0
 21 23  1  0
 21 22  2  0
 23 24  1  0
 25 24  1  6
 25 26  1  0
 25 27  1  0
 26 18  1  0
 27 28  2  0
 27 29  1  0
M  END
$$$$
