RLQ.pdb
     RDKit          3D

 29 28  0  0  1  0  0  0  0  0999 V2000
   18.7652  -25.5082  -15.9929 N   0  0  0  0  0  0  0  0  0  0  0  0
   18.0519  -24.4140  -15.4460 C   0  0  0  0  0  0  0  0  0  0  0  0
   16.8884  -24.0606  -15.8808 N   0  0  0  0  0  0  0  0  0  0  0  0
   18.6097  -23.6543  -14.3753 N   0  0  0  0  0  0  0  0  0  0  0  0
   18.7415  -22.2132  -14.4474 C   0  0  0  0  0  0  0  0  0  0  0  0
   19.3257  -21.7546  -13.0990 C   0  0  0  0  0  0  0  0  0  0  0  0
   20.7917  -22.0476  -13.0315 C   0  0  0  0  0  0  0  0  0  0  0  0
   21.3898  -21.6871  -11.7193 C   0  0  2  0  0  0  0  0  0  0  0  0
   20.3556  -21.0844  -10.8710 N   0  0  0  0  0  0  0  0  0  0  0  0
   22.5822  -20.8135  -11.7851 C   0  0  0  0  0  0  0  0  0  0  0  0
   22.4783  -19.5712  -11.8218 O   0  0  0  0  0  0  0  0  0  0  0  0
   16.3164  -23.3293  -15.4181 C   0  0  0  0  0  0  0  0  0  0  0  0
   27.1040  -21.8368   -8.8363 C   0  0  1  0  0  0  0  0  0  0  0  0
   25.9725  -21.1925   -9.5466 C   0  0  0  0  0  0  0  0  0  0  0  0
   25.7310  -19.8064   -8.9758 C   0  0  0  0  0  0  0  0  0  0  0  0
   26.1908  -21.0944  -11.0048 C   0  0  2  0  0  0  0  0  0  0  0  0
   25.0984  -20.4746  -11.8183 N   0  0  0  0  0  0  0  0  0  0  0  0
   23.9080  -21.3391  -11.8101 C   0  0  0  0  0  0  0  0  0  0  0  0
   25.4143  -20.1418  -13.2073 O   0  0  0  0  0  0  0  0  0  0  0  0
   25.1693  -20.9585  -14.1657 N   0  0  0  0  0  0  0  0  0  0  0  0
   27.1612  -14.7103  -15.6488 C   0  0  0  0  0  0  0  0  0  0  0  0
   27.4995  -15.5110  -16.7701 O   0  0  0  0  0  0  0  0  0  0  0  0
   27.9169  -15.0006  -17.8392 C   0  0  0  0  0  0  0  0  0  0  0  0
   27.3318  -16.9852  -16.6064 C   0  0  0  0  0  0  0  0  0  0  0  0
   26.8592  -17.2342  -15.1914 C   0  0  1  0  0  0  0  0  0  0  0  0
   26.3636  -18.6635  -15.0187 N   0  0  0  0  0  0  0  0  0  0  0  0
   26.0041  -18.9170  -13.6397 C   0  0  0  0  0  0  0  0  0  0  0  0
   27.3176  -19.6387  -15.5741 O   0  0  0  0  0  0  0  0  0  0  0  0
   28.3002  -20.0563  -14.8732 O   0  0  0  0  0  0  0  0  0  0  0  0
  2  1  1  0
  2  3  2  0
  4  2  1  0
  5  4  1  0
  6  5  1  0
  7  6  1  0
  8 10  1  0
  8  7  1  0
  8  9  1  1
 10 11  2  0
 13 12  1  1
 14 13  1  0
 15 13  1  0
 16 15  1  1
 17 16  1  0
 17 10  1  0
 18 16  1  0
 18 19  2  0
 20 21  1  0
 21 23  1  0
 21 22  2  0
 23 24  1  0
 25 24  1  6
 25 26  1  0
 25 27  1  0
 26 18  1  0
 27 28  2  0
 27 29  1  0
M  END
$$$$
