RLQ.pdb
     RDKit          3D

 29 28  0  0  1  0  0  0  0  0999 V2000
   25.6140  -23.1043  -18.7845 N   0  0  0  0  0  0  0  0  0  0  0  0
   26.0101  -24.3716  -19.2766 C   0  0  0  0  0  0  0  0  0  0  0  0
   25.7720  -24.7476  -20.4890 N   0  0  0  0  0  0  0  0  0  0  0  0
   26.6990  -25.2894  -18.4293 N   0  0  0  0  0  0  0  0  0  0  0  0
   26.5903  -25.2272  -16.9859 C   0  0  0  0  0  0  0  0  0  0  0  0
   25.1649  -25.6866  -16.6296 C   0  0  0  0  0  0  0  0  0  0  0  0
   24.7060  -25.0458  -15.3574 C   0  0  0  0  0  0  0  0  0  0  0  0
   24.5744  -23.5697  -15.4726 C   0  0  2  0  0  0  0  0  0  0  0  0
   25.9084  -22.9812  -15.6353 N   0  0  0  0  0  0  0  0  0  0  0  0
   23.8470  -22.9101  -14.3657 C   0  0  0  0  0  0  0  0  0  0  0  0
   22.6920  -23.2567  -14.0475 O   0  0  0  0  0  0  0  0  0  0  0  0
   26.1116  -25.6498  -20.8720 C   0  0  0  0  0  0  0  0  0  0  0  0
   26.6170  -20.4755  -10.1244 C   0  0  1  0  0  0  0  0  0  0  0  0
   25.6439  -21.2856  -10.8971 C   0  0  0  0  0  0  0  0  0  0  0  0
   24.9192  -22.2418   -9.9666 C   0  0  0  0  0  0  0  0  0  0  0  0
   24.6563  -20.4594  -11.6222 C   0  0  2  0  0  0  0  0  0  0  0  0
   23.6949  -21.1746  -12.5185 N   0  0  0  0  0  0  0  0  0  0  0  0
   24.4216  -21.8484  -13.6058 C   0  0  0  0  0  0  0  0  0  0  0  0
   22.6214  -20.3761  -13.1099 O   0  0  0  0  0  0  0  0  0  0  0  0
   22.8711  -19.3526  -13.8418 N   0  0  0  0  0  0  0  0  0  0  0  0
   21.1559  -20.3549  -17.6535 C   0  0  0  0  0  0  0  0  0  0  0  0
   19.8049  -20.6912  -17.3807 O   0  0  0  0  0  0  0  0  0  0  0  0
   19.0452  -21.1355  -18.2769 C   0  0  0  0  0  0  0  0  0  0  0  0
   19.3419  -20.4876  -15.9763 C   0  0  0  0  0  0  0  0  0  0  0  0
   20.5139  -19.9508  -15.1851 C   0  0  1  0  0  0  0  0  0  0  0  0
   20.2079  -19.9266  -13.6937 N   0  0  0  0  0  0  0  0  0  0  0  0
   21.2277  -20.6360  -12.9509 C   0  0  0  0  0  0  0  0  0  0  0  0
   18.8377  -20.3889  -13.4140 O   0  0  0  0  0  0  0  0  0  0  0  0
   18.6372  -21.4997  -12.8167 O   0  0  0  0  0  0  0  0  0  0  0  0
  2  1  1  0
  2  3  2  0
  4  2  1  0
  5  4  1  0
  6  5  1  0
  7  6  1  0
  8 10  1  0
  8  7  1  0
  8  9  1  1
 10 11  2  0
 13 12  1  6
 14 13  1  0
 15 13  1  0
 16 15  1  1
 17 16  1  0
 17 10  1  0
 18 16  1  0
 18 19  2  0
 20 21  1  0
 21 23  1  0
 21 22  2  0
 23 24  1  0
 25 24  1  1
 25 26  1  0
 25 27  1  0
 26 18  1  0
 27 28  2  0
 27 29  1  0
M  END
$$$$
