RLQ.pdb
     RDKit          3D

 29 28  0  0  1  0  0  0  0  0999 V2000
   26.4583  -25.6874  -18.4604 N   0  0  0  0  0  0  0  0  0  0  0  0
   25.8324  -26.7768  -19.1136 C   0  0  0  0  0  0  0  0  0  0  0  0
   26.4558  -27.5244  -19.9623 N   0  0  0  0  0  0  0  0  0  0  0  0
   24.4660  -27.0870  -18.8470 N   0  0  0  0  0  0  0  0  0  0  0  0
   23.7132  -26.4021  -17.8157 C   0  0  0  0  0  0  0  0  0  0  0  0
   24.3182  -26.8324  -16.4671 C   0  0  0  0  0  0  0  0  0  0  0  0
   23.5316  -26.2613  -15.3292 C   0  0  0  0  0  0  0  0  0  0  0  0
   23.6930  -24.7892  -15.2009 C   0  0  2  0  0  0  0  0  0  0  0  0
   25.0215  -24.4992  -14.6500 N   0  0  0  0  0  0  0  0  0  0  0  0
   22.6435  -24.1028  -14.4156 C   0  0  0  0  0  0  0  0  0  0  0  0
   22.4324  -24.3892  -13.2202 O   0  0  0  0  0  0  0  0  0  0  0  0
   25.9950  -28.3080  -20.4621 C   0  0  0  0  0  0  0  0  0  0  0  0
   21.5709  -19.0134  -15.8632 C   0  0  1  0  0  0  0  0  0  0  0  0
   21.8314  -20.1941  -15.0040 C   0  0  0  0  0  0  0  0  0  0  0  0
   22.4520  -19.7471  -13.6924 C   0  0  0  0  0  0  0  0  0  0  0  0
   20.6133  -20.9845  -14.7293 C   0  0  2  0  0  0  0  0  0  0  0  0
   20.8042  -22.3670  -14.1896 N   0  0  0  0  0  0  0  0  0  0  0  0
   21.8202  -23.0824  -14.9773 C   0  0  0  0  0  0  0  0  0  0  0  0
   19.6141  -23.2129  -14.0993 O   0  0  0  0  0  0  0  0  0  0  0  0
   19.1517  -23.8327  -15.1229 N   0  0  0  0  0  0  0  0  0  0  0  0
   17.9442  -27.0124   -9.8571 C   0  0  0  0  0  0  0  0  0  0  0  0
   17.6597  -25.7078   -9.3778 O   0  0  0  0  0  0  0  0  0  0  0  0
   17.5074  -25.4773   -8.1525 C   0  0  0  0  0  0  0  0  0  0  0  0
   17.5527  -24.6323  -10.4074 C   0  0  0  0  0  0  0  0  0  0  0  0
   17.7351  -25.2805  -11.7618 C   0  0  1  0  0  0  0  0  0  0  0  0
   17.6631  -24.2502  -12.8806 N   0  0  0  0  0  0  0  0  0  0  0  0
   18.8627  -23.4407  -12.9083 C   0  0  0  0  0  0  0  0  0  0  0  0
   16.4175  -23.4667  -12.8165 O   0  0  0  0  0  0  0  0  0  0  0  0
   16.4327  -22.2567  -12.4081 O   0  0  0  0  0  0  0  0  0  0  0  0
  2  1  1  0
  2  3  2  0
  4  2  1  0
  5  4  1  0
  6  5  1  0
  7  6  1  0
  8 10  1  0
  8  7  1  0
  8  9  1  1
 10 11  2  0
 13 12  1  6
 14 13  1  0
 15 13  1  0
 16 15  1  1
 17 16  1  0
 17 10  1  0
 18 16  1  0
 18 19  2  0
 20 21  1  0
 21 23  1  0
 21 22  2  0
 23 24  1  0
 25 24  1  6
 25 26  1  0
 25 27  1  0
 26 18  1  0
 27 28  2  0
 27 29  1  0
M  END
$$$$
