RLQ.pdb
     RDKit          3D

 29 28  0  0  1  0  0  0  0  0999 V2000
   28.6809  -20.7850   -9.5626 N   0  0  0  0  0  0  0  0  0  0  0  0
   28.0231  -20.6961   -8.3118 C   0  0  0  0  0  0  0  0  0  0  0  0
   28.6074  -20.2396   -7.2544 N   0  0  0  0  0  0  0  0  0  0  0  0
   26.6665  -21.1169   -8.1807 N   0  0  0  0  0  0  0  0  0  0  0  0
   25.8282  -21.3669   -9.3357 C   0  0  0  0  0  0  0  0  0  0  0  0
   25.2481  -20.0067   -9.7637 C   0  0  0  0  0  0  0  0  0  0  0  0
   25.6687  -19.6689  -11.1596 C   0  0  0  0  0  0  0  0  0  0  0  0
   24.9489  -20.4679  -12.1858 C   0  0  2  0  0  0  0  0  0  0  0  0
   25.6288  -21.7573  -12.3526 N   0  0  0  0  0  0  0  0  0  0  0  0
   24.7683  -19.8026  -13.4950 C   0  0  0  0  0  0  0  0  0  0  0  0
   24.0972  -18.7574  -13.6074 O   0  0  0  0  0  0  0  0  0  0  0  0
   28.1510  -20.2297   -6.3229 C   0  0  0  0  0  0  0  0  0  0  0  0
   28.5799  -18.1249  -17.0550 C   0  0  1  0  0  0  0  0  0  0  0  0
   27.2049  -18.1471  -16.4990 C   0  0  0  0  0  0  0  0  0  0  0  0
   26.3558  -17.0939  -17.1884 C   0  0  0  0  0  0  0  0  0  0  0  0
   26.5543  -19.4675  -16.6284 C   0  0  2  0  0  0  0  0  0  0  0  0
   25.2113  -19.6322  -15.9894 N   0  0  0  0  0  0  0  0  0  0  0  0
   25.3473  -20.3154  -14.6935 C   0  0  0  0  0  0  0  0  0  0  0  0
   24.1875  -20.3273  -16.7694 O   0  0  0  0  0  0  0  0  0  0  0  0
   24.1992  -21.6026  -16.9074 N   0  0  0  0  0  0  0  0  0  0  0  0
   21.1632  -24.0754  -14.7314 C   0  0  0  0  0  0  0  0  0  0  0  0
   20.4977  -23.1995  -15.6273 O   0  0  0  0  0  0  0  0  0  0  0  0
   19.2543  -23.0289  -15.5764 C   0  0  0  0  0  0  0  0  0  0  0  0
   21.3553  -22.4973  -16.6271 C   0  0  0  0  0  0  0  0  0  0  0  0
   21.6036  -21.0980  -16.1093 C   0  0  2  0  0  0  0  0  0  0  0  0
   21.7212  -20.0995  -17.2528 N   0  0  0  0  0  0  0  0  0  0  0  0
   23.0980  -19.6924  -17.4366 C   0  0  0  0  0  0  0  0  0  0  0  0
   20.7847  -18.9746  -17.0884 O   0  0  0  0  0  0  0  0  0  0  0  0
   21.1217  -17.9431  -16.4149 O   0  0  0  0  0  0  0  0  0  0  0  0
  2  1  1  0
  2  3  2  0
  4  2  1  0
  5  4  1  0
  6  5  1  0
  7  6  1  0
  8 10  1  0
  8  7  1  0
  8  9  1  6
 10 11  2  0
 13 12  1  1
 14 13  1  0
 15 13  1  0
 16 15  1  1
 17 16  1  0
 17 10  1  0
 18 16  1  0
 18 19  2  0
 20 21  1  0
 21 23  1  0
 21 22  2  0
 23 24  1  0
 25 24  1  6
 25 26  1  0
 25 27  1  0
 26 18  1  0
 27 28  2  0
 27 29  1  0
M  END
$$$$
