QGP.pdb
     RDKit          3D

 21 21  0  0  1  0  0  0  0  0999 V2000
   25.5257  -24.0445  -14.4762 N   0  0  0  0  0  0  0  0  0  0  0  0
   24.4629  -23.1751  -14.1191 C   0  0  0  0  0  0  0  0  0  0  0  0
   23.4153  -23.2682  -14.7917 O   0  0  0  0  0  0  0  0  0  0  0  0
   24.6369  -22.2379  -13.0125 C   0  0  0  0  0  0  0  0  0  0  0  0
   25.9400  -22.2846  -12.3036 C   0  0  0  0  0  0  0  0  0  0  0  0
   26.3407  -21.0037  -11.6403 C   0  0  2  0  0  0  0  0  0  0  0  0
   25.2457  -20.4189  -10.8728 N   0  0  0  0  0  0  0  0  0  0  0  0
   26.8188  -19.9860  -12.5850 C   0  0  0  0  0  0  0  0  0  0  0  0
   27.7884  -20.2057  -13.3544 O   0  0  0  0  0  0  0  0  0  0  0  0
   26.2267  -18.6869  -12.6999 N   0  0  0  0  0  0  0  0  0  0  0  0
   26.5886  -17.7908  -13.7642 C   0  0  0  0  0  0  0  0  0  0  0  0
   25.9933  -18.1711  -15.0593 C   0  0  0  0  0  0  0  0  0  0  0  0
   24.9402  -18.8392  -15.1169 O   0  0  0  0  0  0  0  0  0  0  0  0
   26.6287  -17.7706  -16.2571 N   0  0  0  0  0  0  0  0  0  0  0  0
   27.9067  -17.0748  -16.3816 C   0  0  0  0  0  0  0  0  0  0  0  0
   27.9575  -16.5127  -17.7623 C   0  0  0  0  0  0  0  0  0  0  0  0
   26.5570  -16.7122  -18.2932 C   0  0  0  0  0  0  0  0  0  0  0  0
   26.1288  -17.9765  -17.5869 C   0  0  1  0  0  0  0  0  0  0  0  0
   26.7253  -19.1878  -18.1399 C   0  0  0  0  0  0  0  0  0  0  0  0
   27.6738  -19.7984  -17.5892 O   0  0  0  0  0  0  0  0  0  0  0  0
   26.2372  -19.7066  -19.3290 O   0  0  0  0  0  0  0  0  0  0  0  0
  1  2  1  0
  2  3  2  0
  2  4  1  0
  5  4  1  0
  6  5  1  0
  6  7  1  6
  8  6  1  0
  8 10  1  0
  9  8  2  0
 11 10  1  0
 11 12  1  0
 12 14  1  0
 13 12  2  0
 14 15  1  0
 14 18  1  0
 15 16  1  0
 16 17  1  0
 18 17  1  0
 18 19  1  6
 19 21  1  0
 20 19  2  0
M  END
$$$$
