QGP.pdb
     RDKit          3D

 21 21  0  0  1  0  0  0  0  0999 V2000
   13.3978  -17.1972  -16.5211 N   0  0  0  0  0  0  0  0  0  0  0  0
   14.6325  -16.5298  -16.7283 C   0  0  0  0  0  0  0  0  0  0  0  0
   15.2959  -16.8797  -17.7264 O   0  0  0  0  0  0  0  0  0  0  0  0
   15.0595  -15.4931  -15.7923 C   0  0  0  0  0  0  0  0  0  0  0  0
   16.4492  -14.9946  -15.9450 C   0  0  0  0  0  0  0  0  0  0  0  0
   16.5888  -13.5043  -15.9159 C   0  0  2  0  0  0  0  0  0  0  0  0
   16.1370  -12.8879  -17.1593 N   0  0  0  0  0  0  0  0  0  0  0  0
   17.9648  -13.0553  -15.6677 C   0  0  0  0  0  0  0  0  0  0  0  0
   18.5961  -13.4053  -14.6385 O   0  0  0  0  0  0  0  0  0  0  0  0
   18.6809  -12.1983  -16.5646 N   0  0  0  0  0  0  0  0  0  0  0  0
   20.0472  -11.8274  -16.3148 C   0  0  0  0  0  0  0  0  0  0  0  0
   20.1732  -10.7443  -15.3213 C   0  0  0  0  0  0  0  0  0  0  0  0
   19.1747  -10.2986  -14.7188 O   0  0  0  0  0  0  0  0  0  0  0  0
   21.4497  -10.2018  -15.0474 N   0  0  0  0  0  0  0  0  0  0  0  0
   22.7209  -10.6075  -15.6411 C   0  0  0  0  0  0  0  0  0  0  0  0
   23.7981  -10.0612  -14.7659 C   0  0  0  0  0  0  0  0  0  0  0  0
   23.0627   -9.5636  -13.5434 C   0  0  0  0  0  0  0  0  0  0  0  0
   21.7347   -9.1398  -14.1244 C   0  0  1  0  0  0  0  0  0  0  0  0
   21.7894   -7.8761  -14.8515 C   0  0  0  0  0  0  0  0  0  0  0  0
   21.8324   -6.7582  -14.2819 O   0  0  0  0  0  0  0  0  0  0  0  0
   21.7951   -7.8866  -16.2376 O   0  0  0  0  0  0  0  0  0  0  0  0
  1  2  1  0
  2  3  2  0
  2  4  1  0
  5  4  1  0
  6  5  1  0
  6  7  1  6
  8  6  1  0
  8 10  1  0
  9  8  2  0
 11 10  1  0
 11 12  1  0
 12 14  1  0
 13 12  2  0
 14 15  1  0
 14 18  1  0
 15 16  1  0
 16 17  1  0
 18 17  1  0
 18 19  1  6
 19 21  1  0
 20 19  2  0
M  END
$$$$
