QGP.pdb
     RDKit          3D

 21 21  0  0  1  0  0  0  0  0999 V2000
   27.4960  -35.6570  -15.7677 N   0  0  0  0  0  0  0  0  0  0  0  0
   27.7575  -34.5962  -16.6729 C   0  0  0  0  0  0  0  0  0  0  0  0
   27.6441  -34.8584  -17.8882 O   0  0  0  0  0  0  0  0  0  0  0  0
   28.1363  -33.2832  -16.1574 C   0  0  0  0  0  0  0  0  0  0  0  0
   28.2139  -33.1485  -14.6813 C   0  0  0  0  0  0  0  0  0  0  0  0
   26.8935  -32.9843  -13.9951 C   0  0  2  0  0  0  0  0  0  0  0  0
   26.3536  -31.6386  -14.1619 N   0  0  0  0  0  0  0  0  0  0  0  0
   26.9483  -33.2695  -12.5557 C   0  0  0  0  0  0  0  0  0  0  0  0
   27.0848  -34.4414  -12.1214 O   0  0  0  0  0  0  0  0  0  0  0  0
   26.8521  -32.2512  -11.5530 N   0  0  0  0  0  0  0  0  0  0  0  0
   26.9682  -32.5642  -10.1547 C   0  0  0  0  0  0  0  0  0  0  0  0
   25.7773  -33.2528   -9.6219 C   0  0  0  0  0  0  0  0  0  0  0  0
   24.8260  -33.5704  -10.3655 O   0  0  0  0  0  0  0  0  0  0  0  0
   25.7136  -33.5581   -8.2430 N   0  0  0  0  0  0  0  0  0  0  0  0
   26.6739  -33.1695   -7.2135 C   0  0  0  0  0  0  0  0  0  0  0  0
   26.4162  -34.0443   -6.0331 C   0  0  0  0  0  0  0  0  0  0  0  0
   25.4538  -35.0877   -6.5507 C   0  0  0  0  0  0  0  0  0  0  0  0
   24.6813  -34.3150   -7.5933 C   0  0  1  0  0  0  0  0  0  0  0  0
   23.6960  -33.3968   -7.0321 C   0  0  0  0  0  0  0  0  0  0  0  0
   23.8938  -32.1621   -6.9218 O   0  0  0  0  0  0  0  0  0  0  0  0
   22.4769  -33.8895   -6.5936 O   0  0  0  0  0  0  0  0  0  0  0  0
  1  2  1  0
  2  3  2  0
  2  4  1  0
  5  4  1  0
  6  5  1  0
  6  7  1  1
  8  6  1  0
  8 10  1  0
  9  8  2  0
 11 10  1  0
 11 12  1  0
 12 14  1  0
 13 12  2  0
 14 15  1  0
 14 18  1  0
 15 16  1  0
 16 17  1  0
 18 17  1  0
 18 19  1  1
 19 21  1  0
 20 19  2  0
M  END
$$$$
