QGP.pdb
     RDKit          3D

 21 21  0  0  1  0  0  0  0  0999 V2000
   20.5318  -18.6670  -16.9351 N   0  0  0  0  0  0  0  0  0  0  0  0
   20.9851  -19.6641  -16.0333 C   0  0  0  0  0  0  0  0  0  0  0  0
   20.1068  -20.3583  -15.4807 O   0  0  0  0  0  0  0  0  0  0  0  0
   22.4173  -19.8292  -15.7989 C   0  0  0  0  0  0  0  0  0  0  0  0
   23.3185  -18.8978  -16.5222 C   0  0  0  0  0  0  0  0  0  0  0  0
   24.7783  -19.1124  -16.2688 C   0  0  2  0  0  0  0  0  0  0  0  0
   25.1740  -20.4997  -16.4896 N   0  0  0  0  0  0  0  0  0  0  0  0
   25.1922  -18.7395  -14.9101 C   0  0  0  0  0  0  0  0  0  0  0  0
   24.9442  -17.6023  -14.4350 O   0  0  0  0  0  0  0  0  0  0  0  0
   25.8985  -19.6283  -14.0368 N   0  0  0  0  0  0  0  0  0  0  0  0
   26.0574  -19.3345  -12.6385 C   0  0  0  0  0  0  0  0  0  0  0  0
   25.5903  -20.4294  -11.7673 C   0  0  0  0  0  0  0  0  0  0  0  0
   25.1544  -21.4969  -12.2459 O   0  0  0  0  0  0  0  0  0  0  0  0
   25.6378  -20.2652  -10.3639 N   0  0  0  0  0  0  0  0  0  0  0  0
   26.1096  -19.0916   -9.6338 C   0  0  0  0  0  0  0  0  0  0  0  0
   26.3551  -19.5291   -8.2290 C   0  0  0  0  0  0  0  0  0  0  0  0
   26.2421  -21.0347   -8.2869 C   0  0  0  0  0  0  0  0  0  0  0  0
   25.2264  -21.2331   -9.3868 C   0  0  1  0  0  0  0  0  0  0  0  0
   23.8555  -20.9465   -8.9775 C   0  0  0  0  0  0  0  0  0  0  0  0
   23.1938  -21.6990   -8.2214 O   0  0  0  0  0  0  0  0  0  0  0  0
   23.2347  -19.7941   -9.4334 O   0  0  0  0  0  0  0  0  0  0  0  0
  1  2  1  0
  2  3  2  0
  2  4  1  0
  5  4  1  0
  6  5  1  0
  6  7  1  1
  8  6  1  0
  8 10  1  0
  9  8  2  0
 11 10  1  0
 11 12  1  0
 12 14  1  0
 13 12  2  0
 14 15  1  0
 14 18  1  0
 15 16  1  0
 16 17  1  0
 18 17  1  0
 18 19  1  1
 19 21  1  0
 20 19  2  0
M  END
$$$$
