QGP.pdb
     RDKit          3D

 21 21  0  0  1  0  0  0  0  0999 V2000
   24.5135  -20.5862   -8.7093 N   0  0  0  0  0  0  0  0  0  0  0  0
   25.7648  -20.1732   -9.2352 C   0  0  0  0  0  0  0  0  0  0  0  0
   26.4417  -19.4012   -8.5249 O   0  0  0  0  0  0  0  0  0  0  0  0
   26.1926  -20.6558  -10.5456 C   0  0  0  0  0  0  0  0  0  0  0  0
   25.2062  -21.4591  -11.3100 C   0  0  0  0  0  0  0  0  0  0  0  0
   25.6992  -21.9716  -12.6274 C   0  0  2  0  0  0  0  0  0  0  0  0
   27.1221  -21.7099  -12.8187 N   0  0  0  0  0  0  0  0  0  0  0  0
   24.9812  -21.4043  -13.7761 C   0  0  0  0  0  0  0  0  0  0  0  0
   23.7682  -21.6594  -13.9856 O   0  0  0  0  0  0  0  0  0  0  0  0
   25.5981  -20.5315  -14.7296 N   0  0  0  0  0  0  0  0  0  0  0  0
   24.8811  -20.0538  -15.8804 C   0  0  0  0  0  0  0  0  0  0  0  0
   23.7998  -19.1132  -15.5308 C   0  0  0  0  0  0  0  0  0  0  0  0
   23.5811  -18.7896  -14.3449 O   0  0  0  0  0  0  0  0  0  0  0  0
   22.9969  -18.5687  -16.5592 N   0  0  0  0  0  0  0  0  0  0  0  0
   23.0922  -18.8515  -17.9888 C   0  0  0  0  0  0  0  0  0  0  0  0
   22.3484  -17.7666  -18.6922 C   0  0  0  0  0  0  0  0  0  0  0  0
   22.0647  -16.7522  -17.6090 C   0  0  0  0  0  0  0  0  0  0  0  0
   21.9276  -17.6268  -16.3854 C   0  0  1  0  0  0  0  0  0  0  0  0
   20.6610  -18.3479  -16.3191 C   0  0  0  0  0  0  0  0  0  0  0  0
   19.6041  -17.8385  -15.8727 O   0  0  0  0  0  0  0  0  0  0  0  0
   20.5987  -19.6589  -16.7649 O   0  0  0  0  0  0  0  0  0  0  0  0
  1  2  1  0
  2  3  2  0
  2  4  1  0
  5  4  1  0
  6  5  1  0
  6  7  1  6
  8  6  1  0
  8 10  1  0
  9  8  2  0
 11 10  1  0
 11 12  1  0
 12 14  1  0
 13 12  2  0
 14 15  1  0
 14 18  1  0
 15 16  1  0
 16 17  1  0
 18 17  1  0
 18 19  1  6
 19 21  1  0
 20 19  2  0
M  END
$$$$
