QGP.pdb
     RDKit          3D

 21 21  0  0  1  0  0  0  0  0999 V2000
   17.3899  -19.9546    1.7697 N   0  0  0  0  0  0  0  0  0  0  0  0
   16.0561  -19.9007    2.2502 C   0  0  0  0  0  0  0  0  0  0  0  0
   15.3172  -20.8631    1.9559 O   0  0  0  0  0  0  0  0  0  0  0  0
   15.6200  -18.7555    3.0449 C   0  0  0  0  0  0  0  0  0  0  0  0
   16.6276  -17.6921    3.2826 C   0  0  0  0  0  0  0  0  0  0  0  0
   16.6110  -17.1076    4.6608 C   0  0  2  0  0  0  0  0  0  0  0  0
   15.2663  -16.7199    5.0747 N   0  0  0  0  0  0  0  0  0  0  0  0
   17.4796  -15.9320    4.8028 C   0  0  0  0  0  0  0  0  0  0  0  0
   18.7195  -16.0020    4.6074 O   0  0  0  0  0  0  0  0  0  0  0  0
   16.9886  -14.6373    5.1689 N   0  0  0  0  0  0  0  0  0  0  0  0
   17.8780  -13.5217    5.3451 C   0  0  0  0  0  0  0  0  0  0  0  0
   18.8029  -13.7013    6.4802 C   0  0  0  0  0  0  0  0  0  0  0  0
   18.8347  -14.7687    7.1271 O   0  0  0  0  0  0  0  0  0  0  0  0
   19.6689  -12.6437    6.8411 N   0  0  0  0  0  0  0  0  0  0  0  0
   19.7662  -11.3335    6.2034 C   0  0  0  0  0  0  0  0  0  0  0  0
   21.0603  -10.7362    6.6434 C   0  0  0  0  0  0  0  0  0  0  0  0
   21.7740  -11.8731    7.3370 C   0  0  0  0  0  0  0  0  0  0  0  0
   20.6233  -12.6634    7.9133 C   0  0  1  0  0  0  0  0  0  0  0  0
   20.0265  -12.0523    9.0961 C   0  0  0  0  0  0  0  0  0  0  0  0
   18.9868  -11.3501    9.0549 O   0  0  0  0  0  0  0  0  0  0  0  0
   20.6190  -12.2430   10.3346 O   0  0  0  0  0  0  0  0  0  0  0  0
  1  2  1  0
  2  3  2  0
  2  4  1  0
  5  4  1  0
  6  5  1  0
  6  7  1  6
  8  6  1  0
  8 10  1  0
  9  8  2  0
 11 10  1  0
 11 12  1  0
 12 14  1  0
 13 12  2  0
 14 15  1  0
 14 18  1  0
 15 16  1  0
 16 17  1  0
 18 17  1  0
 18 19  1  1
 19 21  1  0
 20 19  2  0
M  END
$$$$
