QGP.pdb
     RDKit          3D

 21 21  0  0  1  0  0  0  0  0999 V2000
   17.6227  -30.0679  -11.7677 N   0  0  0  0  0  0  0  0  0  0  0  0
   17.3468  -28.6769  -11.8124 C   0  0  0  0  0  0  0  0  0  0  0  0
   16.1430  -28.3460  -11.8145 O   0  0  0  0  0  0  0  0  0  0  0  0
   18.4514  -27.7221  -11.8523 C   0  0  0  0  0  0  0  0  0  0  0  0
   19.8208  -28.2904  -11.7848 C   0  0  0  0  0  0  0  0  0  0  0  0
   20.1652  -28.9469  -10.4842 C   0  0  2  0  0  0  0  0  0  0  0  0
   20.3163  -27.9767   -9.4045 N   0  0  0  0  0  0  0  0  0  0  0  0
   21.3967  -29.7445  -10.5451 C   0  0  0  0  0  0  0  0  0  0  0  0
   21.5315  -30.6859  -11.3673 O   0  0  0  0  0  0  0  0  0  0  0  0
   22.5199  -29.5146   -9.6865 N   0  0  0  0  0  0  0  0  0  0  0  0
   23.6942  -30.3413   -9.7525 C   0  0  0  0  0  0  0  0  0  0  0  0
   23.4406  -31.7302   -9.3251 C   0  0  0  0  0  0  0  0  0  0  0  0
   22.2784  -32.1750   -9.2246 O   0  0  0  0  0  0  0  0  0  0  0  0
   24.5356  -32.5723   -9.0238 N   0  0  0  0  0  0  0  0  0  0  0  0
   25.9338  -32.1754   -8.8809 C   0  0  0  0  0  0  0  0  0  0  0  0
   26.7467  -33.4223   -8.9769 C   0  0  0  0  0  0  0  0  0  0  0  0
   25.7590  -34.4722   -9.4298 C   0  0  0  0  0  0  0  0  0  0  0  0
   24.4739  -33.9890   -8.8005 C   0  0  1  0  0  0  0  0  0  0  0  0
   24.3913  -34.2440   -7.3663 C   0  0  0  0  0  0  0  0  0  0  0  0
   24.5677  -33.3529   -6.4999 O   0  0  0  0  0  0  0  0  0  0  0  0
   24.1057  -35.5236   -6.9166 O   0  0  0  0  0  0  0  0  0  0  0  0
  1  2  1  0
  2  3  2  0
  2  4  1  0
  5  4  1  0
  6  5  1  0
  6  7  1  1
  8  6  1  0
  8 10  1  0
  9  8  2  0
 11 10  1  0
 11 12  1  0
 12 14  1  0
 13 12  2  0
 14 15  1  0
 14 18  1  0
 15 16  1  0
 16 17  1  0
 18 17  1  0
 18 19  1  1
 19 21  1  0
 20 19  2  0
M  END
$$$$
