QGP.pdb
     RDKit          3D

 21 21  0  0  1  0  0  0  0  0999 V2000
   23.8625  -22.2576  -14.0093 N   0  0  0  0  0  0  0  0  0  0  0  0
   23.7001  -20.8510  -13.9188 C   0  0  0  0  0  0  0  0  0  0  0  0
   22.6442  -20.3794  -14.3893 O   0  0  0  0  0  0  0  0  0  0  0  0
   24.7448  -20.0415  -13.2971 C   0  0  0  0  0  0  0  0  0  0  0  0
   25.9972  -20.7469  -12.9273 C   0  0  0  0  0  0  0  0  0  0  0  0
   25.9620  -21.4345  -11.5979 C   0  0  2  0  0  0  0  0  0  0  0  0
   24.5982  -21.7291  -11.1701 N   0  0  0  0  0  0  0  0  0  0  0  0
   26.6100  -20.6639  -10.5289 C   0  0  0  0  0  0  0  0  0  0  0  0
   27.8332  -20.3769  -10.5727 O   0  0  0  0  0  0  0  0  0  0  0  0
   25.9095  -20.1883   -9.3736 N   0  0  0  0  0  0  0  0  0  0  0  0
   26.5877  -19.4671   -8.3312 C   0  0  0  0  0  0  0  0  0  0  0  0
   27.1673  -20.3547   -7.3054 C   0  0  0  0  0  0  0  0  0  0  0  0
   27.0278  -21.5938   -7.3674 O   0  0  0  0  0  0  0  0  0  0  0  0
   27.8944  -19.7899   -6.2325 N   0  0  0  0  0  0  0  0  0  0  0  0
   28.1922  -18.3755   -6.0234 C   0  0  0  0  0  0  0  0  0  0  0  0
   29.2990  -18.3122   -5.0254 C   0  0  0  0  0  0  0  0  0  0  0  0
   29.7591  -19.7453   -4.8939 C   0  0  0  0  0  0  0  0  0  0  0  0
   28.4806  -20.5111   -5.1384 C   0  0  1  0  0  0  0  0  0  0  0  0
   27.5607  -20.4930   -4.0061 C   0  0  0  0  0  0  0  0  0  0  0  0
   26.5278  -19.7804   -3.9727 O   0  0  0  0  0  0  0  0  0  0  0  0
   27.8200  -21.2929   -2.9042 O   0  0  0  0  0  0  0  0  0  0  0  0
  1  2  1  0
  2  3  2  0
  2  4  1  0
  5  4  1  0
  6  5  1  0
  6  7  1  1
  8  6  1  0
  8 10  1  0
  9  8  2  0
 11 10  1  0
 11 12  1  0
 12 14  1  0
 13 12  2  0
 14 15  1  0
 14 18  1  0
 15 16  1  0
 16 17  1  0
 18 17  1  0
 18 19  1  1
 19 21  1  0
 20 19  2  0
M  END
$$$$
