QGP.pdb
     RDKit          3D

 21 21  0  0  1  0  0  0  0  0999 V2000
   18.6028  -23.6395  -11.2305 N   0  0  0  0  0  0  0  0  0  0  0  0
   17.7911  -22.9624  -12.1768 C   0  0  0  0  0  0  0  0  0  0  0  0
   16.6900  -23.4864  -12.4446 O   0  0  0  0  0  0  0  0  0  0  0  0
   18.2659  -21.7186  -12.7775 C   0  0  0  0  0  0  0  0  0  0  0  0
   19.6077  -21.2478  -12.3523 C   0  0  0  0  0  0  0  0  0  0  0  0
   20.6485  -21.2615  -13.4283 C   0  0  2  0  0  0  0  0  0  0  0  0
   20.7599  -22.5698  -14.0652 N   0  0  0  0  0  0  0  0  0  0  0  0
   21.9835  -20.8816  -12.9489 C   0  0  0  0  0  0  0  0  0  0  0  0
   22.2328  -19.7159  -12.5498 O   0  0  0  0  0  0  0  0  0  0  0  0
   23.0855  -21.7953  -12.9002 N   0  0  0  0  0  0  0  0  0  0  0  0
   24.4248  -21.3398  -12.6444 C   0  0  0  0  0  0  0  0  0  0  0  0
   25.0174  -20.6312  -13.7946 C   0  0  0  0  0  0  0  0  0  0  0  0
   24.3020  -20.1524  -14.6989 O   0  0  0  0  0  0  0  0  0  0  0  0
   26.4222  -20.4926  -13.8729 N   0  0  0  0  0  0  0  0  0  0  0  0
   27.4072  -20.9914  -12.9170 C   0  0  0  0  0  0  0  0  0  0  0  0
   28.6807  -20.2656  -13.1937 C   0  0  0  0  0  0  0  0  0  0  0  0
   28.2816  -19.1775  -14.1630 C   0  0  0  0  0  0  0  0  0  0  0  0
   27.1473  -19.8282  -14.9186 C   0  0  1  0  0  0  0  0  0  0  0  0
   27.5862  -20.8161  -15.8985 C   0  0  0  0  0  0  0  0  0  0  0  0
   27.5776  -22.0518  -15.6779 O   0  0  0  0  0  0  0  0  0  0  0  0
   28.0381  -20.3924  -17.1384 O   0  0  0  0  0  0  0  0  0  0  0  0
  1  2  1  0
  2  3  2  0
  2  4  1  0
  5  4  1  0
  6  5  1  0
  6  7  1  1
  8  6  1  0
  8 10  1  0
  9  8  2  0
 11 10  1  0
 11 12  1  0
 12 14  1  0
 13 12  2  0
 14 15  1  0
 14 18  1  0
 15 16  1  0
 16 17  1  0
 18 17  1  0
 18 19  1  6
 19 21  1  0
 20 19  2  0
M  END
$$$$
