QGP.pdb
     RDKit          3D

 21 21  0  0  1  0  0  0  0  0999 V2000
   25.2965  -21.0827   -8.0077 N   0  0  0  0  0  0  0  0  0  0  0  0
   25.7072  -19.8072   -8.4738 C   0  0  0  0  0  0  0  0  0  0  0  0
   26.1131  -19.0014   -7.6109 O   0  0  0  0  0  0  0  0  0  0  0  0
   25.6393  -19.5029   -9.9006 C   0  0  0  0  0  0  0  0  0  0  0  0
   25.0960  -20.5682  -10.7798 C   0  0  0  0  0  0  0  0  0  0  0  0
   26.1277  -21.4602  -11.3972 C   0  0  2  0  0  0  0  0  0  0  0  0
   27.3519  -21.5116  -10.6043 N   0  0  0  0  0  0  0  0  0  0  0  0
   26.4950  -21.0639  -12.7627 C   0  0  0  0  0  0  0  0  0  0  0  0
   25.7754  -21.3596  -13.7502 O   0  0  0  0  0  0  0  0  0  0  0  0
   27.6816  -20.3224  -13.0687 N   0  0  0  0  0  0  0  0  0  0  0  0
   27.9822  -19.9123  -14.4134 C   0  0  0  0  0  0  0  0  0  0  0  0
   26.9204  -19.0784  -15.0079 C   0  0  0  0  0  0  0  0  0  0  0  0
   25.8193  -18.9289  -14.4388 O   0  0  0  0  0  0  0  0  0  0  0  0
   27.1559  -18.4369  -16.2456 N   0  0  0  0  0  0  0  0  0  0  0  0
   28.3483  -18.5534  -17.0808 C   0  0  0  0  0  0  0  0  0  0  0  0
   28.3152  -17.4108  -18.0391 C   0  0  0  0  0  0  0  0  0  0  0  0
   27.1982  -16.5319  -17.5264 C   0  0  0  0  0  0  0  0  0  0  0  0
   26.2558  -17.5426  -16.9170 C   0  0  1  0  0  0  0  0  0  0  0  0
   25.4830  -18.2919  -17.9018 C   0  0  0  0  0  0  0  0  0  0  0  0
   24.3710  -17.9066  -18.3387 O   0  0  0  0  0  0  0  0  0  0  0  0
   25.9812  -19.4889  -18.3921 O   0  0  0  0  0  0  0  0  0  0  0  0
  1  2  1  0
  2  3  2  0
  2  4  1  0
  5  4  1  0
  6  5  1  0
  6  7  1  1
  8  6  1  0
  8 10  1  0
  9  8  2  0
 11 10  1  0
 11 12  1  0
 12 14  1  0
 13 12  2  0
 14 15  1  0
 14 18  1  0
 15 16  1  0
 16 17  1  0
 18 17  1  0
 18 19  1  6
 19 21  1  0
 20 19  2  0
M  END
$$$$
