QGP.pdb
     RDKit          3D

 21 21  0  0  1  0  0  0  0  0999 V2000
   25.8766  -21.3421  -10.2553 N   0  0  0  0  0  0  0  0  0  0  0  0
   24.8326  -21.0901  -11.1823 C   0  0  0  0  0  0  0  0  0  0  0  0
   23.6989  -20.8806  -10.7034 O   0  0  0  0  0  0  0  0  0  0  0  0
   25.1226  -21.0865  -12.6138 C   0  0  0  0  0  0  0  0  0  0  0  0
   26.5051  -21.4532  -13.0104 C   0  0  0  0  0  0  0  0  0  0  0  0
   27.5340  -20.3970  -12.7514 C   0  0  2  0  0  0  0  0  0  0  0  0
   27.4750  -19.8999  -11.3805 N   0  0  0  0  0  0  0  0  0  0  0  0
   27.4196  -19.2424  -13.6516 C   0  0  0  0  0  0  0  0  0  0  0  0
   27.6210  -19.3490  -14.8879 O   0  0  0  0  0  0  0  0  0  0  0  0
   27.0755  -17.9284  -13.1973 N   0  0  0  0  0  0  0  0  0  0  0  0
   26.9221  -16.8345  -14.1174 C   0  0  0  0  0  0  0  0  0  0  0  0
   25.7209  -16.9636  -14.9641 C   0  0  0  0  0  0  0  0  0  0  0  0
   24.9168  -17.9058  -14.8083 O   0  0  0  0  0  0  0  0  0  0  0  0
   25.4773  -16.0011  -15.9707 N   0  0  0  0  0  0  0  0  0  0  0  0
   26.3524  -14.8985  -16.3599 C   0  0  0  0  0  0  0  0  0  0  0  0
   25.5166  -13.9417  -17.1415 C   0  0  0  0  0  0  0  0  0  0  0  0
   24.1039  -14.4403  -16.9446 C   0  0  0  0  0  0  0  0  0  0  0  0
   24.3114  -15.9297  -16.8051 C   0  0  1  0  0  0  0  0  0  0  0  0
   24.5860  -16.6044  -18.0693 C   0  0  0  0  0  0  0  0  0  0  0  0
   25.7448  -16.8964  -18.4535 O   0  0  0  0  0  0  0  0  0  0  0  0
   23.5322  -16.9486  -18.9014 O   0  0  0  0  0  0  0  0  0  0  0  0
  1  2  1  0
  2  3  2  0
  2  4  1  0
  5  4  1  0
  6  5  1  0
  6  7  1  1
  8  6  1  0
  8 10  1  0
  9  8  2  0
 11 10  1  0
 11 12  1  0
 12 14  1  0
 13 12  2  0
 14 15  1  0
 14 18  1  0
 15 16  1  0
 16 17  1  0
 18 17  1  0
 18 19  1  6
 19 21  1  0
 20 19  2  0
M  END
$$$$
