QGP.pdb
     RDKit          3D

 21 21  0  0  1  0  0  0  0  0999 V2000
   16.2158   -8.2458  -20.6242 N   0  0  0  0  0  0  0  0  0  0  0  0
   17.4480   -8.8350  -21.0084 C   0  0  0  0  0  0  0  0  0  0  0  0
   17.7855   -8.6954  -22.2023 O   0  0  0  0  0  0  0  0  0  0  0  0
   18.2434   -9.5569  -20.0188 C   0  0  0  0  0  0  0  0  0  0  0  0
   19.3338  -10.4158  -20.5443 C   0  0  0  0  0  0  0  0  0  0  0  0
   20.2229  -11.0127  -19.4982 C   0  0  2  0  0  0  0  0  0  0  0  0
   19.4650  -11.7445  -18.4883 N   0  0  0  0  0  0  0  0  0  0  0  0
   21.0503  -10.0180  -18.8036 C   0  0  0  0  0  0  0  0  0  0  0  0
   21.9311   -9.3560  -19.4089 O   0  0  0  0  0  0  0  0  0  0  0  0
   20.9191   -9.7308  -17.4065 N   0  0  0  0  0  0  0  0  0  0  0  0
   21.6936   -8.6947  -16.7794 C   0  0  0  0  0  0  0  0  0  0  0  0
   20.8687   -7.5589  -16.3261 C   0  0  0  0  0  0  0  0  0  0  0  0
   19.6260   -7.5724  -16.4460 O   0  0  0  0  0  0  0  0  0  0  0  0
   21.4988   -6.4346  -15.7450 N   0  0  0  0  0  0  0  0  0  0  0  0
   22.9347   -6.1863  -15.6487 C   0  0  0  0  0  0  0  0  0  0  0  0
   23.1189   -5.1206  -14.6215 C   0  0  0  0  0  0  0  0  0  0  0  0
   21.7553   -4.9820  -13.9856 C   0  0  0  0  0  0  0  0  0  0  0  0
   20.8353   -5.3170  -15.1355 C   0  0  1  0  0  0  0  0  0  0  0  0
   20.7074   -4.2439  -16.1158 C   0  0  0  0  0  0  0  0  0  0  0  0
   21.3689   -4.2064  -17.1820 O   0  0  0  0  0  0  0  0  0  0  0  0
   19.8193   -3.2064  -15.8790 O   0  0  0  0  0  0  0  0  0  0  0  0
  1  2  1  0
  2  3  2  0
  2  4  1  0
  5  4  1  0
  6  5  1  0
  6  7  1  1
  8  6  1  0
  8 10  1  0
  9  8  2  0
 11 10  1  0
 11 12  1  0
 12 14  1  0
 13 12  2  0
 14 15  1  0
 14 18  1  0
 15 16  1  0
 16 17  1  0
 18 17  1  0
 18 19  1  6
 19 21  1  0
 20 19  2  0
M  END
$$$$
