QGP.pdb
     RDKit          3D

 21 21  0  0  1  0  0  0  0  0999 V2000
   19.7987  -14.8393  -17.9332 N   0  0  0  0  0  0  0  0  0  0  0  0
   18.6133  -15.2605  -17.2773 C   0  0  0  0  0  0  0  0  0  0  0  0
   18.4791  -16.4891  -17.1007 O   0  0  0  0  0  0  0  0  0  0  0  0
   17.6318  -14.2668  -16.8502 C   0  0  0  0  0  0  0  0  0  0  0  0
   17.9738  -12.8454  -17.1061 C   0  0  0  0  0  0  0  0  0  0  0  0
   18.3339  -12.0564  -15.8858 C   0  0  2  0  0  0  0  0  0  0  0  0
   17.2253  -11.9748  -14.9401 N   0  0  0  0  0  0  0  0  0  0  0  0
   18.7665  -10.6859  -16.1879 C   0  0  0  0  0  0  0  0  0  0  0  0
   17.9696   -9.7155  -16.1273 O   0  0  0  0  0  0  0  0  0  0  0  0
   20.1073  -10.3557  -16.5685 N   0  0  0  0  0  0  0  0  0  0  0  0
   20.4958   -8.9983  -16.8390 C   0  0  0  0  0  0  0  0  0  0  0  0
   21.2247   -8.3776  -15.7167 C   0  0  0  0  0  0  0  0  0  0  0  0
   21.3719   -8.9751  -14.6304 O   0  0  0  0  0  0  0  0  0  0  0  0
   21.7663   -7.0814  -15.8759 N   0  0  0  0  0  0  0  0  0  0  0  0
   21.6333   -6.2126  -17.0423 C   0  0  0  0  0  0  0  0  0  0  0  0
   22.6854   -5.1625  -16.9183 C   0  0  0  0  0  0  0  0  0  0  0  0
   23.5524   -5.6422  -15.7777 C   0  0  0  0  0  0  0  0  0  0  0  0
   22.5559   -6.3724  -14.9091 C   0  0  1  0  0  0  0  0  0  0  0  0
   21.6883   -5.4863  -14.1403 C   0  0  0  0  0  0  0  0  0  0  0  0
   20.5777   -5.0795  -14.5605 O   0  0  0  0  0  0  0  0  0  0  0  0
   22.0898   -5.0611  -12.8836 O   0  0  0  0  0  0  0  0  0  0  0  0
  1  2  1  0
  2  3  2  0
  2  4  1  0
  5  4  1  0
  6  5  1  0
  6  7  1  1
  8  6  1  0
  8 10  1  0
  9  8  2  0
 11 10  1  0
 11 12  1  0
 12 14  1  0
 13 12  2  0
 14 15  1  0
 14 18  1  0
 15 16  1  0
 16 17  1  0
 18 17  1  0
 18 19  1  6
 19 21  1  0
 20 19  2  0
M  END
$$$$
