RWV.pdb
     RDKit          3D

 33 34  0  0  1  0  0  0  0  0999 V2000
   26.7963  -26.2098  -15.9384 N   0  0  0  0  0  0  0  0  0  0  0  0
   27.5988  -26.6487  -17.0512 C   0  0  0  0  0  0  0  0  0  0  0  0
   28.1675  -27.7999  -17.0372 N   0  0  0  0  0  0  0  0  0  0  0  0
   27.7605  -25.7959  -18.1737 N   0  0  0  0  0  0  0  0  0  0  0  0
   27.2059  -24.4523  -18.1181 C   0  0  0  0  0  0  0  0  0  0  0  0
   28.1803  -23.5970  -17.3401 C   0  0  0  0  0  0  0  0  0  0  0  0
   27.7723  -22.1680  -17.2180 C   0  0  0  0  0  0  0  0  0  0  0  0
   26.3315  -21.9615  -17.6251 C   0  0  2  0  0  0  0  0  0  0  0  0
   26.3291  -21.2934  -18.9112 N   0  0  0  0  0  0  0  0  0  0  0  0
   25.5966  -21.1344  -16.6260 C   0  0  0  0  0  0  0  0  0  0  0  0
   25.9604  -19.9439  -16.3652 O   0  0  0  0  0  0  0  0  0  0  0  0
   28.7637  -28.1645  -17.8043 N   0  0  0  0  0  0  0  0  0  0  0  0
   24.4882  -21.6514  -15.9519 C   0  0  2  0  0  0  0  0  0  0  0  0
   23.7095  -20.9513  -14.9549 C   0  0  0  0  0  0  0  0  0  0  0  0
   22.2646  -20.9744  -15.3990 C   0  0  0  0  0  0  0  0  0  0  0  0
   21.9898  -20.0304  -16.4837 C   0  0  0  0  0  0  0  0  0  0  0  0
   21.8638  -20.2889  -17.8273 N   0  0  0  0  0  0  0  0  0  0  0  0
   21.6087  -19.1174  -18.4742 C   0  0  0  0  0  0  0  0  0  0  0  0
   21.5647  -18.0996  -17.5844 C   0  0  0  0  0  0  0  0  0  0  0  0
   21.3494  -16.7409  -17.6754 C   0  0  0  0  0  0  0  0  0  0  0  0
   21.3716  -15.9644  -16.5410 C   0  0  0  0  0  0  0  0  0  0  0  0
   21.6066  -16.5269  -15.3135 C   0  0  0  0  0  0  0  0  0  0  0  0
   21.8236  -17.8839  -15.2096 C   0  0  0  0  0  0  0  0  0  0  0  0
   21.8051  -18.6756  -16.3307 C   0  0  0  0  0  0  0  0  0  0  0  0
   23.8674  -21.5421  -13.6068 O   0  0  0  0  0  0  0  0  0  0  0  0
   23.6660  -22.7707  -13.4449 C   0  0  0  0  0  0  0  0  0  0  0  0
   26.7612  -21.1044  -11.0870 C   0  0  2  0  0  0  0  0  0  0  0  0
   25.4714  -20.8096  -10.3911 C   0  0  0  0  0  0  0  0  0  0  0  0
   25.4183  -19.3520  -10.0317 C   0  0  2  0  0  0  0  0  0  0  0  0
   24.2491  -21.2569  -11.1351 N   0  0  0  0  0  0  0  0  0  0  0  0
   24.2367  -20.7623  -12.5030 C   0  0  0  0  0  0  0  0  0  0  0  0
   22.9782  -20.9592  -10.4555 O   0  0  0  0  0  0  0  0  0  0  0  0
   22.5532  -21.6984   -9.3769 O   0  0  0  0  0  0  0  0  0  0  0  0
  2  1  1  0
  2  4  1  0
  3  2  2  0
  5  4  1  0
  6  5  1  0
  7  6  1  0
  8  7  1  0
  8  9  1  6
 10  8  1  0
 10 12  1  0
 11 10  2  0
 13 12  1  0
 13 14  1  6
 15 14  1  0
 15 16  2  0
 17 16  1  0
 18 23  2  0
 18 17  1  0
 19 18  1  0
 20 19  2  0
 21 20  1  0
 21 22  2  0
 22 23  1  0
 23 15  1  0
 24 13  1  0
 25 24  2  0
 27 26  1  1
 27 28  1  0
 29 30  1  1
 29 27  1  0
 30 24  1  0
 31 29  1  0
 32 31  1  0
 33 31  2  0
M  END
$$$$
