RWV.pdb
     RDKit          3D

 33 34  0  0  1  0  0  0  0  0999 V2000
   28.4936  -22.5617  -18.6773 N   0  0  0  0  0  0  0  0  0  0  0  0
   28.2369  -21.3422  -19.3997 C   0  0  0  0  0  0  0  0  0  0  0  0
   27.8105  -21.3735  -20.6105 N   0  0  0  0  0  0  0  0  0  0  0  0
   28.4595  -20.0941  -18.7625 N   0  0  0  0  0  0  0  0  0  0  0  0
   28.8529  -20.0830  -17.3621 C   0  0  0  0  0  0  0  0  0  0  0  0
   27.5847  -20.0296  -16.5406 C   0  0  0  0  0  0  0  0  0  0  0  0
   27.8138  -19.8340  -15.0802 C   0  0  0  0  0  0  0  0  0  0  0  0
   28.1705  -21.1313  -14.3919 C   0  0  2  0  0  0  0  0  0  0  0  0
   28.0239  -22.1986  -15.3613 N   0  0  0  0  0  0  0  0  0  0  0  0
   27.2840  -21.3883  -13.2212 C   0  0  0  0  0  0  0  0  0  0  0  0
   26.1587  -21.9635  -13.3645 O   0  0  0  0  0  0  0  0  0  0  0  0
   27.7285  -20.5385  -21.2211 N   0  0  0  0  0  0  0  0  0  0  0  0
   27.6717  -21.0012  -11.9367 C   0  0  2  0  0  0  0  0  0  0  0  0
   26.8354  -21.0439  -10.7580 C   0  0  0  0  0  0  0  0  0  0  0  0
   27.6198  -20.4421   -9.6143 C   0  0  0  0  0  0  0  0  0  0  0  0
   26.9118  -20.5254   -8.3356 C   0  0  0  0  0  0  0  0  0  0  0  0
   25.6162  -20.9193   -8.1026 N   0  0  0  0  0  0  0  0  0  0  0  0
   25.3725  -20.8450   -6.7644 C   0  0  0  0  0  0  0  0  0  0  0  0
   26.4788  -20.4120   -6.1176 C   0  0  0  0  0  0  0  0  0  0  0  0
   26.7945  -20.1586   -4.7998 C   0  0  0  0  0  0  0  0  0  0  0  0
   28.0521  -19.7126   -4.4682 C   0  0  0  0  0  0  0  0  0  0  0  0
   29.0016  -19.5154   -5.4367 C   0  0  0  0  0  0  0  0  0  0  0  0
   28.6979  -19.7649   -6.7577 C   0  0  0  0  0  0  0  0  0  0  0  0
   27.4480  -20.2107   -7.1082 C   0  0  0  0  0  0  0  0  0  0  0  0
   25.5502  -20.3376  -10.9592 O   0  0  0  0  0  0  0  0  0  0  0  0
   25.5416  -19.0848  -11.0412 C   0  0  0  0  0  0  0  0  0  0  0  0
   21.2884  -20.1255  -13.1310 C   0  0  2  0  0  0  0  0  0  0  0  0
   22.6192  -20.7025  -12.7693 C   0  0  0  0  0  0  0  0  0  0  0  0
   23.6373  -20.2946  -13.7958 C   0  0  1  0  0  0  0  0  0  0  0  0
   23.0676  -20.3985  -11.3714 N   0  0  0  0  0  0  0  0  0  0  0  0
   24.3386  -21.0340  -11.0604 C   0  0  0  0  0  0  0  0  0  0  0  0
   22.0659  -20.6874  -10.3328 O   0  0  0  0  0  0  0  0  0  0  0  0
   22.2141  -21.7484   -9.4710 O   0  0  0  0  0  0  0  0  0  0  0  0
  2  1  1  0
  2  4  1  0
  3  2  2  0
  5  4  1  0
  6  5  1  0
  7  6  1  0
  8  7  1  0
  8  9  1  6
 10  8  1  0
 10 12  1  0
 11 10  2  0
 13 12  1  0
 13 14  1  1
 15 14  1  0
 15 16  2  0
 17 16  1  0
 18 23  2  0
 18 17  1  0
 19 18  1  0
 20 19  2  0
 21 20  1  0
 21 22  2  0
 22 23  1  0
 23 15  1  0
 24 13  1  0
 25 24  2  0
 27 26  1  6
 27 28  1  0
 29 30  1  6
 29 27  1  0
 30 24  1  0
 31 29  1  0
 32 31  1  0
 33 31  2  0
M  END
$$$$
