RWV.pdb
     RDKit          3D

 33 34  0  0  1  0  0  0  0  0999 V2000
   24.0082  -19.8505  -18.5103 N   0  0  0  0  0  0  0  0  0  0  0  0
   24.8121  -18.6576  -18.5862 C   0  0  0  0  0  0  0  0  0  0  0  0
   24.5713  -17.7586  -19.4708 N   0  0  0  0  0  0  0  0  0  0  0  0
   25.8817  -18.4780  -17.6712 N   0  0  0  0  0  0  0  0  0  0  0  0
   26.0957  -19.4799  -16.6386 C   0  0  0  0  0  0  0  0  0  0  0  0
   26.8379  -20.6315  -17.2783 C   0  0  0  0  0  0  0  0  0  0  0  0
   27.0119  -21.8135  -16.3862 C   0  0  0  0  0  0  0  0  0  0  0  0
   27.6924  -21.4396  -15.0896 C   0  0  2  0  0  0  0  0  0  0  0  0
   28.9134  -22.2143  -14.9940 N   0  0  0  0  0  0  0  0  0  0  0  0
   26.8204  -21.7260  -13.9148 C   0  0  0  0  0  0  0  0  0  0  0  0
   26.4233  -22.9083  -13.6654 O   0  0  0  0  0  0  0  0  0  0  0  0
   25.0788  -16.8559  -19.5373 N   0  0  0  0  0  0  0  0  0  0  0  0
   26.4190  -20.6978  -13.0593 C   0  0  2  0  0  0  0  0  0  0  0  0
   25.5235  -20.8429  -11.9335 C   0  0  0  0  0  0  0  0  0  0  0  0
   26.0264  -19.9454  -10.8258 C   0  0  0  0  0  0  0  0  0  0  0  0
   27.2291  -20.4680  -10.1748 C   0  0  0  0  0  0  0  0  0  0  0  0
   28.2480  -21.2036  -10.7305 N   0  0  0  0  0  0  0  0  0  0  0  0
   29.1657  -21.4776   -9.7617 C   0  0  0  0  0  0  0  0  0  0  0  0
   28.7703  -20.9378   -8.5861 C   0  0  0  0  0  0  0  0  0  0  0  0
   29.2932  -20.9024   -7.3110 C   0  0  0  0  0  0  0  0  0  0  0  0
   28.6173  -20.2466   -6.3093 C   0  0  0  0  0  0  0  0  0  0  0  0
   27.4231  -19.6239   -6.5636 C   0  0  0  0  0  0  0  0  0  0  0  0
   26.8899  -19.6526   -7.8342 C   0  0  0  0  0  0  0  0  0  0  0  0
   27.5501  -20.3022   -8.8472 C   0  0  0  0  0  0  0  0  0  0  0  0
   24.1224  -20.5243  -12.2896 O   0  0  0  0  0  0  0  0  0  0  0  0
   23.8000  -19.3324  -12.5170 C   0  0  0  0  0  0  0  0  0  0  0  0
   19.8300  -22.1240  -14.1342 C   0  0  2  0  0  0  0  0  0  0  0  0
   21.2378  -22.3383  -13.6794 C   0  0  0  0  0  0  0  0  0  0  0  0
   22.1212  -22.5612  -14.8737 C   0  0  1  0  0  0  0  0  0  0  0  0
   21.7664  -21.2675  -12.7729 N   0  0  0  0  0  0  0  0  0  0  0  0
   23.1433  -21.5225  -12.3792 C   0  0  0  0  0  0  0  0  0  0  0  0
   20.9246  -20.9925  -11.5977 O   0  0  0  0  0  0  0  0  0  0  0  0
   19.9307  -20.0431  -11.6357 O   0  0  0  0  0  0  0  0  0  0  0  0
  2  1  1  0
  2  4  1  0
  3  2  2  0
  5  4  1  0
  6  5  1  0
  7  6  1  0
  8  7  1  0
  8  9  1  1
 10  8  1  0
 10 12  1  0
 11 10  2  0
 13 12  1  0
 13 14  1  6
 15 14  1  0
 15 16  2  0
 17 16  1  0
 18 23  2  0
 18 17  1  0
 19 18  1  0
 20 19  2  0
 21 20  1  0
 21 22  2  0
 22 23  1  0
 23 15  1  0
 24 13  1  0
 25 24  2  0
 27 26  1  1
 27 28  1  0
 29 30  1  1
 29 27  1  0
 30 24  1  0
 31 29  1  0
 32 31  1  0
 33 31  2  0
M  END
$$$$
