RWV.pdb
     RDKit          3D

 33 34  0  0  1  0  0  0  0  0999 V2000
   29.3701  -17.6986  -19.4830 N   0  0  0  0  0  0  0  0  0  0  0  0
   28.6589  -16.9109  -18.5090 C   0  0  0  0  0  0  0  0  0  0  0  0
   28.1441  -15.7789  -18.8290 N   0  0  0  0  0  0  0  0  0  0  0  0
   28.5283  -17.3949  -17.1815 N   0  0  0  0  0  0  0  0  0  0  0  0
   29.2178  -18.6213  -16.8122 C   0  0  0  0  0  0  0  0  0  0  0  0
   28.3478  -19.7757  -17.2554 C   0  0  0  0  0  0  0  0  0  0  0  0
   27.4229  -20.2803  -16.2004 C   0  0  0  0  0  0  0  0  0  0  0  0
   28.0951  -21.2985  -15.3084 C   0  0  2  0  0  0  0  0  0  0  0  0
   28.2835  -22.5075  -16.0849 N   0  0  0  0  0  0  0  0  0  0  0  0
   27.2691  -21.5967  -14.1037 C   0  0  0  0  0  0  0  0  0  0  0  0
   26.2480  -22.3514  -14.1790 O   0  0  0  0  0  0  0  0  0  0  0  0
   27.6680  -15.1452  -18.1593 N   0  0  0  0  0  0  0  0  0  0  0  0
   27.6000  -21.0513  -12.8615 C   0  0  2  0  0  0  0  0  0  0  0  0
   26.7883  -21.1275  -11.6673 C   0  0  0  0  0  0  0  0  0  0  0  0
   27.6035  -20.5755  -10.5200 C   0  0  0  0  0  0  0  0  0  0  0  0
   26.8481  -20.5106   -9.2676 C   0  0  0  0  0  0  0  0  0  0  0  0
   25.5098  -20.7482   -9.0660 N   0  0  0  0  0  0  0  0  0  0  0  0
   25.2310  -20.5739   -7.7439 C   0  0  0  0  0  0  0  0  0  0  0  0
   26.3560  -20.2285   -7.0771 C   0  0  0  0  0  0  0  0  0  0  0  0
   26.6534  -19.9383   -5.7626 C   0  0  0  0  0  0  0  0  0  0  0  0
   27.9408  -19.6138   -5.4050 C   0  0  0  0  0  0  0  0  0  0  0  0
   28.9381  -19.5747   -6.3442 C   0  0  0  0  0  0  0  0  0  0  0  0
   28.6533  -19.8624   -7.6616 C   0  0  0  0  0  0  0  0  0  0  0  0
   27.3742  -20.1887   -8.0378 C   0  0  0  0  0  0  0  0  0  0  0  0
   25.5072  -20.4007  -11.8155 O   0  0  0  0  0  0  0  0  0  0  0  0
   25.5187  -19.1526  -11.9504 C   0  0  0  0  0  0  0  0  0  0  0  0
   21.2053  -20.3030  -13.9026 C   0  0  2  0  0  0  0  0  0  0  0  0
   22.5295  -20.8742  -13.5089 C   0  0  0  0  0  0  0  0  0  0  0  0
   23.5355  -20.5970  -14.5895 C   0  0  1  0  0  0  0  0  0  0  0  0
   23.0136  -20.4432  -12.1571 N   0  0  0  0  0  0  0  0  0  0  0  0
   24.2778  -21.0727  -11.8086 C   0  0  0  0  0  0  0  0  0  0  0  0
   22.0285  -20.6053  -11.0759 O   0  0  0  0  0  0  0  0  0  0  0  0
   21.2072  -19.5705  -10.6950 O   0  0  0  0  0  0  0  0  0  0  0  0
  2  1  1  0
  2  4  1  0
  3  2  2  0
  5  4  1  0
  6  5  1  0
  7  6  1  0
  8  7  1  0
  8  9  1  6
 10  8  1  0
 10 12  1  0
 11 10  2  0
 13 12  1  0
 13 14  1  1
 15 14  1  0
 15 16  2  0
 17 16  1  0
 18 23  2  0
 18 17  1  0
 19 18  1  0
 20 19  2  0
 21 20  1  0
 21 22  2  0
 22 23  1  0
 23 15  1  0
 24 13  1  0
 25 24  2  0
 27 26  1  6
 27 28  1  0
 29 30  1  6
 29 27  1  0
 30 24  1  0
 31 29  1  0
 32 31  1  0
 33 31  2  0
M  END
$$$$
