RWV.pdb
     RDKit          3D

 33 34  0  0  1  0  0  0  0  0999 V2000
   27.9896  -20.2005  -19.5530 N   0  0  0  0  0  0  0  0  0  0  0  0
   28.6995  -21.3143  -20.1280 C   0  0  0  0  0  0  0  0  0  0  0  0
   29.3487  -21.1821  -21.2280 N   0  0  0  0  0  0  0  0  0  0  0  0
   28.6783  -22.5704  -19.4683 N   0  0  0  0  0  0  0  0  0  0  0  0
   27.8745  -22.7158  -18.2646 C   0  0  0  0  0  0  0  0  0  0  0  0
   28.8101  -22.5925  -17.0833 C   0  0  0  0  0  0  0  0  0  0  0  0
   28.1341  -22.6990  -15.7584 C   0  0  0  0  0  0  0  0  0  0  0  0
   26.9429  -21.7738  -15.6630 C   0  0  2  0  0  0  0  0  0  0  0  0
   27.4239  -20.4177  -15.8365 N   0  0  0  0  0  0  0  0  0  0  0  0
   26.2588  -21.9012  -14.3446 C   0  0  0  0  0  0  0  0  0  0  0  0
   25.8286  -23.0258  -13.9349 O   0  0  0  0  0  0  0  0  0  0  0  0
   29.8172  -21.9630  -21.7254 N   0  0  0  0  0  0  0  0  0  0  0  0
   26.0747  -20.7836  -13.5277 C   0  0  1  0  0  0  0  0  0  0  0  0
   25.3550  -20.7690  -12.2737 C   0  0  0  0  0  0  0  0  0  0  0  0
   26.0335  -19.7697  -11.3646 C   0  0  0  0  0  0  0  0  0  0  0  0
   27.1596  -20.3467  -10.6282 C   0  0  0  0  0  0  0  0  0  0  0  0
   28.2424  -21.0310  -11.1254 N   0  0  0  0  0  0  0  0  0  0  0  0
   29.0468  -21.3881  -10.0855 C   0  0  0  0  0  0  0  0  0  0  0  0
   28.5149  -20.9526   -8.9205 C   0  0  0  0  0  0  0  0  0  0  0  0
   28.8890  -21.0281   -7.5958 C   0  0  0  0  0  0  0  0  0  0  0  0
   28.0970  -20.4620   -6.6250 C   0  0  0  0  0  0  0  0  0  0  0  0
   26.9333  -19.8198   -6.9591 C   0  0  0  0  0  0  0  0  0  0  0  0
   26.5483  -19.7380   -8.2799 C   0  0  0  0  0  0  0  0  0  0  0  0
   27.3259  -20.2968   -9.2633 C   0  0  0  0  0  0  0  0  0  0  0  0
   23.9223  -20.4442  -12.4558 O   0  0  0  0  0  0  0  0  0  0  0  0
   23.5921  -19.2810  -12.7937 C   0  0  0  0  0  0  0  0  0  0  0  0
   19.5430  -22.0243  -13.8784 C   0  0  2  0  0  0  0  0  0  0  0  0
   20.9891  -22.1909  -13.5380 C   0  0  0  0  0  0  0  0  0  0  0  0
   21.7983  -22.2419  -14.8025 C   0  0  1  0  0  0  0  0  0  0  0  0
   21.5175  -21.1801  -12.5650 N   0  0  0  0  0  0  0  0  0  0  0  0
   22.9217  -21.4052  -12.2596 C   0  0  0  0  0  0  0  0  0  0  0  0
   20.7248  -21.0474  -11.3322 O   0  0  0  0  0  0  0  0  0  0  0  0
   19.6752  -20.1632  -11.2480 O   0  0  0  0  0  0  0  0  0  0  0  0
  2  1  1  0
  2  4  1  0
  3  2  2  0
  5  4  1  0
  6  5  1  0
  7  6  1  0
  8  7  1  0
  8  9  1  1
 10  8  1  0
 10 12  1  0
 11 10  2  0
 13 12  1  0
 13 14  1  1
 15 14  1  0
 15 16  2  0
 17 16  1  0
 18 23  2  0
 18 17  1  0
 19 18  1  0
 20 19  2  0
 21 20  1  0
 21 22  2  0
 22 23  1  0
 23 15  1  0
 24 13  1  0
 25 24  2  0
 27 26  1  6
 27 28  1  0
 29 30  1  1
 29 27  1  0
 30 24  1  0
 31 29  1  0
 32 31  1  0
 33 31  2  0
M  END
$$$$
