RWV.pdb
     RDKit          3D

 33 34  0  0  1  0  0  0  0  0999 V2000
   28.8611  -17.5740  -18.3701 N   0  0  0  0  0  0  0  0  0  0  0  0
   28.0301  -16.5673  -17.7610 C   0  0  0  0  0  0  0  0  0  0  0  0
   27.4809  -15.6504  -18.4727 N   0  0  0  0  0  0  0  0  0  0  0  0
   27.8189  -16.5925  -16.3581 N   0  0  0  0  0  0  0  0  0  0  0  0
   28.4849  -17.6162  -15.5679 C   0  0  0  0  0  0  0  0  0  0  0  0
   27.8070  -18.9321  -15.8762 C   0  0  0  0  0  0  0  0  0  0  0  0
   27.0448  -19.5067  -14.7306 C   0  0  0  0  0  0  0  0  0  0  0  0
   27.7926  -20.6461  -14.0773 C   0  0  2  0  0  0  0  0  0  0  0  0
   27.9466  -21.6952  -15.0653 N   0  0  0  0  0  0  0  0  0  0  0  0
   27.0558  -21.1730  -12.8933 C   0  0  0  0  0  0  0  0  0  0  0  0
   26.0283  -21.9093  -13.0346 O   0  0  0  0  0  0  0  0  0  0  0  0
   26.8684  -14.9049  -18.0907 N   0  0  0  0  0  0  0  0  0  0  0  0
   27.4796  -20.8681  -11.5981 C   0  0  2  0  0  0  0  0  0  0  0  0
   26.6750  -20.9817  -10.4022 C   0  0  0  0  0  0  0  0  0  0  0  0
   27.5018  -20.4783   -9.2410 C   0  0  0  0  0  0  0  0  0  0  0  0
   26.8418  -20.6728   -7.9487 C   0  0  0  0  0  0  0  0  0  0  0  0
   25.6271  -21.2615   -7.6920 N   0  0  0  0  0  0  0  0  0  0  0  0
   25.4028  -21.2293   -6.3487 C   0  0  0  0  0  0  0  0  0  0  0  0
   26.4429  -20.6335   -5.7218 C   0  0  0  0  0  0  0  0  0  0  0  0
   26.7435  -20.3384   -4.4091 C   0  0  0  0  0  0  0  0  0  0  0  0
   27.9245  -19.7056   -4.1004 C   0  0  0  0  0  0  0  0  0  0  0  0
   28.8121  -19.3624   -5.0866 C   0  0  0  0  0  0  0  0  0  0  0  0
   28.5227  -19.6518   -6.4027 C   0  0  0  0  0  0  0  0  0  0  0  0
   27.3489  -20.2831   -6.7306 C   0  0  0  0  0  0  0  0  0  0  0  0
   25.3988  -20.2401  -10.5152 O   0  0  0  0  0  0  0  0  0  0  0  0
   25.3989  -18.9907  -10.3919 C   0  0  0  0  0  0  0  0  0  0  0  0
   23.4749  -19.9262  -13.4660 C   0  0  2  0  0  0  0  0  0  0  0  0
   22.4884  -20.3924  -12.4440 C   0  0  0  0  0  0  0  0  0  0  0  0
   22.0939  -21.8113  -12.7398 C   0  0  2  0  0  0  0  0  0  0  0  0
   22.9337  -20.2102  -11.0241 N   0  0  0  0  0  0  0  0  0  0  0  0
   24.1864  -20.8995  -10.7568 C   0  0  0  0  0  0  0  0  0  0  0  0
   21.9174  -20.5545  -10.0170 O   0  0  0  0  0  0  0  0  0  0  0  0
   20.7260  -19.8725   -9.9403 O   0  0  0  0  0  0  0  0  0  0  0  0
  2  1  1  0
  2  4  1  0
  3  2  2  0
  5  4  1  0
  6  5  1  0
  7  6  1  0
  8  7  1  0
  8  9  1  6
 10  8  1  0
 10 12  1  0
 11 10  2  0
 13 12  1  0
 13 14  1  1
 15 14  1  0
 15 16  2  0
 17 16  1  0
 18 23  2  0
 18 17  1  0
 19 18  1  0
 20 19  2  0
 21 20  1  0
 21 22  2  0
 22 23  1  0
 23 15  1  0
 24 13  1  0
 25 24  2  0
 27 26  1  6
 27 28  1  0
 29 30  1  1
 29 27  1  0
 30 24  1  0
 31 29  1  0
 32 31  1  0
 33 31  2  0
M  END
$$$$
