RWV.pdb
     RDKit          3D

 33 34  0  0  1  0  0  0  0  0999 V2000
   28.4521  -17.1974  -18.3643 N   0  0  0  0  0  0  0  0  0  0  0  0
   29.5983  -16.9204  -17.5370 C   0  0  0  0  0  0  0  0  0  0  0  0
   30.2164  -15.7984  -17.6255 N   0  0  0  0  0  0  0  0  0  0  0  0
   30.0465  -17.9016  -16.6152 N   0  0  0  0  0  0  0  0  0  0  0  0
   29.2215  -19.0780  -16.3881 C   0  0  0  0  0  0  0  0  0  0  0  0
   28.0471  -18.6449  -15.5399 C   0  0  0  0  0  0  0  0  0  0  0  0
   27.1280  -19.7562  -15.1609 C   0  0  0  0  0  0  0  0  0  0  0  0
   27.8473  -20.8370  -14.3873 C   0  0  2  0  0  0  0  0  0  0  0  0
   27.9844  -21.9858  -15.2600 N   0  0  0  0  0  0  0  0  0  0  0  0
   27.0927  -21.2228  -13.1609 C   0  0  0  0  0  0  0  0  0  0  0  0
   26.1032  -22.0195  -13.2231 O   0  0  0  0  0  0  0  0  0  0  0  0
   31.0323  -15.5350  -17.0409 N   0  0  0  0  0  0  0  0  0  0  0  0
   27.4575  -20.7155  -11.9120 C   0  0  2  0  0  0  0  0  0  0  0  0
   26.6993  -20.8657  -10.6900 C   0  0  0  0  0  0  0  0  0  0  0  0
   27.5410  -20.3258   -9.5562 C   0  0  0  0  0  0  0  0  0  0  0  0
   26.9095  -20.5029   -8.2473 C   0  0  0  0  0  0  0  0  0  0  0  0
   25.7191  -21.1224   -7.9519 N   0  0  0  0  0  0  0  0  0  0  0  0
   25.5165  -21.0574   -6.6063 C   0  0  0  0  0  0  0  0  0  0  0  0
   26.5471  -20.4102   -6.0157 C   0  0  0  0  0  0  0  0  0  0  0  0
   26.8599  -20.0667   -4.7177 C   0  0  0  0  0  0  0  0  0  0  0  0
   28.0247  -19.3875   -4.4486 C   0  0  0  0  0  0  0  0  0  0  0  0
   28.8839  -19.0455   -5.4601 C   0  0  0  0  0  0  0  0  0  0  0  0
   28.5820  -19.3829   -6.7618 C   0  0  0  0  0  0  0  0  0  0  0  0
   27.4240  -20.0611   -7.0502 C   0  0  0  0  0  0  0  0  0  0  0  0
   25.3879  -20.1826  -10.7589 O   0  0  0  0  0  0  0  0  0  0  0  0
   25.3406  -18.9302  -10.6853 C   0  0  0  0  0  0  0  0  0  0  0  0
   23.3342  -19.9629  -13.5866 C   0  0  2  0  0  0  0  0  0  0  0  0
   22.4134  -20.4831  -12.5300 C   0  0  0  0  0  0  0  0  0  0  0  0
   22.0884  -21.9220  -12.8133 C   0  0  2  0  0  0  0  0  0  0  0  0
   22.8994  -20.2754  -11.1270 N   0  0  0  0  0  0  0  0  0  0  0  0
   24.1936  -20.9008  -10.9042 C   0  0  0  0  0  0  0  0  0  0  0  0
   21.9381  -20.6674  -10.0839 O   0  0  0  0  0  0  0  0  0  0  0  0
   20.7183  -20.0443   -9.9642 O   0  0  0  0  0  0  0  0  0  0  0  0
  2  1  1  0
  2  4  1  0
  3  2  2  0
  5  4  1  0
  6  5  1  0
  7  6  1  0
  8  7  1  0
  8  9  1  6
 10  8  1  0
 10 12  1  0
 11 10  2  0
 13 12  1  0
 13 14  1  1
 15 14  1  0
 15 16  2  0
 17 16  1  0
 18 23  2  0
 18 17  1  0
 19 18  1  0
 20 19  2  0
 21 20  1  0
 21 22  2  0
 22 23  1  0
 23 15  1  0
 24 13  1  0
 25 24  2  0
 27 26  1  6
 27 28  1  0
 29 30  1  1
 29 27  1  0
 30 24  1  0
 31 29  1  0
 32 31  1  0
 33 31  2  0
M  END
$$$$
