RWV.pdb
     RDKit          3D

 33 34  0  0  1  0  0  0  0  0999 V2000
   30.4320  -24.1257  -17.9461 N   0  0  0  0  0  0  0  0  0  0  0  0
   30.4722  -24.0067  -16.5111 C   0  0  0  0  0  0  0  0  0  0  0  0
   31.2150  -24.7833  -15.8082 N   0  0  0  0  0  0  0  0  0  0  0  0
   29.6800  -23.0189  -15.8707 N   0  0  0  0  0  0  0  0  0  0  0  0
   28.7433  -22.2454  -16.6709 C   0  0  0  0  0  0  0  0  0  0  0  0
   29.2693  -20.8292  -16.7327 C   0  0  0  0  0  0  0  0  0  0  0  0
   28.3391  -19.8097  -16.1683 C   0  0  0  0  0  0  0  0  0  0  0  0
   26.8948  -20.1548  -16.4491 C   0  0  2  0  0  0  0  0  0  0  0  0
   26.4834  -19.4070  -17.6203 N   0  0  0  0  0  0  0  0  0  0  0  0
   26.0175  -19.8069  -15.2950 C   0  0  0  0  0  0  0  0  0  0  0  0
   25.8070  -18.5945  -14.9733 O   0  0  0  0  0  0  0  0  0  0  0  0
   31.1979  -24.8246  -14.7715 N   0  0  0  0  0  0  0  0  0  0  0  0
   25.4056  -20.8090  -14.5392 C   0  0  2  0  0  0  0  0  0  0  0  0
   24.6237  -20.5988  -13.3412 C   0  0  0  0  0  0  0  0  0  0  0  0
   23.2070  -21.0389  -13.6323 C   0  0  0  0  0  0  0  0  0  0  0  0
   22.4184  -20.0037  -14.3031 C   0  0  0  0  0  0  0  0  0  0  0  0
   22.4294  -19.6501  -15.6308 N   0  0  0  0  0  0  0  0  0  0  0  0
   21.5381  -18.6371  -15.8189 C   0  0  0  0  0  0  0  0  0  0  0  0
   20.9449  -18.3209  -14.6452 C   0  0  0  0  0  0  0  0  0  0  0  0
   19.9935  -17.4022  -14.2562 C   0  0  0  0  0  0  0  0  0  0  0  0
   19.5977  -17.3379  -12.9411 C   0  0  0  0  0  0  0  0  0  0  0  0
   20.1402  -18.1804  -12.0061 C   0  0  0  0  0  0  0  0  0  0  0  0
   21.0924  -19.1029  -12.3824 C   0  0  0  0  0  0  0  0  0  0  0  0
   21.5002  -19.1823  -13.6907 C   0  0  0  0  0  0  0  0  0  0  0  0
   25.1824  -21.3206  -12.1758 O   0  0  0  0  0  0  0  0  0  0  0  0
   25.1842  -22.5760  -12.1713 C   0  0  0  0  0  0  0  0  0  0  0  0
   28.1159  -20.4406   -9.4315 C   0  0  2  0  0  0  0  0  0  0  0  0
   26.7363  -20.4828   -8.8572 C   0  0  0  0  0  0  0  0  0  0  0  0
   26.3084  -19.0932   -8.4799 C   0  0  2  0  0  0  0  0  0  0  0  0
   25.7255  -21.1740   -9.7221 N   0  0  0  0  0  0  0  0  0  0  0  0
   25.7109  -20.6359  -11.0735 C   0  0  0  0  0  0  0  0  0  0  0  0
   24.3672  -21.2176   -9.1575 O   0  0  0  0  0  0  0  0  0  0  0  0
   24.0173  -22.1461   -8.2057 O   0  0  0  0  0  0  0  0  0  0  0  0
  2  1  1  0
  2  4  1  0
  3  2  2  0
  5  4  1  0
  6  5  1  0
  7  6  1  0
  8  7  1  0
  8  9  1  6
 10  8  1  0
 10 12  1  0
 11 10  2  0
 13 12  1  0
 13 14  1  6
 15 14  1  0
 15 16  2  0
 17 16  1  0
 18 23  2  0
 18 17  1  0
 19 18  1  0
 20 19  2  0
 21 20  1  0
 21 22  2  0
 22 23  1  0
 23 15  1  0
 24 13  1  0
 25 24  2  0
 27 26  1  1
 27 28  1  0
 29 30  1  1
 29 27  1  0
 30 24  1  0
 31 29  1  0
 32 31  1  0
 33 31  2  0
M  END
$$$$
