RWV.pdb
     RDKit          3D

 33 34  0  0  1  0  0  0  0  0999 V2000
   26.4875  -21.0569  -18.3145 N   0  0  0  0  0  0  0  0  0  0  0  0
   27.2143  -20.3211  -19.3172 C   0  0  0  0  0  0  0  0  0  0  0  0
   27.0606  -20.5836  -20.5647 N   0  0  0  0  0  0  0  0  0  0  0  0
   28.1096  -19.2954  -18.9175 N   0  0  0  0  0  0  0  0  0  0  0  0
   28.2190  -18.9732  -17.5032 C   0  0  0  0  0  0  0  0  0  0  0  0
   27.2824  -19.8979  -16.7590 C   0  0  0  0  0  0  0  0  0  0  0  0
   27.2022  -19.6321  -15.2940 C   0  0  0  0  0  0  0  0  0  0  0  0
   27.6388  -20.8309  -14.4838 C   0  0  2  0  0  0  0  0  0  0  0  0
   27.9612  -21.8958  -15.4125 N   0  0  0  0  0  0  0  0  0  0  0  0
   26.5635  -21.2809  -13.5544 C   0  0  0  0  0  0  0  0  0  0  0  0
   25.8542  -22.3031  -13.8180 O   0  0  0  0  0  0  0  0  0  0  0  0
   27.5490  -20.0815  -21.3302 N   0  0  0  0  0  0  0  0  0  0  0  0
   26.3110  -20.5866  -12.3694 C   0  0  2  0  0  0  0  0  0  0  0  0
   25.2572  -20.8890  -11.4267 C   0  0  0  0  0  0  0  0  0  0  0  0
   25.6180  -20.2419  -10.1089 C   0  0  0  0  0  0  0  0  0  0  0  0
   26.9328  -20.6555   -9.6155 C   0  0  0  0  0  0  0  0  0  0  0  0
   27.8307  -21.5158  -10.2000 N   0  0  0  0  0  0  0  0  0  0  0  0
   28.9262  -21.6140   -9.3962 C   0  0  0  0  0  0  0  0  0  0  0  0
   28.7650  -20.8376   -8.3003 C   0  0  0  0  0  0  0  0  0  0  0  0
   29.5303  -20.5603   -7.1876 C   0  0  0  0  0  0  0  0  0  0  0  0
   29.0580  -19.6976   -6.2267 C   0  0  0  0  0  0  0  0  0  0  0  0
   27.8290  -19.1063   -6.3616 C   0  0  0  0  0  0  0  0  0  0  0  0
   27.0545  -19.3759   -7.4693 C   0  0  0  0  0  0  0  0  0  0  0  0
   27.5089  -20.2343   -8.4392 C   0  0  0  0  0  0  0  0  0  0  0  0
   23.9324  -20.4333  -11.9048 O   0  0  0  0  0  0  0  0  0  0  0  0
   23.7788  -19.2347  -12.2454 C   0  0  0  0  0  0  0  0  0  0  0  0
   21.2750  -23.2941  -13.5104 C   0  0  2  0  0  0  0  0  0  0  0  0
   21.2845  -21.8278  -13.8016 C   0  0  0  0  0  0  0  0  0  0  0  0
   20.0033  -21.4451  -14.4861 C   0  0  1  0  0  0  0  0  0  0  0  0
   21.5753  -20.9615  -12.6131 N   0  0  0  0  0  0  0  0  0  0  0  0
   22.8414  -21.3086  -11.9869 C   0  0  0  0  0  0  0  0  0  0  0  0
   20.4925  -20.9074  -11.6180 O   0  0  0  0  0  0  0  0  0  0  0  0
   19.3123  -20.2522  -11.8794 O   0  0  0  0  0  0  0  0  0  0  0  0
  2  1  1  0
  2  4  1  0
  3  2  2  0
  5  4  1  0
  6  5  1  0
  7  6  1  0
  8  7  1  0
  8  9  1  6
 10  8  1  0
 10 12  1  0
 11 10  2  0
 13 12  1  0
 13 14  1  6
 15 14  1  0
 15 16  2  0
 17 16  1  0
 18 23  2  0
 18 17  1  0
 19 18  1  0
 20 19  2  0
 21 20  1  0
 21 22  2  0
 22 23  1  0
 23 15  1  0
 24 13  1  0
 25 24  2  0
 27 26  1  6
 27 28  1  0
 29 30  1  6
 29 27  1  0
 30 24  1  0
 31 29  1  0
 32 31  1  0
 33 31  2  0
M  END
$$$$
