RWV.pdb
     RDKit          3D

 33 34  0  0  1  0  0  0  0  0999 V2000
   19.2738  -22.3943  -15.0532 N   0  0  0  0  0  0  0  0  0  0  0  0
   20.0986  -23.5741  -14.9997 C   0  0  0  0  0  0  0  0  0  0  0  0
   20.2859  -24.2925  -16.0473 N   0  0  0  0  0  0  0  0  0  0  0  0
   20.7089  -23.9432  -13.7730 N   0  0  0  0  0  0  0  0  0  0  0  0
   20.6250  -23.0278  -12.6456 C   0  0  0  0  0  0  0  0  0  0  0  0
   21.4959  -21.8353  -12.9706 C   0  0  0  0  0  0  0  0  0  0  0  0
   21.5205  -20.7918  -11.9058 C   0  0  0  0  0  0  0  0  0  0  0  0
   22.4394  -21.1752  -10.7688 C   0  0  2  0  0  0  0  0  0  0  0  0
   21.7813  -20.8122   -9.5297 N   0  0  0  0  0  0  0  0  0  0  0  0
   23.7505  -20.4728  -10.8679 C   0  0  0  0  0  0  0  0  0  0  0  0
   23.8458  -19.3388  -11.4358 O   0  0  0  0  0  0  0  0  0  0  0  0
   20.8781  -25.1443  -16.0713 N   0  0  0  0  0  0  0  0  0  0  0  0
   24.9073  -21.0474  -10.3370 C   0  0  2  0  0  0  0  0  0  0  0  0
   26.2485  -20.5284  -10.4875 C   0  0  0  0  0  0  0  0  0  0  0  0
   27.0810  -21.0647   -9.3452 C   0  0  0  0  0  0  0  0  0  0  0  0
   27.3263  -20.0648   -8.3044 C   0  0  0  0  0  0  0  0  0  0  0  0
   26.8811  -18.7661   -8.2480 N   0  0  0  0  0  0  0  0  0  0  0  0
   27.3467  -18.1956   -7.1019 C   0  0  0  0  0  0  0  0  0  0  0  0
   28.0854  -19.0914   -6.4080 C   0  0  0  0  0  0  0  0  0  0  0  0
   28.7771  -19.0615   -5.2158 C   0  0  0  0  0  0  0  0  0  0  0  0
   29.4456  -20.1816   -4.7812 C   0  0  0  0  0  0  0  0  0  0  0  0
   29.4332  -21.3344   -5.5223 C   0  0  0  0  0  0  0  0  0  0  0  0
   28.7457  -21.3766   -6.7160 C   0  0  0  0  0  0  0  0  0  0  0  0
   28.0722  -20.2686   -7.1663 C   0  0  0  0  0  0  0  0  0  0  0  0
   26.8406  -20.8825  -11.7972 O   0  0  0  0  0  0  0  0  0  0  0  0
   27.1307  -22.0798  -12.0390 C   0  0  0  0  0  0  0  0  0  0  0  0
   27.0718  -19.6426  -16.5548 C   0  0  2  0  0  0  0  0  0  0  0  0
   26.5702  -19.5928  -15.1474 C   0  0  0  0  0  0  0  0  0  0  0  0
   25.1797  -20.1584  -15.0912 C   0  0  1  0  0  0  0  0  0  0  0  0
   27.4830  -20.2264  -14.1410 N   0  0  0  0  0  0  0  0  0  0  0  0
   27.0868  -19.9119  -12.7772 C   0  0  0  0  0  0  0  0  0  0  0  0
   28.9123  -19.9467  -14.3523 O   0  0  0  0  0  0  0  0  0  0  0  0
   29.6408  -20.6223  -15.3028 O   0  0  0  0  0  0  0  0  0  0  0  0
  2  1  1  0
  2  4  1  0
  3  2  2  0
  5  4  1  0
  6  5  1  0
  7  6  1  0
  8  7  1  0
  8  9  1  1
 10  8  1  0
 10 12  1  0
 11 10  2  0
 13 12  1  0
 13 14  1  1
 15 14  1  0
 15 16  2  0
 17 16  1  0
 18 23  2  0
 18 17  1  0
 19 18  1  0
 20 19  2  0
 21 20  1  0
 21 22  2  0
 22 23  1  0
 23 15  1  0
 24 13  1  0
 25 24  2  0
 27 26  1  6
 27 28  1  0
 29 30  1  1
 29 27  1  0
 30 24  1  0
 31 29  1  0
 32 31  1  0
 33 31  2  0
M  END
$$$$
