VFL.pdb
     RDKit          3D

 27 27  0  0  1  0  0  0  0  0999 V2000
   11.1416  -19.5915   22.0683 C   0  0  0  0  0  0  0  0  0  0  0  0
   11.3157  -18.9488   20.7238 C   0  0  1  0  0  0  0  0  0  0  0  0
   11.3870  -19.8981   19.5737 C   0  0  0  0  0  0  0  0  0  0  0  0
   10.3951  -17.7742   20.4906 C   0  0  2  0  0  0  0  0  0  0  0  0
   10.8746  -17.1146   19.2684 N   0  0  0  0  0  0  0  0  0  0  0  0
   10.2901  -16.8315   21.5955 C   0  0  0  0  0  0  0  0  0  0  0  0
   11.2858  -16.0946   21.8617 O   0  0  0  0  0  0  0  0  0  0  0  0
    9.1220  -16.7199   22.3654 N   0  0  0  0  0  0  0  0  0  0  0  0
    9.0027  -15.7170   23.4580 C   0  0  1  0  0  0  0  0  0  0  0  0
    7.5721  -15.3159   23.4424 C   0  0  0  0  0  0  0  0  0  0  0  0
    7.1281  -14.3093   24.3883 C   0  0  0  0  0  0  0  0  0  0  0  0
    6.3974  -14.6653   25.4964 C   0  0  0  0  0  0  0  0  0  0  0  0
    5.9609  -13.7053   26.4069 C   0  0  0  0  0  0  0  0  0  0  0  0
    6.2550  -12.3623   26.2159 C   0  0  0  0  0  0  0  0  0  0  0  0
    6.9778  -12.0032   25.1218 C   0  0  0  0  0  0  0  0  0  0  0  0
    7.4108  -12.9540   24.2186 C   0  0  0  0  0  0  0  0  0  0  0  0
    9.4786  -16.3787   24.6884 C   0  0  0  0  0  0  0  0  0  0  0  0
    9.3994  -17.6615   24.7489 O   0  0  0  0  0  0  0  0  0  0  0  0
   10.4101  -14.1173   29.9513 C   0  0  0  0  0  0  0  0  0  0  0  0
   10.1457  -14.6425   28.5844 C   0  0  1  0  0  0  0  0  0  0  0  0
    9.8661  -13.5032   27.5916 C   0  0  0  0  0  0  0  0  0  0  0  0
   11.1039  -15.6187   28.0332 C   0  0  0  0  0  0  0  0  0  0  0  0
   10.6494  -16.4535   26.8622 C   0  0  2  0  0  0  0  0  0  0  0  0
   10.0260  -15.6865   25.8140 N   0  0  0  0  0  0  0  0  0  0  0  0
    9.8554  -17.6276   27.2954 C   0  0  0  0  0  0  0  0  0  0  0  0
   10.3223  -18.4832   28.0790 O   0  0  0  0  0  0  0  0  0  0  0  0
    8.5720  -17.8034   26.8394 O   0  0  0  0  0  0  0  0  0  0  0  0
  2  3  1  6
  2  1  1  0
  4  5  1  6
  4  2  1  0
  6  4  1  0
  7  6  2  0
  8  6  1  0
  9  8  1  0
  9 10  1  1
 10 11  1  0
 11 16  2  0
 12 11  1  0
 12 13  2  0
 13 14  1  0
 14 15  2  0
 16 15  1  0
 17 18  2  0
 17  9  1  0
 20 19  1  1
 20 22  1  0
 20 21  1  0
 23 22  1  1
 23 24  1  0
 24 17  1  0
 25 23  1  0
 26 25  2  0
 27 25  1  0
M  END
$$$$
