VFL.pdb
     RDKit          3D

 27 27  0  0  1  0  0  0  0  0999 V2000
   11.4096  -19.9115   19.8284 C   0  0  0  0  0  0  0  0  0  0  0  0
   11.4406  -18.8880   20.9248 C   0  0  1  0  0  0  0  0  0  0  0  0
   12.7221  -18.8172   21.6876 C   0  0  0  0  0  0  0  0  0  0  0  0
   10.9013  -17.5395   20.5096 C   0  0  2  0  0  0  0  0  0  0  0  0
   11.8569  -16.9995   19.5329 N   0  0  0  0  0  0  0  0  0  0  0  0
   10.6639  -16.5984   21.5952 C   0  0  0  0  0  0  0  0  0  0  0  0
   11.6110  -15.8396   21.9590 O   0  0  0  0  0  0  0  0  0  0  0  0
    9.4213  -16.5118   22.2419 N   0  0  0  0  0  0  0  0  0  0  0  0
    9.2035  -15.5897   23.3890 C   0  0  1  0  0  0  0  0  0  0  0  0
    7.7843  -15.1674   23.2647 C   0  0  0  0  0  0  0  0  0  0  0  0
    7.2491  -14.2498   24.2528 C   0  0  0  0  0  0  0  0  0  0  0  0
    7.5391  -12.9079   24.1902 C   0  0  0  0  0  0  0  0  0  0  0  0
    7.0354  -12.0199   25.1382 C   0  0  0  0  0  0  0  0  0  0  0  0
    6.2256  -12.4707   26.1715 C   0  0  0  0  0  0  0  0  0  0  0  0
    5.9344  -13.7971   26.2392 C   0  0  0  0  0  0  0  0  0  0  0  0
    6.4334  -14.6782   25.3001 C   0  0  0  0  0  0  0  0  0  0  0  0
    9.5517  -16.3465   24.6074 C   0  0  0  0  0  0  0  0  0  0  0  0
    9.6703  -17.6238   24.5069 O   0  0  0  0  0  0  0  0  0  0  0  0
   10.0547  -13.7283   29.5600 C   0  0  0  0  0  0  0  0  0  0  0  0
   10.2660  -14.3659   28.2322 C   0  0  1  0  0  0  0  0  0  0  0  0
   11.2359  -13.5467   27.3661 C   0  0  0  0  0  0  0  0  0  0  0  0
   10.6023  -15.8017   28.2125 C   0  0  0  0  0  0  0  0  0  0  0  0
   10.2870  -16.5720   26.9547 C   0  0  2  0  0  0  0  0  0  0  0  0
    9.7705  -15.7512   25.8893 N   0  0  0  0  0  0  0  0  0  0  0  0
    9.4657  -17.7738   27.2338 C   0  0  0  0  0  0  0  0  0  0  0  0
    9.8505  -18.6630   28.0245 O   0  0  0  0  0  0  0  0  0  0  0  0
    8.2474  -17.9387   26.6218 O   0  0  0  0  0  0  0  0  0  0  0  0
  2  3  1  6
  2  1  1  0
  4  5  1  6
  4  2  1  0
  6  4  1  0
  7  6  2  0
  8  6  1  0
  9  8  1  0
  9 10  1  1
 10 11  1  0
 11 16  2  0
 12 11  1  0
 12 13  2  0
 13 14  1  0
 14 15  2  0
 16 15  1  0
 17 18  2  0
 17  9  1  0
 20 19  1  1
 20 22  1  0
 20 21  1  0
 23 22  1  1
 23 24  1  0
 24 17  1  0
 25 23  1  0
 26 25  2  0
 27 25  1  0
M  END
$$$$
