VFL.pdb
     RDKit          3D

 27 27  0  0  1  0  0  0  0  0999 V2000
   11.2188  -19.6305   19.5080 C   0  0  0  0  0  0  0  0  0  0  0  0
   11.2645  -18.7014   20.6852 C   0  0  1  0  0  0  0  0  0  0  0  0
   12.5569  -18.6908   21.4326 C   0  0  0  0  0  0  0  0  0  0  0  0
   10.7173  -17.3246   20.3911 C   0  0  2  0  0  0  0  0  0  0  0  0
   11.6278  -16.7237   19.4068 N   0  0  0  0  0  0  0  0  0  0  0  0
   10.5429  -16.4592   21.5494 C   0  0  0  0  0  0  0  0  0  0  0  0
   11.4953  -15.6936   21.8842 O   0  0  0  0  0  0  0  0  0  0  0  0
    9.3550  -16.4524   22.2966 N   0  0  0  0  0  0  0  0  0  0  0  0
    9.1741  -15.5461   23.4626 C   0  0  1  0  0  0  0  0  0  0  0  0
    7.7386  -15.1648   23.4204 C   0  0  0  0  0  0  0  0  0  0  0  0
    7.2339  -14.2655   24.4409 C   0  0  0  0  0  0  0  0  0  0  0  0
    6.4532  -14.7406   25.4674 C   0  0  0  0  0  0  0  0  0  0  0  0
    5.9585  -13.8838   26.4483 C   0  0  0  0  0  0  0  0  0  0  0  0
    6.2435  -12.5259   26.4123 C   0  0  0  0  0  0  0  0  0  0  0  0
    7.0157  -12.0492   25.3997 C   0  0  0  0  0  0  0  0  0  0  0  0
    7.5064  -12.8976   24.4268 C   0  0  0  0  0  0  0  0  0  0  0  0
    9.6108  -16.3018   24.6528 C   0  0  0  0  0  0  0  0  0  0  0  0
    9.6840  -17.5828   24.5566 O   0  0  0  0  0  0  0  0  0  0  0  0
   10.3374  -13.6974   29.6027 C   0  0  0  0  0  0  0  0  0  0  0  0
   10.4524  -14.3529   28.2719 C   0  0  1  0  0  0  0  0  0  0  0  0
   11.4119  -13.5836   27.3502 C   0  0  0  0  0  0  0  0  0  0  0  0
   10.7236  -15.8023   28.2482 C   0  0  0  0  0  0  0  0  0  0  0  0
   10.3729  -16.5544   26.9888 C   0  0  2  0  0  0  0  0  0  0  0  0
    9.9622  -15.7017   25.9026 N   0  0  0  0  0  0  0  0  0  0  0  0
    9.4380  -17.6732   27.2554 C   0  0  0  0  0  0  0  0  0  0  0  0
    8.3064  -17.7238   26.7252 O   0  0  0  0  0  0  0  0  0  0  0  0
    9.7996  -18.6925   28.1016 O   0  0  0  0  0  0  0  0  0  0  0  0
  2  3  1  6
  2  1  1  0
  4  5  1  6
  4  2  1  0
  6  4  1  0
  7  6  2  0
  8  6  1  0
  9  8  1  0
  9 10  1  1
 10 11  1  0
 11 16  2  0
 12 11  1  0
 12 13  2  0
 13 14  1  0
 14 15  2  0
 16 15  1  0
 17 18  2  0
 17  9  1  0
 20 19  1  1
 20 22  1  0
 20 21  1  0
 23 22  1  1
 23 24  1  0
 24 17  1  0
 25 23  1  0
 26 25  2  0
 27 25  1  0
M  END
$$$$
