VFL.pdb
     RDKit          3D

 27 27  0  0  1  0  0  0  0  0999 V2000
    8.4897  -14.0747   17.3505 C   0  0  0  0  0  0  0  0  0  0  0  0
    8.7971  -13.7058   18.7719 C   0  0  1  0  0  0  0  0  0  0  0  0
    7.7983  -12.8064   19.4219 C   0  0  0  0  0  0  0  0  0  0  0  0
    9.2085  -14.8812   19.6269 C   0  0  2  0  0  0  0  0  0  0  0  0
    8.2522  -15.9569   19.3317 N   0  0  0  0  0  0  0  0  0  0  0  0
    9.2862  -14.6187   21.0572 C   0  0  0  0  0  0  0  0  0  0  0  0
   10.1369  -13.7777   21.4749 O   0  0  0  0  0  0  0  0  0  0  0  0
    8.4479  -15.2687   21.9761 N   0  0  0  0  0  0  0  0  0  0  0  0
    8.4406  -14.9015   23.4179 C   0  0  1  0  0  0  0  0  0  0  0  0
    7.0440  -14.4715   23.6869 C   0  0  0  0  0  0  0  0  0  0  0  0
    6.7898  -13.6429   24.8504 C   0  0  0  0  0  0  0  0  0  0  0  0
    6.0255  -14.1141   25.8909 C   0  0  0  0  0  0  0  0  0  0  0  0
    5.7705  -13.3235   27.0093 C   0  0  0  0  0  0  0  0  0  0  0  0
    6.2841  -12.0372   27.0998 C   0  0  0  0  0  0  0  0  0  0  0  0
    7.0415  -11.5648   26.0741 C   0  0  0  0  0  0  0  0  0  0  0  0
    7.2947  -12.3476   24.9649 C   0  0  0  0  0  0  0  0  0  0  0  0
    8.9076  -16.0913   24.1559 C   0  0  0  0  0  0  0  0  0  0  0  0
    9.4920  -17.0216   23.4863 O   0  0  0  0  0  0  0  0  0  0  0  0
   11.9943  -14.0198   28.1540 C   0  0  0  0  0  0  0  0  0  0  0  0
   11.0149  -15.1097   28.4130 C   0  0  1  0  0  0  0  0  0  0  0  0
   10.5807  -15.1331   29.8871 C   0  0  0  0  0  0  0  0  0  0  0  0
    9.8574  -15.2145   27.5053 C   0  0  0  0  0  0  0  0  0  0  0  0
    9.9323  -16.2366   26.3988 C   0  0  2  0  0  0  0  0  0  0  0  0
    8.7569  -16.2735   25.5665 N   0  0  0  0  0  0  0  0  0  0  0  0
   10.3487  -17.5670   26.9025 C   0  0  0  0  0  0  0  0  0  0  0  0
    9.5174  -18.3948   27.3357 O   0  0  0  0  0  0  0  0  0  0  0  0
   11.6748  -17.9240   26.9038 O   0  0  0  0  0  0  0  0  0  0  0  0
  2  3  1  1
  2  1  1  0
  4  5  1  1
  4  2  1  0
  6  4  1  0
  7  6  2  0
  8  6  1  0
  9  8  1  0
  9 10  1  1
 10 11  1  0
 11 16  2  0
 12 11  1  0
 12 13  2  0
 13 14  1  0
 14 15  2  0
 16 15  1  0
 17 18  2  0
 17  9  1  0
 20 19  1  6
 20 22  1  0
 20 21  1  0
 23 22  1  1
 23 24  1  0
 24 17  1  0
 25 23  1  0
 26 25  2  0
 27 25  1  0
M  END
$$$$
