VFL.pdb
     RDKit          3D

 27 27  0  0  1  0  0  0  0  0999 V2000
   13.1531  -18.3866   20.7324 C   0  0  0  0  0  0  0  0  0  0  0  0
   12.1614  -17.6101   19.9172 C   0  0  1  0  0  0  0  0  0  0  0  0
   12.2238  -17.8538   18.4455 C   0  0  0  0  0  0  0  0  0  0  0  0
   10.7608  -17.6362   20.4822 C   0  0  2  0  0  0  0  0  0  0  0  0
    9.8529  -17.5679   19.3290 N   0  0  0  0  0  0  0  0  0  0  0  0
   10.4589  -16.5971   21.4568 C   0  0  0  0  0  0  0  0  0  0  0  0
   11.2962  -15.6613   21.6257 O   0  0  0  0  0  0  0  0  0  0  0  0
    9.2726  -16.6070   22.2065 N   0  0  0  0  0  0  0  0  0  0  0  0
    9.0157  -15.5990   23.2703 C   0  0  1  0  0  0  0  0  0  0  0  0
    7.6385  -15.1117   22.9986 C   0  0  0  0  0  0  0  0  0  0  0  0
    7.0570  -14.1447   23.9105 C   0  0  0  0  0  0  0  0  0  0  0  0
    7.3239  -12.8038   23.7711 C   0  0  0  0  0  0  0  0  0  0  0  0
    6.7756  -11.8682   24.6458 C   0  0  0  0  0  0  0  0  0  0  0  0
    5.9437  -12.2695   25.6819 C   0  0  0  0  0  0  0  0  0  0  0  0
    5.6752  -13.5946   25.8255 C   0  0  0  0  0  0  0  0  0  0  0  0
    6.2184  -14.5228   24.9591 C   0  0  0  0  0  0  0  0  0  0  0  0
    9.2182  -16.2888   24.5593 C   0  0  0  0  0  0  0  0  0  0  0  0
    9.7091  -17.4778   24.5329 O   0  0  0  0  0  0  0  0  0  0  0  0
   12.1717  -14.9547   28.8611 C   0  0  0  0  0  0  0  0  0  0  0  0
   10.7039  -14.8700   29.0906 C   0  0  1  0  0  0  0  0  0  0  0  0
   10.3637  -13.8116   30.1518 C   0  0  0  0  0  0  0  0  0  0  0  0
    9.8356  -14.7472   27.9049 C   0  0  0  0  0  0  0  0  0  0  0  0
    9.8499  -15.8829   26.9125 C   0  0  2  0  0  0  0  0  0  0  0  0
    8.9087  -15.7189   25.8341 N   0  0  0  0  0  0  0  0  0  0  0  0
    9.7666  -17.2027   27.5817 C   0  0  0  0  0  0  0  0  0  0  0  0
   10.7181  -17.6603   28.2522 O   0  0  0  0  0  0  0  0  0  0  0  0
    8.6269  -17.9619   27.4786 O   0  0  0  0  0  0  0  0  0  0  0  0
  2  3  1  6
  2  1  1  0
  4  5  1  6
  4  2  1  0
  6  4  1  0
  7  6  2  0
  8  6  1  0
  9  8  1  0
  9 10  1  1
 10 11  1  0
 11 16  2  0
 12 11  1  0
 12 13  2  0
 13 14  1  0
 14 15  2  0
 16 15  1  0
 17 18  2  0
 17  9  1  0
 20 19  1  6
 20 22  1  0
 20 21  1  0
 23 22  1  1
 23 24  1  0
 24 17  1  0
 25 23  1  0
 26 25  2  0
 27 25  1  0
M  END
$$$$
