VFL.pdb
     RDKit          3D

 27 27  0  0  1  0  0  0  0  0999 V2000
   11.2050  -19.4547   22.2794 C   0  0  0  0  0  0  0  0  0  0  0  0
   11.2409  -19.0684   20.8301 C   0  0  1  0  0  0  0  0  0  0  0  0
   11.3708  -20.2085   19.8749 C   0  0  0  0  0  0  0  0  0  0  0  0
   10.1790  -18.0658   20.4444 C   0  0  2  0  0  0  0  0  0  0  0  0
   10.4296  -17.7249   19.0373 N   0  0  0  0  0  0  0  0  0  0  0  0
   10.1131  -16.8719   21.2756 C   0  0  0  0  0  0  0  0  0  0  0  0
   11.0984  -16.0753   21.2732 O   0  0  0  0  0  0  0  0  0  0  0  0
    8.9936  -16.5845   22.0716 N   0  0  0  0  0  0  0  0  0  0  0  0
    8.9791  -15.4260   23.0051 C   0  0  1  0  0  0  0  0  0  0  0  0
    7.5514  -15.2717   23.3870 C   0  0  0  0  0  0  0  0  0  0  0  0
    7.2003  -14.2323   24.3364 C   0  0  0  0  0  0  0  0  0  0  0  0
    7.5137  -12.9186   24.0824 C   0  0  0  0  0  0  0  0  0  0  0  0
    7.1865  -11.9143   24.9908 C   0  0  0  0  0  0  0  0  0  0  0  0
    6.5340  -12.2176   26.1777 C   0  0  0  0  0  0  0  0  0  0  0  0
    6.2206  -13.5154   26.4352 C   0  0  0  0  0  0  0  0  0  0  0  0
    6.5446  -14.5117   25.5354 C   0  0  0  0  0  0  0  0  0  0  0  0
    9.9121  -15.7578   24.0996 C   0  0  0  0  0  0  0  0  0  0  0  0
   11.1025  -15.2729   24.0409 O   0  0  0  0  0  0  0  0  0  0  0  0
    9.7152  -14.5287   29.4802 C   0  0  0  0  0  0  0  0  0  0  0  0
   10.5099  -14.4229   28.2265 C   0  0  1  0  0  0  0  0  0  0  0  0
   11.9060  -15.0428   28.3951 C   0  0  0  0  0  0  0  0  0  0  0  0
    9.8682  -14.8651   26.9745 C   0  0  0  0  0  0  0  0  0  0  0  0
   10.1566  -16.2687   26.5039 C   0  0  2  0  0  0  0  0  0  0  0  0
    9.5765  -16.5783   25.2220 N   0  0  0  0  0  0  0  0  0  0  0  0
    9.8606  -17.2747   27.5513 C   0  0  0  0  0  0  0  0  0  0  0  0
   10.7292  -17.6429   28.3724 O   0  0  0  0  0  0  0  0  0  0  0  0
    8.6087  -17.8316   27.6441 O   0  0  0  0  0  0  0  0  0  0  0  0
  2  3  1  6
  2  1  1  0
  4  5  1  6
  4  2  1  0
  6  4  1  0
  7  6  2  0
  8  6  1  0
  9  8  1  0
  9 10  1  1
 10 11  1  0
 11 16  2  0
 12 11  1  0
 12 13  2  0
 13 14  1  0
 14 15  2  0
 16 15  1  0
 17 18  2  0
 17  9  1  0
 20 19  1  1
 20 22  1  0
 20 21  1  0
 23 22  1  1
 23 24  1  0
 24 17  1  0
 25 23  1  0
 26 25  2  0
 27 25  1  0
M  END
$$$$
