VFL.pdb
     RDKit          3D

 27 27  0  0  1  0  0  0  0  0999 V2000
   10.3910  -20.2113   20.0194 C   0  0  0  0  0  0  0  0  0  0  0  0
   10.7540  -19.0174   20.8523 C   0  0  1  0  0  0  0  0  0  0  0  0
   12.2041  -18.8968   21.1864 C   0  0  0  0  0  0  0  0  0  0  0  0
   10.1289  -17.7299   20.3695 C   0  0  2  0  0  0  0  0  0  0  0  0
   10.8994  -17.3186   19.1879 N   0  0  0  0  0  0  0  0  0  0  0  0
   10.0578  -16.6599   21.3548 C   0  0  0  0  0  0  0  0  0  0  0  0
   11.0477  -15.8782   21.4747 O   0  0  0  0  0  0  0  0  0  0  0  0
    8.9284  -16.4749   22.1670 N   0  0  0  0  0  0  0  0  0  0  0  0
    8.8321  -15.3350   23.1184 C   0  0  1  0  0  0  0  0  0  0  0  0
    7.3794  -15.0322   23.1930 C   0  0  0  0  0  0  0  0  0  0  0  0
    6.9261  -14.0667   24.1765 C   0  0  0  0  0  0  0  0  0  0  0  0
    7.2880  -12.7446   24.0767 C   0  0  0  0  0  0  0  0  0  0  0  0
    6.8632  -11.8113   25.0198 C   0  0  0  0  0  0  0  0  0  0  0  0
    6.0615  -12.1956   26.0857 C   0  0  0  0  0  0  0  0  0  0  0  0
    5.6994  -13.5020   26.1903 C   0  0  0  0  0  0  0  0  0  0  0  0
    6.1201  -14.4280   25.2560 C   0  0  0  0  0  0  0  0  0  0  0  0
    9.4679  -15.7815   24.3734 C   0  0  0  0  0  0  0  0  0  0  0  0
    9.5941  -17.0476   24.5647 O   0  0  0  0  0  0  0  0  0  0  0  0
   11.1378  -13.9422   30.1388 C   0  0  0  0  0  0  0  0  0  0  0  0
   11.1416  -14.9146   29.0125 C   0  0  1  0  0  0  0  0  0  0  0  0
   10.4288  -16.2204   29.3983 C   0  0  0  0  0  0  0  0  0  0  0  0
   10.7030  -14.4276   27.6914 C   0  0  0  0  0  0  0  0  0  0  0  0
   10.4269  -15.4597   26.6269 C   0  0  2  0  0  0  0  0  0  0  0  0
    9.9565  -14.8979   25.3864 N   0  0  0  0  0  0  0  0  0  0  0  0
    9.5856  -16.5684   27.1368 C   0  0  0  0  0  0  0  0  0  0  0  0
   10.0892  -17.6138   27.6032 O   0  0  0  0  0  0  0  0  0  0  0  0
    8.2162  -16.4697   27.1079 O   0  0  0  0  0  0  0  0  0  0  0  0
  2  3  1  6
  2  1  1  0
  4  5  1  6
  4  2  1  0
  6  4  1  0
  7  6  2  0
  8  6  1  0
  9  8  1  0
  9 10  1  1
 10 11  1  0
 11 16  2  0
 12 11  1  0
 12 13  2  0
 13 14  1  0
 14 15  2  0
 16 15  1  0
 17 18  2  0
 17  9  1  0
 20 19  1  1
 20 22  1  0
 20 21  1  0
 23 22  1  1
 23 24  1  0
 24 17  1  0
 25 23  1  0
 26 25  2  0
 27 25  1  0
M  END
$$$$
