VFL.pdb
     RDKit          3D

 27 27  0  0  1  0  0  0  0  0999 V2000
   10.9829  -16.0438   18.3705 C   0  0  0  0  0  0  0  0  0  0  0  0
   10.0336  -17.1525   18.7175 C   0  0  1  0  0  0  0  0  0  0  0  0
    9.9012  -18.2192   17.6813 C   0  0  0  0  0  0  0  0  0  0  0  0
   10.2089  -17.6824   20.1211 C   0  0  2  0  0  0  0  0  0  0  0  0
    9.2011  -18.7383   20.2891 N   0  0  0  0  0  0  0  0  0  0  0  0
   10.1176  -16.6888   21.1819 C   0  0  0  0  0  0  0  0  0  0  0  0
   11.0155  -15.7983   21.2586 O   0  0  0  0  0  0  0  0  0  0  0  0
    9.0672  -16.6935   22.1126 N   0  0  0  0  0  0  0  0  0  0  0  0
    8.9890  -15.6843   23.2031 C   0  0  1  0  0  0  0  0  0  0  0  0
    7.5525  -15.3087   23.2622 C   0  0  0  0  0  0  0  0  0  0  0  0
    7.1228  -14.3882   24.2981 C   0  0  0  0  0  0  0  0  0  0  0  0
    6.3223  -14.8196   25.3285 C   0  0  0  0  0  0  0  0  0  0  0  0
    5.8991  -13.9419   26.3242 C   0  0  0  0  0  0  0  0  0  0  0  0
    6.2775  -12.6067   26.2993 C   0  0  0  0  0  0  0  0  0  0  0  0
    7.0698  -12.1732   25.2829 C   0  0  0  0  0  0  0  0  0  0  0  0
    7.4897  -13.0425   24.2953 C   0  0  0  0  0  0  0  0  0  0  0  0
    9.5425  -16.3278   24.4105 C   0  0  0  0  0  0  0  0  0  0  0  0
    9.6757  -17.6075   24.4009 O   0  0  0  0  0  0  0  0  0  0  0  0
   11.0132  -13.9623   29.6593 C   0  0  0  0  0  0  0  0  0  0  0  0
   10.4729  -14.5007   28.3817 C   0  0  1  0  0  0  0  0  0  0  0  0
    9.9420  -13.3750   27.4802 C   0  0  0  0  0  0  0  0  0  0  0  0
   11.3198  -15.4443   27.6285 C   0  0  0  0  0  0  0  0  0  0  0  0
   10.6388  -16.3398   26.6240 C   0  0  2  0  0  0  0  0  0  0  0  0
    9.9444  -15.6203   25.5867 N   0  0  0  0  0  0  0  0  0  0  0  0
    9.8150  -17.3818   27.2814 C   0  0  0  0  0  0  0  0  0  0  0  0
   10.3036  -18.1767   28.1143 O   0  0  0  0  0  0  0  0  0  0  0  0
    8.4789  -17.4983   26.9862 O   0  0  0  0  0  0  0  0  0  0  0  0
  2  3  1  6
  2  1  1  0
  4  5  1  1
  4  2  1  0
  6  4  1  0
  7  6  2  0
  8  6  1  0
  9  8  1  0
  9 10  1  1
 10 11  1  0
 11 16  2  0
 12 11  1  0
 12 13  2  0
 13 14  1  0
 14 15  2  0
 16 15  1  0
 17 18  2  0
 17  9  1  0
 20 19  1  1
 20 22  1  0
 20 21  1  0
 23 22  1  1
 23 24  1  0
 24 17  1  0
 25 23  1  0
 26 25  2  0
 27 25  1  0
M  END
$$$$
