CWD.pdb
     RDKit          3D

 29 30  0  0  1  0  0  0  0  0999 V2000
   27.9060  -19.8737  -14.7370 N   0  0  0  0  0  0  0  0  0  0  0  0
   27.4510  -21.2450  -14.8842 C   0  0  1  0  0  0  0  0  0  0  0  0
   28.6393  -22.2023  -14.9035 C   0  0  0  0  0  0  0  0  0  0  0  0
   29.7184  -21.6960  -16.2777 S   0  0  0  0  0  0  0  0  0  0  0  0
   26.5303  -21.5635  -13.7686 C   0  0  0  0  0  0  0  0  0  0  0  0
   26.0376  -22.7234  -13.6495 O   0  0  0  0  0  0  0  0  0  0  0  0
   26.1399  -20.6386  -12.7837 N   0  0  0  0  0  0  0  0  0  0  0  0
   25.2522  -20.8756  -11.6954 C   0  0  1  0  0  0  0  0  0  0  0  0
   25.6404  -20.2642  -10.3959 C   0  0  0  0  0  0  0  0  0  0  0  0
   26.9517  -20.6689   -9.8728 C   0  0  0  0  0  0  0  0  0  0  0  0
   27.8438  -21.4726  -10.5470 C   0  0  0  0  0  0  0  0  0  0  0  0
   28.9283  -21.6346   -9.7764 N   0  0  0  0  0  0  0  0  0  0  0  0
   28.7471  -20.9547   -8.6314 C   0  0  0  0  0  0  0  0  0  0  0  0
   29.5663  -20.8059   -7.5196 C   0  0  0  0  0  0  0  0  0  0  0  0
   29.1013  -20.0245   -6.4609 C   0  0  0  0  0  0  0  0  0  0  0  0
   27.8633  -19.4131   -6.5086 C   0  0  0  0  0  0  0  0  0  0  0  0
   27.0520  -19.5587   -7.6063 C   0  0  0  0  0  0  0  0  0  0  0  0
   27.5216  -20.3420   -8.6644 C   0  0  0  0  0  0  0  0  0  0  0  0
   23.9251  -20.3158  -12.0666 C   0  0  0  0  0  0  0  0  0  0  0  0
   23.8347  -19.4775  -12.9992 O   0  0  0  0  0  0  0  0  0  0  0  0
   22.7236  -20.6690  -11.4277 N   0  0  0  0  0  0  0  0  0  0  0  0
   21.4602  -20.7445  -12.1821 C   0  0  1  0  0  0  0  0  0  0  0  0
   21.5592  -21.7264  -13.2990 C   0  0  0  0  0  0  0  0  0  0  0  0
   20.6933  -21.3429  -14.4329 C   0  0  0  0  0  0  0  0  0  0  0  0
   20.1160  -20.2205  -14.5435 O   0  0  0  0  0  0  0  0  0  0  0  0
   20.3505  -21.0731  -11.2897 C   0  0  0  0  0  0  0  0  0  0  0  0
   20.2606  -22.1732  -10.7250 O   0  0  0  0  0  0  0  0  0  0  0  0
   20.4449  -22.2283  -15.4994 O   0  0  0  0  0  0  0  0  0  0  0  0
   19.3521  -20.1162  -11.0610 O   0  0  0  0  0  0  0  0  0  0  0  0
  2  1  1  1
  2  5  1  0
  3  2  1  0
  4  3  1  0
  5  7  1  0
  5  6  2  0
  7  8  1  0
  8  9  1  1
  9 10  1  0
 10 11  2  0
 11 12  1  0
 13 12  1  0
 14 13  2  0
 15 14  1  0
 16 17  1  0
 16 15  2  0
 17 18  2  0
 18 10  1  0
 18 13  1  0
 19  8  1  0
 19 21  1  0
 20 19  2  0
 22 23  1  6
 22 21  1  0
 22 26  1  0
 23 24  1  0
 24 28  1  0
 24 25  2  0
 26 29  1  0
 27 26  2  0
M  END
$$$$
