CWD.pdb
     RDKit          3D

 29 30  0  0  1  0  0  0  0  0999 V2000
   29.4791  -20.3641  -13.7225 N   0  0  0  0  0  0  0  0  0  0  0  0
   28.8680  -19.6759  -12.5991 C   0  0  1  0  0  0  0  0  0  0  0  0
   28.3120  -18.3246  -13.0396 C   0  0  0  0  0  0  0  0  0  0  0  0
   28.1167  -18.3843  -14.8473 S   0  0  0  0  0  0  0  0  0  0  0  0
   27.7979  -20.5337  -12.0401 C   0  0  0  0  0  0  0  0  0  0  0  0
   27.6560  -21.7282  -12.4345 O   0  0  0  0  0  0  0  0  0  0  0  0
   26.8824  -20.1097  -11.0603 N   0  0  0  0  0  0  0  0  0  0  0  0
   25.8850  -20.9033  -10.4248 C   0  0  1  0  0  0  0  0  0  0  0  0
   25.3780  -20.3896   -9.1239 C   0  0  0  0  0  0  0  0  0  0  0  0
   26.3790  -19.7432   -8.2653 C   0  0  0  0  0  0  0  0  0  0  0  0
   26.9550  -18.5200   -8.5272 C   0  0  0  0  0  0  0  0  0  0  0  0
   27.8179  -18.2423   -7.5401 N   0  0  0  0  0  0  0  0  0  0  0  0
   27.8040  -19.2573   -6.6593 C   0  0  0  0  0  0  0  0  0  0  0  0
   28.5103  -19.4503   -5.4789 C   0  0  0  0  0  0  0  0  0  0  0  0
   28.2825  -20.6258   -4.7618 C   0  0  0  0  0  0  0  0  0  0  0  0
   27.3826  -21.5754   -5.2057 C   0  0  0  0  0  0  0  0  0  0  0  0
   26.6835  -21.3869   -6.3719 C   0  0  0  0  0  0  0  0  0  0  0  0
   26.9145  -20.2082   -7.0869 C   0  0  0  0  0  0  0  0  0  0  0  0
   24.7220  -20.9890  -11.3479 C   0  0  0  0  0  0  0  0  0  0  0  0
   24.4859  -20.0508  -12.1509 O   0  0  0  0  0  0  0  0  0  0  0  0
   23.8375  -22.0811  -11.3885 N   0  0  0  0  0  0  0  0  0  0  0  0
   22.7265  -22.1185  -12.3555 C   0  0  1  0  0  0  0  0  0  0  0  0
   22.5838  -23.4743  -12.9578 C   0  0  0  0  0  0  0  0  0  0  0  0
   23.7136  -23.7872  -13.8568 C   0  0  0  0  0  0  0  0  0  0  0  0
   24.3258  -22.9294  -14.5601 O   0  0  0  0  0  0  0  0  0  0  0  0
   21.4814  -21.6911  -11.7208 C   0  0  0  0  0  0  0  0  0  0  0  0
   21.4205  -21.3969  -10.5180 O   0  0  0  0  0  0  0  0  0  0  0  0
   24.1996  -25.1015  -13.9954 O   0  0  0  0  0  0  0  0  0  0  0  0
   20.3146  -21.6093  -12.4931 O   0  0  0  0  0  0  0  0  0  0  0  0
  2  1  1  6
  2  5  1  0
  3  2  1  0
  4  3  1  0
  5  7  1  0
  5  6  2  0
  7  8  1  0
  8  9  1  1
  9 10  1  0
 10 11  2  0
 11 12  1  0
 13 12  1  0
 14 13  2  0
 15 14  1  0
 16 17  1  0
 16 15  2  0
 17 18  2  0
 18 10  1  0
 18 13  1  0
 19  8  1  0
 19 21  1  0
 20 19  2  0
 22 23  1  1
 22 21  1  0
 22 26  1  0
 23 24  1  0
 24 28  1  0
 24 25  2  0
 26 29  1  0
 27 26  2  0
M  END
$$$$
