CWD.pdb
     RDKit          3D

 29 30  0  0  1  0  0  0  0  0999 V2000
   28.1219  -22.6016  -15.6509 N   0  0  0  0  0  0  0  0  0  0  0  0
   27.8300  -21.3405  -14.9925 C   0  0  1  0  0  0  0  0  0  0  0  0
   27.2575  -20.3376  -15.9903 C   0  0  0  0  0  0  0  0  0  0  0  0
   28.6346  -19.7675  -17.0333 S   0  0  0  0  0  0  0  0  0  0  0  0
   26.8785  -21.5903  -13.8854 C   0  0  0  0  0  0  0  0  0  0  0  0
   26.1483  -22.6243  -13.8828 O   0  0  0  0  0  0  0  0  0  0  0  0
   26.7116  -20.7317  -12.7840 N   0  0  0  0  0  0  0  0  0  0  0  0
   25.7768  -20.8815  -11.7200 C   0  0  1  0  0  0  0  0  0  0  0  0
   26.1124  -20.1720  -10.4562 C   0  0  0  0  0  0  0  0  0  0  0  0
   27.3513  -20.6052   -9.7971 C   0  0  0  0  0  0  0  0  0  0  0  0
   28.3574  -21.3107  -10.4187 C   0  0  0  0  0  0  0  0  0  0  0  0
   29.3285  -21.5349   -9.5226 N   0  0  0  0  0  0  0  0  0  0  0  0
   28.9643  -20.9900   -8.3493 C   0  0  0  0  0  0  0  0  0  0  0  0
   29.6139  -20.9487   -7.1222 C   0  0  0  0  0  0  0  0  0  0  0  0
   28.9773  -20.2994   -6.0635 C   0  0  0  0  0  0  0  0  0  0  0  0
   27.7369  -19.7121   -6.2223 C   0  0  0  0  0  0  0  0  0  0  0  0
   27.0931  -19.7516   -7.4340 C   0  0  0  0  0  0  0  0  0  0  0  0
   27.7343  -20.4028   -8.4916 C   0  0  0  0  0  0  0  0  0  0  0  0
   24.4700  -20.3492  -12.1903 C   0  0  0  0  0  0  0  0  0  0  0  0
   24.4365  -19.4505  -13.0688 O   0  0  0  0  0  0  0  0  0  0  0  0
   23.2272  -20.7942  -11.7066 N   0  0  0  0  0  0  0  0  0  0  0  0
   21.9990  -20.6149  -12.5003 C   0  0  1  0  0  0  0  0  0  0  0  0
   22.1087  -21.2961  -13.8213 C   0  0  0  0  0  0  0  0  0  0  0  0
   20.8853  -21.1092  -14.6282 C   0  0  0  0  0  0  0  0  0  0  0  0
   19.7282  -21.4788  -14.2678 O   0  0  0  0  0  0  0  0  0  0  0  0
   20.8352  -21.0931  -11.7569 C   0  0  0  0  0  0  0  0  0  0  0  0
   19.8652  -20.3624  -11.5072 O   0  0  0  0  0  0  0  0  0  0  0  0
   20.9265  -20.4881  -15.8913 O   0  0  0  0  0  0  0  0  0  0  0  0
   20.8097  -22.4210  -11.3090 O   0  0  0  0  0  0  0  0  0  0  0  0
  2  1  1  6
  2  5  1  0
  3  2  1  0
  4  3  1  0
  5  7  1  0
  5  6  2  0
  7  8  1  0
  8  9  1  1
  9 10  1  0
 10 11  2  0
 11 12  1  0
 13 12  1  0
 14 13  2  0
 15 14  1  0
 16 17  1  0
 16 15  2  0
 17 18  2  0
 18 10  1  0
 18 13  1  0
 19  8  1  0
 19 21  1  0
 20 19  2  0
 22 23  1  6
 22 21  1  0
 22 26  1  0
 23 24  1  0
 24 28  1  0
 24 25  2  0
 26 29  1  0
 27 26  2  0
M  END
$$$$
