CWD.pdb
     RDKit          3D

 29 30  0  0  1  0  0  0  0  0999 V2000
   28.7706  -22.8395  -16.4224 N   0  0  0  0  0  0  0  0  0  0  0  0
   28.4222  -21.5366  -15.8837 C   0  0  1  0  0  0  0  0  0  0  0  0
   27.5926  -20.7466  -16.8920 C   0  0  0  0  0  0  0  0  0  0  0  0
   28.7063  -20.2628  -18.2466 S   0  0  0  0  0  0  0  0  0  0  0  0
   27.6779  -21.7282  -14.6176 C   0  0  0  0  0  0  0  0  0  0  0  0
   26.8388  -22.6684  -14.4982 O   0  0  0  0  0  0  0  0  0  0  0  0
   27.8344  -20.9120  -13.4830 N   0  0  0  0  0  0  0  0  0  0  0  0
   27.1412  -21.0314  -12.2446 C   0  0  1  0  0  0  0  0  0  0  0  0
   27.6524  -20.1883  -11.1305 C   0  0  0  0  0  0  0  0  0  0  0  0
   26.9078  -20.2877   -9.8685 C   0  0  0  0  0  0  0  0  0  0  0  0
   25.5500  -20.5002   -9.7813 C   0  0  0  0  0  0  0  0  0  0  0  0
   25.2129  -20.5343   -8.4846 N   0  0  0  0  0  0  0  0  0  0  0  0
   26.3214  -20.3489   -7.7476 C   0  0  0  0  0  0  0  0  0  0  0  0
   26.5041  -20.2997   -6.3715 C   0  0  0  0  0  0  0  0  0  0  0  0
   27.7960  -20.0891   -5.8875 C   0  0  0  0  0  0  0  0  0  0  0  0
   28.8680  -19.9329   -6.7449 C   0  0  0  0  0  0  0  0  0  0  0  0
   28.6899  -19.9811   -8.1051 C   0  0  0  0  0  0  0  0  0  0  0  0
   27.3944  -20.1924   -8.5856 C   0  0  0  0  0  0  0  0  0  0  0  0
   25.7263  -20.6385  -12.4809 C   0  0  0  0  0  0  0  0  0  0  0  0
   25.4563  -19.4888  -12.9121 O   0  0  0  0  0  0  0  0  0  0  0  0
   24.6316  -21.4897  -12.2487 N   0  0  0  0  0  0  0  0  0  0  0  0
   23.2855  -21.1398  -12.7351 C   0  0  1  0  0  0  0  0  0  0  0  0
   22.4735  -22.3621  -12.9951 C   0  0  0  0  0  0  0  0  0  0  0  0
   21.2662  -22.0496  -13.7872 C   0  0  0  0  0  0  0  0  0  0  0  0
   20.9111  -20.8789  -14.1169 O   0  0  0  0  0  0  0  0  0  0  0  0
   22.6135  -20.2537  -11.7869 C   0  0  0  0  0  0  0  0  0  0  0  0
   22.3375  -19.0772  -12.0641 O   0  0  0  0  0  0  0  0  0  0  0  0
   20.4032  -23.0651  -14.2421 O   0  0  0  0  0  0  0  0  0  0  0  0
   22.2673  -20.7452  -10.5208 O   0  0  0  0  0  0  0  0  0  0  0  0
  2  1  1  6
  2  5  1  0
  3  2  1  0
  4  3  1  0
  5  7  1  0
  5  6  2  0
  7  8  1  0
  8  9  1  1
  9 10  1  0
 10 11  2  0
 11 12  1  0
 13 12  1  0
 14 13  2  0
 15 14  1  0
 16 17  1  0
 16 15  2  0
 17 18  2  0
 18 10  1  0
 18 13  1  0
 19  8  1  0
 19 21  1  0
 20 19  2  0
 22 23  1  1
 22 21  1  0
 22 26  1  0
 23 24  1  0
 24 28  1  0
 24 25  2  0
 26 29  1  0
 27 26  2  0
M  END
$$$$
