CWD.pdb
     RDKit          3D

 29 30  0  0  1  0  0  0  0  0999 V2000
   29.1667  -21.3691  -12.6676 N   0  0  0  0  0  0  0  0  0  0  0  0
   28.2411  -20.3303  -12.2510 C   0  0  1  0  0  0  0  0  0  0  0  0
   27.4189  -19.8402  -13.4397 C   0  0  0  0  0  0  0  0  0  0  0  0
   26.6728  -21.3040  -14.2206 S   0  0  0  0  0  0  0  0  0  0  0  0
   27.3652  -20.8719  -11.1866 C   0  0  0  0  0  0  0  0  0  0  0  0
   27.5216  -22.0537  -10.7611 O   0  0  0  0  0  0  0  0  0  0  0  0
   26.3240  -20.1459  -10.5809 N   0  0  0  0  0  0  0  0  0  0  0  0
   25.5469  -20.5464   -9.4565 C   0  0  1  0  0  0  0  0  0  0  0  0
   25.3709  -19.5230   -8.3912 C   0  0  0  0  0  0  0  0  0  0  0  0
   26.5625  -19.2429   -7.5796 C   0  0  0  0  0  0  0  0  0  0  0  0
   27.3953  -18.1625   -7.7678 C   0  0  0  0  0  0  0  0  0  0  0  0
   28.3740  -18.2227   -6.8542 N   0  0  0  0  0  0  0  0  0  0  0  0
   28.1834  -19.3130   -6.0918 C   0  0  0  0  0  0  0  0  0  0  0  0
   28.9117  -19.8161   -5.0213 C   0  0  0  0  0  0  0  0  0  0  0  0
   28.4626  -20.9903   -4.4152 C   0  0  0  0  0  0  0  0  0  0  0  0
   27.3276  -21.6401   -4.8606 C   0  0  0  0  0  0  0  0  0  0  0  0
   26.6063  -21.1448   -5.9182 C   0  0  0  0  0  0  0  0  0  0  0  0
   27.0595  -19.9686   -6.5223 C   0  0  0  0  0  0  0  0  0  0  0  0
   24.1909  -20.9053   -9.9510 C   0  0  0  0  0  0  0  0  0  0  0  0
   23.9126  -20.7800  -11.1706 O   0  0  0  0  0  0  0  0  0  0  0  0
   23.1628  -21.3913   -9.1242 N   0  0  0  0  0  0  0  0  0  0  0  0
   21.8597  -21.7828   -9.6893 C   0  0  1  0  0  0  0  0  0  0  0  0
   21.0608  -22.5665   -8.7051 C   0  0  0  0  0  0  0  0  0  0  0  0
   19.7879  -23.0328   -9.2924 C   0  0  0  0  0  0  0  0  0  0  0  0
   19.5084  -22.9786  -10.5271 O   0  0  0  0  0  0  0  0  0  0  0  0
   21.1247  -20.6044  -10.1442 C   0  0  0  0  0  0  0  0  0  0  0  0
   20.0244  -20.6898  -10.7092 O   0  0  0  0  0  0  0  0  0  0  0  0
   18.7692  -23.5858   -8.4929 O   0  0  0  0  0  0  0  0  0  0  0  0
   21.6775  -19.3331   -9.9373 O   0  0  0  0  0  0  0  0  0  0  0  0
  2  1  1  6
  2  5  1  0
  3  2  1  0
  4  3  1  0
  5  7  1  0
  5  6  2  0
  7  8  1  0
  8  9  1  1
  9 10  1  0
 10 11  2  0
 11 12  1  0
 13 12  1  0
 14 13  2  0
 15 14  1  0
 16 17  1  0
 16 15  2  0
 17 18  2  0
 18 10  1  0
 18 13  1  0
 19  8  1  0
 19 21  1  0
 20 19  2  0
 22 23  1  1
 22 21  1  0
 22 26  1  0
 23 24  1  0
 24 28  1  0
 24 25  2  0
 26 29  1  0
 27 26  2  0
M  END
$$$$
