CWD.pdb
     RDKit          3D

 29 30  0  0  1  0  0  0  0  0999 V2000
   29.5724  -21.3069  -12.8152 N   0  0  0  0  0  0  0  0  0  0  0  0
   28.6791  -20.2775  -12.3136 C   0  0  1  0  0  0  0  0  0  0  0  0
   28.3374  -19.2825  -13.4191 C   0  0  0  0  0  0  0  0  0  0  0  0
   27.4391  -17.9029  -12.6452 S   0  0  0  0  0  0  0  0  0  0  0  0
   27.4562  -20.9246  -11.7849 C   0  0  0  0  0  0  0  0  0  0  0  0
   26.8820  -21.8472  -12.4340 O   0  0  0  0  0  0  0  0  0  0  0  0
   26.8517  -20.5813  -10.5622 N   0  0  0  0  0  0  0  0  0  0  0  0
   25.6595  -21.1361  -10.0151 C   0  0  1  0  0  0  0  0  0  0  0  0
   25.4519  -20.9197   -8.5579 C   0  0  0  0  0  0  0  0  0  0  0  0
   26.4650  -20.0920   -7.8904 C   0  0  0  0  0  0  0  0  0  0  0  0
   26.8055  -18.8154   -8.2788 C   0  0  0  0  0  0  0  0  0  0  0  0
   27.7582  -18.3648   -7.4509 N   0  0  0  0  0  0  0  0  0  0  0  0
   28.0306  -19.3222   -6.5479 C   0  0  0  0  0  0  0  0  0  0  0  0
   28.9299  -19.3486   -5.4897 C   0  0  0  0  0  0  0  0  0  0  0  0
   28.9921  -20.5039   -4.7091 C   0  0  0  0  0  0  0  0  0  0  0  0
   28.1863  -21.5944   -4.9741 C   0  0  0  0  0  0  0  0  0  0  0  0
   27.2968  -21.5706   -6.0193 C   0  0  0  0  0  0  0  0  0  0  0  0
   27.2377  -20.4116   -6.7984 C   0  0  0  0  0  0  0  0  0  0  0  0
   24.5079  -20.5140  -10.7213 C   0  0  0  0  0  0  0  0  0  0  0  0
   24.2880  -19.2819  -10.6020 O   0  0  0  0  0  0  0  0  0  0  0  0
   23.6171  -21.2292  -11.5409 N   0  0  0  0  0  0  0  0  0  0  0  0
   22.5451  -20.5365  -12.2770 C   0  0  1  0  0  0  0  0  0  0  0  0
   22.4630  -21.0172  -13.6853 C   0  0  0  0  0  0  0  0  0  0  0  0
   22.3567  -22.4894  -13.7477 C   0  0  0  0  0  0  0  0  0  0  0  0
   21.3062  -23.1423  -13.4728 O   0  0  0  0  0  0  0  0  0  0  0  0
   21.2654  -20.6992  -11.5901 C   0  0  0  0  0  0  0  0  0  0  0  0
   21.1548  -21.3616  -10.5480 O   0  0  0  0  0  0  0  0  0  0  0  0
   23.4512  -23.2891  -14.1290 O   0  0  0  0  0  0  0  0  0  0  0  0
   20.1221  -20.0882  -12.1231 O   0  0  0  0  0  0  0  0  0  0  0  0
  2  1  1  6
  2  5  1  0
  3  2  1  0
  4  3  1  0
  5  7  1  0
  5  6  2  0
  7  8  1  0
  8  9  1  1
  9 10  1  0
 10 11  2  0
 11 12  1  0
 13 12  1  0
 14 13  2  0
 15 14  1  0
 16 17  1  0
 16 15  2  0
 17 18  2  0
 18 10  1  0
 18 13  1  0
 19  8  1  0
 19 21  1  0
 20 19  2  0
 22 23  1  6
 22 21  1  0
 22 26  1  0
 23 24  1  0
 24 28  1  0
 24 25  2  0
 26 29  1  0
 27 26  2  0
M  END
$$$$
