CWD.pdb
     RDKit          3D

 29 30  0  0  1  0  0  0  0  0999 V2000
   28.4846  -22.8020  -17.4430 N   0  0  0  0  0  0  0  0  0  0  0  0
   28.0851  -21.5261  -16.8761 C   0  0  1  0  0  0  0  0  0  0  0  0
   27.1543  -20.7854  -17.8322 C   0  0  0  0  0  0  0  0  0  0  0  0
   25.6672  -21.8119  -18.0417 S   0  0  0  0  0  0  0  0  0  0  0  0
   27.4238  -21.7700  -15.5735 C   0  0  0  0  0  0  0  0  0  0  0  0
   27.1552  -22.9481  -15.1965 O   0  0  0  0  0  0  0  0  0  0  0  0
   27.0518  -20.7510  -14.6783 N   0  0  0  0  0  0  0  0  0  0  0  0
   26.5073  -20.9195  -13.3730 C   0  0  1  0  0  0  0  0  0  0  0  0
   26.9580  -19.9381  -12.3498 C   0  0  0  0  0  0  0  0  0  0  0  0
   27.6678  -20.5070  -11.1967 C   0  0  0  0  0  0  0  0  0  0  0  0
   28.8595  -21.1923  -11.2777 C   0  0  0  0  0  0  0  0  0  0  0  0
   29.2140  -21.5656  -10.0403 N   0  0  0  0  0  0  0  0  0  0  0  0
   28.2783  -21.1349   -9.1771 C   0  0  0  0  0  0  0  0  0  0  0  0
   28.1816  -21.2641   -7.7975 C   0  0  0  0  0  0  0  0  0  0  0  0
   27.0737  -20.7024   -7.1612 C   0  0  0  0  0  0  0  0  0  0  0  0
   26.0966  -20.0357   -7.8750 C   0  0  0  0  0  0  0  0  0  0  0  0
   26.1900  -19.9068   -9.2383 C   0  0  0  0  0  0  0  0  0  0  0  0
   27.3012  -20.4707   -9.8716 C   0  0  0  0  0  0  0  0  0  0  0  0
   25.0292  -20.7947  -13.4822 C   0  0  0  0  0  0  0  0  0  0  0  0
   24.5254  -19.8969  -14.2038 O   0  0  0  0  0  0  0  0  0  0  0  0
   24.1241  -21.6374  -12.8134 N   0  0  0  0  0  0  0  0  0  0  0  0
   22.6706  -21.4196  -12.9171 C   0  0  1  0  0  0  0  0  0  0  0  0
   21.9132  -22.6061  -12.4276 C   0  0  0  0  0  0  0  0  0  0  0  0
   20.4559  -22.4161  -12.5787 C   0  0  0  0  0  0  0  0  0  0  0  0
   19.9230  -21.5197  -13.2982 O   0  0  0  0  0  0  0  0  0  0  0  0
   22.2814  -20.2115  -12.1926 C   0  0  0  0  0  0  0  0  0  0  0  0
   21.6003  -19.3178  -12.7165 O   0  0  0  0  0  0  0  0  0  0  0  0
   19.5341  -23.2455  -11.9114 O   0  0  0  0  0  0  0  0  0  0  0  0
   22.6891  -20.0531  -10.8610 O   0  0  0  0  0  0  0  0  0  0  0  0
  2  1  1  6
  2  5  1  0
  3  2  1  0
  4  3  1  0
  5  7  1  0
  5  6  2  0
  7  8  1  0
  8  9  1  1
  9 10  1  0
 10 11  2  0
 11 12  1  0
 13 12  1  0
 14 13  2  0
 15 14  1  0
 16 17  1  0
 16 15  2  0
 17 18  2  0
 18 10  1  0
 18 13  1  0
 19  8  1  0
 19 21  1  0
 20 19  2  0
 22 23  1  1
 22 21  1  0
 22 26  1  0
 23 24  1  0
 24 28  1  0
 24 25  2  0
 26 29  1  0
 27 26  2  0
M  END
$$$$
