CWD.pdb
     RDKit          3D

 29 30  0  0  1  0  0  0  0  0999 V2000
   28.8855  -23.3211  -16.5375 N   0  0  0  0  0  0  0  0  0  0  0  0
   27.9655  -22.1974  -16.5505 C   0  0  1  0  0  0  0  0  0  0  0  0
   27.1348  -22.2028  -17.8307 C   0  0  0  0  0  0  0  0  0  0  0  0
   26.5621  -20.4989  -18.1101 S   0  0  0  0  0  0  0  0  0  0  0  0
   27.0971  -22.2790  -15.3535 C   0  0  0  0  0  0  0  0  0  0  0  0
   26.6605  -23.3957  -14.9478 O   0  0  0  0  0  0  0  0  0  0  0  0
   26.6987  -21.1640  -14.5945 N   0  0  0  0  0  0  0  0  0  0  0  0
   25.8681  -21.1729  -13.4375 C   0  0  1  0  0  0  0  0  0  0  0  0
   26.1965  -20.1639  -12.3948 C   0  0  0  0  0  0  0  0  0  0  0  0
   27.3009  -20.5204  -11.4947 C   0  0  0  0  0  0  0  0  0  0  0  0
   28.5821  -20.8062  -11.9109 C   0  0  0  0  0  0  0  0  0  0  0  0
   29.3218  -21.0875  -10.8293 N   0  0  0  0  0  0  0  0  0  0  0  0
   28.5431  -20.9875   -9.7385 C   0  0  0  0  0  0  0  0  0  0  0  0
   28.8296  -21.1783   -8.3928 C   0  0  0  0  0  0  0  0  0  0  0  0
   27.7980  -21.0000   -7.4698 C   0  0  0  0  0  0  0  0  0  0  0  0
   26.5257  -20.6443   -7.8741 C   0  0  0  0  0  0  0  0  0  0  0  0
   26.2402  -20.4552   -9.2034 C   0  0  0  0  0  0  0  0  0  0  0  0
   27.2763  -20.6347  -10.1243 C   0  0  0  0  0  0  0  0  0  0  0  0
   24.4735  -20.9090  -13.8823 C   0  0  0  0  0  0  0  0  0  0  0  0
   24.2455  -20.0238  -14.7455 O   0  0  0  0  0  0  0  0  0  0  0  0
   23.3537  -21.6019  -13.3899 N   0  0  0  0  0  0  0  0  0  0  0  0
   22.0088  -21.3509  -13.9368 C   0  0  1  0  0  0  0  0  0  0  0  0
   21.1349  -22.5486  -13.7851 C   0  0  0  0  0  0  0  0  0  0  0  0
   20.2496  -22.4252  -12.6088 C   0  0  0  0  0  0  0  0  0  0  0  0
   20.1782  -21.3962  -11.8730 O   0  0  0  0  0  0  0  0  0  0  0  0
   21.4094  -20.1786  -13.3025 C   0  0  0  0  0  0  0  0  0  0  0  0
   20.3196  -19.7145  -13.6686 O   0  0  0  0  0  0  0  0  0  0  0  0
   19.3999  -23.4770  -12.2157 O   0  0  0  0  0  0  0  0  0  0  0  0
   22.0849  -19.5545  -12.2448 O   0  0  0  0  0  0  0  0  0  0  0  0
  2  1  1  6
  2  5  1  0
  3  2  1  0
  4  3  1  0
  5  7  1  0
  5  6  2  0
  7  8  1  0
  8  9  1  1
  9 10  1  0
 10 11  2  0
 11 12  1  0
 13 12  1  0
 14 13  2  0
 15 14  1  0
 16 17  1  0
 16 15  2  0
 17 18  2  0
 18 10  1  0
 18 13  1  0
 19  8  1  0
 19 21  1  0
 20 19  2  0
 22 23  1  1
 22 21  1  0
 22 26  1  0
 23 24  1  0
 24 28  1  0
 24 25  2  0
 26 29  1  0
 27 26  2  0
M  END
$$$$
