CWD.pdb
     RDKit          3D

 29 30  0  0  1  0  0  0  0  0999 V2000
   25.6494  -22.0797  -12.3265 N   0  0  0  0  0  0  0  0  0  0  0  0
   25.0398  -22.2127  -13.6380 C   0  0  1  0  0  0  0  0  0  0  0  0
   24.3364  -23.5611  -13.7651 C   0  0  0  0  0  0  0  0  0  0  0  0
   25.6176  -24.8096  -14.0952 S   0  0  0  0  0  0  0  0  0  0  0  0
   24.0872  -21.0960  -13.8358 C   0  0  0  0  0  0  0  0  0  0  0  0
   23.4205  -20.6363  -12.8629 O   0  0  0  0  0  0  0  0  0  0  0  0
   23.8513  -20.4749  -15.0754 N   0  0  0  0  0  0  0  0  0  0  0  0
   22.9126  -19.4381  -15.3447 C   0  0  1  0  0  0  0  0  0  0  0  0
   23.1089  -18.7001  -16.6215 C   0  0  0  0  0  0  0  0  0  0  0  0
   22.1541  -17.6141  -16.8780 C   0  0  0  0  0  0  0  0  0  0  0  0
   22.0637  -16.4642  -16.1259 C   0  0  0  0  0  0  0  0  0  0  0  0
   21.0901  -15.7008  -16.6415 N   0  0  0  0  0  0  0  0  0  0  0  0
   20.5611  -16.3368  -17.7006 C   0  0  0  0  0  0  0  0  0  0  0  0
   19.5379  -15.9716  -18.5661 C   0  0  0  0  0  0  0  0  0  0  0  0
   19.2009  -16.8534  -19.5941 C   0  0  0  0  0  0  0  0  0  0  0  0
   19.8605  -18.0568  -19.7535 C   0  0  0  0  0  0  0  0  0  0  0  0
   20.8719  -18.4199  -18.8995 C   0  0  0  0  0  0  0  0  0  0  0  0
   21.2063  -17.5337  -17.8715 C   0  0  0  0  0  0  0  0  0  0  0  0
   21.5611  -20.0567  -15.3967 C   0  0  0  0  0  0  0  0  0  0  0  0
   21.4149  -21.2092  -15.8773 O   0  0  0  0  0  0  0  0  0  0  0  0
   20.3953  -19.4235  -14.9311 N   0  0  0  0  0  0  0  0  0  0  0  0
   19.0894  -20.1028  -14.9945 C   0  0  1  0  0  0  0  0  0  0  0  0
   18.6243  -20.5009  -13.6357 C   0  0  0  0  0  0  0  0  0  0  0  0
   17.3621  -21.2659  -13.6999 C   0  0  0  0  0  0  0  0  0  0  0  0
   17.2045  -22.3297  -14.3699 O   0  0  0  0  0  0  0  0  0  0  0  0
   18.1033  -19.2542  -15.6603 C   0  0  0  0  0  0  0  0  0  0  0  0
   16.9563  -19.6497  -15.9151 O   0  0  0  0  0  0  0  0  0  0  0  0
   16.2145  -20.8493  -12.9983 O   0  0  0  0  0  0  0  0  0  0  0  0
   18.4611  -17.9490  -16.0249 O   0  0  0  0  0  0  0  0  0  0  0  0
  2  1  1  1
  2  5  1  0
  3  2  1  0
  4  3  1  0
  5  7  1  0
  5  6  2  0
  7  8  1  0
  8  9  1  6
  9 10  1  0
 10 11  2  0
 11 12  1  0
 13 12  1  0
 14 13  2  0
 15 14  1  0
 16 17  1  0
 16 15  2  0
 17 18  2  0
 18 10  1  0
 18 13  1  0
 19  8  1  0
 19 21  1  0
 20 19  2  0
 22 23  1  1
 22 21  1  0
 22 26  1  0
 23 24  1  0
 24 28  1  0
 24 25  2  0
 26 29  1  0
 27 26  2  0
M  END
$$$$
