CWD.pdb
     RDKit          3D

 29 30  0  0  1  0  0  0  0  0999 V2000
   29.0368  -23.2430  -16.7667 N   0  0  0  0  0  0  0  0  0  0  0  0
   27.9992  -22.2268  -16.7715 C   0  0  1  0  0  0  0  0  0  0  0  0
   27.1103  -22.3777  -18.0028 C   0  0  0  0  0  0  0  0  0  0  0  0
   27.8711  -21.4075  -19.3403 S   0  0  0  0  0  0  0  0  0  0  0  0
   27.2069  -22.3494  -15.5262 C   0  0  0  0  0  0  0  0  0  0  0  0
   26.9303  -23.4877  -15.0465 O   0  0  0  0  0  0  0  0  0  0  0  0
   26.7129  -21.2521  -14.7982 N   0  0  0  0  0  0  0  0  0  0  0  0
   25.9880  -21.2984  -13.5730 C   0  0  1  0  0  0  0  0  0  0  0  0
   26.2821  -20.2093  -12.6031 C   0  0  0  0  0  0  0  0  0  0  0  0
   27.3158  -20.5128  -11.6049 C   0  0  0  0  0  0  0  0  0  0  0  0
   28.6246  -20.8155  -11.9079 C   0  0  0  0  0  0  0  0  0  0  0  0
   29.2810  -21.0356  -10.7603 N   0  0  0  0  0  0  0  0  0  0  0  0
   28.4226  -20.8805   -9.7379 C   0  0  0  0  0  0  0  0  0  0  0  0
   28.6071  -20.9979   -8.3662 C   0  0  0  0  0  0  0  0  0  0  0  0
   27.5091  -20.7745   -7.5342 C   0  0  0  0  0  0  0  0  0  0  0  0
   26.2708  -20.4460   -8.0512 C   0  0  0  0  0  0  0  0  0  0  0  0
   26.0860  -20.3294   -9.4064 C   0  0  0  0  0  0  0  0  0  0  0  0
   27.1883  -20.5538  -10.2361 C   0  0  0  0  0  0  0  0  0  0  0  0
   24.5402  -21.2154  -13.9030 C   0  0  0  0  0  0  0  0  0  0  0  0
   24.1491  -20.4656  -14.8333 O   0  0  0  0  0  0  0  0  0  0  0  0
   23.5434  -21.9400  -13.2261 N   0  0  0  0  0  0  0  0  0  0  0  0
   22.1196  -21.7586  -13.5587 C   0  0  1  0  0  0  0  0  0  0  0  0
   21.3037  -22.9073  -13.0728 C   0  0  0  0  0  0  0  0  0  0  0  0
   19.8889  -22.7734  -13.4764 C   0  0  0  0  0  0  0  0  0  0  0  0
   19.4615  -21.9215  -14.3111 O   0  0  0  0  0  0  0  0  0  0  0  0
   21.6245  -20.4951  -13.0162 C   0  0  0  0  0  0  0  0  0  0  0  0
   22.0483  -20.0224  -11.9513 O   0  0  0  0  0  0  0  0  0  0  0  0
   18.8906  -23.6107  -12.9425 O   0  0  0  0  0  0  0  0  0  0  0  0
   20.6380  -19.7902  -13.7194 O   0  0  0  0  0  0  0  0  0  0  0  0
  2  1  1  1
  2  5  1  0
  3  2  1  0
  4  3  1  0
  5  7  1  0
  5  6  2  0
  7  8  1  0
  8  9  1  1
  9 10  1  0
 10 11  2  0
 11 12  1  0
 13 12  1  0
 14 13  2  0
 15 14  1  0
 16 17  1  0
 16 15  2  0
 17 18  2  0
 18 10  1  0
 18 13  1  0
 19  8  1  0
 19 21  1  0
 20 19  2  0
 22 23  1  1
 22 21  1  0
 22 26  1  0
 23 24  1  0
 24 28  1  0
 24 25  2  0
 26 29  1  0
 27 26  2  0
M  END
$$$$
