NSF.pdb
     RDKit          3D

 26 26  0  0  1  0  0  0  0  0999 V2000
    7.8556  -12.3410   19.0224 N   0  0  0  0  0  0  0  0  0  0  0  0
    7.9398  -13.3298   18.0008 C   0  0  0  0  0  0  0  0  0  0  0  0
    7.1693  -13.2528   17.0168 O   0  0  0  0  0  0  0  0  0  0  0  0
    8.9223  -14.4303   18.1068 C   0  0  0  0  0  0  0  0  0  0  0  0
    9.6652  -14.2544   19.4229 C   0  0  2  0  0  0  0  0  0  0  0  0
   10.8902  -15.0366   19.2797 N   0  0  0  0  0  0  0  0  0  0  0  0
    8.9030  -14.7978   20.5557 C   0  0  0  0  0  0  0  0  0  0  0  0
    7.8318  -14.2532   20.9333 O   0  0  0  0  0  0  0  0  0  0  0  0
    9.9287  -18.4995   22.3590 O   0  0  0  0  0  0  0  0  0  0  0  0
    8.6334  -18.0233   22.2575 C   0  0  0  0  0  0  0  0  0  0  0  0
    8.5899  -16.5056   22.3892 C   0  0  2  0  0  0  0  0  0  0  0  0
    9.3155  -15.9583   21.2914 N   0  0  0  0  0  0  0  0  0  0  0  0
    9.1249  -16.0781   23.7265 C   0  0  0  0  0  0  0  0  0  0  0  0
   10.2870  -15.5773   23.8028 O   0  0  0  0  0  0  0  0  0  0  0  0
    8.3667  -16.2174   24.9152 N   0  0  0  0  0  0  0  0  0  0  0  0
    8.8456  -15.9524   26.2337 C   0  0  1  0  0  0  0  0  0  0  0  0
    7.8436  -15.3098   27.1271 C   0  0  0  0  0  0  0  0  0  0  0  0
    7.4440  -13.9460   26.7600 C   0  0  0  0  0  0  0  0  0  0  0  0
    8.3064  -12.8766   26.9267 C   0  0  0  0  0  0  0  0  0  0  0  0
    7.9557  -11.5864   26.5764 C   0  0  0  0  0  0  0  0  0  0  0  0
    6.7088  -11.3455   26.0434 C   0  0  0  0  0  0  0  0  0  0  0  0
    5.8473  -12.3921   25.8746 C   0  0  0  0  0  0  0  0  0  0  0  0
    6.2053  -13.6847   26.2264 C   0  0  0  0  0  0  0  0  0  0  0  0
    9.6115  -17.0736   26.8312 C   0  0  0  0  0  0  0  0  0  0  0  0
    9.7434  -18.3340   26.2928 O   0  0  0  0  0  0  0  0  0  0  0  0
   10.1998  -16.8839   27.9236 O   0  0  0  0  0  0  0  0  0  0  0  0
  1  2  1  0
  2  4  1  0
  3  2  2  0
  4  5  1  0
  5  6  1  6
  7  5  1  0
  8  7  2  0
  9 10  1  0
 11 10  1  1
 11 13  1  0
 11 12  1  0
 12  7  1  0
 13 15  1  0
 14 13  2  0
 16 15  1  0
 16 24  1  0
 16 17  1  1
 18 17  1  0
 18 23  2  0
 19 18  1  0
 20 19  2  0
 20 21  1  0
 21 22  2  0
 22 23  1  0
 24 26  2  0
 24 25  1  0
M  END
$$$$
