NSF.pdb
     RDKit          3D

 26 26  0  0  1  0  0  0  0  0999 V2000
    7.6996  -12.3341   17.9061 N   0  0  0  0  0  0  0  0  0  0  0  0
    8.5483  -13.2338   18.6123 C   0  0  0  0  0  0  0  0  0  0  0  0
    9.5746  -13.6722   18.0443 O   0  0  0  0  0  0  0  0  0  0  0  0
    8.2165  -13.6432   19.9943 C   0  0  0  0  0  0  0  0  0  0  0  0
    8.2221  -15.1642   20.0341 C   0  0  2  0  0  0  0  0  0  0  0  0
    7.0337  -15.5721   19.2897 N   0  0  0  0  0  0  0  0  0  0  0  0
    8.1015  -15.6738   21.4073 C   0  0  0  0  0  0  0  0  0  0  0  0
    7.0762  -15.4314   22.0977 O   0  0  0  0  0  0  0  0  0  0  0  0
   11.0679  -18.1980   22.9805 O   0  0  0  0  0  0  0  0  0  0  0  0
    9.7320  -18.4003   23.2797 C   0  0  0  0  0  0  0  0  0  0  0  0
    8.9672  -17.0826   23.3156 C   0  0  2  0  0  0  0  0  0  0  0  0
    9.1177  -16.4639   22.0406 N   0  0  0  0  0  0  0  0  0  0  0  0
    9.4488  -16.2256   24.4518 C   0  0  0  0  0  0  0  0  0  0  0  0
   10.4654  -15.4861   24.2885 O   0  0  0  0  0  0  0  0  0  0  0  0
    8.7984  -16.2168   25.7104 N   0  0  0  0  0  0  0  0  0  0  0  0
    9.2754  -15.5509   26.8797 C   0  0  1  0  0  0  0  0  0  0  0  0
    8.2135  -14.8642   27.6646 C   0  0  0  0  0  0  0  0  0  0  0  0
    7.5990  -13.6971   27.0208 C   0  0  0  0  0  0  0  0  0  0  0  0
    8.3716  -12.7281   26.4048 C   0  0  0  0  0  0  0  0  0  0  0  0
    7.8136  -11.6277   25.7819 C   0  0  0  0  0  0  0  0  0  0  0  0
    6.4444  -11.4800   25.7684 C   0  0  0  0  0  0  0  0  0  0  0  0
    5.6700  -12.4287   26.3739 C   0  0  0  0  0  0  0  0  0  0  0  0
    6.2354  -13.5315   26.9958 C   0  0  0  0  0  0  0  0  0  0  0  0
   10.2441  -16.3478   27.6717 C   0  0  0  0  0  0  0  0  0  0  0  0
   10.6021  -17.6542   27.4249 O   0  0  0  0  0  0  0  0  0  0  0  0
   10.7998  -15.8083   28.6594 O   0  0  0  0  0  0  0  0  0  0  0  0
  1  2  1  0
  2  4  1  0
  3  2  2  0
  4  5  1  0
  5  6  1  6
  7  5  1  0
  8  7  2  0
  9 10  1  0
 11 10  1  6
 11 13  1  0
 11 12  1  0
 12  7  1  0
 13 15  1  0
 14 13  2  0
 16 15  1  0
 16 24  1  0
 16 17  1  1
 18 17  1  0
 18 23  2  0
 19 18  1  0
 20 19  2  0
 20 21  1  0
 21 22  2  0
 22 23  1  0
 24 26  2  0
 24 25  1  0
M  END
$$$$
