NSF.pdb
     RDKit          3D

 26 26  0  0  1  0  0  0  0  0999 V2000
    7.3559  -12.1232   17.8635 N   0  0  0  0  0  0  0  0  0  0  0  0
    8.2025  -12.8258   18.7680 C   0  0  0  0  0  0  0  0  0  0  0  0
    9.4406  -12.8026   18.5826 O   0  0  0  0  0  0  0  0  0  0  0  0
    7.6228  -13.5723   19.9057 C   0  0  0  0  0  0  0  0  0  0  0  0
    8.1684  -14.9914   19.8467 C   0  0  2  0  0  0  0  0  0  0  0  0
    7.4992  -15.6129   18.7070 N   0  0  0  0  0  0  0  0  0  0  0  0
    7.8267  -15.7571   21.0536 C   0  0  0  0  0  0  0  0  0  0  0  0
    6.6334  -15.8415   21.4479 O   0  0  0  0  0  0  0  0  0  0  0  0
   10.3580  -18.6467   22.6681 O   0  0  0  0  0  0  0  0  0  0  0  0
    8.9855  -18.6005   22.8388 C   0  0  0  0  0  0  0  0  0  0  0  0
    8.5001  -17.1693   23.0356 C   0  0  2  0  0  0  0  0  0  0  0  0
    8.8045  -16.4453   21.8463 N   0  0  0  0  0  0  0  0  0  0  0  0
    9.1147  -16.5703   24.2688 C   0  0  0  0  0  0  0  0  0  0  0  0
   10.2083  -15.9360   24.1762 O   0  0  0  0  0  0  0  0  0  0  0  0
    8.5068  -16.6921   25.5427 N   0  0  0  0  0  0  0  0  0  0  0  0
    9.0902  -16.2758   26.7773 C   0  0  1  0  0  0  0  0  0  0  0  0
    8.1987  -15.4297   27.6167 C   0  0  0  0  0  0  0  0  0  0  0  0
    7.8106  -14.1395   27.0344 C   0  0  0  0  0  0  0  0  0  0  0  0
    6.6283  -13.9976   26.3291 C   0  0  0  0  0  0  0  0  0  0  0  0
    6.2373  -12.7896   25.7831 C   0  0  0  0  0  0  0  0  0  0  0  0
    7.0434  -11.6840   25.9395 C   0  0  0  0  0  0  0  0  0  0  0  0
    8.2138  -11.8106   26.6326 C   0  0  0  0  0  0  0  0  0  0  0  0
    8.6002  -13.0247   27.1795 C   0  0  0  0  0  0  0  0  0  0  0  0
    9.8118  -17.3551   27.4949 C   0  0  0  0  0  0  0  0  0  0  0  0
   10.6951  -17.1770   28.5361 O   0  0  0  0  0  0  0  0  0  0  0  0
    9.6192  -18.5440   27.1416 O   0  0  0  0  0  0  0  0  0  0  0  0
  1  2  1  0
  2  4  1  0
  3  2  2  0
  4  5  1  0
  5  6  1  6
  7  5  1  0
  8  7  2  0
  9 10  1  0
 11 10  1  6
 11 13  1  0
 11 12  1  0
 12  7  1  0
 13 15  1  0
 14 13  2  0
 16 15  1  0
 16 24  1  0
 16 17  1  1
 18 17  1  0
 18 23  2  0
 19 18  1  0
 20 19  2  0
 20 21  1  0
 21 22  2  0
 22 23  1  0
 24 26  2  0
 24 25  1  0
M  END
$$$$
