NSF.pdb
     RDKit          3D

 26 26  0  0  1  0  0  0  0  0999 V2000
   15.9662  -15.4836   18.3342 N   0  0  0  0  0  0  0  0  0  0  0  0
   15.1269  -14.3335   18.3715 C   0  0  0  0  0  0  0  0  0  0  0  0
   15.4398  -13.3316   17.6887 O   0  0  0  0  0  0  0  0  0  0  0  0
   13.9071  -14.3268   19.2079 C   0  0  0  0  0  0  0  0  0  0  0  0
   13.0624  -15.5226   18.7936 C   0  0  2  0  0  0  0  0  0  0  0  0
   12.4408  -15.1343   17.5304 N   0  0  0  0  0  0  0  0  0  0  0  0
   11.9949  -15.7984   19.7652 C   0  0  0  0  0  0  0  0  0  0  0  0
   11.1365  -14.9207   20.0473 O   0  0  0  0  0  0  0  0  0  0  0  0
    9.6658  -19.1734   22.3788 O   0  0  0  0  0  0  0  0  0  0  0  0
   10.6327  -18.8281   21.4509 C   0  0  0  0  0  0  0  0  0  0  0  0
   10.8737  -17.3234   21.4365 C   0  0  2  0  0  0  0  0  0  0  0  0
   11.8593  -17.0557   20.4425 N   0  0  0  0  0  0  0  0  0  0  0  0
   11.2640  -16.8401   22.8045 C   0  0  0  0  0  0  0  0  0  0  0  0
   12.4847  -16.8521   23.1460 O   0  0  0  0  0  0  0  0  0  0  0  0
   10.3042  -16.3675   23.7334 N   0  0  0  0  0  0  0  0  0  0  0  0
   10.5582  -16.0871   25.1100 C   0  0  1  0  0  0  0  0  0  0  0  0
    9.8150  -14.9107   25.6383 C   0  0  0  0  0  0  0  0  0  0  0  0
    9.9759  -14.6470   27.0732 C   0  0  0  0  0  0  0  0  0  0  0  0
   11.1154  -14.0361   27.5668 C   0  0  0  0  0  0  0  0  0  0  0  0
   11.2825  -13.7670   28.9121 C   0  0  0  0  0  0  0  0  0  0  0  0
   10.2888  -14.1147   29.8000 C   0  0  0  0  0  0  0  0  0  0  0  0
    9.1592  -14.7195   29.3262 C   0  0  0  0  0  0  0  0  0  0  0  0
    8.9964  -14.9855   27.9750 C   0  0  0  0  0  0  0  0  0  0  0  0
   10.5557  -17.2898   25.9783 C   0  0  0  0  0  0  0  0  0  0  0  0
    9.5375  -18.2122   26.0709 O   0  0  0  0  0  0  0  0  0  0  0  0
   11.5566  -17.5091   26.7032 O   0  0  0  0  0  0  0  0  0  0  0  0
  1  2  1  0
  2  4  1  0
  3  2  2  0
  4  5  1  0
  5  6  1  6
  7  5  1  0
  8  7  2  0
  9 10  1  0
 11 10  1  1
 11 13  1  0
 11 12  1  0
 12  7  1  0
 13 15  1  0
 14 13  2  0
 16 15  1  0
 16 24  1  0
 16 17  1  1
 18 17  1  0
 18 23  2  0
 19 18  1  0
 20 19  2  0
 20 21  1  0
 21 22  2  0
 22 23  1  0
 24 26  2  0
 24 25  1  0
M  END
$$$$
