NSF.pdb
     RDKit          3D

 26 26  0  0  1  0  0  0  0  0999 V2000
    9.6188  -17.5306   17.0266 N   0  0  0  0  0  0  0  0  0  0  0  0
    9.7509  -18.1509   18.3019 C   0  0  0  0  0  0  0  0  0  0  0  0
    8.8073  -18.8492   18.7378 O   0  0  0  0  0  0  0  0  0  0  0  0
   10.9848  -17.9675   19.0966 C   0  0  0  0  0  0  0  0  0  0  0  0
   10.5762  -17.8698   20.5590 C   0  0  2  0  0  0  0  0  0  0  0  0
    9.4678  -18.8086   20.7114 N   0  0  0  0  0  0  0  0  0  0  0  0
   10.0899  -16.5257   20.9003 C   0  0  0  0  0  0  0  0  0  0  0  0
   10.8660  -15.5338   20.8781 O   0  0  0  0  0  0  0  0  0  0  0  0
    6.0720  -15.9597   21.8581 O   0  0  0  0  0  0  0  0  0  0  0  0
    6.7885  -14.8847   21.3618 C   0  0  0  0  0  0  0  0  0  0  0  0
    8.2648  -14.9883   21.7256 C   0  0  2  0  0  0  0  0  0  0  0  0
    8.7308  -16.2565   21.2723 N   0  0  0  0  0  0  0  0  0  0  0  0
    8.4592  -14.7769   23.2004 C   0  0  0  0  0  0  0  0  0  0  0  0
    8.0281  -13.7143   23.7409 O   0  0  0  0  0  0  0  0  0  0  0  0
    9.1140  -15.7345   24.0137 N   0  0  0  0  0  0  0  0  0  0  0  0
    9.0762  -15.7675   25.4405 C   0  0  1  0  0  0  0  0  0  0  0  0
    7.7197  -15.5633   26.0179 C   0  0  0  0  0  0  0  0  0  0  0  0
    7.3492  -14.1710   26.2982 C   0  0  0  0  0  0  0  0  0  0  0  0
    6.0512  -13.7247   26.1209 C   0  0  0  0  0  0  0  0  0  0  0  0
    5.6775  -12.4216   26.3904 C   0  0  0  0  0  0  0  0  0  0  0  0
    6.6200  -11.5290   26.8505 C   0  0  0  0  0  0  0  0  0  0  0  0
    7.9052  -11.9562   27.0288 C   0  0  0  0  0  0  0  0  0  0  0  0
    8.2740  -13.2653   26.7583 C   0  0  0  0  0  0  0  0  0  0  0  0
    9.8672  -16.8716   26.0369 C   0  0  0  0  0  0  0  0  0  0  0  0
   10.4932  -17.8801   25.3389 O   0  0  0  0  0  0  0  0  0  0  0  0
    9.9920  -16.9147   27.2851 O   0  0  0  0  0  0  0  0  0  0  0  0
  1  2  1  0
  2  4  1  0
  3  2  2  0
  4  5  1  0
  5  6  1  6
  7  5  1  0
  8  7  2  0
  9 10  1  0
 11 10  1  1
 11 13  1  0
 11 12  1  0
 12  7  1  0
 13 15  1  0
 14 13  2  0
 16 15  1  0
 16 24  1  0
 16 17  1  6
 18 17  1  0
 18 23  2  0
 19 18  1  0
 20 19  2  0
 20 21  1  0
 21 22  2  0
 22 23  1  0
 24 26  2  0
 24 25  1  0
M  END
$$$$
