NSF.pdb
     RDKit          3D

 26 26  0  0  1  0  0  0  0  0999 V2000
    8.0578  -12.0182   17.7179 N   0  0  0  0  0  0  0  0  0  0  0  0
    7.9140  -13.4299   17.8410 C   0  0  0  0  0  0  0  0  0  0  0  0
    8.2594  -14.1607   16.8847 O   0  0  0  0  0  0  0  0  0  0  0  0
    7.3619  -14.0183   19.0806 C   0  0  0  0  0  0  0  0  0  0  0  0
    8.5214  -14.2259   20.0437 C   0  0  2  0  0  0  0  0  0  0  0  0
    9.4192  -15.1589   19.3681 N   0  0  0  0  0  0  0  0  0  0  0  0
    8.0803  -14.8428   21.3025 C   0  0  0  0  0  0  0  0  0  0  0  0
    7.3498  -14.2097   22.1101 O   0  0  0  0  0  0  0  0  0  0  0  0
    9.5756  -18.5841   22.4752 O   0  0  0  0  0  0  0  0  0  0  0  0
    8.2560  -18.2886   22.7690 C   0  0  0  0  0  0  0  0  0  0  0  0
    8.0444  -16.7863   22.9141 C   0  0  2  0  0  0  0  0  0  0  0  0
    8.4416  -16.1763   21.6889 N   0  0  0  0  0  0  0  0  0  0  0  0
    8.7920  -16.2627   24.1076 C   0  0  0  0  0  0  0  0  0  0  0  0
    9.9083  -15.6856   23.9409 O   0  0  0  0  0  0  0  0  0  0  0  0
    8.2860  -16.3940   25.4244 N   0  0  0  0  0  0  0  0  0  0  0  0
    8.9812  -16.0234   26.6150 C   0  0  1  0  0  0  0  0  0  0  0  0
    8.2440  -15.0570   27.4739 C   0  0  0  0  0  0  0  0  0  0  0  0
    7.7027  -13.8780   26.7875 C   0  0  0  0  0  0  0  0  0  0  0  0
    6.3960  -13.8501   26.3322 C   0  0  0  0  0  0  0  0  0  0  0  0
    5.8620  -12.7463   25.6945 C   0  0  0  0  0  0  0  0  0  0  0  0
    6.6473  -11.6318   25.4999 C   0  0  0  0  0  0  0  0  0  0  0  0
    7.9393  -11.6465   25.9434 C   0  0  0  0  0  0  0  0  0  0  0  0
    8.4692  -12.7563   26.5840 C   0  0  0  0  0  0  0  0  0  0  0  0
    9.6064  -17.1656   27.3257 C   0  0  0  0  0  0  0  0  0  0  0  0
    9.4430  -18.4957   27.0095 O   0  0  0  0  0  0  0  0  0  0  0  0
   10.3536  -16.9267   28.3055 O   0  0  0  0  0  0  0  0  0  0  0  0
  1  2  1  0
  2  4  1  0
  3  2  2  0
  4  5  1  0
  5  6  1  6
  7  5  1  0
  8  7  2  0
  9 10  1  0
 11 10  1  6
 11 13  1  0
 11 12  1  0
 12  7  1  0
 13 15  1  0
 14 13  2  0
 16 15  1  0
 16 24  1  0
 16 17  1  1
 18 17  1  0
 18 23  2  0
 19 18  1  0
 20 19  2  0
 20 21  1  0
 21 22  2  0
 22 23  1  0
 24 26  2  0
 24 25  1  0
M  END
$$$$
