NSF.pdb
     RDKit          3D

 26 26  0  0  1  0  0  0  0  0999 V2000
    7.1021  -13.4459   16.0976 N   0  0  0  0  0  0  0  0  0  0  0  0
    8.0897  -13.6416   17.1051 C   0  0  0  0  0  0  0  0  0  0  0  0
    9.2884  -13.7629   16.7643 O   0  0  0  0  0  0  0  0  0  0  0  0
    7.6996  -13.7027   18.5305 C   0  0  0  0  0  0  0  0  0  0  0  0
    8.4450  -14.8710   19.1586 C   0  0  2  0  0  0  0  0  0  0  0  0
    8.0483  -16.0420   18.3813 N   0  0  0  0  0  0  0  0  0  0  0  0
    8.0408  -15.0878   20.5548 C   0  0  0  0  0  0  0  0  0  0  0  0
    8.1304  -14.1617   21.4038 O   0  0  0  0  0  0  0  0  0  0  0  0
    7.6041  -18.9304   22.2787 O   0  0  0  0  0  0  0  0  0  0  0  0
    6.5999  -17.9971   22.4674 C   0  0  0  0  0  0  0  0  0  0  0  0
    7.1434  -16.5755   22.3871 C   0  0  2  0  0  0  0  0  0  0  0  0
    7.5278  -16.3384   21.0354 N   0  0  0  0  0  0  0  0  0  0  0  0
    8.2676  -16.3862   23.3658 C   0  0  0  0  0  0  0  0  0  0  0  0
    9.4654  -16.5282   22.9757 O   0  0  0  0  0  0  0  0  0  0  0  0
    8.0308  -16.0513   24.7219 N   0  0  0  0  0  0  0  0  0  0  0  0
    9.0345  -15.9444   25.7315 C   0  0  1  0  0  0  0  0  0  0  0  0
    9.4655  -14.5483   26.0154 C   0  0  0  0  0  0  0  0  0  0  0  0
    8.3847  -13.5721   26.1978 C   0  0  0  0  0  0  0  0  0  0  0  0
    7.6648  -13.0893   25.1189 C   0  0  0  0  0  0  0  0  0  0  0  0
    6.6353  -12.1794   25.2687 C   0  0  0  0  0  0  0  0  0  0  0  0
    6.3068  -11.7311   26.5288 C   0  0  0  0  0  0  0  0  0  0  0  0
    7.0103  -12.1987   27.6023 C   0  0  0  0  0  0  0  0  0  0  0  0
    8.0412  -13.1128   27.4461 C   0  0  0  0  0  0  0  0  0  0  0  0
    8.7812  -16.7918   26.9224 C   0  0  0  0  0  0  0  0  0  0  0  0
    9.6702  -17.0227   27.9484 O   0  0  0  0  0  0  0  0  0  0  0  0
    7.6675  -17.3606   27.0287 O   0  0  0  0  0  0  0  0  0  0  0  0
  1  2  1  0
  2  4  1  0
  3  2  2  0
  4  5  1  0
  5  6  1  6
  7  5  1  0
  8  7  2  0
  9 10  1  0
 11 10  1  6
 11 13  1  0
 11 12  1  0
 12  7  1  0
 13 15  1  0
 14 13  2  0
 16 15  1  0
 16 24  1  0
 16 17  1  1
 18 17  1  0
 18 23  2  0
 19 18  1  0
 20 19  2  0
 20 21  1  0
 21 22  2  0
 22 23  1  0
 24 26  2  0
 24 25  1  0
M  END
$$$$
