NSF.pdb
     RDKit          3D

 26 26  0  0  1  0  0  0  0  0999 V2000
    7.0055  -14.4751   15.9204 N   0  0  0  0  0  0  0  0  0  0  0  0
    8.1663  -14.0453   16.6249 C   0  0  0  0  0  0  0  0  0  0  0  0
    9.2863  -14.4792   16.2708 O   0  0  0  0  0  0  0  0  0  0  0  0
    8.0450  -13.1031   17.7584 C   0  0  0  0  0  0  0  0  0  0  0  0
    9.1417  -13.4449   18.7562 C   0  0  2  0  0  0  0  0  0  0  0  0
   10.1728  -14.1237   17.9757 N   0  0  0  0  0  0  0  0  0  0  0  0
    8.6657  -14.3715   19.7928 C   0  0  0  0  0  0  0  0  0  0  0  0
    7.7473  -14.0352   20.5865 O   0  0  0  0  0  0  0  0  0  0  0  0
   10.9200  -17.8386   21.0213 O   0  0  0  0  0  0  0  0  0  0  0  0
    9.5514  -17.8846   20.8213 C   0  0  0  0  0  0  0  0  0  0  0  0
    8.9079  -16.5282   21.0835 C   0  0  2  0  0  0  0  0  0  0  0  0
    9.2004  -15.6911   19.9678 N   0  0  0  0  0  0  0  0  0  0  0  0
    9.3861  -15.9631   22.3910 C   0  0  0  0  0  0  0  0  0  0  0  0
   10.2429  -15.0289   22.3911 O   0  0  0  0  0  0  0  0  0  0  0  0
    8.9066  -16.4443   23.6343 N   0  0  0  0  0  0  0  0  0  0  0  0
    8.5333  -15.6286   24.7449 C   0  0  1  0  0  0  0  0  0  0  0  0
    7.7515  -14.4175   24.3745 C   0  0  0  0  0  0  0  0  0  0  0  0
    7.2955  -13.5858   25.4946 C   0  0  0  0  0  0  0  0  0  0  0  0
    5.9537  -13.2984   25.6748 C   0  0  0  0  0  0  0  0  0  0  0  0
    5.5011  -12.5279   26.7292 C   0  0  0  0  0  0  0  0  0  0  0  0
    6.4065  -12.0238   27.6363 C   0  0  0  0  0  0  0  0  0  0  0  0
    7.7341  -12.2989   27.4694 C   0  0  0  0  0  0  0  0  0  0  0  0
    8.1823  -13.0739   26.4104 C   0  0  0  0  0  0  0  0  0  0  0  0
    8.0174  -16.3943   25.9060 C   0  0  0  0  0  0  0  0  0  0  0  0
    6.8255  -17.0824   25.9496 O   0  0  0  0  0  0  0  0  0  0  0  0
    8.7076  -16.4339   26.9536 O   0  0  0  0  0  0  0  0  0  0  0  0
  1  2  1  0
  2  4  1  0
  3  2  2  0
  4  5  1  0
  5  6  1  6
  7  5  1  0
  8  7  2  0
  9 10  1  0
 11 10  1  6
 11 13  1  0
 11 12  1  0
 12  7  1  0
 13 15  1  0
 14 13  2  0
 16 15  1  0
 16 24  1  0
 16 17  1  6
 18 17  1  0
 18 23  2  0
 19 18  1  0
 20 19  2  0
 20 21  1  0
 21 22  2  0
 22 23  1  0
 24 26  2  0
 24 25  1  0
M  END
$$$$
