NSF.pdb
     RDKit          3D

 26 26  0  0  1  0  0  0  0  0999 V2000
    7.3502  -12.9003   17.0207 N   0  0  0  0  0  0  0  0  0  0  0  0
    8.4306  -13.5198   17.7118 C   0  0  0  0  0  0  0  0  0  0  0  0
    9.5472  -13.5944   17.1500 O   0  0  0  0  0  0  0  0  0  0  0  0
    8.2307  -14.0674   19.0711 C   0  0  0  0  0  0  0  0  0  0  0  0
    8.6488  -15.5300   19.0406 C   0  0  2  0  0  0  0  0  0  0  0  0
    7.6467  -16.1986   18.2150 N   0  0  0  0  0  0  0  0  0  0  0  0
    8.6176  -16.1337   20.3801 C   0  0  0  0  0  0  0  0  0  0  0  0
    7.6919  -15.8606   21.1895 O   0  0  0  0  0  0  0  0  0  0  0  0
   11.9311  -18.3379   22.0209 O   0  0  0  0  0  0  0  0  0  0  0  0
   10.6209  -18.7585   22.1675 C   0  0  0  0  0  0  0  0  0  0  0  0
    9.6577  -17.5774   22.1717 C   0  0  2  0  0  0  0  0  0  0  0  0
    9.6142  -17.0540   20.8468 N   0  0  0  0  0  0  0  0  0  0  0  0
   10.0750  -16.5621   23.1975 C   0  0  0  0  0  0  0  0  0  0  0  0
   10.7160  -15.5316   22.8311 O   0  0  0  0  0  0  0  0  0  0  0  0
    9.7729  -16.7199   24.5727 N   0  0  0  0  0  0  0  0  0  0  0  0
    9.2800  -15.6913   25.4314 C   0  0  1  0  0  0  0  0  0  0  0  0
    8.2719  -14.7996   24.7959 C   0  0  0  0  0  0  0  0  0  0  0  0
    7.8045  -13.6777   25.6188 C   0  0  0  0  0  0  0  0  0  0  0  0
    6.4557  -13.3947   25.7458 C   0  0  0  0  0  0  0  0  0  0  0  0
    5.9927  -12.3512   26.5250 C   0  0  0  0  0  0  0  0  0  0  0  0
    6.8945  -11.5601   27.2013 C   0  0  0  0  0  0  0  0  0  0  0  0
    8.2289  -11.8278   27.0835 C   0  0  0  0  0  0  0  0  0  0  0  0
    8.6876  -12.8771   26.3016 C   0  0  0  0  0  0  0  0  0  0  0  0
    8.9505  -16.1583   26.8003 C   0  0  0  0  0  0  0  0  0  0  0  0
    9.5381  -15.7148   27.9640 O   0  0  0  0  0  0  0  0  0  0  0  0
    8.0627  -17.0347   26.9383 O   0  0  0  0  0  0  0  0  0  0  0  0
  1  2  1  0
  2  4  1  0
  3  2  2  0
  4  5  1  0
  5  6  1  6
  7  5  1  0
  8  7  2  0
  9 10  1  0
 11 10  1  6
 11 13  1  0
 11 12  1  0
 12  7  1  0
 13 15  1  0
 14 13  2  0
 16 15  1  0
 16 24  1  0
 16 17  1  6
 18 17  1  0
 18 23  2  0
 19 18  1  0
 20 19  2  0
 20 21  1  0
 21 22  2  0
 22 23  1  0
 24 26  2  0
 24 25  1  0
M  END
$$$$
