NSF.pdb
     RDKit          3D

 26 26  0  0  1  0  0  0  0  0999 V2000
    8.2025  -11.7652   18.5427 N   0  0  0  0  0  0  0  0  0  0  0  0
    7.8356  -13.0838   18.1485 C   0  0  0  0  0  0  0  0  0  0  0  0
    7.9390  -13.4078   16.9434 O   0  0  0  0  0  0  0  0  0  0  0  0
    7.3381  -14.0508   19.1509 C   0  0  0  0  0  0  0  0  0  0  0  0
    8.5176  -14.9100   19.5818 C   0  0  2  0  0  0  0  0  0  0  0  0
    8.7389  -15.8398   18.4776 N   0  0  0  0  0  0  0  0  0  0  0  0
    8.2100  -15.6928   20.7869 C   0  0  0  0  0  0  0  0  0  0  0  0
    7.0488  -16.1373   20.9887 O   0  0  0  0  0  0  0  0  0  0  0  0
   10.8893  -18.0666   22.4038 O   0  0  0  0  0  0  0  0  0  0  0  0
    9.5419  -18.1678   22.7027 C   0  0  0  0  0  0  0  0  0  0  0  0
    8.9239  -16.7957   22.9433 C   0  0  2  0  0  0  0  0  0  0  0  0
    9.1872  -15.9981   21.7918 N   0  0  0  0  0  0  0  0  0  0  0  0
    9.4539  -16.1957   24.2147 C   0  0  0  0  0  0  0  0  0  0  0  0
   10.5435  -15.5482   24.1925 O   0  0  0  0  0  0  0  0  0  0  0  0
    8.7700  -16.3310   25.4481 N   0  0  0  0  0  0  0  0  0  0  0  0
    9.2962  -15.9720   26.7257 C   0  0  1  0  0  0  0  0  0  0  0  0
    8.3493  -15.2045   27.5798 C   0  0  0  0  0  0  0  0  0  0  0  0
    7.7859  -13.9912   26.9757 C   0  0  0  0  0  0  0  0  0  0  0  0
    8.5037  -12.8084   26.9392 C   0  0  0  0  0  0  0  0  0  0  0  0
    7.9978  -11.6577   26.3646 C   0  0  0  0  0  0  0  0  0  0  0  0
    6.7385  -11.6771   25.8074 C   0  0  0  0  0  0  0  0  0  0  0  0
    6.0187  -12.8378   25.8378 C   0  0  0  0  0  0  0  0  0  0  0  0
    6.5321  -13.9897   26.4143 C   0  0  0  0  0  0  0  0  0  0  0  0
   10.0261  -17.0704   27.4049 C   0  0  0  0  0  0  0  0  0  0  0  0
   10.1017  -18.3746   26.9700 O   0  0  0  0  0  0  0  0  0  0  0  0
   10.6360  -16.8161   28.4721 O   0  0  0  0  0  0  0  0  0  0  0  0
  1  2  1  0
  2  4  1  0
  3  2  2  0
  4  5  1  0
  5  6  1  6
  7  5  1  0
  8  7  2  0
  9 10  1  0
 11 10  1  6
 11 13  1  0
 11 12  1  0
 12  7  1  0
 13 15  1  0
 14 13  2  0
 16 15  1  0
 16 24  1  0
 16 17  1  1
 18 17  1  0
 18 23  2  0
 19 18  1  0
 20 19  2  0
 20 21  1  0
 21 22  2  0
 22 23  1  0
 24 26  2  0
 24 25  1  0
M  END
$$$$
