NSF.pdb
     RDKit          3D

 26 26  0  0  1  0  0  0  0  0999 V2000
   12.5479  -18.6139   17.7279 N   0  0  0  0  0  0  0  0  0  0  0  0
   11.3099  -18.9126   18.3658 C   0  0  0  0  0  0  0  0  0  0  0  0
   11.0095  -20.1097   18.5770 O   0  0  0  0  0  0  0  0  0  0  0  0
   10.3955  -17.8219   18.7680 C   0  0  0  0  0  0  0  0  0  0  0  0
   10.2347  -17.8943   20.2792 C   0  0  2  0  0  0  0  0  0  0  0  0
    9.1480  -18.8436   20.5047 N   0  0  0  0  0  0  0  0  0  0  0  0
    9.8380  -16.5985   20.8477 C   0  0  0  0  0  0  0  0  0  0  0  0
   10.7047  -15.7460   21.1773 O   0  0  0  0  0  0  0  0  0  0  0  0
    5.8144  -15.7953   21.6849 O   0  0  0  0  0  0  0  0  0  0  0  0
    6.5930  -14.7658   21.1858 C   0  0  0  0  0  0  0  0  0  0  0  0
    8.0597  -14.9517   21.5559 C   0  0  2  0  0  0  0  0  0  0  0  0
    8.4698  -16.2236   21.0605 N   0  0  0  0  0  0  0  0  0  0  0  0
    8.2509  -14.8025   23.0386 C   0  0  0  0  0  0  0  0  0  0  0  0
    7.9200  -13.7176   23.6047 O   0  0  0  0  0  0  0  0  0  0  0  0
    8.7937  -15.8435   23.8317 N   0  0  0  0  0  0  0  0  0  0  0  0
    8.9639  -15.7968   25.2484 C   0  0  1  0  0  0  0  0  0  0  0  0
    7.7169  -15.4910   26.0012 C   0  0  0  0  0  0  0  0  0  0  0  0
    7.4455  -14.0674   26.2335 C   0  0  0  0  0  0  0  0  0  0  0  0
    6.1574  -13.5642   26.1762 C   0  0  0  0  0  0  0  0  0  0  0  0
    5.8775  -12.2300   26.4038 C   0  0  0  0  0  0  0  0  0  0  0  0
    6.9068  -11.3634   26.6975 C   0  0  0  0  0  0  0  0  0  0  0  0
    8.1832  -11.8468   26.7561 C   0  0  0  0  0  0  0  0  0  0  0  0
    8.4578  -13.1868   26.5284 C   0  0  0  0  0  0  0  0  0  0  0  0
    9.7848  -16.9066   25.7917 C   0  0  0  0  0  0  0  0  0  0  0  0
   10.3370  -17.9321   25.0572 O   0  0  0  0  0  0  0  0  0  0  0  0
   10.0103  -16.9381   27.0260 O   0  0  0  0  0  0  0  0  0  0  0  0
  1  2  1  0
  2  4  1  0
  3  2  2  0
  4  5  1  0
  5  6  1  6
  7  5  1  0
  8  7  2  0
  9 10  1  0
 11 10  1  1
 11 13  1  0
 11 12  1  0
 12  7  1  0
 13 15  1  0
 14 13  2  0
 16 15  1  0
 16 24  1  0
 16 17  1  1
 18 17  1  0
 18 23  2  0
 19 18  1  0
 20 19  2  0
 20 21  1  0
 21 22  2  0
 22 23  1  0
 24 26  2  0
 24 25  1  0
M  END
$$$$
