NEH.pdb
     RDKit          3D

 28 28  0  0  1  0  0  0  0  0999 V2000
   28.3433  -23.2765  -17.0120 N   0  0  0  0  0  0  0  0  0  0  0  0
   27.8849  -21.9919  -17.3358 C   0  0  0  0  0  0  0  0  0  0  0  0
   28.6445  -21.2276  -17.9807 O   0  0  0  0  0  0  0  0  0  0  0  0
   26.5587  -21.4726  -16.9668 C   0  0  0  0  0  0  0  0  0  0  0  0
   25.7964  -22.4787  -16.0919 C   0  0  2  0  0  0  0  0  0  0  0  0
   26.1191  -23.8356  -16.4827 N   0  0  0  0  0  0  0  0  0  0  0  0
   24.3653  -22.2461  -16.3684 C   0  0  0  0  0  0  0  0  0  0  0  0
   23.9153  -21.0832  -16.2932 O   0  0  0  0  0  0  0  0  0  0  0  0
   23.5537  -23.3524  -16.7095 N   0  0  0  0  0  0  0  0  0  0  0  0
   22.1650  -23.1360  -17.0023 C   0  0  1  0  0  0  0  0  0  0  0  0
   21.5505  -24.2848  -17.7703 C   0  0  0  0  0  0  0  0  0  0  0  0
   20.1264  -24.0020  -18.1746 C   0  0  0  0  0  0  0  0  0  0  0  0
   19.6090  -25.1978  -18.8895 C   0  0  0  0  0  0  0  0  0  0  0  0
   18.3788  -25.4818  -18.9368 O   0  0  0  0  0  0  0  0  0  0  0  0
   21.4492  -22.8405  -15.7573 C   0  0  0  0  0  0  0  0  0  0  0  0
   21.5790  -23.5749  -14.7604 O   0  0  0  0  0  0  0  0  0  0  0  0
   20.4650  -26.0822  -19.5553 O   0  0  0  0  0  0  0  0  0  0  0  0
   20.6050  -21.7132  -15.6875 N   0  0  0  0  0  0  0  0  0  0  0  0
   19.9893  -21.4013  -14.3976 C   0  0  1  0  0  0  0  0  0  0  0  0
   20.7224  -20.1942  -13.8693 C   0  0  0  0  0  0  0  0  0  0  0  0
   21.9331  -20.6195  -13.1393 C   0  0  0  0  0  0  0  0  0  0  0  0
   22.3677  -21.8786  -12.8693 C   0  0  0  0  0  0  0  0  0  0  0  0
   23.5256  -21.7940  -12.1637 N   0  0  0  0  0  0  0  0  0  0  0  0
   23.8074  -20.5058  -11.9969 C   0  0  0  0  0  0  0  0  0  0  0  0
   22.8534  -19.7895  -12.5813 N   0  0  0  0  0  0  0  0  0  0  0  0
   18.5580  -21.1581  -14.6200 C   0  0  0  0  0  0  0  0  0  0  0  0
   18.1453  -20.8205  -15.7516 O   0  0  0  0  0  0  0  0  0  0  0  0
   17.6611  -21.3008  -13.5826 O   0  0  0  0  0  0  0  0  0  0  0  0
  2  3  2  0
  2  1  1  0
  4  2  1  0
  5  7  1  0
  5  4  1  0
  5  6  1  6
  7  8  2  0
  9  7  1  0
  9 10  1  0
 10 11  1  1
 12 11  1  0
 13 17  1  0
 13 12  1  0
 14 13  2  0
 15 18  1  0
 15 10  1  0
 16 15  2  0
 19 26  1  0
 19 20  1  6
 19 18  1  0
 21 22  2  0
 21 20  1  0
 23 22  1  0
 24 25  2  0
 24 23  1  0
 25 21  1  0
 26 28  1  0
 27 26  2  0
M  END
$$$$
