NEH.pdb
     RDKit          3D

 28 28  0  0  1  0  0  0  0  0999 V2000
   13.9923  -11.0073  -14.3465 N   0  0  0  0  0  0  0  0  0  0  0  0
   15.1380  -11.1606  -15.1397 C   0  0  0  0  0  0  0  0  0  0  0  0
   15.0198  -11.6981  -16.2685 O   0  0  0  0  0  0  0  0  0  0  0  0
   16.4850  -10.7293  -14.7345 C   0  0  0  0  0  0  0  0  0  0  0  0
   17.5385  -11.1761  -15.7589 C   0  0  2  0  0  0  0  0  0  0  0  0
   17.8583  -12.5771  -15.5778 N   0  0  0  0  0  0  0  0  0  0  0  0
   18.7477  -10.3838  -15.4611 C   0  0  0  0  0  0  0  0  0  0  0  0
   19.2219  -10.4139  -14.3057 O   0  0  0  0  0  0  0  0  0  0  0  0
   19.3267   -9.6174  -16.4985 N   0  0  0  0  0  0  0  0  0  0  0  0
   20.4914   -8.8267  -16.2163 C   0  0  1  0  0  0  0  0  0  0  0  0
   21.2464   -8.4425  -17.4690 C   0  0  0  0  0  0  0  0  0  0  0  0
   21.8980   -9.6310  -18.1280 C   0  0  0  0  0  0  0  0  0  0  0  0
   22.5272   -9.1645  -19.3909 C   0  0  0  0  0  0  0  0  0  0  0  0
   21.9573   -8.3542  -20.1752 O   0  0  0  0  0  0  0  0  0  0  0  0
   20.1028   -7.6648  -15.4110 C   0  0  0  0  0  0  0  0  0  0  0  0
   19.0199   -7.0849  -15.6137 O   0  0  0  0  0  0  0  0  0  0  0  0
   23.7972   -9.6020  -19.7834 O   0  0  0  0  0  0  0  0  0  0  0  0
   20.9638   -7.1986  -14.3963 N   0  0  0  0  0  0  0  0  0  0  0  0
   20.5498   -6.0162  -13.6407 C   0  0  1  0  0  0  0  0  0  0  0  0
   20.0282   -6.5285  -12.3220 C   0  0  0  0  0  0  0  0  0  0  0  0
   19.5998   -5.3972  -11.4758 C   0  0  0  0  0  0  0  0  0  0  0  0
   19.6833   -4.0643  -11.7281 C   0  0  0  0  0  0  0  0  0  0  0  0
   19.1746   -3.3905  -10.6637 N   0  0  0  0  0  0  0  0  0  0  0  0
   18.7814   -4.2869   -9.7645 C   0  0  0  0  0  0  0  0  0  0  0  0
   19.0334   -5.4996  -10.2446 N   0  0  0  0  0  0  0  0  0  0  0  0
   21.7142   -5.1322  -13.4989 C   0  0  0  0  0  0  0  0  0  0  0  0
   21.5957   -4.0202  -12.9384 O   0  0  0  0  0  0  0  0  0  0  0  0
   22.9445   -5.5232  -13.9829 O   0  0  0  0  0  0  0  0  0  0  0  0
  2  3  2  0
  2  1  1  0
  4  2  1  0
  5  7  1  0
  5  4  1  0
  5  6  1  1
  7  8  2  0
  9  7  1  0
  9 10  1  0
 10 11  1  6
 12 11  1  0
 13 17  1  0
 13 12  1  0
 14 13  2  0
 15 18  1  0
 15 10  1  0
 16 15  2  0
 19 26  1  0
 19 20  1  1
 19 18  1  0
 21 22  2  0
 21 20  1  0
 23 22  1  0
 24 25  2  0
 24 23  1  0
 25 21  1  0
 26 28  1  0
 27 26  2  0
M  END
$$$$
