NEH.pdb
     RDKit          3D

 28 28  0  0  1  0  0  0  0  0999 V2000
   12.8650   -6.0457   -7.1408 N   0  0  0  0  0  0  0  0  0  0  0  0
   12.9597   -7.4431   -7.0831 C   0  0  0  0  0  0  0  0  0  0  0  0
   12.0692   -8.0809   -6.4689 O   0  0  0  0  0  0  0  0  0  0  0  0
   14.0443   -8.2220   -7.7007 C   0  0  0  0  0  0  0  0  0  0  0  0
   15.0946   -7.2982   -8.3349 C   0  0  2  0  0  0  0  0  0  0  0  0
   14.4511   -6.2524   -9.1030 N   0  0  0  0  0  0  0  0  0  0  0  0
   15.8653   -8.1468   -9.2645 C   0  0  0  0  0  0  0  0  0  0  0  0
   16.5779   -9.0617   -8.7999 O   0  0  0  0  0  0  0  0  0  0  0  0
   15.7681   -7.8919  -10.6518 N   0  0  0  0  0  0  0  0  0  0  0  0
   16.5916   -8.6404  -11.5589 C   0  0  1  0  0  0  0  0  0  0  0  0
   15.7815   -9.5308  -12.4743 C   0  0  0  0  0  0  0  0  0  0  0  0
   16.6538  -10.3431  -13.3966 C   0  0  0  0  0  0  0  0  0  0  0  0
   15.7653  -11.1663  -14.2576 C   0  0  0  0  0  0  0  0  0  0  0  0
   14.5053  -11.1135  -14.1808 O   0  0  0  0  0  0  0  0  0  0  0  0
   17.4635   -7.7180  -12.2929 C   0  0  0  0  0  0  0  0  0  0  0  0
   17.0331   -6.6211  -12.6946 O   0  0  0  0  0  0  0  0  0  0  0  0
   16.2815  -12.0531  -15.2091 O   0  0  0  0  0  0  0  0  0  0  0  0
   18.8035   -8.0763  -12.5468 N   0  0  0  0  0  0  0  0  0  0  0  0
   19.6411   -7.1169  -13.2667 C   0  0  1  0  0  0  0  0  0  0  0  0
   21.0670   -7.5171  -12.9838 C   0  0  0  0  0  0  0  0  0  0  0  0
   21.9934   -6.6407  -13.7275 C   0  0  0  0  0  0  0  0  0  0  0  0
   22.3481   -5.3554  -13.4636 C   0  0  0  0  0  0  0  0  0  0  0  0
   23.2208   -4.9431  -14.4196 N   0  0  0  0  0  0  0  0  0  0  0  0
   23.4066   -5.9527  -15.2640 C   0  0  0  0  0  0  0  0  0  0  0  0
   22.6710   -6.9807  -14.8555 N   0  0  0  0  0  0  0  0  0  0  0  0
   19.2927   -7.1837  -14.6920 C   0  0  0  0  0  0  0  0  0  0  0  0
   18.9467   -8.2708  -15.2051 O   0  0  0  0  0  0  0  0  0  0  0  0
   19.3450   -6.0484  -15.4725 O   0  0  0  0  0  0  0  0  0  0  0  0
  2  3  2  0
  2  1  1  0
  4  2  1  0
  5  7  1  0
  5  4  1  0
  5  6  1  6
  7  8  2  0
  9  7  1  0
  9 10  1  0
 10 11  1  6
 12 11  1  0
 13 17  1  0
 13 12  1  0
 14 13  2  0
 15 18  1  0
 15 10  1  0
 16 15  2  0
 19 26  1  0
 19 20  1  6
 19 18  1  0
 21 22  2  0
 21 20  1  0
 23 22  1  0
 24 25  2  0
 24 23  1  0
 25 21  1  0
 26 28  1  0
 27 26  2  0
M  END
$$$$
