NEH.pdb
     RDKit          3D

 28 28  0  0  1  0  0  0  0  0999 V2000
   16.3007  -13.1051  -14.8562 N   0  0  0  0  0  0  0  0  0  0  0  0
   17.4318  -12.8697  -15.6502 C   0  0  0  0  0  0  0  0  0  0  0  0
   17.4457  -13.3168  -16.8236 O   0  0  0  0  0  0  0  0  0  0  0  0
   18.6173  -12.1258  -15.1965 C   0  0  0  0  0  0  0  0  0  0  0  0
   19.1327  -11.1859  -16.2963 C   0  0  2  0  0  0  0  0  0  0  0  0
   19.7034  -11.9485  -17.3874 N   0  0  0  0  0  0  0  0  0  0  0  0
   20.2106  -10.3934  -15.6730 C   0  0  0  0  0  0  0  0  0  0  0  0
   20.0077   -9.8662  -14.5587 O   0  0  0  0  0  0  0  0  0  0  0  0
   21.4375  -10.2597  -16.3627 N   0  0  0  0  0  0  0  0  0  0  0  0
   22.4819   -9.4635  -15.7826 C   0  0  1  0  0  0  0  0  0  0  0  0
   23.8600   -9.9223  -16.2035 C   0  0  0  0  0  0  0  0  0  0  0  0
   24.2142  -11.2672  -15.6228 C   0  0  0  0  0  0  0  0  0  0  0  0
   25.5209  -11.6821  -16.1963 C   0  0  0  0  0  0  0  0  0  0  0  0
   25.6215  -12.2361  -17.3274 O   0  0  0  0  0  0  0  0  0  0  0  0
   22.2381   -8.0503  -16.0880 C   0  0  0  0  0  0  0  0  0  0  0  0
   22.0631   -7.6752  -17.2622 O   0  0  0  0  0  0  0  0  0  0  0  0
   26.7221  -11.4795  -15.5076 O   0  0  0  0  0  0  0  0  0  0  0  0
   22.2014   -7.1057  -15.0417 N   0  0  0  0  0  0  0  0  0  0  0  0
   22.0051   -5.7005  -15.3983 C   0  0  1  0  0  0  0  0  0  0  0  0
   20.5534   -5.5695  -15.7840 C   0  0  0  0  0  0  0  0  0  0  0  0
   20.2443   -4.1639  -16.1132 C   0  0  0  0  0  0  0  0  0  0  0  0
   21.0944   -3.1646  -16.4681 C   0  0  0  0  0  0  0  0  0  0  0  0
   20.3705   -2.0329  -16.6699 N   0  0  0  0  0  0  0  0  0  0  0  0
   19.0927   -2.3214  -16.4448 C   0  0  0  0  0  0  0  0  0  0  0  0
   19.0061   -3.6037  -16.1086 N   0  0  0  0  0  0  0  0  0  0  0  0
   22.3727   -4.8778  -14.2384 C   0  0  0  0  0  0  0  0  0  0  0  0
   22.6599   -3.6696  -14.3893 O   0  0  0  0  0  0  0  0  0  0  0  0
   22.4035   -5.4326  -12.9767 O   0  0  0  0  0  0  0  0  0  0  0  0
  2  3  2  0
  2  1  1  0
  4  2  1  0
  5  7  1  0
  5  4  1  0
  5  6  1  6
  7  8  2  0
  9  7  1  0
  9 10  1  0
 10 11  1  6
 12 11  1  0
 13 17  1  0
 13 12  1  0
 14 13  2  0
 15 18  1  0
 15 10  1  0
 16 15  2  0
 19 26  1  0
 19 20  1  1
 19 18  1  0
 21 22  2  0
 21 20  1  0
 23 22  1  0
 24 25  2  0
 24 23  1  0
 25 21  1  0
 26 28  1  0
 27 26  2  0
M  END
$$$$
