NEH.pdb
     RDKit          3D

 28 28  0  0  1  0  0  0  0  0999 V2000
   26.9188  -18.0881  -17.7563 N   0  0  0  0  0  0  0  0  0  0  0  0
   26.1564  -18.9380  -18.5697 C   0  0  0  0  0  0  0  0  0  0  0  0
   26.7418  -19.6004  -19.4617 O   0  0  0  0  0  0  0  0  0  0  0  0
   24.7002  -19.1083  -18.4477 C   0  0  0  0  0  0  0  0  0  0  0  0
   24.1228  -18.1688  -17.3786 C   0  0  2  0  0  0  0  0  0  0  0  0
   24.8494  -18.3113  -16.1338 N   0  0  0  0  0  0  0  0  0  0  0  0
   22.7346  -18.6188  -17.1576 C   0  0  0  0  0  0  0  0  0  0  0  0
   22.0095  -18.8541  -18.1473 O   0  0  0  0  0  0  0  0  0  0  0  0
   22.2752  -18.7676  -15.8287 N   0  0  0  0  0  0  0  0  0  0  0  0
   20.9212  -19.1869  -15.6006 C   0  0  1  0  0  0  0  0  0  0  0  0
   20.7422  -19.8563  -14.2563 C   0  0  0  0  0  0  0  0  0  0  0  0
   20.8907  -18.8857  -13.1129 C   0  0  0  0  0  0  0  0  0  0  0  0
   20.5421  -19.6019  -11.8583 C   0  0  0  0  0  0  0  0  0  0  0  0
   20.3934  -19.0057  -10.7543 O   0  0  0  0  0  0  0  0  0  0  0  0
   20.0234  -18.0429  -15.7871 C   0  0  0  0  0  0  0  0  0  0  0  0
   20.4161  -16.8836  -15.5599 O   0  0  0  0  0  0  0  0  0  0  0  0
   20.3580  -20.9889  -11.8319 O   0  0  0  0  0  0  0  0  0  0  0  0
   18.7013  -18.2571  -16.2283 N   0  0  0  0  0  0  0  0  0  0  0  0
   17.8054  -17.1019  -16.2836 C   0  0  1  0  0  0  0  0  0  0  0  0
   17.0908  -17.1942  -17.6081 C   0  0  0  0  0  0  0  0  0  0  0  0
   17.9255  -16.6040  -18.6732 C   0  0  0  0  0  0  0  0  0  0  0  0
   19.1278  -15.9793  -18.5666 C   0  0  0  0  0  0  0  0  0  0  0  0
   19.5229  -15.5883  -19.8063 N   0  0  0  0  0  0  0  0  0  0  0  0
   18.5841  -15.9624  -20.6696 C   0  0  0  0  0  0  0  0  0  0  0  0
   17.6168  -16.5755  -19.9964 N   0  0  0  0  0  0  0  0  0  0  0  0
   16.8985  -17.1699  -15.1302 C   0  0  0  0  0  0  0  0  0  0  0  0
   16.9692  -18.1286  -14.3296 O   0  0  0  0  0  0  0  0  0  0  0  0
   15.9640  -16.1775  -14.9234 O   0  0  0  0  0  0  0  0  0  0  0  0
  2  3  2  0
  2  1  1  0
  4  2  1  0
  5  7  1  0
  5  4  1  0
  5  6  1  1
  7  8  2  0
  9  7  1  0
  9 10  1  0
 10 11  1  1
 12 11  1  0
 13 17  1  0
 13 12  1  0
 14 13  2  0
 15 18  1  0
 15 10  1  0
 16 15  2  0
 19 26  1  0
 19 20  1  6
 19 18  1  0
 21 22  2  0
 21 20  1  0
 23 22  1  0
 24 25  2  0
 24 23  1  0
 25 21  1  0
 26 28  1  0
 27 26  2  0
M  END
$$$$
