NEH.pdb
     RDKit          3D

 28 28  0  0  1  0  0  0  0  0999 V2000
   24.9949  -24.3011  -12.5975 N   0  0  0  0  0  0  0  0  0  0  0  0
   23.7860  -23.8464  -13.1426 C   0  0  0  0  0  0  0  0  0  0  0  0
   22.8538  -24.6713  -13.3084 O   0  0  0  0  0  0  0  0  0  0  0  0
   23.5328  -22.4521  -13.5381 C   0  0  0  0  0  0  0  0  0  0  0  0
   24.7805  -21.5827  -13.3230 C   0  0  2  0  0  0  0  0  0  0  0  0
   25.1057  -21.5039  -11.9138 N   0  0  0  0  0  0  0  0  0  0  0  0
   24.4120  -20.2314  -13.7885 C   0  0  0  0  0  0  0  0  0  0  0  0
   23.8630  -19.4443  -12.9887 O   0  0  0  0  0  0  0  0  0  0  0  0
   24.6952  -19.8765  -15.1275 N   0  0  0  0  0  0  0  0  0  0  0  0
   24.4821  -18.5214  -15.5510 C   0  0  1  0  0  0  0  0  0  0  0  0
   25.4595  -18.0899  -16.6212 C   0  0  0  0  0  0  0  0  0  0  0  0
   26.8850  -18.1116  -16.1324 C   0  0  0  0  0  0  0  0  0  0  0  0
   27.7674  -17.7913  -17.2845 C   0  0  0  0  0  0  0  0  0  0  0  0
   28.5996  -18.6183  -17.7536 O   0  0  0  0  0  0  0  0  0  0  0  0
   23.0843  -18.3580  -15.9621 C   0  0  0  0  0  0  0  0  0  0  0  0
   22.4793  -19.2814  -16.5375 O   0  0  0  0  0  0  0  0  0  0  0  0
   27.7237  -16.5443  -17.9180 O   0  0  0  0  0  0  0  0  0  0  0  0
   22.4175  -17.1426  -15.7034 N   0  0  0  0  0  0  0  0  0  0  0  0
   21.0308  -17.0167  -16.1524 C   0  0  1  0  0  0  0  0  0  0  0  0
   20.2775  -16.3966  -15.0029 C   0  0  0  0  0  0  0  0  0  0  0  0
   19.6339  -17.4512  -14.1948 C   0  0  0  0  0  0  0  0  0  0  0  0
   19.6350  -18.7961  -14.3913 C   0  0  0  0  0  0  0  0  0  0  0  0
   18.9058  -19.3776  -13.4036 N   0  0  0  0  0  0  0  0  0  0  0  0
   18.4582  -18.4130  -12.6061 C   0  0  0  0  0  0  0  0  0  0  0  0
   18.8917  -17.2480  -13.0746 N   0  0  0  0  0  0  0  0  0  0  0  0
   21.0158  -16.1913  -17.3672 C   0  0  0  0  0  0  0  0  0  0  0  0
   20.3338  -16.5396  -18.3564 O   0  0  0  0  0  0  0  0  0  0  0  0
   21.7534  -15.0279  -17.4242 O   0  0  0  0  0  0  0  0  0  0  0  0
  2  3  2  0
  2  1  1  0
  4  2  1  0
  5  7  1  0
  5  4  1  0
  5  6  1  1
  7  8  2  0
  9  7  1  0
  9 10  1  0
 10 11  1  6
 12 11  1  0
 13 17  1  0
 13 12  1  0
 14 13  2  0
 15 18  1  0
 15 10  1  0
 16 15  2  0
 19 26  1  0
 19 20  1  1
 19 18  1  0
 21 22  2  0
 21 20  1  0
 23 22  1  0
 24 25  2  0
 24 23  1  0
 25 21  1  0
 26 28  1  0
 27 26  2  0
M  END
$$$$
