NEH.pdb
     RDKit          3D

 28 28  0  0  1  0  0  0  0  0999 V2000
   15.3587  -20.0197    2.7231 N   0  0  0  0  0  0  0  0  0  0  0  0
   16.4375  -19.1334    2.8491 C   0  0  0  0  0  0  0  0  0  0  0  0
   17.5200  -19.4198    2.2807 O   0  0  0  0  0  0  0  0  0  0  0  0
   16.3865  -17.8759    3.6112 C   0  0  0  0  0  0  0  0  0  0  0  0
   15.0095  -17.6815    4.2629 C   0  0  2  0  0  0  0  0  0  0  0  0
   14.1778  -16.8248    3.4430 N   0  0  0  0  0  0  0  0  0  0  0  0
   15.2657  -16.9903    5.5417 C   0  0  0  0  0  0  0  0  0  0  0  0
   14.7683  -15.8597    5.7291 O   0  0  0  0  0  0  0  0  0  0  0  0
   16.0676  -17.6358    6.5108 N   0  0  0  0  0  0  0  0  0  0  0  0
   16.2505  -17.0147    7.7922 C   0  0  1  0  0  0  0  0  0  0  0  0
   16.6673  -18.0024    8.8589 C   0  0  0  0  0  0  0  0  0  0  0  0
   16.7587  -17.3642   10.2211 C   0  0  0  0  0  0  0  0  0  0  0  0
   17.1057  -18.4267   11.2005 C   0  0  0  0  0  0  0  0  0  0  0  0
   18.2992  -18.7598   11.4475 O   0  0  0  0  0  0  0  0  0  0  0  0
   17.1898  -15.8971    7.6576 C   0  0  0  0  0  0  0  0  0  0  0  0
   17.9222  -15.8001    6.6555 O   0  0  0  0  0  0  0  0  0  0  0  0
   16.1195  -19.1224   11.9088 O   0  0  0  0  0  0  0  0  0  0  0  0
   17.2653  -14.9217    8.6732 N   0  0  0  0  0  0  0  0  0  0  0  0
   18.1941  -13.8079    8.4811 C   0  0  1  0  0  0  0  0  0  0  0  0
   17.4443  -12.7767    7.6762 C   0  0  0  0  0  0  0  0  0  0  0  0
   18.0621  -12.6311    6.3433 C   0  0  0  0  0  0  0  0  0  0  0  0
   19.1226  -13.2990    5.8175 C   0  0  0  0  0  0  0  0  0  0  0  0
   19.3479  -12.8318    4.5619 N   0  0  0  0  0  0  0  0  0  0  0  0
   18.4446  -11.8899    4.3098 C   0  0  0  0  0  0  0  0  0  0  0  0
   17.6648  -11.7614    5.3775 N   0  0  0  0  0  0  0  0  0  0  0  0
   18.6065  -13.3220    9.8044 C   0  0  0  0  0  0  0  0  0  0  0  0
   19.3951  -12.3558    9.9025 O   0  0  0  0  0  0  0  0  0  0  0  0
   18.1268  -13.9280   10.9461 O   0  0  0  0  0  0  0  0  0  0  0  0
  2  3  2  0
  2  1  1  0
  4  2  1  0
  5  7  1  0
  5  4  1  0
  5  6  1  6
  7  8  2  0
  9  7  1  0
  9 10  1  0
 10 11  1  1
 12 11  1  0
 13 17  1  0
 13 12  1  0
 14 13  2  0
 15 18  1  0
 15 10  1  0
 16 15  2  0
 19 26  1  0
 19 20  1  1
 19 18  1  0
 21 22  2  0
 21 20  1  0
 23 22  1  0
 24 25  2  0
 24 23  1  0
 25 21  1  0
 26 28  1  0
 27 26  2  0
M  END
$$$$
