NEH.pdb
     RDKit          3D

 28 28  0  0  1  0  0  0  0  0999 V2000
   13.1125  -22.1267    1.3586 N   0  0  0  0  0  0  0  0  0  0  0  0
   14.4473  -22.2265    0.9420 C   0  0  0  0  0  0  0  0  0  0  0  0
   14.7063  -22.8918   -0.0910 O   0  0  0  0  0  0  0  0  0  0  0  0
   15.5784  -21.5971    1.6415 C   0  0  0  0  0  0  0  0  0  0  0  0
   15.1181  -20.9320    2.9471 C   0  0  2  0  0  0  0  0  0  0  0  0
   14.8789  -19.5188    2.7384 N   0  0  0  0  0  0  0  0  0  0  0  0
   16.2456  -21.0757    3.8888 C   0  0  0  0  0  0  0  0  0  0  0  0
   17.4132  -21.0335    3.4463 O   0  0  0  0  0  0  0  0  0  0  0  0
   15.9614  -21.2565    5.2619 N   0  0  0  0  0  0  0  0  0  0  0  0
   17.0474  -21.3040    6.1997 C   0  0  1  0  0  0  0  0  0  0  0  0
   16.7169  -20.6104    7.5023 C   0  0  0  0  0  0  0  0  0  0  0  0
   17.8709  -20.6390    8.4712 C   0  0  0  0  0  0  0  0  0  0  0  0
   17.4115  -20.0293    9.7462 C   0  0  0  0  0  0  0  0  0  0  0  0
   17.1032  -20.7206   10.7579 O   0  0  0  0  0  0  0  0  0  0  0  0
   17.4609  -22.6978    6.3897 C   0  0  0  0  0  0  0  0  0  0  0  0
   16.6218  -23.6173    6.3717 O   0  0  0  0  0  0  0  0  0  0  0  0
   17.2944  -18.6429    9.8964 O   0  0  0  0  0  0  0  0  0  0  0  0
   18.8227  -23.0007    6.5951 N   0  0  0  0  0  0  0  0  0  0  0  0
   19.1825  -24.3995    6.8278 C   0  0  1  0  0  0  0  0  0  0  0  0
   20.4995  -24.6113    6.1251 C   0  0  0  0  0  0  0  0  0  0  0  0
   20.2673  -24.9044    4.6969 C   0  0  0  0  0  0  0  0  0  0  0  0
   19.0916  -25.1275    4.0525 C   0  0  0  0  0  0  0  0  0  0  0  0
   19.3560  -25.3656    2.7414 N   0  0  0  0  0  0  0  0  0  0  0  0
   20.6722  -25.2922    2.5717 C   0  0  0  0  0  0  0  0  0  0  0  0
   21.2307  -25.0147    3.7446 N   0  0  0  0  0  0  0  0  0  0  0  0
   19.2582  -24.6178    8.2783 C   0  0  0  0  0  0  0  0  0  0  0  0
   19.1904  -23.6478    9.0652 O   0  0  0  0  0  0  0  0  0  0  0  0
   19.4045  -25.8933    8.7808 O   0  0  0  0  0  0  0  0  0  0  0  0
  2  3  2  0
  2  1  1  0
  4  2  1  0
  5  7  1  0
  5  4  1  0
  5  6  1  6
  7  8  2  0
  9  7  1  0
  9 10  1  0
 10 11  1  1
 12 11  1  0
 13 17  1  0
 13 12  1  0
 14 13  2  0
 15 18  1  0
 15 10  1  0
 16 15  2  0
 19 26  1  0
 19 20  1  6
 19 18  1  0
 21 22  2  0
 21 20  1  0
 23 22  1  0
 24 25  2  0
 24 23  1  0
 25 21  1  0
 26 28  1  0
 27 26  2  0
M  END
$$$$
