NEH.pdb
     RDKit          3D

 28 28  0  0  1  0  0  0  0  0999 V2000
   14.7373  -24.5859    3.0166 N   0  0  0  0  0  0  0  0  0  0  0  0
   15.9682  -24.2540    2.4336 C   0  0  0  0  0  0  0  0  0  0  0  0
   16.7849  -25.1759    2.1882 O   0  0  0  0  0  0  0  0  0  0  0  0
   16.3727  -22.8828    2.0858 C   0  0  0  0  0  0  0  0  0  0  0  0
   15.2665  -21.8763    2.4353 C   0  0  2  0  0  0  0  0  0  0  0  0
   14.5594  -21.4659    1.2397 N   0  0  0  0  0  0  0  0  0  0  0  0
   15.9590  -20.6970    2.9905 C   0  0  0  0  0  0  0  0  0  0  0  0
   16.7409  -20.0538    2.2586 O   0  0  0  0  0  0  0  0  0  0  0  0
   15.7109  -20.3376    4.3352 N   0  0  0  0  0  0  0  0  0  0  0  0
   16.1846  -19.0715    4.8187 C   0  0  1  0  0  0  0  0  0  0  0  0
   15.0837  -18.2418    5.4404 C   0  0  0  0  0  0  0  0  0  0  0  0
   14.2479  -19.0388    6.4087 C   0  0  0  0  0  0  0  0  0  0  0  0
   13.1747  -18.1496    6.9244 C   0  0  0  0  0  0  0  0  0  0  0  0
   13.0091  -16.9697    6.5039 O   0  0  0  0  0  0  0  0  0  0  0  0
   17.3102  -19.2936    5.7316 C   0  0  0  0  0  0  0  0  0  0  0  0
   17.4788  -20.4011    6.2745 O   0  0  0  0  0  0  0  0  0  0  0  0
   12.2808  -18.5755    7.9133 O   0  0  0  0  0  0  0  0  0  0  0  0
   18.2115  -18.2423    5.9979 N   0  0  0  0  0  0  0  0  0  0  0  0
   19.2682  -18.4828    6.9807 C   0  0  1  0  0  0  0  0  0  0  0  0
   20.4704  -17.7140    6.4935 C   0  0  0  0  0  0  0  0  0  0  0  0
   21.5576  -17.7950    7.4889 C   0  0  0  0  0  0  0  0  0  0  0  0
   22.1933  -18.8959    7.9696 C   0  0  0  0  0  0  0  0  0  0  0  0
   23.1218  -18.4968    8.8775 N   0  0  0  0  0  0  0  0  0  0  0  0
   23.0657  -17.1714    8.9613 C   0  0  0  0  0  0  0  0  0  0  0  0
   22.1259  -16.7388    8.1281 N   0  0  0  0  0  0  0  0  0  0  0  0
   18.7851  -18.0319    8.2924 C   0  0  0  0  0  0  0  0  0  0  0  0
   17.9215  -17.1301    8.3691 O   0  0  0  0  0  0  0  0  0  0  0  0
   19.2807  -18.6000    9.4467 O   0  0  0  0  0  0  0  0  0  0  0  0
  2  3  2  0
  2  1  1  0
  4  2  1  0
  5  7  1  0
  5  4  1  0
  5  6  1  6
  7  8  2  0
  9  7  1  0
  9 10  1  0
 10 11  1  1
 12 11  1  0
 13 17  1  0
 13 12  1  0
 14 13  2  0
 15 18  1  0
 15 10  1  0
 16 15  2  0
 19 26  1  0
 19 20  1  6
 19 18  1  0
 21 22  2  0
 21 20  1  0
 23 22  1  0
 24 25  2  0
 24 23  1  0
 25 21  1  0
 26 28  1  0
 27 26  2  0
M  END
$$$$
