NEH.pdb
     RDKit          3D

 28 28  0  0  1  0  0  0  0  0999 V2000
   19.0356  -17.1123  -16.6637 N   0  0  0  0  0  0  0  0  0  0  0  0
   20.1611  -16.5860  -16.0146 C   0  0  0  0  0  0  0  0  0  0  0  0
   20.7876  -17.3183  -15.2095 O   0  0  0  0  0  0  0  0  0  0  0  0
   20.6638  -15.2179  -16.2152 C   0  0  0  0  0  0  0  0  0  0  0  0
   19.6828  -14.3878  -17.0563 C   0  0  2  0  0  0  0  0  0  0  0  0
   19.6582  -14.8657  -18.4234 N   0  0  0  0  0  0  0  0  0  0  0  0
   20.2198  -13.0130  -17.0570 C   0  0  0  0  0  0  0  0  0  0  0  0
   21.1983  -12.7455  -17.7861 O   0  0  0  0  0  0  0  0  0  0  0  0
   19.6045  -12.0460  -16.2292 N   0  0  0  0  0  0  0  0  0  0  0  0
   20.0551  -10.6843  -16.2919 C   0  0  1  0  0  0  0  0  0  0  0  0
   19.1185   -9.7324  -15.5822 C   0  0  0  0  0  0  0  0  0  0  0  0
   19.5058   -8.2910  -15.7915 C   0  0  0  0  0  0  0  0  0  0  0  0
   18.5467   -7.4461  -15.0332 C   0  0  0  0  0  0  0  0  0  0  0  0
   17.6148   -7.9357  -14.3345 O   0  0  0  0  0  0  0  0  0  0  0  0
   21.4297  -10.6067  -15.7878 C   0  0  0  0  0  0  0  0  0  0  0  0
   21.8616  -11.4566  -14.9872 O   0  0  0  0  0  0  0  0  0  0  0  0
   18.6250   -6.0491  -15.0525 O   0  0  0  0  0  0  0  0  0  0  0  0
   22.2719   -9.5589  -16.2137 N   0  0  0  0  0  0  0  0  0  0  0  0
   23.6768   -9.6057  -15.8083 C   0  0  1  0  0  0  0  0  0  0  0  0
   24.2696  -10.8045  -16.5047 C   0  0  0  0  0  0  0  0  0  0  0  0
   25.7214  -10.8710  -16.2454 C   0  0  0  0  0  0  0  0  0  0  0  0
   26.4755  -10.1021  -15.4163 C   0  0  0  0  0  0  0  0  0  0  0  0
   27.7675  -10.5131  -15.5021 N   0  0  0  0  0  0  0  0  0  0  0  0
   27.8178  -11.5196  -16.3688 C   0  0  0  0  0  0  0  0  0  0  0  0
   26.5895  -11.7430  -16.8225 N   0  0  0  0  0  0  0  0  0  0  0  0
   24.3085   -8.3383  -16.1983 C   0  0  0  0  0  0  0  0  0  0  0  0
   23.8357   -7.6625  -17.1388 O   0  0  0  0  0  0  0  0  0  0  0  0
   25.4264   -7.8863  -15.5297 O   0  0  0  0  0  0  0  0  0  0  0  0
  2  3  2  0
  2  1  1  0
  4  2  1  0
  5  7  1  0
  5  4  1  0
  5  6  1  6
  7  8  2  0
  9  7  1  0
  9 10  1  0
 10 11  1  1
 12 11  1  0
 13 17  1  0
 13 12  1  0
 14 13  2  0
 15 18  1  0
 15 10  1  0
 16 15  2  0
 19 26  1  0
 19 20  1  6
 19 18  1  0
 21 22  2  0
 21 20  1  0
 23 22  1  0
 24 25  2  0
 24 23  1  0
 25 21  1  0
 26 28  1  0
 27 26  2  0
M  END
$$$$
