NEH.pdb
     RDKit          3D

 28 28  0  0  1  0  0  0  0  0999 V2000
   14.6451  -14.0591  -10.1741 N   0  0  0  0  0  0  0  0  0  0  0  0
   15.6644  -13.4277  -10.9005 C   0  0  0  0  0  0  0  0  0  0  0  0
   16.5893  -14.1324  -11.3749 O   0  0  0  0  0  0  0  0  0  0  0  0
   15.7245  -11.9786  -11.1476 C   0  0  0  0  0  0  0  0  0  0  0  0
   14.6183  -11.2417  -10.3781 C   0  0  2  0  0  0  0  0  0  0  0  0
   13.3148  -11.6015  -10.8971 N   0  0  0  0  0  0  0  0  0  0  0  0
   14.8386   -9.8055  -10.6374 C   0  0  0  0  0  0  0  0  0  0  0  0
   14.5347   -9.3386  -11.7556 O   0  0  0  0  0  0  0  0  0  0  0  0
   15.3876   -9.0084   -9.6068 N   0  0  0  0  0  0  0  0  0  0  0  0
   15.4714   -7.5872   -9.7924 C   0  0  1  0  0  0  0  0  0  0  0  0
   14.9169   -6.8170   -8.6150 C   0  0  0  0  0  0  0  0  0  0  0  0
   15.0374   -5.3264   -8.8023 C   0  0  0  0  0  0  0  0  0  0  0  0
   14.4548   -4.6674   -7.6044 C   0  0  0  0  0  0  0  0  0  0  0  0
   14.5719   -3.4285   -7.3859 O   0  0  0  0  0  0  0  0  0  0  0  0
   16.8563   -7.2219  -10.1060 C   0  0  0  0  0  0  0  0  0  0  0  0
   17.8066   -7.7710   -9.5185 O   0  0  0  0  0  0  0  0  0  0  0  0
   13.7381   -5.3908   -6.6445 O   0  0  0  0  0  0  0  0  0  0  0  0
   17.1153   -6.2386  -11.0830 N   0  0  0  0  0  0  0  0  0  0  0  0
   18.4857   -6.1155  -11.5799 C   0  0  1  0  0  0  0  0  0  0  0  0
   18.8612   -7.4789  -12.1029 C   0  0  0  0  0  0  0  0  0  0  0  0
   20.1282   -7.3983  -12.8564 C   0  0  0  0  0  0  0  0  0  0  0  0
   21.2991   -6.8104  -12.4951 C   0  0  0  0  0  0  0  0  0  0  0  0
   22.1940   -6.9739  -13.5042 N   0  0  0  0  0  0  0  0  0  0  0  0
   21.5919   -7.6511  -14.4765 C   0  0  0  0  0  0  0  0  0  0  0  0
   20.3461   -7.9117  -14.0958 N   0  0  0  0  0  0  0  0  0  0  0  0
   18.5061   -5.0727  -12.6141 C   0  0  0  0  0  0  0  0  0  0  0  0
   17.4435   -4.7167  -13.1700 O   0  0  0  0  0  0  0  0  0  0  0  0
   19.6967   -4.4803  -12.9780 O   0  0  0  0  0  0  0  0  0  0  0  0
  2  3  2  0
  2  1  1  0
  4  2  1  0
  5  7  1  0
  5  4  1  0
  5  6  1  6
  7  8  2  0
  9  7  1  0
  9 10  1  0
 10 11  1  1
 12 11  1  0
 13 17  1  0
 13 12  1  0
 14 13  2  0
 15 18  1  0
 15 10  1  0
 16 15  2  0
 19 26  1  0
 19 20  1  6
 19 18  1  0
 21 22  2  0
 21 20  1  0
 23 22  1  0
 24 25  2  0
 24 23  1  0
 25 21  1  0
 26 28  1  0
 27 26  2  0
M  END
$$$$
