NEH.pdb
     RDKit          3D

 28 28  0  0  1  0  0  0  0  0999 V2000
   17.1506  -13.4724  -16.7875 N   0  0  0  0  0  0  0  0  0  0  0  0
   17.6427  -13.5035  -15.4752 C   0  0  0  0  0  0  0  0  0  0  0  0
   17.2361  -14.4058  -14.7022 O   0  0  0  0  0  0  0  0  0  0  0  0
   18.6145  -12.5393  -14.9362 C   0  0  0  0  0  0  0  0  0  0  0  0
   18.9725  -11.4738  -15.9827 C   0  0  2  0  0  0  0  0  0  0  0  0
   19.6237  -12.0837  -17.1237 N   0  0  0  0  0  0  0  0  0  0  0  0
   19.9405  -10.5750  -15.3241 C   0  0  0  0  0  0  0  0  0  0  0  0
   19.6416  -10.0653  -14.2234 O   0  0  0  0  0  0  0  0  0  0  0  0
   21.1749  -10.3232  -15.9659 N   0  0  0  0  0  0  0  0  0  0  0  0
   22.0706   -9.3536  -15.4014 C   0  0  1  0  0  0  0  0  0  0  0  0
   23.4841   -9.5029  -15.9181 C   0  0  0  0  0  0  0  0  0  0  0  0
   23.6446   -8.9410  -17.3074 C   0  0  0  0  0  0  0  0  0  0  0  0
   25.0681   -9.1013  -17.7028 C   0  0  0  0  0  0  0  0  0  0  0  0
   25.9417   -8.2187  -17.4698 O   0  0  0  0  0  0  0  0  0  0  0  0
   21.5273   -8.0094  -15.6198 C   0  0  0  0  0  0  0  0  0  0  0  0
   21.0190   -7.6997  -16.7132 O   0  0  0  0  0  0  0  0  0  0  0  0
   25.5221  -10.2498  -18.3609 O   0  0  0  0  0  0  0  0  0  0  0  0
   21.5806   -7.0571  -14.5812 N   0  0  0  0  0  0  0  0  0  0  0  0
   21.0988   -5.7062  -14.8694 C   0  0  1  0  0  0  0  0  0  0  0  0
   19.6357   -5.7012  -14.5051 C   0  0  0  0  0  0  0  0  0  0  0  0
   19.0783   -4.3449  -14.6766 C   0  0  0  0  0  0  0  0  0  0  0  0
   18.9126   -3.3675  -13.7468 C   0  0  0  0  0  0  0  0  0  0  0  0
   18.3534   -2.2868  -14.3512 N   0  0  0  0  0  0  0  0  0  0  0  0
   18.1738   -2.5853  -15.6339 C   0  0  0  0  0  0  0  0  0  0  0  0
   18.6076   -3.8238  -15.8401 N   0  0  0  0  0  0  0  0  0  0  0  0
   21.8954   -4.7576  -14.0801 C   0  0  0  0  0  0  0  0  0  0  0  0
   22.4232   -5.1203  -13.0055 O   0  0  0  0  0  0  0  0  0  0  0  0
   22.0661   -3.4619  -14.5193 O   0  0  0  0  0  0  0  0  0  0  0  0
  2  3  2  0
  2  1  1  0
  4  2  1  0
  5  7  1  0
  5  4  1  0
  5  6  1  6
  7  8  2  0
  9  7  1  0
  9 10  1  0
 10 11  1  6
 12 11  1  0
 13 17  1  0
 13 12  1  0
 14 13  2  0
 15 18  1  0
 15 10  1  0
 16 15  2  0
 19 26  1  0
 19 20  1  1
 19 18  1  0
 21 22  2  0
 21 20  1  0
 23 22  1  0
 24 25  2  0
 24 23  1  0
 25 21  1  0
 26 28  1  0
 27 26  2  0
M  END
$$$$
