NEH.pdb
     RDKit          3D

 28 28  0  0  1  0  0  0  0  0999 V2000
   15.8040  -14.6044  -16.3222 N   0  0  0  0  0  0  0  0  0  0  0  0
   16.1664  -13.4866  -15.5576 C   0  0  0  0  0  0  0  0  0  0  0  0
   15.2778  -12.9008  -14.8911 O   0  0  0  0  0  0  0  0  0  0  0  0
   17.5332  -12.9472  -15.4826 C   0  0  0  0  0  0  0  0  0  0  0  0
   18.5082  -13.7988  -16.3089 C   0  0  2  0  0  0  0  0  0  0  0  0
   18.8827  -14.9920  -15.5782 N   0  0  0  0  0  0  0  0  0  0  0  0
   19.7149  -12.9675  -16.4860 C   0  0  0  0  0  0  0  0  0  0  0  0
   20.2973  -12.5224  -15.4743 O   0  0  0  0  0  0  0  0  0  0  0  0
   20.1688  -12.7048  -17.7990 N   0  0  0  0  0  0  0  0  0  0  0  0
   21.3794  -11.9553  -17.9827 C   0  0  1  0  0  0  0  0  0  0  0  0
   21.9517  -12.1136  -19.3736 C   0  0  0  0  0  0  0  0  0  0  0  0
   23.2402  -11.3519  -19.5490 C   0  0  0  0  0  0  0  0  0  0  0  0
   23.7130  -11.5695  -20.9410 C   0  0  0  0  0  0  0  0  0  0  0  0
   24.7501  -12.2395  -21.2096 O   0  0  0  0  0  0  0  0  0  0  0  0
   21.1386  -10.5537  -17.6261 C   0  0  0  0  0  0  0  0  0  0  0  0
   20.0781   -9.9887  -17.9515 O   0  0  0  0  0  0  0  0  0  0  0  0
   23.0284  -11.0389  -22.0401 O   0  0  0  0  0  0  0  0  0  0  0  0
   22.1177   -9.8376  -16.9071 N   0  0  0  0  0  0  0  0  0  0  0  0
   21.8136   -8.4570  -16.5307 C   0  0  1  0  0  0  0  0  0  0  0  0
   22.4330   -8.2517  -15.1715 C   0  0  0  0  0  0  0  0  0  0  0  0
   22.2898   -6.8410  -14.7603 C   0  0  0  0  0  0  0  0  0  0  0  0
   21.6918   -5.8162  -15.4233 C   0  0  0  0  0  0  0  0  0  0  0  0
   21.8060   -4.6904  -14.6715 N   0  0  0  0  0  0  0  0  0  0  0  0
   22.4630   -5.0076  -13.5605 C   0  0  0  0  0  0  0  0  0  0  0  0
   22.7592   -6.3018  -13.6045 N   0  0  0  0  0  0  0  0  0  0  0  0
   22.3687   -7.5687  -17.5603 C   0  0  0  0  0  0  0  0  0  0  0  0
   23.3147   -7.9552  -18.2818 O   0  0  0  0  0  0  0  0  0  0  0  0
   21.8500   -6.3036  -17.7375 O   0  0  0  0  0  0  0  0  0  0  0  0
  2  3  2  0
  2  1  1  0
  4  2  1  0
  5  7  1  0
  5  4  1  0
  5  6  1  1
  7  8  2  0
  9  7  1  0
  9 10  1  0
 10 11  1  6
 12 11  1  0
 13 17  1  0
 13 12  1  0
 14 13  2  0
 15 18  1  0
 15 10  1  0
 16 15  2  0
 19 26  1  0
 19 20  1  1
 19 18  1  0
 21 22  2  0
 21 20  1  0
 23 22  1  0
 24 25  2  0
 24 23  1  0
 25 21  1  0
 26 28  1  0
 27 26  2  0
M  END
$$$$
