DHY.pdb
     RDKit          3D

 31 32  0  0  1  0  0  0  0  0999 V2000
   10.5907  -18.6173   19.0068 N   0  0  0  0  0  0  0  0  0  0  0  0
   11.5036  -17.5407   19.2140 C   0  0  1  0  0  0  0  0  0  0  0  0
   11.8798  -16.8203   17.9487 C   0  0  0  0  0  0  0  0  0  0  0  0
   12.5374  -17.7525   17.0089 C   0  0  0  0  0  0  0  0  0  0  0  0
   13.1307  -18.7596   17.4604 O   0  0  0  0  0  0  0  0  0  0  0  0
   10.9106  -16.5541   20.1467 C   0  0  0  0  0  0  0  0  0  0  0  0
   11.5823  -15.5614   20.4984 O   0  0  0  0  0  0  0  0  0  0  0  0
   12.5048  -17.5255   15.6421 O   0  0  0  0  0  0  0  0  0  0  0  0
    9.6053  -16.7168   20.6421 N   0  0  0  0  0  0  0  0  0  0  0  0
    9.0024  -15.7614   21.5218 C   0  0  1  0  0  0  0  0  0  0  0  0
    7.5860  -15.4419   21.0947 C   0  0  0  0  0  0  0  0  0  0  0  0
    7.6111  -14.8910   19.7360 C   0  0  0  0  0  0  0  0  0  0  0  0
    7.8997  -13.5620   19.4272 C   0  0  0  0  0  0  0  0  0  0  0  0
    7.8137  -13.4890   18.0840 N   0  0  0  0  0  0  0  0  0  0  0  0
    7.4871  -14.7189   17.5965 C   0  0  0  0  0  0  0  0  0  0  0  0
    7.3651  -15.5719   18.6180 N   0  0  0  0  0  0  0  0  0  0  0  0
    9.0883  -16.2111   22.9126 C   0  0  0  0  0  0  0  0  0  0  0  0
    9.6171  -17.3256   23.1672 O   0  0  0  0  0  0  0  0  0  0  0  0
    5.3685  -10.8450   26.7564 O   0  0  0  0  0  0  0  0  0  0  0  0
    6.3980  -11.7712   26.5839 C   0  0  0  0  0  0  0  0  0  0  0  0
    7.0263  -11.8794   25.3744 C   0  0  0  0  0  0  0  0  0  0  0  0
    8.0574  -12.8028   25.1913 C   0  0  0  0  0  0  0  0  0  0  0  0
    8.4314  -13.5983   26.2375 C   0  0  0  0  0  0  0  0  0  0  0  0
    9.5115  -14.5753   26.0690 C   0  0  0  0  0  0  0  0  0  0  0  0
    8.9651  -15.8151   25.4026 C   0  0  2  0  0  0  0  0  0  0  0  0
    8.6129  -15.4765   24.0260 N   0  0  0  0  0  0  0  0  0  0  0  0
    7.8279  -16.4364   26.1043 C   0  0  0  0  0  0  0  0  0  0  0  0
    8.0021  -16.9113   27.2681 O   0  0  0  0  0  0  0  0  0  0  0  0
    7.7909  -13.4756   27.4401 C   0  0  0  0  0  0  0  0  0  0  0  0
    6.7585  -12.5617   27.6491 C   0  0  0  0  0  0  0  0  0  0  0  0
    6.5518  -16.5490   25.5928 O   0  0  0  0  0  0  0  0  0  0  0  0
  2  1  1  6
  2  3  1  0
  3  4  1  0
  4  5  2  0
  4  8  1  0
  6  7  2  0
  6  2  1  0
  9  6  1  0
 10 11  1  6
 10  9  1  0
 11 12  1  0
 12 13  2  0
 14 13  1  0
 15 14  1  0
 16 15  2  0
 16 12  1  0
 17 26  1  0
 17 10  1  0
 18 17  2  0
 20 21  2  0
 20 19  1  0
 22 21  1  0
 23 22  2  0
 24 23  1  0
 25 26  1  0
 25 24  1  1
 27 25  1  0
 28 27  2  0
 29 23  1  0
 29 30  2  0
 30 20  1  0
 31 27  1  0
M  END
$$$$
