DHY.pdb
     RDKit          3D

 31 32  0  0  1  0  0  0  0  0999 V2000
    9.6847  -18.5475   20.0430 N   0  0  0  0  0  0  0  0  0  0  0  0
   10.8790  -17.7799   19.9027 C   0  0  1  0  0  0  0  0  0  0  0  0
   11.3206  -17.6117   18.4750 C   0  0  0  0  0  0  0  0  0  0  0  0
   11.8942  -18.8760   17.9678 C   0  0  0  0  0  0  0  0  0  0  0  0
   11.5403  -19.9603   18.4867 O   0  0  0  0  0  0  0  0  0  0  0  0
   10.6790  -16.4322   20.4847 C   0  0  0  0  0  0  0  0  0  0  0  0
   11.6450  -15.6430   20.5510 O   0  0  0  0  0  0  0  0  0  0  0  0
   12.8135  -18.8745   16.9306 O   0  0  0  0  0  0  0  0  0  0  0  0
    9.4209  -16.0274   20.9631 N   0  0  0  0  0  0  0  0  0  0  0  0
    9.1981  -14.7195   21.5015 C   0  0  1  0  0  0  0  0  0  0  0  0
    7.7944  -14.2374   21.2049 C   0  0  0  0  0  0  0  0  0  0  0  0
    7.5871  -14.2390   19.7534 C   0  0  0  0  0  0  0  0  0  0  0  0
    7.8022  -13.1394   18.9230 C   0  0  0  0  0  0  0  0  0  0  0  0
    7.4945  -13.5719   17.6840 N   0  0  0  0  0  0  0  0  0  0  0  0
    7.1091  -14.8770   17.7566 C   0  0  0  0  0  0  0  0  0  0  0  0
    7.1694  -15.2767   19.0304 N   0  0  0  0  0  0  0  0  0  0  0  0
    9.5205  -14.6851   22.9294 C   0  0  0  0  0  0  0  0  0  0  0  0
    9.1845  -13.6812   23.6119 O   0  0  0  0  0  0  0  0  0  0  0  0
   10.2936  -15.0734   31.3034 O   0  0  0  0  0  0  0  0  0  0  0  0
   10.0259  -15.1517   29.9360 C   0  0  0  0  0  0  0  0  0  0  0  0
    9.9897  -14.0137   29.1791 C   0  0  0  0  0  0  0  0  0  0  0  0
    9.7228  -14.0809   27.8103 C   0  0  0  0  0  0  0  0  0  0  0  0
    9.4979  -15.3001   27.2356 C   0  0  0  0  0  0  0  0  0  0  0  0
    9.2156  -15.3955   25.8001 C   0  0  0  0  0  0  0  0  0  0  0  0
   10.5051  -15.6335   25.0514 C   0  0  2  0  0  0  0  0  0  0  0  0
   10.1974  -15.7157   23.6258 N   0  0  0  0  0  0  0  0  0  0  0  0
   11.2641  -16.8144   25.4999 C   0  0  0  0  0  0  0  0  0  0  0  0
   11.0094  -17.9466   24.9866 O   0  0  0  0  0  0  0  0  0  0  0  0
    9.5382  -16.4277   28.0092 C   0  0  0  0  0  0  0  0  0  0  0  0
    9.8025  -16.3878   29.3779 C   0  0  0  0  0  0  0  0  0  0  0  0
   12.2583  -16.7966   26.4559 O   0  0  0  0  0  0  0  0  0  0  0  0
  2  1  1  6
  2  3  1  0
  3  4  1  0
  4  5  2  0
  4  8  1  0
  6  7  2  0
  6  2  1  0
  9  6  1  0
 10 11  1  1
 10  9  1  0
 11 12  1  0
 12 13  2  0
 14 13  1  0
 15 14  1  0
 16 15  2  0
 16 12  1  0
 17 26  1  0
 17 10  1  0
 18 17  2  0
 20 21  2  0
 20 19  1  0
 22 21  1  0
 23 22  2  0
 24 23  1  0
 25 26  1  0
 25 24  1  1
 27 25  1  0
 28 27  2  0
 29 23  1  0
 29 30  2  0
 30 20  1  0
 31 27  1  0
M  END
$$$$
