DHY.pdb
     RDKit          3D

 31 32  0  0  1  0  0  0  0  0999 V2000
    9.1393  -16.3899   20.1118 N   0  0  0  0  0  0  0  0  0  0  0  0
    8.1010  -15.4320   20.3108 C   0  0  1  0  0  0  0  0  0  0  0  0
    7.0766  -15.4191   19.2100 C   0  0  0  0  0  0  0  0  0  0  0  0
    7.7193  -15.7199   17.9135 C   0  0  0  0  0  0  0  0  0  0  0  0
    8.9588  -15.8991   17.8718 O   0  0  0  0  0  0  0  0  0  0  0  0
    7.4020  -15.7095   21.5872 C   0  0  0  0  0  0  0  0  0  0  0  0
    6.1561  -15.7987   21.5977 O   0  0  0  0  0  0  0  0  0  0  0  0
    6.9700  -15.8052   16.7507 O   0  0  0  0  0  0  0  0  0  0  0  0
    8.1174  -15.8738   22.7860 N   0  0  0  0  0  0  0  0  0  0  0  0
    7.6985  -16.7937   23.8002 C   0  0  1  0  0  0  0  0  0  0  0  0
    7.6607  -18.2113   23.2713 C   0  0  0  0  0  0  0  0  0  0  0  0
    7.2330  -19.1100   24.3480 C   0  0  0  0  0  0  0  0  0  0  0  0
    6.9208  -18.6990   25.6435 C   0  0  0  0  0  0  0  0  0  0  0  0
    6.5821  -19.8287   26.2963 N   0  0  0  0  0  0  0  0  0  0  0  0
    6.6836  -20.8809   25.4364 C   0  0  0  0  0  0  0  0  0  0  0  0
    7.0835  -20.4295   24.2438 N   0  0  0  0  0  0  0  0  0  0  0  0
    8.5283  -16.6567   24.9987 C   0  0  0  0  0  0  0  0  0  0  0  0
    9.7491  -16.9610   24.9398 O   0  0  0  0  0  0  0  0  0  0  0  0
    6.2796  -10.7348   24.6007 O   0  0  0  0  0  0  0  0  0  0  0  0
    6.7693  -11.7111   25.4694 C   0  0  0  0  0  0  0  0  0  0  0  0
    8.0954  -12.0433   25.4487 C   0  0  0  0  0  0  0  0  0  0  0  0
    8.5954  -13.0185   26.3137 C   0  0  0  0  0  0  0  0  0  0  0  0
    7.7418  -13.6379   27.1825 C   0  0  0  0  0  0  0  0  0  0  0  0
    8.2439  -14.6651   28.1002 C   0  0  0  0  0  0  0  0  0  0  0  0
    8.9560  -15.7368   27.3102 C   0  0  2  0  0  0  0  0  0  0  0  0
    8.0590  -16.1976   26.2534 N   0  0  0  0  0  0  0  0  0  0  0  0
    9.4496  -16.8664   28.1178 C   0  0  0  0  0  0  0  0  0  0  0  0
   10.2648  -16.6423   29.0641 O   0  0  0  0  0  0  0  0  0  0  0  0
    6.4181  -13.2921   27.1886 C   0  0  0  0  0  0  0  0  0  0  0  0
    5.8936  -12.3217   26.3353 C   0  0  0  0  0  0  0  0  0  0  0  0
    9.0913  -18.1853   27.9312 O   0  0  0  0  0  0  0  0  0  0  0  0
  2  1  1  6
  2  3  1  0
  3  4  1  0
  4  5  2  0
  4  8  1  0
  6  7  2  0
  6  2  1  0
  9  6  1  0
 10 11  1  6
 10  9  1  0
 11 12  1  0
 12 13  2  0
 14 13  1  0
 15 14  1  0
 16 15  2  0
 16 12  1  0
 17 26  1  0
 17 10  1  0
 18 17  2  0
 20 21  2  0
 20 19  1  0
 22 21  1  0
 23 22  2  0
 24 23  1  0
 25 26  1  0
 25 24  1  1
 27 25  1  0
 28 27  2  0
 29 23  1  0
 29 30  2  0
 30 20  1  0
 31 27  1  0
M  END
$$$$
