DHY.pdb
     RDKit          3D

 31 32  0  0  1  0  0  0  0  0999 V2000
   12.5043  -16.1410   18.2318 N   0  0  0  0  0  0  0  0  0  0  0  0
   13.2525  -15.4518   19.2320 C   0  0  1  0  0  0  0  0  0  0  0  0
   13.7794  -14.1191   18.7762 C   0  0  0  0  0  0  0  0  0  0  0  0
   14.7542  -14.3050   17.6809 C   0  0  0  0  0  0  0  0  0  0  0  0
   14.8829  -15.4383   17.1620 O   0  0  0  0  0  0  0  0  0  0  0  0
   12.4045  -15.2279   20.4261 C   0  0  0  0  0  0  0  0  0  0  0  0
   12.8536  -14.5595   21.3809 O   0  0  0  0  0  0  0  0  0  0  0  0
   15.5224  -13.2455   17.2248 O   0  0  0  0  0  0  0  0  0  0  0  0
   11.1037  -15.7551   20.5018 N   0  0  0  0  0  0  0  0  0  0  0  0
   10.2832  -15.5881   21.6633 C   0  0  1  0  0  0  0  0  0  0  0  0
    8.8138  -15.5954   21.3008 C   0  0  0  0  0  0  0  0  0  0  0  0
    8.5202  -14.4174   20.4786 C   0  0  0  0  0  0  0  0  0  0  0  0
    9.4624  -13.4596   20.1048 C   0  0  0  0  0  0  0  0  0  0  0  0
    8.7767  -12.5653   19.3651 N   0  0  0  0  0  0  0  0  0  0  0  0
    7.4748  -12.9609   19.2918 C   0  0  0  0  0  0  0  0  0  0  0  0
    7.3278  -14.0982   19.9781 N   0  0  0  0  0  0  0  0  0  0  0  0
   10.6213  -16.5821   22.6839 C   0  0  0  0  0  0  0  0  0  0  0  0
   11.0913  -17.6948   22.3269 O   0  0  0  0  0  0  0  0  0  0  0  0
    8.8973  -13.7892   29.8255 O   0  0  0  0  0  0  0  0  0  0  0  0
    9.6125  -14.5336   28.8864 C   0  0  0  0  0  0  0  0  0  0  0  0
    9.6122  -14.1590   27.5715 C   0  0  0  0  0  0  0  0  0  0  0  0
   10.3244  -14.8968   26.6241 C   0  0  0  0  0  0  0  0  0  0  0  0
   11.0228  -15.9997   27.0278 C   0  0  0  0  0  0  0  0  0  0  0  0
   11.7781  -16.7901   26.0509 C   0  0  0  0  0  0  0  0  0  0  0  0
   10.8209  -17.4088   25.0605 C   0  0  2  0  0  0  0  0  0  0  0  0
   10.4591  -16.3907   24.0775 N   0  0  0  0  0  0  0  0  0  0  0  0
    9.6206  -18.0133   25.6653 C   0  0  0  0  0  0  0  0  0  0  0  0
    8.4762  -17.5585   25.3592 O   0  0  0  0  0  0  0  0  0  0  0  0
   11.0112  -16.3590   28.3478 C   0  0  0  0  0  0  0  0  0  0  0  0
   10.3082  -15.6395   29.3137 C   0  0  0  0  0  0  0  0  0  0  0  0
    9.6318  -19.0628   26.5604 O   0  0  0  0  0  0  0  0  0  0  0  0
  2  1  1  6
  2  3  1  0
  3  4  1  0
  4  5  2  0
  4  8  1  0
  6  7  2  0
  6  2  1  0
  9  6  1  0
 10 11  1  6
 10  9  1  0
 11 12  1  0
 12 13  2  0
 14 13  1  0
 15 14  1  0
 16 15  2  0
 16 12  1  0
 17 26  1  0
 17 10  1  0
 18 17  2  0
 20 21  2  0
 20 19  1  0
 22 21  1  0
 23 22  2  0
 24 23  1  0
 25 26  1  0
 25 24  1  1
 27 25  1  0
 28 27  2  0
 29 23  1  0
 29 30  2  0
 30 20  1  0
 31 27  1  0
M  END
$$$$
