DHY.pdb
     RDKit          3D

 31 32  0  0  1  0  0  0  0  0999 V2000
    9.8255  -18.6800   19.8933 N   0  0  0  0  0  0  0  0  0  0  0  0
   10.9405  -17.7909   19.9324 C   0  0  1  0  0  0  0  0  0  0  0  0
   11.4587  -17.4171   18.5711 C   0  0  0  0  0  0  0  0  0  0  0  0
   12.2731  -18.5188   18.0167 C   0  0  0  0  0  0  0  0  0  0  0  0
   12.3922  -19.5810   18.6708 O   0  0  0  0  0  0  0  0  0  0  0  0
   10.5626  -16.5449   20.6394 C   0  0  0  0  0  0  0  0  0  0  0  0
   11.4363  -15.6838   20.8746 O   0  0  0  0  0  0  0  0  0  0  0  0
   12.9023  -18.3901   16.7886 O   0  0  0  0  0  0  0  0  0  0  0  0
    9.2377  -16.3163   21.0496 N   0  0  0  0  0  0  0  0  0  0  0  0
    8.8765  -15.1904   21.8571 C   0  0  1  0  0  0  0  0  0  0  0  0
    7.6366  -14.5078   21.3209 C   0  0  0  0  0  0  0  0  0  0  0  0
    7.8952  -14.0599   19.9489 C   0  0  0  0  0  0  0  0  0  0  0  0
    8.4168  -12.8118   19.6099 C   0  0  0  0  0  0  0  0  0  0  0  0
    8.4910  -12.8182   18.2639 N   0  0  0  0  0  0  0  0  0  0  0  0
    8.0350  -14.0170   17.8038 C   0  0  0  0  0  0  0  0  0  0  0  0
    7.6719  -14.7716   18.8453 N   0  0  0  0  0  0  0  0  0  0  0  0
    8.7470  -15.5809   23.2623 C   0  0  0  0  0  0  0  0  0  0  0  0
    8.0652  -16.5980   23.5578 O   0  0  0  0  0  0  0  0  0  0  0  0
    5.7708  -10.3542   27.1648 O   0  0  0  0  0  0  0  0  0  0  0  0
    6.2809  -11.6269   26.9047 C   0  0  0  0  0  0  0  0  0  0  0  0
    7.5541  -11.9458   27.2875 C   0  0  0  0  0  0  0  0  0  0  0  0
    8.0739  -13.2162   27.0320 C   0  0  0  0  0  0  0  0  0  0  0  0
    7.2932  -14.1383   26.3937 C   0  0  0  0  0  0  0  0  0  0  0  0
    7.8174  -15.4787   26.1147 C   0  0  0  0  0  0  0  0  0  0  0  0
    9.2719  -15.3755   25.7229 C   0  0  2  0  0  0  0  0  0  0  0  0
    9.3411  -14.8906   24.3467 N   0  0  0  0  0  0  0  0  0  0  0  0
   10.0396  -16.6228   25.8857 C   0  0  0  0  0  0  0  0  0  0  0  0
   10.9164  -16.6962   26.8002 O   0  0  0  0  0  0  0  0  0  0  0  0
    6.0216  -13.8007   26.0183 C   0  0  0  0  0  0  0  0  0  0  0  0
    5.4788  -12.5394   26.2616 C   0  0  0  0  0  0  0  0  0  0  0  0
    9.8832  -17.7523   25.1095 O   0  0  0  0  0  0  0  0  0  0  0  0
  2  1  1  6
  2  3  1  0
  3  4  1  0
  4  5  2  0
  4  8  1  0
  6  7  2  0
  6  2  1  0
  9  6  1  0
 10 11  1  6
 10  9  1  0
 11 12  1  0
 12 13  2  0
 14 13  1  0
 15 14  1  0
 16 15  2  0
 16 12  1  0
 17 26  1  0
 17 10  1  0
 18 17  2  0
 20 21  2  0
 20 19  1  0
 22 21  1  0
 23 22  2  0
 24 23  1  0
 25 26  1  0
 25 24  1  6
 27 25  1  0
 28 27  2  0
 29 23  1  0
 29 30  2  0
 30 20  1  0
 31 27  1  0
M  END
$$$$
