DHY.pdb
     RDKit          3D

 31 32  0  0  1  0  0  0  0  0999 V2000
   10.1835  -18.6144   19.3519 N   0  0  0  0  0  0  0  0  0  0  0  0
   11.2625  -17.7049   19.5608 C   0  0  1  0  0  0  0  0  0  0  0  0
   11.8776  -17.1995   18.2850 C   0  0  0  0  0  0  0  0  0  0  0  0
   12.5520  -18.3051   17.5726 C   0  0  0  0  0  0  0  0  0  0  0  0
   12.4645  -19.4695   18.0270 O   0  0  0  0  0  0  0  0  0  0  0  0
   10.7887  -16.5361   20.3382 C   0  0  0  0  0  0  0  0  0  0  0  0
   11.5923  -15.6244   20.6266 O   0  0  0  0  0  0  0  0  0  0  0  0
   13.2754  -18.0686   16.4143 O   0  0  0  0  0  0  0  0  0  0  0  0
    9.4503  -16.4365   20.7562 N   0  0  0  0  0  0  0  0  0  0  0  0
    9.0008  -15.3869   21.6202 C   0  0  1  0  0  0  0  0  0  0  0  0
    7.6549  -14.8536   21.1788 C   0  0  0  0  0  0  0  0  0  0  0  0
    7.7591  -14.3861   19.7929 C   0  0  0  0  0  0  0  0  0  0  0  0
    8.1801  -13.1103   19.4187 C   0  0  0  0  0  0  0  0  0  0  0  0
    8.1274  -13.1063   18.0718 N   0  0  0  0  0  0  0  0  0  0  0  0
    7.6935  -14.3255   17.6448 C   0  0  0  0  0  0  0  0  0  0  0  0
    7.4704  -15.1033   18.7084 N   0  0  0  0  0  0  0  0  0  0  0  0
    9.0071  -15.8269   23.0167 C   0  0  0  0  0  0  0  0  0  0  0  0
    8.5812  -16.9776   23.3010 O   0  0  0  0  0  0  0  0  0  0  0  0
    6.1253  -10.2792   27.2584 O   0  0  0  0  0  0  0  0  0  0  0  0
    6.5297  -11.5616   26.8847 C   0  0  0  0  0  0  0  0  0  0  0  0
    5.6182  -12.4476   26.3815 C   0  0  0  0  0  0  0  0  0  0  0  0
    6.0124  -13.7330   26.0048 C   0  0  0  0  0  0  0  0  0  0  0  0
    7.3225  -14.0949   26.1454 C   0  0  0  0  0  0  0  0  0  0  0  0
    7.7599  -15.4391   25.7565 C   0  0  0  0  0  0  0  0  0  0  0  0
    9.2473  -15.4258   25.4973 C   0  0  2  0  0  0  0  0  0  0  0  0
    9.4650  -15.0440   24.1042 N   0  0  0  0  0  0  0  0  0  0  0  0
    9.9353  -16.6896   25.8153 C   0  0  0  0  0  0  0  0  0  0  0  0
    9.9087  -17.1272   27.0061 O   0  0  0  0  0  0  0  0  0  0  0  0
    8.2200  -13.1945   26.6508 C   0  0  0  0  0  0  0  0  0  0  0  0
    7.8522  -11.9052   27.0344 C   0  0  0  0  0  0  0  0  0  0  0  0
   10.6249  -17.4630   24.9048 O   0  0  0  0  0  0  0  0  0  0  0  0
  2  1  1  6
  2  3  1  0
  3  4  1  0
  4  5  2  0
  4  8  1  0
  6  7  2  0
  6  2  1  0
  9  6  1  0
 10 11  1  6
 10  9  1  0
 11 12  1  0
 12 13  2  0
 14 13  1  0
 15 14  1  0
 16 15  2  0
 16 12  1  0
 17 26  1  0
 17 10  1  0
 18 17  2  0
 20 21  2  0
 20 19  1  0
 22 21  1  0
 23 22  2  0
 24 23  1  0
 25 26  1  0
 25 24  1  6
 27 25  1  0
 28 27  2  0
 29 23  1  0
 29 30  2  0
 30 20  1  0
 31 27  1  0
M  END
$$$$
