DHY.pdb
     RDKit          3D

 31 32  0  0  1  0  0  0  0  0999 V2000
   10.4818  -18.4501   18.1728 N   0  0  0  0  0  0  0  0  0  0  0  0
   11.6212  -17.6492   18.4821 C   0  0  1  0  0  0  0  0  0  0  0  0
   12.1206  -16.8399   17.3172 C   0  0  0  0  0  0  0  0  0  0  0  0
   12.6914  -17.7316   16.2858 C   0  0  0  0  0  0  0  0  0  0  0  0
   12.6802  -18.9704   16.4736 O   0  0  0  0  0  0  0  0  0  0  0  0
   11.2924  -16.7154   19.5844 C   0  0  0  0  0  0  0  0  0  0  0  0
   12.1388  -15.8712   19.9464 O   0  0  0  0  0  0  0  0  0  0  0  0
   13.2354  -17.2148   15.1206 O   0  0  0  0  0  0  0  0  0  0  0  0
   10.0442  -16.7641   20.2290 N   0  0  0  0  0  0  0  0  0  0  0  0
    9.7566  -15.9731   21.3874 C   0  0  1  0  0  0  0  0  0  0  0  0
    8.2902  -15.6034   21.4471 C   0  0  0  0  0  0  0  0  0  0  0  0
    7.9760  -14.7183   20.3211 C   0  0  0  0  0  0  0  0  0  0  0  0
    8.1479  -13.3344   20.3317 C   0  0  0  0  0  0  0  0  0  0  0  0
    7.7418  -12.9228   19.1140 N   0  0  0  0  0  0  0  0  0  0  0  0
    7.3405  -14.0078   18.3939 C   0  0  0  0  0  0  0  0  0  0  0  0
    7.4880  -15.1044   19.1434 N   0  0  0  0  0  0  0  0  0  0  0  0
   10.2229  -16.6446   22.6022 C   0  0  0  0  0  0  0  0  0  0  0  0
   10.2484  -17.9034   22.6380 O   0  0  0  0  0  0  0  0  0  0  0  0
    8.5616  -13.1026   29.3208 O   0  0  0  0  0  0  0  0  0  0  0  0
    9.4217  -13.7432   28.4278 C   0  0  0  0  0  0  0  0  0  0  0  0
    9.3789  -13.4362   27.0962 C   0  0  0  0  0  0  0  0  0  0  0  0
   10.2350  -14.0712   26.1944 C   0  0  0  0  0  0  0  0  0  0  0  0
   11.1176  -15.0048   26.6599 C   0  0  0  0  0  0  0  0  0  0  0  0
   12.0264  -15.6847   25.7318 C   0  0  0  0  0  0  0  0  0  0  0  0
   11.2469  -16.6823   24.9091 C   0  0  2  0  0  0  0  0  0  0  0  0
   10.6595  -15.9775   23.7724 N   0  0  0  0  0  0  0  0  0  0  0  0
   10.2206  -17.4264   25.6606 C   0  0  0  0  0  0  0  0  0  0  0  0
    8.9945  -17.1794   25.4463 O   0  0  0  0  0  0  0  0  0  0  0  0
   11.1458  -15.2986   27.9957 C   0  0  0  0  0  0  0  0  0  0  0  0
   10.3018  -14.6790   28.9169 C   0  0  0  0  0  0  0  0  0  0  0  0
   10.4832  -18.3982   26.6037 O   0  0  0  0  0  0  0  0  0  0  0  0
  2  1  1  6
  2  3  1  0
  3  4  1  0
  4  5  2  0
  4  8  1  0
  6  7  2  0
  6  2  1  0
  9  6  1  0
 10 11  1  1
 10  9  1  0
 11 12  1  0
 12 13  2  0
 14 13  1  0
 15 14  1  0
 16 15  2  0
 16 12  1  0
 17 26  1  0
 17 10  1  0
 18 17  2  0
 20 21  2  0
 20 19  1  0
 22 21  1  0
 23 22  2  0
 24 23  1  0
 25 26  1  0
 25 24  1  1
 27 25  1  0
 28 27  2  0
 29 23  1  0
 29 30  2  0
 30 20  1  0
 31 27  1  0
M  END
$$$$
