DHY.pdb
     RDKit          3D

 31 32  0  0  1  0  0  0  0  0999 V2000
    9.7973  -17.8562   19.6996 N   0  0  0  0  0  0  0  0  0  0  0  0
    9.0027  -16.6714   19.6987 C   0  0  1  0  0  0  0  0  0  0  0  0
    8.1906  -16.4938   18.4455 C   0  0  0  0  0  0  0  0  0  0  0  0
    9.0794  -16.4498   17.2654 C   0  0  0  0  0  0  0  0  0  0  0  0
    8.5898  -16.1994   16.1394 O   0  0  0  0  0  0  0  0  0  0  0  0
    8.0723  -16.6918   20.8514 C   0  0  0  0  0  0  0  0  0  0  0  0
    7.3367  -15.7048   21.0637 O   0  0  0  0  0  0  0  0  0  0  0  0
   10.4401  -16.6813   17.3905 O   0  0  0  0  0  0  0  0  0  0  0  0
    8.0039  -17.8029   21.7095 N   0  0  0  0  0  0  0  0  0  0  0  0
    7.1540  -17.8213   22.8617 C   0  0  1  0  0  0  0  0  0  0  0  0
    6.4791  -19.1664   23.0224 C   0  0  0  0  0  0  0  0  0  0  0  0
    5.3492  -19.2467   22.0912 C   0  0  0  0  0  0  0  0  0  0  0  0
    4.8926  -18.1861   21.3093 C   0  0  0  0  0  0  0  0  0  0  0  0
    3.8538  -18.6881   20.6122 N   0  0  0  0  0  0  0  0  0  0  0  0
    3.6854  -19.9963   20.9544 C   0  0  0  0  0  0  0  0  0  0  0  0
    4.6078  -20.3293   21.8624 N   0  0  0  0  0  0  0  0  0  0  0  0
    7.8927  -17.4102   24.0572 C   0  0  0  0  0  0  0  0  0  0  0  0
    9.1324  -17.6248   24.1183 O   0  0  0  0  0  0  0  0  0  0  0  0
    7.6386  -10.5157   24.5610 O   0  0  0  0  0  0  0  0  0  0  0  0
    7.5533  -11.7443   25.2174 C   0  0  0  0  0  0  0  0  0  0  0  0
    6.4677  -12.0300   25.9977 C   0  0  0  0  0  0  0  0  0  0  0  0
    6.3726  -13.2561   26.6587 C   0  0  0  0  0  0  0  0  0  0  0  0
    7.3797  -14.1686   26.5157 C   0  0  0  0  0  0  0  0  0  0  0  0
    7.3019  -15.4629   27.2001 C   0  0  0  0  0  0  0  0  0  0  0  0
    8.0625  -16.4962   26.4040 C   0  0  2  0  0  0  0  0  0  0  0  0
    7.3129  -16.7738   25.1814 N   0  0  0  0  0  0  0  0  0  0  0  0
    8.3588  -17.7386   27.1390 C   0  0  0  0  0  0  0  0  0  0  0  0
    7.6270  -18.7585   26.9529 O   0  0  0  0  0  0  0  0  0  0  0  0
    8.4581  -13.8648   25.7307 C   0  0  0  0  0  0  0  0  0  0  0  0
    8.5772  -12.6479   25.0601 C   0  0  0  0  0  0  0  0  0  0  0  0
    9.3937  -17.8959   28.0373 O   0  0  0  0  0  0  0  0  0  0  0  0
  2  1  1  6
  2  3  1  0
  3  4  1  0
  4  5  2  0
  4  8  1  0
  6  7  2  0
  6  2  1  0
  9  6  1  0
 10 11  1  1
 10  9  1  0
 11 12  1  0
 12 13  2  0
 14 13  1  0
 15 14  1  0
 16 15  2  0
 16 12  1  0
 17 26  1  0
 17 10  1  0
 18 17  2  0
 20 21  2  0
 20 19  1  0
 22 21  1  0
 23 22  2  0
 24 23  1  0
 25 26  1  0
 25 24  1  1
 27 25  1  0
 28 27  2  0
 29 23  1  0
 29 30  2  0
 30 20  1  0
 31 27  1  0
M  END
$$$$
