DHY.pdb
     RDKit          3D

 31 32  0  0  1  0  0  0  0  0999 V2000
   12.3887  -16.5509   18.8258 N   0  0  0  0  0  0  0  0  0  0  0  0
   12.8685  -15.3896   19.5014 C   0  0  1  0  0  0  0  0  0  0  0  0
   13.3736  -14.3201   18.5726 C   0  0  0  0  0  0  0  0  0  0  0  0
   14.7490  -14.6359   18.1332 C   0  0  0  0  0  0  0  0  0  0  0  0
   15.0927  -15.8348   18.0121 O   0  0  0  0  0  0  0  0  0  0  0  0
   11.7852  -14.8079   20.3278 C   0  0  0  0  0  0  0  0  0  0  0  0
   12.0136  -13.7846   21.0067 O   0  0  0  0  0  0  0  0  0  0  0  0
   15.6567  -13.6261   17.8557 O   0  0  0  0  0  0  0  0  0  0  0  0
   10.5055  -15.3884   20.3603 N   0  0  0  0  0  0  0  0  0  0  0  0
    9.4681  -14.8922   21.2134 C   0  0  1  0  0  0  0  0  0  0  0  0
    8.0999  -15.1675   20.6280 C   0  0  0  0  0  0  0  0  0  0  0  0
    7.9319  -14.3654   19.4120 C   0  0  0  0  0  0  0  0  0  0  0  0
    7.8778  -14.8894   18.1208 C   0  0  0  0  0  0  0  0  0  0  0  0
    7.7180  -13.8196   17.3163 N   0  0  0  0  0  0  0  0  0  0  0  0
    7.6766  -12.6943   18.0836 C   0  0  0  0  0  0  0  0  0  0  0  0
    7.8087  -13.0399   19.3678 N   0  0  0  0  0  0  0  0  0  0  0  0
    9.6201  -15.4155   22.5724 C   0  0  0  0  0  0  0  0  0  0  0  0
   10.1064  -16.5655   22.7379 O   0  0  0  0  0  0  0  0  0  0  0  0
   10.2813  -16.1711   31.2278 O   0  0  0  0  0  0  0  0  0  0  0  0
    9.9798  -15.6881   29.9536 C   0  0  0  0  0  0  0  0  0  0  0  0
   10.6674  -14.6214   29.4451 C   0  0  0  0  0  0  0  0  0  0  0  0
   10.3736  -14.1305   28.1715 C   0  0  0  0  0  0  0  0  0  0  0  0
    9.3887  -14.7303   27.4384 C   0  0  0  0  0  0  0  0  0  0  0  0
    9.0625  -14.2324   26.0986 C   0  0  0  0  0  0  0  0  0  0  0  0
    9.3537  -15.3087   25.0803 C   0  0  2  0  0  0  0  0  0  0  0  0
    9.2555  -14.7164   23.7486 N   0  0  0  0  0  0  0  0  0  0  0  0
    8.5010  -16.5052   25.1937 C   0  0  0  0  0  0  0  0  0  0  0  0
    7.3345  -16.4846   24.6945 O   0  0  0  0  0  0  0  0  0  0  0  0
    8.7116  -15.7966   27.9640 C   0  0  0  0  0  0  0  0  0  0  0  0
    8.9856  -16.3060   29.2330 C   0  0  0  0  0  0  0  0  0  0  0  0
    8.8708  -17.6816   25.8117 O   0  0  0  0  0  0  0  0  0  0  0  0
  2  1  1  6
  2  3  1  0
  3  4  1  0
  4  5  2  0
  4  8  1  0
  6  7  2  0
  6  2  1  0
  9  6  1  0
 10 11  1  6
 10  9  1  0
 11 12  1  0
 12 13  2  0
 14 13  1  0
 15 14  1  0
 16 15  2  0
 16 12  1  0
 17 26  1  0
 17 10  1  0
 18 17  2  0
 20 21  2  0
 20 19  1  0
 22 21  1  0
 23 22  2  0
 24 23  1  0
 25 26  1  0
 25 24  1  1
 27 25  1  0
 28 27  2  0
 29 23  1  0
 29 30  2  0
 30 20  1  0
 31 27  1  0
M  END
$$$$
