DHY.pdb
     RDKit          3D

 31 32  0  0  1  0  0  0  0  0999 V2000
    9.8745  -13.5354   19.5252 N   0  0  0  0  0  0  0  0  0  0  0  0
    8.5397  -13.4143   20.0139 C   0  0  1  0  0  0  0  0  0  0  0  0
    7.4991  -13.4284   18.9283 C   0  0  0  0  0  0  0  0  0  0  0  0
    8.1220  -13.7654   17.6310 C   0  0  0  0  0  0  0  0  0  0  0  0
    8.6973  -14.8705   17.4969 O   0  0  0  0  0  0  0  0  0  0  0  0
    8.2458  -14.5260   20.9480 C   0  0  0  0  0  0  0  0  0  0  0  0
    7.1390  -14.5657   21.5257 O   0  0  0  0  0  0  0  0  0  0  0  0
    8.0766  -12.8773   16.5680 O   0  0  0  0  0  0  0  0  0  0  0  0
    9.1916  -15.5362   21.1947 N   0  0  0  0  0  0  0  0  0  0  0  0
    8.9280  -16.6203   22.0922 C   0  0  1  0  0  0  0  0  0  0  0  0
    9.5474  -17.9075   21.5922 C   0  0  0  0  0  0  0  0  0  0  0  0
    8.7179  -18.4461   20.5096 C   0  0  0  0  0  0  0  0  0  0  0  0
    7.3639  -18.1614   20.3349 C   0  0  0  0  0  0  0  0  0  0  0  0
    7.0005  -18.8535   19.2367 N   0  0  0  0  0  0  0  0  0  0  0  0
    8.0850  -19.5295   18.7637 C   0  0  0  0  0  0  0  0  0  0  0  0
    9.1335  -19.2730   19.5517 N   0  0  0  0  0  0  0  0  0  0  0  0
    9.3469  -16.2798   23.4533 C   0  0  0  0  0  0  0  0  0  0  0  0
   10.5056  -15.8244   23.6445 O   0  0  0  0  0  0  0  0  0  0  0  0
    6.1744  -10.5992   25.9309 O   0  0  0  0  0  0  0  0  0  0  0  0
    6.5953  -11.9100   26.1594 C   0  0  0  0  0  0  0  0  0  0  0  0
    7.9089  -12.1690   26.4362 C   0  0  0  0  0  0  0  0  0  0  0  0
    8.3403  -13.4768   26.6664 C   0  0  0  0  0  0  0  0  0  0  0  0
    7.4321  -14.4962   26.6115 C   0  0  0  0  0  0  0  0  0  0  0  0
    7.8617  -15.8776   26.8497 C   0  0  0  0  0  0  0  0  0  0  0  0
    9.0369  -16.1970   25.9571 C   0  0  2  0  0  0  0  0  0  0  0  0
    8.5348  -16.4240   24.6043 N   0  0  0  0  0  0  0  0  0  0  0  0
    9.8627  -17.3289   26.4140 C   0  0  0  0  0  0  0  0  0  0  0  0
   10.5034  -17.2282   27.5046 O   0  0  0  0  0  0  0  0  0  0  0  0
    6.1220  -14.2174   26.3331 C   0  0  0  0  0  0  0  0  0  0  0  0
    5.6655  -12.9206   26.0994 C   0  0  0  0  0  0  0  0  0  0  0  0
   10.0032  -18.5248   25.7411 O   0  0  0  0  0  0  0  0  0  0  0  0
  2  1  1  6
  2  3  1  0
  3  4  1  0
  4  5  2  0
  4  8  1  0
  6  7  2  0
  6  2  1  0
  9  6  1  0
 10 11  1  6
 10  9  1  0
 11 12  1  0
 12 13  2  0
 14 13  1  0
 15 14  1  0
 16 15  2  0
 16 12  1  0
 17 26  1  0
 17 10  1  0
 18 17  2  0
 20 21  2  0
 20 19  1  0
 22 21  1  0
 23 22  2  0
 24 23  1  0
 25 26  1  0
 25 24  1  1
 27 25  1  0
 28 27  2  0
 29 23  1  0
 29 30  2  0
 30 20  1  0
 31 27  1  0
M  END
$$$$
