DHY.pdb
     RDKit          3D

 31 32  0  0  1  0  0  0  0  0999 V2000
   11.6412  -17.2839   17.0558 N   0  0  0  0  0  0  0  0  0  0  0  0
   12.0544  -17.4927   18.4052 C   0  0  1  0  0  0  0  0  0  0  0  0
   13.5406  -17.3770   18.6030 C   0  0  0  0  0  0  0  0  0  0  0  0
   14.2084  -18.6272   18.1840 C   0  0  0  0  0  0  0  0  0  0  0  0
   13.5147  -19.5746   17.7465 O   0  0  0  0  0  0  0  0  0  0  0  0
   11.3938  -16.5044   19.2895 C   0  0  0  0  0  0  0  0  0  0  0  0
   11.6810  -15.2938   19.1792 O   0  0  0  0  0  0  0  0  0  0  0  0
   15.5852  -18.7616   18.2695 O   0  0  0  0  0  0  0  0  0  0  0  0
   10.4498  -16.9067   20.2502 N   0  0  0  0  0  0  0  0  0  0  0  0
    9.8072  -15.9701   21.1220 C   0  0  1  0  0  0  0  0  0  0  0  0
    8.3115  -15.9459   20.8921 C   0  0  0  0  0  0  0  0  0  0  0  0
    8.0055  -14.9592   19.8514 C   0  0  0  0  0  0  0  0  0  0  0  0
    7.7163  -15.2743   18.5240 C   0  0  0  0  0  0  0  0  0  0  0  0
    7.4999  -14.0875   17.9226 N   0  0  0  0  0  0  0  0  0  0  0  0
    7.6506  -13.0939   18.8429 C   0  0  0  0  0  0  0  0  0  0  0  0
    7.9607  -13.6391   20.0230 N   0  0  0  0  0  0  0  0  0  0  0  0
   10.1630  -16.2331   22.5177 C   0  0  0  0  0  0  0  0  0  0  0  0
   10.5310  -17.3906   22.8512 O   0  0  0  0  0  0  0  0  0  0  0  0
   11.2093  -15.5025   31.1801 O   0  0  0  0  0  0  0  0  0  0  0  0
   10.9732  -15.2132   29.8354 C   0  0  0  0  0  0  0  0  0  0  0  0
   12.0073  -15.2229   28.9411 C   0  0  0  0  0  0  0  0  0  0  0  0
   11.7819  -14.9350   27.5936 C   0  0  0  0  0  0  0  0  0  0  0  0
   10.5130  -14.6429   27.1791 C   0  0  0  0  0  0  0  0  0  0  0  0
   10.2520  -14.3374   25.7691 C   0  0  0  0  0  0  0  0  0  0  0  0
   10.3604  -15.6040   24.9544 C   0  0  2  0  0  0  0  0  0  0  0  0
   10.1266  -15.2670   23.5524 N   0  0  0  0  0  0  0  0  0  0  0  0
    9.4701  -16.6928   25.3945 C   0  0  0  0  0  0  0  0  0  0  0  0
    9.9245  -17.5912   26.1670 O   0  0  0  0  0  0  0  0  0  0  0  0
    9.4911  -14.6382   28.0887 C   0  0  0  0  0  0  0  0  0  0  0  0
    9.6895  -14.9221   29.4395 C   0  0  0  0  0  0  0  0  0  0  0  0
    8.1459  -16.8244   25.0312 O   0  0  0  0  0  0  0  0  0  0  0  0
  2  1  1  6
  2  3  1  0
  3  4  1  0
  4  5  2  0
  4  8  1  0
  6  7  2  0
  6  2  1  0
  9  6  1  0
 10 11  1  1
 10  9  1  0
 11 12  1  0
 12 13  2  0
 14 13  1  0
 15 14  1  0
 16 15  2  0
 16 12  1  0
 17 26  1  0
 17 10  1  0
 18 17  2  0
 20 21  2  0
 20 19  1  0
 22 21  1  0
 23 22  2  0
 24 23  1  0
 25 26  1  0
 25 24  1  1
 27 25  1  0
 28 27  2  0
 29 23  1  0
 29 30  2  0
 30 20  1  0
 31 27  1  0
M  END
$$$$
