DHY.pdb
     RDKit          3D

 31 32  0  0  1  0  0  0  0  0999 V2000
   11.1398  -16.9811   17.4499 N   0  0  0  0  0  0  0  0  0  0  0  0
   11.2490  -17.3652   18.8195 C   0  0  1  0  0  0  0  0  0  0  0  0
   12.6645  -17.6127   19.2629 C   0  0  0  0  0  0  0  0  0  0  0  0
   13.1997  -18.8227   18.6041 C   0  0  0  0  0  0  0  0  0  0  0  0
   12.4252  -19.7742   18.3493 O   0  0  0  0  0  0  0  0  0  0  0  0
   10.6741  -16.3078   19.6833 C   0  0  0  0  0  0  0  0  0  0  0  0
   11.3667  -15.3101   19.9753 O   0  0  0  0  0  0  0  0  0  0  0  0
   14.5409  -18.9152   18.2673 O   0  0  0  0  0  0  0  0  0  0  0  0
    9.3628  -16.4088   20.1793 N   0  0  0  0  0  0  0  0  0  0  0  0
    8.7871  -15.3985   21.0148 C   0  0  1  0  0  0  0  0  0  0  0  0
    7.3794  -15.0603   20.5736 C   0  0  0  0  0  0  0  0  0  0  0  0
    7.4347  -14.4152   19.2580 C   0  0  0  0  0  0  0  0  0  0  0  0
    7.7209  -13.0661   19.0506 C   0  0  0  0  0  0  0  0  0  0  0  0
    7.6684  -12.8995   17.7140 N   0  0  0  0  0  0  0  0  0  0  0  0
    7.3638  -14.0940   17.1333 C   0  0  0  0  0  0  0  0  0  0  0  0
    7.2225  -15.0173   18.0890 N   0  0  0  0  0  0  0  0  0  0  0  0
    8.8624  -15.7870   22.4245 C   0  0  0  0  0  0  0  0  0  0  0  0
    8.8185  -17.0084   22.7292 O   0  0  0  0  0  0  0  0  0  0  0  0
   10.4175  -15.7962   31.0127 O   0  0  0  0  0  0  0  0  0  0  0  0
   10.1976  -15.3802   29.6988 C   0  0  0  0  0  0  0  0  0  0  0  0
    9.2125  -14.4731   29.4234 C   0  0  0  0  0  0  0  0  0  0  0  0
    8.9843  -14.0505   28.1124 C   0  0  0  0  0  0  0  0  0  0  0  0
    9.7591  -14.5554   27.1065 C   0  0  0  0  0  0  0  0  0  0  0  0
    9.5381  -14.1264   25.7220 C   0  0  0  0  0  0  0  0  0  0  0  0
    9.1175  -15.3149   24.8911 C   0  0  2  0  0  0  0  0  0  0  0  0
    8.9839  -14.8782   23.5036 N   0  0  0  0  0  0  0  0  0  0  0  0
    7.8903  -15.9843   25.3577 C   0  0  0  0  0  0  0  0  0  0  0  0
    6.7682  -15.6148   24.8944 O   0  0  0  0  0  0  0  0  0  0  0  0
   10.7400  -15.4622   27.4015 C   0  0  0  0  0  0  0  0  0  0  0  0
   10.9882  -15.9006   28.7019 C   0  0  0  0  0  0  0  0  0  0  0  0
    7.8529  -17.0092   26.2802 O   0  0  0  0  0  0  0  0  0  0  0  0
  2  1  1  6
  2  3  1  0
  3  4  1  0
  4  5  2  0
  4  8  1  0
  6  7  2  0
  6  2  1  0
  9  6  1  0
 10 11  1  6
 10  9  1  0
 11 12  1  0
 12 13  2  0
 14 13  1  0
 15 14  1  0
 16 15  2  0
 16 12  1  0
 17 26  1  0
 17 10  1  0
 18 17  2  0
 20 21  2  0
 20 19  1  0
 22 21  1  0
 23 22  2  0
 24 23  1  0
 25 26  1  0
 25 24  1  1
 27 25  1  0
 28 27  2  0
 29 23  1  0
 29 30  2  0
 30 20  1  0
 31 27  1  0
M  END
$$$$
