HGK.pdb
     RDKit          3D

 24 24  0  0  1  0  0  0  0  0999 V2000
    7.9700  -16.9418   19.7766 N   0  0  0  0  0  0  0  0  0  0  0  0
    9.3359  -16.6932   19.3605 C   0  0  1  0  0  0  0  0  0  0  0  0
    9.7099  -15.2292   19.5126 C   0  0  0  0  0  0  0  0  0  0  0  0
    8.5432  -14.3971   19.1277 C   0  0  0  0  0  0  0  0  0  0  0  0
    7.3315  -14.8703   18.6907 C   0  0  0  0  0  0  0  0  0  0  0  0
    6.5535  -13.8003   18.4484 N   0  0  0  0  0  0  0  0  0  0  0  0
    7.2528  -12.6874   18.7240 C   0  0  0  0  0  0  0  0  0  0  0  0
    8.4679  -13.0663   19.1385 N   0  0  0  0  0  0  0  0  0  0  0  0
   10.2176  -17.5593   20.1845 C   0  0  0  0  0  0  0  0  0  0  0  0
   11.4680  -17.6175   19.9703 O   0  0  0  0  0  0  0  0  0  0  0  0
    9.7330  -18.3702   21.2522 N   0  0  0  0  0  0  0  0  0  0  0  0
   10.6163  -19.1680   22.0694 C   0  0  0  0  0  0  0  0  0  0  0  0
   11.2530  -18.2376   23.0715 C   0  0  0  0  0  0  0  0  0  0  0  0
   12.1071  -17.3911   22.6999 O   0  0  0  0  0  0  0  0  0  0  0  0
   10.9057  -18.2962   24.4430 N   0  0  0  0  0  0  0  0  0  0  0  0
   11.4549  -17.4824   25.4950 C   0  0  1  0  0  0  0  0  0  0  0  0
   10.4443  -16.8312   26.3722 C   0  0  0  0  0  0  0  0  0  0  0  0
   11.0035  -15.9295   27.4113 C   0  0  0  0  0  0  0  0  0  0  0  0
   10.0217  -15.2604   28.2943 C   0  0  0  0  0  0  0  0  0  0  0  0
   10.6111  -14.3042   29.2902 C   0  0  0  0  0  0  0  0  0  0  0  0
    9.6740  -13.7006   30.1758 N   0  0  0  0  0  0  0  0  0  0  0  0
   12.3782  -18.2965   26.3711 C   0  0  0  0  0  0  0  0  0  0  0  0
   12.1398  -19.5144   26.4888 O   0  0  0  0  0  0  0  0  0  0  0  0
   13.4463  -17.7099   27.0166 O   0  0  0  0  0  0  0  0  0  0  0  0
  2  1  1  1
  2  9  1  0
  3  4  1  0
  3  2  1  0
  4  5  2  0
  5  6  1  0
  7  6  1  0
  8  4  1  0
  8  7  2  0
  9 10  2  0
 11 12  1  0
 11  9  1  0
 12 13  1  0
 13 14  2  0
 13 15  1  0
 15 16  1  0
 16 17  1  1
 16 22  1  0
 17 18  1  0
 19 18  1  0
 20 21  1  0
 20 19  1  0
 22 24  1  0
 23 22  2  0
M  END
$$$$
