HGK.pdb
     RDKit          3D

 24 24  0  0  1  0  0  0  0  0999 V2000
    8.2916  -17.2704   20.6358 N   0  0  0  0  0  0  0  0  0  0  0  0
    9.3581  -16.3104   20.4320 C   0  0  1  0  0  0  0  0  0  0  0  0
    8.8566  -14.8821   20.5537 C   0  0  0  0  0  0  0  0  0  0  0  0
    8.0482  -14.7651   21.7924 C   0  0  0  0  0  0  0  0  0  0  0  0
    7.7173  -15.7979   22.6331 C   0  0  0  0  0  0  0  0  0  0  0  0
    6.9822  -15.2752   23.6309 N   0  0  0  0  0  0  0  0  0  0  0  0
    6.8538  -13.9543   23.4255 C   0  0  0  0  0  0  0  0  0  0  0  0
    7.5102  -13.6552   22.2980 N   0  0  0  0  0  0  0  0  0  0  0  0
   10.4127  -16.5950   21.4385 C   0  0  0  0  0  0  0  0  0  0  0  0
   11.4918  -15.9261   21.4672 O   0  0  0  0  0  0  0  0  0  0  0  0
   10.2911  -17.6183   22.4238 N   0  0  0  0  0  0  0  0  0  0  0  0
   11.3498  -17.9074   23.3619 C   0  0  0  0  0  0  0  0  0  0  0  0
   11.2927  -16.8480   24.4340 C   0  0  0  0  0  0  0  0  0  0  0  0
   12.2495  -16.0444   24.5855 O   0  0  0  0  0  0  0  0  0  0  0  0
   10.1685  -16.7354   25.2877 N   0  0  0  0  0  0  0  0  0  0  0  0
   10.1603  -16.1782   26.6144 C   0  0  1  0  0  0  0  0  0  0  0  0
    8.8652  -15.5737   27.0291 C   0  0  0  0  0  0  0  0  0  0  0  0
    8.4746  -14.3522   26.2801 C   0  0  0  0  0  0  0  0  0  0  0  0
    7.1507  -13.7778   26.6096 C   0  0  0  0  0  0  0  0  0  0  0  0
    6.8030  -12.5181   25.8708 C   0  0  0  0  0  0  0  0  0  0  0  0
    5.5408  -11.9507   26.2050 N   0  0  0  0  0  0  0  0  0  0  0  0
   10.5337  -17.2277   27.6351 C   0  0  0  0  0  0  0  0  0  0  0  0
   10.8318  -16.8399   28.7816 O   0  0  0  0  0  0  0  0  0  0  0  0
   10.5434  -18.5670   27.3067 O   0  0  0  0  0  0  0  0  0  0  0  0
  2  1  1  1
  2  9  1  0
  3  4  1  0
  3  2  1  0
  4  5  2  0
  5  6  1  0
  7  6  1  0
  8  4  1  0
  8  7  2  0
  9 10  2  0
 11 12  1  0
 11  9  1  0
 12 13  1  0
 13 14  2  0
 13 15  1  0
 15 16  1  0
 16 17  1  1
 16 22  1  0
 17 18  1  0
 19 18  1  0
 20 21  1  0
 20 19  1  0
 22 24  1  0
 23 22  2  0
M  END
$$$$
