HGK.pdb
     RDKit          3D

 24 24  0  0  1  0  0  0  0  0999 V2000
    8.7221  -16.1188   20.4286 N   0  0  0  0  0  0  0  0  0  0  0  0
    9.9787  -16.3150   19.7334 C   0  0  1  0  0  0  0  0  0  0  0  0
   10.2621  -15.1849   18.7595 C   0  0  0  0  0  0  0  0  0  0  0  0
    9.0095  -14.8543   18.0359 C   0  0  0  0  0  0  0  0  0  0  0  0
    7.8055  -15.4951   18.1854 C   0  0  0  0  0  0  0  0  0  0  0  0
    6.9330  -14.8955   17.3559 N   0  0  0  0  0  0  0  0  0  0  0  0
    7.5672  -13.9075   16.7038 C   0  0  0  0  0  0  0  0  0  0  0  0
    8.8364  -13.8929   17.1288 N   0  0  0  0  0  0  0  0  0  0  0  0
   11.0460  -16.4160   20.7615 C   0  0  0  0  0  0  0  0  0  0  0  0
   12.2616  -16.5808   20.4330 O   0  0  0  0  0  0  0  0  0  0  0  0
   10.7872  -16.3367   22.1613 N   0  0  0  0  0  0  0  0  0  0  0  0
   11.8353  -16.4849   23.1432 C   0  0  0  0  0  0  0  0  0  0  0  0
   11.1899  -16.3647   24.5011 C   0  0  0  0  0  0  0  0  0  0  0  0
   11.8945  -16.3834   25.5439 O   0  0  0  0  0  0  0  0  0  0  0  0
    9.7864  -16.2290   24.6311 N   0  0  0  0  0  0  0  0  0  0  0  0
    9.0284  -16.3580   25.8475 C   0  0  1  0  0  0  0  0  0  0  0  0
    7.7823  -15.5457   25.8952 C   0  0  0  0  0  0  0  0  0  0  0  0
    7.9825  -14.1079   26.2085 C   0  0  0  0  0  0  0  0  0  0  0  0
    6.7650  -13.2660   26.2244 C   0  0  0  0  0  0  0  0  0  0  0  0
    6.9913  -11.8284   26.5927 C   0  0  0  0  0  0  0  0  0  0  0  0
    5.8111  -11.0399   26.7024 N   0  0  0  0  0  0  0  0  0  0  0  0
    8.6543  -17.8015   26.0912 C   0  0  0  0  0  0  0  0  0  0  0  0
    8.7472  -18.5932   25.1329 O   0  0  0  0  0  0  0  0  0  0  0  0
    8.2255  -18.2250   27.3314 O   0  0  0  0  0  0  0  0  0  0  0  0
  2  1  1  1
  2  9  1  0
  3  4  1  0
  3  2  1  0
  4  5  2  0
  5  6  1  0
  7  6  1  0
  8  4  1  0
  8  7  2  0
  9 10  2  0
 11 12  1  0
 11  9  1  0
 12 13  1  0
 13 14  2  0
 13 15  1  0
 15 16  1  0
 16 17  1  6
 16 22  1  0
 17 18  1  0
 19 18  1  0
 20 21  1  0
 20 19  1  0
 22 24  1  0
 23 22  2  0
M  END
$$$$
