HGK.pdb
     RDKit          3D

 24 24  0  0  1  0  0  0  0  0999 V2000
    9.0896  -16.7308   19.3145 N   0  0  0  0  0  0  0  0  0  0  0  0
   10.4707  -16.3051   19.2055 C   0  0  1  0  0  0  0  0  0  0  0  0
   10.6244  -14.8227   19.4973 C   0  0  0  0  0  0  0  0  0  0  0  0
    9.2749  -14.2119   19.5839 C   0  0  0  0  0  0  0  0  0  0  0  0
    8.1143  -14.7625   19.1014 C   0  0  0  0  0  0  0  0  0  0  0  0
    7.1216  -13.8988   19.3797 N   0  0  0  0  0  0  0  0  0  0  0  0
    7.6402  -12.8369   20.0177 C   0  0  0  0  0  0  0  0  0  0  0  0
    8.9578  -13.0409   20.1363 N   0  0  0  0  0  0  0  0  0  0  0  0
   11.2659  -17.1232   20.1566 C   0  0  0  0  0  0  0  0  0  0  0  0
   12.5305  -17.0216   20.2132 O   0  0  0  0  0  0  0  0  0  0  0  0
   10.6783  -18.0612   21.0552 N   0  0  0  0  0  0  0  0  0  0  0  0
   11.4737  -18.8526   21.9638 C   0  0  0  0  0  0  0  0  0  0  0  0
   11.7718  -17.9854   23.1613 C   0  0  0  0  0  0  0  0  0  0  0  0
   12.7911  -17.2470   23.1737 O   0  0  0  0  0  0  0  0  0  0  0  0
   10.9170  -17.9835   24.2902 N   0  0  0  0  0  0  0  0  0  0  0  0
   11.1119  -17.2347   25.5035 C   0  0  1  0  0  0  0  0  0  0  0  0
    9.8701  -16.9705   26.2799 C   0  0  0  0  0  0  0  0  0  0  0  0
   10.0626  -16.1767   27.5202 C   0  0  0  0  0  0  0  0  0  0  0  0
    9.4585  -14.8253   27.5326 C   0  0  0  0  0  0  0  0  0  0  0  0
    9.6561  -14.0527   28.8044 C   0  0  0  0  0  0  0  0  0  0  0  0
    8.9178  -12.8389   28.8947 N   0  0  0  0  0  0  0  0  0  0  0  0
   12.0900  -17.9406   26.4135 C   0  0  0  0  0  0  0  0  0  0  0  0
   12.2121  -19.1745   26.2861 O   0  0  0  0  0  0  0  0  0  0  0  0
   12.8206  -17.2413   27.3510 O   0  0  0  0  0  0  0  0  0  0  0  0
  2  1  1  1
  2  9  1  0
  3  4  1  0
  3  2  1  0
  4  5  2  0
  5  6  1  0
  7  6  1  0
  8  4  1  0
  8  7  2  0
  9 10  2  0
 11 12  1  0
 11  9  1  0
 12 13  1  0
 13 14  2  0
 13 15  1  0
 15 16  1  0
 16 17  1  1
 16 22  1  0
 17 18  1  0
 19 18  1  0
 20 21  1  0
 20 19  1  0
 22 24  1  0
 23 22  2  0
M  END
$$$$
