HGK.pdb
     RDKit          3D

 24 24  0  0  1  0  0  0  0  0999 V2000
    7.4343  -17.1800   20.4327 N   0  0  0  0  0  0  0  0  0  0  0  0
    8.8654  -16.9737   20.3315 C   0  0  1  0  0  0  0  0  0  0  0  0
    9.2473  -16.3397   19.0054 C   0  0  0  0  0  0  0  0  0  0  0  0
    8.4998  -15.0669   18.8532 C   0  0  0  0  0  0  0  0  0  0  0  0
    7.1754  -14.9518   18.5130 C   0  0  0  0  0  0  0  0  0  0  0  0
    6.8881  -13.6383   18.4817 N   0  0  0  0  0  0  0  0  0  0  0  0
    7.9968  -12.9469   18.7924 C   0  0  0  0  0  0  0  0  0  0  0  0
    8.9751  -13.8324   19.0173 N   0  0  0  0  0  0  0  0  0  0  0  0
    9.2739  -16.1151   21.4726 C   0  0  0  0  0  0  0  0  0  0  0  0
   10.4688  -15.7010   21.5889 O   0  0  0  0  0  0  0  0  0  0  0  0
    8.3723  -15.7032   22.4974 N   0  0  0  0  0  0  0  0  0  0  0  0
    8.7402  -14.7238   23.4924 C   0  0  0  0  0  0  0  0  0  0  0  0
    9.3502  -15.4755   24.6490 C   0  0  0  0  0  0  0  0  0  0  0  0
    9.4407  -16.7305   24.6148 O   0  0  0  0  0  0  0  0  0  0  0  0
    9.8311  -14.7899   25.7909 N   0  0  0  0  0  0  0  0  0  0  0  0
   10.0485  -15.3578   27.0951 C   0  0  1  0  0  0  0  0  0  0  0  0
    9.9023  -14.4002   28.2248 C   0  0  0  0  0  0  0  0  0  0  0  0
   10.1382  -14.9787   29.5721 C   0  0  0  0  0  0  0  0  0  0  0  0
   11.4094  -15.7148   29.7547 C   0  0  0  0  0  0  0  0  0  0  0  0
   11.5920  -16.3420   31.1064 C   0  0  0  0  0  0  0  0  0  0  0  0
   12.7787  -17.1133   31.2591 N   0  0  0  0  0  0  0  0  0  0  0  0
    9.1048  -16.5127   27.3371 C   0  0  0  0  0  0  0  0  0  0  0  0
    9.5545  -17.5134   27.9289 O   0  0  0  0  0  0  0  0  0  0  0  0
    7.7927  -16.4586   26.9166 O   0  0  0  0  0  0  0  0  0  0  0  0
  2  1  1  6
  2  9  1  0
  3  4  1  0
  3  2  1  0
  4  5  2  0
  5  6  1  0
  7  6  1  0
  8  4  1  0
  8  7  2  0
  9 10  2  0
 11 12  1  0
 11  9  1  0
 12 13  1  0
 13 14  2  0
 13 15  1  0
 15 16  1  0
 16 17  1  1
 16 22  1  0
 17 18  1  0
 19 18  1  0
 20 21  1  0
 20 19  1  0
 22 24  1  0
 23 22  2  0
M  END
$$$$
