HGK.pdb
     RDKit          3D

 24 24  0  0  1  0  0  0  0  0999 V2000
    9.4881  -15.7992   19.3423 N   0  0  0  0  0  0  0  0  0  0  0  0
    8.4259  -14.9648   19.8676 C   0  0  1  0  0  0  0  0  0  0  0  0
    7.1713  -15.0536   19.0164 C   0  0  0  0  0  0  0  0  0  0  0  0
    7.5103  -14.6615   17.6260 C   0  0  0  0  0  0  0  0  0  0  0  0
    8.2553  -13.5684   17.2614 C   0  0  0  0  0  0  0  0  0  0  0  0
    8.3301  -13.5712   15.9185 N   0  0  0  0  0  0  0  0  0  0  0  0
    7.6533  -14.6329   15.4512 C   0  0  0  0  0  0  0  0  0  0  0  0
    7.1570  -15.2914   16.5056 N   0  0  0  0  0  0  0  0  0  0  0  0
    8.1599  -15.4060   21.2607 C   0  0  0  0  0  0  0  0  0  0  0  0
    7.3391  -14.7823   22.0024 O   0  0  0  0  0  0  0  0  0  0  0  0
    8.7939  -16.5377   21.8523 N   0  0  0  0  0  0  0  0  0  0  0  0
    8.4202  -17.0293   23.1573 C   0  0  0  0  0  0  0  0  0  0  0  0
    9.1345  -16.1740   24.1737 C   0  0  0  0  0  0  0  0  0  0  0  0
   10.2303  -15.6257   23.8858 O   0  0  0  0  0  0  0  0  0  0  0  0
    8.5912  -15.9708   25.4655 N   0  0  0  0  0  0  0  0  0  0  0  0
    9.1731  -15.1811   26.5185 C   0  0  1  0  0  0  0  0  0  0  0  0
    8.2278  -14.2545   27.1985 C   0  0  0  0  0  0  0  0  0  0  0  0
    7.6150  -13.2267   26.3189 C   0  0  0  0  0  0  0  0  0  0  0  0
    6.6431  -12.3123   26.9596 C   0  0  0  0  0  0  0  0  0  0  0  0
    6.0144  -11.3068   26.0389 C   0  0  0  0  0  0  0  0  0  0  0  0
    4.9839  -10.5160   26.6214 N   0  0  0  0  0  0  0  0  0  0  0  0
    9.7929  -16.0708   27.5707 C   0  0  0  0  0  0  0  0  0  0  0  0
    9.4927  -17.2805   27.5559 O   0  0  0  0  0  0  0  0  0  0  0  0
   10.6599  -15.5593   28.5132 O   0  0  0  0  0  0  0  0  0  0  0  0
  2  1  1  6
  2  9  1  0
  3  4  1  0
  3  2  1  0
  4  5  2  0
  5  6  1  0
  7  6  1  0
  8  4  1  0
  8  7  2  0
  9 10  2  0
 11 12  1  0
 11  9  1  0
 12 13  1  0
 13 14  2  0
 13 15  1  0
 15 16  1  0
 16 17  1  1
 16 22  1  0
 17 18  1  0
 19 18  1  0
 20 21  1  0
 20 19  1  0
 22 24  1  0
 23 22  2  0
M  END
$$$$
