HGK.pdb
     RDKit          3D

 24 24  0  0  1  0  0  0  0  0999 V2000
    9.6269  -15.6616   19.6738 N   0  0  0  0  0  0  0  0  0  0  0  0
    8.5612  -14.9191   20.3169 C   0  0  1  0  0  0  0  0  0  0  0  0
    7.2758  -14.9719   19.5099 C   0  0  0  0  0  0  0  0  0  0  0  0
    7.5365  -14.4095   18.1617 C   0  0  0  0  0  0  0  0  0  0  0  0
    8.0497  -13.1644   17.8990 C   0  0  0  0  0  0  0  0  0  0  0  0
    8.1301  -13.0441   16.5619 N   0  0  0  0  0  0  0  0  0  0  0  0
    7.6815  -14.1780   15.9992 C   0  0  0  0  0  0  0  0  0  0  0  0
    7.3216  -15.0047   16.9884 N   0  0  0  0  0  0  0  0  0  0  0  0
    8.3676  -15.4991   21.6706 C   0  0  0  0  0  0  0  0  0  0  0  0
    7.4926  -15.0351   22.4655 O   0  0  0  0  0  0  0  0  0  0  0  0
    9.1344  -16.5952   22.1636 N   0  0  0  0  0  0  0  0  0  0  0  0
    8.9306  -17.1388   23.4856 C   0  0  0  0  0  0  0  0  0  0  0  0
    9.6174  -16.2111   24.4564 C   0  0  0  0  0  0  0  0  0  0  0  0
   10.7983  -15.8302   24.2448 O   0  0  0  0  0  0  0  0  0  0  0  0
    8.9527  -15.7515   25.6192 N   0  0  0  0  0  0  0  0  0  0  0  0
    9.5159  -14.9165   26.6470 C   0  0  1  0  0  0  0  0  0  0  0  0
    8.5420  -14.0178   27.3241 C   0  0  0  0  0  0  0  0  0  0  0  0
    7.7935  -13.1086   26.4193 C   0  0  0  0  0  0  0  0  0  0  0  0
    6.7542  -12.2656   27.0521 C   0  0  0  0  0  0  0  0  0  0  0  0
    6.0587  -11.3114   26.1250 C   0  0  0  0  0  0  0  0  0  0  0  0
    4.9842  -10.5801   26.7057 N   0  0  0  0  0  0  0  0  0  0  0  0
   10.1898  -15.7573   27.7062 C   0  0  0  0  0  0  0  0  0  0  0  0
   10.8650  -15.1662   28.5715 O   0  0  0  0  0  0  0  0  0  0  0  0
   10.0606  -17.1301   27.7128 O   0  0  0  0  0  0  0  0  0  0  0  0
  2  1  1  6
  2  9  1  0
  3  4  1  0
  3  2  1  0
  4  5  2  0
  5  6  1  0
  7  6  1  0
  8  4  1  0
  8  7  2  0
  9 10  2  0
 11 12  1  0
 11  9  1  0
 12 13  1  0
 13 14  2  0
 13 15  1  0
 15 16  1  0
 16 17  1  1
 16 22  1  0
 17 18  1  0
 19 18  1  0
 20 21  1  0
 20 19  1  0
 22 24  1  0
 23 22  2  0
M  END
$$$$
