HGK.pdb
     RDKit          3D

 24 24  0  0  1  0  0  0  0  0999 V2000
    8.8311  -13.9075   19.5390 N   0  0  0  0  0  0  0  0  0  0  0  0
    7.9237  -14.9445   19.9884 C   0  0  1  0  0  0  0  0  0  0  0  0
    7.3171  -15.7024   18.8205 C   0  0  0  0  0  0  0  0  0  0  0  0
    7.6803  -15.0068   17.5611 C   0  0  0  0  0  0  0  0  0  0  0  0
    7.9026  -13.6595   17.4260 C   0  0  0  0  0  0  0  0  0  0  0  0
    8.2044  -13.4363   16.1345 N   0  0  0  0  0  0  0  0  0  0  0  0
    8.1732  -14.6064   15.4760 C   0  0  0  0  0  0  0  0  0  0  0  0
    7.8515  -15.5587   16.3599 N   0  0  0  0  0  0  0  0  0  0  0  0
    8.6915  -15.8547   20.8763 C   0  0  0  0  0  0  0  0  0  0  0  0
    8.1351  -16.8481   21.4388 O   0  0  0  0  0  0  0  0  0  0  0  0
   10.0790  -15.6815   21.1546 N   0  0  0  0  0  0  0  0  0  0  0  0
   10.8321  -16.6456   21.9214 C   0  0  0  0  0  0  0  0  0  0  0  0
   10.7555  -16.2192   23.3661 C   0  0  0  0  0  0  0  0  0  0  0  0
   11.8016  -15.9102   23.9942 O   0  0  0  0  0  0  0  0  0  0  0  0
    9.5131  -16.1579   24.0427 N   0  0  0  0  0  0  0  0  0  0  0  0
    9.3108  -15.7850   25.4178 C   0  0  1  0  0  0  0  0  0  0  0  0
    7.9773  -15.1946   25.7144 C   0  0  0  0  0  0  0  0  0  0  0  0
    7.9832  -13.7334   25.9797 C   0  0  0  0  0  0  0  0  0  0  0  0
    6.6920  -13.1378   26.3911 C   0  0  0  0  0  0  0  0  0  0  0  0
    6.7233  -11.6561   26.6306 C   0  0  0  0  0  0  0  0  0  0  0  0
    5.5073  -11.0967   27.1150 N   0  0  0  0  0  0  0  0  0  0  0  0
    9.5067  -16.9760   26.3267 C   0  0  0  0  0  0  0  0  0  0  0  0
    9.4409  -18.1111   25.8157 O   0  0  0  0  0  0  0  0  0  0  0  0
    9.7494  -16.8097   27.6739 O   0  0  0  0  0  0  0  0  0  0  0  0
  2  1  1  6
  2  9  1  0
  3  4  1  0
  3  2  1  0
  4  5  2  0
  5  6  1  0
  7  6  1  0
  8  4  1  0
  8  7  2  0
  9 10  2  0
 11 12  1  0
 11  9  1  0
 12 13  1  0
 13 14  2  0
 13 15  1  0
 15 16  1  0
 16 17  1  6
 16 22  1  0
 17 18  1  0
 19 18  1  0
 20 21  1  0
 20 19  1  0
 22 24  1  0
 23 22  2  0
M  END
$$$$
