HGK.pdb
     RDKit          3D

 24 24  0  0  1  0  0  0  0  0999 V2000
    9.1449  -15.9611   19.7115 N   0  0  0  0  0  0  0  0  0  0  0  0
    8.3369  -14.8682   20.2149 C   0  0  1  0  0  0  0  0  0  0  0  0
    7.1341  -14.6055   19.3259 C   0  0  0  0  0  0  0  0  0  0  0  0
    7.6133  -14.2840   17.9589 C   0  0  0  0  0  0  0  0  0  0  0  0
    8.2950  -13.1500   17.5954 C   0  0  0  0  0  0  0  0  0  0  0  0
    8.5437  -13.2439   16.2770 N   0  0  0  0  0  0  0  0  0  0  0  0
    8.0346  -14.4009   15.8235 C   0  0  0  0  0  0  0  0  0  0  0  0
    7.4684  -15.0275   16.8620 N   0  0  0  0  0  0  0  0  0  0  0  0
    7.9158  -15.2236   21.5942 C   0  0  0  0  0  0  0  0  0  0  0  0
    7.2532  -14.4099   22.3095 O   0  0  0  0  0  0  0  0  0  0  0  0
    8.2190  -16.4777   22.2009 N   0  0  0  0  0  0  0  0  0  0  0  0
    7.8651  -16.7715   23.5695 C   0  0  0  0  0  0  0  0  0  0  0  0
    8.8929  -16.1007   24.4462 C   0  0  0  0  0  0  0  0  0  0  0  0
   10.0977  -16.0461   24.0858 O   0  0  0  0  0  0  0  0  0  0  0  0
    8.5269  -15.5217   25.6855 N   0  0  0  0  0  0  0  0  0  0  0  0
    9.4219  -14.9357   26.6479 C   0  0  1  0  0  0  0  0  0  0  0  0
    8.7664  -14.0603   27.6572 C   0  0  0  0  0  0  0  0  0  0  0  0
    8.2176  -12.7882   27.1223 C   0  0  0  0  0  0  0  0  0  0  0  0
    6.7632  -12.5770   27.2999 C   0  0  0  0  0  0  0  0  0  0  0  0
    6.2639  -11.2206   26.8943 C   0  0  0  0  0  0  0  0  0  0  0  0
    4.8625  -11.0223   27.0470 N   0  0  0  0  0  0  0  0  0  0  0  0
   10.1861  -16.0092   27.3871 C   0  0  0  0  0  0  0  0  0  0  0  0
    9.8306  -17.1922   27.2197 O   0  0  0  0  0  0  0  0  0  0  0  0
   11.2396  -15.6884   28.2170 O   0  0  0  0  0  0  0  0  0  0  0  0
  2  1  1  6
  2  9  1  0
  3  4  1  0
  3  2  1  0
  4  5  2  0
  5  6  1  0
  7  6  1  0
  8  4  1  0
  8  7  2  0
  9 10  2  0
 11 12  1  0
 11  9  1  0
 12 13  1  0
 13 14  2  0
 13 15  1  0
 15 16  1  0
 16 17  1  1
 16 22  1  0
 17 18  1  0
 19 18  1  0
 20 21  1  0
 20 19  1  0
 22 24  1  0
 23 22  2  0
M  END
$$$$
