HGK.pdb
     RDKit          3D

 24 24  0  0  1  0  0  0  0  0999 V2000
   11.3741  -15.4387   17.5221 N   0  0  0  0  0  0  0  0  0  0  0  0
   11.7170  -15.1253   18.8950 C   0  0  1  0  0  0  0  0  0  0  0  0
   11.3837  -13.6845   19.2404 C   0  0  0  0  0  0  0  0  0  0  0  0
    9.9110  -13.5107   19.1886 C   0  0  0  0  0  0  0  0  0  0  0  0
    9.0136  -14.4255   18.6981 C   0  0  0  0  0  0  0  0  0  0  0  0
    7.7881  -13.8877   18.8318 N   0  0  0  0  0  0  0  0  0  0  0  0
    7.9092  -12.6719   19.3893 C   0  0  0  0  0  0  0  0  0  0  0  0
    9.2125  -12.4535   19.6025 N   0  0  0  0  0  0  0  0  0  0  0  0
   10.9738  -16.0705   19.7671 C   0  0  0  0  0  0  0  0  0  0  0  0
   10.5782  -17.1954   19.3304 O   0  0  0  0  0  0  0  0  0  0  0  0
   10.6581  -15.7879   21.1284 N   0  0  0  0  0  0  0  0  0  0  0  0
   10.1191  -16.7930   22.0138 C   0  0  0  0  0  0  0  0  0  0  0  0
   10.9432  -16.7585   23.2765 C   0  0  0  0  0  0  0  0  0  0  0  0
   12.1591  -16.4356   23.2337 O   0  0  0  0  0  0  0  0  0  0  0  0
   10.3706  -17.0866   24.5293 N   0  0  0  0  0  0  0  0  0  0  0  0
   11.0164  -16.9889   25.8116 C   0  0  1  0  0  0  0  0  0  0  0  0
   10.1705  -16.4168   26.8941 C   0  0  0  0  0  0  0  0  0  0  0  0
    9.6166  -15.0683   26.6110 C   0  0  0  0  0  0  0  0  0  0  0  0
    8.7742  -14.4710   27.6717 C   0  0  0  0  0  0  0  0  0  0  0  0
    8.2437  -13.1005   27.3653 C   0  0  0  0  0  0  0  0  0  0  0  0
    7.4112  -12.5359   28.3727 N   0  0  0  0  0  0  0  0  0  0  0  0
   11.5037  -18.3446   26.2670 C   0  0  0  0  0  0  0  0  0  0  0  0
   10.9824  -19.3512   25.7486 O   0  0  0  0  0  0  0  0  0  0  0  0
   12.4908  -18.4609   27.2228 O   0  0  0  0  0  0  0  0  0  0  0  0
  2  1  1  6
  2  9  1  0
  3  4  1  0
  3  2  1  0
  4  5  2  0
  5  6  1  0
  7  6  1  0
  8  4  1  0
  8  7  2  0
  9 10  2  0
 11 12  1  0
 11  9  1  0
 12 13  1  0
 13 14  2  0
 13 15  1  0
 15 16  1  0
 16 17  1  1
 16 22  1  0
 17 18  1  0
 19 18  1  0
 20 21  1  0
 20 19  1  0
 22 24  1  0
 23 22  2  0
M  END
$$$$
