HGK.pdb
     RDKit          3D

 24 24  0  0  1  0  0  0  0  0999 V2000
    9.8274  -16.1085   19.1872 N   0  0  0  0  0  0  0  0  0  0  0  0
    8.9821  -15.0534   19.7097 C   0  0  1  0  0  0  0  0  0  0  0  0
    7.5965  -15.0869   19.0890 C   0  0  0  0  0  0  0  0  0  0  0  0
    7.6913  -14.6108   17.6867 C   0  0  0  0  0  0  0  0  0  0  0  0
    8.8388  -14.2004   17.0563 C   0  0  0  0  0  0  0  0  0  0  0  0
    8.4978  -13.8506   15.8032 N   0  0  0  0  0  0  0  0  0  0  0  0
    7.1766  -14.0347   15.6486 C   0  0  0  0  0  0  0  0  0  0  0  0
    6.6953  -14.4999   16.8077 N   0  0  0  0  0  0  0  0  0  0  0  0
    8.9127  -15.2262   21.1834 C   0  0  0  0  0  0  0  0  0  0  0  0
    9.0157  -16.3744   21.7161 O   0  0  0  0  0  0  0  0  0  0  0  0
    8.7294  -14.1380   22.0860 N   0  0  0  0  0  0  0  0  0  0  0  0
    9.1369  -14.2136   23.4690 C   0  0  0  0  0  0  0  0  0  0  0  0
    8.0912  -15.0227   24.1949 C   0  0  0  0  0  0  0  0  0  0  0  0
    7.0348  -14.4748   24.6049 O   0  0  0  0  0  0  0  0  0  0  0  0
    8.2743  -16.4071   24.4293 N   0  0  0  0  0  0  0  0  0  0  0  0
    7.9249  -17.1201   25.6294 C   0  0  1  0  0  0  0  0  0  0  0  0
    7.7747  -18.5910   25.4598 C   0  0  0  0  0  0  0  0  0  0  0  0
    6.7329  -19.0070   24.4867 C   0  0  0  0  0  0  0  0  0  0  0  0
    6.5351  -20.4649   24.3232 C   0  0  0  0  0  0  0  0  0  0  0  0
    5.4994  -20.8558   23.3091 C   0  0  0  0  0  0  0  0  0  0  0  0
    5.3836  -22.2548   23.0724 N   0  0  0  0  0  0  0  0  0  0  0  0
    8.9516  -16.8774   26.7111 C   0  0  0  0  0  0  0  0  0  0  0  0
   10.0713  -16.4551   26.3620 O   0  0  0  0  0  0  0  0  0  0  0  0
    8.6572  -17.1155   28.0370 O   0  0  0  0  0  0  0  0  0  0  0  0
  2  1  1  6
  2  9  1  0
  3  4  1  0
  3  2  1  0
  4  5  2  0
  5  6  1  0
  7  6  1  0
  8  4  1  0
  8  7  2  0
  9 10  2  0
 11 12  1  0
 11  9  1  0
 12 13  1  0
 13 14  2  0
 13 15  1  0
 15 16  1  0
 16 17  1  6
 16 22  1  0
 17 18  1  0
 19 18  1  0
 20 21  1  0
 20 19  1  0
 22 24  1  0
 23 22  2  0
M  END
$$$$
