HGK.pdb
     RDKit          3D

 24 24  0  0  1  0  0  0  0  0999 V2000
   10.0099  -17.9056   18.0050 N   0  0  0  0  0  0  0  0  0  0  0  0
    9.1950  -16.7492   18.3201 C   0  0  1  0  0  0  0  0  0  0  0  0
    8.2020  -16.4452   17.2121 C   0  0  0  0  0  0  0  0  0  0  0  0
    8.2961  -15.0044   16.8703 C   0  0  0  0  0  0  0  0  0  0  0  0
    9.1572  -14.1008   17.4403 C   0  0  0  0  0  0  0  0  0  0  0  0
    8.9259  -12.9117   16.8560 N   0  0  0  0  0  0  0  0  0  0  0  0
    7.9495  -13.0609   15.9461 C   0  0  0  0  0  0  0  0  0  0  0  0
    7.5731  -14.3453   15.9648 N   0  0  0  0  0  0  0  0  0  0  0  0
    8.4980  -17.0306   19.6012 C   0  0  0  0  0  0  0  0  0  0  0  0
    7.4771  -17.7849   19.6422 O   0  0  0  0  0  0  0  0  0  0  0  0
    8.9167  -16.4854   20.8502 N   0  0  0  0  0  0  0  0  0  0  0  0
    8.1621  -16.6861   22.0646 C   0  0  0  0  0  0  0  0  0  0  0  0
    8.8368  -15.8768   23.1439 C   0  0  0  0  0  0  0  0  0  0  0  0
    9.9836  -15.3942   22.9536 O   0  0  0  0  0  0  0  0  0  0  0  0
    8.1986  -15.6441   24.3863 N   0  0  0  0  0  0  0  0  0  0  0  0
    8.8001  -15.0580   25.5549 C   0  0  1  0  0  0  0  0  0  0  0  0
    7.8372  -14.4560   26.5168 C   0  0  0  0  0  0  0  0  0  0  0  0
    7.1142  -13.2598   26.0148 C   0  0  0  0  0  0  0  0  0  0  0  0
    6.3118  -12.5145   27.0108 C   0  0  0  0  0  0  0  0  0  0  0  0
    5.6767  -11.2537   26.5000 C   0  0  0  0  0  0  0  0  0  0  0  0
    4.9057  -10.5351   27.4570 N   0  0  0  0  0  0  0  0  0  0  0  0
    9.6252  -16.0817   26.2993 C   0  0  0  0  0  0  0  0  0  0  0  0
    9.2282  -17.2632   26.2895 O   0  0  0  0  0  0  0  0  0  0  0  0
   10.7767  -15.7184   26.9654 O   0  0  0  0  0  0  0  0  0  0  0  0
  2  1  1  6
  2  9  1  0
  3  4  1  0
  3  2  1  0
  4  5  2  0
  5  6  1  0
  7  6  1  0
  8  4  1  0
  8  7  2  0
  9 10  2  0
 11 12  1  0
 11  9  1  0
 12 13  1  0
 13 14  2  0
 13 15  1  0
 15 16  1  0
 16 17  1  1
 16 22  1  0
 17 18  1  0
 19 18  1  0
 20 21  1  0
 20 19  1  0
 22 24  1  0
 23 22  2  0
M  END
$$$$
