HGK.pdb
     RDKit          3D

 24 24  0  0  1  0  0  0  0  0999 V2000
    9.0785  -14.8871   21.3261 N   0  0  0  0  0  0  0  0  0  0  0  0
    7.8678  -14.0962   21.4236 C   0  0  1  0  0  0  0  0  0  0  0  0
    6.9268  -14.3677   20.2630 C   0  0  0  0  0  0  0  0  0  0  0  0
    7.6433  -14.0896   18.9937 C   0  0  0  0  0  0  0  0  0  0  0  0
    7.3315  -14.6171   17.7660 C   0  0  0  0  0  0  0  0  0  0  0  0
    8.2161  -14.1172   16.8848 N   0  0  0  0  0  0  0  0  0  0  0  0
    9.0593  -13.3001   17.5367 C   0  0  0  0  0  0  0  0  0  0  0  0
    8.6981  -13.2920   18.8256 N   0  0  0  0  0  0  0  0  0  0  0  0
    7.2248  -14.4234   22.7219 C   0  0  0  0  0  0  0  0  0  0  0  0
    6.0383  -14.0514   22.9801 O   0  0  0  0  0  0  0  0  0  0  0  0
    7.8802  -15.1631   23.7495 N   0  0  0  0  0  0  0  0  0  0  0  0
    7.1959  -15.5730   24.9530 C   0  0  0  0  0  0  0  0  0  0  0  0
    8.1682  -16.4018   25.7546 C   0  0  0  0  0  0  0  0  0  0  0  0
    9.3357  -16.6013   25.3286 O   0  0  0  0  0  0  0  0  0  0  0  0
    7.7910  -16.9697   26.9957 N   0  0  0  0  0  0  0  0  0  0  0  0
    7.6483  -18.3730   27.2807 C   0  0  1  0  0  0  0  0  0  0  0  0
    6.8143  -19.1261   26.3051 C   0  0  0  0  0  0  0  0  0  0  0  0
    6.7947  -20.5981   26.5013 C   0  0  0  0  0  0  0  0  0  0  0  0
    6.0412  -21.3822   25.4970 C   0  0  0  0  0  0  0  0  0  0  0  0
    6.0604  -22.8685   25.7065 C   0  0  0  0  0  0  0  0  0  0  0  0
    5.4950  -23.6350   24.6485 N   0  0  0  0  0  0  0  0  0  0  0  0
    9.0012  -19.0419   27.3527 C   0  0  0  0  0  0  0  0  0  0  0  0
    9.1776  -19.8966   28.2427 O   0  0  0  0  0  0  0  0  0  0  0  0
   10.0035  -18.7160   26.4635 O   0  0  0  0  0  0  0  0  0  0  0  0
  2  1  1  6
  2  9  1  0
  3  4  1  0
  3  2  1  0
  4  5  2  0
  5  6  1  0
  7  6  1  0
  8  4  1  0
  8  7  2  0
  9 10  2  0
 11 12  1  0
 11  9  1  0
 12 13  1  0
 13 14  2  0
 13 15  1  0
 15 16  1  0
 16 17  1  6
 16 22  1  0
 17 18  1  0
 19 18  1  0
 20 21  1  0
 20 19  1  0
 22 24  1  0
 23 22  2  0
M  END
$$$$
