HGK.pdb
     RDKit          3D

 24 24  0  0  1  0  0  0  0  0999 V2000
    8.4476  -16.4371   20.6391 N   0  0  0  0  0  0  0  0  0  0  0  0
    8.4230  -15.4525   21.7024 C   0  0  1  0  0  0  0  0  0  0  0  0
    7.3882  -14.3722   21.4414 C   0  0  0  0  0  0  0  0  0  0  0  0
    7.6912  -13.7268   20.1400 C   0  0  0  0  0  0  0  0  0  0  0  0
    8.3545  -12.5375   19.9712 C   0  0  0  0  0  0  0  0  0  0  0  0
    8.4223  -12.3072   18.6479 N   0  0  0  0  0  0  0  0  0  0  0  0
    7.8206  -13.3196   18.0026 C   0  0  0  0  0  0  0  0  0  0  0  0
    7.3779  -14.1810   18.9265 N   0  0  0  0  0  0  0  0  0  0  0  0
    8.1375  -16.1722   22.9700 C   0  0  0  0  0  0  0  0  0  0  0  0
    7.0682  -16.8408   23.1198 O   0  0  0  0  0  0  0  0  0  0  0  0
    9.0250  -16.1638   24.0857 N   0  0  0  0  0  0  0  0  0  0  0  0
    8.7538  -16.9200   25.2854 C   0  0  0  0  0  0  0  0  0  0  0  0
   10.0868  -17.3004   25.8796 C   0  0  0  0  0  0  0  0  0  0  0  0
   11.1537  -17.0501   25.2605 O   0  0  0  0  0  0  0  0  0  0  0  0
   10.1662  -17.9433   27.1388 N   0  0  0  0  0  0  0  0  0  0  0  0
   11.3507  -18.5015   27.7357 C   0  0  1  0  0  0  0  0  0  0  0  0
   11.0969  -19.4999   28.8097 C   0  0  0  0  0  0  0  0  0  0  0  0
   12.3160  -20.1000   29.4091 C   0  0  0  0  0  0  0  0  0  0  0  0
   12.3129  -20.2552   30.8813 C   0  0  0  0  0  0  0  0  0  0  0  0
   13.5578  -20.8638   31.4586 C   0  0  0  0  0  0  0  0  0  0  0  0
   13.5937  -20.9319   32.8801 N   0  0  0  0  0  0  0  0  0  0  0  0
   12.2185  -19.1554   26.6859 C   0  0  0  0  0  0  0  0  0  0  0  0
   11.6727  -19.9528   25.8985 O   0  0  0  0  0  0  0  0  0  0  0  0
   13.5668  -18.8778   26.6044 O   0  0  0  0  0  0  0  0  0  0  0  0
  2  1  1  6
  2  9  1  0
  3  4  1  0
  3  2  1  0
  4  5  2  0
  5  6  1  0
  7  6  1  0
  8  4  1  0
  8  7  2  0
  9 10  2  0
 11 12  1  0
 11  9  1  0
 12 13  1  0
 13 14  2  0
 13 15  1  0
 15 16  1  0
 16 17  1  1
 16 22  1  0
 17 18  1  0
 19 18  1  0
 20 21  1  0
 20 19  1  0
 22 24  1  0
 23 22  2  0
M  END
$$$$
