HGK.pdb
     RDKit          3D

 24 24  0  0  1  0  0  0  0  0999 V2000
    8.9441  -16.9143   20.2733 N   0  0  0  0  0  0  0  0  0  0  0  0
   10.2626  -16.5437   19.7992 C   0  0  1  0  0  0  0  0  0  0  0  0
   10.2182  -15.2892   18.9445 C   0  0  0  0  0  0  0  0  0  0  0  0
    9.0033  -14.5144   19.2989 C   0  0  0  0  0  0  0  0  0  0  0  0
    8.8368  -13.7608   20.4334 C   0  0  0  0  0  0  0  0  0  0  0  0
    7.6049  -13.2244   20.3743 N   0  0  0  0  0  0  0  0  0  0  0  0
    7.0132  -13.6273   19.2380 C   0  0  0  0  0  0  0  0  0  0  0  0
    7.8790  -14.4156   18.5895 N   0  0  0  0  0  0  0  0  0  0  0  0
   11.1268  -16.3488   20.9915 C   0  0  0  0  0  0  0  0  0  0  0  0
   12.3232  -15.9389   20.8763 O   0  0  0  0  0  0  0  0  0  0  0  0
   10.6838  -16.6028   22.3226 N   0  0  0  0  0  0  0  0  0  0  0  0
   11.5032  -16.3019   23.4726 C   0  0  0  0  0  0  0  0  0  0  0  0
   10.7336  -16.7438   24.6922 C   0  0  0  0  0  0  0  0  0  0  0  0
   10.5148  -15.9365   25.6329 O   0  0  0  0  0  0  0  0  0  0  0  0
   10.2439  -18.0676   24.8045 N   0  0  0  0  0  0  0  0  0  0  0  0
    9.4916  -18.6057   25.9070 C   0  0  1  0  0  0  0  0  0  0  0  0
    8.3797  -19.5153   25.5185 C   0  0  0  0  0  0  0  0  0  0  0  0
    7.4030  -18.9383   24.5600 C   0  0  0  0  0  0  0  0  0  0  0  0
    6.3007  -19.8293   24.1331 C   0  0  0  0  0  0  0  0  0  0  0  0
    5.4064  -19.2673   23.0662 C   0  0  0  0  0  0  0  0  0  0  0  0
    4.3959  -20.1532   22.5966 N   0  0  0  0  0  0  0  0  0  0  0  0
   10.3985  -19.3553   26.8549 C   0  0  0  0  0  0  0  0  0  0  0  0
    9.9051  -19.7690   27.9223 O   0  0  0  0  0  0  0  0  0  0  0  0
   11.7250  -19.5724   26.5473 O   0  0  0  0  0  0  0  0  0  0  0  0
  2  1  1  1
  2  9  1  0
  3  4  1  0
  3  2  1  0
  4  5  2  0
  5  6  1  0
  7  6  1  0
  8  4  1  0
  8  7  2  0
  9 10  2  0
 11 12  1  0
 11  9  1  0
 12 13  1  0
 13 14  2  0
 13 15  1  0
 15 16  1  0
 16 17  1  6
 16 22  1  0
 17 18  1  0
 19 18  1  0
 20 21  1  0
 20 19  1  0
 22 24  1  0
 23 22  2  0
M  END
$$$$
