HGK.pdb
     RDKit          3D

 24 24  0  0  1  0  0  0  0  0999 V2000
    8.0764  -14.6753   21.2536 N   0  0  0  0  0  0  0  0  0  0  0  0
    7.0535  -15.5179   20.6668 C   0  0  1  0  0  0  0  0  0  0  0  0
    7.5010  -16.0980   19.3366 C   0  0  0  0  0  0  0  0  0  0  0  0
    7.9453  -14.9877   18.4581 C   0  0  0  0  0  0  0  0  0  0  0  0
    8.1338  -13.6853   18.8470 C   0  0  0  0  0  0  0  0  0  0  0  0
    8.5353  -13.0025   17.7600 N   0  0  0  0  0  0  0  0  0  0  0  0
    8.5979  -13.8480   16.7185 C   0  0  0  0  0  0  0  0  0  0  0  0
    8.2347  -15.0588   17.1588 N   0  0  0  0  0  0  0  0  0  0  0  0
    6.7473  -16.5937   21.6441 C   0  0  0  0  0  0  0  0  0  0  0  0
    5.8120  -17.4266   21.4333 O   0  0  0  0  0  0  0  0  0  0  0  0
    7.4666  -16.7645   22.8631 N   0  0  0  0  0  0  0  0  0  0  0  0
    7.0760  -17.7412   23.8521 C   0  0  0  0  0  0  0  0  0  0  0  0
    8.0500  -17.6248   24.9978 C   0  0  0  0  0  0  0  0  0  0  0  0
    9.0719  -18.3585   25.0406 O   0  0  0  0  0  0  0  0  0  0  0  0
    7.8371  -16.6938   26.0432 N   0  0  0  0  0  0  0  0  0  0  0  0
    8.8455  -15.8988   26.6927 C   0  0  1  0  0  0  0  0  0  0  0  0
    8.3402  -14.6580   27.3407 C   0  0  0  0  0  0  0  0  0  0  0  0
    7.4475  -13.8268   26.4935 C   0  0  0  0  0  0  0  0  0  0  0  0
    6.8636  -12.6285   27.1373 C   0  0  0  0  0  0  0  0  0  0  0  0
    6.0277  -11.7667   26.2361 C   0  0  0  0  0  0  0  0  0  0  0  0
    5.3467  -10.6976   26.8840 N   0  0  0  0  0  0  0  0  0  0  0  0
    9.5705  -16.7107   27.7406 C   0  0  0  0  0  0  0  0  0  0  0  0
    9.0565  -17.7896   28.0948 O   0  0  0  0  0  0  0  0  0  0  0  0
   10.7590  -16.2707   28.2842 O   0  0  0  0  0  0  0  0  0  0  0  0
  2  1  1  1
  2  9  1  0
  3  4  1  0
  3  2  1  0
  4  5  2  0
  5  6  1  0
  7  6  1  0
  8  4  1  0
  8  7  2  0
  9 10  2  0
 11 12  1  0
 11  9  1  0
 12 13  1  0
 13 14  2  0
 13 15  1  0
 15 16  1  0
 16 17  1  1
 16 22  1  0
 17 18  1  0
 19 18  1  0
 20 21  1  0
 20 19  1  0
 22 24  1  0
 23 22  2  0
M  END
$$$$
