HGK.pdb
     RDKit          3D

 24 24  0  0  1  0  0  0  0  0999 V2000
    9.0246  -16.6393   20.1634 N   0  0  0  0  0  0  0  0  0  0  0  0
   10.3227  -16.0066   20.0397 C   0  0  1  0  0  0  0  0  0  0  0  0
   10.2043  -14.4940   19.9748 C   0  0  0  0  0  0  0  0  0  0  0  0
    8.9247  -14.1444   19.3100 C   0  0  0  0  0  0  0  0  0  0  0  0
    8.3683  -14.8074   18.2452 C   0  0  0  0  0  0  0  0  0  0  0  0
    7.2174  -14.1791   17.9460 N   0  0  0  0  0  0  0  0  0  0  0  0
    7.0533  -13.1522   18.7957 C   0  0  0  0  0  0  0  0  0  0  0  0
    8.1042  -13.1420   19.6246 N   0  0  0  0  0  0  0  0  0  0  0  0
   11.1382  -16.4302   21.2067 C   0  0  0  0  0  0  0  0  0  0  0  0
   12.3112  -15.9785   21.3876 O   0  0  0  0  0  0  0  0  0  0  0  0
   10.6718  -17.3548   22.1866 N   0  0  0  0  0  0  0  0  0  0  0  0
   11.5022  -17.7907   23.2843 C   0  0  0  0  0  0  0  0  0  0  0  0
   11.0225  -17.0661   24.5171 C   0  0  0  0  0  0  0  0  0  0  0  0
   11.6458  -17.1802   25.6046 O   0  0  0  0  0  0  0  0  0  0  0  0
    9.8680  -16.2472   24.4777 N   0  0  0  0  0  0  0  0  0  0  0  0
    9.3343  -15.4762   25.5693 C   0  0  1  0  0  0  0  0  0  0  0  0
    8.1246  -14.6763   25.2354 C   0  0  0  0  0  0  0  0  0  0  0  0
    7.6507  -13.7748   26.3162 C   0  0  0  0  0  0  0  0  0  0  0  0
    6.4767  -12.9314   25.9972 C   0  0  0  0  0  0  0  0  0  0  0  0
    6.0537  -11.9919   27.0890 C   0  0  0  0  0  0  0  0  0  0  0  0
    4.9153  -11.1913   26.7896 N   0  0  0  0  0  0  0  0  0  0  0  0
    8.9937  -16.3721   26.7374 C   0  0  0  0  0  0  0  0  0  0  0  0
    8.4038  -17.4427   26.4929 O   0  0  0  0  0  0  0  0  0  0  0  0
    9.3251  -16.0151   28.0274 O   0  0  0  0  0  0  0  0  0  0  0  0
  2  1  1  1
  2  9  1  0
  3  4  1  0
  3  2  1  0
  4  5  2  0
  5  6  1  0
  7  6  1  0
  8  4  1  0
  8  7  2  0
  9 10  2  0
 11 12  1  0
 11  9  1  0
 12 13  1  0
 13 14  2  0
 13 15  1  0
 15 16  1  0
 16 17  1  6
 16 22  1  0
 17 18  1  0
 19 18  1  0
 20 21  1  0
 20 19  1  0
 22 24  1  0
 23 22  2  0
M  END
$$$$
