PGC.pdb
     RDKit          3D

 18 18  0  0  1  0  0  0  0  0999 V2000
   19.2320  -10.8739  -16.2511 N   0  0  0  0  0  0  0  0  0  0  0  0
   17.8494  -10.8293  -16.6061 C   0  0  0  0  0  0  0  0  0  0  0  0
   17.6784   -9.7187  -17.6175 C   0  0  0  0  0  0  0  0  0  0  0  0
   19.0681   -9.4677  -18.1117 C   0  0  0  0  0  0  0  0  0  0  0  0
   20.0051  -10.3141  -17.3152 C   0  0  1  0  0  0  0  0  0  0  0  0
   21.0423   -9.3990  -16.7210 C   0  0  0  0  0  0  0  0  0  0  0  0
   21.8758   -8.7849  -17.4310 O   0  0  0  0  0  0  0  0  0  0  0  0
   21.1050   -9.2024  -15.3009 N   0  0  0  0  0  0  0  0  0  0  0  0
   22.0962   -8.3080  -14.7888 C   0  0  0  0  0  0  0  0  0  0  0  0
   21.6190   -7.0209  -14.3016 C   0  0  0  0  0  0  0  0  0  0  0  0
   20.9487   -7.0485  -13.2199 O   0  0  0  0  0  0  0  0  0  0  0  0
   21.8175   -5.7526  -14.8949 N   0  0  0  0  0  0  0  0  0  0  0  0
   21.3514   -4.5112  -14.2967 C   0  0  1  0  0  0  0  0  0  0  0  0
   22.3281   -3.4229  -14.5927 C   0  0  0  0  0  0  0  0  0  0  0  0
   21.7557   -1.8425  -13.8693 S   0  0  0  0  0  0  0  0  0  0  0  0
   20.0063   -4.1872  -14.8323 C   0  0  0  0  0  0  0  0  0  0  0  0
   19.0230   -3.6462  -13.9925 O   0  0  0  0  0  0  0  0  0  0  0  0
   19.7476   -4.3958  -16.0320 O   0  0  0  0  0  0  0  0  0  0  0  0
  1  5  1  0
  1  2  1  0
  2  3  1  0
  4  3  1  0
  5  4  1  0
  6  8  1  0
  5  6  1  1
  7  6  2  0
  9  8  1  0
 10  9  1  0
 11 10  2  0
 12 10  1  0
 13 16  1  0
 13 12  1  0
 13 14  1  6
 15 14  1  0
 16 17  1  0
 18 16  2  0
M  END
$$$$
