PGC.pdb
     RDKit          3D

 18 18  0  0  1  0  0  0  0  0999 V2000
   23.5420  -14.7071  -17.2209 N   0  0  0  0  0  0  0  0  0  0  0  0
   23.7885  -16.0515  -17.6348 C   0  0  0  0  0  0  0  0  0  0  0  0
   22.9396  -16.9538  -16.7683 C   0  0  0  0  0  0  0  0  0  0  0  0
   21.9170  -16.0307  -16.1848 C   0  0  0  0  0  0  0  0  0  0  0  0
   22.2548  -14.6380  -16.6029 C   0  0  1  0  0  0  0  0  0  0  0  0
   22.3702  -13.8088  -15.3518 C   0  0  0  0  0  0  0  0  0  0  0  0
   21.3894  -13.6002  -14.5965 O   0  0  0  0  0  0  0  0  0  0  0  0
   23.6287  -13.2251  -14.9845 N   0  0  0  0  0  0  0  0  0  0  0  0
   23.6554  -12.3306  -13.8693 C   0  0  0  0  0  0  0  0  0  0  0  0
   23.3155  -10.9410  -14.1440 C   0  0  0  0  0  0  0  0  0  0  0  0
   22.8023  -10.2915  -13.1771 O   0  0  0  0  0  0  0  0  0  0  0  0
   23.4923  -10.2393  -15.3591 N   0  0  0  0  0  0  0  0  0  0  0  0
   23.1238   -8.8430  -15.5339 C   0  0  1  0  0  0  0  0  0  0  0  0
   23.7326   -8.3253  -16.7938 C   0  0  0  0  0  0  0  0  0  0  0  0
   23.3230   -6.5558  -17.0162 S   0  0  0  0  0  0  0  0  0  0  0  0
   21.6450   -8.7294  -15.5647 C   0  0  0  0  0  0  0  0  0  0  0  0
   21.0086   -7.6266  -14.9784 O   0  0  0  0  0  0  0  0  0  0  0  0
   20.9642   -9.6159  -16.1130 O   0  0  0  0  0  0  0  0  0  0  0  0
  1  5  1  0
  1  2  1  0
  2  3  1  0
  4  3  1  0
  5  4  1  0
  6  8  1  0
  5  6  1  1
  7  6  2  0
  9  8  1  0
 10  9  1  0
 11 10  2  0
 12 10  1  0
 13 16  1  0
 13 12  1  0
 13 14  1  6
 15 14  1  0
 16 17  1  0
 18 16  2  0
M  END
$$$$
