PGC.pdb
     RDKit          3D

 18 18  0  0  1  0  0  0  0  0999 V2000
   24.4096  -10.9875  -17.5935 N   0  0  0  0  0  0  0  0  0  0  0  0
   25.5571  -11.1315  -16.7558 C   0  0  0  0  0  0  0  0  0  0  0  0
   25.0873  -11.7153  -15.4427 C   0  0  0  0  0  0  0  0  0  0  0  0
   23.7393  -12.2793  -15.7639 C   0  0  0  0  0  0  0  0  0  0  0  0
   23.4052  -11.9131  -17.1720 C   0  0  1  0  0  0  0  0  0  0  0  0
   22.0794  -11.2004  -17.1482 C   0  0  0  0  0  0  0  0  0  0  0  0
   21.0428  -11.7345  -16.6833 O   0  0  0  0  0  0  0  0  0  0  0  0
   21.9657   -9.8670  -17.6665 N   0  0  0  0  0  0  0  0  0  0  0  0
   20.6802   -9.2415  -17.6379 C   0  0  0  0  0  0  0  0  0  0  0  0
   20.3718   -8.4461  -16.4572 C   0  0  0  0  0  0  0  0  0  0  0  0
   19.6320   -9.0062  -15.5859 O   0  0  0  0  0  0  0  0  0  0  0  0
   20.8015   -7.1286  -16.1749 N   0  0  0  0  0  0  0  0  0  0  0  0
   20.4575   -6.4234  -14.9500 C   0  0  1  0  0  0  0  0  0  0  0  0
   21.5543   -6.5993  -13.9540 C   0  0  0  0  0  0  0  0  0  0  0  0
   23.1122   -5.8822  -14.5923 S   0  0  0  0  0  0  0  0  0  0  0  0
   20.2364   -4.9894  -15.2590 C   0  0  0  0  0  0  0  0  0  0  0  0
   20.4943   -4.4959  -16.5454 O   0  0  0  0  0  0  0  0  0  0  0  0
   19.8200   -4.2192  -14.3740 O   0  0  0  0  0  0  0  0  0  0  0  0
  1  5  1  0
  1  2  1  0
  2  3  1  0
  4  3  1  0
  5  4  1  0
  6  8  1  0
  5  6  1  1
  7  6  2  0
  9  8  1  0
 10  9  1  0
 11 10  2  0
 12 10  1  0
 13 16  1  0
 13 12  1  0
 13 14  1  1
 15 14  1  0
 16 17  1  0
 18 16  2  0
M  END
$$$$
