PGC.pdb
     RDKit          3D

 18 18  0  0  1  0  0  0  0  0999 V2000
   25.1877  -21.1033  -15.4505 N   0  0  0  0  0  0  0  0  0  0  0  0
   23.7829  -21.3598  -15.4577 C   0  0  0  0  0  0  0  0  0  0  0  0
   23.1278  -20.3111  -14.5879 C   0  0  0  0  0  0  0  0  0  0  0  0
   24.1664  -19.2402  -14.4749 C   0  0  0  0  0  0  0  0  0  0  0  0
   25.4084  -19.7239  -15.1473 C   0  0  1  0  0  0  0  0  0  0  0  0
   26.5278  -19.6290  -14.1452 C   0  0  0  0  0  0  0  0  0  0  0  0
   26.8066  -18.5562  -13.5556 O   0  0  0  0  0  0  0  0  0  0  0  0
   27.3190  -20.7847  -13.8331 N   0  0  0  0  0  0  0  0  0  0  0  0
   28.2132  -20.7072  -12.7199 C   0  0  0  0  0  0  0  0  0  0  0  0
   27.6968  -21.1716  -11.4395 C   0  0  0  0  0  0  0  0  0  0  0  0
   27.9258  -22.3911  -11.1558 O   0  0  0  0  0  0  0  0  0  0  0  0
   26.9737  -20.4209  -10.4836 N   0  0  0  0  0  0  0  0  0  0  0  0
   26.2371  -21.0273   -9.3855 C   0  0  1  0  0  0  0  0  0  0  0  0
   26.8080  -20.5587   -8.0892 C   0  0  0  0  0  0  0  0  0  0  0  0
   26.8015  -18.7302   -8.0169 S   0  0  0  0  0  0  0  0  0  0  0  0
   24.8028  -20.6670   -9.5032 C   0  0  0  0  0  0  0  0  0  0  0  0
   23.8594  -21.2285   -8.6317 O   0  0  0  0  0  0  0  0  0  0  0  0
   24.4331  -19.8629  -10.3788 O   0  0  0  0  0  0  0  0  0  0  0  0
  1  5  1  0
  1  2  1  0
  2  3  1  0
  4  3  1  0
  5  4  1  0
  6  8  1  0
  5  6  1  1
  7  6  2  0
  9  8  1  0
 10  9  1  0
 11 10  2  0
 12 10  1  0
 13 16  1  0
 13 12  1  0
 13 14  1  1
 15 14  1  0
 16 17  1  0
 18 16  2  0
M  END
$$$$
