PGC.pdb
     RDKit          3D

 18 18  0  0  1  0  0  0  0  0999 V2000
   27.0298  -19.1019  -15.4104 N   0  0  0  0  0  0  0  0  0  0  0  0
   28.3982  -19.1113  -15.8186 C   0  0  0  0  0  0  0  0  0  0  0  0
   29.0114  -20.3977  -15.3138 C   0  0  0  0  0  0  0  0  0  0  0  0
   27.8290  -21.2620  -15.0085 C   0  0  0  0  0  0  0  0  0  0  0  0
   26.5936  -20.4484  -15.2100 C   0  0  1  0  0  0  0  0  0  0  0  0
   25.8028  -20.5082  -13.9305 C   0  0  0  0  0  0  0  0  0  0  0  0
   25.0693  -21.4861  -13.6443 O   0  0  0  0  0  0  0  0  0  0  0  0
   25.8690  -19.4280  -12.9882 N   0  0  0  0  0  0  0  0  0  0  0  0
   25.1100  -19.5405  -11.7815 C   0  0  0  0  0  0  0  0  0  0  0  0
   25.7039  -20.3325  -10.7129 C   0  0  0  0  0  0  0  0  0  0  0  0
   25.9241  -21.5566  -10.9833 O   0  0  0  0  0  0  0  0  0  0  0  0
   26.0602  -19.8931   -9.4167 N   0  0  0  0  0  0  0  0  0  0  0  0
   26.1260  -20.7792   -8.2650 C   0  0  1  0  0  0  0  0  0  0  0  0
   26.6508  -20.0241   -7.0900 C   0  0  0  0  0  0  0  0  0  0  0  0
   27.8961  -18.7965   -7.6293 S   0  0  0  0  0  0  0  0  0  0  0  0
   24.7740  -21.3258   -7.9929 C   0  0  0  0  0  0  0  0  0  0  0  0
   24.6024  -22.3506   -7.0521 O   0  0  0  0  0  0  0  0  0  0  0  0
   23.7863  -20.8742   -8.6014 O   0  0  0  0  0  0  0  0  0  0  0  0
  1  5  1  0
  1  2  1  0
  2  3  1  0
  4  3  1  0
  5  4  1  0
  6  8  1  0
  5  6  1  1
  7  6  2  0
  9  8  1  0
 10  9  1  0
 11 10  2  0
 12 10  1  0
 13 16  1  0
 13 12  1  0
 13 14  1  1
 15 14  1  0
 16 17  1  0
 18 16  2  0
M  END
$$$$
