PGC.pdb
     RDKit          3D

 18 18  0  0  1  0  0  0  0  0999 V2000
   33.6724  -12.5005  -20.6478 N   0  0  0  0  0  0  0  0  0  0  0  0
   34.9663  -12.1407  -20.1623 C   0  0  0  0  0  0  0  0  0  0  0  0
   34.8075  -11.7274  -18.7168 C   0  0  0  0  0  0  0  0  0  0  0  0
   33.4777  -12.2916  -18.3274 C   0  0  0  0  0  0  0  0  0  0  0  0
   32.8513  -12.8886  -19.5439 C   0  0  1  0  0  0  0  0  0  0  0  0
   31.4971  -12.2525  -19.7099 C   0  0  0  0  0  0  0  0  0  0  0  0
   30.6019  -12.3505  -18.8352 O   0  0  0  0  0  0  0  0  0  0  0  0
   31.1899  -11.5041  -20.8952 N   0  0  0  0  0  0  0  0  0  0  0  0
   29.8834  -10.9348  -21.0116 C   0  0  0  0  0  0  0  0  0  0  0  0
   29.6460   -9.6999  -20.2766 C   0  0  0  0  0  0  0  0  0  0  0  0
   28.4326   -9.3239  -20.1964 O   0  0  0  0  0  0  0  0  0  0  0  0
   30.6095   -8.8785  -19.6465 N   0  0  0  0  0  0  0  0  0  0  0  0
   30.2650   -7.6965  -18.8717 C   0  0  1  0  0  0  0  0  0  0  0  0
   31.1642   -7.6044  -17.6847 C   0  0  0  0  0  0  0  0  0  0  0  0
   30.9671   -9.0818  -16.6231 S   0  0  0  0  0  0  0  0  0  0  0  0
   30.3879   -6.4957  -19.7342 C   0  0  0  0  0  0  0  0  0  0  0  0
   29.9709   -5.2426  -19.2644 O   0  0  0  0  0  0  0  0  0  0  0  0
   30.8631   -6.5988  -20.8803 O   0  0  0  0  0  0  0  0  0  0  0  0
  1  5  1  0
  1  2  1  0
  2  3  1  0
  4  3  1  0
  5  4  1  0
  6  8  1  0
  5  6  1  6
  7  6  2  0
  9  8  1  0
 10  9  1  0
 11 10  2  0
 12 10  1  0
 13 16  1  0
 13 12  1  0
 13 14  1  1
 15 14  1  0
 16 17  1  0
 18 16  2  0
M  END
$$$$
