PGC.pdb
     RDKit          3D

 18 18  0  0  1  0  0  0  0  0999 V2000
   25.2979  -17.6482  -15.8256 N   0  0  0  0  0  0  0  0  0  0  0  0
   24.7590  -16.3889  -15.4216 C   0  0  0  0  0  0  0  0  0  0  0  0
   25.8864  -15.5920  -14.8055 C   0  0  0  0  0  0  0  0  0  0  0  0
   27.1206  -16.2867  -15.2875 C   0  0  0  0  0  0  0  0  0  0  0  0
   26.7040  -17.5066  -16.0403 C   0  0  1  0  0  0  0  0  0  0  0  0
   27.4032  -18.6826  -15.4124 C   0  0  0  0  0  0  0  0  0  0  0  0
   28.6541  -18.7483  -15.3284 O   0  0  0  0  0  0  0  0  0  0  0  0
   26.6424  -19.7788  -14.8843 N   0  0  0  0  0  0  0  0  0  0  0  0
   27.3315  -20.7658  -14.1124 C   0  0  0  0  0  0  0  0  0  0  0  0
   26.7766  -21.0664  -12.7996 C   0  0  0  0  0  0  0  0  0  0  0  0
   27.1869  -22.1408  -12.2542 O   0  0  0  0  0  0  0  0  0  0  0  0
   25.8384  -20.3003  -12.0695 N   0  0  0  0  0  0  0  0  0  0  0  0
   24.8174  -20.8909  -11.2182 C   0  0  1  0  0  0  0  0  0  0  0  0
   24.9119  -20.3007   -9.8512 C   0  0  0  0  0  0  0  0  0  0  0  0
   26.6428  -19.8397   -9.4773 S   0  0  0  0  0  0  0  0  0  0  0  0
   23.4824  -20.6478  -11.8180 C   0  0  0  0  0  0  0  0  0  0  0  0
   22.3306  -21.1709  -11.2142 O   0  0  0  0  0  0  0  0  0  0  0  0
   23.3822  -19.9768  -12.8619 O   0  0  0  0  0  0  0  0  0  0  0  0
  1  5  1  0
  1  2  1  0
  2  3  1  0
  4  3  1  0
  5  4  1  0
  6  8  1  0
  5  6  1  1
  7  6  2  0
  9  8  1  0
 10  9  1  0
 11 10  2  0
 12 10  1  0
 13 16  1  0
 13 12  1  0
 13 14  1  1
 15 14  1  0
 16 17  1  0
 18 16  2  0
M  END
$$$$
