PGC.pdb
     RDKit          3D

 18 18  0  0  1  0  0  0  0  0999 V2000
   24.0127  -21.0982  -14.6732 N   0  0  0  0  0  0  0  0  0  0  0  0
   22.7124  -20.5505  -14.4527 C   0  0  0  0  0  0  0  0  0  0  0  0
   22.8948  -19.1121  -14.0242 C   0  0  0  0  0  0  0  0  0  0  0  0
   24.2940  -18.7886  -14.4437 C   0  0  0  0  0  0  0  0  0  0  0  0
   24.9218  -20.0361  -14.9712 C   0  0  1  0  0  0  0  0  0  0  0  0
   26.1914  -20.2631  -14.1949 C   0  0  0  0  0  0  0  0  0  0  0  0
   27.1228  -19.4214  -14.1779 O   0  0  0  0  0  0  0  0  0  0  0  0
   26.3719  -21.4704  -13.4406 N   0  0  0  0  0  0  0  0  0  0  0  0
   27.5495  -21.5930  -12.6388 C   0  0  0  0  0  0  0  0  0  0  0  0
   27.3739  -21.4426  -11.2006 C   0  0  0  0  0  0  0  0  0  0  0  0
   27.8092  -22.3996  -10.4832 O   0  0  0  0  0  0  0  0  0  0  0  0
   26.7765  -20.3570  -10.5189 N   0  0  0  0  0  0  0  0  0  0  0  0
   26.4362  -20.3940   -9.1051 C   0  0  1  0  0  0  0  0  0  0  0  0
   26.8444  -19.1097   -8.4649 C   0  0  0  0  0  0  0  0  0  0  0  0
   27.0729  -19.3426   -6.6643 S   0  0  0  0  0  0  0  0  0  0  0  0
   24.9782  -20.6274   -8.9609 C   0  0  0  0  0  0  0  0  0  0  0  0
   24.4741  -21.2631   -7.8178 O   0  0  0  0  0  0  0  0  0  0  0  0
   24.1973  -20.2581   -9.8573 O   0  0  0  0  0  0  0  0  0  0  0  0
  1  5  1  0
  1  2  1  0
  2  3  1  0
  4  3  1  0
  5  4  1  0
  6  8  1  0
  5  6  1  1
  7  6  2  0
  9  8  1  0
 10  9  1  0
 11 10  2  0
 12 10  1  0
 13 16  1  0
 13 12  1  0
 13 14  1  6
 15 14  1  0
 16 17  1  0
 18 16  2  0
M  END
$$$$
