PGC.pdb
     RDKit          3D

 18 18  0  0  1  0  0  0  0  0999 V2000
   26.8431  -11.2467  -17.7439 N   0  0  0  0  0  0  0  0  0  0  0  0
   28.0457  -11.4872  -17.0122 C   0  0  0  0  0  0  0  0  0  0  0  0
   27.7128  -11.3626  -15.5427 C   0  0  0  0  0  0  0  0  0  0  0  0
   26.2220  -11.4814  -15.5022 C   0  0  0  0  0  0  0  0  0  0  0  0
   25.7216  -11.5400  -16.9075 C   0  0  1  0  0  0  0  0  0  0  0  0
   24.7057  -10.4409  -17.0689 C   0  0  0  0  0  0  0  0  0  0  0  0
   23.6542  -10.3983  -16.3844 O   0  0  0  0  0  0  0  0  0  0  0  0
   24.9184   -9.3946  -18.0276 N   0  0  0  0  0  0  0  0  0  0  0  0
   23.8679   -8.4464  -18.2327 C   0  0  0  0  0  0  0  0  0  0  0  0
   23.8243   -7.3175  -17.3131 C   0  0  0  0  0  0  0  0  0  0  0  0
   24.9339   -6.7333  -17.0954 O   0  0  0  0  0  0  0  0  0  0  0  0
   22.6916   -6.8031  -16.6405 N   0  0  0  0  0  0  0  0  0  0  0  0
   22.7633   -5.7185  -15.6736 C   0  0  1  0  0  0  0  0  0  0  0  0
   22.3558   -4.4428  -16.3312 C   0  0  0  0  0  0  0  0  0  0  0  0
   22.3812   -3.0694  -15.1222 S   0  0  0  0  0  0  0  0  0  0  0  0
   21.8843   -6.0344  -14.5211 C   0  0  0  0  0  0  0  0  0  0  0  0
   20.6539   -6.6742  -14.7253 O   0  0  0  0  0  0  0  0  0  0  0  0
   22.2386   -5.7309  -13.3669 O   0  0  0  0  0  0  0  0  0  0  0  0
  1  5  1  0
  1  2  1  0
  2  3  1  0
  4  3  1  0
  5  4  1  0
  6  8  1  0
  5  6  1  1
  7  6  2  0
  9  8  1  0
 10  9  1  0
 11 10  2  0
 12 10  1  0
 13 16  1  0
 13 12  1  0
 13 14  1  6
 15 14  1  0
 16 17  1  0
 18 16  2  0
M  END
$$$$
