PGC.pdb
     RDKit          3D

 18 18  0  0  1  0  0  0  0  0999 V2000
   25.6867  -24.0092  -14.9573 N   0  0  0  0  0  0  0  0  0  0  0  0
   25.3062  -24.8853  -16.0189 C   0  0  0  0  0  0  0  0  0  0  0  0
   24.7991  -24.0254  -17.1543 C   0  0  0  0  0  0  0  0  0  0  0  0
   25.3268  -22.6625  -16.8342 C   0  0  0  0  0  0  0  0  0  0  0  0
   25.9963  -22.7240  -15.5013 C   0  0  1  0  0  0  0  0  0  0  0  0
   25.3619  -21.6723  -14.6310 C   0  0  0  0  0  0  0  0  0  0  0  0
   25.3451  -20.4594  -14.9546 O   0  0  0  0  0  0  0  0  0  0  0  0
   24.7489  -22.0371  -13.3859 N   0  0  0  0  0  0  0  0  0  0  0  0
   24.0849  -21.0151  -12.6380 C   0  0  0  0  0  0  0  0  0  0  0  0
   22.6739  -20.8075  -12.9341 C   0  0  0  0  0  0  0  0  0  0  0  0
   22.0918  -19.8970  -12.2616 O   0  0  0  0  0  0  0  0  0  0  0  0
   21.8853  -21.5021  -13.8805 N   0  0  0  0  0  0  0  0  0  0  0  0
   20.5024  -21.1577  -14.1719 C   0  0  1  0  0  0  0  0  0  0  0  0
   20.2171  -21.4332  -15.6102 C   0  0  0  0  0  0  0  0  0  0  0  0
   20.9416  -20.1234  -16.6630 S   0  0  0  0  0  0  0  0  0  0  0  0
   19.6078  -21.9426  -13.2861 C   0  0  0  0  0  0  0  0  0  0  0  0
   18.4245  -21.3744  -12.7944 O   0  0  0  0  0  0  0  0  0  0  0  0
   19.9070  -23.1108  -12.9769 O   0  0  0  0  0  0  0  0  0  0  0  0
  1  5  1  0
  1  2  1  0
  2  3  1  0
  4  3  1  0
  5  4  1  0
  6  8  1  0
  5  6  1  1
  7  6  2  0
  9  8  1  0
 10  9  1  0
 11 10  2  0
 12 10  1  0
 13 16  1  0
 13 12  1  0
 13 14  1  6
 15 14  1  0
 16 17  1  0
 18 16  2  0
M  END
$$$$
