PGC.pdb
     RDKit          3D

 18 18  0  0  1  0  0  0  0  0999 V2000
   14.5906   -8.9939  -10.6108 N   0  0  0  0  0  0  0  0  0  0  0  0
   13.5717   -9.8077  -10.0285 C   0  0  0  0  0  0  0  0  0  0  0  0
   13.3119   -9.2789   -8.6362 C   0  0  0  0  0  0  0  0  0  0  0  0
   13.9042   -7.9052   -8.6590 C   0  0  0  0  0  0  0  0  0  0  0  0
   14.5874   -7.7148   -9.9726 C   0  0  1  0  0  0  0  0  0  0  0  0
   16.0118   -7.3215   -9.6853 C   0  0  0  0  0  0  0  0  0  0  0  0
   16.3048   -6.2358   -9.1272 O   0  0  0  0  0  0  0  0  0  0  0  0
   17.0907   -8.1948  -10.0494 N   0  0  0  0  0  0  0  0  0  0  0  0
   18.4284   -7.7245   -9.8648 C   0  0  0  0  0  0  0  0  0  0  0  0
   19.1943   -7.4557  -11.0743 C   0  0  0  0  0  0  0  0  0  0  0  0
   20.4175   -7.1486  -10.9022 O   0  0  0  0  0  0  0  0  0  0  0  0
   18.7307   -7.4981  -12.4097 N   0  0  0  0  0  0  0  0  0  0  0  0
   19.5796   -7.2176  -13.5573 C   0  0  1  0  0  0  0  0  0  0  0  0
   19.6198   -8.4150  -14.4465 C   0  0  0  0  0  0  0  0  0  0  0  0
   20.3261   -9.8465  -13.5518 S   0  0  0  0  0  0  0  0  0  0  0  0
   19.0518   -6.0317  -14.2755 C   0  0  0  0  0  0  0  0  0  0  0  0
   19.8797   -5.3035  -15.1410 O   0  0  0  0  0  0  0  0  0  0  0  0
   17.8690   -5.6798  -14.1104 O   0  0  0  0  0  0  0  0  0  0  0  0
  1  5  1  0
  1  2  1  0
  2  3  1  0
  4  3  1  0
  5  4  1  0
  6  8  1  0
  5  6  1  1
  7  6  2  0
  9  8  1  0
 10  9  1  0
 11 10  2  0
 12 10  1  0
 13 16  1  0
 13 12  1  0
 13 14  1  6
 15 14  1  0
 16 17  1  0
 18 16  2  0
M  END
$$$$
