SRR.pdb
     RDKit          3D

 29 28  0  0  1  0  0  0  0  0999 V2000
   27.6480  -18.7941  -15.8521 O   0  0  0  0  0  0  0  0  0  0  0  0
   28.0235  -19.1319  -14.5619 C   0  0  0  0  0  0  0  0  0  0  0  0
   27.9159  -20.6327  -14.3933 C   0  0  2  0  0  0  0  0  0  0  0  0
   28.4002  -21.3174  -15.5644 N   0  0  0  0  0  0  0  0  0  0  0  0
   26.5038  -20.9624  -14.0687 C   0  0  0  0  0  0  0  0  0  0  0  0
   25.7992  -21.4412  -14.9875 O   0  0  0  0  0  0  0  0  0  0  0  0
   21.5544  -21.3221   -6.6562 N   0  0  0  0  0  0  0  0  0  0  0  0
   20.7279  -21.6651   -7.7537 C   0  0  0  0  0  0  0  0  0  0  0  0
   19.4983  -21.9652   -7.5317 N   0  0  0  0  0  0  0  0  0  0  0  0
   21.2098  -21.6903   -9.0815 N   0  0  0  0  0  0  0  0  0  0  0  0
   22.5932  -21.3723   -9.3388 C   0  0  0  0  0  0  0  0  0  0  0  0
   22.7945  -21.3255  -10.8323 C   0  0  0  0  0  0  0  0  0  0  0  0
   24.2327  -21.0246  -11.1253 C   0  0  0  0  0  0  0  0  0  0  0  0
   24.5064  -20.9348  -12.5675 C   0  0  2  0  0  0  0  0  0  0  0  0
   25.9215  -20.7672  -12.7975 N   0  0  0  0  0  0  0  0  0  0  0  0
   23.8030  -19.8293  -13.2555 C   0  0  0  0  0  0  0  0  0  0  0  0
   24.4057  -18.7560  -13.4446 O   0  0  0  0  0  0  0  0  0  0  0  0
   18.8392  -22.2497   -8.2861 N   0  0  0  0  0  0  0  0  0  0  0  0
   21.8259  -17.7567  -20.5611 C   0  0  0  0  0  0  0  0  0  0  0  0
   22.7759  -16.8770  -19.9876 N   0  0  0  0  0  0  0  0  0  0  0  0
   22.9410  -15.7376  -20.6006 N   0  0  0  0  0  0  0  0  0  0  0  0
   23.5103  -17.1820  -18.8307 C   0  0  0  0  0  0  0  0  0  0  0  0
   23.3196  -18.4980  -18.1840 C   0  0  0  0  0  0  0  0  0  0  0  0
   22.3755  -18.3696  -17.0419 C   0  0  0  0  0  0  0  0  0  0  0  0
   22.7416  -19.2614  -15.9078 C   0  0  2  0  0  0  0  0  0  0  0  0
   21.8298  -19.3025  -14.7347 N   0  0  0  0  0  0  0  0  0  0  0  0
   22.4735  -20.0412  -13.6691 C   0  0  0  0  0  0  0  0  0  0  0  0
   20.4605  -19.7898  -14.9525 O   0  0  0  0  0  0  0  0  0  0  0  0
   19.5269  -19.0641  -15.4427 O   0  0  0  0  0  0  0  0  0  0  0  0
  2  1  1  0
  3  4  1  6
  3  2  1  0
  5  3  1  0
  6  5  2  0
  7  8  1  0
  8  9  2  0
 10  8  1  0
 11 10  1  0
 12 11  1  0
 12 13  1  0
 14 15  1  0
 14 13  1  1
 15  5  1  0
 16 14  1  0
 17 16  2  0
 18 19  1  0
 19 20  2  0
 19 21  1  0
 21 22  1  0
 23 22  1  0
 24 23  1  0
 25 24  1  1
 25 26  1  0
 26 16  1  0
 27 29  1  0
 27 25  1  0
 28 27  2  0
M  END
$$$$
