SRR.pdb
     RDKit          3D

 29 28  0  0  1  0  0  0  0  0999 V2000
   25.3778  -23.2192  -13.0076 O   0  0  0  0  0  0  0  0  0  0  0  0
   26.1755  -22.0909  -13.1086 C   0  0  0  0  0  0  0  0  0  0  0  0
   25.6355  -21.0201  -12.1844 C   0  0  2  0  0  0  0  0  0  0  0  0
   25.5793  -21.4946  -10.8257 N   0  0  0  0  0  0  0  0  0  0  0  0
   24.3133  -20.5837  -12.7037 C   0  0  0  0  0  0  0  0  0  0  0  0
   23.3650  -20.5263  -11.8867 O   0  0  0  0  0  0  0  0  0  0  0  0
   19.5852  -18.8544  -18.3352 N   0  0  0  0  0  0  0  0  0  0  0  0
   19.6266  -17.4421  -18.2414 C   0  0  0  0  0  0  0  0  0  0  0  0
   18.6025  -16.7667  -18.6239 N   0  0  0  0  0  0  0  0  0  0  0  0
   20.7548  -16.7523  -17.7440 N   0  0  0  0  0  0  0  0  0  0  0  0
   21.9501  -17.4916  -17.4189 C   0  0  0  0  0  0  0  0  0  0  0  0
   21.7309  -18.1808  -16.0960 C   0  0  0  0  0  0  0  0  0  0  0  0
   22.9570  -18.9654  -15.7412 C   0  0  0  0  0  0  0  0  0  0  0  0
   22.7951  -19.7299  -14.4953 C   0  0  2  0  0  0  0  0  0  0  0  0
   24.0718  -20.2353  -14.0503 N   0  0  0  0  0  0  0  0  0  0  0  0
   21.8663  -20.8775  -14.5987 C   0  0  0  0  0  0  0  0  0  0  0  0
   22.3318  -22.0325  -14.5955 O   0  0  0  0  0  0  0  0  0  0  0  0
   18.5557  -15.7279  -18.5686 N   0  0  0  0  0  0  0  0  0  0  0  0
   19.4067  -24.7027   -8.4808 C   0  0  0  0  0  0  0  0  0  0  0  0
   18.3152  -24.2323   -9.2508 N   0  0  0  0  0  0  0  0  0  0  0  0
   17.3340  -25.0742   -9.4232 N   0  0  0  0  0  0  0  0  0  0  0  0
   18.2614  -22.9445   -9.8073 C   0  0  0  0  0  0  0  0  0  0  0  0
   19.2223  -22.5799  -10.8704 C   0  0  0  0  0  0  0  0  0  0  0  0
   19.0320  -21.1570  -11.2594 C   0  0  0  0  0  0  0  0  0  0  0  0
   19.9229  -20.7583  -12.3832 C   0  0  1  0  0  0  0  0  0  0  0  0
   19.4980  -21.1084  -13.7639 N   0  0  0  0  0  0  0  0  0  0  0  0
   20.4868  -20.6109  -14.6967 C   0  0  0  0  0  0  0  0  0  0  0  0
   18.1447  -20.7151  -14.1808 O   0  0  0  0  0  0  0  0  0  0  0  0
   17.8603  -19.5529  -14.6356 O   0  0  0  0  0  0  0  0  0  0  0  0
  2  1  1  0
  3  4  1  1
  3  2  1  0
  5  3  1  0
  6  5  2  0
  7  8  1  0
  8  9  2  0
 10  8  1  0
 11 10  1  0
 12 11  1  0
 12 13  1  0
 14 15  1  0
 14 13  1  6
 15  5  1  0
 16 14  1  0
 17 16  2  0
 18 19  1  0
 19 20  2  0
 19 21  1  0
 21 22  1  0
 23 22  1  0
 24 23  1  0
 25 24  1  1
 25 26  1  0
 26 16  1  0
 27 29  1  0
 27 25  1  0
 28 27  2  0
M  END
$$$$
