SRR.pdb
     RDKit          3D

 29 28  0  0  1  0  0  0  0  0999 V2000
   28.2289  -18.6476  -14.3894 O   0  0  0  0  0  0  0  0  0  0  0  0
   27.0537  -19.3754  -14.2934 C   0  0  0  0  0  0  0  0  0  0  0  0
   27.3088  -20.6183  -13.4673 C   0  0  2  0  0  0  0  0  0  0  0  0
   28.1377  -21.5517  -14.1859 N   0  0  0  0  0  0  0  0  0  0  0  0
   25.9952  -21.1902  -13.0730 C   0  0  0  0  0  0  0  0  0  0  0  0
   25.5407  -22.1239  -13.7742 O   0  0  0  0  0  0  0  0  0  0  0  0
   19.4451  -22.0284   -9.2219 N   0  0  0  0  0  0  0  0  0  0  0  0
   20.4557  -21.9669   -8.2319 C   0  0  0  0  0  0  0  0  0  0  0  0
   20.4694  -22.8582   -7.3062 N   0  0  0  0  0  0  0  0  0  0  0  0
   21.4460  -20.9594   -8.2271 N   0  0  0  0  0  0  0  0  0  0  0  0
   21.3735  -19.8907   -9.1933 C   0  0  0  0  0  0  0  0  0  0  0  0
   21.8066  -20.4362  -10.5305 C   0  0  0  0  0  0  0  0  0  0  0  0
   23.3032  -20.4287  -10.6031 C   0  0  0  0  0  0  0  0  0  0  0  0
   23.8053  -20.8730  -11.9121 C   0  0  2  0  0  0  0  0  0  0  0  0
   25.2419  -20.7434  -11.9657 N   0  0  0  0  0  0  0  0  0  0  0  0
   23.2420  -20.1360  -13.0652 C   0  0  0  0  0  0  0  0  0  0  0  0
   23.8091  -19.0971  -13.4524 O   0  0  0  0  0  0  0  0  0  0  0  0
   21.1434  -22.8405   -6.5125 N   0  0  0  0  0  0  0  0  0  0  0  0
   25.4390  -19.8217  -20.3681 C   0  0  0  0  0  0  0  0  0  0  0  0
   24.2740  -19.0171  -20.3928 N   0  0  0  0  0  0  0  0  0  0  0  0
   24.1820  -18.1768  -21.3862 N   0  0  0  0  0  0  0  0  0  0  0  0
   23.2612  -19.0955  -19.4238 C   0  0  0  0  0  0  0  0  0  0  0  0
   23.4173  -20.0379  -18.2951 C   0  0  0  0  0  0  0  0  0  0  0  0
   22.2557  -19.9222  -17.3736 C   0  0  0  0  0  0  0  0  0  0  0  0
   22.6221  -20.2377  -15.9658 C   0  0  1  0  0  0  0  0  0  0  0  0
   21.5521  -20.1637  -14.9367 N   0  0  0  0  0  0  0  0  0  0  0  0
   22.0810  -20.6456  -13.6783 C   0  0  0  0  0  0  0  0  0  0  0  0
   20.2669  -20.8079  -15.2422 O   0  0  0  0  0  0  0  0  0  0  0  0
   19.8861  -21.9049  -14.7036 O   0  0  0  0  0  0  0  0  0  0  0  0
  2  1  1  0
  3  4  1  6
  3  2  1  0
  5  3  1  0
  6  5  2  0
  7  8  1  0
  8  9  2  0
 10  8  1  0
 11 10  1  0
 12 11  1  0
 12 13  1  0
 14 15  1  0
 14 13  1  1
 15  5  1  0
 16 14  1  0
 17 16  2  0
 18 19  1  0
 19 20  2  0
 19 21  1  0
 21 22  1  0
 23 22  1  0
 24 23  1  0
 25 24  1  1
 25 26  1  0
 26 16  1  0
 27 29  1  0
 27 25  1  0
 28 27  2  0
M  END
$$$$
