SRR.pdb
     RDKit          3D

 29 28  0  0  1  0  0  0  0  0999 V2000
   26.4061  -25.6924  -17.2923 O   0  0  0  0  0  0  0  0  0  0  0  0
   27.3311  -24.9464  -18.0047 C   0  0  0  0  0  0  0  0  0  0  0  0
   28.5772  -24.7706  -17.1629 C   0  0  2  0  0  0  0  0  0  0  0  0
   28.7796  -25.9068  -16.3010 N   0  0  0  0  0  0  0  0  0  0  0  0
   28.4568  -23.4899  -16.4189 C   0  0  0  0  0  0  0  0  0  0  0  0
   28.5824  -23.5346  -15.1730 O   0  0  0  0  0  0  0  0  0  0  0  0
   26.7408  -17.0985  -19.8757 N   0  0  0  0  0  0  0  0  0  0  0  0
   26.2793  -16.5847  -18.6395 C   0  0  0  0  0  0  0  0  0  0  0  0
   25.1496  -15.9729  -18.6073 N   0  0  0  0  0  0  0  0  0  0  0  0
   27.0189  -16.7203  -17.4434 N   0  0  0  0  0  0  0  0  0  0  0  0
   28.2776  -17.4247  -17.4653 C   0  0  0  0  0  0  0  0  0  0  0  0
   28.2042  -18.5490  -16.4635 C   0  0  0  0  0  0  0  0  0  0  0  0
   28.1861  -19.8574  -17.1933 C   0  0  0  0  0  0  0  0  0  0  0  0
   28.1763  -21.0108  -16.2808 C   0  0  2  0  0  0  0  0  0  0  0  0
   28.2116  -22.2424  -17.0327 N   0  0  0  0  0  0  0  0  0  0  0  0
   27.0048  -21.0661  -15.3782 C   0  0  0  0  0  0  0  0  0  0  0  0
   25.9496  -21.5835  -15.7903 O   0  0  0  0  0  0  0  0  0  0  0  0
   24.7894  -15.4926  -17.7565 N   0  0  0  0  0  0  0  0  0  0  0  0
   21.5790  -22.5343  -14.7669 C   0  0  0  0  0  0  0  0  0  0  0  0
   20.9111  -22.1933  -13.5657 N   0  0  0  0  0  0  0  0  0  0  0  0
   19.9494  -22.9952  -13.2004 N   0  0  0  0  0  0  0  0  0  0  0  0
   21.2401  -21.0690  -12.7920 C   0  0  0  0  0  0  0  0  0  0  0  0
   22.3894  -20.2303  -13.1949 C   0  0  0  0  0  0  0  0  0  0  0  0
   23.5987  -21.0780  -13.3706 C   0  0  0  0  0  0  0  0  0  0  0  0
   24.7755  -20.2895  -13.8280 C   0  0  1  0  0  0  0  0  0  0  0  0
   26.0632  -20.4856  -13.1120 N   0  0  0  0  0  0  0  0  0  0  0  0
   27.1356  -20.5272  -14.0835 C   0  0  0  0  0  0  0  0  0  0  0  0
   26.1598  -21.6188  -12.1811 O   0  0  0  0  0  0  0  0  0  0  0  0
   26.8504  -22.6691  -12.4232 O   0  0  0  0  0  0  0  0  0  0  0  0
  2  1  1  0
  3  4  1  1
  3  2  1  0
  5  3  1  0
  6  5  2  0
  7  8  1  0
  8  9  2  0
 10  8  1  0
 11 10  1  0
 12 11  1  0
 12 13  1  0
 14 15  1  0
 14 13  1  6
 15  5  1  0
 16 14  1  0
 17 16  2  0
 18 19  1  0
 19 20  2  0
 19 21  1  0
 21 22  1  0
 23 22  1  0
 24 23  1  0
 25 24  1  1
 25 26  1  0
 26 16  1  0
 27 29  1  0
 27 25  1  0
 28 27  2  0
M  END
$$$$
