SRR.pdb
     RDKit          3D

 29 28  0  0  1  0  0  0  0  0999 V2000
   28.1316  -20.5188  -11.4597 O   0  0  0  0  0  0  0  0  0  0  0  0
   26.8561  -20.6235  -11.9906 C   0  0  0  0  0  0  0  0  0  0  0  0
   26.9103  -21.4750  -13.2414 C   0  0  2  0  0  0  0  0  0  0  0  0
   27.6933  -20.8335  -14.2661 N   0  0  0  0  0  0  0  0  0  0  0  0
   25.5159  -21.7611  -13.6678 C   0  0  0  0  0  0  0  0  0  0  0  0
   24.9069  -20.8575  -14.2866 O   0  0  0  0  0  0  0  0  0  0  0  0
   21.1929  -29.1747  -13.1646 N   0  0  0  0  0  0  0  0  0  0  0  0
   20.8984  -28.0367  -12.3751 C   0  0  0  0  0  0  0  0  0  0  0  0
   20.3079  -28.2034  -11.2460 N   0  0  0  0  0  0  0  0  0  0  0  0
   21.2298  -26.7267  -12.7876 N   0  0  0  0  0  0  0  0  0  0  0  0
   21.6034  -26.4900  -14.1607 C   0  0  0  0  0  0  0  0  0  0  0  0
   21.8506  -25.0126  -14.3322 C   0  0  0  0  0  0  0  0  0  0  0  0
   23.2008  -24.6726  -13.7789 C   0  0  0  0  0  0  0  0  0  0  0  0
   23.5175  -23.2421  -13.9067 C   0  0  2  0  0  0  0  0  0  0  0  0
   24.8495  -22.9800  -13.4162 N   0  0  0  0  0  0  0  0  0  0  0  0
   22.5866  -22.3434  -13.1882 C   0  0  0  0  0  0  0  0  0  0  0  0
   22.6877  -22.2338  -11.9518 O   0  0  0  0  0  0  0  0  0  0  0  0
   20.0585  -27.4136  -10.6148 N   0  0  0  0  0  0  0  0  0  0  0  0
   20.1151  -18.7827  -18.2592 C   0  0  0  0  0  0  0  0  0  0  0  0
   19.9657  -17.4469  -17.8136 N   0  0  0  0  0  0  0  0  0  0  0  0
   19.1583  -16.6989  -18.5137 N   0  0  0  0  0  0  0  0  0  0  0  0
   20.6305  -16.9289  -16.6907 C   0  0  0  0  0  0  0  0  0  0  0  0
   21.4862  -17.8257  -15.8846 C   0  0  0  0  0  0  0  0  0  0  0  0
   20.6579  -18.8928  -15.2624 C   0  0  0  0  0  0  0  0  0  0  0  0
   21.1785  -19.3022  -13.9293 C   0  0  1  0  0  0  0  0  0  0  0  0
   20.7548  -20.6227  -13.3943 N   0  0  0  0  0  0  0  0  0  0  0  0
   21.6205  -21.6467  -13.9397 C   0  0  0  0  0  0  0  0  0  0  0  0
   19.3424  -20.9990  -13.5480 O   0  0  0  0  0  0  0  0  0  0  0  0
   18.9540  -21.9946  -14.2526 O   0  0  0  0  0  0  0  0  0  0  0  0
  2  1  1  0
  3  4  1  6
  3  2  1  0
  5  3  1  0
  6  5  2  0
  7  8  1  0
  8  9  2  0
 10  8  1  0
 11 10  1  0
 12 11  1  0
 12 13  1  0
 14 15  1  0
 14 13  1  1
 15  5  1  0
 16 14  1  0
 17 16  2  0
 18 19  1  0
 19 20  2  0
 19 21  1  0
 21 22  1  0
 23 22  1  0
 24 23  1  0
 25 24  1  1
 25 26  1  0
 26 16  1  0
 27 29  1  0
 27 25  1  0
 28 27  2  0
M  END
$$$$
