SRR.pdb
     RDKit          3D

 29 28  0  0  1  0  0  0  0  0999 V2000
   17.7078  -29.8567   -3.2747 O   0  0  0  0  0  0  0  0  0  0  0  0
   17.2869  -28.5688   -2.9848 C   0  0  0  0  0  0  0  0  0  0  0  0
   18.4715  -27.6303   -3.0743 C   0  0  2  0  0  0  0  0  0  0  0  0
   19.2287  -27.6403   -1.8491 N   0  0  0  0  0  0  0  0  0  0  0  0
   17.9666  -26.2801   -3.4355 C   0  0  0  0  0  0  0  0  0  0  0  0
   17.4343  -25.6028   -2.5256 O   0  0  0  0  0  0  0  0  0  0  0  0
   20.0746  -26.3250   -9.7404 N   0  0  0  0  0  0  0  0  0  0  0  0
   18.7706  -26.1750  -10.2715 C   0  0  0  0  0  0  0  0  0  0  0  0
   18.3689  -27.0036  -11.1679 N   0  0  0  0  0  0  0  0  0  0  0  0
   17.8991  -25.1456   -9.8510 N   0  0  0  0  0  0  0  0  0  0  0  0
   18.2838  -24.2985   -8.7485 C   0  0  0  0  0  0  0  0  0  0  0  0
   17.6638  -24.8534   -7.4912 C   0  0  0  0  0  0  0  0  0  0  0  0
   18.0044  -23.9584   -6.3388 C   0  0  0  0  0  0  0  0  0  0  0  0
   17.4636  -24.4525   -5.0635 C   0  0  2  0  0  0  0  0  0  0  0  0
   18.0533  -25.7274   -4.7317 N   0  0  0  0  0  0  0  0  0  0  0  0
   15.9929  -24.6169   -5.0461 C   0  0  0  0  0  0  0  0  0  0  0  0
   15.4972  -25.6616   -5.5085 O   0  0  0  0  0  0  0  0  0  0  0  0
   17.4282  -26.9473  -11.6108 N   0  0  0  0  0  0  0  0  0  0  0  0
   12.3216  -19.0603    0.3339 C   0  0  0  0  0  0  0  0  0  0  0  0
   11.6716  -18.8528   -0.9069 N   0  0  0  0  0  0  0  0  0  0  0  0
   10.8333  -17.8544   -0.9518 N   0  0  0  0  0  0  0  0  0  0  0  0
   11.8944  -19.6535   -2.0383 C   0  0  0  0  0  0  0  0  0  0  0  0
   12.4864  -20.9971   -1.8631 C   0  0  0  0  0  0  0  0  0  0  0  0
   12.7706  -21.6031   -3.1912 C   0  0  0  0  0  0  0  0  0  0  0  0
   13.4135  -22.9403   -3.0723 C   0  0  1  0  0  0  0  0  0  0  0  0
   13.7780  -23.6494   -4.3268 N   0  0  0  0  0  0  0  0  0  0  0  0
   15.2130  -23.5772   -4.5034 C   0  0  0  0  0  0  0  0  0  0  0  0
   13.0813  -23.2554   -5.5595 O   0  0  0  0  0  0  0  0  0  0  0  0
   13.6798  -22.7562   -6.5750 O   0  0  0  0  0  0  0  0  0  0  0  0
  2  1  1  0
  3  4  1  1
  3  2  1  0
  5  3  1  0
  6  5  2  0
  7  8  1  0
  8  9  2  0
 10  8  1  0
 11 10  1  0
 12 11  1  0
 12 13  1  0
 14 15  1  0
 14 13  1  6
 15  5  1  0
 16 14  1  0
 17 16  2  0
 18 19  1  0
 19 20  2  0
 19 21  1  0
 21 22  1  0
 23 22  1  0
 24 23  1  0
 25 24  1  1
 25 26  1  0
 26 16  1  0
 27 29  1  0
 27 25  1  0
 28 27  2  0
M  END
$$$$
