SRR.pdb
     RDKit          3D

 29 28  0  0  1  0  0  0  0  0999 V2000
   24.7088  -23.5334  -16.8307 O   0  0  0  0  0  0  0  0  0  0  0  0
   25.5914  -23.1736  -17.8364 C   0  0  0  0  0  0  0  0  0  0  0  0
   27.0087  -23.3097  -17.3214 C   0  0  2  0  0  0  0  0  0  0  0  0
   27.3366  -24.6910  -17.0783 N   0  0  0  0  0  0  0  0  0  0  0  0
   27.1461  -22.4574  -16.1120 C   0  0  0  0  0  0  0  0  0  0  0  0
   27.3542  -23.0368  -15.0207 O   0  0  0  0  0  0  0  0  0  0  0  0
   26.1234  -17.0547  -18.8523 N   0  0  0  0  0  0  0  0  0  0  0  0
   27.4458  -17.0694  -19.3586 C   0  0  0  0  0  0  0  0  0  0  0  0
   27.6250  -16.9314  -20.6236 N   0  0  0  0  0  0  0  0  0  0  0  0
   28.5719  -17.2323  -18.5213 N   0  0  0  0  0  0  0  0  0  0  0  0
   28.3834  -17.3484  -17.0958 C   0  0  0  0  0  0  0  0  0  0  0  0
   27.8793  -18.7382  -16.8003 C   0  0  0  0  0  0  0  0  0  0  0  0
   27.7377  -18.9050  -15.3180 C   0  0  0  0  0  0  0  0  0  0  0  0
   27.2822  -20.2525  -14.9442 C   0  0  2  0  0  0  0  0  0  0  0  0
   27.0554  -21.0486  -16.1267 N   0  0  0  0  0  0  0  0  0  0  0  0
   26.0410  -20.2766  -14.1386 C   0  0  0  0  0  0  0  0  0  0  0  0
   24.9438  -20.1689  -14.7178 O   0  0  0  0  0  0  0  0  0  0  0  0
   28.5692  -16.8880  -21.0608 N   0  0  0  0  0  0  0  0  0  0  0  0
   20.6000  -25.2811  -13.9553 C   0  0  0  0  0  0  0  0  0  0  0  0
   20.4415  -24.0038  -14.5457 N   0  0  0  0  0  0  0  0  0  0  0  0
   19.4166  -23.8661  -15.3407 N   0  0  0  0  0  0  0  0  0  0  0  0
   21.3152  -22.9305  -14.3097 C   0  0  0  0  0  0  0  0  0  0  0  0
   22.4218  -23.1032  -13.3442 C   0  0  0  0  0  0  0  0  0  0  0  0
   23.2421  -21.8639  -13.2864 C   0  0  0  0  0  0  0  0  0  0  0  0
   24.4108  -22.0062  -12.3756 C   0  0  2  0  0  0  0  0  0  0  0  0
   25.0524  -20.7642  -11.8705 N   0  0  0  0  0  0  0  0  0  0  0  0
   26.1560  -20.4214  -12.7424 C   0  0  0  0  0  0  0  0  0  0  0  0
   25.4738  -20.7387  -10.4628 O   0  0  0  0  0  0  0  0  0  0  0  0
   26.6982  -20.8051  -10.0953 O   0  0  0  0  0  0  0  0  0  0  0  0
  2  1  1  0
  3  4  1  1
  3  2  1  0
  5  3  1  0
  6  5  2  0
  7  8  1  0
  8  9  2  0
 10  8  1  0
 11 10  1  0
 12 11  1  0
 12 13  1  0
 14 15  1  0
 14 13  1  6
 15  5  1  0
 16 14  1  0
 17 16  2  0
 18 19  1  0
 19 20  2  0
 19 21  1  0
 21 22  1  0
 23 22  1  0
 24 23  1  0
 25 24  1  6
 25 26  1  0
 26 16  1  0
 27 29  1  0
 27 25  1  0
 28 27  2  0
M  END
$$$$
