SRR.pdb
     RDKit          3D

 29 28  0  0  1  0  0  0  0  0999 V2000
   21.0633  -12.4317    7.8591 O   0  0  0  0  0  0  0  0  0  0  0  0
   21.1966  -12.1722    6.5046 C   0  0  0  0  0  0  0  0  0  0  0  0
   19.9408  -11.4884    6.0069 C   0  0  2  0  0  0  0  0  0  0  0  0
   19.5206  -10.4573    6.9207 N   0  0  0  0  0  0  0  0  0  0  0  0
   18.9031  -12.5289    5.7863 C   0  0  0  0  0  0  0  0  0  0  0  0
   18.0951  -12.7423    6.7199 O   0  0  0  0  0  0  0  0  0  0  0  0
   17.7684  -19.3303    2.0586 N   0  0  0  0  0  0  0  0  0  0  0  0
   16.4311  -18.9429    1.8006 C   0  0  0  0  0  0  0  0  0  0  0  0
   15.4920  -19.7999    1.9877 N   0  0  0  0  0  0  0  0  0  0  0  0
   16.0959  -17.6488    1.3433 N   0  0  0  0  0  0  0  0  0  0  0  0
   17.0424  -16.5726    1.5076 C   0  0  0  0  0  0  0  0  0  0  0  0
   16.9480  -16.0769    2.9284 C   0  0  0  0  0  0  0  0  0  0  0  0
   17.9152  -14.9489    3.1208 C   0  0  0  0  0  0  0  0  0  0  0  0
   17.8480  -14.3743    4.4730 C   0  0  2  0  0  0  0  0  0  0  0  0
   18.7808  -13.2799    4.5971 N   0  0  0  0  0  0  0  0  0  0  0  0
   18.1331  -15.3364    5.5608 C   0  0  0  0  0  0  0  0  0  0  0  0
   19.3173  -15.6269    5.8142 O   0  0  0  0  0  0  0  0  0  0  0  0
   14.4877  -19.5873    1.8131 N   0  0  0  0  0  0  0  0  0  0  0  0
   11.6197  -15.6319   10.9122 C   0  0  0  0  0  0  0  0  0  0  0  0
   11.3900  -15.8807    9.5372 N   0  0  0  0  0  0  0  0  0  0  0  0
   10.1477  -15.8133    9.1451 N   0  0  0  0  0  0  0  0  0  0  0  0
   12.4142  -16.1827    8.6258 C   0  0  0  0  0  0  0  0  0  0  0  0
   13.8155  -16.1973    9.0978 C   0  0  0  0  0  0  0  0  0  0  0  0
   14.7273  -16.5232    7.9690 C   0  0  0  0  0  0  0  0  0  0  0  0
   16.1564  -16.5288    8.3852 C   0  0  1  0  0  0  0  0  0  0  0  0
   17.1794  -16.8346    7.3511 N   0  0  0  0  0  0  0  0  0  0  0  0
   17.0448  -15.8851    6.2667 C   0  0  0  0  0  0  0  0  0  0  0  0
   17.2371  -18.2094    6.8350 O   0  0  0  0  0  0  0  0  0  0  0  0
   16.7714  -18.5504    5.6925 O   0  0  0  0  0  0  0  0  0  0  0  0
  2  1  1  0
  3  4  1  1
  3  2  1  0
  5  3  1  0
  6  5  2  0
  7  8  1  0
  8  9  2  0
 10  8  1  0
 11 10  1  0
 12 11  1  0
 12 13  1  0
 14 15  1  0
 14 13  1  6
 15  5  1  0
 16 14  1  0
 17 16  2  0
 18 19  1  0
 19 20  2  0
 19 21  1  0
 21 22  1  0
 23 22  1  0
 24 23  1  0
 25 24  1  1
 25 26  1  0
 26 16  1  0
 27 29  1  0
 27 25  1  0
 28 27  2  0
M  END
$$$$
