SRR.pdb
     RDKit          3D

 29 28  0  0  1  0  0  0  0  0999 V2000
   25.8630  -15.4061  -19.1788 O   0  0  0  0  0  0  0  0  0  0  0  0
   26.1075  -16.1710  -18.0497 C   0  0  0  0  0  0  0  0  0  0  0  0
   27.0108  -17.3274  -18.4229 C   0  0  2  0  0  0  0  0  0  0  0  0
   26.7227  -17.7956  -19.7542 N   0  0  0  0  0  0  0  0  0  0  0  0
   26.8614  -18.3843  -17.3891 C   0  0  0  0  0  0  0  0  0  0  0  0
   26.0022  -19.2729  -17.5951 O   0  0  0  0  0  0  0  0  0  0  0  0
   31.6111  -21.1557  -10.3869 N   0  0  0  0  0  0  0  0  0  0  0  0
   30.3329  -21.7592  -10.3019 C   0  0  0  0  0  0  0  0  0  0  0  0
   30.0821  -22.5397   -9.3123 N   0  0  0  0  0  0  0  0  0  0  0  0
   29.3270  -21.5338  -11.2680 N   0  0  0  0  0  0  0  0  0  0  0  0
   29.5089  -20.4926  -12.2498 C   0  0  0  0  0  0  0  0  0  0  0  0
   28.2753  -20.4423  -13.1152 C   0  0  0  0  0  0  0  0  0  0  0  0
   28.4779  -19.4307  -14.2017 C   0  0  0  0  0  0  0  0  0  0  0  0
   27.3743  -19.4201  -15.1737 C   0  0  2  0  0  0  0  0  0  0  0  0
   27.6252  -18.4399  -16.2031 N   0  0  0  0  0  0  0  0  0  0  0  0
   26.0465  -19.1301  -14.5879 C   0  0  0  0  0  0  0  0  0  0  0  0
   25.7675  -17.9567  -14.2774 O   0  0  0  0  0  0  0  0  0  0  0  0
   29.1713  -23.0303   -9.1941 N   0  0  0  0  0  0  0  0  0  0  0  0
   19.0947  -21.7598  -15.6701 C   0  0  0  0  0  0  0  0  0  0  0  0
   18.4967  -20.4804  -15.5671 N   0  0  0  0  0  0  0  0  0  0  0  0
   17.2089  -20.4677  -15.3601 N   0  0  0  0  0  0  0  0  0  0  0  0
   19.2175  -19.2805  -15.6753 C   0  0  0  0  0  0  0  0  0  0  0  0
   20.6601  -19.3347  -15.9957 C   0  0  0  0  0  0  0  0  0  0  0  0
   21.4406  -19.6463  -14.7687 C   0  0  0  0  0  0  0  0  0  0  0  0
   22.9049  -19.6942  -15.0318 C   0  0  1  0  0  0  0  0  0  0  0  0
   23.8018  -20.0518  -13.9017 N   0  0  0  0  0  0  0  0  0  0  0  0
   25.1505  -20.2013  -14.4059 C   0  0  0  0  0  0  0  0  0  0  0  0
   23.4257  -21.2046  -13.0714 O   0  0  0  0  0  0  0  0  0  0  0  0
   22.5253  -21.1514  -12.1630 O   0  0  0  0  0  0  0  0  0  0  0  0
  2  1  1  0
  3  4  1  6
  3  2  1  0
  5  3  1  0
  6  5  2  0
  7  8  1  0
  8  9  2  0
 10  8  1  0
 11 10  1  0
 12 11  1  0
 12 13  1  0
 14 15  1  0
 14 13  1  1
 15  5  1  0
 16 14  1  0
 17 16  2  0
 18 19  1  0
 19 20  2  0
 19 21  1  0
 21 22  1  0
 23 22  1  0
 24 23  1  0
 25 24  1  1
 25 26  1  0
 26 16  1  0
 27 29  1  0
 27 25  1  0
 28 27  2  0
M  END
$$$$
