SRR.pdb
     RDKit          3D

 29 28  0  0  1  0  0  0  0  0999 V2000
   15.1709  -23.3305   -4.1675 O   0  0  0  0  0  0  0  0  0  0  0  0
   14.9881  -24.6653   -4.4910 C   0  0  0  0  0  0  0  0  0  0  0  0
   16.2787  -25.4157   -4.2391 C   0  0  2  0  0  0  0  0  0  0  0  0
   16.9426  -24.9156   -3.0627 N   0  0  0  0  0  0  0  0  0  0  0  0
   17.1154  -25.3223   -5.4636 C   0  0  0  0  0  0  0  0  0  0  0  0
   18.1846  -24.6739   -5.3815 O   0  0  0  0  0  0  0  0  0  0  0  0
   21.4650  -28.4454  -11.1061 N   0  0  0  0  0  0  0  0  0  0  0  0
   20.3684  -28.3975  -12.0008 C   0  0  0  0  0  0  0  0  0  0  0  0
   20.6011  -28.2621  -13.2573 N   0  0  0  0  0  0  0  0  0  0  0  0
   19.0299  -28.4915  -11.5586 N   0  0  0  0  0  0  0  0  0  0  0  0
   18.7589  -28.6482  -10.1504 C   0  0  0  0  0  0  0  0  0  0  0  0
   18.7977  -27.2838   -9.5099 C   0  0  0  0  0  0  0  0  0  0  0  0
   17.6799  -27.1743   -8.5182 C   0  0  0  0  0  0  0  0  0  0  0  0
   17.6536  -25.8686   -7.8417 C   0  0  2  0  0  0  0  0  0  0  0  0
   16.7746  -25.9168   -6.6979 N   0  0  0  0  0  0  0  0  0  0  0  0
   17.2173  -24.7444   -8.6996 C   0  0  0  0  0  0  0  0  0  0  0  0
   16.0417  -24.3421   -8.6151 O   0  0  0  0  0  0  0  0  0  0  0  0
   19.8447  -28.1704  -13.9671 N   0  0  0  0  0  0  0  0  0  0  0  0
   22.8033  -19.7581  -13.5869 C   0  0  0  0  0  0  0  0  0  0  0  0
   21.5009  -19.3179  -13.9266 N   0  0  0  0  0  0  0  0  0  0  0  0
   21.4352  -18.3491  -14.7975 N   0  0  0  0  0  0  0  0  0  0  0  0
   20.3322  -19.8701  -13.3786 C   0  0  0  0  0  0  0  0  0  0  0  0
   20.4495  -20.9233  -12.3474 C   0  0  0  0  0  0  0  0  0  0  0  0
   19.0960  -21.3772  -11.9302 C   0  0  0  0  0  0  0  0  0  0  0  0
   19.1548  -22.5424  -11.0057 C   0  0  2  0  0  0  0  0  0  0  0  0
   17.8737  -23.0562  -10.4542 N   0  0  0  0  0  0  0  0  0  0  0  0
   18.1574  -24.1749   -9.5802 C   0  0  0  0  0  0  0  0  0  0  0  0
   16.8092  -23.3978  -11.4082 O   0  0  0  0  0  0  0  0  0  0  0  0
   16.7142  -24.5423  -11.9736 O   0  0  0  0  0  0  0  0  0  0  0  0
  2  1  1  0
  3  4  1  1
  3  2  1  0
  5  3  1  0
  6  5  2  0
  7  8  1  0
  8  9  2  0
 10  8  1  0
 11 10  1  0
 12 11  1  0
 12 13  1  0
 14 15  1  0
 14 13  1  6
 15  5  1  0
 16 14  1  0
 17 16  2  0
 18 19  1  0
 19 20  2  0
 19 21  1  0
 21 22  1  0
 23 22  1  0
 24 23  1  0
 25 24  1  1
 25 26  1  0
 26 16  1  0
 27 29  1  0
 27 25  1  0
 28 27  2  0
M  END
$$$$
