SRR.pdb
     RDKit          3D

 29 28  0  0  1  0  0  0  0  0999 V2000
   26.8376  -18.3920  -16.1878 O   0  0  0  0  0  0  0  0  0  0  0  0
   28.2198  -18.4820  -16.2252 C   0  0  0  0  0  0  0  0  0  0  0  0
   28.6204  -19.9418  -16.1994 C   0  0  2  0  0  0  0  0  0  0  0  0
   28.2043  -20.6102  -17.4055 N   0  0  0  0  0  0  0  0  0  0  0  0
   28.0558  -20.5555  -14.9695 C   0  0  0  0  0  0  0  0  0  0  0  0
   26.9770  -21.1828  -15.0829 O   0  0  0  0  0  0  0  0  0  0  0  0
   32.1260  -22.4638   -8.4057 N   0  0  0  0  0  0  0  0  0  0  0  0
   32.4777  -22.7009   -9.7568 C   0  0  0  0  0  0  0  0  0  0  0  0
   33.2549  -23.6873  -10.0294 N   0  0  0  0  0  0  0  0  0  0  0  0
   32.0050  -21.8896  -10.8124 N   0  0  0  0  0  0  0  0  0  0  0  0
   31.2398  -20.7053  -10.5071 C   0  0  0  0  0  0  0  0  0  0  0  0
   30.2943  -20.4487  -11.6531 C   0  0  0  0  0  0  0  0  0  0  0  0
   29.1011  -21.3444  -11.5160 C   0  0  0  0  0  0  0  0  0  0  0  0
   28.0667  -21.0620  -12.5226 C   0  0  2  0  0  0  0  0  0  0  0  0
   28.6616  -20.4704  -13.6971 N   0  0  0  0  0  0  0  0  0  0  0  0
   26.9913  -20.1582  -12.0570 C   0  0  0  0  0  0  0  0  0  0  0  0
   26.7747  -19.1048  -12.6849 O   0  0  0  0  0  0  0  0  0  0  0  0
   33.6426  -23.8571  -10.9809 N   0  0  0  0  0  0  0  0  0  0  0  0
   19.2541  -20.4342  -13.7992 C   0  0  0  0  0  0  0  0  0  0  0  0
   20.3656  -19.8745  -14.4749 N   0  0  0  0  0  0  0  0  0  0  0  0
   20.0865  -19.0744  -15.4665 N   0  0  0  0  0  0  0  0  0  0  0  0
   21.6979  -20.1431  -14.1234 C   0  0  0  0  0  0  0  0  0  0  0  0
   21.9781  -21.1761  -13.1031 C   0  0  0  0  0  0  0  0  0  0  0  0
   22.6167  -20.5532  -11.9131 C   0  0  0  0  0  0  0  0  0  0  0  0
   24.0907  -20.7603  -11.8940 C   0  0  2  0  0  0  0  0  0  0  0  0
   24.8499  -20.2381  -10.7276 N   0  0  0  0  0  0  0  0  0  0  0  0
   26.2548  -20.5318  -10.9161 C   0  0  0  0  0  0  0  0  0  0  0  0
   24.4076  -20.6483   -9.3874 O   0  0  0  0  0  0  0  0  0  0  0  0
   24.8094  -21.7193   -8.8129 O   0  0  0  0  0  0  0  0  0  0  0  0
  2  1  1  0
  3  4  1  6
  3  2  1  0
  5  3  1  0
  6  5  2  0
  7  8  1  0
  8  9  2  0
 10  8  1  0
 11 10  1  0
 12 11  1  0
 12 13  1  0
 14 15  1  0
 14 13  1  1
 15  5  1  0
 16 14  1  0
 17 16  2  0
 18 19  1  0
 19 20  2  0
 19 21  1  0
 21 22  1  0
 23 22  1  0
 24 23  1  0
 25 24  1  6
 25 26  1  0
 26 16  1  0
 27 29  1  0
 27 25  1  0
 28 27  2  0
M  END
$$$$
