SRR.pdb
     RDKit          3D

 29 28  0  0  1  0  0  0  0  0999 V2000
   27.0554  -18.6090  -21.0399 O   0  0  0  0  0  0  0  0  0  0  0  0
   26.3528  -19.4316  -20.1741 C   0  0  0  0  0  0  0  0  0  0  0  0
   26.8514  -19.2037  -18.7628 C   0  0  2  0  0  0  0  0  0  0  0  0
   28.0380  -19.9787  -18.5056 N   0  0  0  0  0  0  0  0  0  0  0  0
   25.7411  -19.5105  -17.8240 C   0  0  0  0  0  0  0  0  0  0  0  0
   25.7798  -20.6119  -17.2279 O   0  0  0  0  0  0  0  0  0  0  0  0
   18.5297  -17.9046  -16.2530 N   0  0  0  0  0  0  0  0  0  0  0  0
   18.6213  -17.7297  -14.8508 C   0  0  0  0  0  0  0  0  0  0  0  0
   17.6047  -18.0263  -14.1228 N   0  0  0  0  0  0  0  0  0  0  0  0
   19.7902  -17.2389  -14.2271 N   0  0  0  0  0  0  0  0  0  0  0  0
   20.9320  -16.8907  -15.0371 C   0  0  0  0  0  0  0  0  0  0  0  0
   21.6555  -18.1625  -15.4005 C   0  0  0  0  0  0  0  0  0  0  0  0
   22.8596  -17.8245  -16.2256 C   0  0  0  0  0  0  0  0  0  0  0  0
   23.5446  -19.0209  -16.7381 C   0  0  2  0  0  0  0  0  0  0  0  0
   24.6595  -18.6390  -17.5716 N   0  0  0  0  0  0  0  0  0  0  0  0
   22.6816  -19.9288  -17.5262 C   0  0  0  0  0  0  0  0  0  0  0  0
   22.3010  -19.5694  -18.6562 O   0  0  0  0  0  0  0  0  0  0  0  0
   17.5938  -17.9060  -13.0885 N   0  0  0  0  0  0  0  0  0  0  0  0
   19.4173  -28.0994  -17.4957 C   0  0  0  0  0  0  0  0  0  0  0  0
   20.7857  -27.9334  -17.8202 N   0  0  0  0  0  0  0  0  0  0  0  0
   21.3196  -28.8796  -18.5420 N   0  0  0  0  0  0  0  0  0  0  0  0
   21.5485  -26.8296  -17.4070 C   0  0  0  0  0  0  0  0  0  0  0  0
   20.9121  -25.7874  -16.5732 C   0  0  0  0  0  0  0  0  0  0  0  0
   20.7092  -24.5510  -17.3745 C   0  0  0  0  0  0  0  0  0  0  0  0
   21.5625  -23.4276  -16.8995 C   0  0  1  0  0  0  0  0  0  0  0  0
   21.4259  -22.1149  -17.5832 N   0  0  0  0  0  0  0  0  0  0  0  0
   22.3261  -21.1682  -16.9596 C   0  0  0  0  0  0  0  0  0  0  0  0
   20.0759  -21.5470  -17.7050 O   0  0  0  0  0  0  0  0  0  0  0  0
   19.3403  -21.7014  -18.7412 O   0  0  0  0  0  0  0  0  0  0  0  0
  2  1  1  0
  3  4  1  1
  3  2  1  0
  5  3  1  0
  6  5  2  0
  7  8  1  0
  8  9  2  0
 10  8  1  0
 11 10  1  0
 12 11  1  0
 12 13  1  0
 14 15  1  0
 14 13  1  6
 15  5  1  0
 16 14  1  0
 17 16  2  0
 18 19  1  0
 19 20  2  0
 19 21  1  0
 21 22  1  0
 23 22  1  0
 24 23  1  0
 25 24  1  6
 25 26  1  0
 26 16  1  0
 27 29  1  0
 27 25  1  0
 28 27  2  0
M  END
$$$$
