ELI.pdb
     RDKit          3D

 26 25  0  0  1  0  0  0  0  0999 V2000
   14.8597  -11.3099  -14.6073 N   0  0  0  0  0  0  0  0  0  0  0  0
   15.6432  -10.8646  -13.5000 C   0  0  1  0  0  0  0  0  0  0  0  0
   16.9208  -10.2539  -13.9641 C   0  0  0  0  0  0  0  0  0  0  0  0
   17.8477  -11.1564  -14.6998 C   0  0  0  0  0  0  0  0  0  0  0  0
   19.0933  -10.5396  -15.1671 C   0  0  0  0  0  0  0  0  0  0  0  0
   19.3155   -9.3321  -14.9117 O   0  0  0  0  0  0  0  0  0  0  0  0
   14.8832   -9.9872  -12.5722 C   0  0  0  0  0  0  0  0  0  0  0  0
   13.9973   -9.2388  -13.0252 O   0  0  0  0  0  0  0  0  0  0  0  0
   20.0625  -11.2281  -15.8910 O   0  0  0  0  0  0  0  0  0  0  0  0
   11.8062  -11.5048   -8.7180 C   0  0  0  0  0  0  0  0  0  0  0  0
   12.5162  -10.6811   -9.8059 C   0  0  1  0  0  0  0  0  0  0  0  0
   11.5435   -9.4734   -9.9987 C   0  0  0  0  0  0  0  0  0  0  0  0
   13.7229  -10.0979   -9.1702 C   0  0  0  0  0  0  0  0  0  0  0  0
   14.5462   -9.2705  -10.1509 C   0  0  2  0  0  0  0  0  0  0  0  0
   15.1609  -10.0023  -11.2029 N   0  0  0  0  0  0  0  0  0  0  0  0
   15.3127   -8.2053   -9.5404 C   0  0  0  0  0  0  0  0  0  0  0  0
   16.3783   -8.4852   -8.9163 O   0  0  0  0  0  0  0  0  0  0  0  0
   17.9527   -2.8487  -10.2602 C   0  0  0  0  0  0  0  0  0  0  0  0
   17.2310   -3.7360   -9.2642 C   0  0  0  0  0  0  0  0  0  0  0  0
   16.4773   -4.8598   -9.9683 C   0  0  2  0  0  0  0  0  0  0  0  0
   15.6301   -4.3510  -11.0933 C   0  0  0  0  0  0  0  0  0  0  0  0
   15.8115   -5.7859   -9.0358 C   0  0  2  0  0  0  0  0  0  0  0  0
   15.0107   -6.8331   -9.5528 N   0  0  0  0  0  0  0  0  0  0  0  0
   14.9476   -4.9746   -8.1192 C   0  0  0  0  0  0  0  0  0  0  0  0
   15.4361   -4.1509   -7.2923 O   0  0  0  0  0  0  0  0  0  0  0  0
   13.5595   -5.0780   -8.1225 O   0  0  0  0  0  0  0  0  0  0  0  0
  2  3  1  0
  2  1  1  6
  4  3  1  0
  5  4  1  0
  6  5  2  0
  7  8  2  0
  7  2  1  0
  9  5  1  0
 11 10  1  1
 11 12  1  0
 14 13  1  1
 13 11  1  0
 14 15  1  0
 15  7  1  0
 16 14  1  0
 17 16  2  0
 18 19  1  0
 19 20  1  0
 20 21  1  6
 22 20  1  0
 22 23  1  6
 23 16  1  0
 24 26  1  0
 24 22  1  0
 25 24  2  0
M  END
$$$$
