ELI.pdb
     RDKit          3D

 26 25  0  0  1  0  0  0  0  0999 V2000
   18.5860  -11.4492  -17.0499 N   0  0  0  0  0  0  0  0  0  0  0  0
   17.7014  -10.4644  -16.5153 C   0  0  1  0  0  0  0  0  0  0  0  0
   16.7630  -11.0716  -15.5296 C   0  0  0  0  0  0  0  0  0  0  0  0
   15.9601  -12.2262  -16.0167 C   0  0  0  0  0  0  0  0  0  0  0  0
   16.4068  -13.5456  -15.5589 C   0  0  0  0  0  0  0  0  0  0  0  0
   17.4174  -13.6312  -14.8212 O   0  0  0  0  0  0  0  0  0  0  0  0
   18.4168   -9.2766  -15.9807 C   0  0  0  0  0  0  0  0  0  0  0  0
   17.7636   -8.3441  -15.4770 O   0  0  0  0  0  0  0  0  0  0  0  0
   15.7635  -14.7316  -15.9008 O   0  0  0  0  0  0  0  0  0  0  0  0
   23.4391  -10.1458  -13.9485 C   0  0  0  0  0  0  0  0  0  0  0  0
   21.9871   -9.7224  -14.2285 C   0  0  1  0  0  0  0  0  0  0  0  0
   21.5538   -9.0930  -12.8653 C   0  0  0  0  0  0  0  0  0  0  0  0
   22.0577   -8.5775  -15.1690 C   0  0  0  0  0  0  0  0  0  0  0  0
   20.6786   -8.1497  -15.6583 C   0  0  2  0  0  0  0  0  0  0  0  0
   19.8110   -9.2075  -16.0431 N   0  0  0  0  0  0  0  0  0  0  0  0
   20.6762   -6.9529  -16.4722 C   0  0  0  0  0  0  0  0  0  0  0  0
   21.6081   -6.7687  -17.3095 O   0  0  0  0  0  0  0  0  0  0  0  0
   16.7689   -5.2247  -19.6306 C   0  0  0  0  0  0  0  0  0  0  0  0
   18.0814   -5.5560  -18.9468 C   0  0  0  0  0  0  0  0  0  0  0  0
   18.5414   -4.4129  -18.0477 C   0  0  2  0  0  0  0  0  0  0  0  0
   18.5977   -3.1081  -18.7803 C   0  0  0  0  0  0  0  0  0  0  0  0
   19.7315   -4.7471  -17.2462 C   0  0  2  0  0  0  0  0  0  0  0  0
   19.7249   -5.9190  -16.4513 N   0  0  0  0  0  0  0  0  0  0  0  0
   20.0124   -3.5915  -16.3348 C   0  0  0  0  0  0  0  0  0  0  0  0
   19.4077   -3.4444  -15.2332 O   0  0  0  0  0  0  0  0  0  0  0  0
   20.9528   -2.6133  -16.6446 O   0  0  0  0  0  0  0  0  0  0  0  0
  2  3  1  0
  2  1  1  1
  4  3  1  0
  5  4  1  0
  6  5  2  0
  7  8  2  0
  7  2  1  0
  9  5  1  0
 11 10  1  1
 11 12  1  0
 14 13  1  6
 13 11  1  0
 14 15  1  0
 15  7  1  0
 16 14  1  0
 17 16  2  0
 18 19  1  0
 19 20  1  0
 20 21  1  6
 22 20  1  0
 22 23  1  1
 23 16  1  0
 24 26  1  0
 24 22  1  0
 25 24  2  0
M  END
$$$$
