ELI.pdb
     RDKit          3D

 26 25  0  0  1  0  0  0  0  0999 V2000
   27.7645  -20.5915  -16.9853 N   0  0  0  0  0  0  0  0  0  0  0  0
   26.9305  -21.7467  -16.8951 C   0  0  1  0  0  0  0  0  0  0  0  0
   27.6679  -22.9695  -17.3218 C   0  0  0  0  0  0  0  0  0  0  0  0
   28.3820  -22.8812  -18.6245 C   0  0  0  0  0  0  0  0  0  0  0  0
   27.5616  -22.4732  -19.7694 C   0  0  0  0  0  0  0  0  0  0  0  0
   26.8443  -23.3245  -20.3467 O   0  0  0  0  0  0  0  0  0  0  0  0
   26.2881  -21.8910  -15.5629 C   0  0  0  0  0  0  0  0  0  0  0  0
   25.5651  -22.8788  -15.3358 O   0  0  0  0  0  0  0  0  0  0  0  0
   27.5311  -21.1721  -20.2629 O   0  0  0  0  0  0  0  0  0  0  0  0
   29.1510  -19.6100  -11.5490 C   0  0  0  0  0  0  0  0  0  0  0  0
   28.3430  -20.4421  -12.5594 C   0  0  1  0  0  0  0  0  0  0  0  0
   28.6688  -21.9067  -12.1225 C   0  0  0  0  0  0  0  0  0  0  0  0
   26.9135  -20.2521  -12.2117 C   0  0  0  0  0  0  0  0  0  0  0  0
   25.9826  -20.8703  -13.2489 C   0  0  2  0  0  0  0  0  0  0  0  0
   26.4941  -20.9259  -14.5737 N   0  0  0  0  0  0  0  0  0  0  0  0
   24.5873  -20.5228  -13.0845 C   0  0  0  0  0  0  0  0  0  0  0  0
   24.1218  -20.3542  -11.9191 O   0  0  0  0  0  0  0  0  0  0  0  0
   21.9434  -17.2443  -16.3422 C   0  0  0  0  0  0  0  0  0  0  0  0
   22.1352  -17.8426  -14.9619 C   0  0  0  0  0  0  0  0  0  0  0  0
   21.5354  -19.2425  -14.8769 C   0  0  2  0  0  0  0  0  0  0  0  0
   20.0452  -19.2088  -14.7340 C   0  0  0  0  0  0  0  0  0  0  0  0
   22.2475  -20.1233  -13.9347 C   0  0  2  0  0  0  0  0  0  0  0  0
   23.6369  -20.3391  -14.1029 N   0  0  0  0  0  0  0  0  0  0  0  0
   21.5809  -21.4647  -13.9647 C   0  0  0  0  0  0  0  0  0  0  0  0
   20.5477  -21.7151  -13.2786 O   0  0  0  0  0  0  0  0  0  0  0  0
   22.0569  -22.5129  -14.7469 O   0  0  0  0  0  0  0  0  0  0  0  0
  2  3  1  0
  2  1  1  1
  4  3  1  0
  5  4  1  0
  6  5  2  0
  7  8  2  0
  7  2  1  0
  9  5  1  0
 11 10  1  1
 11 12  1  0
 14 13  1  1
 13 11  1  0
 14 15  1  0
 15  7  1  0
 16 14  1  0
 17 16  2  0
 18 19  1  0
 19 20  1  0
 20 21  1  1
 22 20  1  0
 22 23  1  6
 23 16  1  0
 24 26  1  0
 24 22  1  0
 25 24  2  0
M  END
$$$$
