ELI.pdb
     RDKit          3D

 26 25  0  0  1  0  0  0  0  0999 V2000
   18.6458  -12.4829  -18.8729 N   0  0  0  0  0  0  0  0  0  0  0  0
   19.1343  -11.1420  -18.9125 C   0  0  1  0  0  0  0  0  0  0  0  0
   18.0903  -10.2108  -19.4260 C   0  0  0  0  0  0  0  0  0  0  0  0
   18.4938   -8.7843  -19.5573 C   0  0  0  0  0  0  0  0  0  0  0  0
   17.4648   -7.8815  -20.0829 C   0  0  0  0  0  0  0  0  0  0  0  0
   17.1889   -7.9087  -21.3059 O   0  0  0  0  0  0  0  0  0  0  0  0
   19.7186  -10.7031  -17.6186 C   0  0  0  0  0  0  0  0  0  0  0  0
   19.0158  -10.7241  -16.5911 O   0  0  0  0  0  0  0  0  0  0  0  0
   16.7624   -6.9788  -19.2896 O   0  0  0  0  0  0  0  0  0  0  0  0
   22.9093  -10.2844  -13.5930 C   0  0  0  0  0  0  0  0  0  0  0  0
   23.7146  -10.0533  -14.8831 C   0  0  1  0  0  0  0  0  0  0  0  0
   24.9437  -10.9975  -14.6835 C   0  0  0  0  0  0  0  0  0  0  0  0
   22.9345  -10.6740  -15.9816 C   0  0  0  0  0  0  0  0  0  0  0  0
   21.7840   -9.7861  -16.4424 C   0  0  2  0  0  0  0  0  0  0  0  0
   21.0458  -10.2706  -17.5561 N   0  0  0  0  0  0  0  0  0  0  0  0
   22.0647   -8.3672  -16.3921 C   0  0  0  0  0  0  0  0  0  0  0  0
   22.8321   -7.8543  -17.2590 O   0  0  0  0  0  0  0  0  0  0  0  0
   18.4018   -4.3026  -16.0131 C   0  0  0  0  0  0  0  0  0  0  0  0
   19.4257   -5.1910  -15.3331 C   0  0  0  0  0  0  0  0  0  0  0  0
   20.7602   -5.1633  -16.0715 C   0  0  2  0  0  0  0  0  0  0  0  0
   20.5869   -5.2975  -17.5529 C   0  0  0  0  0  0  0  0  0  0  0  0
   21.7775   -6.0400  -15.4656 C   0  0  2  0  0  0  0  0  0  0  0  0
   21.5700   -7.4407  -15.4588 N   0  0  0  0  0  0  0  0  0  0  0  0
   21.9674   -5.6102  -14.0429 C   0  0  0  0  0  0  0  0  0  0  0  0
   21.6953   -6.3726  -13.0705 O   0  0  0  0  0  0  0  0  0  0  0  0
   22.4533   -4.3500  -13.7067 O   0  0  0  0  0  0  0  0  0  0  0  0
  2  3  1  0
  2  1  1  1
  4  3  1  0
  5  4  1  0
  6  5  2  0
  7  8  2  0
  7  2  1  0
  9  5  1  0
 11 10  1  1
 11 12  1  0
 14 13  1  6
 13 11  1  0
 14 15  1  0
 15  7  1  0
 16 14  1  0
 17 16  2  0
 18 19  1  0
 19 20  1  0
 20 21  1  6
 22 20  1  0
 22 23  1  1
 23 16  1  0
 24 26  1  0
 24 22  1  0
 25 24  2  0
M  END
$$$$
