ELI.pdb
     RDKit          3D

 26 25  0  0  1  0  0  0  0  0999 V2000
   27.6759  -21.9415  -17.2365 N   0  0  0  0  0  0  0  0  0  0  0  0
   26.9662  -20.9506  -16.4932 C   0  0  1  0  0  0  0  0  0  0  0  0
   26.0951  -20.1373  -17.3879 C   0  0  0  0  0  0  0  0  0  0  0  0
   26.7871  -19.3974  -18.4782 C   0  0  0  0  0  0  0  0  0  0  0  0
   27.4193  -18.1345  -18.0836 C   0  0  0  0  0  0  0  0  0  0  0  0
   28.6705  -18.0531  -18.0620 O   0  0  0  0  0  0  0  0  0  0  0  0
   26.2359  -21.5165  -15.3292 C   0  0  0  0  0  0  0  0  0  0  0  0
   25.6127  -22.5864  -15.4590 O   0  0  0  0  0  0  0  0  0  0  0  0
   26.6991  -16.9986  -17.7249 O   0  0  0  0  0  0  0  0  0  0  0  0
   25.1429  -22.0738   -9.9793 C   0  0  0  0  0  0  0  0  0  0  0  0
   24.8988  -20.6741  -10.5686 C   0  0  1  0  0  0  0  0  0  0  0  0
   25.3986  -19.7371   -9.4223 C   0  0  0  0  0  0  0  0  0  0  0  0
   25.8887  -20.4995  -11.6595 C   0  0  0  0  0  0  0  0  0  0  0  0
   25.3467  -20.9626  -13.0071 C   0  0  2  0  0  0  0  0  0  0  0  0
   26.2491  -20.8530  -14.0996 N   0  0  0  0  0  0  0  0  0  0  0  0
   23.9616  -20.6175  -13.2465 C   0  0  0  0  0  0  0  0  0  0  0  0
   23.6611  -19.4245  -13.5461 O   0  0  0  0  0  0  0  0  0  0  0  0
   20.9365  -22.6051  -16.9969 C   0  0  0  0  0  0  0  0  0  0  0  0
   21.5399  -21.6968  -15.9429 C   0  0  0  0  0  0  0  0  0  0  0  0
   20.8357  -21.8627  -14.6000 C   0  0  2  0  0  0  0  0  0  0  0  0
   19.3590  -21.6379  -14.7071 C   0  0  0  0  0  0  0  0  0  0  0  0
   21.5112  -21.1549  -13.4985 C   0  0  2  0  0  0  0  0  0  0  0  0
   22.8537  -21.4795  -13.1863 N   0  0  0  0  0  0  0  0  0  0  0  0
   20.7018  -21.3599  -12.2544 C   0  0  0  0  0  0  0  0  0  0  0  0
   19.8718  -20.4972  -11.8451 O   0  0  0  0  0  0  0  0  0  0  0  0
   20.8143  -22.5086  -11.4766 O   0  0  0  0  0  0  0  0  0  0  0  0
  2  3  1  0
  2  1  1  6
  4  3  1  0
  5  4  1  0
  6  5  2  0
  7  8  2  0
  7  2  1  0
  9  5  1  0
 11 10  1  1
 11 12  1  0
 14 13  1  1
 13 11  1  0
 14 15  1  0
 15  7  1  0
 16 14  1  0
 17 16  2  0
 18 19  1  0
 19 20  1  0
 20 21  1  6
 22 20  1  0
 22 23  1  1
 23 16  1  0
 24 26  1  0
 24 22  1  0
 25 24  2  0
M  END
$$$$
