ELI.pdb
     RDKit          3D

 26 25  0  0  1  0  0  0  0  0999 V2000
   27.0071  -20.6009  -13.4967 N   0  0  0  0  0  0  0  0  0  0  0  0
   25.6584  -21.0356  -13.3223 C   0  0  1  0  0  0  0  0  0  0  0  0
   25.3613  -22.2087  -14.1920 C   0  0  0  0  0  0  0  0  0  0  0  0
   25.6431  -22.0351  -15.6430 C   0  0  0  0  0  0  0  0  0  0  0  0
   25.5769  -20.6571  -16.1399 C   0  0  0  0  0  0  0  0  0  0  0  0
   26.6016  -20.1325  -16.6372 O   0  0  0  0  0  0  0  0  0  0  0  0
   25.3068  -21.2653  -11.8968 C   0  0  0  0  0  0  0  0  0  0  0  0
   24.2870  -21.9220  -11.6162 O   0  0  0  0  0  0  0  0  0  0  0  0
   24.4219  -19.8818  -16.0916 O   0  0  0  0  0  0  0  0  0  0  0  0
   27.2722  -21.1947   -6.5334 C   0  0  0  0  0  0  0  0  0  0  0  0
   26.6286  -19.9741   -7.2130 C   0  0  1  0  0  0  0  0  0  0  0  0
   27.4857  -18.7916   -6.6570 C   0  0  0  0  0  0  0  0  0  0  0  0
   26.9852  -20.0575   -8.6504 C   0  0  0  0  0  0  0  0  0  0  0  0
   25.8864  -20.7148   -9.4780 C   0  0  2  0  0  0  0  0  0  0  0  0
   26.1144  -20.7484  -10.8805 N   0  0  0  0  0  0  0  0  0  0  0  0
   24.5421  -20.4271   -9.0256 C   0  0  0  0  0  0  0  0  0  0  0  0
   24.0808  -19.2548   -9.1533 O   0  0  0  0  0  0  0  0  0  0  0  0
   19.2903  -20.0798  -10.1001 C   0  0  0  0  0  0  0  0  0  0  0  0
   19.8908  -21.0953   -9.1471 C   0  0  0  0  0  0  0  0  0  0  0  0
   21.3645  -21.3403   -9.4555 C   0  0  2  0  0  0  0  0  0  0  0  0
   21.5755  -22.6072  -10.2255 C   0  0  0  0  0  0  0  0  0  0  0  0
   22.2419  -21.1492   -8.2876 C   0  0  2  0  0  0  0  0  0  0  0  0
   23.6392  -21.3266   -8.4342 N   0  0  0  0  0  0  0  0  0  0  0  0
   21.7842  -22.0839   -7.2098 C   0  0  0  0  0  0  0  0  0  0  0  0
   22.4420  -23.1181   -6.8957 O   0  0  0  0  0  0  0  0  0  0  0  0
   20.6111  -21.8712   -6.4916 O   0  0  0  0  0  0  0  0  0  0  0  0
  2  3  1  0
  2  1  1  1
  4  3  1  0
  5  4  1  0
  6  5  2  0
  7  8  2  0
  7  2  1  0
  9  5  1  0
 11 10  1  1
 11 12  1  0
 14 13  1  1
 13 11  1  0
 14 15  1  0
 15  7  1  0
 16 14  1  0
 17 16  2  0
 18 19  1  0
 19 20  1  0
 20 21  1  1
 22 20  1  0
 22 23  1  6
 23 16  1  0
 24 26  1  0
 24 22  1  0
 25 24  2  0
M  END
$$$$
