ELI.pdb
     RDKit          3D

 26 25  0  0  1  0  0  0  0  0999 V2000
   22.0208  -12.4219  -18.0065 N   0  0  0  0  0  0  0  0  0  0  0  0
   21.2419  -11.9465  -16.9085 C   0  0  1  0  0  0  0  0  0  0  0  0
   20.7362  -13.0809  -16.0848 C   0  0  0  0  0  0  0  0  0  0  0  0
   20.1822  -14.2393  -16.8373 C   0  0  0  0  0  0  0  0  0  0  0  0
   19.7094  -15.3589  -16.0168 C   0  0  0  0  0  0  0  0  0  0  0  0
   19.8298  -15.3018  -14.7699 O   0  0  0  0  0  0  0  0  0  0  0  0
   21.9479  -10.9148  -16.1051 C   0  0  0  0  0  0  0  0  0  0  0  0
   21.3922  -10.4363  -15.0990 O   0  0  0  0  0  0  0  0  0  0  0  0
   19.1234  -16.5033  -16.5501 O   0  0  0  0  0  0  0  0  0  0  0  0
   27.4448  -10.8369  -16.7751 C   0  0  0  0  0  0  0  0  0  0  0  0
   25.9778  -10.9032  -16.3171 C   0  0  1  0  0  0  0  0  0  0  0  0
   26.1122  -11.3697  -14.8317 C   0  0  0  0  0  0  0  0  0  0  0  0
   25.5008   -9.5011  -16.2323 C   0  0  0  0  0  0  0  0  0  0  0  0
   24.0044   -9.4190  -15.9523 C   0  0  2  0  0  0  0  0  0  0  0  0
   23.2248  -10.4857  -16.4762 N   0  0  0  0  0  0  0  0  0  0  0  0
   23.4519   -8.0838  -16.0339 C   0  0  0  0  0  0  0  0  0  0  0  0
   24.0506   -7.1272  -15.4596 O   0  0  0  0  0  0  0  0  0  0  0  0
   20.5018   -3.8750  -19.3962 C   0  0  0  0  0  0  0  0  0  0  0  0
   20.8490   -4.4037  -18.0178 C   0  0  0  0  0  0  0  0  0  0  0  0
   21.3205   -5.8529  -18.0833 C   0  0  2  0  0  0  0  0  0  0  0  0
   20.3784   -6.7168  -18.8635 C   0  0  0  0  0  0  0  0  0  0  0  0
   21.7420   -6.3862  -16.7762 C   0  0  2  0  0  0  0  0  0  0  0  0
   22.2788   -7.6944  -16.7020 N   0  0  0  0  0  0  0  0  0  0  0  0
   20.5610   -6.3357  -15.8556 C   0  0  0  0  0  0  0  0  0  0  0  0
   20.0072   -7.3857  -15.4178 O   0  0  0  0  0  0  0  0  0  0  0  0
   20.0038   -5.1340  -15.4281 O   0  0  0  0  0  0  0  0  0  0  0  0
  2  3  1  0
  2  1  1  6
  4  3  1  0
  5  4  1  0
  6  5  2  0
  7  8  2  0
  7  2  1  0
  9  5  1  0
 11 10  1  1
 11 12  1  0
 14 13  1  6
 13 11  1  0
 14 15  1  0
 15  7  1  0
 16 14  1  0
 17 16  2  0
 18 19  1  0
 19 20  1  0
 20 21  1  1
 22 20  1  0
 22 23  1  6
 23 16  1  0
 24 26  1  0
 24 22  1  0
 25 24  2  0
M  END
$$$$
