ELI.pdb
     RDKit          3D

 26 25  0  0  1  0  0  0  0  0999 V2000
   25.0814  -20.7611  -15.7917 N   0  0  0  0  0  0  0  0  0  0  0  0
   25.2398  -21.5641  -14.6220 C   0  0  1  0  0  0  0  0  0  0  0  0
   26.4424  -22.4370  -14.7352 C   0  0  0  0  0  0  0  0  0  0  0  0
   26.3988  -23.4753  -15.8005 C   0  0  0  0  0  0  0  0  0  0  0  0
   25.2271  -24.3566  -15.7775 C   0  0  0  0  0  0  0  0  0  0  0  0
   25.2191  -25.3498  -15.0121 O   0  0  0  0  0  0  0  0  0  0  0  0
   25.2166  -20.7668  -13.3682 C   0  0  0  0  0  0  0  0  0  0  0  0
   25.8820  -19.7169  -13.2981 O   0  0  0  0  0  0  0  0  0  0  0  0
   24.1013  -24.1521  -16.5701 O   0  0  0  0  0  0  0  0  0  0  0  0
   20.5618  -20.3175  -10.7112 C   0  0  0  0  0  0  0  0  0  0  0  0
   21.9214  -20.3119  -11.4305 C   0  0  1  0  0  0  0  0  0  0  0  0
   22.1005  -18.8028  -11.7949 C   0  0  0  0  0  0  0  0  0  0  0  0
   22.9470  -20.5751  -10.3915 C   0  0  0  0  0  0  0  0  0  0  0  0
   24.3544  -20.6327  -10.9747 C   0  0  2  0  0  0  0  0  0  0  0  0
   24.4542  -21.1924  -12.2773 N   0  0  0  0  0  0  0  0  0  0  0  0
   25.3857  -20.9753  -10.0187 C   0  0  0  0  0  0  0  0  0  0  0  0
   25.5730  -22.1903   -9.7152 O   0  0  0  0  0  0  0  0  0  0  0  0
   30.4851  -20.9675  -10.2399 C   0  0  0  0  0  0  0  0  0  0  0  0
   29.0271  -21.1777   -9.8792 C   0  0  0  0  0  0  0  0  0  0  0  0
   28.6313  -20.3437   -8.6649 C   0  0  2  0  0  0  0  0  0  0  0  0
   29.5595  -20.5560   -7.5092 C   0  0  0  0  0  0  0  0  0  0  0  0
   27.1937  -20.4197   -8.3516 C   0  0  2  0  0  0  0  0  0  0  0  0
   26.2480  -20.0885   -9.3523 N   0  0  0  0  0  0  0  0  0  0  0  0
   26.9306  -19.5280   -7.1766 C   0  0  0  0  0  0  0  0  0  0  0  0
   26.2839  -18.4463   -7.2877 O   0  0  0  0  0  0  0  0  0  0  0  0
   27.3808  -19.8355   -5.8960 O   0  0  0  0  0  0  0  0  0  0  0  0
  2  3  1  0
  2  1  1  6
  4  3  1  0
  5  4  1  0
  6  5  2  0
  7  8  2  0
  7  2  1  0
  9  5  1  0
 11 10  1  1
 11 12  1  0
 14 13  1  1
 13 11  1  0
 14 15  1  0
 15  7  1  0
 16 14  1  0
 17 16  2  0
 18 19  1  0
 19 20  1  0
 20 21  1  1
 22 20  1  0
 22 23  1  6
 23 16  1  0
 24 26  1  0
 24 22  1  0
 25 24  2  0
M  END
$$$$
