ELI.pdb
     RDKit          3D

 26 25  0  0  1  0  0  0  0  0999 V2000
   23.0300  -15.0253  -18.5639 N   0  0  0  0  0  0  0  0  0  0  0  0
   23.3809  -13.7196  -19.0223 C   0  0  1  0  0  0  0  0  0  0  0  0
   22.6310  -13.3722  -20.2624 C   0  0  0  0  0  0  0  0  0  0  0  0
   21.1695  -13.6524  -20.2429 C   0  0  0  0  0  0  0  0  0  0  0  0
   20.4577  -13.3875  -21.4973 C   0  0  0  0  0  0  0  0  0  0  0  0
   20.5575  -14.2023  -22.4453 O   0  0  0  0  0  0  0  0  0  0  0  0
   23.2614  -12.6852  -17.9621 C   0  0  0  0  0  0  0  0  0  0  0  0
   22.3011  -12.7277  -17.1709 O   0  0  0  0  0  0  0  0  0  0  0  0
   19.6624  -12.2636  -21.7021 O   0  0  0  0  0  0  0  0  0  0  0  0
   28.0545  -10.0910  -16.7059 C   0  0  0  0  0  0  0  0  0  0  0  0
   26.7481  -10.9017  -16.7526 C   0  0  1  0  0  0  0  0  0  0  0  0
   26.6726  -11.4972  -15.3098 C   0  0  0  0  0  0  0  0  0  0  0  0
   25.6431   -9.9138  -16.8131 C   0  0  0  0  0  0  0  0  0  0  0  0
   24.2799  -10.5836  -16.9444 C   0  0  2  0  0  0  0  0  0  0  0  0
   24.2192  -11.6736  -17.8545 N   0  0  0  0  0  0  0  0  0  0  0  0
   23.1582   -9.6693  -16.9200 C   0  0  0  0  0  0  0  0  0  0  0  0
   22.7459   -9.1623  -18.0046 O   0  0  0  0  0  0  0  0  0  0  0  0
   17.4655   -8.7146  -15.7241 C   0  0  0  0  0  0  0  0  0  0  0  0
   18.8150   -8.0225  -15.7297 C   0  0  0  0  0  0  0  0  0  0  0  0
   19.9547   -9.0305  -15.6218 C   0  0  2  0  0  0  0  0  0  0  0  0
   19.7941   -9.9377  -14.4413 C   0  0  0  0  0  0  0  0  0  0  0  0
   21.2864   -8.4209  -15.7822 C   0  0  2  0  0  0  0  0  0  0  0  0
   22.4325   -9.2525  -15.7914 N   0  0  0  0  0  0  0  0  0  0  0  0
   21.4702   -7.4200  -14.6825 C   0  0  0  0  0  0  0  0  0  0  0  0
   20.6726   -6.4519  -14.5173 O   0  0  0  0  0  0  0  0  0  0  0  0
   22.5265   -7.4951  -13.7793 O   0  0  0  0  0  0  0  0  0  0  0  0
  2  3  1  0
  2  1  1  1
  4  3  1  0
  5  4  1  0
  6  5  2  0
  7  8  2  0
  7  2  1  0
  9  5  1  0
 11 10  1  1
 11 12  1  0
 14 13  1  6
 13 11  1  0
 14 15  1  0
 15  7  1  0
 16 14  1  0
 17 16  2  0
 18 19  1  0
 19 20  1  0
 20 21  1  1
 22 20  1  0
 22 23  1  1
 23 16  1  0
 24 26  1  0
 24 22  1  0
 25 24  2  0
M  END
$$$$
