ELI.pdb
     RDKit          3D

 26 25  0  0  1  0  0  0  0  0999 V2000
   22.3229  -21.3062  -15.0758 N   0  0  0  0  0  0  0  0  0  0  0  0
   21.8471  -20.4744  -14.0175 C   0  0  1  0  0  0  0  0  0  0  0  0
   20.5557  -19.8295  -14.3878 C   0  0  0  0  0  0  0  0  0  0  0  0
   20.5711  -18.9952  -15.6202 C   0  0  0  0  0  0  0  0  0  0  0  0
   21.4811  -17.8456  -15.5946 C   0  0  0  0  0  0  0  0  0  0  0  0
   22.5383  -17.8828  -16.2680 O   0  0  0  0  0  0  0  0  0  0  0  0
   21.7903  -21.1802  -12.7110 C   0  0  0  0  0  0  0  0  0  0  0  0
   21.2487  -22.2991  -12.6427 O   0  0  0  0  0  0  0  0  0  0  0  0
   21.2363  -16.6934  -14.8532 O   0  0  0  0  0  0  0  0  0  0  0  0
   25.6784  -19.6700   -9.0244 C   0  0  0  0  0  0  0  0  0  0  0  0
   24.7182  -20.3469  -10.0172 C   0  0  1  0  0  0  0  0  0  0  0  0
   25.2735  -21.8063  -10.0771 C   0  0  0  0  0  0  0  0  0  0  0  0
   23.4126  -20.4665   -9.3231 C   0  0  0  0  0  0  0  0  0  0  0  0
   22.3339  -21.0555  -10.2253 C   0  0  2  0  0  0  0  0  0  0  0  0
   22.3404  -20.5924  -11.5689 N   0  0  0  0  0  0  0  0  0  0  0  0
   21.0480  -21.2323   -9.5850 C   0  0  0  0  0  0  0  0  0  0  0  0
   20.1832  -20.3106   -9.6623 O   0  0  0  0  0  0  0  0  0  0  0  0
   16.1361  -24.4863   -9.4831 C   0  0  0  0  0  0  0  0  0  0  0  0
   17.0549  -23.7096   -8.5597 C   0  0  0  0  0  0  0  0  0  0  0  0
   18.4197  -23.4803   -9.2012 C   0  0  2  0  0  0  0  0  0  0  0  0
   19.0365  -24.7565   -9.6840 C   0  0  0  0  0  0  0  0  0  0  0  0
   19.2983  -22.6089   -8.4016 C   0  0  2  0  0  0  0  0  0  0  0  0
   20.6154  -22.3510   -8.8532 N   0  0  0  0  0  0  0  0  0  0  0  0
   19.4049  -23.1980   -7.0282 C   0  0  0  0  0  0  0  0  0  0  0  0
   20.5134  -23.5639   -6.5400 O   0  0  0  0  0  0  0  0  0  0  0  0
   18.2939  -23.3778   -6.2092 O   0  0  0  0  0  0  0  0  0  0  0  0
  2  3  1  0
  2  1  1  6
  4  3  1  0
  5  4  1  0
  6  5  2  0
  7  8  2  0
  7  2  1  0
  9  5  1  0
 11 10  1  1
 11 12  1  0
 14 13  1  1
 13 11  1  0
 14 15  1  0
 15  7  1  0
 16 14  1  0
 17 16  2  0
 18 19  1  0
 19 20  1  0
 20 21  1  1
 22 20  1  0
 22 23  1  6
 23 16  1  0
 24 26  1  0
 24 22  1  0
 25 24  2  0
M  END
$$$$
