ELI.pdb
     RDKit          3D

 26 25  0  0  1  0  0  0  0  0999 V2000
   24.2123  -19.2046  -18.0911 N   0  0  0  0  0  0  0  0  0  0  0  0
   23.3685  -19.8089  -17.1109 C   0  0  1  0  0  0  0  0  0  0  0  0
   22.4963  -20.8479  -17.7278 C   0  0  0  0  0  0  0  0  0  0  0  0
   21.8331  -20.4703  -19.0056 C   0  0  0  0  0  0  0  0  0  0  0  0
   21.1289  -19.1841  -18.9969 C   0  0  0  0  0  0  0  0  0  0  0  0
   20.6129  -18.7723  -17.9307 O   0  0  0  0  0  0  0  0  0  0  0  0
   24.1216  -20.3084  -15.9312 C   0  0  0  0  0  0  0  0  0  0  0  0
   23.6015  -21.1628  -15.1899 O   0  0  0  0  0  0  0  0  0  0  0  0
   20.9967  -18.3775  -20.1236 O   0  0  0  0  0  0  0  0  0  0  0  0
   29.6540  -19.8611  -16.2766 C   0  0  0  0  0  0  0  0  0  0  0  0
   28.2051  -20.3485  -16.1065 C   0  0  1  0  0  0  0  0  0  0  0  0
   28.3925  -21.8847  -15.8896 C   0  0  0  0  0  0  0  0  0  0  0  0
   27.7406  -19.8345  -14.7948 C   0  0  0  0  0  0  0  0  0  0  0  0
   26.2599  -20.1117  -14.5605 C   0  0  2  0  0  0  0  0  0  0  0  0
   25.4027  -19.8228  -15.6567 N   0  0  0  0  0  0  0  0  0  0  0  0
   25.7888  -19.7708  -13.2351 C   0  0  0  0  0  0  0  0  0  0  0  0
   25.9085  -18.5805  -12.8200 O   0  0  0  0  0  0  0  0  0  0  0  0
   21.1824  -21.8479  -10.6827 C   0  0  0  0  0  0  0  0  0  0  0  0
   22.6893  -21.8075  -10.8482 C   0  0  0  0  0  0  0  0  0  0  0  0
   23.2134  -20.3758  -10.8013 C   0  0  2  0  0  0  0  0  0  0  0  0
   22.3631  -19.4385  -11.6019 C   0  0  0  0  0  0  0  0  0  0  0  0
   24.6647  -20.2804  -11.0366 C   0  0  2  0  0  0  0  0  0  0  0  0
   25.1857  -20.6340  -12.3049 N   0  0  0  0  0  0  0  0  0  0  0  0
   25.3536  -21.1353  -10.0171 C   0  0  0  0  0  0  0  0  0  0  0  0
   26.0836  -22.1147  -10.3468 O   0  0  0  0  0  0  0  0  0  0  0  0
   25.2321  -20.9039   -8.6500 O   0  0  0  0  0  0  0  0  0  0  0  0
  2  3  1  0
  2  1  1  6
  4  3  1  0
  5  4  1  0
  6  5  2  0
  7  8  2  0
  7  2  1  0
  9  5  1  0
 11 10  1  1
 11 12  1  0
 14 13  1  6
 13 11  1  0
 14 15  1  0
 15  7  1  0
 16 14  1  0
 17 16  2  0
 18 19  1  0
 19 20  1  0
 20 21  1  6
 22 20  1  0
 22 23  1  6
 23 16  1  0
 24 26  1  0
 24 22  1  0
 25 24  2  0
M  END
$$$$
