ELI.pdb
     RDKit          3D

 26 25  0  0  1  0  0  0  0  0999 V2000
   25.7012  -23.2939  -18.4678 N   0  0  0  0  0  0  0  0  0  0  0  0
   25.6965  -22.0552  -17.7582 C   0  0  1  0  0  0  0  0  0  0  0  0
   24.5006  -21.2416  -18.1169 C   0  0  0  0  0  0  0  0  0  0  0  0
   24.4640  -20.7102  -19.5065 C   0  0  0  0  0  0  0  0  0  0  0  0
   23.2970  -19.8866  -19.8385 C   0  0  0  0  0  0  0  0  0  0  0  0
   23.4179  -18.6393  -19.8867 O   0  0  0  0  0  0  0  0  0  0  0  0
   25.8614  -22.2304  -16.2918 C   0  0  0  0  0  0  0  0  0  0  0  0
   25.2843  -23.1735  -15.7194 O   0  0  0  0  0  0  0  0  0  0  0  0
   22.0389  -20.4172  -20.1085 O   0  0  0  0  0  0  0  0  0  0  0  0
   28.3921  -21.6634  -11.6797 C   0  0  0  0  0  0  0  0  0  0  0  0
   27.9297  -20.2790  -12.1651 C   0  0  1  0  0  0  0  0  0  0  0  0
   29.1625  -19.3787  -11.8307 C   0  0  0  0  0  0  0  0  0  0  0  0
   27.8980  -20.3428  -13.6468 C   0  0  0  0  0  0  0  0  0  0  0  0
   26.6733  -21.0893  -14.1638 C   0  0  2  0  0  0  0  0  0  0  0  0
   26.6575  -21.3440  -15.5620 N   0  0  0  0  0  0  0  0  0  0  0  0
   25.4265  -20.6991  -13.5409 C   0  0  0  0  0  0  0  0  0  0  0  0
   25.3864  -20.5224  -12.2876 O   0  0  0  0  0  0  0  0  0  0  0  0
   22.1002  -17.6190  -16.2850 C   0  0  0  0  0  0  0  0  0  0  0  0
   22.6734  -17.9552  -14.9218 C   0  0  0  0  0  0  0  0  0  0  0  0
   22.0470  -19.2257  -14.3558 C   0  0  2  0  0  0  0  0  0  0  0  0
   20.7259  -18.9595  -13.7029 C   0  0  0  0  0  0  0  0  0  0  0  0
   22.9928  -20.0412  -13.5741 C   0  0  2  0  0  0  0  0  0  0  0  0
   24.1948  -20.4802  -14.1805 N   0  0  0  0  0  0  0  0  0  0  0  0
   22.2640  -21.2594  -13.0952 C   0  0  0  0  0  0  0  0  0  0  0  0
   22.3317  -22.3648  -13.7071 O   0  0  0  0  0  0  0  0  0  0  0  0
   21.4709  -21.2482  -11.9514 O   0  0  0  0  0  0  0  0  0  0  0  0
  2  3  1  0
  2  1  1  6
  4  3  1  0
  5  4  1  0
  6  5  2  0
  7  8  2  0
  7  2  1  0
  9  5  1  0
 11 10  1  1
 11 12  1  0
 14 13  1  6
 13 11  1  0
 14 15  1  0
 15  7  1  0
 16 14  1  0
 17 16  2  0
 18 19  1  0
 19 20  1  0
 20 21  1  1
 22 20  1  0
 22 23  1  6
 23 16  1  0
 24 26  1  0
 24 22  1  0
 25 24  2  0
M  END
$$$$
