ELI.pdb
     RDKit          3D

 26 25  0  0  1  0  0  0  0  0999 V2000
   22.0986  -22.2596  -14.0887 N   0  0  0  0  0  0  0  0  0  0  0  0
   21.8759  -20.8785  -13.8037 C   0  0  1  0  0  0  0  0  0  0  0  0
   20.6916  -20.7030  -12.9163 C   0  0  0  0  0  0  0  0  0  0  0  0
   19.8008  -21.8866  -12.7730 C   0  0  0  0  0  0  0  0  0  0  0  0
   18.3897  -21.6597  -13.1010 C   0  0  0  0  0  0  0  0  0  0  0  0
   17.9037  -22.1904  -14.1280 O   0  0  0  0  0  0  0  0  0  0  0  0
   23.0911  -20.1922  -13.2931 C   0  0  0  0  0  0  0  0  0  0  0  0
   23.0666  -18.9613  -13.1080 O   0  0  0  0  0  0  0  0  0  0  0  0
   17.5411  -20.8753  -12.3250 O   0  0  0  0  0  0  0  0  0  0  0  0
   25.7074  -21.8123   -9.0441 C   0  0  0  0  0  0  0  0  0  0  0  0
   25.0625  -21.0823  -10.2346 C   0  0  1  0  0  0  0  0  0  0  0  0
   25.0237  -19.6014   -9.7373 C   0  0  0  0  0  0  0  0  0  0  0  0
   26.0675  -21.0894  -11.3256 C   0  0  0  0  0  0  0  0  0  0  0  0
   25.5295  -20.4619  -12.6067 C   0  0  2  0  0  0  0  0  0  0  0  0
   24.2512  -20.9227  -13.0234 N   0  0  0  0  0  0  0  0  0  0  0  0
   26.5278  -20.2419  -13.6313 C   0  0  0  0  0  0  0  0  0  0  0  0
   27.6713  -19.8088  -13.3022 O   0  0  0  0  0  0  0  0  0  0  0  0
   28.5512  -23.6454  -16.3820 C   0  0  0  0  0  0  0  0  0  0  0  0
   28.6051  -22.2612  -15.7647 C   0  0  0  0  0  0  0  0  0  0  0  0
   28.0428  -21.2089  -16.7150 C   0  0  2  0  0  0  0  0  0  0  0  0
   29.0536  -20.7673  -17.7279 C   0  0  0  0  0  0  0  0  0  0  0  0
   27.3186  -20.1286  -16.0227 C   0  0  2  0  0  0  0  0  0  0  0  0
   26.3832  -20.4584  -15.0120 N   0  0  0  0  0  0  0  0  0  0  0  0
   26.5925  -19.3242  -17.0573 C   0  0  0  0  0  0  0  0  0  0  0  0
   25.3293  -19.2626  -17.0934 O   0  0  0  0  0  0  0  0  0  0  0  0
   27.2623  -18.5984  -18.0380 O   0  0  0  0  0  0  0  0  0  0  0  0
  2  3  1  0
  2  1  1  1
  4  3  1  0
  5  4  1  0
  6  5  2  0
  7  8  2  0
  7  2  1  0
  9  5  1  0
 11 10  1  1
 11 12  1  0
 14 13  1  1
 13 11  1  0
 14 15  1  0
 15  7  1  0
 16 14  1  0
 17 16  2  0
 18 19  1  0
 19 20  1  0
 20 21  1  1
 22 20  1  0
 22 23  1  1
 23 16  1  0
 24 26  1  0
 24 22  1  0
 25 24  2  0
M  END
$$$$
