QSI.pdb
     RDKit          3D

 24 23  0  0  1  0  0  0  0  0999 V2000
   16.9422  -15.4937  -14.7282 N   0  0  0  0  0  0  0  0  0  0  0  0
   15.7043  -15.3513  -15.4570 C   0  0  0  0  0  0  0  0  0  0  0  0
   14.8049  -16.1720  -15.1895 O   0  0  0  0  0  0  0  0  0  0  0  0
   15.5555  -14.2915  -16.4493 C   0  0  0  0  0  0  0  0  0  0  0  0
   16.7180  -13.3566  -16.5779 C   0  0  0  0  0  0  0  0  0  0  0  0
   17.3470  -13.4023  -17.9269 C   0  0  2  0  0  0  0  0  0  0  0  0
   17.8722  -14.6714  -18.3406 N   0  0  0  0  0  0  0  0  0  0  0  0
   18.4725  -12.4142  -17.9750 C   0  0  0  0  0  0  0  0  0  0  0  0
   19.6198  -12.7876  -17.6611 O   0  0  0  0  0  0  0  0  0  0  0  0
   18.6937   -9.1701  -20.5946 O   0  0  0  0  0  0  0  0  0  0  0  0
   18.6429   -8.9140  -19.2289 C   0  0  0  0  0  0  0  0  0  0  0  0
   19.2700  -10.0706  -18.4402 C   0  0  2  0  0  0  0  0  0  0  0  0
   18.2315  -11.0939  -18.3676 N   0  0  0  0  0  0  0  0  0  0  0  0
   19.4885   -9.5598  -17.0695 C   0  0  0  0  0  0  0  0  0  0  0  0
   18.5372   -9.5325  -16.2344 O   0  0  0  0  0  0  0  0  0  0  0  0
   23.4152  -11.2773  -14.2420 C   0  0  0  0  0  0  0  0  0  0  0  0
   22.1332  -10.6816  -14.7878 C   0  0  0  0  0  0  0  0  0  0  0  0
   22.1755   -9.1814  -14.6238 C   0  0  2  0  0  0  0  0  0  0  0  0
   22.3584   -8.7770  -13.1828 C   0  0  0  0  0  0  0  0  0  0  0  0
   20.9264   -8.5728  -15.2259 C   0  0  2  0  0  0  0  0  0  0  0  0
   20.7235   -9.0785  -16.5920 N   0  0  0  0  0  0  0  0  0  0  0  0
   20.9956   -7.0961  -15.3368 C   0  0  0  0  0  0  0  0  0  0  0  0
   21.3614   -6.4217  -16.4890 O   0  0  0  0  0  0  0  0  0  0  0  0
   20.7153   -6.3362  -14.3514 O   0  0  0  0  0  0  0  0  0  0  0  0
  1  2  1  0
  2  4  1  0
  2  3  2  0
  4  5  1  0
  6  5  1  0
  6  7  1  1
  8  9  2  0
  8  6  1  0
 10 11  1  0
 12 11  1  6
 12 13  1  0
 13  8  1  0
 14 12  1  0
 14 21  1  0
 15 14  2  0
 17 16  1  0
 18 17  1  0
 18 19  1  1
 20 21  1  6
 20 18  1  0
 22 20  1  0
 23 22  1  0
 24 22  2  0
M  END
$$$$
