QSI.pdb
     RDKit          3D

 24 23  0  0  1  0  0  0  0  0999 V2000
   17.5652  -14.4313  -16.0863 N   0  0  0  0  0  0  0  0  0  0  0  0
   16.2111  -14.4531  -16.5860 C   0  0  0  0  0  0  0  0  0  0  0  0
   15.5680  -15.5050  -16.4017 O   0  0  0  0  0  0  0  0  0  0  0  0
   15.6628  -13.2856  -17.2690 C   0  0  0  0  0  0  0  0  0  0  0  0
   16.5696  -12.0969  -17.3493 C   0  0  0  0  0  0  0  0  0  0  0  0
   16.5669  -11.2854  -16.1006 C   0  0  2  0  0  0  0  0  0  0  0  0
   15.2835  -10.8587  -15.6228 N   0  0  0  0  0  0  0  0  0  0  0  0
   17.3968  -10.0563  -16.3148 C   0  0  0  0  0  0  0  0  0  0  0  0
   18.4469  -10.1434  -16.9810 O   0  0  0  0  0  0  0  0  0  0  0  0
   16.1627   -6.6794  -14.3721 O   0  0  0  0  0  0  0  0  0  0  0  0
   16.7190   -6.4730  -15.6295 C   0  0  0  0  0  0  0  0  0  0  0  0
   17.7232   -7.5835  -15.9632 C   0  0  2  0  0  0  0  0  0  0  0  0
   16.9924   -8.8326  -15.7722 N   0  0  0  0  0  0  0  0  0  0  0  0
   18.7695   -7.5158  -14.9201 C   0  0  0  0  0  0  0  0  0  0  0  0
   18.5728   -8.0261  -13.7782 O   0  0  0  0  0  0  0  0  0  0  0  0
   23.9507   -9.5555  -13.7992 C   0  0  0  0  0  0  0  0  0  0  0  0
   23.1425   -8.3084  -13.5031 C   0  0  0  0  0  0  0  0  0  0  0  0
   21.9961   -8.2177  -14.4815 C   0  0  2  0  0  0  0  0  0  0  0  0
   22.4768   -8.1703  -15.9099 C   0  0  0  0  0  0  0  0  0  0  0  0
   21.1326   -7.0223  -14.1372 C   0  0  2  0  0  0  0  0  0  0  0  0
   20.0255   -6.9027  -15.0980 N   0  0  0  0  0  0  0  0  0  0  0  0
   21.8704   -5.7378  -14.1933 C   0  0  0  0  0  0  0  0  0  0  0  0
   21.7623   -4.8264  -15.2296 O   0  0  0  0  0  0  0  0  0  0  0  0
   22.6717   -5.3841  -13.2660 O   0  0  0  0  0  0  0  0  0  0  0  0
  1  2  1  0
  2  4  1  0
  2  3  2  0
  4  5  1  0
  6  5  1  0
  6  7  1  6
  8  9  2  0
  8  6  1  0
 10 11  1  0
 12 11  1  1
 12 13  1  0
 13  8  1  0
 14 12  1  0
 14 21  1  0
 15 14  2  0
 17 16  1  0
 18 17  1  0
 18 19  1  6
 20 21  1  6
 20 18  1  0
 22 20  1  0
 23 22  1  0
 24 22  2  0
M  END
$$$$
