QSI.pdb
     RDKit          3D

 24 23  0  0  1  0  0  0  0  0999 V2000
   22.8783  -34.6565   -3.5817 N   0  0  0  0  0  0  0  0  0  0  0  0
   23.5214  -34.2974   -4.8231 C   0  0  0  0  0  0  0  0  0  0  0  0
   23.7247  -35.2241   -5.6316 O   0  0  0  0  0  0  0  0  0  0  0  0
   23.9014  -32.9113   -5.0777 C   0  0  0  0  0  0  0  0  0  0  0  0
   23.4927  -31.9244   -4.0285 C   0  0  0  0  0  0  0  0  0  0  0  0
   22.0753  -31.4896   -4.1681 C   0  0  2  0  0  0  0  0  0  0  0  0
   21.7471  -30.7665   -5.3628 N   0  0  0  0  0  0  0  0  0  0  0  0
   21.7144  -30.6185   -3.0035 C   0  0  0  0  0  0  0  0  0  0  0  0
   21.8943  -31.0483   -1.8473 O   0  0  0  0  0  0  0  0  0  0  0  0
   19.2164  -27.0636   -3.3606 O   0  0  0  0  0  0  0  0  0  0  0  0
   20.4951  -27.1007   -2.8158 C   0  0  0  0  0  0  0  0  0  0  0  0
   20.7549  -28.4544   -2.1427 C   0  0  2  0  0  0  0  0  0  0  0  0
   21.1841  -29.3426   -3.2187 N   0  0  0  0  0  0  0  0  0  0  0  0
   19.4389  -28.9341   -1.6676 C   0  0  0  0  0  0  0  0  0  0  0  0
   18.6782  -29.5914   -2.4371 O   0  0  0  0  0  0  0  0  0  0  0  0
   16.7982  -31.7562    2.8368 C   0  0  0  0  0  0  0  0  0  0  0  0
   16.5659  -30.8296    1.6604 C   0  0  0  0  0  0  0  0  0  0  0  0
   17.8887  -30.2535    1.2156 C   0  0  2  0  0  0  0  0  0  0  0  0
   18.6575  -29.6539    2.3658 C   0  0  0  0  0  0  0  0  0  0  0  0
   17.6537  -29.2469    0.1089 C   0  0  2  0  0  0  0  0  0  0  0  0
   18.9368  -28.7110   -0.3702 N   0  0  0  0  0  0  0  0  0  0  0  0
   16.8543  -28.0781    0.5473 C   0  0  0  0  0  0  0  0  0  0  0  0
   15.4838  -28.1047    0.7400 O   0  0  0  0  0  0  0  0  0  0  0  0
   17.3943  -26.9461    0.7800 O   0  0  0  0  0  0  0  0  0  0  0  0
  1  2  1  0
  2  4  1  0
  2  3  2  0
  4  5  1  0
  6  5  1  0
  6  7  1  6
  8  9  2  0
  8  6  1  0
 10 11  1  0
 12 11  1  6
 12 13  1  0
 13  8  1  0
 14 12  1  0
 14 21  1  0
 15 14  2  0
 17 16  1  0
 18 17  1  0
 18 19  1  1
 20 21  1  1
 20 18  1  0
 22 20  1  0
 23 22  1  0
 24 22  2  0
M  END
$$$$
