QSI.pdb
     RDKit          3D

 24 23  0  0  1  0  0  0  0  0999 V2000
   21.6794  -21.9983  -14.8137 N   0  0  0  0  0  0  0  0  0  0  0  0
   20.6028  -21.3110  -14.1412 C   0  0  0  0  0  0  0  0  0  0  0  0
   19.6468  -20.9456  -14.8529 O   0  0  0  0  0  0  0  0  0  0  0  0
   20.6706  -21.0725  -12.7028 C   0  0  0  0  0  0  0  0  0  0  0  0
   21.9197  -21.5452  -12.0260 C   0  0  0  0  0  0  0  0  0  0  0  0
   22.8584  -20.4337  -11.7085 C   0  0  2  0  0  0  0  0  0  0  0  0
   23.5839  -19.8790  -12.8147 N   0  0  0  0  0  0  0  0  0  0  0  0
   23.8651  -20.9148  -10.7082 C   0  0  0  0  0  0  0  0  0  0  0  0
   23.4654  -21.4706   -9.6664 O   0  0  0  0  0  0  0  0  0  0  0  0
   27.6923  -19.7908  -11.3107 O   0  0  0  0  0  0  0  0  0  0  0  0
   27.5811  -21.1143  -10.8994 C   0  0  0  0  0  0  0  0  0  0  0  0
   26.2786  -21.3279  -10.1177 C   0  0  2  0  0  0  0  0  0  0  0  0
   25.2316  -20.7394  -10.9473 N   0  0  0  0  0  0  0  0  0  0  0  0
   26.3950  -20.5029   -8.8958 C   0  0  0  0  0  0  0  0  0  0  0  0
   25.8535  -19.3599   -8.8378 O   0  0  0  0  0  0  0  0  0  0  0  0
   28.8548  -20.6455   -3.1591 C   0  0  0  0  0  0  0  0  0  0  0  0
   27.9567  -19.9826   -4.1840 C   0  0  0  0  0  0  0  0  0  0  0  0
   27.9540  -20.8089   -5.4476 C   0  0  2  0  0  0  0  0  0  0  0  0
   29.3472  -21.2095   -5.8620 C   0  0  0  0  0  0  0  0  0  0  0  0
   27.2356  -20.0508   -6.5443 C   0  0  2  0  0  0  0  0  0  0  0  0
   27.0901  -20.8998   -7.7363 N   0  0  0  0  0  0  0  0  0  0  0  0
   27.9654  -18.8384   -6.9857 C   0  0  0  0  0  0  0  0  0  0  0  0
   27.8478  -17.5993   -6.3798 O   0  0  0  0  0  0  0  0  0  0  0  0
   28.7674  -18.8627   -7.9773 O   0  0  0  0  0  0  0  0  0  0  0  0
  1  2  1  0
  2  4  1  0
  2  3  2  0
  4  5  1  0
  6  5  1  0
  6  7  1  6
  8  9  2  0
  8  6  1  0
 10 11  1  0
 12 11  1  6
 12 13  1  0
 13  8  1  0
 14 12  1  0
 14 21  1  0
 15 14  2  0
 17 16  1  0
 18 17  1  0
 18 19  1  6
 20 21  1  6
 20 18  1  0
 22 20  1  0
 23 22  1  0
 24 22  2  0
M  END
$$$$
