QSI.pdb
     RDKit          3D

 24 23  0  0  1  0  0  0  0  0999 V2000
   15.1034  -17.6278  -17.9922 N   0  0  0  0  0  0  0  0  0  0  0  0
   14.5735  -16.2870  -18.0652 C   0  0  0  0  0  0  0  0  0  0  0  0
   13.3761  -16.1803  -18.3948 O   0  0  0  0  0  0  0  0  0  0  0  0
   15.4291  -15.1433  -17.7651 C   0  0  0  0  0  0  0  0  0  0  0  0
   16.8475  -15.4699  -17.4136 C   0  0  0  0  0  0  0  0  0  0  0  0
   17.3641  -14.6490  -16.2837 C   0  0  2  0  0  0  0  0  0  0  0  0
   16.4359  -14.3660  -15.2273 N   0  0  0  0  0  0  0  0  0  0  0  0
   17.8511  -13.3358  -16.8163 C   0  0  0  0  0  0  0  0  0  0  0  0
   18.6403  -13.3290  -17.7812 O   0  0  0  0  0  0  0  0  0  0  0  0
   15.8018  -10.2007  -15.5780 O   0  0  0  0  0  0  0  0  0  0  0  0
   16.5550   -9.9780  -16.7253 C   0  0  0  0  0  0  0  0  0  0  0  0
   17.8372  -10.8196  -16.6997 C   0  0  2  0  0  0  0  0  0  0  0  0
   17.4216  -12.1392  -16.2340 N   0  0  0  0  0  0  0  0  0  0  0  0
   18.6947  -10.2268  -15.6506 C   0  0  0  0  0  0  0  0  0  0  0  0
   18.4668  -10.4589  -14.4270 O   0  0  0  0  0  0  0  0  0  0  0  0
   23.5536  -11.2503  -14.8347 C   0  0  0  0  0  0  0  0  0  0  0  0
   22.1154  -10.7803  -14.7515 C   0  0  0  0  0  0  0  0  0  0  0  0
   22.0661   -9.2919  -15.0000 C   0  0  2  0  0  0  0  0  0  0  0  0
   23.0111   -8.5385  -14.0986 C   0  0  0  0  0  0  0  0  0  0  0  0
   20.6399   -8.8036  -14.8560 C   0  0  2  0  0  0  0  0  0  0  0  0
   19.7953   -9.3863  -15.9097 N   0  0  0  0  0  0  0  0  0  0  0  0
   20.5136   -7.3327  -14.9901 C   0  0  0  0  0  0  0  0  0  0  0  0
   20.1388   -6.6900  -16.1575 O   0  0  0  0  0  0  0  0  0  0  0  0
   20.7491   -6.5480  -14.0124 O   0  0  0  0  0  0  0  0  0  0  0  0
  1  2  1  0
  2  4  1  0
  2  3  2  0
  4  5  1  0
  6  5  1  0
  6  7  1  1
  8  9  2  0
  8  6  1  0
 10 11  1  0
 12 11  1  1
 12 13  1  0
 13  8  1  0
 14 12  1  0
 14 21  1  0
 15 14  2  0
 17 16  1  0
 18 17  1  0
 18 19  1  1
 20 21  1  6
 20 18  1  0
 22 20  1  0
 23 22  1  0
 24 22  2  0
M  END
$$$$
