QSI.pdb
     RDKit          3D

 24 23  0  0  1  0  0  0  0  0999 V2000
   17.3453  -26.4011   -3.5991 N   0  0  0  0  0  0  0  0  0  0  0  0
   16.7986  -26.3112   -4.9321 C   0  0  0  0  0  0  0  0  0  0  0  0
   17.2457  -27.1174   -5.7712 O   0  0  0  0  0  0  0  0  0  0  0  0
   15.7804  -25.3123   -5.2409 C   0  0  0  0  0  0  0  0  0  0  0  0
   15.2756  -24.5198   -4.0751 C   0  0  0  0  0  0  0  0  0  0  0  0
   14.0962  -23.6780   -4.4186 C   0  0  2  0  0  0  0  0  0  0  0  0
   14.1334  -23.0220   -5.6938 N   0  0  0  0  0  0  0  0  0  0  0  0
   13.9320  -22.6170   -3.3733 C   0  0  0  0  0  0  0  0  0  0  0  0
   14.0520  -21.4203   -3.7013 O   0  0  0  0  0  0  0  0  0  0  0  0
   11.9702  -23.8248   -0.2751 O   0  0  0  0  0  0  0  0  0  0  0  0
   12.0218  -22.4406   -0.3969 C   0  0  0  0  0  0  0  0  0  0  0  0
   13.3635  -22.0024   -0.9976 C   0  0  2  0  0  0  0  0  0  0  0  0
   13.6482  -22.9721   -2.0509 N   0  0  0  0  0  0  0  0  0  0  0  0
   14.3709  -22.1940    0.0681 C   0  0  0  0  0  0  0  0  0  0  0  0
   15.0706  -23.2484    0.1093 O   0  0  0  0  0  0  0  0  0  0  0  0
   17.0636  -17.9772    2.4611 C   0  0  0  0  0  0  0  0  0  0  0  0
   16.7767  -19.3294    1.8402 C   0  0  0  0  0  0  0  0  0  0  0  0
   15.9773  -20.1614    2.8139 C   0  0  2  0  0  0  0  0  0  0  0  0
   16.7090  -20.3623    4.1168 C   0  0  0  0  0  0  0  0  0  0  0  0
   15.6074  -21.4793    2.1660 C   0  0  2  0  0  0  0  0  0  0  0  0
   14.6300  -21.2587    1.0894 N   0  0  0  0  0  0  0  0  0  0  0  0
   14.9765  -22.4330    3.1093 C   0  0  0  0  0  0  0  0  0  0  0  0
   15.6266  -23.5249    3.6583 O   0  0  0  0  0  0  0  0  0  0  0  0
   13.7637  -22.3029    3.4828 O   0  0  0  0  0  0  0  0  0  0  0  0
  1  2  1  0
  2  4  1  0
  2  3  2  0
  4  5  1  0
  6  5  1  0
  6  7  1  6
  8  9  2  0
  8  6  1  0
 10 11  1  0
 12 11  1  1
 12 13  1  0
 13  8  1  0
 14 12  1  0
 14 21  1  0
 15 14  2  0
 17 16  1  0
 18 17  1  0
 18 19  1  1
 20 21  1  6
 20 18  1  0
 22 20  1  0
 23 22  1  0
 24 22  2  0
M  END
$$$$
