QSI.pdb
     RDKit          3D

 24 23  0  0  1  0  0  0  0  0999 V2000
   20.7740  -19.8698  -19.4921 N   0  0  0  0  0  0  0  0  0  0  0  0
   22.1998  -19.8185  -19.2722 C   0  0  0  0  0  0  0  0  0  0  0  0
   22.9163  -20.3340  -20.1523 O   0  0  0  0  0  0  0  0  0  0  0  0
   22.7336  -19.1907  -18.0676 C   0  0  0  0  0  0  0  0  0  0  0  0
   23.0180  -20.1169  -16.9260 C   0  0  0  0  0  0  0  0  0  0  0  0
   24.0893  -21.1031  -17.2379 C   0  0  2  0  0  0  0  0  0  0  0  0
   23.6583  -22.3598  -17.7789 N   0  0  0  0  0  0  0  0  0  0  0  0
   24.8638  -21.3948  -15.9888 C   0  0  0  0  0  0  0  0  0  0  0  0
   24.4438  -22.2698  -15.2064 O   0  0  0  0  0  0  0  0  0  0  0  0
   27.8276  -18.7770  -14.9456 O   0  0  0  0  0  0  0  0  0  0  0  0
   28.1499  -20.1183  -14.7715 C   0  0  0  0  0  0  0  0  0  0  0  0
   26.8820  -20.9523  -14.5480 C   0  0  2  0  0  0  0  0  0  0  0  0
   26.0402  -20.6914  -15.7116 N   0  0  0  0  0  0  0  0  0  0  0  0
   26.2081  -20.3644  -13.3700 C   0  0  0  0  0  0  0  0  0  0  0  0
   25.4898  -19.3288  -13.4907 O   0  0  0  0  0  0  0  0  0  0  0  0
   22.2498  -20.5157   -9.3770 C   0  0  0  0  0  0  0  0  0  0  0  0
   23.6042  -19.9023   -9.6692 C   0  0  0  0  0  0  0  0  0  0  0  0
   24.4118  -20.8631  -10.5084 C   0  0  2  0  0  0  0  0  0  0  0  0
   24.6086  -22.1879   -9.8161 C   0  0  0  0  0  0  0  0  0  0  0  0
   25.7314  -20.2204  -10.8815 C   0  0  2  0  0  0  0  0  0  0  0  0
   26.3022  -20.8835  -12.0636 N   0  0  0  0  0  0  0  0  0  0  0  0
   26.7525  -20.3285   -9.8123 C   0  0  0  0  0  0  0  0  0  0  0  0
   27.8710  -21.1405   -9.8880 O   0  0  0  0  0  0  0  0  0  0  0  0
   26.6608  -19.6625   -8.7282 O   0  0  0  0  0  0  0  0  0  0  0  0
  1  2  1  0
  2  4  1  0
  2  3  2  0
  4  5  1  0
  6  5  1  0
  6  7  1  1
  8  9  2  0
  8  6  1  0
 10 11  1  0
 12 11  1  6
 12 13  1  0
 13  8  1  0
 14 12  1  0
 14 21  1  0
 15 14  2  0
 17 16  1  0
 18 17  1  0
 18 19  1  1
 20 21  1  6
 20 18  1  0
 22 20  1  0
 23 22  1  0
 24 22  2  0
M  END
$$$$
