QSI.pdb
     RDKit          3D

 24 23  0  0  1  0  0  0  0  0999 V2000
   19.3408  -13.9149  -17.8495 N   0  0  0  0  0  0  0  0  0  0  0  0
   18.1309  -13.5161  -18.5285 C   0  0  0  0  0  0  0  0  0  0  0  0
   17.8001  -14.1965  -19.5192 O   0  0  0  0  0  0  0  0  0  0  0  0
   17.3664  -12.3684  -18.0506 C   0  0  0  0  0  0  0  0  0  0  0  0
   17.9507  -11.6435  -16.8781 C   0  0  0  0  0  0  0  0  0  0  0  0
   18.8196  -10.5032  -17.2810 C   0  0  2  0  0  0  0  0  0  0  0  0
   20.0897  -10.8435  -17.8543 N   0  0  0  0  0  0  0  0  0  0  0  0
   19.0847   -9.6436  -16.0826 C   0  0  0  0  0  0  0  0  0  0  0  0
   18.1199   -9.1539  -15.4634 O   0  0  0  0  0  0  0  0  0  0  0  0
   22.9367   -9.4556  -14.9400 O   0  0  0  0  0  0  0  0  0  0  0  0
   22.0137   -9.1837  -13.9363 C   0  0  0  0  0  0  0  0  0  0  0  0
   20.7433   -8.5593  -14.5275 C   0  0  2  0  0  0  0  0  0  0  0  0
   20.3984   -9.3989  -15.6707 N   0  0  0  0  0  0  0  0  0  0  0  0
   21.1440   -7.2357  -15.0519 C   0  0  0  0  0  0  0  0  0  0  0  0
   21.6604   -7.1298  -16.2030 O   0  0  0  0  0  0  0  0  0  0  0  0
   18.2431   -3.2979  -16.1737 C   0  0  0  0  0  0  0  0  0  0  0  0
   19.4893   -4.1597  -16.1508 C   0  0  0  0  0  0  0  0  0  0  0  0
   20.3527   -3.7504  -14.9819 C   0  0  2  0  0  0  0  0  0  0  0  0
   20.8451   -2.3315  -15.1146 C   0  0  0  0  0  0  0  0  0  0  0  0
   21.4958   -4.7321  -14.8310 C   0  0  2  0  0  0  0  0  0  0  0  0
   20.9926   -6.0260  -14.3457 N   0  0  0  0  0  0  0  0  0  0  0  0
   22.5153   -4.2897  -13.8500 C   0  0  0  0  0  0  0  0  0  0  0  0
   22.4646   -4.5764  -12.4967 O   0  0  0  0  0  0  0  0  0  0  0  0
   23.5285   -3.5991  -14.2017 O   0  0  0  0  0  0  0  0  0  0  0  0
  1  2  1  0
  2  4  1  0
  2  3  2  0
  4  5  1  0
  6  5  1  0
  6  7  1  1
  8  9  2  0
  8  6  1  0
 10 11  1  0
 12 11  1  6
 12 13  1  0
 13  8  1  0
 14 12  1  0
 14 21  1  0
 15 14  2  0
 17 16  1  0
 18 17  1  0
 18 19  1  6
 20 21  1  1
 20 18  1  0
 22 20  1  0
 23 22  1  0
 24 22  2  0
M  END
$$$$
