QNE.pdb
     RDKit          3D

 27 26  0  0  1  0  0  0  0  0999 V2000
   16.9422  -12.1312  -13.0955 N   0  0  0  0  0  0  0  0  0  0  0  0
   16.3198  -12.9898  -12.1553 C   0  0  0  0  0  0  0  0  0  0  0  0
   16.4833  -14.2267  -12.2065 O   0  0  0  0  0  0  0  0  0  0  0  0
   15.4529  -12.4107  -11.0833 C   0  0  0  0  0  0  0  0  0  0  0  0
   15.4716  -10.9066  -11.1602 C   0  0  0  0  0  0  0  0  0  0  0  0
   14.5873  -10.3474  -10.0833 C   0  0  2  0  0  0  0  0  0  0  0  0
   13.2561  -10.8592  -10.1666 N   0  0  0  0  0  0  0  0  0  0  0  0
   14.6276   -8.8616  -10.0108 C   0  0  0  0  0  0  0  0  0  0  0  0
   14.0896   -8.1795  -10.9314 O   0  0  0  0  0  0  0  0  0  0  0  0
   15.1240   -3.9894   -8.8822 N   0  0  0  0  0  0  0  0  0  0  0  0
   14.9926   -4.6426   -7.6384 C   0  0  0  0  0  0  0  0  0  0  0  0
   14.8211   -3.9820   -6.5633 O   0  0  0  0  0  0  0  0  0  0  0  0
   15.0587   -6.1139   -7.6121 C   0  0  0  0  0  0  0  0  0  0  0  0
   15.2741   -6.7162   -8.9713 C   0  0  2  0  0  0  0  0  0  0  0  0
   15.2430   -8.1557   -8.9548 N   0  0  0  0  0  0  0  0  0  0  0  0
   16.6170   -6.2364   -9.4394 C   0  0  0  0  0  0  0  0  0  0  0  0
   17.6307   -6.5364   -8.7652 O   0  0  0  0  0  0  0  0  0  0  0  0
   16.6876   -5.4664  -10.6199 N   0  0  0  0  0  0  0  0  0  0  0  0
   17.9337   -5.1546  -11.2631 C   0  0  1  0  0  0  0  0  0  0  0  0
   18.6616   -6.4043  -11.6119 C   0  0  0  0  0  0  0  0  0  0  0  0
   19.9641   -6.2470  -12.3200 C   0  0  0  0  0  0  0  0  0  0  0  0
   20.7025   -7.4705  -12.6072 C   0  0  0  0  0  0  0  0  0  0  0  0
   20.2339   -8.5840  -12.2751 O   0  0  0  0  0  0  0  0  0  0  0  0
   17.7931   -4.1668  -12.3306 C   0  0  0  0  0  0  0  0  0  0  0  0
   18.8717   -3.4552  -12.8279 O   0  0  0  0  0  0  0  0  0  0  0  0
   21.9249   -7.4280  -13.2468 O   0  0  0  0  0  0  0  0  0  0  0  0
   16.6648   -3.9369  -12.8315 O   0  0  0  0  0  0  0  0  0  0  0  0
  2  4  1  0
  2  1  1  0
  3  2  2  0
  5  4  1  0
  6  5  1  0
  6  7  1  6
  8  6  1  0
  8 15  1  0
  9  8  2  0
 10 11  1  0
 11 13  1  0
 11 12  2  0
 14 13  1  1
 14 15  1  0
 14 16  1  0
 16 17  2  0
 16 18  1  0
 18 19  1  0
 19 20  1  6
 19 24  1  0
 21 22  1  0
 21 20  1  0
 22 26  1  0
 23 22  2  0
 24 25  1  0
 27 24  2  0
M  END
$$$$
