QNE.pdb
     RDKit          3D

 27 26  0  0  1  0  0  0  0  0999 V2000
   13.9176  -15.0202  -16.9122 N   0  0  0  0  0  0  0  0  0  0  0  0
   14.8929  -14.4985  -16.0261 C   0  0  0  0  0  0  0  0  0  0  0  0
   14.6579  -14.3851  -14.8050 O   0  0  0  0  0  0  0  0  0  0  0  0
   16.2255  -14.0757  -16.5564 C   0  0  0  0  0  0  0  0  0  0  0  0
   16.7303  -12.8805  -15.7914 C   0  0  0  0  0  0  0  0  0  0  0  0
   17.2012  -11.8369  -16.7628 C   0  0  2  0  0  0  0  0  0  0  0  0
   17.6157  -12.4111  -18.0036 N   0  0  0  0  0  0  0  0  0  0  0  0
   18.2222  -10.9220  -16.1840 C   0  0  0  0  0  0  0  0  0  0  0  0
   17.9741  -10.3212  -15.0979 O   0  0  0  0  0  0  0  0  0  0  0  0
   22.3452   -8.3895  -14.8161 N   0  0  0  0  0  0  0  0  0  0  0  0
   22.8245   -9.2989  -15.7828 C   0  0  0  0  0  0  0  0  0  0  0  0
   24.0688   -9.3954  -16.0353 O   0  0  0  0  0  0  0  0  0  0  0  0
   21.8470  -10.1385  -16.4967 C   0  0  0  0  0  0  0  0  0  0  0  0
   20.4235   -9.8019  -16.1546 C   0  0  2  0  0  0  0  0  0  0  0  0
   19.4749  -10.6808  -16.7879 N   0  0  0  0  0  0  0  0  0  0  0  0
   20.2005   -8.3898  -16.6117 C   0  0  0  0  0  0  0  0  0  0  0  0
   20.2987   -8.1315  -17.8347 O   0  0  0  0  0  0  0  0  0  0  0  0
   19.8888   -7.4070  -15.6481 N   0  0  0  0  0  0  0  0  0  0  0  0
   19.6685   -6.0304  -15.9948 C   0  0  1  0  0  0  0  0  0  0  0  0
   18.2688   -5.6363  -15.6804 C   0  0  0  0  0  0  0  0  0  0  0  0
   17.8953   -4.2176  -15.9458 C   0  0  0  0  0  0  0  0  0  0  0  0
   16.5310   -3.8286  -15.6111 C   0  0  0  0  0  0  0  0  0  0  0  0
   16.2853   -3.2593  -14.5224 O   0  0  0  0  0  0  0  0  0  0  0  0
   20.7185   -5.1426  -15.5004 C   0  0  0  0  0  0  0  0  0  0  0  0
   21.3499   -5.3472  -14.2853 O   0  0  0  0  0  0  0  0  0  0  0  0
   15.4885   -4.0779  -16.4807 O   0  0  0  0  0  0  0  0  0  0  0  0
   21.0789   -4.1520  -16.1828 O   0  0  0  0  0  0  0  0  0  0  0  0
  2  4  1  0
  2  1  1  0
  3  2  2  0
  5  4  1  0
  6  5  1  0
  6  7  1  6
  8  6  1  0
  8 15  1  0
  9  8  2  0
 10 11  1  0
 11 13  1  0
 11 12  2  0
 14 13  1  6
 14 15  1  0
 14 16  1  0
 16 17  2  0
 16 18  1  0
 18 19  1  0
 19 20  1  1
 19 24  1  0
 21 22  1  0
 21 20  1  0
 22 26  1  0
 23 22  2  0
 24 25  1  0
 27 24  2  0
M  END
$$$$
