QNE.pdb
     RDKit          3D

 27 26  0  0  1  0  0  0  0  0999 V2000
   16.4481  -13.6563  -17.9843 N   0  0  0  0  0  0  0  0  0  0  0  0
   16.2895  -13.1451  -16.6720 C   0  0  0  0  0  0  0  0  0  0  0  0
   15.1640  -13.0918  -16.1339 O   0  0  0  0  0  0  0  0  0  0  0  0
   17.4850  -12.6607  -15.9158 C   0  0  0  0  0  0  0  0  0  0  0  0
   18.2616  -11.6776  -16.7520 C   0  0  0  0  0  0  0  0  0  0  0  0
   19.3940  -11.1237  -15.9363 C   0  0  2  0  0  0  0  0  0  0  0  0
   19.9179  -12.0909  -15.0246 N   0  0  0  0  0  0  0  0  0  0  0  0
   19.0577   -9.8340  -15.2745 C   0  0  0  0  0  0  0  0  0  0  0  0
   18.6310   -8.8692  -15.9739 O   0  0  0  0  0  0  0  0  0  0  0  0
   17.0476   -9.9501  -10.5666 N   0  0  0  0  0  0  0  0  0  0  0  0
   17.1815   -9.0361  -11.6333 C   0  0  0  0  0  0  0  0  0  0  0  0
   16.1916   -8.7478  -12.3807 O   0  0  0  0  0  0  0  0  0  0  0  0
   18.4996   -8.4201  -11.8636 C   0  0  0  0  0  0  0  0  0  0  0  0
   18.8629   -8.3378  -13.3189 C   0  0  2  0  0  0  0  0  0  0  0  0
   19.1897   -9.6205  -13.8856 N   0  0  0  0  0  0  0  0  0  0  0  0
   20.0466   -7.4195  -13.4087 C   0  0  0  0  0  0  0  0  0  0  0  0
   21.1946   -7.9034  -13.2673 O   0  0  0  0  0  0  0  0  0  0  0  0
   19.8227   -6.0470  -13.6490 N   0  0  0  0  0  0  0  0  0  0  0  0
   20.8608   -5.1652  -14.1059 C   0  0  1  0  0  0  0  0  0  0  0  0
   21.5530   -5.7503  -15.2856 C   0  0  0  0  0  0  0  0  0  0  0  0
   22.6675   -4.9532  -15.8733 C   0  0  0  0  0  0  0  0  0  0  0  0
   23.3268   -5.5182  -17.0441 C   0  0  0  0  0  0  0  0  0  0  0  0
   23.7088   -4.7724  -17.9755 O   0  0  0  0  0  0  0  0  0  0  0  0
   20.4157   -3.7797  -14.2367 C   0  0  0  0  0  0  0  0  0  0  0  0
   21.2443   -2.7061  -13.9577 O   0  0  0  0  0  0  0  0  0  0  0  0
   23.5425   -6.8774  -17.1501 O   0  0  0  0  0  0  0  0  0  0  0  0
   19.2448   -3.5271  -14.6138 O   0  0  0  0  0  0  0  0  0  0  0  0
  2  4  1  0
  2  1  1  0
  3  2  2  0
  5  4  1  0
  6  5  1  0
  6  7  1  1
  8  6  1  0
  8 15  1  0
  9  8  2  0
 10 11  1  0
 11 13  1  0
 11 12  2  0
 14 13  1  1
 14 15  1  0
 14 16  1  0
 16 17  2  0
 16 18  1  0
 18 19  1  0
 19 20  1  6
 19 24  1  0
 21 22  1  0
 21 20  1  0
 22 26  1  0
 23 22  2  0
 24 25  1  0
 27 24  2  0
M  END
$$$$
