QNE.pdb
     RDKit          3D

 27 26  0  0  1  0  0  0  0  0999 V2000
   25.7790  -14.3955  -19.1170 N   0  0  0  0  0  0  0  0  0  0  0  0
   26.8225  -14.6322  -20.0464 C   0  0  0  0  0  0  0  0  0  0  0  0
   27.2174  -15.7916  -20.2890 O   0  0  0  0  0  0  0  0  0  0  0  0
   27.4639  -13.4792  -20.7500 C   0  0  0  0  0  0  0  0  0  0  0  0
   26.8439  -12.1851  -20.2923 C   0  0  0  0  0  0  0  0  0  0  0  0
   27.5346  -11.0396  -20.9746 C   0  0  2  0  0  0  0  0  0  0  0  0
   28.7556  -11.4459  -21.5951 N   0  0  0  0  0  0  0  0  0  0  0  0
   27.7061   -9.8545  -20.0911 C   0  0  0  0  0  0  0  0  0  0  0  0
   26.7283   -9.4503  -19.3964 O   0  0  0  0  0  0  0  0  0  0  0  0
   29.6786   -9.7709  -17.1057 N   0  0  0  0  0  0  0  0  0  0  0  0
   30.6760   -8.8296  -17.4377 C   0  0  0  0  0  0  0  0  0  0  0  0
   31.7983   -8.8204  -16.8360 O   0  0  0  0  0  0  0  0  0  0  0  0
   30.3876   -7.8527  -18.5019 C   0  0  0  0  0  0  0  0  0  0  0  0
   29.0151   -8.0141  -19.0906 C   0  0  2  0  0  0  0  0  0  0  0  0
   28.9193   -9.1415  -19.9813 N   0  0  0  0  0  0  0  0  0  0  0  0
   28.7215   -6.7444  -19.8352 C   0  0  0  0  0  0  0  0  0  0  0  0
   29.2290   -6.5824  -20.9702 O   0  0  0  0  0  0  0  0  0  0  0  0
   27.8857   -5.7819  -19.2298 N   0  0  0  0  0  0  0  0  0  0  0  0
   27.5769   -4.5263  -19.8561 C   0  0  1  0  0  0  0  0  0  0  0  0
   26.1625   -4.1502  -19.5890 C   0  0  0  0  0  0  0  0  0  0  0  0
   25.1117   -5.0182  -20.1932 C   0  0  0  0  0  0  0  0  0  0  0  0
   23.7369   -4.7589  -19.7843 C   0  0  0  0  0  0  0  0  0  0  0  0
   23.3238   -5.1545  -18.6696 O   0  0  0  0  0  0  0  0  0  0  0  0
   28.5814   -3.4973  -19.5970 C   0  0  0  0  0  0  0  0  0  0  0  0
   29.5275   -3.6219  -18.5939 O   0  0  0  0  0  0  0  0  0  0  0  0
   22.8674   -4.0766  -20.6112 O   0  0  0  0  0  0  0  0  0  0  0  0
   28.6086   -2.4537  -20.2947 O   0  0  0  0  0  0  0  0  0  0  0  0
  2  4  1  0
  2  1  1  0
  3  2  2  0
  5  4  1  0
  6  5  1  0
  6  7  1  1
  8  6  1  0
  8 15  1  0
  9  8  2  0
 10 11  1  0
 11 13  1  0
 11 12  2  0
 14 13  1  6
 14 15  1  0
 14 16  1  0
 16 17  2  0
 16 18  1  0
 18 19  1  0
 19 20  1  1
 19 24  1  0
 21 22  1  0
 21 20  1  0
 22 26  1  0
 23 22  2  0
 24 25  1  0
 27 24  2  0
M  END
$$$$
