QNE.pdb
     RDKit          3D

 27 26  0  0  1  0  0  0  0  0999 V2000
   23.7755  -16.7782  -15.1880 N   0  0  0  0  0  0  0  0  0  0  0  0
   23.0331  -17.0408  -16.3663 C   0  0  0  0  0  0  0  0  0  0  0  0
   23.0832  -18.1574  -16.9231 O   0  0  0  0  0  0  0  0  0  0  0  0
   22.1749  -15.9677  -16.9562 C   0  0  0  0  0  0  0  0  0  0  0  0
   22.2537  -14.7218  -16.1135 C   0  0  0  0  0  0  0  0  0  0  0  0
   22.5986  -13.5540  -16.9920 C   0  0  2  0  0  0  0  0  0  0  0  0
   23.5425  -13.9081  -18.0043 N   0  0  0  0  0  0  0  0  0  0  0  0
   23.0076  -12.3479  -16.2222 C   0  0  0  0  0  0  0  0  0  0  0  0
   22.3455  -12.0104  -15.1976 O   0  0  0  0  0  0  0  0  0  0  0  0
   27.9006  -11.4726  -16.2638 N   0  0  0  0  0  0  0  0  0  0  0  0
   26.8184  -11.1179  -15.4307 C   0  0  0  0  0  0  0  0  0  0  0  0
   26.6209  -11.7102  -14.3209 O   0  0  0  0  0  0  0  0  0  0  0  0
   25.9177  -10.0410  -15.8768 C   0  0  0  0  0  0  0  0  0  0  0  0
   24.4650  -10.4067  -15.7649 C   0  0  2  0  0  0  0  0  0  0  0  0
   24.1119  -11.5431  -16.5757 N   0  0  0  0  0  0  0  0  0  0  0  0
   23.6891   -9.2000  -16.2057 C   0  0  0  0  0  0  0  0  0  0  0  0
   23.7415   -8.8592  -17.4112 O   0  0  0  0  0  0  0  0  0  0  0  0
   22.9304   -8.4951  -15.2470 N   0  0  0  0  0  0  0  0  0  0  0  0
   21.9159   -7.5460  -15.6133 C   0  0  1  0  0  0  0  0  0  0  0  0
   20.9854   -8.1434  -16.6087 C   0  0  0  0  0  0  0  0  0  0  0  0
   19.8257   -7.3064  -17.0299 C   0  0  0  0  0  0  0  0  0  0  0  0
   18.8653   -7.9293  -17.9323 C   0  0  0  0  0  0  0  0  0  0  0  0
   17.8470   -7.3006  -18.3030 O   0  0  0  0  0  0  0  0  0  0  0  0
   21.3000   -6.8954  -14.4591 C   0  0  0  0  0  0  0  0  0  0  0  0
   21.4765   -7.3585  -13.1663 O   0  0  0  0  0  0  0  0  0  0  0  0
   19.0566   -9.2159  -18.3939 O   0  0  0  0  0  0  0  0  0  0  0  0
   20.5807   -5.8785  -14.6187 O   0  0  0  0  0  0  0  0  0  0  0  0
  2  4  1  0
  2  1  1  0
  3  2  2  0
  5  4  1  0
  6  5  1  0
  6  7  1  6
  8  6  1  0
  8 15  1  0
  9  8  2  0
 10 11  1  0
 11 13  1  0
 11 12  2  0
 14 13  1  6
 14 15  1  0
 14 16  1  0
 16 17  2  0
 16 18  1  0
 18 19  1  0
 19 20  1  1
 19 24  1  0
 21 22  1  0
 21 20  1  0
 22 26  1  0
 23 22  2  0
 24 25  1  0
 27 24  2  0
M  END
$$$$
