QNE.pdb
     RDKit          3D

 27 26  0  0  1  0  0  0  0  0999 V2000
   15.5110  -15.9889  -17.2287 N   0  0  0  0  0  0  0  0  0  0  0  0
   16.8016  -16.4357  -16.8499 C   0  0  0  0  0  0  0  0  0  0  0  0
   17.2123  -17.5684  -17.1778 O   0  0  0  0  0  0  0  0  0  0  0  0
   17.6890  -15.5410  -16.0451 C   0  0  0  0  0  0  0  0  0  0  0  0
   16.9829  -14.2439  -15.7489 C   0  0  0  0  0  0  0  0  0  0  0  0
   17.8962  -13.0992  -16.0804 C   0  0  2  0  0  0  0  0  0  0  0  0
   19.0633  -13.0917  -15.2565 N   0  0  0  0  0  0  0  0  0  0  0  0
   17.1983  -11.7850  -16.0991 C   0  0  0  0  0  0  0  0  0  0  0  0
   16.2247  -11.6095  -16.8887 O   0  0  0  0  0  0  0  0  0  0  0  0
   15.4600   -7.1149  -15.5810 N   0  0  0  0  0  0  0  0  0  0  0  0
   14.7308   -8.2359  -15.1310 C   0  0  0  0  0  0  0  0  0  0  0  0
   13.4871   -8.1506  -14.8712 O   0  0  0  0  0  0  0  0  0  0  0  0
   15.4451   -9.5138  -14.9678 C   0  0  0  0  0  0  0  0  0  0  0  0
   16.8847   -9.4397  -15.3902 C   0  0  2  0  0  0  0  0  0  0  0  0
   17.5666  -10.7024  -15.2717 N   0  0  0  0  0  0  0  0  0  0  0  0
   17.5348   -8.4192  -14.5022 C   0  0  0  0  0  0  0  0  0  0  0  0
   17.5341   -8.6130  -13.2634 O   0  0  0  0  0  0  0  0  0  0  0  0
   18.1220   -7.2810  -15.0949 N   0  0  0  0  0  0  0  0  0  0  0  0
   18.9011   -6.3363  -14.3436 C   0  0  1  0  0  0  0  0  0  0  0  0
   20.2233   -6.1257  -14.9925 C   0  0  0  0  0  0  0  0  0  0  0  0
   21.1497   -5.1628  -14.3311 C   0  0  0  0  0  0  0  0  0  0  0  0
   22.4037   -4.8857  -15.0205 C   0  0  0  0  0  0  0  0  0  0  0  0
   23.3450   -5.7113  -14.9761 O   0  0  0  0  0  0  0  0  0  0  0  0
   18.1528   -5.1318  -13.9913 C   0  0  0  0  0  0  0  0  0  0  0  0
   18.3603   -4.4521  -12.8030 O   0  0  0  0  0  0  0  0  0  0  0  0
   22.5789   -3.7158  -15.7317 O   0  0  0  0  0  0  0  0  0  0  0  0
   17.2852   -4.6768  -14.7769 O   0  0  0  0  0  0  0  0  0  0  0  0
  2  4  1  0
  2  1  1  0
  3  2  2  0
  5  4  1  0
  6  5  1  0
  6  7  1  1
  8  6  1  0
  8 15  1  0
  9  8  2  0
 10 11  1  0
 11 13  1  0
 11 12  2  0
 14 13  1  1
 14 15  1  0
 14 16  1  0
 16 17  2  0
 16 18  1  0
 18 19  1  0
 19 20  1  6
 19 24  1  0
 21 22  1  0
 21 20  1  0
 22 26  1  0
 23 22  2  0
 24 25  1  0
 27 24  2  0
M  END
$$$$
