QNE.pdb
     RDKit          3D

 27 26  0  0  1  0  0  0  0  0999 V2000
   15.8698   -8.9050   -9.7777 N   0  0  0  0  0  0  0  0  0  0  0  0
   15.0003   -9.8455  -10.3844 C   0  0  0  0  0  0  0  0  0  0  0  0
   13.8077   -9.9429  -10.0274 O   0  0  0  0  0  0  0  0  0  0  0  0
   15.5139  -10.7375  -11.4691 C   0  0  0  0  0  0  0  0  0  0  0  0
   16.9748  -10.4645  -11.7138 C   0  0  0  0  0  0  0  0  0  0  0  0
   17.1135   -9.5486  -12.8955 C   0  0  2  0  0  0  0  0  0  0  0  0
   16.4319  -10.0537  -14.0450 N   0  0  0  0  0  0  0  0  0  0  0  0
   18.5261   -9.1788  -13.1821 C   0  0  0  0  0  0  0  0  0  0  0  0
   19.2562   -8.7408  -12.2455 O   0  0  0  0  0  0  0  0  0  0  0  0
   22.4763  -10.4529  -13.9266 N   0  0  0  0  0  0  0  0  0  0  0  0
   22.1738  -10.4585  -15.3048 C   0  0  0  0  0  0  0  0  0  0  0  0
   22.7667  -11.2518  -16.1052 O   0  0  0  0  0  0  0  0  0  0  0  0
   21.1510   -9.5206  -15.7989 C   0  0  0  0  0  0  0  0  0  0  0  0
   20.4405   -8.7915  -14.6942 C   0  0  2  0  0  0  0  0  0  0  0  0
   19.1097   -9.2901  -14.4624 N   0  0  0  0  0  0  0  0  0  0  0  0
   20.3845   -7.3493  -15.1059 C   0  0  0  0  0  0  0  0  0  0  0  0
   19.6198   -7.0214  -16.0440 O   0  0  0  0  0  0  0  0  0  0  0  0
   21.1942   -6.4175  -14.4220 N   0  0  0  0  0  0  0  0  0  0  0  0
   21.1119   -5.0033  -14.6611 C   0  0  1  0  0  0  0  0  0  0  0  0
   19.6993   -4.5454  -14.5688 C   0  0  0  0  0  0  0  0  0  0  0  0
   19.4639   -3.0753  -14.6469 C   0  0  0  0  0  0  0  0  0  0  0  0
   18.1030   -2.6183  -14.3947 C   0  0  0  0  0  0  0  0  0  0  0  0
   17.6982   -1.5384  -14.8843 O   0  0  0  0  0  0  0  0  0  0  0  0
   22.0930   -4.2373  -13.8959 C   0  0  0  0  0  0  0  0  0  0  0  0
   22.8117   -4.7903  -12.8496 O   0  0  0  0  0  0  0  0  0  0  0  0
   17.2380   -3.3607  -13.6164 O   0  0  0  0  0  0  0  0  0  0  0  0
   22.3104   -3.0330  -14.1773 O   0  0  0  0  0  0  0  0  0  0  0  0
  2  4  1  0
  2  1  1  0
  3  2  2  0
  5  4  1  0
  6  5  1  0
  6  7  1  6
  8  6  1  0
  8 15  1  0
  9  8  2  0
 10 11  1  0
 11 13  1  0
 11 12  2  0
 14 13  1  6
 14 15  1  0
 14 16  1  0
 16 17  2  0
 16 18  1  0
 18 19  1  0
 19 20  1  1
 19 24  1  0
 21 22  1  0
 21 20  1  0
 22 26  1  0
 23 22  2  0
 24 25  1  0
 27 24  2  0
M  END
$$$$
