QNE.pdb
     RDKit          3D

 27 26  0  0  1  0  0  0  0  0999 V2000
   27.9622  -21.0713  -15.4633 N   0  0  0  0  0  0  0  0  0  0  0  0
   28.0856  -19.9147  -16.2729 C   0  0  0  0  0  0  0  0  0  0  0  0
   28.9576  -19.8427  -17.1637 O   0  0  0  0  0  0  0  0  0  0  0  0
   27.1597  -18.7597  -16.0614 C   0  0  0  0  0  0  0  0  0  0  0  0
   26.2074  -19.0609  -14.9339 C   0  0  0  0  0  0  0  0  0  0  0  0
   25.0125  -19.7882  -15.4796 C   0  0  2  0  0  0  0  0  0  0  0  0
   24.4696  -19.1358  -16.6288 N   0  0  0  0  0  0  0  0  0  0  0  0
   23.9838  -20.0762  -14.4435 C   0  0  0  0  0  0  0  0  0  0  0  0
   24.3508  -20.3737  -13.2692 O   0  0  0  0  0  0  0  0  0  0  0  0
   21.1611  -20.4864  -10.4153 N   0  0  0  0  0  0  0  0  0  0  0  0
   20.8737  -19.5146  -11.3972 C   0  0  0  0  0  0  0  0  0  0  0  0
   19.8006  -18.8305  -11.3513 O   0  0  0  0  0  0  0  0  0  0  0  0
   21.8485  -19.3088  -12.4822 C   0  0  0  0  0  0  0  0  0  0  0  0
   21.6588  -20.2592  -13.6299 C   0  0  2  0  0  0  0  0  0  0  0  0
   22.5964  -20.0361  -14.6997 N   0  0  0  0  0  0  0  0  0  0  0  0
   20.2567  -20.0525  -14.1238 C   0  0  0  0  0  0  0  0  0  0  0  0
   20.0009  -19.0233  -14.7927 O   0  0  0  0  0  0  0  0  0  0  0  0
   19.2802  -21.0240  -13.8169 N   0  0  0  0  0  0  0  0  0  0  0  0
   18.0054  -21.0708  -14.4778 C   0  0  1  0  0  0  0  0  0  0  0  0
   17.7660  -22.4263  -15.0423 C   0  0  0  0  0  0  0  0  0  0  0  0
   16.4944  -22.6250  -15.7948 C   0  0  0  0  0  0  0  0  0  0  0  0
   16.6162  -22.8933  -17.2223 C   0  0  0  0  0  0  0  0  0  0  0  0
   17.3935  -23.7858  -17.6333 O   0  0  0  0  0  0  0  0  0  0  0  0
   16.9251  -20.5031  -13.6744 C   0  0  0  0  0  0  0  0  0  0  0  0
   15.8433  -19.8519  -14.2423 O   0  0  0  0  0  0  0  0  0  0  0  0
   15.8828  -22.1745  -18.1445 O   0  0  0  0  0  0  0  0  0  0  0  0
   16.9555  -20.5957  -12.4224 O   0  0  0  0  0  0  0  0  0  0  0  0
  2  4  1  0
  2  1  1  0
  3  2  2  0
  5  4  1  0
  6  5  1  0
  6  7  1  6
  8  6  1  0
  8 15  1  0
  9  8  2  0
 10 11  1  0
 11 13  1  0
 11 12  2  0
 14 13  1  1
 14 15  1  0
 14 16  1  0
 16 17  2  0
 16 18  1  0
 18 19  1  0
 19 20  1  1
 19 24  1  0
 21 22  1  0
 21 20  1  0
 22 26  1  0
 23 22  2  0
 24 25  1  0
 27 24  2  0
M  END
$$$$
