QNE.pdb
     RDKit          3D

 27 26  0  0  1  0  0  0  0  0999 V2000
   15.1940  -10.2111  -18.4217 N   0  0  0  0  0  0  0  0  0  0  0  0
   15.2154  -10.8249  -17.1445 C   0  0  0  0  0  0  0  0  0  0  0  0
   14.1839  -10.8883  -16.4436 O   0  0  0  0  0  0  0  0  0  0  0  0
   16.4902  -11.4073  -16.6234 C   0  0  0  0  0  0  0  0  0  0  0  0
   17.0687  -10.5136  -15.5579 C   0  0  0  0  0  0  0  0  0  0  0  0
   18.5299  -10.3031  -15.8315 C   0  0  2  0  0  0  0  0  0  0  0  0
   19.2835  -11.5046  -15.6597 N   0  0  0  0  0  0  0  0  0  0  0  0
   19.1028   -9.1537  -15.0797 C   0  0  0  0  0  0  0  0  0  0  0  0
   19.5162   -9.3291  -13.8963 O   0  0  0  0  0  0  0  0  0  0  0  0
   22.1030   -5.7897  -12.9265 N   0  0  0  0  0  0  0  0  0  0  0  0
   22.2189   -6.0124  -14.3151 C   0  0  0  0  0  0  0  0  0  0  0  0
   22.9771   -5.2871  -15.0366 O   0  0  0  0  0  0  0  0  0  0  0  0
   21.4386   -7.1090  -14.9138 C   0  0  0  0  0  0  0  0  0  0  0  0
   19.9602   -6.8428  -14.9187 C   0  0  2  0  0  0  0  0  0  0  0  0
   19.2135   -7.8546  -15.6203 N   0  0  0  0  0  0  0  0  0  0  0  0
   19.7718   -5.5108  -15.5843 C   0  0  0  0  0  0  0  0  0  0  0  0
   20.0581   -5.4007  -16.8001 O   0  0  0  0  0  0  0  0  0  0  0  0
   19.2797   -4.4335  -14.8169 N   0  0  0  0  0  0  0  0  0  0  0  0
   18.8453   -3.1995  -15.4106 C   0  0  1  0  0  0  0  0  0  0  0  0
   17.6329   -2.6904  -14.7148 C   0  0  0  0  0  0  0  0  0  0  0  0
   17.0778   -1.3931  -15.1962 C   0  0  0  0  0  0  0  0  0  0  0  0
   15.8883   -0.8992  -14.5139 C   0  0  0  0  0  0  0  0  0  0  0  0
   15.7302    0.3299  -14.3295 O   0  0  0  0  0  0  0  0  0  0  0  0
   19.9339   -2.2433  -15.5997 C   0  0  0  0  0  0  0  0  0  0  0  0
   19.9535   -1.3417  -16.6503 O   0  0  0  0  0  0  0  0  0  0  0  0
   14.9180   -1.7695  -14.0598 O   0  0  0  0  0  0  0  0  0  0  0  0
   20.8973   -2.2183  -14.7947 O   0  0  0  0  0  0  0  0  0  0  0  0
  2  4  1  0
  2  1  1  0
  3  2  2  0
  5  4  1  0
  6  5  1  0
  6  7  1  1
  8  6  1  0
  8 15  1  0
  9  8  2  0
 10 11  1  0
 11 13  1  0
 11 12  2  0
 14 13  1  6
 14 15  1  0
 14 16  1  0
 16 17  2  0
 16 18  1  0
 18 19  1  0
 19 20  1  1
 19 24  1  0
 21 22  1  0
 21 20  1  0
 22 26  1  0
 23 22  2  0
 24 25  1  0
 27 24  2  0
M  END
$$$$
