QNE.pdb
     RDKit          3D

 27 26  0  0  1  0  0  0  0  0999 V2000
   26.1734  -34.1808  -12.3643 N   0  0  0  0  0  0  0  0  0  0  0  0
   24.8364  -33.7133  -12.4151 C   0  0  0  0  0  0  0  0  0  0  0  0
   24.2856  -33.4562  -13.5059 O   0  0  0  0  0  0  0  0  0  0  0  0
   24.0690  -33.5232  -11.1459 C   0  0  0  0  0  0  0  0  0  0  0  0
   24.9523  -33.8108   -9.9603 C   0  0  0  0  0  0  0  0  0  0  0  0
   24.1831  -33.5476   -8.6978 C   0  0  2  0  0  0  0  0  0  0  0  0
   23.7339  -32.1938   -8.6190 N   0  0  0  0  0  0  0  0  0  0  0  0
   24.9078  -33.9843   -7.4736 C   0  0  0  0  0  0  0  0  0  0  0  0
   25.0692  -35.2205   -7.2545 O   0  0  0  0  0  0  0  0  0  0  0  0
   27.9326  -34.4328   -3.4807 N   0  0  0  0  0  0  0  0  0  0  0  0
   27.9320  -33.0423   -3.7209 C   0  0  0  0  0  0  0  0  0  0  0  0
   28.7183  -32.2652   -3.0888 O   0  0  0  0  0  0  0  0  0  0  0  0
   26.9960  -32.5076   -4.7248 C   0  0  0  0  0  0  0  0  0  0  0  0
   26.1837  -33.5768   -5.3982 C   0  0  2  0  0  0  0  0  0  0  0  0
   25.4353  -33.0824   -6.5246 N   0  0  0  0  0  0  0  0  0  0  0  0
   25.2479  -34.1171   -4.3566 C   0  0  0  0  0  0  0  0  0  0  0  0
   24.1122  -33.5984   -4.2420 O   0  0  0  0  0  0  0  0  0  0  0  0
   25.6817  -35.1880   -3.5462 N   0  0  0  0  0  0  0  0  0  0  0  0
   24.8521  -35.7682   -2.5269 C   0  0  1  0  0  0  0  0  0  0  0  0
   24.7646  -37.2421   -2.7094 C   0  0  0  0  0  0  0  0  0  0  0  0
   23.8386  -37.9770   -1.8010 C   0  0  0  0  0  0  0  0  0  0  0  0
   23.8691  -39.4323   -1.8766 C   0  0  0  0  0  0  0  0  0  0  0  0
   23.1342  -40.1194   -1.1299 O   0  0  0  0  0  0  0  0  0  0  0  0
   25.1869  -35.3000   -1.1839 C   0  0  0  0  0  0  0  0  0  0  0  0
   26.4944  -35.1062   -0.7717 O   0  0  0  0  0  0  0  0  0  0  0  0
   24.7027  -40.0792   -2.7664 O   0  0  0  0  0  0  0  0  0  0  0  0
   24.2748  -35.0577   -0.3556 O   0  0  0  0  0  0  0  0  0  0  0  0
  2  4  1  0
  2  1  1  0
  3  2  2  0
  5  4  1  0
  6  5  1  0
  6  7  1  1
  8  6  1  0
  8 15  1  0
  9  8  2  0
 10 11  1  0
 11 13  1  0
 11 12  2  0
 14 13  1  1
 14 15  1  0
 14 16  1  0
 16 17  2  0
 16 18  1  0
 18 19  1  0
 19 20  1  1
 19 24  1  0
 21 22  1  0
 21 20  1  0
 22 26  1  0
 23 22  2  0
 24 25  1  0
 27 24  2  0
M  END
$$$$
