QNE.pdb
     RDKit          3D

 27 26  0  0  1  0  0  0  0  0999 V2000
   13.4784   -9.6725  -14.4728 N   0  0  0  0  0  0  0  0  0  0  0  0
   13.4702  -10.8864  -15.2041 C   0  0  0  0  0  0  0  0  0  0  0  0
   12.3965  -11.4404  -15.5197 O   0  0  0  0  0  0  0  0  0  0  0  0
   14.7645  -11.5179  -15.6066 C   0  0  0  0  0  0  0  0  0  0  0  0
   15.9195  -10.7366  -15.0373 C   0  0  0  0  0  0  0  0  0  0  0  0
   17.2073  -11.3782  -15.4665 C   0  0  2  0  0  0  0  0  0  0  0  0
   17.3179  -12.7217  -14.9935 N   0  0  0  0  0  0  0  0  0  0  0  0
   18.4038  -10.5550  -15.1417 C   0  0  0  0  0  0  0  0  0  0  0  0
   18.7176  -10.3653  -13.9303 O   0  0  0  0  0  0  0  0  0  0  0  0
   22.7520   -8.0036  -15.0890 N   0  0  0  0  0  0  0  0  0  0  0  0
   22.5564   -8.2555  -16.4636 C   0  0  0  0  0  0  0  0  0  0  0  0
   23.4293   -7.9143  -17.3256 O   0  0  0  0  0  0  0  0  0  0  0  0
   21.3126   -8.9257  -16.8805 C   0  0  0  0  0  0  0  0  0  0  0  0
   20.3789   -9.1955  -15.7351 C   0  0  2  0  0  0  0  0  0  0  0  0
   19.2241   -9.9620  -16.1254 N   0  0  0  0  0  0  0  0  0  0  0  0
   19.9528   -7.8551  -15.2110 C   0  0  0  0  0  0  0  0  0  0  0  0
   19.1449   -7.1749  -15.8867 O   0  0  0  0  0  0  0  0  0  0  0  0
   20.4775   -7.4117  -13.9782 N   0  0  0  0  0  0  0  0  0  0  0  0
   20.0888   -6.1652  -13.3790 C   0  0  1  0  0  0  0  0  0  0  0  0
   19.3063   -6.4108  -12.1378 C   0  0  0  0  0  0  0  0  0  0  0  0
   18.8873   -5.2099  -11.3600 C   0  0  0  0  0  0  0  0  0  0  0  0
   18.1454   -5.4557  -10.1296 C   0  0  0  0  0  0  0  0  0  0  0  0
   17.7374   -4.4960   -9.4353 O   0  0  0  0  0  0  0  0  0  0  0  0
   21.1936   -5.2150  -13.2716 C   0  0  0  0  0  0  0  0  0  0  0  0
   22.5191   -5.6108  -13.3295 O   0  0  0  0  0  0  0  0  0  0  0  0
   17.8790   -6.7424   -9.7068 O   0  0  0  0  0  0  0  0  0  0  0  0
   20.9590   -3.9906  -13.1208 O   0  0  0  0  0  0  0  0  0  0  0  0
  2  4  1  0
  2  1  1  0
  3  2  2  0
  5  4  1  0
  6  5  1  0
  6  7  1  1
  8  6  1  0
  8 15  1  0
  9  8  2  0
 10 11  1  0
 11 13  1  0
 11 12  2  0
 14 13  1  6
 14 15  1  0
 14 16  1  0
 16 17  2  0
 16 18  1  0
 18 19  1  0
 19 20  1  1
 19 24  1  0
 21 22  1  0
 21 20  1  0
 22 26  1  0
 23 22  2  0
 24 25  1  0
 27 24  2  0
M  END
$$$$
