QNE.pdb
     RDKit          3D

 27 26  0  0  1  0  0  0  0  0999 V2000
   19.8695  -16.5340  -16.7435 N   0  0  0  0  0  0  0  0  0  0  0  0
   18.8771  -17.1062  -15.9091 C   0  0  0  0  0  0  0  0  0  0  0  0
   19.0473  -18.2247  -15.3807 O   0  0  0  0  0  0  0  0  0  0  0  0
   17.6046  -16.3634  -15.6544 C   0  0  0  0  0  0  0  0  0  0  0  0
   17.6079  -15.0594  -16.4083 C   0  0  0  0  0  0  0  0  0  0  0  0
   17.9243  -13.9414  -15.4573 C   0  0  2  0  0  0  0  0  0  0  0  0
   17.1037  -13.9867  -14.2886 N   0  0  0  0  0  0  0  0  0  0  0  0
   17.9205  -12.6041  -16.1100 C   0  0  0  0  0  0  0  0  0  0  0  0
   17.4586  -12.4860  -17.2825 O   0  0  0  0  0  0  0  0  0  0  0  0
   16.8654   -8.2594  -18.4462 N   0  0  0  0  0  0  0  0  0  0  0  0
   16.7622   -8.4468  -17.0515 C   0  0  0  0  0  0  0  0  0  0  0  0
   16.5592   -7.4631  -16.2688 O   0  0  0  0  0  0  0  0  0  0  0  0
   16.8955   -9.8138  -16.5190 C   0  0  0  0  0  0  0  0  0  0  0  0
   18.3089  -10.1651  -16.1508 C   0  0  2  0  0  0  0  0  0  0  0  0
   18.4120  -11.4378  -15.4852 N   0  0  0  0  0  0  0  0  0  0  0  0
   18.7954   -9.0709  -15.2459 C   0  0  0  0  0  0  0  0  0  0  0  0
   18.3927   -9.0495  -14.0586 O   0  0  0  0  0  0  0  0  0  0  0  0
   19.6871   -8.1084  -15.7654 N   0  0  0  0  0  0  0  0  0  0  0  0
   20.3173   -7.1164  -14.9391 C   0  0  1  0  0  0  0  0  0  0  0  0
   21.6155   -6.6983  -15.5335 C   0  0  0  0  0  0  0  0  0  0  0  0
   22.3670   -5.6273  -14.8186 C   0  0  0  0  0  0  0  0  0  0  0  0
   23.6333   -5.2133  -15.4097 C   0  0  0  0  0  0  0  0  0  0  0  0
   24.1717   -5.9090  -16.3018 O   0  0  0  0  0  0  0  0  0  0  0  0
   19.4090   -6.0421  -14.5444 C   0  0  0  0  0  0  0  0  0  0  0  0
   19.3597   -5.5519  -13.2505 O   0  0  0  0  0  0  0  0  0  0  0  0
   24.2615   -4.0540  -15.0016 O   0  0  0  0  0  0  0  0  0  0  0  0
   18.6358   -5.5284  -15.3900 O   0  0  0  0  0  0  0  0  0  0  0  0
  2  4  1  0
  2  1  1  0
  3  2  2  0
  5  4  1  0
  6  5  1  0
  6  7  1  1
  8  6  1  0
  8 15  1  0
  9  8  2  0
 10 11  1  0
 11 13  1  0
 11 12  2  0
 14 13  1  1
 14 15  1  0
 14 16  1  0
 16 17  2  0
 16 18  1  0
 18 19  1  0
 19 20  1  6
 19 24  1  0
 21 22  1  0
 21 20  1  0
 22 26  1  0
 23 22  2  0
 24 25  1  0
 27 24  2  0
M  END
$$$$
