EMC.pdb
     RDKit          3D

 24 23  0  0  1  0  0  0  0  0999 V2000
    8.8527  -16.8379   20.1606 N   0  0  0  0  0  0  0  0  0  0  0  0
    9.8053  -17.2738   21.1304 C   0  0  1  0  0  0  0  0  0  0  0  0
   11.1275  -17.6302   20.5849 C   0  0  0  0  0  0  0  0  0  0  0  0
   11.1447  -17.7211   19.1018 C   0  0  0  0  0  0  0  0  0  0  0  0
   12.3794  -18.0755   18.4376 C   0  0  0  0  0  0  0  0  0  0  0  0
   12.5548  -19.0600   17.7143 O   0  0  0  0  0  0  0  0  0  0  0  0
    9.8830  -16.2509   22.2246 C   0  0  0  0  0  0  0  0  0  0  0  0
   10.5841  -15.2115   22.0893 O   0  0  0  0  0  0  0  0  0  0  0  0
   13.4793  -17.2260   18.6302 O   0  0  0  0  0  0  0  0  0  0  0  0
    5.9995  -11.7361   27.0976 C   0  0  0  0  0  0  0  0  0  0  0  0
    6.0149  -13.2175   26.0494 S   0  0  0  0  0  0  0  0  0  0  0  0
    7.7405  -13.8550   25.9096 C   0  0  0  0  0  0  0  0  0  0  0  0
    7.7746  -14.8475   24.7762 C   0  0  0  0  0  0  0  0  0  0  0  0
    9.1308  -15.4423   24.5250 C   0  0  2  0  0  0  0  0  0  0  0  0
    9.1992  -16.3750   23.4467 N   0  0  0  0  0  0  0  0  0  0  0  0
    9.6138  -16.1364   25.7295 C   0  0  0  0  0  0  0  0  0  0  0  0
    9.5170  -17.3782   25.7760 O   0  0  0  0  0  0  0  0  0  0  0  0
   10.1799  -15.4328   26.8231 N   0  0  0  0  0  0  0  0  0  0  0  0
   10.8612  -16.1253   27.8741 C   0  0  1  0  0  0  0  0  0  0  0  0
   11.1923  -15.1511   28.9713 C   0  0  0  0  0  0  0  0  0  0  0  0
   10.8251  -13.4364   28.5378 S   0  0  0  0  0  0  0  0  0  0  0  0
   10.1175  -17.3202   28.3693 C   0  0  0  0  0  0  0  0  0  0  0  0
   10.5953  -18.2173   29.2925 O   0  0  0  0  0  0  0  0  0  0  0  0
    8.9638  -17.5208   27.9063 O   0  0  0  0  0  0  0  0  0  0  0  0
  2  1  1  6
  2  7  1  0
  3  4  1  0
  3  2  1  0
  4  5  1  0
  5  6  2  0
  7  8  2  0
  9  5  1  0
 10 11  1  0
 11 12  1  0
 12 13  1  0
 14 13  1  1
 14 16  1  0
 15  7  1  0
 15 14  1  0
 16 18  1  0
 16 17  2  0
 18 19  1  0
 19 22  1  0
 19 20  1  1
 21 20  1  0
 22 24  2  0
 22 23  1  0
M  END
$$$$
