EMC.pdb
     RDKit          3D

 24 23  0  0  1  0  0  0  0  0999 V2000
    8.3178  -16.3433   19.8709 N   0  0  0  0  0  0  0  0  0  0  0  0
    9.3900  -16.5988   20.7780 C   0  0  1  0  0  0  0  0  0  0  0  0
   10.7272  -16.6490   20.1598 C   0  0  0  0  0  0  0  0  0  0  0  0
   11.2639  -18.0290   20.0350 C   0  0  0  0  0  0  0  0  0  0  0  0
   12.6346  -18.2101   19.6111 C   0  0  0  0  0  0  0  0  0  0  0  0
   13.6385  -17.9723   20.2884 O   0  0  0  0  0  0  0  0  0  0  0  0
    9.3082  -15.6190   21.9107 C   0  0  0  0  0  0  0  0  0  0  0  0
    9.6561  -14.4173   21.7522 O   0  0  0  0  0  0  0  0  0  0  0  0
   12.8464  -18.7003   18.3137 O   0  0  0  0  0  0  0  0  0  0  0  0
    6.5301  -11.2018   25.9238 C   0  0  0  0  0  0  0  0  0  0  0  0
    5.8240  -12.8608   25.7173 S   0  0  0  0  0  0  0  0  0  0  0  0
    7.1206  -14.1285   26.0568 C   0  0  0  0  0  0  0  0  0  0  0  0
    7.2633  -14.9833   24.8240 C   0  0  0  0  0  0  0  0  0  0  0  0
    8.6759  -15.1141   24.3308 C   0  0  2  0  0  0  0  0  0  0  0  0
    8.8512  -15.9612   23.1954 N   0  0  0  0  0  0  0  0  0  0  0  0
    9.5424  -15.6370   25.3993 C   0  0  0  0  0  0  0  0  0  0  0  0
    9.6107  -16.8718   25.5550 O   0  0  0  0  0  0  0  0  0  0  0  0
   10.2915  -14.7783   26.2437 N   0  0  0  0  0  0  0  0  0  0  0  0
   10.7263  -15.2094   27.5373 C   0  0  1  0  0  0  0  0  0  0  0  0
   10.2725  -14.2111   28.5668 C   0  0  0  0  0  0  0  0  0  0  0  0
   10.6232  -14.7254   30.2625 S   0  0  0  0  0  0  0  0  0  0  0  0
   10.3083  -16.6041   27.8633 C   0  0  0  0  0  0  0  0  0  0  0  0
    9.0156  -17.0660   27.8304 O   0  0  0  0  0  0  0  0  0  0  0  0
   11.2093  -17.4197   28.1929 O   0  0  0  0  0  0  0  0  0  0  0  0
  2  1  1  6
  2  7  1  0
  3  4  1  0
  3  2  1  0
  4  5  1  0
  5  6  2  0
  7  8  2  0
  9  5  1  0
 10 11  1  0
 11 12  1  0
 12 13  1  0
 14 13  1  1
 14 16  1  0
 15  7  1  0
 15 14  1  0
 16 18  1  0
 16 17  2  0
 18 19  1  0
 19 22  1  0
 19 20  1  1
 21 20  1  0
 22 24  2  0
 22 23  1  0
M  END
$$$$
