EMC.pdb
     RDKit          3D

 24 23  0  0  1  0  0  0  0  0999 V2000
    9.9458  -15.8737   19.3649 N   0  0  0  0  0  0  0  0  0  0  0  0
    8.8272  -16.1833   20.1959 C   0  0  1  0  0  0  0  0  0  0  0  0
    8.3791  -17.5863   20.1360 C   0  0  0  0  0  0  0  0  0  0  0  0
    9.4654  -18.5611   20.4147 C   0  0  0  0  0  0  0  0  0  0  0  0
    9.1848  -19.9744   20.2918 C   0  0  0  0  0  0  0  0  0  0  0  0
    8.1045  -20.4713   19.9614 O   0  0  0  0  0  0  0  0  0  0  0  0
    9.1222  -15.7251   21.5933 C   0  0  0  0  0  0  0  0  0  0  0  0
   10.2776  -15.8480   22.0834 O   0  0  0  0  0  0  0  0  0  0  0  0
   10.2327  -20.8642   20.5727 O   0  0  0  0  0  0  0  0  0  0  0  0
    6.3580  -11.2737   27.6133 C   0  0  0  0  0  0  0  0  0  0  0  0
    5.9789  -12.2315   26.1192 S   0  0  0  0  0  0  0  0  0  0  0  0
    7.4281  -13.2849   25.6788 C   0  0  0  0  0  0  0  0  0  0  0  0
    7.1641  -13.8885   24.3236 C   0  0  0  0  0  0  0  0  0  0  0  0
    8.3056  -14.7018   23.7836 C   0  0  2  0  0  0  0  0  0  0  0  0
    8.1577  -15.1427   22.4341 N   0  0  0  0  0  0  0  0  0  0  0  0
    8.5128  -15.9012   24.6109 C   0  0  0  0  0  0  0  0  0  0  0  0
    8.1569  -17.0047   24.1534 O   0  0  0  0  0  0  0  0  0  0  0  0
    9.1011  -15.8298   25.8995 N   0  0  0  0  0  0  0  0  0  0  0  0
    9.8701  -16.9180   26.4219 C   0  0  1  0  0  0  0  0  0  0  0  0
   10.9732  -17.2497   25.4548 C   0  0  0  0  0  0  0  0  0  0  0  0
   12.1264  -18.4888   26.0854 S   0  0  0  0  0  0  0  0  0  0  0  0
   10.3711  -16.6727   27.8057 C   0  0  0  0  0  0  0  0  0  0  0  0
   10.5689  -17.6452   28.7547 O   0  0  0  0  0  0  0  0  0  0  0  0
   10.6333  -15.4839   28.1276 O   0  0  0  0  0  0  0  0  0  0  0  0
  2  1  1  6
  2  7  1  0
  3  4  1  0
  3  2  1  0
  4  5  1  0
  5  6  2  0
  7  8  2  0
  9  5  1  0
 10 11  1  0
 11 12  1  0
 12 13  1  0
 14 13  1  1
 14 16  1  0
 15  7  1  0
 15 14  1  0
 16 18  1  0
 16 17  2  0
 18 19  1  0
 19 22  1  0
 19 20  1  6
 21 20  1  0
 22 24  2  0
 22 23  1  0
M  END
$$$$
