EMC.pdb
     RDKit          3D

 24 23  0  0  1  0  0  0  0  0999 V2000
    8.1518  -13.0165   19.1345 N   0  0  0  0  0  0  0  0  0  0  0  0
    7.5593  -14.0276   19.9496 C   0  0  1  0  0  0  0  0  0  0  0  0
    7.5091  -15.3677   19.3378 C   0  0  0  0  0  0  0  0  0  0  0  0
    7.8841  -15.3700   17.8999 C   0  0  0  0  0  0  0  0  0  0  0  0
    7.7789  -16.6034   17.1522 C   0  0  0  0  0  0  0  0  0  0  0  0
    8.6335  -17.0614   16.3886 O   0  0  0  0  0  0  0  0  0  0  0  0
    8.2331  -14.0238   21.2896 C   0  0  0  0  0  0  0  0  0  0  0  0
    9.4767  -13.8390   21.3873 O   0  0  0  0  0  0  0  0  0  0  0  0
    6.6007  -17.3495   17.3062 O   0  0  0  0  0  0  0  0  0  0  0  0
    6.8276  -11.6574   27.6328 C   0  0  0  0  0  0  0  0  0  0  0  0
    5.7594  -11.7918   26.1719 S   0  0  0  0  0  0  0  0  0  0  0  0
    6.7717  -12.2921   24.7129 C   0  0  0  0  0  0  0  0  0  0  0  0
    7.1636  -13.7355   24.8971 C   0  0  0  0  0  0  0  0  0  0  0  0
    8.0734  -14.2636   23.8251 C   0  0  2  0  0  0  0  0  0  0  0  0
    7.5453  -14.2219   22.4996 N   0  0  0  0  0  0  0  0  0  0  0  0
    8.4317  -15.6634   24.1048 C   0  0  0  0  0  0  0  0  0  0  0  0
    8.1550  -16.5275   23.2502 O   0  0  0  0  0  0  0  0  0  0  0  0
    9.0766  -16.0451   25.3090 N   0  0  0  0  0  0  0  0  0  0  0  0
   10.0081  -17.1314   25.3358 C   0  0  1  0  0  0  0  0  0  0  0  0
   11.0374  -16.9235   24.2589 C   0  0  0  0  0  0  0  0  0  0  0  0
   12.3351  -18.1801   24.2600 S   0  0  0  0  0  0  0  0  0  0  0  0
   10.6168  -17.3506   26.6802 C   0  0  0  0  0  0  0  0  0  0  0  0
   10.9810  -16.3534   27.5511 O   0  0  0  0  0  0  0  0  0  0  0  0
   10.8104  -18.5404   27.0445 O   0  0  0  0  0  0  0  0  0  0  0  0
  2  1  1  6
  2  7  1  0
  3  4  1  0
  3  2  1  0
  4  5  1  0
  5  6  2  0
  7  8  2  0
  9  5  1  0
 10 11  1  0
 11 12  1  0
 12 13  1  0
 14 13  1  1
 14 16  1  0
 15  7  1  0
 15 14  1  0
 16 18  1  0
 16 17  2  0
 18 19  1  0
 19 22  1  0
 19 20  1  6
 21 20  1  0
 22 24  2  0
 22 23  1  0
M  END
$$$$
