EMC.pdb
     RDKit          3D

 24 23  0  0  1  0  0  0  0  0999 V2000
    9.3723  -15.5884   19.8727 N   0  0  0  0  0  0  0  0  0  0  0  0
    8.9019  -16.5101   20.8561 C   0  0  1  0  0  0  0  0  0  0  0  0
    9.4434  -17.8758   20.7358 C   0  0  0  0  0  0  0  0  0  0  0  0
   10.5114  -17.9947   19.7096 C   0  0  0  0  0  0  0  0  0  0  0  0
   11.0865  -19.2953   19.4467 C   0  0  0  0  0  0  0  0  0  0  0  0
   10.8187  -20.3393   20.0479 O   0  0  0  0  0  0  0  0  0  0  0  0
    9.1163  -15.9160   22.2165 C   0  0  0  0  0  0  0  0  0  0  0  0
   10.2358  -16.0026   22.7905 O   0  0  0  0  0  0  0  0  0  0  0  0
   12.0346  -19.3821   18.4162 O   0  0  0  0  0  0  0  0  0  0  0  0
    8.4475  -11.4865   27.3870 C   0  0  0  0  0  0  0  0  0  0  0  0
    7.1072  -11.9207   26.2430 S   0  0  0  0  0  0  0  0  0  0  0  0
    6.8860  -13.7521   26.2204 C   0  0  0  0  0  0  0  0  0  0  0  0
    6.8417  -14.1931   24.7802 C   0  0  0  0  0  0  0  0  0  0  0  0
    8.1002  -14.8624   24.3067 C   0  0  2  0  0  0  0  0  0  0  0  0
    8.1115  -15.2397   22.9301 N   0  0  0  0  0  0  0  0  0  0  0  0
    8.3559  -16.0807   25.0919 C   0  0  0  0  0  0  0  0  0  0  0  0
    7.7588  -17.1271   24.7724 O   0  0  0  0  0  0  0  0  0  0  0  0
    9.2550  -16.0899   26.1887 N   0  0  0  0  0  0  0  0  0  0  0  0
    9.7773  -17.3181   26.7056 C   0  0  1  0  0  0  0  0  0  0  0  0
   10.6903  -17.9341   25.6812 C   0  0  0  0  0  0  0  0  0  0  0  0
   11.5824  -19.3789   26.2974 S   0  0  0  0  0  0  0  0  0  0  0  0
   10.4277  -17.1651   28.0396 C   0  0  0  0  0  0  0  0  0  0  0  0
   10.8195  -18.2038   28.8476 O   0  0  0  0  0  0  0  0  0  0  0  0
   10.6339  -15.9946   28.4557 O   0  0  0  0  0  0  0  0  0  0  0  0
  2  1  1  6
  2  7  1  0
  3  4  1  0
  3  2  1  0
  4  5  1  0
  5  6  2  0
  7  8  2  0
  9  5  1  0
 10 11  1  0
 11 12  1  0
 12 13  1  0
 14 13  1  1
 14 16  1  0
 15  7  1  0
 15 14  1  0
 16 18  1  0
 16 17  2  0
 18 19  1  0
 19 22  1  0
 19 20  1  6
 21 20  1  0
 22 24  2  0
 22 23  1  0
M  END
$$$$
