EMC.pdb
     RDKit          3D

 24 23  0  0  1  0  0  0  0  0999 V2000
    8.2019  -17.9426   21.0901 N   0  0  0  0  0  0  0  0  0  0  0  0
    9.4952  -17.3524   20.9593 C   0  0  1  0  0  0  0  0  0  0  0  0
    9.7946  -16.8033   19.6245 C   0  0  0  0  0  0  0  0  0  0  0  0
    8.5931  -16.6781   18.7591 C   0  0  0  0  0  0  0  0  0  0  0  0
    8.6658  -17.1413   17.3911 C   0  0  0  0  0  0  0  0  0  0  0  0
    8.5271  -16.4433   16.3828 O   0  0  0  0  0  0  0  0  0  0  0  0
    9.6809  -16.3480   22.0576 C   0  0  0  0  0  0  0  0  0  0  0  0
   10.7214  -15.6378   22.1148 O   0  0  0  0  0  0  0  0  0  0  0  0
    8.9165  -18.5067   17.1877 O   0  0  0  0  0  0  0  0  0  0  0  0
    5.7015  -11.3797   25.6739 C   0  0  0  0  0  0  0  0  0  0  0  0
    5.8974  -13.1107   26.1822 S   0  0  0  0  0  0  0  0  0  0  0  0
    7.6008  -13.6852   25.7679 C   0  0  0  0  0  0  0  0  0  0  0  0
    7.4856  -14.7235   24.6819 C   0  0  0  0  0  0  0  0  0  0  0  0
    8.8066  -15.2315   24.1790 C   0  0  2  0  0  0  0  0  0  0  0  0
    8.7347  -16.1333   23.0749 N   0  0  0  0  0  0  0  0  0  0  0  0
    9.5303  -15.9239   25.2574 C   0  0  0  0  0  0  0  0  0  0  0  0
    9.6006  -17.1677   25.2195 O   0  0  0  0  0  0  0  0  0  0  0  0
   10.1416  -15.2161   26.3237 N   0  0  0  0  0  0  0  0  0  0  0  0
   10.9932  -15.8831   27.2609 C   0  0  1  0  0  0  0  0  0  0  0  0
   11.4925  -14.8846   28.2689 C   0  0  0  0  0  0  0  0  0  0  0  0
   10.1657  -13.9708   29.0857 S   0  0  0  0  0  0  0  0  0  0  0  0
   10.3519  -17.0713   27.8955 C   0  0  0  0  0  0  0  0  0  0  0  0
   11.0206  -18.0492   28.5899 O   0  0  0  0  0  0  0  0  0  0  0  0
    9.1026  -17.1859   27.7869 O   0  0  0  0  0  0  0  0  0  0  0  0
  2  1  1  6
  2  7  1  0
  3  4  1  0
  3  2  1  0
  4  5  1  0
  5  6  2  0
  7  8  2  0
  9  5  1  0
 10 11  1  0
 11 12  1  0
 12 13  1  0
 14 13  1  1
 14 16  1  0
 15  7  1  0
 15 14  1  0
 16 18  1  0
 16 17  2  0
 18 19  1  0
 19 22  1  0
 19 20  1  1
 21 20  1  0
 22 24  2  0
 22 23  1  0
M  END
$$$$
