EMC.pdb
     RDKit          3D

 24 23  0  0  1  0  0  0  0  0999 V2000
    8.2592  -14.7223   19.5156 N   0  0  0  0  0  0  0  0  0  0  0  0
    7.4857  -15.2393   20.5983 C   0  0  1  0  0  0  0  0  0  0  0  0
    7.0208  -16.6270   20.4217 C   0  0  0  0  0  0  0  0  0  0  0  0
    8.1021  -17.5596   20.0107 C   0  0  0  0  0  0  0  0  0  0  0  0
    7.7716  -18.9444   19.7568 C   0  0  0  0  0  0  0  0  0  0  0  0
    6.6428  -19.4403   19.8113 O   0  0  0  0  0  0  0  0  0  0  0  0
    8.2467  -15.0379   21.8749 C   0  0  0  0  0  0  0  0  0  0  0  0
    9.5069  -15.0837   21.8903 O   0  0  0  0  0  0  0  0  0  0  0  0
    8.8266  -19.8049   19.4176 O   0  0  0  0  0  0  0  0  0  0  0  0
    7.1814  -11.6692   27.8138 C   0  0  0  0  0  0  0  0  0  0  0  0
    6.0177  -11.8117   26.4286 S   0  0  0  0  0  0  0  0  0  0  0  0
    6.8697  -12.5830   24.9854 C   0  0  0  0  0  0  0  0  0  0  0  0
    7.3860  -13.9300   25.4210 C   0  0  0  0  0  0  0  0  0  0  0  0
    8.2345  -14.6214   24.3924 C   0  0  2  0  0  0  0  0  0  0  0  0
    7.6265  -14.7915   23.1123 N   0  0  0  0  0  0  0  0  0  0  0  0
    8.6236  -15.9586   24.8683 C   0  0  0  0  0  0  0  0  0  0  0  0
    7.7732  -16.8693   24.8357 O   0  0  0  0  0  0  0  0  0  0  0  0
    9.9276  -16.2299   25.3559 N   0  0  0  0  0  0  0  0  0  0  0  0
   10.2722  -17.5228   25.8638 C   0  0  1  0  0  0  0  0  0  0  0  0
   11.5443  -17.9859   25.2080 C   0  0  0  0  0  0  0  0  0  0  0  0
   11.6035  -17.6335   23.4374 S   0  0  0  0  0  0  0  0  0  0  0  0
   10.3415  -17.5699   27.3534 C   0  0  0  0  0  0  0  0  0  0  0  0
   10.6940  -18.6737   28.0901 O   0  0  0  0  0  0  0  0  0  0  0  0
   10.0559  -16.5174   27.9829 O   0  0  0  0  0  0  0  0  0  0  0  0
  2  1  1  6
  2  7  1  0
  3  4  1  0
  3  2  1  0
  4  5  1  0
  5  6  2  0
  7  8  2  0
  9  5  1  0
 10 11  1  0
 11 12  1  0
 12 13  1  0
 14 13  1  1
 14 16  1  0
 15  7  1  0
 15 14  1  0
 16 18  1  0
 16 17  2  0
 18 19  1  0
 19 22  1  0
 19 20  1  6
 21 20  1  0
 22 24  2  0
 22 23  1  0
M  END
$$$$
