EMC.pdb
     RDKit          3D

 24 23  0  0  1  0  0  0  0  0999 V2000
    8.7321  -15.4135   19.5517 N   0  0  0  0  0  0  0  0  0  0  0  0
    7.8460  -15.6530   20.6449 C   0  0  1  0  0  0  0  0  0  0  0  0
    7.2831  -17.0141   20.7008 C   0  0  0  0  0  0  0  0  0  0  0  0
    8.2324  -18.0604   20.2402 C   0  0  0  0  0  0  0  0  0  0  0  0
    7.8183  -19.4455   20.2783 C   0  0  0  0  0  0  0  0  0  0  0  0
    7.0551  -19.9944   19.4787 O   0  0  0  0  0  0  0  0  0  0  0  0
    8.5307  -15.2529   21.9180 C   0  0  0  0  0  0  0  0  0  0  0  0
    9.7871  -15.1611   21.9750 O   0  0  0  0  0  0  0  0  0  0  0  0
    8.3280  -20.2401   21.3162 O   0  0  0  0  0  0  0  0  0  0  0  0
    5.8735  -11.1312   25.9719 C   0  0  0  0  0  0  0  0  0  0  0  0
    6.8213  -12.0106   27.2454 S   0  0  0  0  0  0  0  0  0  0  0  0
    8.0562  -13.1187   26.4386 C   0  0  0  0  0  0  0  0  0  0  0  0
    7.4483  -13.6315   25.1587 C   0  0  0  0  0  0  0  0  0  0  0  0
    8.3673  -14.5034   24.3517 C   0  0  2  0  0  0  0  0  0  0  0  0
    7.8395  -14.9609   23.1069 N   0  0  0  0  0  0  0  0  0  0  0  0
    8.7478  -15.6962   25.1255 C   0  0  0  0  0  0  0  0  0  0  0  0
    7.9098  -16.6095   25.2558 O   0  0  0  0  0  0  0  0  0  0  0  0
   10.0301  -15.8273   25.7172 N   0  0  0  0  0  0  0  0  0  0  0  0
   10.4228  -17.0399   26.3683 C   0  0  1  0  0  0  0  0  0  0  0  0
   11.7874  -17.4412   25.8793 C   0  0  0  0  0  0  0  0  0  0  0  0
   13.0374  -16.1599   26.1214 S   0  0  0  0  0  0  0  0  0  0  0  0
   10.3440  -16.9603   27.8561 C   0  0  0  0  0  0  0  0  0  0  0  0
   10.5853  -18.0052   28.7137 O   0  0  0  0  0  0  0  0  0  0  0  0
   10.0336  -15.8507   28.3640 O   0  0  0  0  0  0  0  0  0  0  0  0
  2  1  1  6
  2  7  1  0
  3  4  1  0
  3  2  1  0
  4  5  1  0
  5  6  2  0
  7  8  2  0
  9  5  1  0
 10 11  1  0
 11 12  1  0
 12 13  1  0
 14 13  1  1
 14 16  1  0
 15  7  1  0
 15 14  1  0
 16 18  1  0
 16 17  2  0
 18 19  1  0
 19 22  1  0
 19 20  1  1
 21 20  1  0
 22 24  2  0
 22 23  1  0
M  END
$$$$
