EMC.pdb
     RDKit          3D

 24 23  0  0  1  0  0  0  0  0999 V2000
    8.3272  -14.8108   19.1674 N   0  0  0  0  0  0  0  0  0  0  0  0
    7.4053  -15.1015   20.2179 C   0  0  1  0  0  0  0  0  0  0  0  0
    6.7485  -16.4175   20.1206 C   0  0  0  0  0  0  0  0  0  0  0  0
    7.7016  -17.5322   19.8815 C   0  0  0  0  0  0  0  0  0  0  0  0
    7.1917  -18.8832   19.8038 C   0  0  0  0  0  0  0  0  0  0  0  0
    6.1566  -19.2338   19.2304 O   0  0  0  0  0  0  0  0  0  0  0  0
    8.0910  -14.8885   21.5348 C   0  0  0  0  0  0  0  0  0  0  0  0
    9.3374  -15.0436   21.6471 O   0  0  0  0  0  0  0  0  0  0  0  0
    7.9383  -19.8890   20.4360 O   0  0  0  0  0  0  0  0  0  0  0  0
    6.2984  -10.6852   26.7951 C   0  0  0  0  0  0  0  0  0  0  0  0
    6.3605  -12.4178   27.3316 S   0  0  0  0  0  0  0  0  0  0  0  0
    7.6100  -13.3294   26.3261 C   0  0  0  0  0  0  0  0  0  0  0  0
    7.0358  -13.5280   24.9471 C   0  0  0  0  0  0  0  0  0  0  0  0
    7.9514  -14.2520   24.0019 C   0  0  2  0  0  0  0  0  0  0  0  0
    7.4114  -14.5123   22.7065 N   0  0  0  0  0  0  0  0  0  0  0  0
    8.3516  -15.5481   24.5728 C   0  0  0  0  0  0  0  0  0  0  0  0
    7.5433  -16.4951   24.5158 O   0  0  0  0  0  0  0  0  0  0  0  0
    9.6201  -15.7405   25.1775 N   0  0  0  0  0  0  0  0  0  0  0  0
   10.0251  -17.0290   25.6508 C   0  0  1  0  0  0  0  0  0  0  0  0
   11.2726  -17.4503   24.9237 C   0  0  0  0  0  0  0  0  0  0  0  0
   12.6330  -16.2753   25.1008 S   0  0  0  0  0  0  0  0  0  0  0  0
   10.1740  -17.0903   27.1340 C   0  0  0  0  0  0  0  0  0  0  0  0
   10.4295  -18.2321   27.8526 O   0  0  0  0  0  0  0  0  0  0  0  0
   10.0575  -16.0131   27.7757 O   0  0  0  0  0  0  0  0  0  0  0  0
  2  1  1  6
  2  7  1  0
  3  4  1  0
  3  2  1  0
  4  5  1  0
  5  6  2  0
  7  8  2  0
  9  5  1  0
 10 11  1  0
 11 12  1  0
 12 13  1  0
 14 13  1  1
 14 16  1  0
 15  7  1  0
 15 14  1  0
 16 18  1  0
 16 17  2  0
 18 19  1  0
 19 22  1  0
 19 20  1  6
 21 20  1  0
 22 24  2  0
 22 23  1  0
M  END
$$$$
