EMC.pdb
     RDKit          3D

 24 23  0  0  1  0  0  0  0  0999 V2000
    6.9482  -17.7995   21.4117 N   0  0  0  0  0  0  0  0  0  0  0  0
    8.2713  -17.3542   21.1132 C   0  0  1  0  0  0  0  0  0  0  0  0
    8.3915  -16.5430   19.8884 C   0  0  0  0  0  0  0  0  0  0  0  0
    9.8001  -16.2924   19.4871 C   0  0  0  0  0  0  0  0  0  0  0  0
   10.2752  -16.8296   18.2313 C   0  0  0  0  0  0  0  0  0  0  0  0
   10.3912  -18.0267   17.9544 O   0  0  0  0  0  0  0  0  0  0  0  0
    8.8348  -16.6697   22.3230 C   0  0  0  0  0  0  0  0  0  0  0  0
   10.0331  -16.2773   22.3442 O   0  0  0  0  0  0  0  0  0  0  0  0
   10.6377  -15.9103   17.2354 O   0  0  0  0  0  0  0  0  0  0  0  0
    6.9320  -10.9320   26.0727 C   0  0  0  0  0  0  0  0  0  0  0  0
    6.4295  -12.6711   26.2008 S   0  0  0  0  0  0  0  0  0  0  0  0
    7.3118  -13.6630   24.9197 C   0  0  0  0  0  0  0  0  0  0  0  0
    7.5060  -15.0537   25.4666 C   0  0  0  0  0  0  0  0  0  0  0  0
    8.5299  -15.8648   24.7252 C   0  0  2  0  0  0  0  0  0  0  0  0
    8.0882  -16.4245   23.4886 N   0  0  0  0  0  0  0  0  0  0  0  0
    8.9996  -16.9804   25.5623 C   0  0  0  0  0  0  0  0  0  0  0  0
    8.2248  -17.9355   25.7652 O   0  0  0  0  0  0  0  0  0  0  0  0
   10.2972  -16.9925   26.1348 N   0  0  0  0  0  0  0  0  0  0  0  0
   10.7315  -18.0800   26.9577 C   0  0  1  0  0  0  0  0  0  0  0  0
   12.1476  -18.4355   26.5961 C   0  0  0  0  0  0  0  0  0  0  0  0
   12.4506  -18.4362   24.8154 S   0  0  0  0  0  0  0  0  0  0  0  0
   10.5572  -17.8193   28.4164 C   0  0  0  0  0  0  0  0  0  0  0  0
   10.0635  -16.6564   28.9543 O   0  0  0  0  0  0  0  0  0  0  0  0
   10.8871  -18.7354   29.2148 O   0  0  0  0  0  0  0  0  0  0  0  0
  2  1  1  1
  2  7  1  0
  3  4  1  0
  3  2  1  0
  4  5  1  0
  5  6  2  0
  7  8  2  0
  9  5  1  0
 10 11  1  0
 11 12  1  0
 12 13  1  0
 14 13  1  1
 14 16  1  0
 15  7  1  0
 15 14  1  0
 16 18  1  0
 16 17  2  0
 18 19  1  0
 19 22  1  0
 19 20  1  1
 21 20  1  0
 22 24  2  0
 22 23  1  0
M  END
$$$$
