EMC.pdb
     RDKit          3D

 24 23  0  0  1  0  0  0  0  0999 V2000
    9.1369  -17.5550   20.8404 N   0  0  0  0  0  0  0  0  0  0  0  0
   10.4152  -17.2085   21.3728 C   0  0  1  0  0  0  0  0  0  0  0  0
   11.3647  -16.6498   20.3934 C   0  0  0  0  0  0  0  0  0  0  0  0
   11.1243  -17.1260   19.0065 C   0  0  0  0  0  0  0  0  0  0  0  0
   12.2156  -17.7328   18.2769 C   0  0  0  0  0  0  0  0  0  0  0  0
   13.4143  -17.6330   18.5532 O   0  0  0  0  0  0  0  0  0  0  0  0
   10.2172  -16.3197   22.5647 C   0  0  0  0  0  0  0  0  0  0  0  0
   11.1809  -15.6698   23.0536 O   0  0  0  0  0  0  0  0  0  0  0  0
   11.8859  -18.5055   17.1532 O   0  0  0  0  0  0  0  0  0  0  0  0
    6.7795  -11.4064   26.5839 C   0  0  0  0  0  0  0  0  0  0  0  0
    7.2066  -12.5603   25.2499 S   0  0  0  0  0  0  0  0  0  0  0  0
    6.9159  -14.2917   25.8169 C   0  0  0  0  0  0  0  0  0  0  0  0
    7.2080  -15.2108   24.6590 C   0  0  0  0  0  0  0  0  0  0  0  0
    8.6711  -15.3704   24.3590 C   0  0  2  0  0  0  0  0  0  0  0  0
    8.9769  -16.1532   23.2053 N   0  0  0  0  0  0  0  0  0  0  0  0
    9.3603  -15.9935   25.5004 C   0  0  0  0  0  0  0  0  0  0  0  0
    9.4089  -17.2378   25.5551 O   0  0  0  0  0  0  0  0  0  0  0  0
    9.9626  -15.2195   26.5250 N   0  0  0  0  0  0  0  0  0  0  0  0
   10.7999  -15.8268   27.5142 C   0  0  1  0  0  0  0  0  0  0  0  0
   11.3386  -14.7586   28.4258 C   0  0  0  0  0  0  0  0  0  0  0  0
   10.0538  -13.6867   29.1063 S   0  0  0  0  0  0  0  0  0  0  0  0
   10.1261  -16.9319   28.2564 C   0  0  0  0  0  0  0  0  0  0  0  0
   10.7577  -17.8138   29.0983 O   0  0  0  0  0  0  0  0  0  0  0  0
    8.8838  -17.0655   28.0997 O   0  0  0  0  0  0  0  0  0  0  0  0
  2  1  1  6
  2  7  1  0
  3  4  1  0
  3  2  1  0
  4  5  1  0
  5  6  2  0
  7  8  2  0
  9  5  1  0
 10 11  1  0
 11 12  1  0
 12 13  1  0
 14 13  1  1
 14 16  1  0
 15  7  1  0
 15 14  1  0
 16 18  1  0
 16 17  2  0
 18 19  1  0
 19 22  1  0
 19 20  1  1
 21 20  1  0
 22 24  2  0
 22 23  1  0
M  END
$$$$
