EMC.pdb
     RDKit          3D

 24 23  0  0  1  0  0  0  0  0999 V2000
   10.4254  -15.9548   19.9674 N   0  0  0  0  0  0  0  0  0  0  0  0
   10.2446  -16.7573   21.1340 C   0  0  1  0  0  0  0  0  0  0  0  0
   11.2475  -17.8221   21.3164 C   0  0  0  0  0  0  0  0  0  0  0  0
   11.5704  -18.5448   20.0589 C   0  0  0  0  0  0  0  0  0  0  0  0
   12.5102  -19.6430   20.1055 C   0  0  0  0  0  0  0  0  0  0  0  0
   13.1434  -20.0114   21.0986 O   0  0  0  0  0  0  0  0  0  0  0  0
   10.1285  -15.8558   22.3271 C   0  0  0  0  0  0  0  0  0  0  0  0
   11.0791  -15.0963   22.6583 O   0  0  0  0  0  0  0  0  0  0  0  0
   12.7239  -20.3565   18.9165 O   0  0  0  0  0  0  0  0  0  0  0  0
    5.8901  -11.8892   25.7122 C   0  0  0  0  0  0  0  0  0  0  0  0
    7.4671  -12.6333   26.2153 S   0  0  0  0  0  0  0  0  0  0  0  0
    7.2879  -14.4681   26.2846 C   0  0  0  0  0  0  0  0  0  0  0  0
    7.4120  -14.9966   24.8789 C   0  0  0  0  0  0  0  0  0  0  0  0
    8.8296  -15.1692   24.4135 C   0  0  2  0  0  0  0  0  0  0  0  0
    8.9831  -15.7956   23.1401 N   0  0  0  0  0  0  0  0  0  0  0  0
    9.5909  -15.9707   25.3851 C   0  0  0  0  0  0  0  0  0  0  0  0
   10.4929  -16.7178   24.9587 O   0  0  0  0  0  0  0  0  0  0  0  0
    9.3246  -15.9116   26.7769 N   0  0  0  0  0  0  0  0  0  0  0  0
   10.3893  -15.8327   27.7301 C   0  0  1  0  0  0  0  0  0  0  0  0
   10.4001  -14.4591   28.3429 C   0  0  0  0  0  0  0  0  0  0  0  0
   11.6601  -14.2580   29.6215 S   0  0  0  0  0  0  0  0  0  0  0  0
   10.3454  -16.9192   28.7516 C   0  0  0  0  0  0  0  0  0  0  0  0
   11.4445  -17.5696   29.2562 O   0  0  0  0  0  0  0  0  0  0  0  0
    9.2149  -17.2655   29.1848 O   0  0  0  0  0  0  0  0  0  0  0  0
  2  1  1  6
  2  7  1  0
  3  4  1  0
  3  2  1  0
  4  5  1  0
  5  6  2  0
  7  8  2  0
  9  5  1  0
 10 11  1  0
 11 12  1  0
 12 13  1  0
 14 13  1  1
 14 16  1  0
 15  7  1  0
 15 14  1  0
 16 18  1  0
 16 17  2  0
 18 19  1  0
 19 22  1  0
 19 20  1  1
 21 20  1  0
 22 24  2  0
 22 23  1  0
M  END
$$$$
