EMC.pdb
     RDKit          3D

 24 23  0  0  1  0  0  0  0  0999 V2000
    7.0281  -15.5082   20.4911 N   0  0  0  0  0  0  0  0  0  0  0  0
    7.9419  -16.4936   20.9724 C   0  0  1  0  0  0  0  0  0  0  0  0
    9.0597  -16.8008   20.0618 C   0  0  0  0  0  0  0  0  0  0  0  0
    8.6995  -16.6691   18.6263 C   0  0  0  0  0  0  0  0  0  0  0  0
    9.6387  -17.1245   17.6254 C   0  0  0  0  0  0  0  0  0  0  0  0
   10.1235  -18.2570   17.5506 O   0  0  0  0  0  0  0  0  0  0  0  0
    8.4002  -16.0980   22.3446 C   0  0  0  0  0  0  0  0  0  0  0  0
    9.5681  -15.6620   22.5354 O   0  0  0  0  0  0  0  0  0  0  0  0
   10.0370  -16.1984   16.6496 O   0  0  0  0  0  0  0  0  0  0  0  0
    7.1670  -11.1824   25.9384 C   0  0  0  0  0  0  0  0  0  0  0  0
    7.6934  -12.9126   26.0889 S   0  0  0  0  0  0  0  0  0  0  0  0
    6.3597  -14.0193   25.4566 C   0  0  0  0  0  0  0  0  0  0  0  0
    6.7841  -15.4430   25.7088 C   0  0  0  0  0  0  0  0  0  0  0  0
    7.9220  -15.9043   24.8437 C   0  0  2  0  0  0  0  0  0  0  0  0
    7.5832  -16.1836   23.4855 N   0  0  0  0  0  0  0  0  0  0  0  0
    8.5224  -17.1270   25.4007 C   0  0  0  0  0  0  0  0  0  0  0  0
    8.1561  -18.2274   24.9441 O   0  0  0  0  0  0  0  0  0  0  0  0
    9.4958  -17.0810   26.4312 N   0  0  0  0  0  0  0  0  0  0  0  0
   10.1148  -18.2767   26.9167 C   0  0  1  0  0  0  0  0  0  0  0  0
   11.2046  -18.6877   25.9649 C   0  0  0  0  0  0  0  0  0  0  0  0
   12.4840  -17.4294   25.7589 S   0  0  0  0  0  0  0  0  0  0  0  0
   10.5930  -18.1608   28.3252 C   0  0  0  0  0  0  0  0  0  0  0  0
   11.2055  -19.1653   29.0332 O   0  0  0  0  0  0  0  0  0  0  0  0
   10.4230  -17.0580   28.9087 O   0  0  0  0  0  0  0  0  0  0  0  0
  2  1  1  6
  2  7  1  0
  3  4  1  0
  3  2  1  0
  4  5  1  0
  5  6  2  0
  7  8  2  0
  9  5  1  0
 10 11  1  0
 11 12  1  0
 12 13  1  0
 14 13  1  1
 14 16  1  0
 15  7  1  0
 15 14  1  0
 16 18  1  0
 16 17  2  0
 18 19  1  0
 19 22  1  0
 19 20  1  6
 21 20  1  0
 22 24  2  0
 22 23  1  0
M  END
$$$$
