TQM.pdb
     RDKit          3D

 25 24  0  0  1  0  0  0  0  0999 V2000
   18.7363  -35.6598   -9.4222 C   0  0  0  0  0  0  0  0  0  0  0  0
   19.3997  -35.8086  -10.7804 C   0  0  1  0  0  0  0  0  0  0  0  0
   18.4348  -35.5523  -11.7488 O   0  0  0  0  0  0  0  0  0  0  0  0
   20.5411  -34.8442  -10.8332 C   0  0  2  0  0  0  0  0  0  0  0  0
   21.1556  -34.7150  -12.1255 N   0  0  0  0  0  0  0  0  0  0  0  0
   21.5817  -35.1454   -9.7932 C   0  0  0  0  0  0  0  0  0  0  0  0
   22.4037  -36.0843   -9.9491 O   0  0  0  0  0  0  0  0  0  0  0  0
   25.9290  -31.8495   -8.7252 N   0  0  0  0  0  0  0  0  0  0  0  0
   26.0662  -32.6229   -7.5482 C   0  0  0  0  0  0  0  0  0  0  0  0
   27.0861  -32.4697   -6.8471 O   0  0  0  0  0  0  0  0  0  0  0  0
   25.0331  -33.5874   -7.1558 C   0  0  0  0  0  0  0  0  0  0  0  0
   23.8742  -33.6872   -8.0858 C   0  0  0  0  0  0  0  0  0  0  0  0
   22.7756  -34.6051   -7.6615 C   0  0  2  0  0  0  0  0  0  0  0  0
   21.6737  -34.3854   -8.6039 N   0  0  0  0  0  0  0  0  0  0  0  0
   22.2446  -34.2936   -6.2957 C   0  0  0  0  0  0  0  0  0  0  0  0
   21.4503  -33.3226   -6.1876 O   0  0  0  0  0  0  0  0  0  0  0  0
   23.0530  -38.9878   -2.3385 C   0  0  0  0  0  0  0  0  0  0  0  0
   23.2916  -37.5644   -1.2480 S   0  0  0  0  0  0  0  0  0  0  0  0
   23.2168  -36.0164   -2.2211 C   0  0  0  0  0  0  0  0  0  0  0  0
   21.9403  -35.9464   -3.0079 C   0  0  0  0  0  0  0  0  0  0  0  0
   21.9146  -34.7483   -3.8920 C   0  0  2  0  0  0  0  0  0  0  0  0
   22.6162  -35.0570   -5.1623 N   0  0  0  0  0  0  0  0  0  0  0  0
   22.6333  -33.6145   -3.2824 C   0  0  0  0  0  0  0  0  0  0  0  0
   23.7095  -33.1804   -3.7415 O   0  0  0  0  0  0  0  0  0  0  0  0
   22.0916  -32.9939   -2.1402 O   0  0  0  0  0  0  0  0  0  0  0  0
  2  1  1  1
  3  2  1  0
  4  5  1  6
  4  6  1  0
  4  2  1  0
  6 14  1  0
  7  6  2  0
  9  8  1  0
 10  9  2  0
 11  9  1  0
 12 11  1  0
 13 12  1  6
 14 13  1  0
 15 22  1  0
 15 13  1  0
 16 15  2  0
 18 17  1  0
 18 19  1  0
 19 20  1  0
 21 20  1  1
 21 22  1  0
 21 23  1  0
 23 25  1  0
 24 23  2  0
M  END
$$$$
