TQM.pdb
     RDKit          3D

 25 24  0  0  1  0  0  0  0  0999 V2000
   16.9468  -16.1458  -16.4979 C   0  0  0  0  0  0  0  0  0  0  0  0
   17.5668  -14.8089  -16.8653 C   0  0  1  0  0  0  0  0  0  0  0  0
   17.9559  -14.8793  -18.1988 O   0  0  0  0  0  0  0  0  0  0  0  0
   16.5388  -13.7516  -16.6189 C   0  0  2  0  0  0  0  0  0  0  0  0
   15.2961  -13.9527  -17.3116 N   0  0  0  0  0  0  0  0  0  0  0  0
   17.0691  -12.3744  -16.8966 C   0  0  0  0  0  0  0  0  0  0  0  0
   16.4953  -11.6095  -17.7135 O   0  0  0  0  0  0  0  0  0  0  0  0
   15.4764   -7.8173  -15.5129 N   0  0  0  0  0  0  0  0  0  0  0  0
   16.7789   -7.2924  -15.6872 C   0  0  0  0  0  0  0  0  0  0  0  0
   16.9523   -6.0648  -15.5516 O   0  0  0  0  0  0  0  0  0  0  0  0
   17.9062   -8.1694  -16.0211 C   0  0  0  0  0  0  0  0  0  0  0  0
   17.5796   -9.6206  -16.0929 C   0  0  0  0  0  0  0  0  0  0  0  0
   18.7017  -10.5220  -16.4903 C   0  0  2  0  0  0  0  0  0  0  0  0
   18.2304  -11.8900  -16.2508 N   0  0  0  0  0  0  0  0  0  0  0  0
   19.9298  -10.3354  -15.6528 C   0  0  0  0  0  0  0  0  0  0  0  0
   19.8639  -10.6696  -14.4407 O   0  0  0  0  0  0  0  0  0  0  0  0
   27.6620  -10.6452  -14.9986 C   0  0  0  0  0  0  0  0  0  0  0  0
   26.2325  -10.5851  -16.1054 S   0  0  0  0  0  0  0  0  0  0  0  0
   24.7435  -10.0772  -15.1705 C   0  0  0  0  0  0  0  0  0  0  0  0
   23.5253  -10.1280  -16.0462 C   0  0  0  0  0  0  0  0  0  0  0  0
   22.2997   -9.7473  -15.2909 C   0  0  2  0  0  0  0  0  0  0  0  0
   21.1249   -9.8035  -16.1952 N   0  0  0  0  0  0  0  0  0  0  0  0
   22.3812   -8.3605  -14.7973 C   0  0  0  0  0  0  0  0  0  0  0  0
   22.1878   -7.3747  -15.5378 O   0  0  0  0  0  0  0  0  0  0  0  0
   22.6883   -8.1321  -13.4420 O   0  0  0  0  0  0  0  0  0  0  0  0
  2  1  1  6
  3  2  1  0
  4  5  1  6
  4  6  1  0
  4  2  1  0
  6 14  1  0
  7  6  2  0
  9  8  1  0
 10  9  2  0
 11  9  1  0
 12 11  1  0
 13 12  1  1
 14 13  1  0
 15 22  1  0
 15 13  1  0
 16 15  2  0
 18 17  1  0
 18 19  1  0
 19 20  1  0
 21 20  1  6
 21 22  1  0
 21 23  1  0
 23 25  1  0
 24 23  2  0
M  END
$$$$
