TQM.pdb
     RDKit          3D

 25 24  0  0  1  0  0  0  0  0999 V2000
   16.8706  -11.8286  -14.9934 C   0  0  0  0  0  0  0  0  0  0  0  0
   17.6717  -13.0913  -15.2594 C   0  0  1  0  0  0  0  0  0  0  0  0
   16.8635  -14.1764  -14.9372 O   0  0  0  0  0  0  0  0  0  0  0  0
   18.0717  -13.0769  -16.7000 C   0  0  2  0  0  0  0  0  0  0  0  0
   18.5651  -14.3317  -17.1963 N   0  0  0  0  0  0  0  0  0  0  0  0
   19.0516  -11.9797  -17.0018 C   0  0  0  0  0  0  0  0  0  0  0  0
   20.2877  -12.1515  -16.8467 O   0  0  0  0  0  0  0  0  0  0  0  0
   16.6015   -7.6343  -20.0640 N   0  0  0  0  0  0  0  0  0  0  0  0
   17.3820   -8.5865  -20.7615 C   0  0  0  0  0  0  0  0  0  0  0  0
   17.0607   -8.8837  -21.9293 O   0  0  0  0  0  0  0  0  0  0  0  0
   18.5466   -9.2151  -20.1287 C   0  0  0  0  0  0  0  0  0  0  0  0
   18.8510   -8.7407  -18.7503 C   0  0  0  0  0  0  0  0  0  0  0  0
   19.5939   -9.7002  -17.8803 C   0  0  2  0  0  0  0  0  0  0  0  0
   18.6198  -10.7168  -17.4698 N   0  0  0  0  0  0  0  0  0  0  0  0
   20.1170   -9.0714  -16.6252 C   0  0  0  0  0  0  0  0  0  0  0  0
   19.3158   -8.9389  -15.6630 O   0  0  0  0  0  0  0  0  0  0  0  0
   26.6081  -10.7050  -15.8553 C   0  0  0  0  0  0  0  0  0  0  0  0
   25.2914  -10.3069  -14.6807 S   0  0  0  0  0  0  0  0  0  0  0  0
   24.0708   -9.1944  -15.4688 C   0  0  0  0  0  0  0  0  0  0  0  0
   22.8775   -9.0016  -14.5788 C   0  0  0  0  0  0  0  0  0  0  0  0
   21.8790   -8.0896  -15.2023 C   0  0  2  0  0  0  0  0  0  0  0  0
   21.4609   -8.6388  -16.5156 N   0  0  0  0  0  0  0  0  0  0  0  0
   22.4582   -6.7606  -15.4703 C   0  0  0  0  0  0  0  0  0  0  0  0
   22.6601   -6.3402  -16.6278 O   0  0  0  0  0  0  0  0  0  0  0  0
   22.7986   -5.9297  -14.3853 O   0  0  0  0  0  0  0  0  0  0  0  0
  2  1  1  6
  3  2  1  0
  4  5  1  1
  4  6  1  0
  4  2  1  0
  6 14  1  0
  7  6  2  0
  9  8  1  0
 10  9  2  0
 11  9  1  0
 12 11  1  0
 13 12  1  6
 14 13  1  0
 15 22  1  0
 15 13  1  0
 16 15  2  0
 18 17  1  0
 18 19  1  0
 19 20  1  0
 21 20  1  6
 21 22  1  0
 21 23  1  0
 23 25  1  0
 24 23  2  0
M  END
$$$$
