TQM.pdb
     RDKit          3D

 25 24  0  0  1  0  0  0  0  0999 V2000
   22.3640  -22.9399  -14.6949 C   0  0  0  0  0  0  0  0  0  0  0  0
   23.1575  -24.2052  -14.9707 C   0  0  1  0  0  0  0  0  0  0  0  0
   22.3755  -25.0226  -15.7798 O   0  0  0  0  0  0  0  0  0  0  0  0
   24.4391  -23.8004  -15.6258 C   0  0  2  0  0  0  0  0  0  0  0  0
   25.1891  -24.8860  -16.1945 N   0  0  0  0  0  0  0  0  0  0  0  0
   25.3114  -22.9941  -14.7071 C   0  0  0  0  0  0  0  0  0  0  0  0
   26.3443  -23.4909  -14.1894 O   0  0  0  0  0  0  0  0  0  0  0  0
   26.5004  -19.0735  -16.7563 N   0  0  0  0  0  0  0  0  0  0  0  0
   27.4297  -18.6817  -15.7638 C   0  0  0  0  0  0  0  0  0  0  0  0
   28.5429  -18.2497  -16.1237 O   0  0  0  0  0  0  0  0  0  0  0  0
   27.0964  -18.7797  -14.3387 C   0  0  0  0  0  0  0  0  0  0  0  0
   25.8025  -19.4521  -14.0361 C   0  0  0  0  0  0  0  0  0  0  0  0
   25.8987  -20.8582  -13.5431 C   0  0  2  0  0  0  0  0  0  0  0  0
   25.0027  -21.6503  -14.3919 N   0  0  0  0  0  0  0  0  0  0  0  0
   25.4154  -21.0212  -12.1344 C   0  0  0  0  0  0  0  0  0  0  0  0
   24.1881  -21.2435  -11.9623 O   0  0  0  0  0  0  0  0  0  0  0  0
   28.1416  -18.4354   -6.7507 C   0  0  0  0  0  0  0  0  0  0  0  0
   27.2198  -19.8333   -6.0666 S   0  0  0  0  0  0  0  0  0  0  0  0
   26.0182  -20.4497   -7.3015 C   0  0  0  0  0  0  0  0  0  0  0  0
   26.6085  -20.4093   -8.6811 C   0  0  0  0  0  0  0  0  0  0  0  0
   25.6891  -21.0194   -9.6812 C   0  0  2  0  0  0  0  0  0  0  0  0
   26.2983  -20.9301  -11.0310 N   0  0  0  0  0  0  0  0  0  0  0  0
   24.4098  -20.2898   -9.7510 C   0  0  0  0  0  0  0  0  0  0  0  0
   24.2555  -19.2772  -10.4638 O   0  0  0  0  0  0  0  0  0  0  0  0
   23.3177  -20.7465   -8.9880 O   0  0  0  0  0  0  0  0  0  0  0  0
  2  1  1  6
  3  2  1  0
  4  5  1  1
  4  6  1  0
  4  2  1  0
  6 14  1  0
  7  6  2  0
  9  8  1  0
 10  9  2  0
 11  9  1  0
 12 11  1  0
 13 12  1  6
 14 13  1  0
 15 22  1  0
 15 13  1  0
 16 15  2  0
 18 17  1  0
 18 19  1  0
 19 20  1  0
 21 20  1  1
 21 22  1  0
 21 23  1  0
 23 25  1  0
 24 23  2  0
M  END
$$$$
