TQM.pdb
     RDKit          3D

 25 24  0  0  1  0  0  0  0  0999 V2000
   27.2288  -18.6407  -16.1177 C   0  0  0  0  0  0  0  0  0  0  0  0
   27.5658  -19.8994  -16.8979 C   0  0  1  0  0  0  0  0  0  0  0  0
   28.8777  -19.7779  -17.3436 O   0  0  0  0  0  0  0  0  0  0  0  0
   27.3732  -21.0643  -15.9806 C   0  0  2  0  0  0  0  0  0  0  0  0
   27.7583  -22.3325  -16.5353 N   0  0  0  0  0  0  0  0  0  0  0  0
   25.9707  -21.1365  -15.4485 C   0  0  0  0  0  0  0  0  0  0  0  0
   25.0226  -21.5418  -16.1685 O   0  0  0  0  0  0  0  0  0  0  0  0
   24.4490  -20.8796   -9.3083 N   0  0  0  0  0  0  0  0  0  0  0  0
   23.1919  -20.7419   -9.9433 C   0  0  0  0  0  0  0  0  0  0  0  0
   22.1677  -20.6758   -9.2347 O   0  0  0  0  0  0  0  0  0  0  0  0
   23.0891  -20.6782  -11.4051 C   0  0  0  0  0  0  0  0  0  0  0  0
   24.3812  -20.7961  -12.1363 C   0  0  0  0  0  0  0  0  0  0  0  0
   24.2879  -20.8051  -13.6265 C   0  0  2  0  0  0  0  0  0  0  0  0
   25.6672  -20.7518  -14.1218 N   0  0  0  0  0  0  0  0  0  0  0  0
   23.5840  -19.6033  -14.1783 C   0  0  0  0  0  0  0  0  0  0  0  0
   24.1543  -18.4875  -14.0556 O   0  0  0  0  0  0  0  0  0  0  0  0
   23.9601  -17.0734  -18.9741 C   0  0  0  0  0  0  0  0  0  0  0  0
   22.2294  -16.5515  -18.9069 S   0  0  0  0  0  0  0  0  0  0  0  0
   21.5180  -16.9667  -17.2728 C   0  0  0  0  0  0  0  0  0  0  0  0
   22.2039  -18.1659  -16.6856 C   0  0  0  0  0  0  0  0  0  0  0  0
   21.7181  -18.4456  -15.3060 C   0  0  2  0  0  0  0  0  0  0  0  0
   22.3238  -19.7081  -14.8156 N   0  0  0  0  0  0  0  0  0  0  0  0
   20.2576  -18.6451  -15.2802 C   0  0  0  0  0  0  0  0  0  0  0  0
   19.4568  -17.7028  -15.1123 O   0  0  0  0  0  0  0  0  0  0  0  0
   19.7400  -19.9438  -15.4505 O   0  0  0  0  0  0  0  0  0  0  0  0
  2  1  1  1
  3  2  1  0
  4  5  1  6
  4  6  1  0
  4  2  1  0
  6 14  1  0
  7  6  2  0
  9  8  1  0
 10  9  2  0
 11  9  1  0
 12 11  1  0
 13 12  1  1
 14 13  1  0
 15 22  1  0
 15 13  1  0
 16 15  2  0
 18 17  1  0
 18 19  1  0
 19 20  1  0
 21 20  1  6
 21 22  1  0
 21 23  1  0
 23 25  1  0
 24 23  2  0
M  END
$$$$
