TQM.pdb
     RDKit          3D

 25 24  0  0  1  0  0  0  0  0999 V2000
   22.1543  -24.2841  -14.3905 C   0  0  0  0  0  0  0  0  0  0  0  0
   20.8172  -24.6537  -13.7723 C   0  0  1  0  0  0  0  0  0  0  0  0
   19.8785  -24.6968  -14.7976 O   0  0  0  0  0  0  0  0  0  0  0  0
   20.9855  -25.9724  -13.0879 C   0  0  2  0  0  0  0  0  0  0  0  0
   21.3331  -27.0593  -13.9609 N   0  0  0  0  0  0  0  0  0  0  0  0
   19.7853  -26.3357  -12.2616 C   0  0  0  0  0  0  0  0  0  0  0  0
   19.0313  -27.2859  -12.5936 O   0  0  0  0  0  0  0  0  0  0  0  0
   19.2201  -24.8249   -6.1853 N   0  0  0  0  0  0  0  0  0  0  0  0
   17.9314  -25.3279   -6.4827 C   0  0  0  0  0  0  0  0  0  0  0  0
   17.0904  -25.3996   -5.5645 O   0  0  0  0  0  0  0  0  0  0  0  0
   17.5858  -25.7584   -7.8417 C   0  0  0  0  0  0  0  0  0  0  0  0
   18.6498  -25.5478   -8.8622 C   0  0  0  0  0  0  0  0  0  0  0  0
   18.3468  -26.0551  -10.2335 C   0  0  2  0  0  0  0  0  0  0  0  0
   19.4610  -25.6234  -11.0836 N   0  0  0  0  0  0  0  0  0  0  0  0
   17.1019  -25.4608  -10.8179 C   0  0  0  0  0  0  0  0  0  0  0  0
   17.1817  -24.2999  -11.2988 O   0  0  0  0  0  0  0  0  0  0  0  0
   12.2034  -28.0735  -14.3470 C   0  0  0  0  0  0  0  0  0  0  0  0
   11.3439  -27.0397  -13.1368 S   0  0  0  0  0  0  0  0  0  0  0  0
   12.4956  -25.7906  -12.4568 C   0  0  0  0  0  0  0  0  0  0  0  0
   13.6638  -26.4554  -11.7883 C   0  0  0  0  0  0  0  0  0  0  0  0
   14.7037  -25.4618  -11.4022 C   0  0  2  0  0  0  0  0  0  0  0  0
   15.8765  -26.1703  -10.8334 N   0  0  0  0  0  0  0  0  0  0  0  0
   14.2142  -24.5523  -10.3502 C   0  0  0  0  0  0  0  0  0  0  0  0
   14.2422  -24.8536   -9.1395 O   0  0  0  0  0  0  0  0  0  0  0  0
   13.6945  -23.2960  -10.7175 O   0  0  0  0  0  0  0  0  0  0  0  0
  2  1  1  6
  3  2  1  0
  4  5  1  6
  4  6  1  0
  4  2  1  0
  6 14  1  0
  7  6  2  0
  9  8  1  0
 10  9  2  0
 11  9  1  0
 12 11  1  0
 13 12  1  1
 14 13  1  0
 15 22  1  0
 15 13  1  0
 16 15  2  0
 18 17  1  0
 18 19  1  0
 19 20  1  0
 21 20  1  1
 21 22  1  0
 21 23  1  0
 23 25  1  0
 24 23  2  0
M  END
$$$$
