TQM.pdb
     RDKit          3D

 25 24  0  0  1  0  0  0  0  0999 V2000
   28.5502  -19.7002  -16.7083 C   0  0  0  0  0  0  0  0  0  0  0  0
   27.3465  -20.6199  -16.8177 C   0  0  1  0  0  0  0  0  0  0  0  0
   27.5103  -21.3907  -17.9638 O   0  0  0  0  0  0  0  0  0  0  0  0
   27.2929  -21.4434  -15.5709 C   0  0  2  0  0  0  0  0  0  0  0  0
   26.3892  -22.5589  -15.6292 N   0  0  0  0  0  0  0  0  0  0  0  0
   27.0066  -20.6084  -14.3560 C   0  0  0  0  0  0  0  0  0  0  0  0
   27.7734  -19.6713  -14.0161 O   0  0  0  0  0  0  0  0  0  0  0  0
   21.3077  -19.2206  -13.1531 N   0  0  0  0  0  0  0  0  0  0  0  0
   21.7061  -20.4357  -12.5473 C   0  0  0  0  0  0  0  0  0  0  0  0
   20.8295  -21.2712  -12.2490 O   0  0  0  0  0  0  0  0  0  0  0  0
   23.1202  -20.7126  -12.2728 C   0  0  0  0  0  0  0  0  0  0  0  0
   24.0621  -19.6188  -12.6393 C   0  0  0  0  0  0  0  0  0  0  0  0
   25.5136  -19.9245  -12.4680 C   0  0  2  0  0  0  0  0  0  0  0  0
   25.8671  -20.8460  -13.5527 N   0  0  0  0  0  0  0  0  0  0  0  0
   25.8170  -20.6328  -11.1832 C   0  0  0  0  0  0  0  0  0  0  0  0
   25.7152  -21.8877  -11.1725 O   0  0  0  0  0  0  0  0  0  0  0  0
   28.0035  -17.9952   -5.4366 C   0  0  0  0  0  0  0  0  0  0  0  0
   28.4754  -19.7406   -5.3832 S   0  0  0  0  0  0  0  0  0  0  0  0
   27.4349  -20.7016   -6.5419 C   0  0  0  0  0  0  0  0  0  0  0  0
   27.2889  -19.9771   -7.8484 C   0  0  0  0  0  0  0  0  0  0  0  0
   26.4158  -20.7306   -8.7905 C   0  0  2  0  0  0  0  0  0  0  0  0
   26.2046  -19.9260  -10.0190 N   0  0  0  0  0  0  0  0  0  0  0  0
   25.0806  -20.9690   -8.2125 C   0  0  0  0  0  0  0  0  0  0  0  0
   24.0704  -20.3343   -8.5784 O   0  0  0  0  0  0  0  0  0  0  0  0
   24.9323  -21.9472   -7.2102 O   0  0  0  0  0  0  0  0  0  0  0  0
  2  1  1  1
  3  2  1  0
  4  5  1  6
  4  6  1  0
  4  2  1  0
  6 14  1  0
  7  6  2  0
  9  8  1  0
 10  9  2  0
 11  9  1  0
 12 11  1  0
 13 12  1  1
 14 13  1  0
 15 22  1  0
 15 13  1  0
 16 15  2  0
 18 17  1  0
 18 19  1  0
 19 20  1  0
 21 20  1  1
 21 22  1  0
 21 23  1  0
 23 25  1  0
 24 23  2  0
M  END
$$$$
