TQM.pdb
     RDKit          3D

 25 24  0  0  1  0  0  0  0  0999 V2000
   27.5988  -18.1124  -15.7868 C   0  0  0  0  0  0  0  0  0  0  0  0
   27.8459  -19.1327  -16.8844 C   0  0  1  0  0  0  0  0  0  0  0  0
   28.8732  -18.6461  -17.6859 O   0  0  0  0  0  0  0  0  0  0  0  0
   28.1925  -20.4294  -16.2256 C   0  0  2  0  0  0  0  0  0  0  0  0
   28.6519  -21.4526  -17.1236 N   0  0  0  0  0  0  0  0  0  0  0  0
   27.0662  -20.9505  -15.3800 C   0  0  0  0  0  0  0  0  0  0  0  0
   26.2024  -21.7302  -15.8570 O   0  0  0  0  0  0  0  0  0  0  0  0
   26.1809  -19.6751   -9.3795 N   0  0  0  0  0  0  0  0  0  0  0  0
   25.3469  -20.8081   -9.5316 C   0  0  0  0  0  0  0  0  0  0  0  0
   24.5988  -21.1314   -8.5876 O   0  0  0  0  0  0  0  0  0  0  0  0
   25.3581  -21.5908  -10.7721 C   0  0  0  0  0  0  0  0  0  0  0  0
   26.3349  -21.1348  -11.7996 C   0  0  0  0  0  0  0  0  0  0  0  0
   25.8361  -21.1093  -13.2067 C   0  0  2  0  0  0  0  0  0  0  0  0
   26.9371  -20.5834  -14.0203 N   0  0  0  0  0  0  0  0  0  0  0  0
   24.6745  -20.1835  -13.4014 C   0  0  0  0  0  0  0  0  0  0  0  0
   24.9245  -18.9570  -13.5383 O   0  0  0  0  0  0  0  0  0  0  0  0
   23.9374  -17.4919  -17.8054 C   0  0  0  0  0  0  0  0  0  0  0  0
   22.3004  -18.2571  -17.8865 S   0  0  0  0  0  0  0  0  0  0  0  0
   21.7255  -18.6755  -16.2003 C   0  0  0  0  0  0  0  0  0  0  0  0
   22.7429  -19.5182  -15.4876 C   0  0  0  0  0  0  0  0  0  0  0  0
   22.3351  -19.7842  -14.0803 C   0  0  2  0  0  0  0  0  0  0  0  0
   23.3415  -20.6604  -13.4317 N   0  0  0  0  0  0  0  0  0  0  0  0
   21.0512  -20.5065  -14.0197 C   0  0  0  0  0  0  0  0  0  0  0  0
   20.9789  -21.7497  -14.0999 O   0  0  0  0  0  0  0  0  0  0  0  0
   19.8587  -19.7732  -13.8661 O   0  0  0  0  0  0  0  0  0  0  0  0
  2  1  1  1
  3  2  1  0
  4  5  1  6
  4  6  1  0
  4  2  1  0
  6 14  1  0
  7  6  2  0
  9  8  1  0
 10  9  2  0
 11  9  1  0
 12 11  1  0
 13 12  1  1
 14 13  1  0
 15 22  1  0
 15 13  1  0
 16 15  2  0
 18 17  1  0
 18 19  1  0
 19 20  1  0
 21 20  1  6
 21 22  1  0
 21 23  1  0
 23 25  1  0
 24 23  2  0
M  END
$$$$
