TQM.pdb
     RDKit          3D

 25 24  0  0  1  0  0  0  0  0999 V2000
   21.6091  -18.1180  -13.9784 C   0  0  0  0  0  0  0  0  0  0  0  0
   21.3773  -18.4343  -15.4457 C   0  0  1  0  0  0  0  0  0  0  0  0
   20.5676  -17.4313  -15.9681 O   0  0  0  0  0  0  0  0  0  0  0  0
   22.7152  -18.5009  -16.1098 C   0  0  2  0  0  0  0  0  0  0  0  0
   22.6675  -18.5955  -17.5427 N   0  0  0  0  0  0  0  0  0  0  0  0
   23.5696  -19.6000  -15.5467 C   0  0  0  0  0  0  0  0  0  0  0  0
   23.3069  -20.8087  -15.7740 O   0  0  0  0  0  0  0  0  0  0  0  0
   29.5880  -19.6082  -15.5492 N   0  0  0  0  0  0  0  0  0  0  0  0
   29.3366  -20.7558  -14.7604 C   0  0  0  0  0  0  0  0  0  0  0  0
   30.2848  -21.5233  -14.5014 O   0  0  0  0  0  0  0  0  0  0  0  0
   27.9896  -21.0424  -14.2552 C   0  0  0  0  0  0  0  0  0  0  0  0
   26.9309  -20.0954  -14.7026 C   0  0  0  0  0  0  0  0  0  0  0  0
   25.5456  -20.3992  -14.2358 C   0  0  2  0  0  0  0  0  0  0  0  0
   24.6975  -19.3152  -14.7423 N   0  0  0  0  0  0  0  0  0  0  0  0
   25.4133  -20.3899  -12.7435 C   0  0  0  0  0  0  0  0  0  0  0  0
   25.3790  -19.2698  -12.1693 O   0  0  0  0  0  0  0  0  0  0  0  0
   28.9709  -20.1286   -8.1370 C   0  0  0  0  0  0  0  0  0  0  0  0
   27.3633  -19.3723   -7.7970 S   0  0  0  0  0  0  0  0  0  0  0  0
   26.0270  -20.4178   -8.4827 C   0  0  0  0  0  0  0  0  0  0  0  0
   26.2105  -20.6107   -9.9600 C   0  0  0  0  0  0  0  0  0  0  0  0
   25.1256  -21.4534  -10.5346 C   0  0  2  0  0  0  0  0  0  0  0  0
   25.3293  -21.5907  -11.9978 N   0  0  0  0  0  0  0  0  0  0  0  0
   23.8039  -20.8255  -10.3538 C   0  0  0  0  0  0  0  0  0  0  0  0
   23.1989  -20.2600  -11.2873 O   0  0  0  0  0  0  0  0  0  0  0  0
   23.1960  -20.8612   -9.0840 O   0  0  0  0  0  0  0  0  0  0  0  0
  2  1  1  1
  3  2  1  0
  4  5  1  6
  4  6  1  0
  4  2  1  0
  6 14  1  0
  7  6  2  0
  9  8  1  0
 10  9  2  0
 11  9  1  0
 12 11  1  0
 13 12  1  1
 14 13  1  0
 15 22  1  0
 15 13  1  0
 16 15  2  0
 18 17  1  0
 18 19  1  0
 19 20  1  0
 21 20  1  6
 21 22  1  0
 21 23  1  0
 23 25  1  0
 24 23  2  0
M  END
$$$$
