TQM.pdb
     RDKit          3D

 25 24  0  0  1  0  0  0  0  0999 V2000
   17.2666  -13.6498  -14.9152 C   0  0  0  0  0  0  0  0  0  0  0  0
   17.9600  -14.6292  -15.8461 C   0  0  1  0  0  0  0  0  0  0  0  0
   17.2700  -15.8348  -15.7760 O   0  0  0  0  0  0  0  0  0  0  0  0
   17.9461  -14.0349  -17.2180 C   0  0  2  0  0  0  0  0  0  0  0  0
   18.3213  -14.9426  -18.2668 N   0  0  0  0  0  0  0  0  0  0  0  0
   18.7709  -12.7825  -17.2979 C   0  0  0  0  0  0  0  0  0  0  0  0
   19.9770  -12.8201  -17.6520 O   0  0  0  0  0  0  0  0  0  0  0  0
   16.1695   -7.0861  -17.8741 N   0  0  0  0  0  0  0  0  0  0  0  0
   17.5446   -6.7729  -17.7586 C   0  0  0  0  0  0  0  0  0  0  0  0
   17.8979   -5.5816  -17.8649 O   0  0  0  0  0  0  0  0  0  0  0  0
   18.5392   -7.8242  -17.5192 C   0  0  0  0  0  0  0  0  0  0  0  0
   17.9864   -9.2009  -17.3894 C   0  0  0  0  0  0  0  0  0  0  0  0
   18.9901  -10.2914  -17.2080 C   0  0  2  0  0  0  0  0  0  0  0  0
   18.2215  -11.5191  -16.9782 N   0  0  0  0  0  0  0  0  0  0  0  0
   19.8601  -10.0948  -16.0043 C   0  0  0  0  0  0  0  0  0  0  0  0
   19.3431  -10.2944  -14.8737 O   0  0  0  0  0  0  0  0  0  0  0  0
   27.3190  -10.2146  -15.7362 C   0  0  0  0  0  0  0  0  0  0  0  0
   25.7833  -11.0521  -15.2756 S   0  0  0  0  0  0  0  0  0  0  0  0
   24.3965   -9.8582  -15.2877 C   0  0  0  0  0  0  0  0  0  0  0  0
   23.1193  -10.5254  -14.8670 C   0  0  0  0  0  0  0  0  0  0  0  0
   21.9825   -9.5634  -14.8614 C   0  0  2  0  0  0  0  0  0  0  0  0
   21.2146   -9.6991  -16.1235 N   0  0  0  0  0  0  0  0  0  0  0  0
   22.4583   -8.1690  -14.8095 C   0  0  0  0  0  0  0  0  0  0  0  0
   22.6856   -7.5796  -13.7333 O   0  0  0  0  0  0  0  0  0  0  0  0
   22.6660   -7.4702  -16.0145 O   0  0  0  0  0  0  0  0  0  0  0  0
  2  1  1  1
  3  2  1  0
  4  5  1  6
  4  6  1  0
  4  2  1  0
  6 14  1  0
  7  6  2  0
  9  8  1  0
 10  9  2  0
 11  9  1  0
 12 11  1  0
 13 12  1  1
 14 13  1  0
 15 22  1  0
 15 13  1  0
 16 15  2  0
 18 17  1  0
 18 19  1  0
 19 20  1  0
 21 20  1  6
 21 22  1  0
 21 23  1  0
 23 25  1  0
 24 23  2  0
M  END
$$$$
