TQM.pdb
     RDKit          3D

 25 24  0  0  1  0  0  0  0  0999 V2000
   26.9163  -15.0402  -15.4963 C   0  0  0  0  0  0  0  0  0  0  0  0
   26.7460  -16.0147  -16.6487 C   0  0  1  0  0  0  0  0  0  0  0  0
   27.8128  -16.9060  -16.6055 O   0  0  0  0  0  0  0  0  0  0  0  0
   25.4227  -16.6894  -16.4773 C   0  0  2  0  0  0  0  0  0  0  0  0
   25.2053  -17.8100  -17.3499 N   0  0  0  0  0  0  0  0  0  0  0  0
   24.2791  -15.7218  -16.5829 C   0  0  0  0  0  0  0  0  0  0  0  0
   23.9519  -15.2205  -17.6888 O   0  0  0  0  0  0  0  0  0  0  0  0
   18.9081  -16.1964  -13.8972 N   0  0  0  0  0  0  0  0  0  0  0  0
   19.6413  -16.8950  -14.8855 C   0  0  0  0  0  0  0  0  0  0  0  0
   19.2269  -18.0095  -15.2618 O   0  0  0  0  0  0  0  0  0  0  0  0
   20.8652  -16.3252  -15.4591 C   0  0  0  0  0  0  0  0  0  0  0  0
   21.2492  -14.9873  -14.9295 C   0  0  0  0  0  0  0  0  0  0  0  0
   22.4487  -14.3579  -15.5576 C   0  0  2  0  0  0  0  0  0  0  0  0
   23.5313  -15.3407  -15.4445 N   0  0  0  0  0  0  0  0  0  0  0  0
   22.9080  -13.1249  -14.8412 C   0  0  0  0  0  0  0  0  0  0  0  0
   23.7994  -13.2605  -13.9623 O   0  0  0  0  0  0  0  0  0  0  0  0
   27.7659  -11.0178  -15.7819 C   0  0  0  0  0  0  0  0  0  0  0  0
   26.8462   -9.5360  -16.2620 S   0  0  0  0  0  0  0  0  0  0  0  0
   25.2689   -9.4567  -15.3376 C   0  0  0  0  0  0  0  0  0  0  0  0
   24.4605  -10.7016  -15.5612 C   0  0  0  0  0  0  0  0  0  0  0  0
   23.1960  -10.6743  -14.7752 C   0  0  2  0  0  0  0  0  0  0  0  0
   22.3657  -11.8501  -15.1344 N   0  0  0  0  0  0  0  0  0  0  0  0
   22.3907   -9.4810  -15.0934 C   0  0  0  0  0  0  0  0  0  0  0  0
   22.4726   -8.4240  -14.4351 O   0  0  0  0  0  0  0  0  0  0  0  0
   21.4940   -9.5285  -16.1783 O   0  0  0  0  0  0  0  0  0  0  0  0
  2  1  1  1
  3  2  1  0
  4  5  1  6
  4  6  1  0
  4  2  1  0
  6 14  1  0
  7  6  2  0
  9  8  1  0
 10  9  2  0
 11  9  1  0
 12 11  1  0
 13 12  1  1
 14 13  1  0
 15 22  1  0
 15 13  1  0
 16 15  2  0
 18 17  1  0
 18 19  1  0
 19 20  1  0
 21 20  1  6
 21 22  1  0
 21 23  1  0
 23 25  1  0
 24 23  2  0
M  END
$$$$
