TQM.pdb
     RDKit          3D

 25 24  0  0  1  0  0  0  0  0999 V2000
   26.0836  -13.0713  -15.8188 C   0  0  0  0  0  0  0  0  0  0  0  0
   25.1378  -11.9140  -16.0892 C   0  0  1  0  0  0  0  0  0  0  0  0
   25.8542  -10.9379  -16.7736 O   0  0  0  0  0  0  0  0  0  0  0  0
   23.9870  -12.4472  -16.8809 C   0  0  2  0  0  0  0  0  0  0  0  0
   24.3517  -13.0586  -18.1290 N   0  0  0  0  0  0  0  0  0  0  0  0
   22.9268  -11.4073  -17.1043 C   0  0  0  0  0  0  0  0  0  0  0  0
   22.8186  -10.8165  -18.2093 O   0  0  0  0  0  0  0  0  0  0  0  0
   17.3671  -11.2901  -14.3726 N   0  0  0  0  0  0  0  0  0  0  0  0
   17.4063  -10.0115  -14.9775 C   0  0  0  0  0  0  0  0  0  0  0  0
   16.3859   -9.2959  -14.9307 O   0  0  0  0  0  0  0  0  0  0  0  0
   18.6196   -9.5320  -15.6480 C   0  0  0  0  0  0  0  0  0  0  0  0
   19.7503  -10.5007  -15.6793 C   0  0  0  0  0  0  0  0  0  0  0  0
   21.0139  -10.0071  -16.3031 C   0  0  2  0  0  0  0  0  0  0  0  0
   22.0148  -11.0560  -16.0821 N   0  0  0  0  0  0  0  0  0  0  0  0
   21.5416   -8.7632  -15.6561 C   0  0  0  0  0  0  0  0  0  0  0  0
   22.3046   -8.9020  -14.6642 O   0  0  0  0  0  0  0  0  0  0  0  0
   24.4359   -1.6106  -16.2963 C   0  0  0  0  0  0  0  0  0  0  0  0
   23.7993   -3.1101  -17.0825 S   0  0  0  0  0  0  0  0  0  0  0  0
   23.0197   -4.1879  -15.8257 C   0  0  0  0  0  0  0  0  0  0  0  0
   22.4488   -5.4201  -16.4651 C   0  0  0  0  0  0  0  0  0  0  0  0
   21.8339   -6.3208  -15.4509 C   0  0  2  0  0  0  0  0  0  0  0  0
   21.2005   -7.4749  -16.1348 N   0  0  0  0  0  0  0  0  0  0  0  0
   20.7619   -5.6374  -14.7044 C   0  0  0  0  0  0  0  0  0  0  0  0
   19.5668   -5.6797  -15.0613 O   0  0  0  0  0  0  0  0  0  0  0  0
   21.0910   -4.9084  -13.5453 O   0  0  0  0  0  0  0  0  0  0  0  0
  2  1  1  6
  3  2  1  0
  4  5  1  6
  4  6  1  0
  4  2  1  0
  6 14  1  0
  7  6  2  0
  9  8  1  0
 10  9  2  0
 11  9  1  0
 12 11  1  0
 13 12  1  1
 14 13  1  0
 15 22  1  0
 15 13  1  0
 16 15  2  0
 18 17  1  0
 18 19  1  0
 19 20  1  0
 21 20  1  6
 21 22  1  0
 21 23  1  0
 23 25  1  0
 24 23  2  0
M  END
$$$$
