TQM.pdb
     RDKit          3D

 25 24  0  0  1  0  0  0  0  0999 V2000
   28.4236  -22.2908  -15.4598 C   0  0  0  0  0  0  0  0  0  0  0  0
   28.9516  -21.1873  -16.3600 C   0  0  1  0  0  0  0  0  0  0  0  0
   29.7117  -21.7878  -17.3580 O   0  0  0  0  0  0  0  0  0  0  0  0
   27.7727  -20.4434  -16.9009 C   0  0  2  0  0  0  0  0  0  0  0  0
   28.0931  -19.4557  -17.8940 N   0  0  0  0  0  0  0  0  0  0  0  0
   26.9444  -19.8296  -15.8090 C   0  0  0  0  0  0  0  0  0  0  0  0
   27.1222  -18.6374  -15.4504 O   0  0  0  0  0  0  0  0  0  0  0  0
   20.9722  -20.5672  -15.2349 N   0  0  0  0  0  0  0  0  0  0  0  0
   21.2605  -19.9959  -13.9728 C   0  0  0  0  0  0  0  0  0  0  0  0
   20.3111  -19.6665  -13.2342 O   0  0  0  0  0  0  0  0  0  0  0  0
   22.6462  -19.7923  -13.5367 C   0  0  0  0  0  0  0  0  0  0  0  0
   23.6859  -20.1863  -14.5275 C   0  0  0  0  0  0  0  0  0  0  0  0
   25.1009  -19.9381  -14.1204 C   0  0  2  0  0  0  0  0  0  0  0  0
   25.9373  -20.5693  -15.1465 N   0  0  0  0  0  0  0  0  0  0  0  0
   25.4582  -20.5819  -12.8156 C   0  0  0  0  0  0  0  0  0  0  0  0
   25.5440  -21.8378  -12.7906 O   0  0  0  0  0  0  0  0  0  0  0  0
   29.4449  -19.7041   -6.9014 C   0  0  0  0  0  0  0  0  0  0  0  0
   27.6873  -19.2765   -6.9113 S   0  0  0  0  0  0  0  0  0  0  0  0
   26.7910  -20.3584   -8.0839 C   0  0  0  0  0  0  0  0  0  0  0  0
   26.5998  -19.6669   -9.4025 C   0  0  0  0  0  0  0  0  0  0  0  0
   25.9566  -20.5685  -10.3981 C   0  0  2  0  0  0  0  0  0  0  0  0
   25.6925  -19.8150  -11.6485 N   0  0  0  0  0  0  0  0  0  0  0  0
   24.6496  -21.0538   -9.9187 C   0  0  0  0  0  0  0  0  0  0  0  0
   23.5715  -20.5419  -10.2832 O   0  0  0  0  0  0  0  0  0  0  0  0
   24.6085  -22.1342   -9.0162 O   0  0  0  0  0  0  0  0  0  0  0  0
  2  1  1  1
  3  2  1  0
  4  5  1  6
  4  6  1  0
  4  2  1  0
  6 14  1  0
  7  6  2  0
  9  8  1  0
 10  9  2  0
 11  9  1  0
 12 11  1  0
 13 12  1  6
 14 13  1  0
 15 22  1  0
 15 13  1  0
 16 15  2  0
 18 17  1  0
 18 19  1  0
 19 20  1  0
 21 20  1  1
 21 22  1  0
 21 23  1  0
 23 25  1  0
 24 23  2  0
M  END
$$$$
