LIR.pdb
     RDKit          3D

 28 27  0  0  1  0  0  0  0  0999 V2000
   28.7084  -22.2171  -18.8155 C   0  0  0  0  0  0  0  0  0  0  0  0
   29.5418  -22.1888  -17.5410 C   0  0  2  0  0  0  0  0  0  0  0  0
   30.4842  -23.3834  -17.6331 C   0  0  0  0  0  0  0  0  0  0  0  0
   28.6549  -22.4259  -16.3640 C   0  0  0  0  0  0  0  0  0  0  0  0
   27.5612  -21.4049  -16.1918 C   0  0  2  0  0  0  0  0  0  0  0  0
   28.0641  -20.0695  -15.9932 N   0  0  0  0  0  0  0  0  0  0  0  0
   26.7679  -21.8773  -15.0246 C   0  0  0  0  0  0  0  0  0  0  0  0
   26.3044  -23.0463  -15.0519 O   0  0  0  0  0  0  0  0  0  0  0  0
   28.1289  -20.8196   -9.8920 C   0  0  0  0  0  0  0  0  0  0  0  0
   27.5765  -21.4344  -11.1329 C   0  0  0  0  0  0  0  0  0  0  0  0
   26.1627  -20.9983  -11.4326 C   0  0  2  0  0  0  0  0  0  0  0  0
   25.1731  -21.4423  -10.3997 C   0  0  0  0  0  0  0  0  0  0  0  0
   25.6821  -21.5078  -12.7699 C   0  0  2  0  0  0  0  0  0  0  0  0
   26.4989  -21.0856  -13.8731 N   0  0  0  0  0  0  0  0  0  0  0  0
   24.2533  -21.1466  -12.9105 C   0  0  0  0  0  0  0  0  0  0  0  0
   24.0213  -19.9158  -13.1246 O   0  0  0  0  0  0  0  0  0  0  0  0
   17.0819  -24.6031  -14.3204 N   0  0  0  0  0  0  0  0  0  0  0  0
   16.6215  -23.2412  -14.4763 C   0  0  0  0  0  0  0  0  0  0  0  0
   15.4231  -23.0492  -14.9052 N   0  0  0  0  0  0  0  0  0  0  0  0
   17.4398  -22.1468  -14.1720 N   0  0  0  0  0  0  0  0  0  0  0  0
   18.8457  -22.1683  -14.6545 C   0  0  0  0  0  0  0  0  0  0  0  0
   19.6060  -22.8756  -13.6102 C   0  0  0  0  0  0  0  0  0  0  0  0
   21.0577  -22.8617  -13.5098 C   0  0  0  0  0  0  0  0  0  0  0  0
   21.7639  -21.6474  -13.0950 C   0  0  2  0  0  0  0  0  0  0  0  0
   23.1958  -22.0368  -12.8252 N   0  0  0  0  0  0  0  0  0  0  0  0
   21.3904  -20.9821  -11.8499 C   0  0  0  0  0  0  0  0  0  0  0  0
   20.5107  -19.8731  -11.8204 O   0  0  0  0  0  0  0  0  0  0  0  0
   21.8099  -21.3326  -10.7456 O   0  0  0  0  0  0  0  0  0  0  0  0
  2  1  1  6
  3  2  1  0
  4  2  1  0
  5  4  1  0
  5  6  1  1
  7  8  2  0
  7  5  1  0
  9 10  1  0
 10 11  1  0
 11 13  1  0
 11 12  1  1
 13 14  1  6
 14  7  1  0
 15 13  1  0
 15 25  1  0
 16 15  2  0
 18 17  1  0
 18 20  1  0
 19 18  2  0
 21 20  1  0
 22 21  1  0
 22 23  1  0
 24 23  1  1
 24 25  1  0
 24 26  1  0
 26 28  2  0
 26 27  1  0
M  END
$$$$
