LIR.pdb
     RDKit          3D

 28 27  0  0  1  0  0  0  0  0999 V2000
   28.5480  -19.4755  -17.9045 C   0  0  0  0  0  0  0  0  0  0  0  0
   29.2888  -20.3374  -16.8907 C   0  0  2  0  0  0  0  0  0  0  0  0
   29.8377  -21.5238  -17.6748 C   0  0  0  0  0  0  0  0  0  0  0  0
   28.3151  -20.8850  -15.9007 C   0  0  0  0  0  0  0  0  0  0  0  0
   27.5387  -19.8386  -15.1455 C   0  0  2  0  0  0  0  0  0  0  0  0
   28.3829  -18.9400  -14.4003 N   0  0  0  0  0  0  0  0  0  0  0  0
   26.6204  -20.6011  -14.2566 C   0  0  0  0  0  0  0  0  0  0  0  0
   26.1056  -21.6605  -14.6981 O   0  0  0  0  0  0  0  0  0  0  0  0
   26.9122  -19.6645   -8.8942 C   0  0  0  0  0  0  0  0  0  0  0  0
   26.6355  -20.6290   -9.9970 C   0  0  0  0  0  0  0  0  0  0  0  0
   25.3085  -20.3895  -10.6757 C   0  0  2  0  0  0  0  0  0  0  0  0
   24.1589  -21.0539   -9.9828 C   0  0  0  0  0  0  0  0  0  0  0  0
   25.3095  -20.8632  -12.1091 C   0  0  2  0  0  0  0  0  0  0  0  0
   26.2860  -20.2053  -12.9313 N   0  0  0  0  0  0  0  0  0  0  0  0
   23.9258  -20.7614  -12.6255 C   0  0  0  0  0  0  0  0  0  0  0  0
   23.4595  -19.5821  -12.7045 O   0  0  0  0  0  0  0  0  0  0  0  0
   20.4513  -27.4560  -15.9529 N   0  0  0  0  0  0  0  0  0  0  0  0
   19.8452  -26.8620  -14.7820 C   0  0  0  0  0  0  0  0  0  0  0  0
   19.0426  -27.5832  -14.0801 N   0  0  0  0  0  0  0  0  0  0  0  0
   20.1128  -25.5413  -14.4028 N   0  0  0  0  0  0  0  0  0  0  0  0
   19.5357  -24.4461  -15.2257 C   0  0  0  0  0  0  0  0  0  0  0  0
   19.9909  -23.1983  -14.5896 C   0  0  0  0  0  0  0  0  0  0  0  0
   21.3338  -22.9937  -14.0675 C   0  0  0  0  0  0  0  0  0  0  0  0
   21.7459  -21.6805  -13.5664 C   0  0  2  0  0  0  0  0  0  0  0  0
   23.1402  -21.8344  -13.0122 N   0  0  0  0  0  0  0  0  0  0  0  0
   21.0363  -21.0797  -12.4404 C   0  0  0  0  0  0  0  0  0  0  0  0
   20.1082  -20.0239  -12.6091 O   0  0  0  0  0  0  0  0  0  0  0  0
   21.1923  -21.4430  -11.2734 O   0  0  0  0  0  0  0  0  0  0  0  0
  2  1  1  6
  3  2  1  0
  4  2  1  0
  5  4  1  0
  5  6  1  1
  7  8  2  0
  7  5  1  0
  9 10  1  0
 10 11  1  0
 11 13  1  0
 11 12  1  1
 13 14  1  6
 14  7  1  0
 15 13  1  0
 15 25  1  0
 16 15  2  0
 18 17  1  0
 18 20  1  0
 19 18  2  0
 21 20  1  0
 22 21  1  0
 22 23  1  0
 24 23  1  1
 24 25  1  0
 24 26  1  0
 26 28  2  0
 26 27  1  0
M  END
$$$$
