LIR.pdb
     RDKit          3D

 28 27  0  0  1  0  0  0  0  0999 V2000
   29.2712  -22.0416   -8.4158 C   0  0  0  0  0  0  0  0  0  0  0  0
   29.6072  -21.7439   -9.8712 C   0  0  2  0  0  0  0  0  0  0  0  0
   30.7391  -20.7235   -9.8369 C   0  0  0  0  0  0  0  0  0  0  0  0
   28.4414  -21.0766  -10.5221 C   0  0  0  0  0  0  0  0  0  0  0  0
   28.5911  -20.8679  -12.0061 C   0  0  2  0  0  0  0  0  0  0  0  0
   29.7746  -20.1232  -12.3531 N   0  0  0  0  0  0  0  0  0  0  0  0
   27.3499  -20.1632  -12.4274 C   0  0  0  0  0  0  0  0  0  0  0  0
   27.0438  -19.0926  -11.8423 O   0  0  0  0  0  0  0  0  0  0  0  0
   26.7091  -17.9348  -16.8670 C   0  0  0  0  0  0  0  0  0  0  0  0
   26.5052  -18.3788  -15.4583 C   0  0  0  0  0  0  0  0  0  0  0  0
   25.4119  -19.4097  -15.3135 C   0  0  2  0  0  0  0  0  0  0  0  0
   24.0596  -18.8999  -15.7066 C   0  0  0  0  0  0  0  0  0  0  0  0
   25.3069  -19.9322  -13.9011 C   0  0  2  0  0  0  0  0  0  0  0  0
   26.4827  -20.6264  -13.4561 N   0  0  0  0  0  0  0  0  0  0  0  0
   24.0654  -20.7323  -13.8004 C   0  0  0  0  0  0  0  0  0  0  0  0
   24.1296  -21.9014  -14.2937 O   0  0  0  0  0  0  0  0  0  0  0  0
   20.3914  -22.4365   -8.5820 N   0  0  0  0  0  0  0  0  0  0  0  0
   19.0390  -22.8162   -8.9252 C   0  0  0  0  0  0  0  0  0  0  0  0
   18.5682  -23.9061   -8.4278 N   0  0  0  0  0  0  0  0  0  0  0  0
   18.2452  -22.0326   -9.7711 N   0  0  0  0  0  0  0  0  0  0  0  0
   18.8497  -20.8118  -10.3660 C   0  0  0  0  0  0  0  0  0  0  0  0
   19.6817  -21.2923  -11.4821 C   0  0  0  0  0  0  0  0  0  0  0  0
   20.9323  -20.6709  -11.8915 C   0  0  0  0  0  0  0  0  0  0  0  0
   21.6769  -21.1843  -13.0436 C   0  0  2  0  0  0  0  0  0  0  0  0
   22.8838  -20.2978  -13.2230 N   0  0  0  0  0  0  0  0  0  0  0  0
   21.0720  -21.1461  -14.3721 C   0  0  0  0  0  0  0  0  0  0  0  0
   20.4779  -22.2865  -14.9647 O   0  0  0  0  0  0  0  0  0  0  0  0
   21.0356  -20.1298  -15.0679 O   0  0  0  0  0  0  0  0  0  0  0  0
  2  1  1  1
  3  2  1  0
  4  2  1  0
  5  4  1  0
  5  6  1  1
  7  8  2  0
  7  5  1  0
  9 10  1  0
 10 11  1  0
 11 13  1  0
 11 12  1  1
 13 14  1  6
 14  7  1  0
 15 13  1  0
 15 25  1  0
 16 15  2  0
 18 17  1  0
 18 20  1  0
 19 18  2  0
 21 20  1  0
 22 21  1  0
 22 23  1  0
 24 23  1  1
 24 25  1  0
 24 26  1  0
 26 28  2  0
 26 27  1  0
M  END
$$$$
