LIR.pdb
     RDKit          3D

 28 27  0  0  1  0  0  0  0  0999 V2000
   27.2300  -18.7403  -15.4214 C   0  0  0  0  0  0  0  0  0  0  0  0
   26.1581  -17.7275  -15.8020 C   0  0  2  0  0  0  0  0  0  0  0  0
   26.7451  -16.3584  -15.4783 C   0  0  0  0  0  0  0  0  0  0  0  0
   24.9689  -17.9093  -14.9184 C   0  0  0  0  0  0  0  0  0  0  0  0
   24.4225  -19.3124  -14.8892 C   0  0  2  0  0  0  0  0  0  0  0  0
   24.3507  -19.9157  -16.1956 N   0  0  0  0  0  0  0  0  0  0  0  0
   23.0795  -19.1943  -14.2591 C   0  0  0  0  0  0  0  0  0  0  0  0
   22.9902  -18.6069  -13.1504 O   0  0  0  0  0  0  0  0  0  0  0  0
   19.5706  -16.4218  -16.4376 C   0  0  0  0  0  0  0  0  0  0  0  0
   20.2513  -17.2086  -15.3695 C   0  0  0  0  0  0  0  0  0  0  0  0
   19.7106  -18.6110  -15.2297 C   0  0  2  0  0  0  0  0  0  0  0  0
   18.3091  -18.6571  -14.7033 C   0  0  0  0  0  0  0  0  0  0  0  0
   20.5648  -19.4615  -14.3209 C   0  0  2  0  0  0  0  0  0  0  0  0
   21.8832  -19.7067  -14.8347 N   0  0  0  0  0  0  0  0  0  0  0  0
   19.8079  -20.6934  -14.0024 C   0  0  0  0  0  0  0  0  0  0  0  0
   19.5325  -21.4355  -14.9963 O   0  0  0  0  0  0  0  0  0  0  0  0
   17.3454  -26.7213   -9.7273 N   0  0  0  0  0  0  0  0  0  0  0  0
   18.7543  -26.6313   -9.4142 C   0  0  0  0  0  0  0  0  0  0  0  0
   19.4747  -27.6904   -9.5410 N   0  0  0  0  0  0  0  0  0  0  0  0
   19.3394  -25.4337   -8.9860 N   0  0  0  0  0  0  0  0  0  0  0  0
   18.5018  -24.2056   -8.9876 C   0  0  0  0  0  0  0  0  0  0  0  0
   18.3374  -23.8470  -10.4064 C   0  0  0  0  0  0  0  0  0  0  0  0
   18.9694  -22.6959  -11.0336 C   0  0  0  0  0  0  0  0  0  0  0  0
   18.7151  -22.3821  -12.4416 C   0  0  2  0  0  0  0  0  0  0  0  0
   19.3980  -21.0694  -12.7340 N   0  0  0  0  0  0  0  0  0  0  0  0
   17.3503  -22.1208  -12.8902 C   0  0  0  0  0  0  0  0  0  0  0  0
   16.6013  -23.0722  -13.6242 O   0  0  0  0  0  0  0  0  0  0  0  0
   16.7571  -21.0643  -12.6662 O   0  0  0  0  0  0  0  0  0  0  0  0
  2  1  1  1
  3  2  1  0
  4  2  1  0
  5  4  1  0
  5  6  1  6
  7  8  2  0
  7  5  1  0
  9 10  1  0
 10 11  1  0
 11 13  1  0
 11 12  1  1
 13 14  1  6
 14  7  1  0
 15 13  1  0
 15 25  1  0
 16 15  2  0
 18 17  1  0
 18 20  1  0
 19 18  2  0
 21 20  1  0
 22 21  1  0
 22 23  1  0
 24 23  1  1
 24 25  1  0
 24 26  1  0
 26 28  2  0
 26 27  1  0
M  END
$$$$
