LIR.pdb
     RDKit          3D

 28 27  0  0  1  0  0  0  0  0999 V2000
   26.8975  -15.7982  -17.5081 C   0  0  0  0  0  0  0  0  0  0  0  0
   27.8853  -16.2246  -16.4301 C   0  0  2  0  0  0  0  0  0  0  0  0
   29.1789  -16.5641  -17.1615 C   0  0  0  0  0  0  0  0  0  0  0  0
   27.4058  -17.4846  -15.7895 C   0  0  0  0  0  0  0  0  0  0  0  0
   25.9129  -17.5622  -15.6068 C   0  0  2  0  0  0  0  0  0  0  0  0
   25.4136  -16.6132  -14.6446 N   0  0  0  0  0  0  0  0  0  0  0  0
   25.6438  -18.9657  -15.1915 C   0  0  0  0  0  0  0  0  0  0  0  0
   26.0154  -19.8950  -15.9534 O   0  0  0  0  0  0  0  0  0  0  0  0
   26.4326  -20.3494  -10.2252 C   0  0  0  0  0  0  0  0  0  0  0  0
   26.3089  -20.5216  -11.7010 C   0  0  0  0  0  0  0  0  0  0  0  0
   24.9300  -20.9574  -12.1340 C   0  0  2  0  0  0  0  0  0  0  0  0
   24.6698  -22.4150  -11.9079 C   0  0  0  0  0  0  0  0  0  0  0  0
   24.6764  -20.6725  -13.5947 C   0  0  2  0  0  0  0  0  0  0  0  0
   24.9890  -19.3249  -13.9803 N   0  0  0  0  0  0  0  0  0  0  0  0
   23.2864  -21.0766  -13.9050 C   0  0  0  0  0  0  0  0  0  0  0  0
   22.3864  -20.5092  -13.2104 O   0  0  0  0  0  0  0  0  0  0  0  0
   19.5584  -27.8781  -13.9891 N   0  0  0  0  0  0  0  0  0  0  0  0
   20.8407  -28.0748  -13.3503 C   0  0  0  0  0  0  0  0  0  0  0  0
   21.3847  -29.2391  -13.4231 N   0  0  0  0  0  0  0  0  0  0  0  0
   21.4913  -27.0396  -12.6685 N   0  0  0  0  0  0  0  0  0  0  0  0
   20.9115  -25.6734  -12.7521 C   0  0  0  0  0  0  0  0  0  0  0  0
   21.1367  -25.2380  -14.1408 C   0  0  0  0  0  0  0  0  0  0  0  0
   22.1038  -24.2220  -14.5286 C   0  0  0  0  0  0  0  0  0  0  0  0
   21.6759  -22.8439  -14.7798 C   0  0  2  0  0  0  0  0  0  0  0  0
   22.9235  -22.0012  -14.8702 N   0  0  0  0  0  0  0  0  0  0  0  0
   20.9005  -22.1307  -13.7686 C   0  0  0  0  0  0  0  0  0  0  0  0
   21.5095  -21.4908  -12.6621 O   0  0  0  0  0  0  0  0  0  0  0  0
   19.6725  -22.0354  -13.8032 O   0  0  0  0  0  0  0  0  0  0  0  0
  2  1  1  6
  3  2  1  0
  4  2  1  0
  5  4  1  0
  5  6  1  1
  7  8  2  0
  7  5  1  0
  9 10  1  0
 10 11  1  0
 11 13  1  0
 11 12  1  6
 13 14  1  1
 14  7  1  0
 15 13  1  0
 15 25  1  0
 16 15  2  0
 18 17  1  0
 18 20  1  0
 19 18  2  0
 21 20  1  0
 22 21  1  0
 22 23  1  0
 24 23  1  1
 24 25  1  0
 24 26  1  0
 26 28  2  0
 26 27  1  0
M  END
$$$$
