LIR.pdb
     RDKit          3D

 28 27  0  0  1  0  0  0  0  0999 V2000
   15.9462  -29.9684  -11.5494 C   0  0  0  0  0  0  0  0  0  0  0  0
   17.1478  -30.7583  -11.0477 C   0  0  2  0  0  0  0  0  0  0  0  0
   16.5810  -32.0319  -10.4311 C   0  0  0  0  0  0  0  0  0  0  0  0
   17.8127  -30.0019   -9.9459 C   0  0  0  0  0  0  0  0  0  0  0  0
   18.2404  -28.6064  -10.3173 C   0  0  2  0  0  0  0  0  0  0  0  0
   19.3668  -28.5833  -11.2152 N   0  0  0  0  0  0  0  0  0  0  0  0
   18.5486  -27.9366   -9.0246 C   0  0  0  0  0  0  0  0  0  0  0  0
   19.5781  -28.2954   -8.3973 O   0  0  0  0  0  0  0  0  0  0  0  0
   18.6246  -23.0590   -9.3820 C   0  0  0  0  0  0  0  0  0  0  0  0
   19.0846  -24.2372   -8.5925 C   0  0  0  0  0  0  0  0  0  0  0  0
   18.1042  -24.6539   -7.5229 C   0  0  2  0  0  0  0  0  0  0  0  0
   18.3497  -23.9915   -6.2021 C   0  0  0  0  0  0  0  0  0  0  0  0
   18.1158  -26.1457   -7.2914 C   0  0  2  0  0  0  0  0  0  0  0  0
   17.7479  -26.9101   -8.4502 N   0  0  0  0  0  0  0  0  0  0  0  0
   17.2860  -26.4299   -6.0987 C   0  0  0  0  0  0  0  0  0  0  0  0
   16.0340  -26.4863   -6.3074 O   0  0  0  0  0  0  0  0  0  0  0  0
   16.9639  -26.1665    1.3832 N   0  0  0  0  0  0  0  0  0  0  0  0
   16.6124  -27.5347    1.6921 C   0  0  0  0  0  0  0  0  0  0  0  0
   15.8307  -27.7514    2.6916 N   0  0  0  0  0  0  0  0  0  0  0  0
   17.0957  -28.6090    0.9357 N   0  0  0  0  0  0  0  0  0  0  0  0
   18.0644  -28.3183   -0.1537 C   0  0  0  0  0  0  0  0  0  0  0  0
   17.2565  -27.7801   -1.2612 C   0  0  0  0  0  0  0  0  0  0  0  0
   17.7838  -27.4855   -2.5852 C   0  0  0  0  0  0  0  0  0  0  0  0
   16.9000  -27.0005   -3.6477 C   0  0  2  0  0  0  0  0  0  0  0  0
   17.7754  -26.6299   -4.8186 N   0  0  0  0  0  0  0  0  0  0  0  0
   16.1287  -25.7771   -3.4460 C   0  0  0  0  0  0  0  0  0  0  0  0
   16.7021  -24.4904   -3.5890 O   0  0  0  0  0  0  0  0  0  0  0  0
   14.9354  -25.7748   -3.1389 O   0  0  0  0  0  0  0  0  0  0  0  0
  2  1  1  1
  3  2  1  0
  4  2  1  0
  5  4  1  0
  5  6  1  6
  7  8  2  0
  7  5  1  0
  9 10  1  0
 10 11  1  0
 11 13  1  0
 11 12  1  1
 13 14  1  6
 14  7  1  0
 15 13  1  0
 15 25  1  0
 16 15  2  0
 18 17  1  0
 18 20  1  0
 19 18  2  0
 21 20  1  0
 22 21  1  0
 22 23  1  0
 24 23  1  1
 24 25  1  0
 24 26  1  0
 26 28  2  0
 26 27  1  0
M  END
$$$$
