LIR.pdb
     RDKit          3D

 28 27  0  0  1  0  0  0  0  0999 V2000
   21.6934  -19.3905  -18.6253 C   0  0  0  0  0  0  0  0  0  0  0  0
   22.3219  -20.7777  -18.6271 C   0  0  2  0  0  0  0  0  0  0  0  0
   21.4131  -21.6456  -19.4900 C   0  0  0  0  0  0  0  0  0  0  0  0
   22.2782  -21.3431  -17.2464 C   0  0  0  0  0  0  0  0  0  0  0  0
   23.0452  -20.5482  -16.2226 C   0  0  2  0  0  0  0  0  0  0  0  0
   24.4730  -20.6506  -16.3849 N   0  0  0  0  0  0  0  0  0  0  0  0
   22.5982  -21.0762  -14.9049 C   0  0  0  0  0  0  0  0  0  0  0  0
   23.2683  -21.9984  -14.3733 O   0  0  0  0  0  0  0  0  0  0  0  0
   20.6415  -18.9800   -9.5805 C   0  0  0  0  0  0  0  0  0  0  0  0
   20.6890  -20.1403  -10.5157 C   0  0  0  0  0  0  0  0  0  0  0  0
   21.0020  -19.7433  -11.9381 C   0  0  2  0  0  0  0  0  0  0  0  0
   19.9761  -18.8329  -12.5397 C   0  0  0  0  0  0  0  0  0  0  0  0
   21.1338  -20.9417  -12.8467 C   0  0  2  0  0  0  0  0  0  0  0  0
   21.4542  -20.6011  -14.2045 N   0  0  0  0  0  0  0  0  0  0  0  0
   19.9066  -21.7580  -12.7081 C   0  0  0  0  0  0  0  0  0  0  0  0
   18.9010  -21.3455  -13.3661 O   0  0  0  0  0  0  0  0  0  0  0  0
   21.7631  -28.5391  -10.8333 N   0  0  0  0  0  0  0  0  0  0  0  0
   20.4173  -29.0442  -10.6752 C   0  0  0  0  0  0  0  0  0  0  0  0
   20.2468  -30.1153   -9.9820 N   0  0  0  0  0  0  0  0  0  0  0  0
   19.3156  -28.3994  -11.2498 N   0  0  0  0  0  0  0  0  0  0  0  0
   19.5520  -27.1269  -11.9809 C   0  0  0  0  0  0  0  0  0  0  0  0
   18.5248  -26.1952  -11.4853 C   0  0  0  0  0  0  0  0  0  0  0  0
   18.8118  -24.8613  -10.9793 C   0  0  0  0  0  0  0  0  0  0  0  0
   18.5101  -23.6774  -11.7873 C   0  0  2  0  0  0  0  0  0  0  0  0
   19.7945  -22.9004  -11.9330 N   0  0  0  0  0  0  0  0  0  0  0  0
   17.5975  -22.6613  -11.2705 C   0  0  0  0  0  0  0  0  0  0  0  0
   16.2240  -22.6348  -11.6135 O   0  0  0  0  0  0  0  0  0  0  0  0
   17.9522  -21.7615  -10.5071 O   0  0  0  0  0  0  0  0  0  0  0  0
  2  1  1  1
  3  2  1  0
  4  2  1  0
  5  4  1  0
  5  6  1  6
  7  8  2  0
  7  5  1  0
  9 10  1  0
 10 11  1  0
 11 13  1  0
 11 12  1  6
 13 14  1  6
 14  7  1  0
 15 13  1  0
 15 25  1  0
 16 15  2  0
 18 17  1  0
 18 20  1  0
 19 18  2  0
 21 20  1  0
 22 21  1  0
 22 23  1  0
 24 23  1  1
 24 25  1  0
 24 26  1  0
 26 28  2  0
 26 27  1  0
M  END
$$$$
