LIR.pdb
     RDKit          3D

 28 27  0  0  1  0  0  0  0  0999 V2000
   29.1637  -23.7286  -18.5764 C   0  0  0  0  0  0  0  0  0  0  0  0
   29.5393  -23.8124  -17.1028 C   0  0  2  0  0  0  0  0  0  0  0  0
   30.2621  -25.1436  -16.9323 C   0  0  0  0  0  0  0  0  0  0  0  0
   28.2970  -23.8849  -16.2785 C   0  0  0  0  0  0  0  0  0  0  0  0
   27.4603  -22.6328  -16.3003 C   0  0  2  0  0  0  0  0  0  0  0  0
   28.2504  -21.4281  -16.3075 N   0  0  0  0  0  0  0  0  0  0  0  0
   26.5958  -22.7210  -15.0922 C   0  0  0  0  0  0  0  0  0  0  0  0
   25.9204  -23.7676  -14.9170 O   0  0  0  0  0  0  0  0  0  0  0  0
   25.6829  -20.5570   -9.3516 C   0  0  0  0  0  0  0  0  0  0  0  0
   25.1641  -21.1912  -10.5974 C   0  0  0  0  0  0  0  0  0  0  0  0
   26.0836  -21.0127  -11.7812 C   0  0  2  0  0  0  0  0  0  0  0  0
   26.3158  -19.5776  -12.1414 C   0  0  0  0  0  0  0  0  0  0  0  0
   25.5645  -21.7118  -13.0145 C   0  0  2  0  0  0  0  0  0  0  0  0
   26.4842  -21.6905  -14.1173 N   0  0  0  0  0  0  0  0  0  0  0  0
   24.2336  -21.1477  -13.3341 C   0  0  0  0  0  0  0  0  0  0  0  0
   24.2469  -20.0426  -13.9608 O   0  0  0  0  0  0  0  0  0  0  0  0
   19.5485  -24.4614  -17.5710 N   0  0  0  0  0  0  0  0  0  0  0  0
   18.2522  -24.0663  -17.0665 C   0  0  0  0  0  0  0  0  0  0  0  0
   17.2441  -24.8262  -17.3174 N   0  0  0  0  0  0  0  0  0  0  0  0
   18.0771  -22.8945  -16.3208 N   0  0  0  0  0  0  0  0  0  0  0  0
   19.2674  -22.0402  -16.0695 C   0  0  0  0  0  0  0  0  0  0  0  0
   19.9058  -22.6040  -14.8681 C   0  0  0  0  0  0  0  0  0  0  0  0
   21.3067  -22.4112  -14.5243 C   0  0  0  0  0  0  0  0  0  0  0  0
   21.7109  -21.3255  -13.6280 C   0  0  2  0  0  0  0  0  0  0  0  0
   23.0221  -21.7311  -13.0025 N   0  0  0  0  0  0  0  0  0  0  0  0
   20.8985  -21.0142  -12.4552 C   0  0  0  0  0  0  0  0  0  0  0  0
   21.2887  -21.3857  -11.1458 O   0  0  0  0  0  0  0  0  0  0  0  0
   19.8249  -20.4129  -12.5185 O   0  0  0  0  0  0  0  0  0  0  0  0
  2  1  1  6
  3  2  1  0
  4  2  1  0
  5  4  1  0
  5  6  1  1
  7  8  2  0
  7  5  1  0
  9 10  1  0
 10 11  1  0
 11 13  1  0
 11 12  1  6
 13 14  1  6
 14  7  1  0
 15 13  1  0
 15 25  1  0
 16 15  2  0
 18 17  1  0
 18 20  1  0
 19 18  2  0
 21 20  1  0
 22 21  1  0
 22 23  1  0
 24 23  1  1
 24 25  1  0
 24 26  1  0
 26 28  2  0
 26 27  1  0
M  END
$$$$
