LIR.pdb
     RDKit          3D

 28 27  0  0  1  0  0  0  0  0999 V2000
   12.6794  -23.6894   -4.0830 C   0  0  0  0  0  0  0  0  0  0  0  0
   13.2923  -24.6024   -3.0294 C   0  0  2  0  0  0  0  0  0  0  0  0
   12.3936  -25.8322   -2.9703 C   0  0  0  0  0  0  0  0  0  0  0  0
   13.2110  -23.9414   -1.6935 C   0  0  0  0  0  0  0  0  0  0  0  0
   14.0114  -22.6710   -1.5767 C   0  0  2  0  0  0  0  0  0  0  0  0
   15.3767  -22.8242   -2.0104 N   0  0  0  0  0  0  0  0  0  0  0  0
   13.9258  -22.2874   -0.1414 C   0  0  0  0  0  0  0  0  0  0  0  0
   12.7864  -22.1779    0.3800 O   0  0  0  0  0  0  0  0  0  0  0  0
   17.4711  -24.1250    3.4247 C   0  0  0  0  0  0  0  0  0  0  0  0
   16.1305  -23.5674    3.0857 C   0  0  0  0  0  0  0  0  0  0  0  0
   16.1412  -22.0696    2.8972 C   0  0  2  0  0  0  0  0  0  0  0  0
   16.0945  -21.3088    4.1865 C   0  0  0  0  0  0  0  0  0  0  0  0
   14.9864  -21.5953    2.0484 C   0  0  2  0  0  0  0  0  0  0  0  0
   15.0578  -22.0352    0.6831 N   0  0  0  0  0  0  0  0  0  0  0  0
   14.8810  -20.1263    2.1991 C   0  0  0  0  0  0  0  0  0  0  0  0
   15.6907  -19.4471    1.4939 O   0  0  0  0  0  0  0  0  0  0  0  0
    8.0301  -14.6388    1.8607 N   0  0  0  0  0  0  0  0  0  0  0  0
    9.2669  -13.8922    1.9237 C   0  0  0  0  0  0  0  0  0  0  0  0
    9.2200  -12.6199    1.7337 N   0  0  0  0  0  0  0  0  0  0  0  0
   10.4923  -14.5162    2.1859 N   0  0  0  0  0  0  0  0  0  0  0  0
   10.5374  -16.0020    2.1771 C   0  0  0  0  0  0  0  0  0  0  0  0
   11.9282  -16.3523    2.5112 C   0  0  0  0  0  0  0  0  0  0  0  0
   12.3984  -17.7146    2.7135 C   0  0  0  0  0  0  0  0  0  0  0  0
   13.8026  -17.9775    3.0367 C   0  0  2  0  0  0  0  0  0  0  0  0
   13.9865  -19.4745    3.0317 N   0  0  0  0  0  0  0  0  0  0  0  0
   14.3239  -17.6120    4.3509 C   0  0  0  0  0  0  0  0  0  0  0  0
   14.7631  -16.2998    4.6510 O   0  0  0  0  0  0  0  0  0  0  0  0
   14.4196  -18.4103    5.2845 O   0  0  0  0  0  0  0  0  0  0  0  0
  2  1  1  6
  3  2  1  0
  4  2  1  0
  5  4  1  0
  5  6  1  1
  7  8  2  0
  7  5  1  0
  9 10  1  0
 10 11  1  0
 11 13  1  0
 11 12  1  1
 13 14  1  6
 14  7  1  0
 15 13  1  0
 15 25  1  0
 16 15  2  0
 18 17  1  0
 18 20  1  0
 19 18  2  0
 21 20  1  0
 22 21  1  0
 22 23  1  0
 24 23  1  1
 24 25  1  0
 24 26  1  0
 26 28  2  0
 26 27  1  0
M  END
$$$$
