LIR.pdb
     RDKit          3D

 28 27  0  0  1  0  0  0  0  0999 V2000
   29.3668  -24.1974  -19.7216 C   0  0  0  0  0  0  0  0  0  0  0  0
   28.2187  -25.0953  -19.2800 C   0  0  2  0  0  0  0  0  0  0  0  0
   27.2682  -25.1712  -20.4694 C   0  0  0  0  0  0  0  0  0  0  0  0
   27.4718  -24.4341  -18.1696 C   0  0  0  0  0  0  0  0  0  0  0  0
   28.2670  -24.2550  -16.9032 C   0  0  2  0  0  0  0  0  0  0  0  0
   28.5783  -25.5024  -16.2530 N   0  0  0  0  0  0  0  0  0  0  0  0
   27.4332  -23.3739  -16.0411 C   0  0  0  0  0  0  0  0  0  0  0  0
   26.6403  -23.9131  -15.2270 O   0  0  0  0  0  0  0  0  0  0  0  0
   27.1439  -17.5206  -13.8601 C   0  0  0  0  0  0  0  0  0  0  0  0
   26.5266  -18.8566  -14.0996 C   0  0  0  0  0  0  0  0  0  0  0  0
   27.3315  -19.7225  -15.0382 C   0  0  2  0  0  0  0  0  0  0  0  0
   27.4942  -19.1268  -16.4028 C   0  0  0  0  0  0  0  0  0  0  0  0
   26.7220  -21.0927  -15.2110 C   0  0  2  0  0  0  0  0  0  0  0  0
   27.4765  -21.9521  -16.0796 N   0  0  0  0  0  0  0  0  0  0  0  0
   25.3105  -20.9170  -15.6215 C   0  0  0  0  0  0  0  0  0  0  0  0
   25.1287  -20.6692  -16.8543 O   0  0  0  0  0  0  0  0  0  0  0  0
   18.5872  -25.5263  -13.1330 N   0  0  0  0  0  0  0  0  0  0  0  0
   19.5665  -24.6818  -12.4857 C   0  0  0  0  0  0  0  0  0  0  0  0
   19.8458  -24.9107  -11.2501 N   0  0  0  0  0  0  0  0  0  0  0  0
   20.2073  -23.6402  -13.1669 N   0  0  0  0  0  0  0  0  0  0  0  0
   19.8949  -23.4494  -14.6076 C   0  0  0  0  0  0  0  0  0  0  0  0
   20.6664  -22.2650  -15.0209 C   0  0  0  0  0  0  0  0  0  0  0  0
   22.0852  -22.0836  -14.7528 C   0  0  0  0  0  0  0  0  0  0  0  0
   22.7918  -20.9009  -15.2502 C   0  0  2  0  0  0  0  0  0  0  0  0
   24.2189  -21.0032  -14.7733 N   0  0  0  0  0  0  0  0  0  0  0  0
   22.4073  -19.5746  -14.7753 C   0  0  0  0  0  0  0  0  0  0  0  0
   21.4925  -18.7556  -15.4803 O   0  0  0  0  0  0  0  0  0  0  0  0
   22.8469  -19.0759  -13.7378 O   0  0  0  0  0  0  0  0  0  0  0  0
  2  1  1  6
  3  2  1  0
  4  2  1  0
  5  4  1  0
  5  6  1  1
  7  8  2  0
  7  5  1  0
  9 10  1  0
 10 11  1  0
 11 13  1  0
 11 12  1  6
 13 14  1  6
 14  7  1  0
 15 13  1  0
 15 25  1  0
 16 15  2  0
 18 17  1  0
 18 20  1  0
 19 18  2  0
 21 20  1  0
 22 21  1  0
 22 23  1  0
 24 23  1  1
 24 25  1  0
 24 26  1  0
 26 28  2  0
 26 27  1  0
M  END
$$$$
