LIR.pdb
     RDKit          3D

 28 27  0  0  1  0  0  0  0  0999 V2000
   29.0931  -17.8178  -15.1318 C   0  0  0  0  0  0  0  0  0  0  0  0
   28.0004  -18.4992  -15.9450 C   0  0  2  0  0  0  0  0  0  0  0  0
   27.1358  -17.3754  -16.5048 C   0  0  0  0  0  0  0  0  0  0  0  0
   27.1322  -19.3014  -15.0337 C   0  0  0  0  0  0  0  0  0  0  0  0
   27.8565  -20.3801  -14.2720 C   0  0  2  0  0  0  0  0  0  0  0  0
   28.4283  -21.3871  -15.1290 N   0  0  0  0  0  0  0  0  0  0  0  0
   26.8412  -20.9519  -13.3463 C   0  0  0  0  0  0  0  0  0  0  0  0
   26.1179  -21.8933  -13.7620 O   0  0  0  0  0  0  0  0  0  0  0  0
   27.2450  -20.3185   -7.8525 C   0  0  0  0  0  0  0  0  0  0  0  0
   26.8965  -20.9696   -9.1478 C   0  0  0  0  0  0  0  0  0  0  0  0
   25.6303  -20.4254   -9.7636 C   0  0  2  0  0  0  0  0  0  0  0  0
   24.3877  -20.8652   -9.0523 C   0  0  0  0  0  0  0  0  0  0  0  0
   25.4875  -20.8214  -11.2134 C   0  0  2  0  0  0  0  0  0  0  0  0
   26.6357  -20.4985  -12.0132 N   0  0  0  0  0  0  0  0  0  0  0  0
   24.2223  -20.2455  -11.7225 C   0  0  0  0  0  0  0  0  0  0  0  0
   24.3393  -19.1536  -12.3615 O   0  0  0  0  0  0  0  0  0  0  0  0
   19.2147  -23.0092  -17.3300 N   0  0  0  0  0  0  0  0  0  0  0  0
   20.1566  -22.0192  -17.8033 C   0  0  0  0  0  0  0  0  0  0  0  0
   19.8397  -21.3243  -18.8395 N   0  0  0  0  0  0  0  0  0  0  0  0
   21.3838  -21.8045  -17.1649 N   0  0  0  0  0  0  0  0  0  0  0  0
   21.7183  -22.6495  -15.9885 C   0  0  0  0  0  0  0  0  0  0  0  0
   21.3752  -21.8334  -14.8116 C   0  0  0  0  0  0  0  0  0  0  0  0
   22.2959  -21.5506  -13.7208 C   0  0  0  0  0  0  0  0  0  0  0  0
   21.8758  -20.7235  -12.5872 C   0  0  2  0  0  0  0  0  0  0  0  0
   22.9673  -20.8053  -11.5495 N   0  0  0  0  0  0  0  0  0  0  0  0
   20.6944  -21.0989  -11.8154 C   0  0  0  0  0  0  0  0  0  0  0  0
   20.7083  -22.1646  -10.8833 O   0  0  0  0  0  0  0  0  0  0  0  0
   19.6102  -20.5226  -11.9185 O   0  0  0  0  0  0  0  0  0  0  0  0
  2  1  1  1
  3  2  1  0
  4  2  1  0
  5  4  1  0
  5  6  1  6
  7  8  2  0
  7  5  1  0
  9 10  1  0
 10 11  1  0
 11 13  1  0
 11 12  1  1
 13 14  1  6
 14  7  1  0
 15 13  1  0
 15 25  1  0
 16 15  2  0
 18 17  1  0
 18 20  1  0
 19 18  2  0
 21 20  1  0
 22 21  1  0
 22 23  1  0
 24 23  1  6
 24 25  1  0
 24 26  1  0
 26 28  2  0
 26 27  1  0
M  END
$$$$
