LIR.pdb
     RDKit          3D

 28 27  0  0  1  0  0  0  0  0999 V2000
   27.4933  -18.2164  -15.4726 C   0  0  0  0  0  0  0  0  0  0  0  0
   26.6116  -19.3109  -16.0593 C   0  0  2  0  0  0  0  0  0  0  0  0
   25.5637  -18.5941  -16.9029 C   0  0  0  0  0  0  0  0  0  0  0  0
   25.8814  -20.0029  -14.9566 C   0  0  0  0  0  0  0  0  0  0  0  0
   26.7718  -20.6270  -13.9146 C   0  0  2  0  0  0  0  0  0  0  0  0
   27.6548  -21.6286  -14.4557 N   0  0  0  0  0  0  0  0  0  0  0  0
   25.8439  -21.1964  -12.8999 C   0  0  0  0  0  0  0  0  0  0  0  0
   25.2999  -22.3040  -13.1438 O   0  0  0  0  0  0  0  0  0  0  0  0
   26.5621  -19.6652   -7.7244 C   0  0  0  0  0  0  0  0  0  0  0  0
   26.2141  -20.6540   -8.7847 C   0  0  0  0  0  0  0  0  0  0  0  0
   24.8078  -20.4917   -9.3088 C   0  0  2  0  0  0  0  0  0  0  0  0
   23.7678  -21.0936   -8.4146 C   0  0  0  0  0  0  0  0  0  0  0  0
   24.6375  -21.1034  -10.6785 C   0  0  2  0  0  0  0  0  0  0  0  0
   25.5315  -20.5636  -11.6643 N   0  0  0  0  0  0  0  0  0  0  0  0
   23.2076  -21.0046  -11.0491 C   0  0  0  0  0  0  0  0  0  0  0  0
   22.8389  -19.8756  -11.5006 O   0  0  0  0  0  0  0  0  0  0  0  0
   17.1042  -25.9549  -10.1012 N   0  0  0  0  0  0  0  0  0  0  0  0
   16.6642  -24.5787  -10.0424 C   0  0  0  0  0  0  0  0  0  0  0  0
   15.7813  -24.2592   -9.1619 N   0  0  0  0  0  0  0  0  0  0  0  0
   17.1739  -23.6040  -10.9084 N   0  0  0  0  0  0  0  0  0  0  0  0
   18.0429  -24.0490  -12.0294 C   0  0  0  0  0  0  0  0  0  0  0  0
   19.4188  -23.9747  -11.5098 C   0  0  0  0  0  0  0  0  0  0  0  0
   20.4418  -23.0849  -12.0387 C   0  0  0  0  0  0  0  0  0  0  0  0
   20.8298  -21.8775  -11.3059 C   0  0  2  0  0  0  0  0  0  0  0  0
   22.2841  -22.0306  -10.9366 N   0  0  0  0  0  0  0  0  0  0  0  0
   20.2171  -21.5870  -10.0126 C   0  0  0  0  0  0  0  0  0  0  0  0
   19.0862  -20.7448   -9.8847 O   0  0  0  0  0  0  0  0  0  0  0  0
   20.6355  -22.0478   -8.9492 O   0  0  0  0  0  0  0  0  0  0  0  0
  2  1  1  1
  3  2  1  0
  4  2  1  0
  5  4  1  0
  5  6  1  6
  7  8  2  0
  7  5  1  0
  9 10  1  0
 10 11  1  0
 11 13  1  0
 11 12  1  1
 13 14  1  6
 14  7  1  0
 15 13  1  0
 15 25  1  0
 16 15  2  0
 18 17  1  0
 18 20  1  0
 19 18  2  0
 21 20  1  0
 22 21  1  0
 22 23  1  0
 24 23  1  1
 24 25  1  0
 24 26  1  0
 26 28  2  0
 26 27  1  0
M  END
$$$$
