CGS.pdb
     RDKit          3D

 17 16  0  0  1  0  0  0  0  0999 V2000
    7.8441  -14.5166   17.2981 N   0  0  0  0  0  0  0  0  0  0  0  0
    8.6634  -14.2086   18.4350 C   0  0  1  0  0  0  0  0  0  0  0  0
    8.1186  -13.0180   19.2160 C   0  0  0  0  0  0  0  0  0  0  0  0
    8.1996  -11.5437   18.1634 S   0  0  0  0  0  0  0  0  0  0  0  0
    8.7319  -15.3831   19.3759 C   0  0  0  0  0  0  0  0  0  0  0  0
    7.7329  -16.1173   19.5930 O   0  0  0  0  0  0  0  0  0  0  0  0
    9.9371  -15.7057   20.0567 N   0  0  0  0  0  0  0  0  0  0  0  0
   10.0708  -16.8291   20.9438 C   0  0  0  0  0  0  0  0  0  0  0  0
   10.6783  -16.3272   22.2265 C   0  0  0  0  0  0  0  0  0  0  0  0
   11.7821  -15.7387   22.2422 O   0  0  0  0  0  0  0  0  0  0  0  0
    8.3632  -16.2266   25.4882 O   0  0  0  0  0  0  0  0  0  0  0  0
    9.5409  -15.4574   25.5595 C   0  0  0  0  0  0  0  0  0  0  0  0
   10.6343  -16.1553   24.7442 C   0  0  2  0  0  0  0  0  0  0  0  0
   10.0191  -16.5027   23.4768 N   0  0  0  0  0  0  0  0  0  0  0  0
   11.0761  -17.3273   25.4988 C   0  0  0  0  0  0  0  0  0  0  0  0
   10.8060  -18.4792   25.0918 O   0  0  0  0  0  0  0  0  0  0  0  0
   11.7974  -17.1988   26.6714 O   0  0  0  0  0  0  0  0  0  0  0  0
  2  1  1  6
  2  3  1  0
  3  4  1  0
  5  6  2  0
  5  2  1  0
  7  5  1  0
  8  9  1  0
  8  7  1  0
  9 10  2  0
 11 12  1  0
 13 12  1  1
 14  9  1  0
 14 13  1  0
 15 13  1  0
 15 17  1  0
 16 15  2  0
M  END
$$$$
