CGS.pdb
     RDKit          3D

 17 16  0  0  1  0  0  0  0  0999 V2000
    9.1229  -12.2914   18.8591 N   0  0  0  0  0  0  0  0  0  0  0  0
    8.3881  -13.1215   19.7699 C   0  0  1  0  0  0  0  0  0  0  0  0
    7.0438  -13.5438   19.1879 C   0  0  0  0  0  0  0  0  0  0  0  0
    6.2069  -14.6257   20.3783 S   0  0  0  0  0  0  0  0  0  0  0  0
    9.1625  -14.3725   20.0934 C   0  0  0  0  0  0  0  0  0  0  0  0
   10.0959  -14.7834   19.3558 O   0  0  0  0  0  0  0  0  0  0  0  0
    8.8635  -15.1387   21.2527 N   0  0  0  0  0  0  0  0  0  0  0  0
    9.5662  -16.3402   21.6123 C   0  0  0  0  0  0  0  0  0  0  0  0
   10.2667  -16.0844   22.9200 C   0  0  0  0  0  0  0  0  0  0  0  0
   10.7968  -14.9801   23.1742 O   0  0  0  0  0  0  0  0  0  0  0  0
    9.0349  -15.0181   25.1658 O   0  0  0  0  0  0  0  0  0  0  0  0
    9.3371  -16.1951   25.8777 C   0  0  0  0  0  0  0  0  0  0  0  0
   10.6314  -16.7915   25.3153 C   0  0  2  0  0  0  0  0  0  0  0  0
   10.3541  -17.0918   23.9230 N   0  0  0  0  0  0  0  0  0  0  0  0
   10.9520  -17.9840   26.0984 C   0  0  0  0  0  0  0  0  0  0  0  0
   10.8477  -19.1216   25.5880 O   0  0  0  0  0  0  0  0  0  0  0  0
   11.3751  -17.8910   27.4114 O   0  0  0  0  0  0  0  0  0  0  0  0
  2  1  1  6
  2  3  1  0
  3  4  1  0
  5  6  2  0
  5  2  1  0
  7  5  1  0
  8  9  1  0
  8  7  1  0
  9 10  2  0
 11 12  1  0
 13 12  1  1
 14  9  1  0
 14 13  1  0
 15 13  1  0
 15 17  1  0
 16 15  2  0
M  END
$$$$
