CGS.pdb
     RDKit          3D

 17 16  0  0  1  0  0  0  0  0999 V2000
    8.1957  -13.1735   17.5886 N   0  0  0  0  0  0  0  0  0  0  0  0
    8.3356  -13.3705   19.0029 C   0  0  1  0  0  0  0  0  0  0  0  0
    7.0187  -13.1427   19.7365 C   0  0  0  0  0  0  0  0  0  0  0  0
    7.2395  -13.5825   21.4817 S   0  0  0  0  0  0  0  0  0  0  0  0
    8.7918  -14.7746   19.3024 C   0  0  0  0  0  0  0  0  0  0  0  0
    8.6026  -15.7197   18.4930 O   0  0  0  0  0  0  0  0  0  0  0  0
    9.4573  -15.0836   20.5198 N   0  0  0  0  0  0  0  0  0  0  0  0
    9.9166  -16.4027   20.8600 C   0  0  0  0  0  0  0  0  0  0  0  0
   10.6710  -16.3017   22.1588 C   0  0  0  0  0  0  0  0  0  0  0  0
   10.6178  -15.2733   22.8691 O   0  0  0  0  0  0  0  0  0  0  0  0
   10.4642  -17.9822   26.0516 O   0  0  0  0  0  0  0  0  0  0  0  0
   10.3301  -17.8856   24.6529 C   0  0  0  0  0  0  0  0  0  0  0  0
   11.7105  -17.6197   24.0437 C   0  0  2  0  0  0  0  0  0  0  0  0
   11.4777  -17.3758   22.6324 N   0  0  0  0  0  0  0  0  0  0  0  0
   12.5408  -18.7990   24.2847 C   0  0  0  0  0  0  0  0  0  0  0  0
   12.3637  -19.8429   23.6180 O   0  0  0  0  0  0  0  0  0  0  0  0
   13.5349  -18.7956   25.2456 O   0  0  0  0  0  0  0  0  0  0  0  0
  2  1  1  6
  2  3  1  0
  3  4  1  0
  5  6  2  0
  5  2  1  0
  7  5  1  0
  8  9  1  0
  8  7  1  0
  9 10  2  0
 11 12  1  0
 13 12  1  1
 14  9  1  0
 14 13  1  0
 15 13  1  0
 15 17  1  0
 16 15  2  0
M  END
$$$$
