CGS.pdb
     RDKit          3D

 17 16  0  0  1  0  0  0  0  0999 V2000
   -5.8114  -20.3386   24.5357 N   0  0  0  0  0  0  0  0  0  0  0  0
   -4.9366  -21.1478   23.7365 C   0  0  1  0  0  0  0  0  0  0  0  0
   -3.5131  -20.6020   23.7306 C   0  0  0  0  0  0  0  0  0  0  0  0
   -3.5415  -18.9057   23.0904 S   0  0  0  0  0  0  0  0  0  0  0  0
   -4.8861  -22.5580   24.2637 C   0  0  0  0  0  0  0  0  0  0  0  0
   -4.1898  -23.4481   23.7094 O   0  0  0  0  0  0  0  0  0  0  0  0
   -5.6292  -22.9357   25.4149 N   0  0  0  0  0  0  0  0  0  0  0  0
   -5.5696  -24.2463   26.0028 C   0  0  0  0  0  0  0  0  0  0  0  0
   -6.3684  -24.2105   27.2782 C   0  0  0  0  0  0  0  0  0  0  0  0
   -6.5377  -25.2362   27.9741 O   0  0  0  0  0  0  0  0  0  0  0  0
   -5.9427  -22.0687   30.1399 O   0  0  0  0  0  0  0  0  0  0  0  0
   -7.2699  -21.7841   29.7642 C   0  0  0  0  0  0  0  0  0  0  0  0
   -7.8049  -22.9504   28.9271 C   0  0  2  0  0  0  0  0  0  0  0  0
   -6.9651  -23.0044   27.7451 N   0  0  0  0  0  0  0  0  0  0  0  0
   -9.2056  -22.6708   28.6138 C   0  0  0  0  0  0  0  0  0  0  0  0
   -9.5728  -22.5397   27.4249 O   0  0  0  0  0  0  0  0  0  0  0  0
  -10.1552  -22.5445   29.6109 O   0  0  0  0  0  0  0  0  0  0  0  0
  2  1  1  1
  2  3  1  0
  3  4  1  0
  5  6  2  0
  5  2  1  0
  7  5  1  0
  8  9  1  0
  8  7  1  0
  9 10  2  0
 11 12  1  0
 13 12  1  1
 14  9  1  0
 14 13  1  0
 15 13  1  0
 15 17  1  0
 16 15  2  0
M  END
$$$$
