CGS.pdb
     RDKit          3D

 17 16  0  0  1  0  0  0  0  0999 V2000
    7.8832  -13.3663   18.4125 N   0  0  0  0  0  0  0  0  0  0  0  0
    8.7333  -13.5979   19.5450 C   0  0  1  0  0  0  0  0  0  0  0  0
    8.1804  -12.9456   20.8072 C   0  0  0  0  0  0  0  0  0  0  0  0
    8.1921  -11.1459   20.5867 S   0  0  0  0  0  0  0  0  0  0  0  0
    8.8726  -15.0736   19.8132 C   0  0  0  0  0  0  0  0  0  0  0  0
    7.9154  -15.8721   19.6391 O   0  0  0  0  0  0  0  0  0  0  0  0
   10.1003  -15.6203   20.2762 N   0  0  0  0  0  0  0  0  0  0  0  0
   10.4436  -17.0113   20.1587 C   0  0  0  0  0  0  0  0  0  0  0  0
   11.8374  -17.1842   20.7006 C   0  0  0  0  0  0  0  0  0  0  0  0
   12.3135  -18.3172   20.9343 O   0  0  0  0  0  0  0  0  0  0  0  0
   14.5078  -14.6175   19.8459 O   0  0  0  0  0  0  0  0  0  0  0  0
   14.7357  -14.9022   21.2063 C   0  0  0  0  0  0  0  0  0  0  0  0
   13.9862  -16.1874   21.5721 C   0  0  2  0  0  0  0  0  0  0  0  0
   12.6721  -16.0619   20.9696 N   0  0  0  0  0  0  0  0  0  0  0  0
   13.9338  -16.2752   23.0307 C   0  0  0  0  0  0  0  0  0  0  0  0
   12.8334  -16.2503   23.6258 O   0  0  0  0  0  0  0  0  0  0  0  0
   15.0857  -16.3870   23.7872 O   0  0  0  0  0  0  0  0  0  0  0  0
  2  1  1  6
  2  3  1  0
  3  4  1  0
  5  6  2  0
  5  2  1  0
  7  5  1  0
  8  9  1  0
  8  7  1  0
  9 10  2  0
 11 12  1  0
 13 12  1  1
 14  9  1  0
 14 13  1  0
 15 13  1  0
 15 17  1  0
 16 15  2  0
M  END
$$$$
