CGS.pdb
     RDKit          3D

 17 16  0  0  1  0  0  0  0  0999 V2000
    7.9924  -14.2030   18.4186 N   0  0  0  0  0  0  0  0  0  0  0  0
    8.8371  -14.0657   19.5702 C   0  0  1  0  0  0  0  0  0  0  0  0
    8.3078  -13.0101   20.5345 C   0  0  0  0  0  0  0  0  0  0  0  0
    8.4424  -11.3818   19.7480 S   0  0  0  0  0  0  0  0  0  0  0  0
    8.9303  -15.3685   20.3207 C   0  0  0  0  0  0  0  0  0  0  0  0
    7.9712  -16.1828   20.3563 O   0  0  0  0  0  0  0  0  0  0  0  0
   10.1145  -15.7266   21.0204 N   0  0  0  0  0  0  0  0  0  0  0  0
   10.3940  -17.0612   21.4758 C   0  0  0  0  0  0  0  0  0  0  0  0
   11.1875  -16.9512   22.7504 C   0  0  0  0  0  0  0  0  0  0  0  0
   12.2119  -16.2370   22.8246 O   0  0  0  0  0  0  0  0  0  0  0  0
   11.5386  -17.7907   27.4675 O   0  0  0  0  0  0  0  0  0  0  0  0
   10.7484  -17.7501   26.3023 C   0  0  0  0  0  0  0  0  0  0  0  0
   11.6714  -17.7924   25.0803 C   0  0  2  0  0  0  0  0  0  0  0  0
   10.8028  -17.6575   23.9258 N   0  0  0  0  0  0  0  0  0  0  0  0
   12.3872  -19.0673   25.1040 C   0  0  0  0  0  0  0  0  0  0  0  0
   13.4083  -19.2051   25.8138 O   0  0  0  0  0  0  0  0  0  0  0  0
   11.9616  -20.1462   24.3513 O   0  0  0  0  0  0  0  0  0  0  0  0
  2  1  1  6
  2  3  1  0
  3  4  1  0
  5  6  2  0
  5  2  1  0
  7  5  1  0
  8  9  1  0
  8  7  1  0
  9 10  2  0
 11 12  1  0
 13 12  1  1
 14  9  1  0
 14 13  1  0
 15 13  1  0
 15 17  1  0
 16 15  2  0
M  END
$$$$
