CGS.pdb
     RDKit          3D

 17 16  0  0  1  0  0  0  0  0999 V2000
    4.7274  -18.1540   23.0895 N   0  0  0  0  0  0  0  0  0  0  0  0
    4.5486  -18.6845   21.7683 C   0  0  1  0  0  0  0  0  0  0  0  0
    3.1080  -18.5362   21.2919 C   0  0  0  0  0  0  0  0  0  0  0  0
    2.9089  -19.4555   19.7416 S   0  0  0  0  0  0  0  0  0  0  0  0
    5.4348  -17.9687   20.7827 C   0  0  0  0  0  0  0  0  0  0  0  0
    5.8366  -18.5247   19.7273 O   0  0  0  0  0  0  0  0  0  0  0  0
    5.8517  -16.6293   21.0121 N   0  0  0  0  0  0  0  0  0  0  0  0
    6.7277  -15.9089   20.1287 C   0  0  0  0  0  0  0  0  0  0  0  0
    7.8758  -15.3873   20.9508 C   0  0  0  0  0  0  0  0  0  0  0  0
    8.8555  -14.8178   20.4207 O   0  0  0  0  0  0  0  0  0  0  0  0
    7.3126  -14.8456   24.8416 O   0  0  0  0  0  0  0  0  0  0  0  0
    8.4252  -14.1969   24.2716 C   0  0  0  0  0  0  0  0  0  0  0  0
    9.0166  -15.0991   23.1837 C   0  0  2  0  0  0  0  0  0  0  0  0
    7.8929  -15.5214   22.3687 N   0  0  0  0  0  0  0  0  0  0  0  0
    9.6876  -16.2171   23.8454 C   0  0  0  0  0  0  0  0  0  0  0  0
    9.1854  -17.3627   23.8144 O   0  0  0  0  0  0  0  0  0  0  0  0
   10.8834  -16.0436   24.5174 O   0  0  0  0  0  0  0  0  0  0  0  0
  2  1  1  1
  2  3  1  0
  3  4  1  0
  5  6  2  0
  5  2  1  0
  7  5  1  0
  8  9  1  0
  8  7  1  0
  9 10  2  0
 11 12  1  0
 13 12  1  1
 14  9  1  0
 14 13  1  0
 15 13  1  0
 15 17  1  0
 16 15  2  0
M  END
$$$$
