CGS.pdb
     RDKit          3D

 17 16  0  0  1  0  0  0  0  0999 V2000
    9.0888  -18.6465   21.0490 N   0  0  0  0  0  0  0  0  0  0  0  0
    8.6763  -17.2833   20.8746 C   0  0  1  0  0  0  0  0  0  0  0  0
    7.6576  -17.1424   19.7492 C   0  0  0  0  0  0  0  0  0  0  0  0
    8.4680  -17.5381   18.1761 S   0  0  0  0  0  0  0  0  0  0  0  0
    8.0451  -16.7526   22.1353 C   0  0  0  0  0  0  0  0  0  0  0  0
    7.2653  -17.4534   22.8317 O   0  0  0  0  0  0  0  0  0  0  0  0
    8.3104  -15.4309   22.5859 N   0  0  0  0  0  0  0  0  0  0  0  0
    7.8421  -14.9121   23.8422 C   0  0  0  0  0  0  0  0  0  0  0  0
    9.0104  -14.8929   24.7913 C   0  0  0  0  0  0  0  0  0  0  0  0
   10.1241  -15.3626   24.4689 O   0  0  0  0  0  0  0  0  0  0  0  0
    8.3330  -13.0638   28.2418 O   0  0  0  0  0  0  0  0  0  0  0  0
    9.6998  -13.0176   27.9055 C   0  0  0  0  0  0  0  0  0  0  0  0
   10.0240  -14.2099   26.9996 C   0  0  2  0  0  0  0  0  0  0  0  0
    8.8944  -14.3378   26.0978 N   0  0  0  0  0  0  0  0  0  0  0  0
   10.2031  -15.3842   27.8523 C   0  0  0  0  0  0  0  0  0  0  0  0
    9.3774  -16.3235   27.8150 O   0  0  0  0  0  0  0  0  0  0  0  0
   11.2781  -15.4903   28.7153 O   0  0  0  0  0  0  0  0  0  0  0  0
  2  1  1  1
  2  3  1  0
  3  4  1  0
  5  6  2  0
  5  2  1  0
  7  5  1  0
  8  9  1  0
  8  7  1  0
  9 10  2  0
 11 12  1  0
 13 12  1  1
 14  9  1  0
 14 13  1  0
 15 13  1  0
 15 17  1  0
 16 15  2  0
M  END
$$$$
