CGS.pdb
     RDKit          3D

 17 16  0  0  1  0  0  0  0  0999 V2000
    9.1368  -13.3874   20.6459 N   0  0  0  0  0  0  0  0  0  0  0  0
    7.7361  -13.6972   20.6157 C   0  0  1  0  0  0  0  0  0  0  0  0
    7.3873  -14.6157   19.4499 C   0  0  0  0  0  0  0  0  0  0  0  0
    8.0699  -13.9087   17.9260 S   0  0  0  0  0  0  0  0  0  0  0  0
    7.3159  -14.3879   21.8868 C   0  0  0  0  0  0  0  0  0  0  0  0
    6.1338  -14.7801   22.0683 O   0  0  0  0  0  0  0  0  0  0  0  0
    8.2476  -14.6227   22.9342 N   0  0  0  0  0  0  0  0  0  0  0  0
    7.9085  -15.2863   24.1636 C   0  0  0  0  0  0  0  0  0  0  0  0
    9.1067  -15.2045   25.0712 C   0  0  0  0  0  0  0  0  0  0  0  0
   10.2704  -15.1446   24.6161 O   0  0  0  0  0  0  0  0  0  0  0  0
    9.1900  -12.9528   27.7276 O   0  0  0  0  0  0  0  0  0  0  0  0
    9.7678  -14.0418   28.4088 C   0  0  0  0  0  0  0  0  0  0  0  0
   10.0973  -15.1392   27.3917 C   0  0  2  0  0  0  0  0  0  0  0  0
    8.9632  -15.1921   26.4882 N   0  0  0  0  0  0  0  0  0  0  0  0
   10.2931  -16.3874   28.1279 C   0  0  0  0  0  0  0  0  0  0  0  0
    9.5114  -17.3496   27.9586 O   0  0  0  0  0  0  0  0  0  0  0  0
   11.3360  -16.5397   29.0227 O   0  0  0  0  0  0  0  0  0  0  0  0
  2  1  1  1
  2  3  1  0
  3  4  1  0
  5  6  2  0
  5  2  1  0
  7  5  1  0
  8  9  1  0
  8  7  1  0
  9 10  2  0
 11 12  1  0
 13 12  1  1
 14  9  1  0
 14 13  1  0
 15 13  1  0
 15 17  1  0
 16 15  2  0
M  END
$$$$
