CGS.pdb
     RDKit          3D

 17 16  0  0  1  0  0  0  0  0999 V2000
    7.6066  -17.4370   20.0553 N   0  0  0  0  0  0  0  0  0  0  0  0
    8.0752  -16.1376   19.6671 C   0  0  1  0  0  0  0  0  0  0  0  0
    7.4266  -15.0342   20.4953 C   0  0  0  0  0  0  0  0  0  0  0  0
    6.0391  -15.7412   21.4243 S   0  0  0  0  0  0  0  0  0  0  0  0
    9.5669  -16.0330   19.8497 C   0  0  0  0  0  0  0  0  0  0  0  0
   10.2012  -14.9913   19.5385 O   0  0  0  0  0  0  0  0  0  0  0  0
   10.3163  -17.1161   20.3841 N   0  0  0  0  0  0  0  0  0  0  0  0
   11.7384  -17.0718   20.5895 C   0  0  0  0  0  0  0  0  0  0  0  0
   11.9804  -16.8760   22.0623 C   0  0  0  0  0  0  0  0  0  0  0  0
   13.1286  -16.9510   22.5532 O   0  0  0  0  0  0  0  0  0  0  0  0
    9.6247  -14.5981   24.2614 O   0  0  0  0  0  0  0  0  0  0  0  0
    9.8166  -15.8251   24.9257 C   0  0  0  0  0  0  0  0  0  0  0  0
   11.0958  -16.4783   24.3924 C   0  0  2  0  0  0  0  0  0  0  0  0
   10.9091  -16.5966   22.9584 N   0  0  0  0  0  0  0  0  0  0  0  0
   11.2450  -17.7745   25.0525 C   0  0  0  0  0  0  0  0  0  0  0  0
   11.1087  -18.8342   24.4013 O   0  0  0  0  0  0  0  0  0  0  0  0
   11.5379  -17.8666   26.4006 O   0  0  0  0  0  0  0  0  0  0  0  0
  2  1  1  1
  2  3  1  0
  3  4  1  0
  5  6  2  0
  5  2  1  0
  7  5  1  0
  8  9  1  0
  8  7  1  0
  9 10  2  0
 11 12  1  0
 13 12  1  1
 14  9  1  0
 14 13  1  0
 15 13  1  0
 15 17  1  0
 16 15  2  0
M  END
$$$$
