FKR.pdb
     RDKit          3D

 32 32  0  0  1  0  0  0  0  0999 V2000
    6.8192  -17.6115   25.9856 N   0  0  0  0  0  0  0  0  0  0  0  0
    6.9371  -16.3358   25.3972 C   0  0  1  0  0  0  0  0  0  0  0  0
    7.7364  -15.3836   26.2422 C   0  0  0  0  0  0  0  0  0  0  0  0
    7.0633  -14.1618   26.6498 C   0  0  0  0  0  0  0  0  0  0  0  0
    7.7665  -13.2340   27.4140 C   0  0  0  0  0  0  0  0  0  0  0  0
    7.0947  -12.0647   27.7402 C   0  0  0  0  0  0  0  0  0  0  0  0
    5.8103  -11.8481   27.3258 C   0  0  0  0  0  0  0  0  0  0  0  0
    5.1043  -12.7548   26.5720 C   0  0  0  0  0  0  0  0  0  0  0  0
    5.7595  -13.9268   26.2378 C   0  0  0  0  0  0  0  0  0  0  0  0
    7.4812  -16.2491   24.0440 C   0  0  0  0  0  0  0  0  0  0  0  0
    8.2521  -17.1924   23.6550 O   0  0  0  0  0  0  0  0  0  0  0  0
    7.1870  -15.1633   23.1610 N   0  0  0  0  0  0  0  0  0  0  0  0
    7.8561  -15.1909   21.8941 C   0  0  1  0  0  0  0  0  0  0  0  0
    7.3152  -14.1026   20.9501 C   0  0  0  0  0  0  0  0  0  0  0  0
    8.1100  -14.1934   19.6812 C   0  0  0  0  0  0  0  0  0  0  0  0
    7.6413  -13.3765   18.5317 C   0  0  0  0  0  0  0  0  0  0  0  0
    8.4246  -13.5578   17.2740 C   0  0  0  0  0  0  0  0  0  0  0  0
    7.9482  -12.7978   16.1458 N   0  0  0  0  0  0  0  0  0  0  0  0
    9.3233  -14.9567   22.0859 C   0  0  0  0  0  0  0  0  0  0  0  0
    9.6880  -14.3666   23.1466 O   0  0  0  0  0  0  0  0  0  0  0  0
   14.9147  -16.3245   25.0253 N   0  0  0  0  0  0  0  0  0  0  0  0
   15.6668  -17.3497   24.3727 C   0  0  0  0  0  0  0  0  0  0  0  0
   16.9374  -17.3553   24.3502 N   0  0  0  0  0  0  0  0  0  0  0  0
   14.9433  -18.4046   23.7385 N   0  0  0  0  0  0  0  0  0  0  0  0
   13.4991  -18.3127   23.5989 C   0  0  0  0  0  0  0  0  0  0  0  0
   13.2359  -17.1097   22.7248 C   0  0  0  0  0  0  0  0  0  0  0  0
   11.8078  -16.8346   22.4236 C   0  0  0  0  0  0  0  0  0  0  0  0
   11.6893  -15.6690   21.4377 C   0  0  2  0  0  0  0  0  0  0  0  0
   10.2938  -15.3573   21.1661 N   0  0  0  0  0  0  0  0  0  0  0  0
   12.3849  -16.0092   20.1922 C   0  0  0  0  0  0  0  0  0  0  0  0
   13.6013  -15.4790   19.8372 O   0  0  0  0  0  0  0  0  0  0  0  0
   11.8015  -16.8492   19.4160 O   0  0  0  0  0  0  0  0  0  0  0  0
  2  1  1  1
  2 10  1  0
  2  3  1  0
  3  4  1  0
  4  9  2  0
  4  5  1  0
  5  6  2  0
  6  7  1  0
  8  7  2  0
  9  8  1  0
 10 11  2  0
 12 10  1  0
 12 13  1  0
 13 19  1  0
 13 14  1  6
 15 14  1  0
 16 15  1  0
 17 16  1  0
 18 17  1  0
 19 29  1  0
 19 20  2  0
 21 22  1  0
 22 23  2  0
 24 22  1  0
 24 25  1  0
 25 26  1  0
 27 26  1  0
 28 27  1  1
 28 30  1  0
 29 28  1  0
 30 31  1  0
 32 30  2  0
M  END
$$$$
