FKR.pdb
     RDKit          3D

 32 32  0  0  1  0  0  0  0  0999 V2000
    6.7009  -14.6212   23.7506 N   0  0  0  0  0  0  0  0  0  0  0  0
    7.0022  -15.8842   23.2014 C   0  0  1  0  0  0  0  0  0  0  0  0
    8.1440  -15.8299   22.2252 C   0  0  0  0  0  0  0  0  0  0  0  0
    8.0376  -14.8447   21.1621 C   0  0  0  0  0  0  0  0  0  0  0  0
    8.9322  -14.9111   20.0970 C   0  0  0  0  0  0  0  0  0  0  0  0
    8.7616  -13.9760   19.0863 C   0  0  0  0  0  0  0  0  0  0  0  0
    7.7630  -13.0446   19.1461 C   0  0  0  0  0  0  0  0  0  0  0  0
    6.8737  -12.9671   20.1910 C   0  0  0  0  0  0  0  0  0  0  0  0
    7.0297  -13.8924   21.2078 C   0  0  0  0  0  0  0  0  0  0  0  0
    7.2913  -16.9833   24.1196 C   0  0  0  0  0  0  0  0  0  0  0  0
    7.8154  -16.6887   25.2483 O   0  0  0  0  0  0  0  0  0  0  0  0
    7.0150  -18.3497   23.8006 N   0  0  0  0  0  0  0  0  0  0  0  0
    7.3335  -19.3049   24.8202 C   0  0  1  0  0  0  0  0  0  0  0  0
    6.4033  -20.5289   24.7525 C   0  0  0  0  0  0  0  0  0  0  0  0
    6.8758  -21.4926   25.8004 C   0  0  0  0  0  0  0  0  0  0  0  0
    6.1276  -22.7702   25.9285 C   0  0  0  0  0  0  0  0  0  0  0  0
    6.6500  -23.6997   26.9732 C   0  0  0  0  0  0  0  0  0  0  0  0
    5.9271  -24.9401   27.1003 N   0  0  0  0  0  0  0  0  0  0  0  0
    8.7444  -19.7798   24.6527 C   0  0  0  0  0  0  0  0  0  0  0  0
    8.9911  -20.5489   23.6761 O   0  0  0  0  0  0  0  0  0  0  0  0
   16.0863  -15.5874   23.5289 N   0  0  0  0  0  0  0  0  0  0  0  0
   16.3717  -16.9843   23.4292 C   0  0  0  0  0  0  0  0  0  0  0  0
   17.4489  -17.4267   22.9206 N   0  0  0  0  0  0  0  0  0  0  0  0
   15.4012  -17.8997   23.9377 N   0  0  0  0  0  0  0  0  0  0  0  0
   14.0485  -17.8938   23.4051 C   0  0  0  0  0  0  0  0  0  0  0  0
   13.2766  -18.9170   24.2037 C   0  0  0  0  0  0  0  0  0  0  0  0
   11.8703  -18.5582   24.5191 C   0  0  0  0  0  0  0  0  0  0  0  0
   11.2064  -19.6771   25.3264 C   0  0  2  0  0  0  0  0  0  0  0  0
    9.7861  -19.4155   25.5075 N   0  0  0  0  0  0  0  0  0  0  0  0
   11.8696  -19.8005   26.6286 C   0  0  0  0  0  0  0  0  0  0  0  0
   13.0527  -20.4735   26.8131 O   0  0  0  0  0  0  0  0  0  0  0  0
   11.2900  -19.2388   27.6272 O   0  0  0  0  0  0  0  0  0  0  0  0
  2  1  1  1
  2 10  1  0
  2  3  1  0
  3  4  1  0
  4  9  2  0
  4  5  1  0
  5  6  2  0
  6  7  1  0
  8  7  2  0
  9  8  1  0
 10 11  2  0
 12 10  1  0
 12 13  1  0
 13 19  1  0
 13 14  1  6
 15 14  1  0
 16 15  1  0
 17 16  1  0
 18 17  1  0
 19 29  1  0
 19 20  2  0
 21 22  1  0
 22 23  2  0
 24 22  1  0
 24 25  1  0
 25 26  1  0
 27 26  1  0
 28 27  1  1
 28 30  1  0
 29 28  1  0
 30 31  1  0
 32 30  2  0
M  END
$$$$
