FKR.pdb
     RDKit          3D

 32 32  0  0  1  0  0  0  0  0999 V2000
    5.9163  -17.8152   25.8272 N   0  0  0  0  0  0  0  0  0  0  0  0
    6.3317  -16.5204   25.4550 C   0  0  1  0  0  0  0  0  0  0  0  0
    7.1184  -15.8348   26.5371 C   0  0  0  0  0  0  0  0  0  0  0  0
    6.9169  -14.4019   26.6719 C   0  0  0  0  0  0  0  0  0  0  0  0
    8.0339  -13.5742   26.7520 C   0  0  0  0  0  0  0  0  0  0  0  0
    7.7894  -12.2110   26.8352 C   0  0  0  0  0  0  0  0  0  0  0  0
    6.5136  -11.7204   26.8368 C   0  0  0  0  0  0  0  0  0  0  0  0
    5.4024  -12.5252   26.7589 C   0  0  0  0  0  0  0  0  0  0  0  0
    5.6283  -13.8878   26.6754 C   0  0  0  0  0  0  0  0  0  0  0  0
    7.1020  -16.3719   24.2224 C   0  0  0  0  0  0  0  0  0  0  0  0
    7.9321  -17.2993   23.9284 O   0  0  0  0  0  0  0  0  0  0  0  0
    6.9616  -15.2440   23.3546 N   0  0  0  0  0  0  0  0  0  0  0  0
    7.7375  -15.2831   22.1504 C   0  0  1  0  0  0  0  0  0  0  0  0
    7.5025  -14.0287   21.2906 C   0  0  0  0  0  0  0  0  0  0  0  0
    8.2995  -14.2083   20.0326 C   0  0  0  0  0  0  0  0  0  0  0  0
    8.0752  -13.2206   18.9451 C   0  0  0  0  0  0  0  0  0  0  0  0
    8.7785  -13.5283   17.6649 C   0  0  0  0  0  0  0  0  0  0  0  0
    8.7339  -12.4781   16.6787 N   0  0  0  0  0  0  0  0  0  0  0  0
    9.1961  -15.3549   22.4844 C   0  0  0  0  0  0  0  0  0  0  0  0
    9.6807  -14.4230   23.1936 O   0  0  0  0  0  0  0  0  0  0  0  0
   13.5530  -19.8288   26.6983 N   0  0  0  0  0  0  0  0  0  0  0  0
   14.1772  -20.4066   25.5498 C   0  0  0  0  0  0  0  0  0  0  0  0
   15.3141  -20.9720   25.6023 N   0  0  0  0  0  0  0  0  0  0  0  0
   13.4739  -20.3458   24.3088 N   0  0  0  0  0  0  0  0  0  0  0  0
   12.1365  -19.7780   24.2593 C   0  0  0  0  0  0  0  0  0  0  0  0
   12.3041  -18.3422   23.8222 C   0  0  0  0  0  0  0  0  0  0  0  0
   11.8264  -18.0280   22.4515 C   0  0  0  0  0  0  0  0  0  0  0  0
   11.4512  -16.5471   22.3477 C   0  0  2  0  0  0  0  0  0  0  0  0
   10.0331  -16.3886   22.0610 N   0  0  0  0  0  0  0  0  0  0  0  0
   12.2551  -15.9112   21.2988 C   0  0  0  0  0  0  0  0  0  0  0  0
   11.7449  -15.5327   20.0810 O   0  0  0  0  0  0  0  0  0  0  0  0
   13.4954  -15.7107   21.5637 O   0  0  0  0  0  0  0  0  0  0  0  0
  2  1  1  1
  2 10  1  0
  2  3  1  0
  3  4  1  0
  4  9  2  0
  4  5  1  0
  5  6  2  0
  6  7  1  0
  8  7  2  0
  9  8  1  0
 10 11  2  0
 12 10  1  0
 12 13  1  0
 13 19  1  0
 13 14  1  6
 15 14  1  0
 16 15  1  0
 17 16  1  0
 18 17  1  0
 19 29  1  0
 19 20  2  0
 21 22  1  0
 22 23  2  0
 24 22  1  0
 24 25  1  0
 25 26  1  0
 27 26  1  0
 28 27  1  6
 28 30  1  0
 29 28  1  0
 30 31  1  0
 32 30  2  0
M  END
$$$$
