FKR.pdb
     RDKit          3D

 32 32  0  0  1  0  0  0  0  0999 V2000
    6.2026  -17.6871   25.4414 N   0  0  0  0  0  0  0  0  0  0  0  0
    6.5642  -16.3847   25.0408 C   0  0  1  0  0  0  0  0  0  0  0  0
    7.4733  -15.7097   26.0296 C   0  0  0  0  0  0  0  0  0  0  0  0
    7.0871  -14.3745   26.4540 C   0  0  0  0  0  0  0  0  0  0  0  0
    6.6978  -13.4518   25.4864 C   0  0  0  0  0  0  0  0  0  0  0  0
    6.2963  -12.2056   25.9455 C   0  0  0  0  0  0  0  0  0  0  0  0
    6.2879  -11.9132   27.2808 C   0  0  0  0  0  0  0  0  0  0  0  0
    6.6698  -12.8135   28.2463 C   0  0  0  0  0  0  0  0  0  0  0  0
    7.0734  -14.0615   27.8055 C   0  0  0  0  0  0  0  0  0  0  0  0
    7.1787  -16.2140   23.7263 C   0  0  0  0  0  0  0  0  0  0  0  0
    7.9053  -17.1691   23.2847 O   0  0  0  0  0  0  0  0  0  0  0  0
    6.9989  -15.0354   22.9364 N   0  0  0  0  0  0  0  0  0  0  0  0
    7.5107  -15.0967   21.5993 C   0  0  1  0  0  0  0  0  0  0  0  0
    6.9902  -13.9273   20.7452 C   0  0  0  0  0  0  0  0  0  0  0  0
    7.2766  -14.2730   19.3139 C   0  0  0  0  0  0  0  0  0  0  0  0
    8.2520  -13.4133   18.5945 C   0  0  0  0  0  0  0  0  0  0  0  0
    8.4173  -13.7312   17.1454 C   0  0  0  0  0  0  0  0  0  0  0  0
    9.2892  -12.8397   16.4226 N   0  0  0  0  0  0  0  0  0  0  0  0
    9.0071  -15.0302   21.6214 C   0  0  0  0  0  0  0  0  0  0  0  0
    9.5472  -14.2893   22.4964 O   0  0  0  0  0  0  0  0  0  0  0  0
   13.4874  -19.2522   26.7435 N   0  0  0  0  0  0  0  0  0  0  0  0
   12.2973  -19.4738   25.9839 C   0  0  0  0  0  0  0  0  0  0  0  0
   11.1517  -19.5776   26.5241 N   0  0  0  0  0  0  0  0  0  0  0  0
   12.4213  -19.5668   24.5646 N   0  0  0  0  0  0  0  0  0  0  0  0
   11.2593  -19.3495   23.7185 C   0  0  0  0  0  0  0  0  0  0  0  0
   11.5827  -18.1514   22.8579 C   0  0  0  0  0  0  0  0  0  0  0  0
   10.5793  -17.8205   21.8142 C   0  0  0  0  0  0  0  0  0  0  0  0
   10.9885  -16.5458   21.0711 C   0  0  2  0  0  0  0  0  0  0  0  0
    9.8226  -15.7404   20.7387 N   0  0  0  0  0  0  0  0  0  0  0  0
   11.7218  -16.9040   19.8525 C   0  0  0  0  0  0  0  0  0  0  0  0
   13.0092  -16.4980   19.5987 O   0  0  0  0  0  0  0  0  0  0  0  0
   11.1014  -17.6363   18.9996 O   0  0  0  0  0  0  0  0  0  0  0  0
  2  1  1  1
  2 10  1  0
  2  3  1  0
  3  4  1  0
  4  9  2  0
  4  5  1  0
  5  6  2  0
  6  7  1  0
  8  7  2  0
  9  8  1  0
 10 11  2  0
 12 10  1  0
 12 13  1  0
 13 19  1  0
 13 14  1  6
 15 14  1  0
 16 15  1  0
 17 16  1  0
 18 17  1  0
 19 29  1  0
 19 20  2  0
 21 22  1  0
 22 23  2  0
 24 22  1  0
 24 25  1  0
 25 26  1  0
 27 26  1  0
 28 27  1  6
 28 30  1  0
 29 28  1  0
 30 31  1  0
 32 30  2  0
M  END
$$$$
