FKR.pdb
     RDKit          3D

 32 32  0  0  1  0  0  0  0  0999 V2000
    6.3049  -15.9268   25.4180 N   0  0  0  0  0  0  0  0  0  0  0  0
    7.0811  -15.1106   24.5701 C   0  0  1  0  0  0  0  0  0  0  0  0
    7.8486  -14.0616   25.3251 C   0  0  0  0  0  0  0  0  0  0  0  0
    7.0780  -12.9394   25.8337 C   0  0  0  0  0  0  0  0  0  0  0  0
    6.9331  -12.7974   27.2114 C   0  0  0  0  0  0  0  0  0  0  0  0
    6.2263  -11.6862   27.6482 C   0  0  0  0  0  0  0  0  0  0  0  0
    5.7056  -10.7860   26.7611 C   0  0  0  0  0  0  0  0  0  0  0  0
    5.8403  -10.9138   25.3994 C   0  0  0  0  0  0  0  0  0  0  0  0
    6.5425  -12.0168   24.9466 C   0  0  0  0  0  0  0  0  0  0  0  0
    8.0346  -15.7595   23.6732 C   0  0  0  0  0  0  0  0  0  0  0  0
    8.3873  -16.9569   23.9511 O   0  0  0  0  0  0  0  0  0  0  0  0
    8.5766  -15.1096   22.5204 N   0  0  0  0  0  0  0  0  0  0  0  0
    9.5839  -15.8393   21.8088 C   0  0  1  0  0  0  0  0  0  0  0  0
    9.9605  -15.1374   20.4922 C   0  0  0  0  0  0  0  0  0  0  0  0
    8.8274  -15.3682   19.5368 C   0  0  0  0  0  0  0  0  0  0  0  0
    8.5054  -14.2662   18.5933 C   0  0  0  0  0  0  0  0  0  0  0  0
    7.3333  -14.5241   17.7058 C   0  0  0  0  0  0  0  0  0  0  0  0
    7.0048  -13.4489   16.8039 N   0  0  0  0  0  0  0  0  0  0  0  0
   10.8198  -15.9546   22.6477 C   0  0  0  0  0  0  0  0  0  0  0  0
   11.3513  -14.8796   23.0576 O   0  0  0  0  0  0  0  0  0  0  0  0
   11.0946  -22.6011   28.0894 N   0  0  0  0  0  0  0  0  0  0  0  0
   11.5066  -21.2329   28.1193 C   0  0  0  0  0  0  0  0  0  0  0  0
   11.6471  -20.5854   29.2037 N   0  0  0  0  0  0  0  0  0  0  0  0
   11.7772  -20.5921   26.8725 N   0  0  0  0  0  0  0  0  0  0  0  0
   10.7946  -19.6927   26.2901 C   0  0  0  0  0  0  0  0  0  0  0  0
   11.5600  -18.4771   25.8240 C   0  0  0  0  0  0  0  0  0  0  0  0
   12.4365  -18.6837   24.6430 C   0  0  0  0  0  0  0  0  0  0  0  0
   12.5663  -17.3830   23.8456 C   0  0  2  0  0  0  0  0  0  0  0  0
   11.4018  -17.1741   22.9979 N   0  0  0  0  0  0  0  0  0  0  0  0
   13.7852  -17.4280   23.0312 C   0  0  0  0  0  0  0  0  0  0  0  0
   14.9808  -16.8820   23.4299 O   0  0  0  0  0  0  0  0  0  0  0  0
   13.6976  -18.0159   21.8931 O   0  0  0  0  0  0  0  0  0  0  0  0
  2  1  1  1
  2 10  1  0
  2  3  1  0
  3  4  1  0
  4  9  2  0
  4  5  1  0
  5  6  2  0
  6  7  1  0
  8  7  2  0
  9  8  1  0
 10 11  2  0
 12 10  1  0
 12 13  1  0
 13 19  1  0
 13 14  1  6
 15 14  1  0
 16 15  1  0
 17 16  1  0
 18 17  1  0
 19 29  1  0
 19 20  2  0
 21 22  1  0
 22 23  2  0
 24 22  1  0
 24 25  1  0
 25 26  1  0
 27 26  1  0
 28 27  1  6
 28 30  1  0
 29 28  1  0
 30 31  1  0
 32 30  2  0
M  END
$$$$
