FKR.pdb
     RDKit          3D

 32 32  0  0  1  0  0  0  0  0999 V2000
    7.9048  -16.7725   27.1841 N   0  0  0  0  0  0  0  0  0  0  0  0
    7.4395  -16.2428   25.9633 C   0  0  1  0  0  0  0  0  0  0  0  0
    8.2506  -15.0650   25.5003 C   0  0  0  0  0  0  0  0  0  0  0  0
    7.8936  -13.7741   26.0643 C   0  0  0  0  0  0  0  0  0  0  0  0
    6.6421  -13.2389   25.7699 C   0  0  0  0  0  0  0  0  0  0  0  0
    6.3316  -12.0259   26.3677 C   0  0  0  0  0  0  0  0  0  0  0  0
    7.2174  -11.4007   27.2001 C   0  0  0  0  0  0  0  0  0  0  0  0
    8.4555  -11.9169   27.4989 C   0  0  0  0  0  0  0  0  0  0  0  0
    8.7814  -13.1262   26.9110 C   0  0  0  0  0  0  0  0  0  0  0  0
    7.3255  -17.1452   24.8199 C   0  0  0  0  0  0  0  0  0  0  0  0
    7.8962  -18.2863   24.9078 O   0  0  0  0  0  0  0  0  0  0  0  0
    6.6131  -16.7980   23.6295 N   0  0  0  0  0  0  0  0  0  0  0  0
    6.6549  -17.7653   22.5730 C   0  0  1  0  0  0  0  0  0  0  0  0
    5.3880  -17.7000   21.7020 C   0  0  0  0  0  0  0  0  0  0  0  0
    4.6413  -18.9819   21.9238 C   0  0  0  0  0  0  0  0  0  0  0  0
    3.3837  -19.1717   21.1551 C   0  0  0  0  0  0  0  0  0  0  0  0
    2.7573  -20.5186   21.3021 C   0  0  0  0  0  0  0  0  0  0  0  0
    1.5767  -20.7309   20.5029 N   0  0  0  0  0  0  0  0  0  0  0  0
    7.8408  -17.5108   21.6937 C   0  0  0  0  0  0  0  0  0  0  0  0
    7.6357  -17.4195   20.4464 O   0  0  0  0  0  0  0  0  0  0  0  0
    6.6196  -13.8641   18.5750 N   0  0  0  0  0  0  0  0  0  0  0  0
    7.7857  -13.4200   17.8782 C   0  0  0  0  0  0  0  0  0  0  0  0
    7.8749  -13.4448   16.6108 N   0  0  0  0  0  0  0  0  0  0  0  0
    8.8756  -12.9220   18.6546 N   0  0  0  0  0  0  0  0  0  0  0  0
    8.9198  -13.1696   20.0865 C   0  0  0  0  0  0  0  0  0  0  0  0
    9.4926  -14.5565   20.2569 C   0  0  0  0  0  0  0  0  0  0  0  0
    9.6556  -15.0164   21.6596 C   0  0  0  0  0  0  0  0  0  0  0  0
   10.1686  -16.4588   21.6881 C   0  0  2  0  0  0  0  0  0  0  0  0
    9.1419  -17.3665   22.1783 N   0  0  0  0  0  0  0  0  0  0  0  0
   11.3621  -16.5368   22.5368 C   0  0  0  0  0  0  0  0  0  0  0  0
   12.6401  -16.6086   22.0386 O   0  0  0  0  0  0  0  0  0  0  0  0
   11.1689  -16.5349   23.8062 O   0  0  0  0  0  0  0  0  0  0  0  0
  2  1  1  1
  2 10  1  0
  2  3  1  0
  3  4  1  0
  4  9  2  0
  4  5  1  0
  5  6  2  0
  6  7  1  0
  8  7  2  0
  9  8  1  0
 10 11  2  0
 12 10  1  0
 12 13  1  0
 13 19  1  0
 13 14  1  6
 15 14  1  0
 16 15  1  0
 17 16  1  0
 18 17  1  0
 19 29  1  0
 19 20  2  0
 21 22  1  0
 22 23  2  0
 24 22  1  0
 24 25  1  0
 25 26  1  0
 27 26  1  0
 28 27  1  1
 28 30  1  0
 29 28  1  0
 30 31  1  0
 32 30  2  0
M  END
$$$$
