FKR.pdb
     RDKit          3D

 32 32  0  0  1  0  0  0  0  0999 V2000
    5.5855  -16.7417   24.5523 N   0  0  0  0  0  0  0  0  0  0  0  0
    6.8309  -16.0813   24.5674 C   0  0  1  0  0  0  0  0  0  0  0  0
    7.0734  -15.3388   25.8518 C   0  0  0  0  0  0  0  0  0  0  0  0
    6.9137  -13.8952   25.8024 C   0  0  0  0  0  0  0  0  0  0  0  0
    6.8602  -13.2706   24.5589 C   0  0  0  0  0  0  0  0  0  0  0  0
    6.6627  -11.8973   24.5641 C   0  0  0  0  0  0  0  0  0  0  0  0
    6.5286  -11.2067   25.7361 C   0  0  0  0  0  0  0  0  0  0  0  0
    6.5798  -11.8098   26.9699 C   0  0  0  0  0  0  0  0  0  0  0  0
    6.7765  -13.1794   26.9829 C   0  0  0  0  0  0  0  0  0  0  0  0
    8.0327  -16.8714   24.3100 C   0  0  0  0  0  0  0  0  0  0  0  0
    8.1921  -17.9436   24.9885 O   0  0  0  0  0  0  0  0  0  0  0  0
    9.0168  -16.4891   23.3454 N   0  0  0  0  0  0  0  0  0  0  0  0
   10.0870  -17.4205   23.1435 C   0  0  1  0  0  0  0  0  0  0  0  0
   10.8864  -17.0893   21.8709 C   0  0  0  0  0  0  0  0  0  0  0  0
   11.9423  -18.1459   21.7335 C   0  0  0  0  0  0  0  0  0  0  0  0
   12.8235  -18.0676   20.5395 C   0  0  0  0  0  0  0  0  0  0  0  0
   13.8168  -19.1755   20.4206 C   0  0  0  0  0  0  0  0  0  0  0  0
   14.6762  -19.1008   19.2659 N   0  0  0  0  0  0  0  0  0  0  0  0
   11.0263  -17.3802   24.3098 C   0  0  0  0  0  0  0  0  0  0  0  0
   11.6779  -16.3098   24.4998 O   0  0  0  0  0  0  0  0  0  0  0  0
   14.4233  -21.6025   32.2822 N   0  0  0  0  0  0  0  0  0  0  0  0
   14.3537  -20.9523   31.0114 C   0  0  0  0  0  0  0  0  0  0  0  0
   15.3890  -20.5607   30.3870 N   0  0  0  0  0  0  0  0  0  0  0  0
   13.0628  -20.7563   30.4340 N   0  0  0  0  0  0  0  0  0  0  0  0
   12.9050  -20.7642   28.9888 C   0  0  0  0  0  0  0  0  0  0  0  0
   12.5055  -19.3604   28.6007 C   0  0  0  0  0  0  0  0  0  0  0  0
   11.5235  -19.2554   27.4915 C   0  0  0  0  0  0  0  0  0  0  0  0
   12.1475  -18.5259   26.2987 C   0  0  2  0  0  0  0  0  0  0  0  0
   11.2107  -18.4499   25.1874 N   0  0  0  0  0  0  0  0  0  0  0  0
   13.3703  -19.2219   25.8849 C   0  0  0  0  0  0  0  0  0  0  0  0
   14.6332  -18.7386   26.1262 O   0  0  0  0  0  0  0  0  0  0  0  0
   13.2188  -20.3380   25.2686 O   0  0  0  0  0  0  0  0  0  0  0  0
  2  1  1  1
  2 10  1  0
  2  3  1  0
  3  4  1  0
  4  9  2  0
  4  5  1  0
  5  6  2  0
  6  7  1  0
  8  7  2  0
  9  8  1  0
 10 11  2  0
 12 10  1  0
 12 13  1  0
 13 19  1  0
 13 14  1  6
 15 14  1  0
 16 15  1  0
 17 16  1  0
 18 17  1  0
 19 29  1  0
 19 20  2  0
 21 22  1  0
 22 23  2  0
 24 22  1  0
 24 25  1  0
 25 26  1  0
 27 26  1  0
 28 27  1  1
 28 30  1  0
 29 28  1  0
 30 31  1  0
 32 30  2  0
M  END
$$$$
