FKR.pdb
     RDKit          3D

 32 32  0  0  1  0  0  0  0  0999 V2000
    8.3792  -17.2725   18.9713 N   0  0  0  0  0  0  0  0  0  0  0  0
    9.5790  -16.6728   19.4051 C   0  0  1  0  0  0  0  0  0  0  0  0
    9.3563  -15.6631   20.4962 C   0  0  0  0  0  0  0  0  0  0  0  0
    8.4831  -14.5470   20.1739 C   0  0  0  0  0  0  0  0  0  0  0  0
    8.9789  -13.5188   19.3763 C   0  0  0  0  0  0  0  0  0  0  0  0
    8.0934  -12.4984   19.0605 C   0  0  0  0  0  0  0  0  0  0  0  0
    6.8044  -12.5151   19.5151 C   0  0  0  0  0  0  0  0  0  0  0  0
    6.3019  -13.5227   20.3032 C   0  0  0  0  0  0  0  0  0  0  0  0
    7.1721  -14.5484   20.6277 C   0  0  0  0  0  0  0  0  0  0  0  0
   10.6600  -17.5446   19.8589 C   0  0  0  0  0  0  0  0  0  0  0  0
   10.4293  -18.2969   20.8671 O   0  0  0  0  0  0  0  0  0  0  0  0
   11.9419  -17.5798   19.2259 N   0  0  0  0  0  0  0  0  0  0  0  0
   12.9682  -18.2856   19.9343 C   0  0  1  0  0  0  0  0  0  0  0  0
   14.3098  -18.2280   19.1829 C   0  0  0  0  0  0  0  0  0  0  0  0
   15.2873  -19.0447   19.9751 C   0  0  0  0  0  0  0  0  0  0  0  0
   16.6621  -19.1714   19.4253 C   0  0  0  0  0  0  0  0  0  0  0  0
   17.5760  -20.0446   20.2194 C   0  0  0  0  0  0  0  0  0  0  0  0
   18.8844  -20.2367   19.6461 N   0  0  0  0  0  0  0  0  0  0  0  0
   13.1645  -17.6776   21.2894 C   0  0  0  0  0  0  0  0  0  0  0  0
   13.4871  -16.4530   21.3402 O   0  0  0  0  0  0  0  0  0  0  0  0
    7.6871  -18.1863   25.7467 N   0  0  0  0  0  0  0  0  0  0  0  0
    7.6099  -16.9379   25.0551 C   0  0  0  0  0  0  0  0  0  0  0  0
    6.6625  -16.1116   25.2410 N   0  0  0  0  0  0  0  0  0  0  0  0
    8.6539  -16.6219   24.1339 N   0  0  0  0  0  0  0  0  0  0  0  0
    9.6656  -17.6157   23.8141 C   0  0  0  0  0  0  0  0  0  0  0  0
   10.8653  -17.2865   24.6703 C   0  0  0  0  0  0  0  0  0  0  0  0
   11.9369  -18.3144   24.6971 C   0  0  0  0  0  0  0  0  0  0  0  0
   13.1217  -17.8670   23.8365 C   0  0  2  0  0  0  0  0  0  0  0  0
   13.0057  -18.3859   22.4816 N   0  0  0  0  0  0  0  0  0  0  0  0
   14.3725  -18.3253   24.4499 C   0  0  0  0  0  0  0  0  0  0  0  0
   14.9530  -17.7101   25.5321 O   0  0  0  0  0  0  0  0  0  0  0  0
   14.9282  -19.3575   23.9261 O   0  0  0  0  0  0  0  0  0  0  0  0
  2  1  1  1
  2 10  1  0
  2  3  1  0
  3  4  1  0
  4  9  2  0
  4  5  1  0
  5  6  2  0
  6  7  1  0
  8  7  2  0
  9  8  1  0
 10 11  2  0
 12 10  1  0
 12 13  1  0
 13 19  1  0
 13 14  1  6
 15 14  1  0
 16 15  1  0
 17 16  1  0
 18 17  1  0
 19 29  1  0
 19 20  2  0
 21 22  1  0
 22 23  2  0
 24 22  1  0
 24 25  1  0
 25 26  1  0
 27 26  1  0
 28 27  1  1
 28 30  1  0
 29 28  1  0
 30 31  1  0
 32 30  2  0
M  END
$$$$
