FKR.pdb
     RDKit          3D

 32 32  0  0  1  0  0  0  0  0999 V2000
   10.8765  -15.2930   17.6480 N   0  0  0  0  0  0  0  0  0  0  0  0
   11.2540  -14.9355   18.9583 C   0  0  1  0  0  0  0  0  0  0  0  0
   10.9640  -13.4934   19.2679 C   0  0  0  0  0  0  0  0  0  0  0  0
    9.5629  -13.1313   19.4013 C   0  0  0  0  0  0  0  0  0  0  0  0
    8.6948  -13.4198   18.3513 C   0  0  0  0  0  0  0  0  0  0  0  0
    7.3599  -13.0949   18.5448 C   0  0  0  0  0  0  0  0  0  0  0  0
    6.9335  -12.5224   19.7105 C   0  0  0  0  0  0  0  0  0  0  0  0
    7.7788  -12.2316   20.7543 C   0  0  0  0  0  0  0  0  0  0  0  0
    9.1139  -12.5492   20.5779 C   0  0  0  0  0  0  0  0  0  0  0  0
   10.7131  -15.7165   20.0683 C   0  0  0  0  0  0  0  0  0  0  0  0
   11.0247  -15.3533   21.2542 O   0  0  0  0  0  0  0  0  0  0  0  0
    9.8663  -16.8524   19.8736 N   0  0  0  0  0  0  0  0  0  0  0  0
    9.4544  -17.5348   21.0645 C   0  0  1  0  0  0  0  0  0  0  0  0
    8.4203  -18.6312   20.7538 C   0  0  0  0  0  0  0  0  0  0  0  0
    8.9268  -19.3799   19.5567 C   0  0  0  0  0  0  0  0  0  0  0  0
    8.0593  -20.4607   19.0204 C   0  0  0  0  0  0  0  0  0  0  0  0
    8.5519  -21.0918   17.7605 C   0  0  0  0  0  0  0  0  0  0  0  0
    7.7107  -22.1374   17.2346 N   0  0  0  0  0  0  0  0  0  0  0  0
   10.6376  -18.1796   21.7192 C   0  0  0  0  0  0  0  0  0  0  0  0
   11.7679  -18.0264   21.1666 O   0  0  0  0  0  0  0  0  0  0  0  0
   10.2435  -16.5053   29.9169 N   0  0  0  0  0  0  0  0  0  0  0  0
   10.4633  -15.3809   29.0625 C   0  0  0  0  0  0  0  0  0  0  0  0
    9.9249  -14.2489   29.2714 N   0  0  0  0  0  0  0  0  0  0  0  0
   11.3340  -15.5548   27.9444 N   0  0  0  0  0  0  0  0  0  0  0  0
   10.7884  -15.5850   26.5972 C   0  0  0  0  0  0  0  0  0  0  0  0
   11.2118  -16.9062   26.0006 C   0  0  0  0  0  0  0  0  0  0  0  0
   10.5766  -17.2592   24.7054 C   0  0  0  0  0  0  0  0  0  0  0  0
   11.1256  -18.5933   24.1923 C   0  0  2  0  0  0  0  0  0  0  0  0
   10.5548  -18.9265   22.8955 N   0  0  0  0  0  0  0  0  0  0  0  0
   10.8286  -19.6508   25.1641 C   0  0  0  0  0  0  0  0  0  0  0  0
   11.7388  -20.1068   26.0862 O   0  0  0  0  0  0  0  0  0  0  0  0
    9.6483  -20.1549   25.1260 O   0  0  0  0  0  0  0  0  0  0  0  0
  2  1  1  6
  2 10  1  0
  2  3  1  0
  3  4  1  0
  4  9  2  0
  4  5  1  0
  5  6  2  0
  6  7  1  0
  8  7  2  0
  9  8  1  0
 10 11  2  0
 12 10  1  0
 12 13  1  0
 13 19  1  0
 13 14  1  6
 15 14  1  0
 16 15  1  0
 17 16  1  0
 18 17  1  0
 19 29  1  0
 19 20  2  0
 21 22  1  0
 22 23  2  0
 24 22  1  0
 24 25  1  0
 25 26  1  0
 27 26  1  0
 28 27  1  1
 28 30  1  0
 29 28  1  0
 30 31  1  0
 32 30  2  0
M  END
$$$$
