FKR.pdb
     RDKit          3D

 32 32  0  0  1  0  0  0  0  0999 V2000
    8.9596  -16.6329   20.2573 N   0  0  0  0  0  0  0  0  0  0  0  0
    9.4894  -16.3137   21.5241 C   0  0  1  0  0  0  0  0  0  0  0  0
    9.7658  -14.8443   21.6791 C   0  0  0  0  0  0  0  0  0  0  0  0
    8.8909  -13.9427   20.9486 C   0  0  0  0  0  0  0  0  0  0  0  0
    8.7629  -14.1049   19.5714 C   0  0  0  0  0  0  0  0  0  0  0  0
    7.8825  -13.2483   18.9265 C   0  0  0  0  0  0  0  0  0  0  0  0
    7.1836  -12.2998   19.6196 C   0  0  0  0  0  0  0  0  0  0  0  0
    7.3003  -12.1282   20.9781 C   0  0  0  0  0  0  0  0  0  0  0  0
    8.1745  -12.9744   21.6371 C   0  0  0  0  0  0  0  0  0  0  0  0
    8.7376  -16.7232   22.7081 C   0  0  0  0  0  0  0  0  0  0  0  0
    8.8896  -16.0321   23.7734 O   0  0  0  0  0  0  0  0  0  0  0  0
    7.8581  -17.8508   22.7134 N   0  0  0  0  0  0  0  0  0  0  0  0
    7.1836  -18.1100   23.9508 C   0  0  1  0  0  0  0  0  0  0  0  0
    5.9997  -19.0730   23.7535 C   0  0  0  0  0  0  0  0  0  0  0  0
    5.1132  -18.4639   22.7080 C   0  0  0  0  0  0  0  0  0  0  0  0
    3.9947  -19.3007   22.2010 C   0  0  0  0  0  0  0  0  0  0  0  0
    3.0759  -18.6083   21.2499 C   0  0  0  0  0  0  0  0  0  0  0  0
    1.9864  -19.4150   20.7604 N   0  0  0  0  0  0  0  0  0  0  0  0
    8.1328  -18.7299   24.9301 C   0  0  0  0  0  0  0  0  0  0  0  0
    8.8046  -19.7314   24.5402 O   0  0  0  0  0  0  0  0  0  0  0  0
   10.8860  -20.2484   32.1176 N   0  0  0  0  0  0  0  0  0  0  0  0
    9.5555  -19.8062   32.3949 C   0  0  0  0  0  0  0  0  0  0  0  0
    8.7739  -20.4382   33.1724 N   0  0  0  0  0  0  0  0  0  0  0  0
    9.1122  -18.5996   31.7736 N   0  0  0  0  0  0  0  0  0  0  0  0
   10.0129  -17.8547   30.9090 C   0  0  0  0  0  0  0  0  0  0  0  0
   10.0051  -18.5679   29.5779 C   0  0  0  0  0  0  0  0  0  0  0  0
    9.0843  -18.0094   28.5552 C   0  0  0  0  0  0  0  0  0  0  0  0
    9.1744  -18.8223   27.2608 C   0  0  2  0  0  0  0  0  0  0  0  0
    8.3128  -18.2592   26.2318 N   0  0  0  0  0  0  0  0  0  0  0  0
    8.7997  -20.2144   27.5303 C   0  0  0  0  0  0  0  0  0  0  0  0
    9.7144  -21.2081   27.7804 O   0  0  0  0  0  0  0  0  0  0  0  0
    7.5447  -20.4856   27.5262 O   0  0  0  0  0  0  0  0  0  0  0  0
  2  1  1  6
  2 10  1  0
  2  3  1  0
  3  4  1  0
  4  9  2  0
  4  5  1  0
  5  6  2  0
  6  7  1  0
  8  7  2  0
  9  8  1  0
 10 11  2  0
 12 10  1  0
 12 13  1  0
 13 19  1  0
 13 14  1  6
 15 14  1  0
 16 15  1  0
 17 16  1  0
 18 17  1  0
 19 29  1  0
 19 20  2  0
 21 22  1  0
 22 23  2  0
 24 22  1  0
 24 25  1  0
 25 26  1  0
 27 26  1  0
 28 27  1  1
 28 30  1  0
 29 28  1  0
 30 31  1  0
 32 30  2  0
M  END
$$$$
