MQF.pdb
     RDKit          3D

 29 29  0  0  1  0  0  0  0  0999 V2000
   28.6366  -14.0965  -15.9067 C   0  0  0  0  0  0  0  0  0  0  0  0
   28.3056  -15.5445  -16.8589 S   0  0  0  0  0  0  0  0  0  0  0  0
   26.8007  -15.5647  -17.7894 C   0  0  0  0  0  0  0  0  0  0  0  0
   26.1991  -14.2151  -18.0526 C   0  0  0  0  0  0  0  0  0  0  0  0
   24.9233  -14.2891  -18.8523 C   0  0  2  0  0  0  0  0  0  0  0  0
   25.2652  -14.8514  -20.1426 N   0  0  0  0  0  0  0  0  0  0  0  0
   24.2616  -13.0015  -19.0404 C   0  0  0  0  0  0  0  0  0  0  0  0
   24.6503  -12.2298  -19.9510 O   0  0  0  0  0  0  0  0  0  0  0  0
   18.3732  -12.0898  -18.5683 N   0  0  0  0  0  0  0  0  0  0  0  0
   18.7609  -10.7407  -18.7919 C   0  0  0  0  0  0  0  0  0  0  0  0
   17.8638   -9.9041  -19.0579 O   0  0  0  0  0  0  0  0  0  0  0  0
   20.1867  -10.3491  -18.7096 C   0  0  0  0  0  0  0  0  0  0  0  0
   20.9976  -11.6168  -18.4784 C   0  0  0  0  0  0  0  0  0  0  0  0
   22.4947  -11.2820  -18.4404 C   0  0  2  0  0  0  0  0  0  0  0  0
   23.1729  -12.5370  -18.2450 N   0  0  0  0  0  0  0  0  0  0  0  0
   22.6852  -10.4443  -17.2271 C   0  0  0  0  0  0  0  0  0  0  0  0
   22.5263  -10.9419  -16.0627 O   0  0  0  0  0  0  0  0  0  0  0  0
   23.0466   -9.0712  -17.2615 N   0  0  0  0  0  0  0  0  0  0  0  0
   23.1228   -8.2617  -16.0412 C   0  0  1  0  0  0  0  0  0  0  0  0
   24.5004   -7.6791  -15.8776 C   0  0  0  0  0  0  0  0  0  0  0  0
   25.5431   -8.7268  -15.8152 C   0  0  0  0  0  0  0  0  0  0  0  0
   25.5765   -9.6555  -14.7827 C   0  0  0  0  0  0  0  0  0  0  0  0
   26.5319  -10.6360  -14.7185 C   0  0  0  0  0  0  0  0  0  0  0  0
   27.4984  -10.7170  -15.7024 C   0  0  0  0  0  0  0  0  0  0  0  0
   27.4938   -9.8213  -16.7291 C   0  0  0  0  0  0  0  0  0  0  0  0
   26.5269   -8.8439  -16.7772 C   0  0  0  0  0  0  0  0  0  0  0  0
   22.0378   -7.2763  -16.0123 C   0  0  0  0  0  0  0  0  0  0  0  0
   21.2440   -7.0793  -16.9702 O   0  0  0  0  0  0  0  0  0  0  0  0
   21.8724   -6.5072  -14.8510 O   0  0  0  0  0  0  0  0  0  0  0  0
  1  2  1  0
  3  2  1  0
  4  5  1  0
  4  3  1  0
  5  6  1  6
  7 15  1  0
  7  5  1  0
  8  7  2  0
 10  9  1  0
 10 12  1  0
 11 10  2  0
 13 12  1  0
 14 13  1  1
 14 15  1  0
 16 18  1  0
 16 14  1  0
 17 16  2  0
 19 18  1  0
 19 27  1  0
 19 20  1  6
 21 22  2  0
 21 20  1  0
 23 22  1  0
 24 23  2  0
 25 24  1  0
 25 26  2  0
 26 21  1  0
 27 29  1  0
 28 27  2  0
M  END
$$$$
