MQF.pdb
     RDKit          3D

 29 29  0  0  1  0  0  0  0  0999 V2000
   22.1589  -31.4946   -8.4610 C   0  0  0  0  0  0  0  0  0  0  0  0
   23.3824  -30.4548   -9.1921 S   0  0  0  0  0  0  0  0  0  0  0  0
   24.9123  -31.2172   -9.6493 C   0  0  0  0  0  0  0  0  0  0  0  0
   25.3145  -32.3901   -8.8037 C   0  0  0  0  0  0  0  0  0  0  0  0
   26.5037  -33.1316   -9.3594 C   0  0  2  0  0  0  0  0  0  0  0  0
   26.0421  -33.8589  -10.5238 N   0  0  0  0  0  0  0  0  0  0  0  0
   27.1218  -34.0596   -8.4170 C   0  0  0  0  0  0  0  0  0  0  0  0
   26.5844  -35.1727   -8.1976 O   0  0  0  0  0  0  0  0  0  0  0  0
   32.6758  -33.1303   -5.7119 N   0  0  0  0  0  0  0  0  0  0  0  0
   32.2962  -34.3412   -5.0715 C   0  0  0  0  0  0  0  0  0  0  0  0
   33.1196  -34.8819   -4.2938 O   0  0  0  0  0  0  0  0  0  0  0  0
   30.9635  -34.9351   -5.3249 C   0  0  0  0  0  0  0  0  0  0  0  0
   30.2552  -34.0536   -6.3445 C   0  0  0  0  0  0  0  0  0  0  0  0
   28.8815  -34.6464   -6.6858 C   0  0  2  0  0  0  0  0  0  0  0  0
   28.3271  -33.7920   -7.7034 N   0  0  0  0  0  0  0  0  0  0  0  0
   28.0678  -34.5042   -5.4498 C   0  0  0  0  0  0  0  0  0  0  0  0
   27.3113  -33.4900   -5.2833 O   0  0  0  0  0  0  0  0  0  0  0  0
   28.0644  -35.4504   -4.3906 N   0  0  0  0  0  0  0  0  0  0  0  0
   27.0977  -35.3750   -3.2906 C   0  0  1  0  0  0  0  0  0  0  0  0
   25.6897  -35.4232   -3.8190 C   0  0  0  0  0  0  0  0  0  0  0  0
   24.6863  -35.3563   -2.7338 C   0  0  0  0  0  0  0  0  0  0  0  0
   24.1831  -34.1414   -2.2859 C   0  0  0  0  0  0  0  0  0  0  0  0
   23.2471  -34.0669   -1.2876 C   0  0  0  0  0  0  0  0  0  0  0  0
   22.7794  -35.2255   -0.6983 C   0  0  0  0  0  0  0  0  0  0  0  0
   23.2525  -36.4336   -1.1146 C   0  0  0  0  0  0  0  0  0  0  0  0
   24.1918  -36.4892   -2.1181 C   0  0  0  0  0  0  0  0  0  0  0  0
   27.4009  -36.3858   -2.2730 C   0  0  0  0  0  0  0  0  0  0  0  0
   28.2649  -37.2905   -2.4190 O   0  0  0  0  0  0  0  0  0  0  0  0
   26.6883  -36.3444   -1.0655 O   0  0  0  0  0  0  0  0  0  0  0  0
  1  2  1  0
  3  2  1  0
  4  5  1  0
  4  3  1  0
  5  6  1  6
  7 15  1  0
  7  5  1  0
  8  7  2  0
 10  9  1  0
 10 12  1  0
 11 10  2  0
 13 12  1  0
 14 13  1  1
 14 15  1  0
 16 18  1  0
 16 14  1  0
 17 16  2  0
 19 18  1  0
 19 27  1  0
 19 20  1  6
 21 22  2  0
 21 20  1  0
 23 22  1  0
 24 23  2  0
 25 24  1  0
 25 26  2  0
 26 21  1  0
 27 29  1  0
 28 27  2  0
M  END
$$$$
