MQF.pdb
     RDKit          3D

 29 29  0  0  1  0  0  0  0  0999 V2000
   27.6661  -11.6023  -15.1100 C   0  0  0  0  0  0  0  0  0  0  0  0
   27.8298  -12.9747  -16.2066 S   0  0  0  0  0  0  0  0  0  0  0  0
   26.4612  -13.3135  -17.2758 C   0  0  0  0  0  0  0  0  0  0  0  0
   25.3836  -12.2688  -17.2778 C   0  0  0  0  0  0  0  0  0  0  0  0
   24.2273  -12.6228  -18.1780 C   0  0  2  0  0  0  0  0  0  0  0  0
   24.7492  -12.6977  -19.5270 N   0  0  0  0  0  0  0  0  0  0  0  0
   23.1230  -11.6689  -18.1337 C   0  0  0  0  0  0  0  0  0  0  0  0
   22.9307  -10.8949  -19.1031 O   0  0  0  0  0  0  0  0  0  0  0  0
   18.0329  -13.5060  -15.6339 N   0  0  0  0  0  0  0  0  0  0  0  0
   17.5606  -12.2920  -16.2029 C   0  0  0  0  0  0  0  0  0  0  0  0
   16.3201  -12.1287  -16.3017 O   0  0  0  0  0  0  0  0  0  0  0  0
   18.5177  -11.2591  -16.6612 C   0  0  0  0  0  0  0  0  0  0  0  0
   19.9187  -11.8393  -16.5241 C   0  0  0  0  0  0  0  0  0  0  0  0
   20.9502  -10.8610  -17.1019 C   0  0  2  0  0  0  0  0  0  0  0  0
   22.2164  -11.5437  -17.0401 N   0  0  0  0  0  0  0  0  0  0  0  0
   20.9824   -9.7125  -16.1585 C   0  0  0  0  0  0  0  0  0  0  0  0
   19.9881   -8.9174  -16.0689 O   0  0  0  0  0  0  0  0  0  0  0  0
   22.0816   -9.4155  -15.3096 N   0  0  0  0  0  0  0  0  0  0  0  0
   22.1298   -8.1878  -14.5092 C   0  0  1  0  0  0  0  0  0  0  0  0
   23.5469   -7.8649  -14.1199 C   0  0  0  0  0  0  0  0  0  0  0  0
   24.3666   -7.4672  -15.2855 C   0  0  0  0  0  0  0  0  0  0  0  0
   24.5155   -6.1338  -15.6457 C   0  0  0  0  0  0  0  0  0  0  0  0
   25.2791   -5.7522  -16.7179 C   0  0  0  0  0  0  0  0  0  0  0  0
   25.9269   -6.7100  -17.4739 C   0  0  0  0  0  0  0  0  0  0  0  0
   25.8015   -8.0268  -17.1473 C   0  0  0  0  0  0  0  0  0  0  0  0
   25.0310   -8.3913  -16.0676 C   0  0  0  0  0  0  0  0  0  0  0  0
   21.4246   -7.1014  -15.1959 C   0  0  0  0  0  0  0  0  0  0  0  0
   21.1846   -5.9808  -14.6734 O   0  0  0  0  0  0  0  0  0  0  0  0
   20.9912   -7.3208  -16.5118 O   0  0  0  0  0  0  0  0  0  0  0  0
  1  2  1  0
  3  2  1  0
  4  5  1  0
  4  3  1  0
  5  6  1  6
  7 15  1  0
  7  5  1  0
  8  7  2  0
 10  9  1  0
 10 12  1  0
 11 10  2  0
 13 12  1  0
 14 13  1  1
 14 15  1  0
 16 18  1  0
 16 14  1  0
 17 16  2  0
 19 18  1  0
 19 27  1  0
 19 20  1  6
 21 22  2  0
 21 20  1  0
 23 22  1  0
 24 23  2  0
 25 24  1  0
 25 26  2  0
 26 21  1  0
 27 29  1  0
 28 27  2  0
M  END
$$$$
