MQF.pdb
     RDKit          3D

 29 29  0  0  1  0  0  0  0  0999 V2000
   26.3809  -14.7766  -14.8941 C   0  0  0  0  0  0  0  0  0  0  0  0
   27.8645  -15.5155  -15.4989 S   0  0  0  0  0  0  0  0  0  0  0  0
   27.6953  -16.7045  -16.7983 C   0  0  0  0  0  0  0  0  0  0  0  0
   26.5543  -17.6657  -16.6344 C   0  0  0  0  0  0  0  0  0  0  0  0
   26.5453  -18.7475  -17.6842 C   0  0  2  0  0  0  0  0  0  0  0  0
   26.2135  -18.1124  -18.9430 N   0  0  0  0  0  0  0  0  0  0  0  0
   25.6009  -19.8287  -17.4187 C   0  0  0  0  0  0  0  0  0  0  0  0
   24.3769  -19.6519  -17.6342 O   0  0  0  0  0  0  0  0  0  0  0  0
   27.1710  -25.7224  -16.1354 N   0  0  0  0  0  0  0  0  0  0  0  0
   25.7793  -25.7816  -15.8523 C   0  0  0  0  0  0  0  0  0  0  0  0
   25.2946  -26.8835  -15.4971 O   0  0  0  0  0  0  0  0  0  0  0  0
   24.9387  -24.5689  -15.9775 C   0  0  0  0  0  0  0  0  0  0  0  0
   25.8583  -23.4083  -16.3319 C   0  0  0  0  0  0  0  0  0  0  0  0
   25.0413  -22.1174  -16.4767 C   0  0  2  0  0  0  0  0  0  0  0  0
   25.9721  -21.1111  -16.9176 N   0  0  0  0  0  0  0  0  0  0  0  0
   24.5876  -21.7764  -15.1027 C   0  0  0  0  0  0  0  0  0  0  0  0
   25.4287  -21.6686  -14.1489 O   0  0  0  0  0  0  0  0  0  0  0  0
   23.2305  -21.5505  -14.7501 N   0  0  0  0  0  0  0  0  0  0  0  0
   22.8347  -21.2111  -13.3795 C   0  0  1  0  0  0  0  0  0  0  0  0
   23.5705  -19.9880  -12.9036 C   0  0  0  0  0  0  0  0  0  0  0  0
   24.9499  -20.3025  -12.4709 C   0  0  0  0  0  0  0  0  0  0  0  0
   25.1985  -21.1800  -11.4230 C   0  0  0  0  0  0  0  0  0  0  0  0
   26.4717  -21.4860  -11.0186 C   0  0  0  0  0  0  0  0  0  0  0  0
   27.5517  -20.9132  -11.6619 C   0  0  0  0  0  0  0  0  0  0  0  0
   27.3424  -20.0482  -12.6937 C   0  0  0  0  0  0  0  0  0  0  0  0
   26.0574  -19.7529  -13.0861 C   0  0  0  0  0  0  0  0  0  0  0  0
   21.3751  -21.1222  -13.2757 C   0  0  0  0  0  0  0  0  0  0  0  0
   20.5946  -21.2283  -14.2585 O   0  0  0  0  0  0  0  0  0  0  0  0
   20.8132  -20.9065  -12.0087 O   0  0  0  0  0  0  0  0  0  0  0  0
  1  2  1  0
  3  2  1  0
  4  5  1  0
  4  3  1  0
  5  6  1  6
  7 15  1  0
  7  5  1  0
  8  7  2  0
 10  9  1  0
 10 12  1  0
 11 10  2  0
 13 12  1  0
 14 13  1  1
 14 15  1  0
 16 18  1  0
 16 14  1  0
 17 16  2  0
 19 18  1  0
 19 27  1  0
 19 20  1  6
 21 22  2  0
 21 20  1  0
 23 22  1  0
 24 23  2  0
 25 24  1  0
 25 26  2  0
 26 21  1  0
 27 29  1  0
 28 27  2  0
M  END
$$$$
