MQF.pdb
     RDKit          3D

 29 29  0  0  1  0  0  0  0  0999 V2000
   27.0962  -14.2745  -16.1302 C   0  0  0  0  0  0  0  0  0  0  0  0
   28.3155  -15.3534  -16.8100 S   0  0  0  0  0  0  0  0  0  0  0  0
   28.3997  -16.9895  -16.1413 C   0  0  0  0  0  0  0  0  0  0  0  0
   27.6521  -17.1887  -14.8552 C   0  0  0  0  0  0  0  0  0  0  0  0
   27.7552  -18.5984  -14.3309 C   0  0  2  0  0  0  0  0  0  0  0  0
   27.4395  -19.4835  -15.4330 N   0  0  0  0  0  0  0  0  0  0  0  0
   26.8689  -18.8830  -13.2064 C   0  0  0  0  0  0  0  0  0  0  0  0
   26.3570  -17.9345  -12.5627 O   0  0  0  0  0  0  0  0  0  0  0  0
   22.2310  -21.3719  -11.3688 N   0  0  0  0  0  0  0  0  0  0  0  0
   22.7520  -20.9511  -12.6226 C   0  0  0  0  0  0  0  0  0  0  0  0
   22.1890  -19.9924  -13.2050 O   0  0  0  0  0  0  0  0  0  0  0  0
   23.9263  -21.6346  -13.2116 C   0  0  0  0  0  0  0  0  0  0  0  0
   24.9461  -21.8346  -12.0989 C   0  0  0  0  0  0  0  0  0  0  0  0
   25.5821  -20.4896  -11.7226 C   0  0  2  0  0  0  0  0  0  0  0  0
   26.5279  -20.1964  -12.7680 N   0  0  0  0  0  0  0  0  0  0  0  0
   26.3289  -20.7406  -10.4619 C   0  0  0  0  0  0  0  0  0  0  0  0
   27.3341  -21.5267  -10.4480 O   0  0  0  0  0  0  0  0  0  0  0  0
   25.9982  -20.1481   -9.2142 N   0  0  0  0  0  0  0  0  0  0  0  0
   26.7062  -20.5013   -7.9796 C   0  0  1  0  0  0  0  0  0  0  0  0
   27.7846  -19.4953   -7.6814 C   0  0  0  0  0  0  0  0  0  0  0  0
   28.3225  -19.6468   -6.3116 C   0  0  0  0  0  0  0  0  0  0  0  0
   29.2560  -20.6285   -6.0041 C   0  0  0  0  0  0  0  0  0  0  0  0
   29.7683  -20.7733   -4.7412 C   0  0  0  0  0  0  0  0  0  0  0  0
   29.3543  -19.9255   -3.7320 C   0  0  0  0  0  0  0  0  0  0  0  0
   28.4398  -18.9518   -4.0004 C   0  0  0  0  0  0  0  0  0  0  0  0
   27.9365  -18.8212   -5.2741 C   0  0  0  0  0  0  0  0  0  0  0  0
   25.7530  -20.7140   -6.8863 C   0  0  0  0  0  0  0  0  0  0  0  0
   24.5541  -20.3292   -6.9165 O   0  0  0  0  0  0  0  0  0  0  0  0
   26.2005  -21.3853   -5.7388 O   0  0  0  0  0  0  0  0  0  0  0  0
  1  2  1  0
  3  2  1  0
  4  5  1  0
  4  3  1  0
  5  6  1  6
  7 15  1  0
  7  5  1  0
  8  7  2  0
 10  9  1  0
 10 12  1  0
 11 10  2  0
 13 12  1  0
 14 13  1  6
 14 15  1  0
 16 18  1  0
 16 14  1  0
 17 16  2  0
 19 18  1  0
 19 27  1  0
 19 20  1  1
 21 22  2  0
 21 20  1  0
 23 22  1  0
 24 23  2  0
 25 24  1  0
 25 26  2  0
 26 21  1  0
 27 29  1  0
 28 27  2  0
M  END
$$$$
