MQF.pdb
     RDKit          3D

 29 29  0  0  1  0  0  0  0  0999 V2000
   24.4681  -19.5862  -22.5742 C   0  0  0  0  0  0  0  0  0  0  0  0
   24.6840  -18.0736  -21.6919 S   0  0  0  0  0  0  0  0  0  0  0  0
   25.0107  -18.1977  -19.9572 C   0  0  0  0  0  0  0  0  0  0  0  0
   25.0516  -19.5977  -19.4177 C   0  0  0  0  0  0  0  0  0  0  0  0
   23.8909  -19.9077  -18.5070 C   0  0  2  0  0  0  0  0  0  0  0  0
   23.7252  -18.7670  -17.6299 N   0  0  0  0  0  0  0  0  0  0  0  0
   24.0661  -21.1169  -17.7079 C   0  0  0  0  0  0  0  0  0  0  0  0
   24.2900  -22.2123  -18.2788 O   0  0  0  0  0  0  0  0  0  0  0  0
   27.9858  -23.3106  -15.9069 N   0  0  0  0  0  0  0  0  0  0  0  0
   27.6989  -21.9855  -16.3342 C   0  0  0  0  0  0  0  0  0  0  0  0
   28.5336  -21.4089  -17.0732 O   0  0  0  0  0  0  0  0  0  0  0  0
   26.4464  -21.3183  -15.9112 C   0  0  0  0  0  0  0  0  0  0  0  0
   25.6692  -22.3053  -15.0510 C   0  0  0  0  0  0  0  0  0  0  0  0
   24.1976  -22.3341  -15.4854 C   0  0  2  0  0  0  0  0  0  0  0  0
   24.0009  -21.1521  -16.2838 N   0  0  0  0  0  0  0  0  0  0  0  0
   23.4093  -22.1984  -14.2323 C   0  0  0  0  0  0  0  0  0  0  0  0
   23.4033  -23.1338  -13.3642 O   0  0  0  0  0  0  0  0  0  0  0  0
   22.6264  -21.0584  -13.9088 N   0  0  0  0  0  0  0  0  0  0  0  0
   21.8293  -20.9924  -12.6798 C   0  0  1  0  0  0  0  0  0  0  0  0
   22.3129  -19.8760  -11.7945 C   0  0  0  0  0  0  0  0  0  0  0  0
   23.6389  -20.1677  -11.2066 C   0  0  0  0  0  0  0  0  0  0  0  0
   23.7749  -20.5441   -9.8763 C   0  0  0  0  0  0  0  0  0  0  0  0
   24.9966  -20.8252   -9.3225 C   0  0  0  0  0  0  0  0  0  0  0  0
   26.1373  -20.7364  -10.0969 C   0  0  0  0  0  0  0  0  0  0  0  0
   26.0384  -20.3699  -11.4055 C   0  0  0  0  0  0  0  0  0  0  0  0
   24.8037  -20.0915  -11.9444 C   0  0  0  0  0  0  0  0  0  0  0  0
   20.3995  -20.9397  -12.9996 C   0  0  0  0  0  0  0  0  0  0  0  0
   19.9468  -20.7967  -14.1662 O   0  0  0  0  0  0  0  0  0  0  0  0
   19.4805  -21.0553  -11.9461 O   0  0  0  0  0  0  0  0  0  0  0  0
  1  2  1  0
  3  2  1  0
  4  5  1  0
  4  3  1  0
  5  6  1  1
  7 15  1  0
  7  5  1  0
  8  7  2  0
 10  9  1  0
 10 12  1  0
 11 10  2  0
 13 12  1  0
 14 13  1  1
 14 15  1  0
 16 18  1  0
 16 14  1  0
 17 16  2  0
 19 18  1  0
 19 27  1  0
 19 20  1  6
 21 22  2  0
 21 20  1  0
 23 22  1  0
 24 23  2  0
 25 24  1  0
 25 26  2  0
 26 21  1  0
 27 29  1  0
 28 27  2  0
M  END
$$$$
