MQF.pdb
     RDKit          3D

 29 29  0  0  1  0  0  0  0  0999 V2000
   27.2742  -14.6290  -18.3402 C   0  0  0  0  0  0  0  0  0  0  0  0
   28.2600  -15.8177  -17.4868 S   0  0  0  0  0  0  0  0  0  0  0  0
   27.6314  -16.4228  -15.9474 C   0  0  0  0  0  0  0  0  0  0  0  0
   26.4271  -17.3115  -16.0590 C   0  0  0  0  0  0  0  0  0  0  0  0
   26.7866  -18.7589  -16.2793 C   0  0  2  0  0  0  0  0  0  0  0  0
   27.3661  -18.8537  -17.6034 N   0  0  0  0  0  0  0  0  0  0  0  0
   25.6565  -19.6770  -16.1738 C   0  0  0  0  0  0  0  0  0  0  0  0
   24.9223  -19.8766  -17.1723 O   0  0  0  0  0  0  0  0  0  0  0  0
   25.2872  -24.3610  -12.2367 N   0  0  0  0  0  0  0  0  0  0  0  0
   24.0010  -24.4638  -12.8331 C   0  0  0  0  0  0  0  0  0  0  0  0
   23.3269  -25.4988  -12.6098 O   0  0  0  0  0  0  0  0  0  0  0  0
   23.4851  -23.3724  -13.6907 C   0  0  0  0  0  0  0  0  0  0  0  0
   24.6071  -22.3582  -13.8664 C   0  0  0  0  0  0  0  0  0  0  0  0
   24.1812  -21.2726  -14.8639 C   0  0  2  0  0  0  0  0  0  0  0  0
   25.3103  -20.3878  -14.9870 N   0  0  0  0  0  0  0  0  0  0  0  0
   23.0706  -20.5377  -14.2031 C   0  0  0  0  0  0  0  0  0  0  0  0
   23.2812  -19.8583  -13.1435 O   0  0  0  0  0  0  0  0  0  0  0  0
   21.7323  -20.5307  -14.6785 N   0  0  0  0  0  0  0  0  0  0  0  0
   20.7011  -19.6838  -14.0706 C   0  0  1  0  0  0  0  0  0  0  0  0
   21.1233  -18.2398  -14.0890 C   0  0  0  0  0  0  0  0  0  0  0  0
   21.4175  -17.7642  -15.4587 C   0  0  0  0  0  0  0  0  0  0  0  0
   22.6993  -17.3818  -15.8335 C   0  0  0  0  0  0  0  0  0  0  0  0
   22.9861  -16.9479  -17.1015 C   0  0  0  0  0  0  0  0  0  0  0  0
   21.9815  -16.8829  -18.0476 C   0  0  0  0  0  0  0  0  0  0  0  0
   20.7131  -17.2509  -17.7123 C   0  0  0  0  0  0  0  0  0  0  0  0
   20.4438  -17.6840  -16.4348 C   0  0  0  0  0  0  0  0  0  0  0  0
   19.3965  -19.9445  -14.6865 C   0  0  0  0  0  0  0  0  0  0  0  0
   18.3277  -19.3817  -14.3296 O   0  0  0  0  0  0  0  0  0  0  0  0
   19.3329  -20.8746  -15.7346 O   0  0  0  0  0  0  0  0  0  0  0  0
  1  2  1  0
  3  2  1  0
  4  5  1  0
  4  3  1  0
  5  6  1  6
  7 15  1  0
  7  5  1  0
  8  7  2  0
 10  9  1  0
 10 12  1  0
 11 10  2  0
 13 12  1  0
 14 13  1  1
 14 15  1  0
 16 18  1  0
 16 14  1  0
 17 16  2  0
 19 18  1  0
 19 27  1  0
 19 20  1  6
 21 22  2  0
 21 20  1  0
 23 22  1  0
 24 23  2  0
 25 24  1  0
 25 26  2  0
 26 21  1  0
 27 29  1  0
 28 27  2  0
M  END
$$$$
