MQF.pdb
     RDKit          3D

 29 29  0  0  1  0  0  0  0  0999 V2000
   17.0481  -26.2943  -10.0531 C   0  0  0  0  0  0  0  0  0  0  0  0
   18.1448  -24.9574   -9.7025 S   0  0  0  0  0  0  0  0  0  0  0  0
   17.5800  -23.3304  -10.1087 C   0  0  0  0  0  0  0  0  0  0  0  0
   18.5576  -22.2288   -9.8200 C   0  0  0  0  0  0  0  0  0  0  0  0
   19.9899  -22.6990   -9.8344 C   0  0  2  0  0  0  0  0  0  0  0  0
   20.4651  -22.6488   -8.4671 N   0  0  0  0  0  0  0  0  0  0  0  0
   20.8698  -21.9052  -10.6870 C   0  0  0  0  0  0  0  0  0  0  0  0
   21.3462  -20.8268  -10.2558 O   0  0  0  0  0  0  0  0  0  0  0  0
   25.2299  -22.7462  -13.3500 N   0  0  0  0  0  0  0  0  0  0  0  0
   24.9312  -22.0292  -14.5406 C   0  0  0  0  0  0  0  0  0  0  0  0
   25.8892  -21.6352  -15.2493 O   0  0  0  0  0  0  0  0  0  0  0  0
   23.5248  -21.7631  -14.9201 C   0  0  0  0  0  0  0  0  0  0  0  0
   22.6350  -22.4928  -13.9231 C   0  0  0  0  0  0  0  0  0  0  0  0
   22.1400  -21.5153  -12.8486 C   0  0  2  0  0  0  0  0  0  0  0  0
   21.2426  -22.2710  -12.0139 N   0  0  0  0  0  0  0  0  0  0  0  0
   21.3563  -20.4842  -13.5784 C   0  0  0  0  0  0  0  0  0  0  0  0
   20.1438  -20.7041  -13.9103 O   0  0  0  0  0  0  0  0  0  0  0  0
   21.8726  -19.2152  -13.9531 N   0  0  0  0  0  0  0  0  0  0  0  0
   21.0735  -18.2508  -14.7157 C   0  0  1  0  0  0  0  0  0  0  0  0
   21.7053  -16.8859  -14.6695 C   0  0  0  0  0  0  0  0  0  0  0  0
   20.9323  -15.8893  -15.4427 C   0  0  0  0  0  0  0  0  0  0  0  0
   19.8859  -15.1790  -14.8679 C   0  0  0  0  0  0  0  0  0  0  0  0
   19.1682  -14.2470  -15.5712 C   0  0  0  0  0  0  0  0  0  0  0  0
   19.4819  -13.9943  -16.8927 C   0  0  0  0  0  0  0  0  0  0  0  0
   20.5027  -14.6739  -17.4864 C   0  0  0  0  0  0  0  0  0  0  0  0
   21.2124  -15.6057  -16.7649 C   0  0  0  0  0  0  0  0  0  0  0  0
   20.8146  -18.7562  -16.0672 C   0  0  0  0  0  0  0  0  0  0  0  0
   21.6890  -19.3016  -16.7913 O   0  0  0  0  0  0  0  0  0  0  0  0
   19.5178  -18.6257  -16.5859 O   0  0  0  0  0  0  0  0  0  0  0  0
  1  2  1  0
  3  2  1  0
  4  5  1  0
  4  3  1  0
  5  6  1  1
  7 15  1  0
  7  5  1  0
  8  7  2  0
 10  9  1  0
 10 12  1  0
 11 10  2  0
 13 12  1  0
 14 13  1  6
 14 15  1  0
 16 18  1  0
 16 14  1  0
 17 16  2  0
 19 18  1  0
 19 27  1  0
 19 20  1  6
 21 22  2  0
 21 20  1  0
 23 22  1  0
 24 23  2  0
 25 24  1  0
 25 26  2  0
 26 21  1  0
 27 29  1  0
 28 27  2  0
M  END
$$$$
