MQF.pdb
     RDKit          3D

 29 29  0  0  1  0  0  0  0  0999 V2000
   29.0204  -23.6482  -18.7313 C   0  0  0  0  0  0  0  0  0  0  0  0
   29.4537  -24.3698  -17.1808 S   0  0  0  0  0  0  0  0  0  0  0  0
   30.0993  -26.0170  -17.2163 C   0  0  0  0  0  0  0  0  0  0  0  0
   29.1181  -27.0744  -17.6306 C   0  0  0  0  0  0  0  0  0  0  0  0
   29.6858  -28.4679  -17.5377 C   0  0  2  0  0  0  0  0  0  0  0  0
   30.6328  -28.6119  -18.6241 N   0  0  0  0  0  0  0  0  0  0  0  0
   28.6841  -29.5268  -17.6192 C   0  0  0  0  0  0  0  0  0  0  0  0
   28.3370  -29.9692  -18.7415 O   0  0  0  0  0  0  0  0  0  0  0  0
   27.7972  -33.8868  -13.4797 N   0  0  0  0  0  0  0  0  0  0  0  0
   26.6897  -34.1749  -14.3230 C   0  0  0  0  0  0  0  0  0  0  0  0
   26.0204  -35.2100  -14.0869 O   0  0  0  0  0  0  0  0  0  0  0  0
   26.3483  -33.2695  -15.4440 C   0  0  0  0  0  0  0  0  0  0  0  0
   27.3462  -32.1196  -15.4248 C   0  0  0  0  0  0  0  0  0  0  0  0
   27.0318  -31.1336  -16.5579 C   0  0  2  0  0  0  0  0  0  0  0  0
   28.0489  -30.1169  -16.4870 N   0  0  0  0  0  0  0  0  0  0  0  0
   25.7234  -30.5232  -16.2036 C   0  0  0  0  0  0  0  0  0  0  0  0
   25.5922  -29.8457  -15.1301 O   0  0  0  0  0  0  0  0  0  0  0  0
   24.5538  -30.6388  -17.0009 N   0  0  0  0  0  0  0  0  0  0  0  0
   23.2926  -29.9950  -16.6201 C   0  0  1  0  0  0  0  0  0  0  0  0
   23.0947  -28.7194  -17.3931 C   0  0  0  0  0  0  0  0  0  0  0  0
   23.9541  -27.6254  -16.8896 C   0  0  0  0  0  0  0  0  0  0  0  0
   23.5441  -26.8026  -15.8481 C   0  0  0  0  0  0  0  0  0  0  0  0
   24.3345  -25.7916  -15.3671 C   0  0  0  0  0  0  0  0  0  0  0  0
   25.5794  -25.5707  -15.9237 C   0  0  0  0  0  0  0  0  0  0  0  0
   26.0117  -26.3600  -16.9468 C   0  0  0  0  0  0  0  0  0  0  0  0
   25.2047  -27.3702  -17.4166 C   0  0  0  0  0  0  0  0  0  0  0  0
   22.1817  -30.9464  -16.7208 C   0  0  0  0  0  0  0  0  0  0  0  0
   21.0002  -30.6841  -16.3721 O   0  0  0  0  0  0  0  0  0  0  0  0
   22.4483  -32.2237  -17.2355 O   0  0  0  0  0  0  0  0  0  0  0  0
  1  2  1  0
  3  2  1  0
  4  5  1  0
  4  3  1  0
  5  6  1  6
  7 15  1  0
  7  5  1  0
  8  7  2  0
 10  9  1  0
 10 12  1  0
 11 10  2  0
 13 12  1  0
 14 13  1  1
 14 15  1  0
 16 18  1  0
 16 14  1  0
 17 16  2  0
 19 18  1  0
 19 27  1  0
 19 20  1  6
 21 22  2  0
 21 20  1  0
 23 22  1  0
 24 23  2  0
 25 24  1  0
 25 26  2  0
 26 21  1  0
 27 29  1  0
 28 27  2  0
M  END
$$$$
