MQF.pdb
     RDKit          3D

 29 29  0  0  1  0  0  0  0  0999 V2000
   29.1932  -13.7442  -15.1595 C   0  0  0  0  0  0  0  0  0  0  0  0
   27.7351  -13.1558  -15.9601 S   0  0  0  0  0  0  0  0  0  0  0  0
   27.9478  -12.3515  -17.5218 C   0  0  0  0  0  0  0  0  0  0  0  0
   26.6891  -11.8082  -18.1324 C   0  0  0  0  0  0  0  0  0  0  0  0
   25.4891  -12.6840  -17.8759 C   0  0  2  0  0  0  0  0  0  0  0  0
   25.6343  -13.8562  -18.7143 N   0  0  0  0  0  0  0  0  0  0  0  0
   24.2094  -12.0393  -18.1551 C   0  0  0  0  0  0  0  0  0  0  0  0
   24.0017  -11.5328  -19.2848 O   0  0  0  0  0  0  0  0  0  0  0  0
   18.1841  -12.0907  -16.3682 N   0  0  0  0  0  0  0  0  0  0  0  0
   18.5390  -12.5698  -17.6586 C   0  0  0  0  0  0  0  0  0  0  0  0
   17.6154  -12.9068  -18.4388 O   0  0  0  0  0  0  0  0  0  0  0  0
   19.9625  -12.6626  -18.0561 C   0  0  0  0  0  0  0  0  0  0  0  0
   20.7965  -12.1195  -16.9039 C   0  0  0  0  0  0  0  0  0  0  0  0
   21.9154  -11.2195  -17.4452 C   0  0  2  0  0  0  0  0  0  0  0  0
   23.1424  -11.9368  -17.2145 N   0  0  0  0  0  0  0  0  0  0  0  0
   21.9038  -10.0075  -16.5842 C   0  0  0  0  0  0  0  0  0  0  0  0
   22.3831  -10.0459  -15.4021 O   0  0  0  0  0  0  0  0  0  0  0  0
   21.3778   -8.7524  -16.9906 N   0  0  0  0  0  0  0  0  0  0  0  0
   21.2792   -7.6198  -16.0646 C   0  0  1  0  0  0  0  0  0  0  0  0
   22.5568   -6.8250  -16.0623 C   0  0  0  0  0  0  0  0  0  0  0  0
   22.3835   -5.4960  -15.4358 C   0  0  0  0  0  0  0  0  0  0  0  0
   22.4181   -4.3295  -16.1893 C   0  0  0  0  0  0  0  0  0  0  0  0
   22.2502   -3.0933  -15.6220 C   0  0  0  0  0  0  0  0  0  0  0  0
   22.0393   -2.9865  -14.2609 C   0  0  0  0  0  0  0  0  0  0  0  0
   21.9997   -4.1115  -13.4931 C   0  0  0  0  0  0  0  0  0  0  0  0
   22.1701   -5.3439  -14.0799 C   0  0  0  0  0  0  0  0  0  0  0  0
   20.0738   -6.8337  -16.3443 C   0  0  0  0  0  0  0  0  0  0  0  0
   19.6089   -6.6506  -17.5004 O   0  0  0  0  0  0  0  0  0  0  0  0
   19.3975   -6.2507  -15.2625 O   0  0  0  0  0  0  0  0  0  0  0  0
  1  2  1  0
  3  2  1  0
  4  5  1  0
  4  3  1  0
  5  6  1  6
  7 15  1  0
  7  5  1  0
  8  7  2  0
 10  9  1  0
 10 12  1  0
 11 10  2  0
 13 12  1  0
 14 13  1  1
 14 15  1  0
 16 18  1  0
 16 14  1  0
 17 16  2  0
 19 18  1  0
 19 27  1  0
 19 20  1  6
 21 22  2  0
 21 20  1  0
 23 22  1  0
 24 23  2  0
 25 24  1  0
 25 26  2  0
 26 21  1  0
 27 29  1  0
 28 27  2  0
M  END
$$$$
