MQF.pdb
     RDKit          3D

 29 29  0  0  1  0  0  0  0  0999 V2000
   26.7135  -15.3861  -14.8031 C   0  0  0  0  0  0  0  0  0  0  0  0
   27.9044  -15.6222  -16.0833 S   0  0  0  0  0  0  0  0  0  0  0  0
   27.9067  -17.1945  -16.8951 C   0  0  0  0  0  0  0  0  0  0  0  0
   26.9573  -18.2058  -16.3224 C   0  0  0  0  0  0  0  0  0  0  0  0
   27.6582  -19.2957  -15.5520 C   0  0  2  0  0  0  0  0  0  0  0  0
   28.3678  -20.1077  -16.5190 N   0  0  0  0  0  0  0  0  0  0  0  0
   26.7638  -20.1411  -14.7667 C   0  0  0  0  0  0  0  0  0  0  0  0
   26.2169  -21.1351  -15.3040 O   0  0  0  0  0  0  0  0  0  0  0  0
   26.4095  -19.9470   -8.5628 N   0  0  0  0  0  0  0  0  0  0  0  0
   25.5070  -21.0139   -8.8235 C   0  0  0  0  0  0  0  0  0  0  0  0
   25.0617  -21.6636   -7.8463 O   0  0  0  0  0  0  0  0  0  0  0  0
   25.1131  -21.3370  -10.2139 C   0  0  0  0  0  0  0  0  0  0  0  0
   25.9083  -20.4260  -11.1391 C   0  0  0  0  0  0  0  0  0  0  0  0
   25.5917  -20.7601  -12.6030 C   0  0  2  0  0  0  0  0  0  0  0  0
   26.4531  -19.9189  -13.3928 N   0  0  0  0  0  0  0  0  0  0  0  0
   24.1840  -20.3314  -12.8143 C   0  0  0  0  0  0  0  0  0  0  0  0
   23.8539  -19.1044  -12.6956 O   0  0  0  0  0  0  0  0  0  0  0  0
   23.1283  -21.2189  -13.1535 N   0  0  0  0  0  0  0  0  0  0  0  0
   21.7559  -20.7445  -13.3573 C   0  0  1  0  0  0  0  0  0  0  0  0
   21.3592  -20.8768  -14.8027 C   0  0  0  0  0  0  0  0  0  0  0  0
   21.9870  -19.8380  -15.6486 C   0  0  0  0  0  0  0  0  0  0  0  0
   23.2612  -20.0054  -16.1761 C   0  0  0  0  0  0  0  0  0  0  0  0
   23.8500  -19.0545  -16.9680 C   0  0  0  0  0  0  0  0  0  0  0  0
   23.1694  -17.8883  -17.2603 C   0  0  0  0  0  0  0  0  0  0  0  0
   21.9177  -17.6929  -16.7587 C   0  0  0  0  0  0  0  0  0  0  0  0
   21.3424  -18.6586  -15.9656 C   0  0  0  0  0  0  0  0  0  0  0  0
   20.8435  -21.3973  -12.4135 C   0  0  0  0  0  0  0  0  0  0  0  0
   21.1965  -22.2963  -11.6051 O   0  0  0  0  0  0  0  0  0  0  0  0
   19.4986  -20.9987  -12.4091 O   0  0  0  0  0  0  0  0  0  0  0  0
  1  2  1  0
  3  2  1  0
  4  5  1  0
  4  3  1  0
  5  6  1  6
  7 15  1  0
  7  5  1  0
  8  7  2  0
 10  9  1  0
 10 12  1  0
 11 10  2  0
 13 12  1  0
 14 13  1  1
 14 15  1  0
 16 18  1  0
 16 14  1  0
 17 16  2  0
 19 18  1  0
 19 27  1  0
 19 20  1  6
 21 22  2  0
 21 20  1  0
 23 22  1  0
 24 23  2  0
 25 24  1  0
 25 26  2  0
 26 21  1  0
 27 29  1  0
 28 27  2  0
M  END
$$$$
