PGM.pdb
     RDKit          3D

 20 20  0  0  1  0  0  0  0  0999 V2000
    7.4979  -14.7888   19.2316 N   0  0  0  0  0  0  0  0  0  0  0  0
    7.0496  -13.7811   18.2601 C   0  0  0  0  0  0  0  0  0  0  0  0
    7.6756  -12.5039   18.7785 C   0  0  0  0  0  0  0  0  0  0  0  0
    8.7538  -12.9465   19.7687 C   0  0  0  0  0  0  0  0  0  0  0  0
    8.8998  -14.4134   19.3630 C   0  0  1  0  0  0  0  0  0  0  0  0
    9.5575  -15.2243   20.3868 C   0  0  0  0  0  0  0  0  0  0  0  0
   10.7609  -14.9957   20.6711 O   0  0  0  0  0  0  0  0  0  0  0  0
    8.8889  -16.2614   21.0737 N   0  0  0  0  0  0  0  0  0  0  0  0
    9.6296  -17.0158   22.0638 C   0  0  0  0  0  0  0  0  0  0  0  0
    9.7278  -16.3313   23.3508 C   0  0  0  0  0  0  0  0  0  0  0  0
   10.7748  -16.4145   24.0299 O   0  0  0  0  0  0  0  0  0  0  0  0
    5.8923  -11.1955   28.0605 C   0  0  0  0  0  0  0  0  0  0  0  0
    5.9223  -12.1779   26.5198 S   0  0  0  0  0  0  0  0  0  0  0  0
    7.4216  -13.2153   26.5258 C   0  0  0  0  0  0  0  0  0  0  0  0
    7.5213  -13.9270   25.2209 C   0  0  0  0  0  0  0  0  0  0  0  0
    8.6825  -14.8589   25.1251 C   0  0  2  0  0  0  0  0  0  0  0  0
    8.6472  -15.5667   23.8519 N   0  0  0  0  0  0  0  0  0  0  0  0
    8.7054  -15.8623   26.1971 C   0  0  0  0  0  0  0  0  0  0  0  0
    9.1641  -15.5798   27.3259 O   0  0  0  0  0  0  0  0  0  0  0  0
    8.2161  -17.1374   25.9643 O   0  0  0  0  0  0  0  0  0  0  0  0
  1  2  1  0
  1  5  1  0
  2  3  1  0
  3  4  1  0
  5  4  1  0
  5  6  1  1
  6  7  2  0
  8  6  1  0
  9  8  1  0
  9 10  1  0
 10 17  1  0
 11 10  2  0
 13 12  1  0
 14 13  1  0
 15 14  1  0
 16 15  1  1
 16 18  1  0
 17 16  1  0
 18 19  2  0
 18 20  1  0
M  END
$$$$
