PGM.pdb
     RDKit          3D

 20 20  0  0  1  0  0  0  0  0999 V2000
    7.2847  -14.6127   19.6676 N   0  0  0  0  0  0  0  0  0  0  0  0
    6.7771  -13.4912   18.8644 C   0  0  0  0  0  0  0  0  0  0  0  0
    7.4835  -12.2939   19.4639 C   0  0  0  0  0  0  0  0  0  0  0  0
    8.6354  -12.8671   20.2906 C   0  0  0  0  0  0  0  0  0  0  0  0
    8.7027  -14.2791   19.7079 C   0  0  1  0  0  0  0  0  0  0  0  0
    9.4289  -15.2148   20.5654 C   0  0  0  0  0  0  0  0  0  0  0  0
   10.6827  -15.1425   20.6287 O   0  0  0  0  0  0  0  0  0  0  0  0
    8.7722  -16.2032   21.3310 N   0  0  0  0  0  0  0  0  0  0  0  0
    9.5667  -17.0099   22.2343 C   0  0  0  0  0  0  0  0  0  0  0  0
    9.8110  -16.3598   23.5197 C   0  0  0  0  0  0  0  0  0  0  0  0
   10.9797  -16.2213   23.9431 O   0  0  0  0  0  0  0  0  0  0  0  0
    6.2571  -10.6784   26.2000 C   0  0  0  0  0  0  0  0  0  0  0  0
    6.2042  -12.4697   26.5583 S   0  0  0  0  0  0  0  0  0  0  0  0
    7.6481  -13.2583   25.7724 C   0  0  0  0  0  0  0  0  0  0  0  0
    7.6552  -14.7070   26.1196 C   0  0  0  0  0  0  0  0  0  0  0  0
    8.8862  -15.4291   25.6847 C   0  0  2  0  0  0  0  0  0  0  0  0
    8.7375  -15.8781   24.3065 N   0  0  0  0  0  0  0  0  0  0  0  0
    9.1858  -16.6054   26.5112 C   0  0  0  0  0  0  0  0  0  0  0  0
    8.6961  -17.7222   26.2330 O   0  0  0  0  0  0  0  0  0  0  0  0
   10.0181  -16.4859   27.6123 O   0  0  0  0  0  0  0  0  0  0  0  0
  1  2  1  0
  1  5  1  0
  2  3  1  0
  3  4  1  0
  5  4  1  0
  5  6  1  1
  6  7  2  0
  8  6  1  0
  9  8  1  0
  9 10  1  0
 10 17  1  0
 11 10  2  0
 13 12  1  0
 14 13  1  0
 15 14  1  0
 16 15  1  1
 16 18  1  0
 17 16  1  0
 18 19  2  0
 18 20  1  0
M  END
$$$$
