PGM.pdb
     RDKit          3D

 20 20  0  0  1  0  0  0  0  0999 V2000
    8.2339  -15.1018   18.1206 N   0  0  0  0  0  0  0  0  0  0  0  0
    8.5182  -14.3667   16.8799 C   0  0  0  0  0  0  0  0  0  0  0  0
    7.8446  -13.0309   17.1118 C   0  0  0  0  0  0  0  0  0  0  0  0
    7.5748  -12.9616   18.6156 C   0  0  0  0  0  0  0  0  0  0  0  0
    8.5147  -14.0641   19.1044 C   0  0  1  0  0  0  0  0  0  0  0  0
    8.1929  -14.5302   20.4525 C   0  0  0  0  0  0  0  0  0  0  0  0
    8.3133  -13.7372   21.4209 O   0  0  0  0  0  0  0  0  0  0  0  0
    7.7486  -15.8455   20.7109 N   0  0  0  0  0  0  0  0  0  0  0  0
    7.2785  -16.1601   22.0443 C   0  0  0  0  0  0  0  0  0  0  0  0
    8.2316  -15.7946   23.0895 C   0  0  0  0  0  0  0  0  0  0  0  0
    9.4539  -15.7304   22.8324 O   0  0  0  0  0  0  0  0  0  0  0  0
    5.8920  -10.4577   26.4304 C   0  0  0  0  0  0  0  0  0  0  0  0
    6.4387  -12.0568   27.1260 S   0  0  0  0  0  0  0  0  0  0  0  0
    7.3808  -12.9509   25.8465 C   0  0  0  0  0  0  0  0  0  0  0  0
    7.9214  -14.2081   26.4353 C   0  0  0  0  0  0  0  0  0  0  0  0
    8.6802  -15.0538   25.4683 C   0  0  2  0  0  0  0  0  0  0  0  0
    7.7940  -15.5088   24.4049 N   0  0  0  0  0  0  0  0  0  0  0  0
    9.2827  -16.2398   26.0902 C   0  0  0  0  0  0  0  0  0  0  0  0
    8.7346  -17.3598   25.9919 O   0  0  0  0  0  0  0  0  0  0  0  0
   10.4700  -16.1261   26.7951 O   0  0  0  0  0  0  0  0  0  0  0  0
  1  2  1  0
  1  5  1  0
  2  3  1  0
  3  4  1  0
  5  4  1  0
  5  6  1  1
  6  7  2  0
  8  6  1  0
  9  8  1  0
  9 10  1  0
 10 17  1  0
 11 10  2  0
 13 12  1  0
 14 13  1  0
 15 14  1  0
 16 15  1  1
 16 18  1  0
 17 16  1  0
 18 19  2  0
 18 20  1  0
M  END
$$$$
