PGM.pdb
     RDKit          3D

 20 20  0  0  1  0  0  0  0  0999 V2000
    7.3190  -14.8833   20.0775 N   0  0  0  0  0  0  0  0  0  0  0  0
    6.5291  -14.0897   19.1252 C   0  0  0  0  0  0  0  0  0  0  0  0
    7.0500  -12.6841   19.3366 C   0  0  0  0  0  0  0  0  0  0  0  0
    8.3668  -12.8433   20.0979 C   0  0  0  0  0  0  0  0  0  0  0  0
    8.6440  -14.3248   19.8407 C   0  0  1  0  0  0  0  0  0  0  0  0
    9.6174  -14.8920   20.7729 C   0  0  0  0  0  0  0  0  0  0  0  0
   10.8107  -14.4980   20.7291 O   0  0  0  0  0  0  0  0  0  0  0  0
    9.2668  -15.8718   21.7276 N   0  0  0  0  0  0  0  0  0  0  0  0
   10.2648  -16.2695   22.6991 C   0  0  0  0  0  0  0  0  0  0  0  0
    9.8518  -16.0237   24.0788 C   0  0  0  0  0  0  0  0  0  0  0  0
   10.6873  -16.0894   25.0073 O   0  0  0  0  0  0  0  0  0  0  0  0
    7.5627  -11.3797   27.2803 C   0  0  0  0  0  0  0  0  0  0  0  0
    6.2671  -12.6113   26.9007 S   0  0  0  0  0  0  0  0  0  0  0  0
    6.8174  -13.6077   25.4764 C   0  0  0  0  0  0  0  0  0  0  0  0
    6.6694  -15.0517   25.8114 C   0  0  0  0  0  0  0  0  0  0  0  0
    7.9410  -15.8275   25.7278 C   0  0  2  0  0  0  0  0  0  0  0  0
    8.5073  -15.7096   24.3904 N   0  0  0  0  0  0  0  0  0  0  0  0
    7.7637  -17.2563   26.0169 C   0  0  0  0  0  0  0  0  0  0  0  0
    7.8555  -17.6866   27.1878 O   0  0  0  0  0  0  0  0  0  0  0  0
    7.4921  -18.1437   24.9883 O   0  0  0  0  0  0  0  0  0  0  0  0
  1  2  1  0
  1  5  1  0
  2  3  1  0
  3  4  1  0
  5  4  1  0
  5  6  1  1
  6  7  2  0
  8  6  1  0
  9  8  1  0
  9 10  1  0
 10 17  1  0
 11 10  2  0
 13 12  1  0
 14 13  1  0
 15 14  1  0
 16 15  1  6
 16 18  1  0
 17 16  1  0
 18 19  2  0
 18 20  1  0
M  END
$$$$
