PGM.pdb
     RDKit          3D

 20 20  0  0  1  0  0  0  0  0999 V2000
    7.3450  -14.9764   20.2767 N   0  0  0  0  0  0  0  0  0  0  0  0
    6.4574  -14.1414   19.4547 C   0  0  0  0  0  0  0  0  0  0  0  0
    7.0276  -12.7512   19.6398 C   0  0  0  0  0  0  0  0  0  0  0  0
    8.4260  -12.9544   20.2245 C   0  0  0  0  0  0  0  0  0  0  0  0
    8.6404  -14.4312   19.8914 C   0  0  1  0  0  0  0  0  0  0  0  0
    9.7118  -15.0421   20.6770 C   0  0  0  0  0  0  0  0  0  0  0  0
   10.8938  -14.6442   20.5164 O   0  0  0  0  0  0  0  0  0  0  0  0
    9.4688  -16.0687   21.6158 N   0  0  0  0  0  0  0  0  0  0  0  0
   10.5459  -16.4525   22.5051 C   0  0  0  0  0  0  0  0  0  0  0  0
   10.2579  -16.1707   23.9095 C   0  0  0  0  0  0  0  0  0  0  0  0
   11.1892  -16.1010   24.7414 O   0  0  0  0  0  0  0  0  0  0  0  0
    6.7026  -10.7871   26.3513 C   0  0  0  0  0  0  0  0  0  0  0  0
    6.2297  -12.5428   26.1674 S   0  0  0  0  0  0  0  0  0  0  0  0
    7.7464  -13.5279   25.9367 C   0  0  0  0  0  0  0  0  0  0  0  0
    7.3851  -14.9730   25.9180 C   0  0  0  0  0  0  0  0  0  0  0  0
    8.5525  -15.8884   25.7589 C   0  0  2  0  0  0  0  0  0  0  0  0
    8.9286  -15.9735   24.3537 N   0  0  0  0  0  0  0  0  0  0  0  0
    8.2847  -17.2511   26.2362 C   0  0  0  0  0  0  0  0  0  0  0  0
    7.8433  -18.1248   25.4576 O   0  0  0  0  0  0  0  0  0  0  0  0
    8.5204  -17.5809   27.5610 O   0  0  0  0  0  0  0  0  0  0  0  0
  1  2  1  0
  1  5  1  0
  2  3  1  0
  3  4  1  0
  5  4  1  0
  5  6  1  1
  6  7  2  0
  8  6  1  0
  9  8  1  0
  9 10  1  0
 10 17  1  0
 11 10  2  0
 13 12  1  0
 14 13  1  0
 15 14  1  0
 16 15  1  6
 16 18  1  0
 17 16  1  0
 18 19  2  0
 18 20  1  0
M  END
$$$$
