PGM.pdb
     RDKit          3D

 20 20  0  0  1  0  0  0  0  0999 V2000
    7.4110  -14.5787   18.8140 N   0  0  0  0  0  0  0  0  0  0  0  0
    7.5438  -13.4668   17.8619 C   0  0  0  0  0  0  0  0  0  0  0  0
    7.7231  -12.2640   18.7636 C   0  0  0  0  0  0  0  0  0  0  0  0
    8.0797  -12.8301   20.1388 C   0  0  0  0  0  0  0  0  0  0  0  0
    8.4842  -14.2507   19.7437 C   0  0  1  0  0  0  0  0  0  0  0  0
    8.4880  -15.1770   20.8752 C   0  0  0  0  0  0  0  0  0  0  0  0
    7.3919  -15.5727   21.3478 O   0  0  0  0  0  0  0  0  0  0  0  0
    9.6831  -15.6480   21.4617 N   0  0  0  0  0  0  0  0  0  0  0  0
    9.5854  -16.6345   22.5178 C   0  0  0  0  0  0  0  0  0  0  0  0
    9.7244  -16.0599   23.8539 C   0  0  0  0  0  0  0  0  0  0  0  0
   10.8540  -15.9584   24.3811 O   0  0  0  0  0  0  0  0  0  0  0  0
    7.1885  -11.0262   27.5655 C   0  0  0  0  0  0  0  0  0  0  0  0
    6.1082  -12.3564   26.9304 S   0  0  0  0  0  0  0  0  0  0  0  0
    7.0796  -13.3920   25.7866 C   0  0  0  0  0  0  0  0  0  0  0  0
    7.3129  -14.7208   26.4185 C   0  0  0  0  0  0  0  0  0  0  0  0
    8.5927  -15.3704   26.0108 C   0  0  2  0  0  0  0  0  0  0  0  0
    8.5915  -15.6106   24.5736 N   0  0  0  0  0  0  0  0  0  0  0  0
    8.8250  -16.6558   26.6816 C   0  0  0  0  0  0  0  0  0  0  0  0
    8.3597  -17.7159   26.2082 O   0  0  0  0  0  0  0  0  0  0  0  0
    9.5658  -16.7039   27.8515 O   0  0  0  0  0  0  0  0  0  0  0  0
  1  2  1  0
  1  5  1  0
  2  3  1  0
  3  4  1  0
  5  4  1  0
  5  6  1  1
  6  7  2  0
  8  6  1  0
  9  8  1  0
  9 10  1  0
 10 17  1  0
 11 10  2  0
 13 12  1  0
 14 13  1  0
 15 14  1  0
 16 15  1  1
 16 18  1  0
 17 16  1  0
 18 19  2  0
 18 20  1  0
M  END
$$$$
