PGM.pdb
     RDKit          3D

 20 20  0  0  1  0  0  0  0  0999 V2000
    7.3041  -14.7714   20.6565 N   0  0  0  0  0  0  0  0  0  0  0  0
    6.3434  -13.8823   19.9879 C   0  0  0  0  0  0  0  0  0  0  0  0
    7.1766  -12.6607   19.6632 C   0  0  0  0  0  0  0  0  0  0  0  0
    8.6327  -13.1051   19.8090 C   0  0  0  0  0  0  0  0  0  0  0  0
    8.4515  -14.6229   19.7705 C   0  0  1  0  0  0  0  0  0  0  0  0
    9.6073  -15.3476   20.2968 C   0  0  0  0  0  0  0  0  0  0  0  0
   10.7080  -15.2677   19.6943 O   0  0  0  0  0  0  0  0  0  0  0  0
    9.5349  -16.1392   21.4641 N   0  0  0  0  0  0  0  0  0  0  0  0
   10.7289  -16.2788   22.2721 C   0  0  0  0  0  0  0  0  0  0  0  0
   10.4976  -16.0071   23.6889 C   0  0  0  0  0  0  0  0  0  0  0  0
   11.4583  -15.9768   24.4891 O   0  0  0  0  0  0  0  0  0  0  0  0
    6.5143  -10.7904   25.7912 C   0  0  0  0  0  0  0  0  0  0  0  0
    6.2675  -12.5838   26.0408 S   0  0  0  0  0  0  0  0  0  0  0  0
    7.8081  -13.4470   25.5872 C   0  0  0  0  0  0  0  0  0  0  0  0
    7.6222  -14.9098   25.7996 C   0  0  0  0  0  0  0  0  0  0  0  0
    8.8625  -15.7145   25.5992 C   0  0  2  0  0  0  0  0  0  0  0  0
    9.1908  -15.7755   24.1809 N   0  0  0  0  0  0  0  0  0  0  0  0
    8.7407  -17.0923   26.0925 C   0  0  0  0  0  0  0  0  0  0  0  0
    8.8098  -17.3403   27.3165 O   0  0  0  0  0  0  0  0  0  0  0  0
    8.5475  -18.1341   25.1999 O   0  0  0  0  0  0  0  0  0  0  0  0
  1  2  1  0
  1  5  1  0
  2  3  1  0
  3  4  1  0
  5  4  1  0
  5  6  1  1
  6  7  2  0
  8  6  1  0
  9  8  1  0
  9 10  1  0
 10 17  1  0
 11 10  2  0
 13 12  1  0
 14 13  1  0
 15 14  1  0
 16 15  1  6
 16 18  1  0
 17 16  1  0
 18 19  2  0
 18 20  1  0
M  END
$$$$
