PGM.pdb
     RDKit          3D

 20 20  0  0  1  0  0  0  0  0999 V2000
    7.0259  -14.2325   19.5650 N   0  0  0  0  0  0  0  0  0  0  0  0
    6.9509  -13.1409   18.5836 C   0  0  0  0  0  0  0  0  0  0  0  0
    8.0820  -12.2261   19.0026 C   0  0  0  0  0  0  0  0  0  0  0  0
    8.9618  -13.0599   19.9351 C   0  0  0  0  0  0  0  0  0  0  0  0
    8.4647  -14.4626   19.5842 C   0  0  1  0  0  0  0  0  0  0  0  0
    8.8146  -15.4599   20.5947 C   0  0  0  0  0  0  0  0  0  0  0  0
   10.0177  -15.7989   20.7315 O   0  0  0  0  0  0  0  0  0  0  0  0
    7.8469  -16.0611   21.4293 N   0  0  0  0  0  0  0  0  0  0  0  0
    8.3058  -16.9195   22.5020 C   0  0  0  0  0  0  0  0  0  0  0  0
    8.9626  -16.1867   23.5818 C   0  0  0  0  0  0  0  0  0  0  0  0
   10.0680  -15.6349   23.3868 O   0  0  0  0  0  0  0  0  0  0  0  0
    6.0560  -10.9345   26.3721 C   0  0  0  0  0  0  0  0  0  0  0  0
    6.4339  -12.5465   27.1458 S   0  0  0  0  0  0  0  0  0  0  0  0
    7.7131  -13.3794   26.1488 C   0  0  0  0  0  0  0  0  0  0  0  0
    8.0615  -14.6752   26.7958 C   0  0  0  0  0  0  0  0  0  0  0  0
    9.0305  -15.5009   26.0177 C   0  0  2  0  0  0  0  0  0  0  0  0
    8.3660  -16.0881   24.8616 N   0  0  0  0  0  0  0  0  0  0  0  0
    9.6161  -16.5944   26.8036 C   0  0  0  0  0  0  0  0  0  0  0  0
   10.4604  -16.3582   27.6957 O   0  0  0  0  0  0  0  0  0  0  0  0
    9.2355  -17.9043   26.5608 O   0  0  0  0  0  0  0  0  0  0  0  0
  1  2  1  0
  1  5  1  0
  2  3  1  0
  3  4  1  0
  5  4  1  0
  5  6  1  1
  6  7  2  0
  8  6  1  0
  9  8  1  0
  9 10  1  0
 10 17  1  0
 11 10  2  0
 13 12  1  0
 14 13  1  0
 15 14  1  0
 16 15  1  1
 16 18  1  0
 17 16  1  0
 18 19  2  0
 18 20  1  0
M  END
$$$$
