PGM.pdb
     RDKit          3D

 20 20  0  0  1  0  0  0  0  0999 V2000
    8.4250  -15.0505   19.0949 N   0  0  0  0  0  0  0  0  0  0  0  0
    8.9685  -14.2334   18.0006 C   0  0  0  0  0  0  0  0  0  0  0  0
    7.9964  -13.0755   17.9230 C   0  0  0  0  0  0  0  0  0  0  0  0
    7.2080  -13.1115   19.2330 C   0  0  0  0  0  0  0  0  0  0  0  0
    8.1224  -14.0086   20.0678 C   0  0  1  0  0  0  0  0  0  0  0  0
    7.4515  -14.5739   21.2377 C   0  0  0  0  0  0  0  0  0  0  0  0
    7.0602  -13.8044   22.1520 O   0  0  0  0  0  0  0  0  0  0  0  0
    7.2241  -15.9603   21.3814 N   0  0  0  0  0  0  0  0  0  0  0  0
    6.3738  -16.4060   22.4660 C   0  0  0  0  0  0  0  0  0  0  0  0
    6.8705  -16.0133   23.7826 C   0  0  0  0  0  0  0  0  0  0  0  0
    6.1597  -16.1779   24.7985 O   0  0  0  0  0  0  0  0  0  0  0  0
    6.0762  -10.9287   26.5462 C   0  0  0  0  0  0  0  0  0  0  0  0
    6.5075  -12.3936   27.5502 S   0  0  0  0  0  0  0  0  0  0  0  0
    7.9898  -13.1719   26.8282 C   0  0  0  0  0  0  0  0  0  0  0  0
    7.5684  -14.3342   25.9972 C   0  0  0  0  0  0  0  0  0  0  0  0
    8.6737  -14.9442   25.2019 C   0  0  2  0  0  0  0  0  0  0  0  0
    8.1566  -15.4417   23.9338 N   0  0  0  0  0  0  0  0  0  0  0  0
    9.3288  -16.0634   25.8909 C   0  0  0  0  0  0  0  0  0  0  0  0
    8.6518  -16.9299   26.4871 O   0  0  0  0  0  0  0  0  0  0  0  0
   10.7102  -16.1682   25.8857 O   0  0  0  0  0  0  0  0  0  0  0  0
  1  2  1  0
  1  5  1  0
  2  3  1  0
  3  4  1  0
  5  4  1  0
  5  6  1  1
  6  7  2  0
  8  6  1  0
  9  8  1  0
  9 10  1  0
 10 17  1  0
 11 10  2  0
 13 12  1  0
 14 13  1  0
 15 14  1  0
 16 15  1  1
 16 18  1  0
 17 16  1  0
 18 19  2  0
 18 20  1  0
M  END
$$$$
