PGM.pdb
     RDKit          3D

 20 20  0  0  1  0  0  0  0  0999 V2000
    7.8701  -14.6635   18.4253 N   0  0  0  0  0  0  0  0  0  0  0  0
    8.1276  -13.5486   17.5027 C   0  0  0  0  0  0  0  0  0  0  0  0
    7.7850  -12.3307   18.3341 C   0  0  0  0  0  0  0  0  0  0  0  0
    7.7451  -12.8193   19.7828 C   0  0  0  0  0  0  0  0  0  0  0  0
    8.4933  -14.1446   19.6360 C   0  0  1  0  0  0  0  0  0  0  0  0
    8.2702  -15.0518   20.7609 C   0  0  0  0  0  0  0  0  0  0  0  0
    7.1273  -15.1139   21.2817 O   0  0  0  0  0  0  0  0  0  0  0  0
    9.2956  -15.8668   21.2888 N   0  0  0  0  0  0  0  0  0  0  0  0
    8.9611  -16.7779   22.3640 C   0  0  0  0  0  0  0  0  0  0  0  0
    9.1982  -16.2118   23.6899 C   0  0  0  0  0  0  0  0  0  0  0  0
   10.3667  -16.0442   24.1031 O   0  0  0  0  0  0  0  0  0  0  0  0
    6.8583  -10.8429   27.2592 C   0  0  0  0  0  0  0  0  0  0  0  0
    6.6878  -12.3599   26.2546 S   0  0  0  0  0  0  0  0  0  0  0  0
    7.0791  -13.7963   27.3072 C   0  0  0  0  0  0  0  0  0  0  0  0
    6.9676  -15.0375   26.4910 C   0  0  0  0  0  0  0  0  0  0  0  0
    8.2673  -15.5205   25.9403 C   0  0  2  0  0  0  0  0  0  0  0  0
    8.1178  -15.8453   24.5277 N   0  0  0  0  0  0  0  0  0  0  0  0
    8.7742  -16.7162   26.6257 C   0  0  0  0  0  0  0  0  0  0  0  0
    8.4799  -17.8603   26.2146 O   0  0  0  0  0  0  0  0  0  0  0  0
    9.5870  -16.5849   27.7399 O   0  0  0  0  0  0  0  0  0  0  0  0
  1  2  1  0
  1  5  1  0
  2  3  1  0
  3  4  1  0
  5  4  1  0
  5  6  1  1
  6  7  2  0
  8  6  1  0
  9  8  1  0
  9 10  1  0
 10 17  1  0
 11 10  2  0
 13 12  1  0
 14 13  1  0
 15 14  1  0
 16 15  1  1
 16 18  1  0
 17 16  1  0
 18 19  2  0
 18 20  1  0
M  END
$$$$
