PGM.pdb
     RDKit          3D

 20 20  0  0  1  0  0  0  0  0999 V2000
    7.1444  -14.7787   20.3032 N   0  0  0  0  0  0  0  0  0  0  0  0
    6.3161  -14.0375   19.3414 C   0  0  0  0  0  0  0  0  0  0  0  0
    7.2364  -12.9266   18.8823 C   0  0  0  0  0  0  0  0  0  0  0  0
    8.6413  -13.3526   19.3107 C   0  0  0  0  0  0  0  0  0  0  0  0
    8.4003  -14.8406   19.5668 C   0  0  1  0  0  0  0  0  0  0  0  0
    9.4472  -15.4546   20.3825 C   0  0  0  0  0  0  0  0  0  0  0  0
   10.4200  -16.0126   19.8138 O   0  0  0  0  0  0  0  0  0  0  0  0
    9.4080  -15.4448   21.7941 N   0  0  0  0  0  0  0  0  0  0  0  0
   10.5660  -15.9325   22.5148 C   0  0  0  0  0  0  0  0  0  0  0  0
   10.4216  -15.8351   23.9654 C   0  0  0  0  0  0  0  0  0  0  0  0
   11.3539  -16.1966   24.7166 O   0  0  0  0  0  0  0  0  0  0  0  0
    6.3997  -11.2201   26.9055 C   0  0  0  0  0  0  0  0  0  0  0  0
    5.9433  -12.5995   25.7970 S   0  0  0  0  0  0  0  0  0  0  0  0
    7.4666  -13.4716   25.3036 C   0  0  0  0  0  0  0  0  0  0  0  0
    7.7304  -14.5695   26.2753 C   0  0  0  0  0  0  0  0  0  0  0  0
    8.9587  -15.3621   25.9766 C   0  0  2  0  0  0  0  0  0  0  0  0
    9.2316  -15.3341   24.5456 N   0  0  0  0  0  0  0  0  0  0  0  0
    8.8505  -16.7680   26.3866 C   0  0  0  0  0  0  0  0  0  0  0  0
    8.5498  -17.6535   25.5561 O   0  0  0  0  0  0  0  0  0  0  0  0
    9.0819  -17.1259   27.7049 O   0  0  0  0  0  0  0  0  0  0  0  0
  1  2  1  0
  1  5  1  0
  2  3  1  0
  3  4  1  0
  5  4  1  0
  5  6  1  1
  6  7  2  0
  8  6  1  0
  9  8  1  0
  9 10  1  0
 10 17  1  0
 11 10  2  0
 13 12  1  0
 14 13  1  0
 15 14  1  0
 16 15  1  6
 16 18  1  0
 17 16  1  0
 18 19  2  0
 18 20  1  0
M  END
$$$$
