PGM.pdb
     RDKit          3D

 20 20  0  0  1  0  0  0  0  0999 V2000
    7.1468  -14.5669   20.3584 N   0  0  0  0  0  0  0  0  0  0  0  0
    6.2914  -13.9425   19.3391 C   0  0  0  0  0  0  0  0  0  0  0  0
    7.2293  -12.9718   18.6535 C   0  0  0  0  0  0  0  0  0  0  0  0
    8.6385  -13.4025   19.0627 C   0  0  0  0  0  0  0  0  0  0  0  0
    8.3470  -14.8151   19.5699 C   0  0  1  0  0  0  0  0  0  0  0  0
    9.4163  -15.3496   20.4120 C   0  0  0  0  0  0  0  0  0  0  0  0
   10.4863  -15.7338   19.8747 O   0  0  0  0  0  0  0  0  0  0  0  0
    9.2934  -15.4514   21.8151 N   0  0  0  0  0  0  0  0  0  0  0  0
   10.4557  -15.8604   22.5766 C   0  0  0  0  0  0  0  0  0  0  0  0
   10.2033  -15.9325   24.0138 C   0  0  0  0  0  0  0  0  0  0  0  0
   11.1249  -16.2440   24.8000 O   0  0  0  0  0  0  0  0  0  0  0  0
    6.7957  -11.6467   27.4588 C   0  0  0  0  0  0  0  0  0  0  0  0
    6.1479  -12.5149   25.9869 S   0  0  0  0  0  0  0  0  0  0  0  0
    7.4303  -13.6610   25.3820 C   0  0  0  0  0  0  0  0  0  0  0  0
    7.5504  -14.7983   26.3367 C   0  0  0  0  0  0  0  0  0  0  0  0
    8.5754  -15.8106   25.9487 C   0  0  2  0  0  0  0  0  0  0  0  0
    8.9198  -15.6542   24.5416 N   0  0  0  0  0  0  0  0  0  0  0  0
    8.1240  -17.1934   26.1504 C   0  0  0  0  0  0  0  0  0  0  0  0
    7.7710  -17.8975   25.1787 O   0  0  0  0  0  0  0  0  0  0  0  0
    8.0853  -17.7314   27.4265 O   0  0  0  0  0  0  0  0  0  0  0  0
  1  2  1  0
  1  5  1  0
  2  3  1  0
  3  4  1  0
  5  4  1  0
  5  6  1  1
  6  7  2  0
  8  6  1  0
  9  8  1  0
  9 10  1  0
 10 17  1  0
 11 10  2  0
 13 12  1  0
 14 13  1  0
 15 14  1  0
 16 15  1  6
 16 18  1  0
 17 16  1  0
 18 19  2  0
 18 20  1  0
M  END
$$$$
