PGM.pdb
     RDKit          3D

 20 20  0  0  1  0  0  0  0  0999 V2000
    7.4163  -14.6581   19.0112 N   0  0  0  0  0  0  0  0  0  0  0  0
    7.1684  -13.5927   18.0295 C   0  0  0  0  0  0  0  0  0  0  0  0
    7.8866  -12.4020   18.6282 C   0  0  0  0  0  0  0  0  0  0  0  0
    8.8197  -12.9777   19.6943 C   0  0  0  0  0  0  0  0  0  0  0  0
    8.8350  -14.4460   19.2680 C   0  0  1  0  0  0  0  0  0  0  0  0
    9.3077  -15.3404   20.3239 C   0  0  0  0  0  0  0  0  0  0  0  0
   10.5152  -15.2943   20.6720 O   0  0  0  0  0  0  0  0  0  0  0  0
    8.4549  -16.2602   20.9726 N   0  0  0  0  0  0  0  0  0  0  0  0
    8.9871  -17.0213   22.0842 C   0  0  0  0  0  0  0  0  0  0  0  0
    9.2631  -16.2008   23.2611 C   0  0  0  0  0  0  0  0  0  0  0  0
   10.4166  -15.7632   23.4670 O   0  0  0  0  0  0  0  0  0  0  0  0
    6.4700  -10.6997   26.7733 C   0  0  0  0  0  0  0  0  0  0  0  0
    5.8924  -12.4048   27.0879 S   0  0  0  0  0  0  0  0  0  0  0  0
    7.3226  -13.5295   26.9705 C   0  0  0  0  0  0  0  0  0  0  0  0
    7.2773  -14.2325   25.6579 C   0  0  0  0  0  0  0  0  0  0  0  0
    8.4564  -15.1089   25.3978 C   0  0  2  0  0  0  0  0  0  0  0  0
    8.2382  -15.8877   24.1857 N   0  0  0  0  0  0  0  0  0  0  0  0
    8.7283  -16.0482   26.4933 C   0  0  0  0  0  0  0  0  0  0  0  0
    9.2161  -15.6460   27.5725 O   0  0  0  0  0  0  0  0  0  0  0  0
    8.4450  -17.3955   26.3382 O   0  0  0  0  0  0  0  0  0  0  0  0
  1  2  1  0
  1  5  1  0
  2  3  1  0
  3  4  1  0
  5  4  1  0
  5  6  1  1
  6  7  2  0
  8  6  1  0
  9  8  1  0
  9 10  1  0
 10 17  1  0
 11 10  2  0
 13 12  1  0
 14 13  1  0
 15 14  1  0
 16 15  1  1
 16 18  1  0
 17 16  1  0
 18 19  2  0
 18 20  1  0
M  END
$$$$
