PGM.pdb
     RDKit          3D

 20 20  0  0  1  0  0  0  0  0999 V2000
    7.6769  -16.7090   20.9851 N   0  0  0  0  0  0  0  0  0  0  0  0
    6.5122  -16.4745   20.1196 C   0  0  0  0  0  0  0  0  0  0  0  0
    6.1931  -15.0149   20.3637 C   0  0  0  0  0  0  0  0  0  0  0  0
    7.4354  -14.4289   21.0361 C   0  0  0  0  0  0  0  0  0  0  0  0
    8.4577  -15.5133   20.6948 C   0  0  1  0  0  0  0  0  0  0  0  0
    9.6500  -15.4578   21.5396 C   0  0  0  0  0  0  0  0  0  0  0  0
   10.4322  -14.4790   21.4333 O   0  0  0  0  0  0  0  0  0  0  0  0
    9.9591  -16.4677   22.4771 N   0  0  0  0  0  0  0  0  0  0  0  0
   11.0352  -16.2247   23.4157 C   0  0  0  0  0  0  0  0  0  0  0  0
   10.6441  -16.4448   24.8060 C   0  0  0  0  0  0  0  0  0  0  0  0
   10.4031  -17.6013   25.2167 O   0  0  0  0  0  0  0  0  0  0  0  0
    6.0284  -11.9716   26.6377 C   0  0  0  0  0  0  0  0  0  0  0  0
    7.8029  -12.3737   26.8089 S   0  0  0  0  0  0  0  0  0  0  0  0
    8.1824  -13.7855   25.7193 C   0  0  0  0  0  0  0  0  0  0  0  0
    8.2914  -15.0188   26.5478 C   0  0  0  0  0  0  0  0  0  0  0  0
    9.6924  -15.3904   26.9016 C   0  0  2  0  0  0  0  0  0  0  0  0
   10.5297  -15.3611   25.7095 N   0  0  0  0  0  0  0  0  0  0  0  0
    9.8006  -16.7295   27.4946 C   0  0  0  0  0  0  0  0  0  0  0  0
    9.4360  -17.7414   26.8562 O   0  0  0  0  0  0  0  0  0  0  0  0
   10.3102  -16.8826   28.7738 O   0  0  0  0  0  0  0  0  0  0  0  0
  1  2  1  0
  1  5  1  0
  2  3  1  0
  3  4  1  0
  5  4  1  0
  5  6  1  1
  6  7  2  0
  8  6  1  0
  9  8  1  0
  9 10  1  0
 10 17  1  0
 11 10  2  0
 13 12  1  0
 14 13  1  0
 15 14  1  0
 16 15  1  6
 16 18  1  0
 17 16  1  0
 18 19  2  0
 18 20  1  0
M  END
$$$$
