PGM.pdb
     RDKit          3D

 20 20  0  0  1  0  0  0  0  0999 V2000
    8.3890  -15.0045   18.1572 N   0  0  0  0  0  0  0  0  0  0  0  0
    8.6005  -14.2077   16.9403 C   0  0  0  0  0  0  0  0  0  0  0  0
    7.7368  -12.9870   17.1764 C   0  0  0  0  0  0  0  0  0  0  0  0
    7.4175  -12.9919   18.6721 C   0  0  0  0  0  0  0  0  0  0  0  0
    8.4909  -13.9607   19.1689 C   0  0  1  0  0  0  0  0  0  0  0  0
    8.2009  -14.4992   20.4971 C   0  0  0  0  0  0  0  0  0  0  0  0
    8.1511  -13.7156   21.4794 O   0  0  0  0  0  0  0  0  0  0  0  0
    7.9726  -15.8747   20.7212 N   0  0  0  0  0  0  0  0  0  0  0  0
    7.5347  -16.2908   22.0377 C   0  0  0  0  0  0  0  0  0  0  0  0
    8.4299  -15.8510   23.1053 C   0  0  0  0  0  0  0  0  0  0  0  0
    9.6670  -15.8323   22.9219 O   0  0  0  0  0  0  0  0  0  0  0  0
    5.8065  -10.5861   26.6737 C   0  0  0  0  0  0  0  0  0  0  0  0
    6.3253  -12.2447   27.2389 S   0  0  0  0  0  0  0  0  0  0  0  0
    7.3979  -12.9805   25.9612 C   0  0  0  0  0  0  0  0  0  0  0  0
    7.9415  -14.2702   26.4715 C   0  0  0  0  0  0  0  0  0  0  0  0
    8.7585  -15.0213   25.4744 C   0  0  2  0  0  0  0  0  0  0  0  0
    7.9188  -15.4413   24.3600 N   0  0  0  0  0  0  0  0  0  0  0  0
    9.3931  -16.2204   26.0363 C   0  0  0  0  0  0  0  0  0  0  0  0
   10.4903  -16.1422   26.6318 O   0  0  0  0  0  0  0  0  0  0  0  0
    8.7775  -17.4551   25.9098 O   0  0  0  0  0  0  0  0  0  0  0  0
  1  2  1  0
  1  5  1  0
  2  3  1  0
  3  4  1  0
  5  4  1  0
  5  6  1  1
  6  7  2  0
  8  6  1  0
  9  8  1  0
  9 10  1  0
 10 17  1  0
 11 10  2  0
 13 12  1  0
 14 13  1  0
 15 14  1  0
 16 15  1  1
 16 18  1  0
 17 16  1  0
 18 19  2  0
 18 20  1  0
M  END
$$$$
