LIW.pdb
     RDKit          3D

 31 32  0  0  1  0  0  0  0  0999 V2000
   28.2527  -18.9488   -5.6557 C   0  0  0  0  0  0  0  0  0  0  0  0
   27.5046  -20.0400   -6.3812 C   0  0  1  0  0  0  0  0  0  0  0  0
   26.2341  -20.2945   -5.5660 C   0  0  0  0  0  0  0  0  0  0  0  0
   27.0117  -19.5862   -7.7249 C   0  0  0  0  0  0  0  0  0  0  0  0
   26.3140  -20.5861   -8.5442 C   0  0  2  0  0  0  0  0  0  0  0  0
   27.1490  -21.7701   -8.6463 N   0  0  0  0  0  0  0  0  0  0  0  0
   25.9212  -20.1138   -9.9160 C   0  0  0  0  0  0  0  0  0  0  0  0
   25.2387  -19.0850  -10.0237 O   0  0  0  0  0  0  0  0  0  0  0  0
   29.9765  -21.1323  -13.3839 C   0  0  0  0  0  0  0  0  0  0  0  0
   28.8334  -20.3797  -12.7924 C   0  0  0  0  0  0  0  0  0  0  0  0
   27.4773  -20.7093  -13.2215 C   0  0  2  0  0  0  0  0  0  0  0  0
   27.3086  -20.2775  -14.7003 C   0  0  0  0  0  0  0  0  0  0  0  0
   26.2981  -20.3410  -12.4247 C   0  0  2  0  0  0  0  0  0  0  0  0
   26.3223  -20.8252  -11.0640 N   0  0  0  0  0  0  0  0  0  0  0  0
   24.9928  -20.5503  -13.0654 C   0  0  0  0  0  0  0  0  0  0  0  0
   24.5348  -21.7216  -13.0976 O   0  0  0  0  0  0  0  0  0  0  0  0
   24.2141  -19.5432  -13.6529 N   0  0  0  0  0  0  0  0  0  0  0  0
   22.9122  -19.9031  -14.2385 C   0  0  1  0  0  0  0  0  0  0  0  0
   21.9490  -18.7791  -14.1929 C   0  0  0  0  0  0  0  0  0  0  0  0
   20.6203  -19.0197  -14.7583 C   0  0  0  0  0  0  0  0  0  0  0  0
   19.5535  -19.5620  -14.0896 C   0  0  0  0  0  0  0  0  0  0  0  0
   18.5009  -19.5601  -14.8832 N   0  0  0  0  0  0  0  0  0  0  0  0
   18.8350  -19.0281  -16.0794 C   0  0  0  0  0  0  0  0  0  0  0  0
   18.1287  -18.8063  -17.2414 C   0  0  0  0  0  0  0  0  0  0  0  0
   18.7271  -18.2496  -18.3503 C   0  0  0  0  0  0  0  0  0  0  0  0
   20.0667  -17.9126  -18.2723 C   0  0  0  0  0  0  0  0  0  0  0  0
   20.7820  -18.1253  -17.1292 C   0  0  0  0  0  0  0  0  0  0  0  0
   20.1632  -18.6789  -16.0316 C   0  0  0  0  0  0  0  0  0  0  0  0
   23.2221  -20.3839  -15.6405 C   0  0  0  0  0  0  0  0  0  0  0  0
   22.4932  -21.3993  -16.2452 O   0  0  0  0  0  0  0  0  0  0  0  0
   24.1557  -19.8776  -16.2936 O   0  0  0  0  0  0  0  0  0  0  0  0
  2  1  1  1
  3  2  1  0
  4  5  1  0
  4  2  1  0
  5  7  1  0
  5  6  1  6
  7  8  2  0
  9 10  1  0
 10 11  1  0
 11 13  1  0
 11 12  1  6
 13 15  1  0
 13 14  1  1
 14  7  1  0
 15 17  1  0
 16 15  2  0
 17 18  1  0
 18 19  1  6
 19 20  1  0
 20 21  2  0
 22 21  1  0
 23 22  1  0
 24 23  2  0
 25 24  1  0
 26 27  1  0
 26 25  2  0
 27 28  2  0
 28 23  1  0
 28 20  1  0
 29 30  1  0
 29 18  1  0
 31 29  2  0
M  END
$$$$
