LIW.pdb
     RDKit          3D

 31 32  0  0  1  0  0  0  0  0999 V2000
   27.4513  -19.4534  -19.3096 C   0  0  0  0  0  0  0  0  0  0  0  0
   27.9692  -20.3939  -18.2494 C   0  0  1  0  0  0  0  0  0  0  0  0
   29.0463  -19.6180  -17.4869 C   0  0  0  0  0  0  0  0  0  0  0  0
   26.9240  -20.7095  -17.2186 C   0  0  0  0  0  0  0  0  0  0  0  0
   27.3514  -21.5239  -16.0732 C   0  0  2  0  0  0  0  0  0  0  0  0
   27.8887  -22.7793  -16.5682 N   0  0  0  0  0  0  0  0  0  0  0  0
   26.2793  -21.7896  -15.0538 C   0  0  0  0  0  0  0  0  0  0  0  0
   25.2731  -22.4281  -15.3938 O   0  0  0  0  0  0  0  0  0  0  0  0
   25.4138  -21.4503   -8.9100 C   0  0  0  0  0  0  0  0  0  0  0  0
   24.9672  -20.8998  -10.2218 C   0  0  0  0  0  0  0  0  0  0  0  0
   25.8704  -20.9883  -11.3655 C   0  0  2  0  0  0  0  0  0  0  0  0
   26.7561  -19.7169  -11.3950 C   0  0  0  0  0  0  0  0  0  0  0  0
   25.3893  -21.3296  -12.7121 C   0  0  2  0  0  0  0  0  0  0  0  0
   26.4132  -21.3237  -13.7309 N   0  0  0  0  0  0  0  0  0  0  0  0
   24.1634  -20.6507  -13.1530 C   0  0  0  0  0  0  0  0  0  0  0  0
   24.2780  -19.5140  -13.6799 O   0  0  0  0  0  0  0  0  0  0  0  0
   22.8668  -21.1691  -13.0272 N   0  0  0  0  0  0  0  0  0  0  0  0
   21.7358  -20.3885  -13.5554 C   0  0  1  0  0  0  0  0  0  0  0  0
   21.7686  -20.2865  -15.0325 C   0  0  0  0  0  0  0  0  0  0  0  0
   20.6126  -19.6653  -15.6812 C   0  0  0  0  0  0  0  0  0  0  0  0
   20.3120  -18.3278  -15.6682 C   0  0  0  0  0  0  0  0  0  0  0  0
   19.2466  -18.1181  -16.4154 N   0  0  0  0  0  0  0  0  0  0  0  0
   18.8173  -19.2898  -16.9336 C   0  0  0  0  0  0  0  0  0  0  0  0
   17.7631  -19.6262  -17.7544 C   0  0  0  0  0  0  0  0  0  0  0  0
   17.5340  -20.9315  -18.1303 C   0  0  0  0  0  0  0  0  0  0  0  0
   18.3944  -21.9088  -17.6628 C   0  0  0  0  0  0  0  0  0  0  0  0
   19.4440  -21.5936  -16.8487 C   0  0  0  0  0  0  0  0  0  0  0  0
   19.6569  -20.2824  -16.4888 C   0  0  0  0  0  0  0  0  0  0  0  0
   20.4937  -21.0683  -13.0188 C   0  0  0  0  0  0  0  0  0  0  0  0
   19.2924  -20.3884  -12.8694 O   0  0  0  0  0  0  0  0  0  0  0  0
   20.5204  -22.2700  -12.6874 O   0  0  0  0  0  0  0  0  0  0  0  0
  2  1  1  6
  3  2  1  0
  4  5  1  0
  4  2  1  0
  5  7  1  0
  5  6  1  6
  7  8  2  0
  9 10  1  0
 10 11  1  0
 11 13  1  0
 11 12  1  6
 13 15  1  0
 13 14  1  6
 14  7  1  0
 15 17  1  0
 16 15  2  0
 17 18  1  0
 18 19  1  6
 19 20  1  0
 20 21  2  0
 22 21  1  0
 23 22  1  0
 24 23  2  0
 25 24  1  0
 26 27  1  0
 26 25  2  0
 27 28  2  0
 28 23  1  0
 28 20  1  0
 29 30  1  0
 29 18  1  0
 31 29  2  0
M  END
$$$$
