LIW.pdb
     RDKit          3D

 31 32  0  0  1  0  0  0  0  0999 V2000
   18.3447  -23.4133  -10.5928 C   0  0  0  0  0  0  0  0  0  0  0  0
   19.2781  -23.2466   -9.4191 C   0  0  1  0  0  0  0  0  0  0  0  0
   20.0875  -24.5433   -9.3361 C   0  0  0  0  0  0  0  0  0  0  0  0
   20.3000  -22.1734   -9.6614 C   0  0  0  0  0  0  0  0  0  0  0  0
   21.3529  -22.0237   -8.6481 C   0  0  2  0  0  0  0  0  0  0  0  0
   20.7364  -21.6530   -7.3863 N   0  0  0  0  0  0  0  0  0  0  0  0
   22.4326  -21.0397   -9.0018 C   0  0  0  0  0  0  0  0  0  0  0  0
   22.1495  -19.8348   -9.0632 O   0  0  0  0  0  0  0  0  0  0  0  0
   27.0442  -20.3734   -6.3928 C   0  0  0  0  0  0  0  0  0  0  0  0
   25.8541  -20.2944   -7.2876 C   0  0  0  0  0  0  0  0  0  0  0  0
   25.9973  -20.6931   -8.6848 C   0  0  2  0  0  0  0  0  0  0  0  0
   27.2469  -19.9903   -9.2734 C   0  0  0  0  0  0  0  0  0  0  0  0
   24.8699  -20.6448   -9.6270 C   0  0  2  0  0  0  0  0  0  0  0  0
   23.7476  -21.4758   -9.2579 N   0  0  0  0  0  0  0  0  0  0  0  0
   25.2100  -20.7713  -11.0505 C   0  0  0  0  0  0  0  0  0  0  0  0
   25.4377  -21.9239  -11.5003 O   0  0  0  0  0  0  0  0  0  0  0  0
   25.3076  -19.7024  -11.9526 N   0  0  0  0  0  0  0  0  0  0  0  0
   25.6532  -19.9864  -13.3552 C   0  0  1  0  0  0  0  0  0  0  0  0
   25.3477  -18.8451  -14.2482 C   0  0  0  0  0  0  0  0  0  0  0  0
   25.7429  -18.9756  -15.6516 C   0  0  0  0  0  0  0  0  0  0  0  0
   24.9585  -19.4732  -16.6598 C   0  0  0  0  0  0  0  0  0  0  0  0
   25.6082  -19.3709  -17.8022 N   0  0  0  0  0  0  0  0  0  0  0  0
   26.8206  -18.8146  -17.5869 C   0  0  0  0  0  0  0  0  0  0  0  0
   27.8735  -18.5011  -18.4184 C   0  0  0  0  0  0  0  0  0  0  0  0
   29.0329  -17.9410  -17.9287 C   0  0  0  0  0  0  0  0  0  0  0  0
   29.1191  -17.6956  -16.5699 C   0  0  0  0  0  0  0  0  0  0  0  0
   28.0858  -17.9999  -15.7314 C   0  0  0  0  0  0  0  0  0  0  0  0
   26.9349  -18.5552  -16.2424 C   0  0  0  0  0  0  0  0  0  0  0  0
   27.1174  -20.3717  -13.3375 C   0  0  0  0  0  0  0  0  0  0  0  0
   27.6325  -21.3348  -14.1949 O   0  0  0  0  0  0  0  0  0  0  0  0
   27.9067  -19.8312  -12.5379 O   0  0  0  0  0  0  0  0  0  0  0  0
  2  1  1  6
  3  2  1  0
  4  5  1  0
  4  2  1  0
  5  7  1  0
  5  6  1  1
  7  8  2  0
  9 10  1  0
 10 11  1  0
 11 13  1  0
 11 12  1  6
 13 15  1  0
 13 14  1  1
 14  7  1  0
 15 17  1  0
 16 15  2  0
 17 18  1  0
 18 19  1  6
 19 20  1  0
 20 21  2  0
 22 21  1  0
 23 22  1  0
 24 23  2  0
 25 24  1  0
 26 27  1  0
 26 25  2  0
 27 28  2  0
 28 23  1  0
 28 20  1  0
 29 30  1  0
 29 18  1  0
 31 29  2  0
M  END
$$$$
