LIW.pdb
     RDKit          3D

 31 32  0  0  1  0  0  0  0  0999 V2000
   28.5395  -14.5797  -15.9895 C   0  0  0  0  0  0  0  0  0  0  0  0
   28.1604  -16.0155  -16.2566 C   0  0  1  0  0  0  0  0  0  0  0  0
   29.4785  -16.7854  -16.3717 C   0  0  0  0  0  0  0  0  0  0  0  0
   27.4555  -16.6380  -15.0861 C   0  0  0  0  0  0  0  0  0  0  0  0
   27.1111  -18.0611  -15.2037 C   0  0  2  0  0  0  0  0  0  0  0  0
   26.5114  -18.2896  -16.5067 N   0  0  0  0  0  0  0  0  0  0  0  0
   26.2062  -18.5819  -14.1225 C   0  0  0  0  0  0  0  0  0  0  0  0
   25.2457  -17.8887  -13.7584 O   0  0  0  0  0  0  0  0  0  0  0  0
   23.9545  -22.9888  -15.4854 C   0  0  0  0  0  0  0  0  0  0  0  0
   24.3418  -21.7285  -14.7892 C   0  0  0  0  0  0  0  0  0  0  0  0
   24.9967  -21.8171  -13.4873 C   0  0  2  0  0  0  0  0  0  0  0  0
   24.1256  -22.6972  -12.5552 C   0  0  0  0  0  0  0  0  0  0  0  0
   25.4895  -20.6254  -12.7815 C   0  0  2  0  0  0  0  0  0  0  0  0
   26.4413  -19.8390  -13.5311 N   0  0  0  0  0  0  0  0  0  0  0  0
   25.9095  -20.8255  -11.3882 C   0  0  0  0  0  0  0  0  0  0  0  0
   27.1184  -21.0985  -11.1721 O   0  0  0  0  0  0  0  0  0  0  0  0
   25.0639  -20.7419  -10.2729 N   0  0  0  0  0  0  0  0  0  0  0  0
   25.5972  -21.1031   -8.9490 C   0  0  1  0  0  0  0  0  0  0  0  0
   26.5819  -20.1137   -8.4543 C   0  0  0  0  0  0  0  0  0  0  0  0
   27.0770  -20.2953   -7.0887 C   0  0  0  0  0  0  0  0  0  0  0  0
   26.8768  -21.4034   -6.3068 C   0  0  0  0  0  0  0  0  0  0  0  0
   27.5271  -21.2522   -5.1701 N   0  0  0  0  0  0  0  0  0  0  0  0
   28.1632  -20.0602   -5.1658 C   0  0  0  0  0  0  0  0  0  0  0  0
   28.9561  -19.4196   -4.2389 C   0  0  0  0  0  0  0  0  0  0  0  0
   29.4802  -18.1695   -4.4839 C   0  0  0  0  0  0  0  0  0  0  0  0
   29.1921  -17.5637   -5.6939 C   0  0  0  0  0  0  0  0  0  0  0  0
   28.4082  -18.1836   -6.6239 C   0  0  0  0  0  0  0  0  0  0  0  0
   27.8983  -19.4344   -6.3601 C   0  0  0  0  0  0  0  0  0  0  0  0
   24.3840  -21.2550   -8.0557 C   0  0  0  0  0  0  0  0  0  0  0  0
   24.3572  -22.1606   -7.0035 O   0  0  0  0  0  0  0  0  0  0  0  0
   23.3630  -20.5660   -8.2487 O   0  0  0  0  0  0  0  0  0  0  0  0
  2  1  1  1
  3  2  1  0
  4  5  1  0
  4  2  1  0
  5  7  1  0
  5  6  1  6
  7  8  2  0
  9 10  1  0
 10 11  1  0
 11 13  1  0
 11 12  1  1
 13 15  1  0
 13 14  1  6
 14  7  1  0
 15 17  1  0
 16 15  2  0
 17 18  1  0
 18 19  1  1
 19 20  1  0
 20 21  2  0
 22 21  1  0
 23 22  1  0
 24 23  2  0
 25 24  1  0
 26 27  1  0
 26 25  2  0
 27 28  2  0
 28 23  1  0
 28 20  1  0
 29 30  1  0
 29 18  1  0
 31 29  2  0
M  END
$$$$
