LIW.pdb
     RDKit          3D

 31 32  0  0  1  0  0  0  0  0999 V2000
   30.4464  -30.1589  -19.0363 C   0  0  0  0  0  0  0  0  0  0  0  0
   29.0931  -29.6717  -18.5806 C   0  0  1  0  0  0  0  0  0  0  0  0
   28.5731  -30.7262  -17.6001 C   0  0  0  0  0  0  0  0  0  0  0  0
   29.1929  -28.4122  -17.7692 C   0  0  0  0  0  0  0  0  0  0  0  0
   27.9284  -27.8141  -17.3206 C   0  0  2  0  0  0  0  0  0  0  0  0
   26.8733  -28.2133  -18.2354 N   0  0  0  0  0  0  0  0  0  0  0  0
   27.9525  -26.3174  -17.1847 C   0  0  0  0  0  0  0  0  0  0  0  0
   28.8443  -25.7911  -16.5040 O   0  0  0  0  0  0  0  0  0  0  0  0
   25.8526  -21.5233  -20.5758 C   0  0  0  0  0  0  0  0  0  0  0  0
   26.3496  -22.0444  -19.2702 C   0  0  0  0  0  0  0  0  0  0  0  0
   26.4631  -23.4885  -19.0869 C   0  0  2  0  0  0  0  0  0  0  0  0
   25.1497  -24.1527  -19.5726 C   0  0  0  0  0  0  0  0  0  0  0  0
   26.9173  -24.0785  -17.8194 C   0  0  2  0  0  0  0  0  0  0  0  0
   26.9797  -25.5215  -17.8214 N   0  0  0  0  0  0  0  0  0  0  0  0
   26.2920  -23.5513  -16.5991 C   0  0  0  0  0  0  0  0  0  0  0  0
   25.3621  -24.2203  -16.0790 O   0  0  0  0  0  0  0  0  0  0  0  0
   26.6471  -22.3514  -15.9667 N   0  0  0  0  0  0  0  0  0  0  0  0
   25.9095  -21.9389  -14.7612 C   0  0  1  0  0  0  0  0  0  0  0  0
   26.8044  -21.7465  -13.5970 C   0  0  0  0  0  0  0  0  0  0  0  0
   26.2241  -21.1158  -12.4103 C   0  0  0  0  0  0  0  0  0  0  0  0
   26.9144  -20.3969  -11.4690 C   0  0  0  0  0  0  0  0  0  0  0  0
   26.0634  -19.9141  -10.5857 N   0  0  0  0  0  0  0  0  0  0  0  0
   24.8080  -20.2944  -10.9095 C   0  0  0  0  0  0  0  0  0  0  0  0
   23.5784  -20.0754  -10.3278 C   0  0  0  0  0  0  0  0  0  0  0  0
   22.4254  -20.6036  -10.8654 C   0  0  0  0  0  0  0  0  0  0  0  0
   22.5279  -21.3660  -12.0153 C   0  0  0  0  0  0  0  0  0  0  0  0
   23.7379  -21.5934  -12.6051 C   0  0  0  0  0  0  0  0  0  0  0  0
   24.8769  -21.0526  -12.0534 C   0  0  0  0  0  0  0  0  0  0  0  0
   25.1530  -20.6898  -15.1616 C   0  0  0  0  0  0  0  0  0  0  0  0
   23.8539  -20.4507  -14.7336 O   0  0  0  0  0  0  0  0  0  0  0  0
   25.6823  -19.8362  -15.9003 O   0  0  0  0  0  0  0  0  0  0  0  0
  2  1  1  1
  3  2  1  0
  4  5  1  0
  4  2  1  0
  5  7  1  0
  5  6  1  6
  7  8  2  0
  9 10  1  0
 10 11  1  0
 11 13  1  0
 11 12  1  1
 13 15  1  0
 13 14  1  6
 14  7  1  0
 15 17  1  0
 16 15  2  0
 17 18  1  0
 18 19  1  1
 19 20  1  0
 20 21  2  0
 22 21  1  0
 23 22  1  0
 24 23  2  0
 25 24  1  0
 26 27  1  0
 26 25  2  0
 27 28  2  0
 28 23  1  0
 28 20  1  0
 29 30  1  0
 29 18  1  0
 31 29  2  0
M  END
$$$$
