LIW.pdb
     RDKit          3D

 31 32  0  0  1  0  0  0  0  0999 V2000
   22.6396  -17.1013  -19.4944 C   0  0  0  0  0  0  0  0  0  0  0  0
   23.2148  -18.2578  -18.7146 C   0  0  1  0  0  0  0  0  0  0  0  0
   24.6592  -18.4152  -19.1969 C   0  0  0  0  0  0  0  0  0  0  0  0
   23.3330  -17.9454  -17.2507 C   0  0  0  0  0  0  0  0  0  0  0  0
   24.1743  -18.8446  -16.4497 C   0  0  2  0  0  0  0  0  0  0  0  0
   24.0483  -20.1926  -16.9755 N   0  0  0  0  0  0  0  0  0  0  0  0
   23.8790  -18.8376  -14.9760 C   0  0  0  0  0  0  0  0  0  0  0  0
   23.6710  -17.7545  -14.4109 O   0  0  0  0  0  0  0  0  0  0  0  0
   19.5804  -21.1616  -13.2427 C   0  0  0  0  0  0  0  0  0  0  0  0
   20.8465  -20.3891  -13.3953 C   0  0  0  0  0  0  0  0  0  0  0  0
   22.0677  -20.9144  -12.7916 C   0  0  2  0  0  0  0  0  0  0  0  0
   21.7632  -21.3083  -11.3240 C   0  0  0  0  0  0  0  0  0  0  0  0
   23.3526  -20.2075  -12.8942 C   0  0  2  0  0  0  0  0  0  0  0  0
   23.8361  -20.0414  -14.2452 N   0  0  0  0  0  0  0  0  0  0  0  0
   24.4105  -20.6507  -11.9764 C   0  0  0  0  0  0  0  0  0  0  0  0
   24.9753  -21.7489  -12.2169 O   0  0  0  0  0  0  0  0  0  0  0  0
   24.8398  -19.9460  -10.8429 N   0  0  0  0  0  0  0  0  0  0  0  0
   25.8720  -20.5468   -9.9821 C   0  0  1  0  0  0  0  0  0  0  0  0
   26.8249  -19.5380   -9.4649 C   0  0  0  0  0  0  0  0  0  0  0  0
   27.8367  -20.0054   -8.5159 C   0  0  0  0  0  0  0  0  0  0  0  0
   28.7895  -20.9583   -8.7682 C   0  0  0  0  0  0  0  0  0  0  0  0
   29.5756  -21.0712   -7.7162 N   0  0  0  0  0  0  0  0  0  0  0  0
   29.1720  -20.2134   -6.7534 C   0  0  0  0  0  0  0  0  0  0  0  0
   29.6290  -19.9423   -5.4822 C   0  0  0  0  0  0  0  0  0  0  0  0
   29.0109  -19.0076   -4.6811 C   0  0  0  0  0  0  0  0  0  0  0  0
   27.9102  -18.3379   -5.1851 C   0  0  0  0  0  0  0  0  0  0  0  0
   27.4436  -18.5938   -6.4422 C   0  0  0  0  0  0  0  0  0  0  0  0
   28.0789  -19.5289   -7.2272 C   0  0  0  0  0  0  0  0  0  0  0  0
   25.1122  -21.2804   -8.8970 C   0  0  0  0  0  0  0  0  0  0  0  0
   25.5783  -22.4690   -8.3512 O   0  0  0  0  0  0  0  0  0  0  0  0
   24.0317  -20.8329   -8.4648 O   0  0  0  0  0  0  0  0  0  0  0  0
  2  1  1  6
  3  2  1  0
  4  5  1  0
  4  2  1  0
  5  7  1  0
  5  6  1  6
  7  8  2  0
  9 10  1  0
 10 11  1  0
 11 13  1  0
 11 12  1  1
 13 15  1  0
 13 14  1  6
 14  7  1  0
 15 17  1  0
 16 15  2  0
 17 18  1  0
 18 19  1  1
 19 20  1  0
 20 21  2  0
 22 21  1  0
 23 22  1  0
 24 23  2  0
 25 24  1  0
 26 27  1  0
 26 25  2  0
 27 28  2  0
 28 23  1  0
 28 20  1  0
 29 30  1  0
 29 18  1  0
 31 29  2  0
M  END
$$$$
