LIW.pdb
     RDKit          3D

 31 32  0  0  1  0  0  0  0  0999 V2000
   30.9721  -25.6971  -16.8329 C   0  0  0  0  0  0  0  0  0  0  0  0
   29.8269  -24.8491  -17.3289 C   0  0  1  0  0  0  0  0  0  0  0  0
   28.5581  -25.6711  -17.0885 C   0  0  0  0  0  0  0  0  0  0  0  0
   29.6432  -23.6114  -16.4987 C   0  0  0  0  0  0  0  0  0  0  0  0
   28.5576  -22.7051  -16.8964 C   0  0  2  0  0  0  0  0  0  0  0  0
   28.8278  -22.2137  -18.2363 N   0  0  0  0  0  0  0  0  0  0  0  0
   28.3263  -21.5508  -15.9620 C   0  0  0  0  0  0  0  0  0  0  0  0
   29.1939  -20.6709  -15.8692 O   0  0  0  0  0  0  0  0  0  0  0  0
   25.0506  -17.8083  -16.6819 C   0  0  0  0  0  0  0  0  0  0  0  0
   26.1114  -18.6804  -16.1012 C   0  0  0  0  0  0  0  0  0  0  0  0
   25.8167  -19.4300  -14.8835 C   0  0  2  0  0  0  0  0  0  0  0  0
   25.3083  -18.4400  -13.8049 C   0  0  0  0  0  0  0  0  0  0  0  0
   26.7705  -20.3916  -14.3118 C   0  0  2  0  0  0  0  0  0  0  0  0
   27.1420  -21.4655  -15.2035 N   0  0  0  0  0  0  0  0  0  0  0  0
   26.4705  -20.8734  -12.9569 C   0  0  0  0  0  0  0  0  0  0  0  0
   25.6811  -21.8460  -12.8403 O   0  0  0  0  0  0  0  0  0  0  0  0
   26.9925  -20.3287  -11.7751 N   0  0  0  0  0  0  0  0  0  0  0  0
   26.6632  -20.9703  -10.4916 C   0  0  1  0  0  0  0  0  0  0  0  0
   27.7376  -20.7954   -9.4875 C   0  0  0  0  0  0  0  0  0  0  0  0
   27.3222  -20.5096   -8.1133 C   0  0  0  0  0  0  0  0  0  0  0  0
   26.0660  -20.7066   -7.6008 C   0  0  0  0  0  0  0  0  0  0  0  0
   26.0738  -20.4139   -6.3155 N   0  0  0  0  0  0  0  0  0  0  0  0
   27.3125  -20.0197   -5.9470 C   0  0  0  0  0  0  0  0  0  0  0  0
   27.8504  -19.6031   -4.7490 C   0  0  0  0  0  0  0  0  0  0  0  0
   29.1731  -19.2325   -4.6459 C   0  0  0  0  0  0  0  0  0  0  0  0
   29.9599  -19.2890   -5.7825 C   0  0  0  0  0  0  0  0  0  0  0  0
   29.4438  -19.6992   -6.9779 C   0  0  0  0  0  0  0  0  0  0  0  0
   28.1205  -20.0689   -7.0574 C   0  0  0  0  0  0  0  0  0  0  0  0
   25.3355  -20.3739  -10.0740 C   0  0  0  0  0  0  0  0  0  0  0  0
   24.4564  -21.0529   -9.2409 O   0  0  0  0  0  0  0  0  0  0  0  0
   24.9909  -19.2458  -10.4779 O   0  0  0  0  0  0  0  0  0  0  0  0
  2  1  1  1
  3  2  1  0
  4  5  1  0
  4  2  1  0
  5  7  1  0
  5  6  1  6
  7  8  2  0
  9 10  1  0
 10 11  1  0
 11 13  1  0
 11 12  1  1
 13 15  1  0
 13 14  1  6
 14  7  1  0
 15 17  1  0
 16 15  2  0
 17 18  1  0
 18 19  1  1
 19 20  1  0
 20 21  2  0
 22 21  1  0
 23 22  1  0
 24 23  2  0
 25 24  1  0
 26 27  1  0
 26 25  2  0
 27 28  2  0
 28 23  1  0
 28 20  1  0
 29 30  1  0
 29 18  1  0
 31 29  2  0
M  END
$$$$
