LIW.pdb
     RDKit          3D

 31 32  0  0  1  0  0  0  0  0999 V2000
   19.1983  -21.4596  -17.9888 C   0  0  0  0  0  0  0  0  0  0  0  0
   20.5778  -21.2490  -17.4149 C   0  0  1  0  0  0  0  0  0  0  0  0
   21.5364  -21.2524  -18.6085 C   0  0  0  0  0  0  0  0  0  0  0  0
   20.7312  -19.8851  -16.8058 C   0  0  0  0  0  0  0  0  0  0  0  0
   22.1041  -19.4079  -16.5930 C   0  0  2  0  0  0  0  0  0  0  0  0
   22.7747  -20.3115  -15.6745 N   0  0  0  0  0  0  0  0  0  0  0  0
   22.2096  -17.9945  -16.0929 C   0  0  0  0  0  0  0  0  0  0  0  0
   21.4335  -17.6125  -15.2055 O   0  0  0  0  0  0  0  0  0  0  0  0
   27.0982  -15.8348  -15.0671 C   0  0  0  0  0  0  0  0  0  0  0  0
   25.6449  -16.1628  -15.1270 C   0  0  0  0  0  0  0  0  0  0  0  0
   24.7812  -15.3720  -15.9989 C   0  0  2  0  0  0  0  0  0  0  0  0
   24.9099  -13.8798  -15.6001 C   0  0  0  0  0  0  0  0  0  0  0  0
   23.3776  -15.7359  -16.2413 C   0  0  2  0  0  0  0  0  0  0  0  0
   23.1756  -17.1150  -16.6205 N   0  0  0  0  0  0  0  0  0  0  0  0
   22.6043  -14.8104  -17.0800 C   0  0  0  0  0  0  0  0  0  0  0  0
   23.0128  -14.5970  -18.2506 O   0  0  0  0  0  0  0  0  0  0  0  0
   21.4431  -14.1368  -16.6756 N   0  0  0  0  0  0  0  0  0  0  0  0
   20.7645  -13.2518  -17.6367 C   0  0  1  0  0  0  0  0  0  0  0  0
   19.2905  -13.3788  -17.5690 C   0  0  0  0  0  0  0  0  0  0  0  0
   18.5064  -12.4667  -18.4033 C   0  0  0  0  0  0  0  0  0  0  0  0
   18.8400  -12.0533  -19.6671 C   0  0  0  0  0  0  0  0  0  0  0  0
   17.8696  -11.2995  -20.1444 N   0  0  0  0  0  0  0  0  0  0  0  0
   16.8843  -11.1921  -19.2261 C   0  0  0  0  0  0  0  0  0  0  0  0
   15.6779  -10.5269  -19.2131 C   0  0  0  0  0  0  0  0  0  0  0  0
   14.8461  -10.5694  -18.1159 C   0  0  0  0  0  0  0  0  0  0  0  0
   15.2507  -11.3032  -17.0150 C   0  0  0  0  0  0  0  0  0  0  0  0
   16.4428  -11.9685  -17.0102 C   0  0  0  0  0  0  0  0  0  0  0  0
   17.2566  -11.9158  -18.1189 C   0  0  0  0  0  0  0  0  0  0  0  0
   21.2713  -11.8590  -17.3265 C   0  0  0  0  0  0  0  0  0  0  0  0
   21.6133  -10.9629  -18.3304 O   0  0  0  0  0  0  0  0  0  0  0  0
   21.4016  -11.4789  -16.1462 O   0  0  0  0  0  0  0  0  0  0  0  0
  2  1  1  6
  3  2  1  0
  4  5  1  0
  4  2  1  0
  5  7  1  0
  5  6  1  1
  7  8  2  0
  9 10  1  0
 10 11  1  0
 11 13  1  0
 11 12  1  1
 13 15  1  0
 13 14  1  6
 14  7  1  0
 15 17  1  0
 16 15  2  0
 17 18  1  0
 18 19  1  1
 19 20  1  0
 20 21  2  0
 22 21  1  0
 23 22  1  0
 24 23  2  0
 25 24  1  0
 26 27  1  0
 26 25  2  0
 27 28  2  0
 28 23  1  0
 28 20  1  0
 29 30  1  0
 29 18  1  0
 31 29  2  0
M  END
$$$$
