LIW.pdb
     RDKit          3D

 31 32  0  0  1  0  0  0  0  0999 V2000
   24.4671  -17.6425  -18.3604 C   0  0  0  0  0  0  0  0  0  0  0  0
   24.3411  -17.5730  -16.8584 C   0  0  1  0  0  0  0  0  0  0  0  0
   22.8650  -17.8320  -16.5464 C   0  0  0  0  0  0  0  0  0  0  0  0
   25.0770  -18.6924  -16.1801 C   0  0  0  0  0  0  0  0  0  0  0  0
   24.9406  -18.7827  -14.7203 C   0  0  2  0  0  0  0  0  0  0  0  0
   25.3490  -17.5179  -14.1346 N   0  0  0  0  0  0  0  0  0  0  0  0
   25.7009  -19.9131  -14.0851 C   0  0  0  0  0  0  0  0  0  0  0  0
   25.6834  -21.0272  -14.6273 O   0  0  0  0  0  0  0  0  0  0  0  0
   30.8489  -19.7337  -13.2313 C   0  0  0  0  0  0  0  0  0  0  0  0
   29.4014  -20.0681  -13.3583 C   0  0  0  0  0  0  0  0  0  0  0  0
   28.6523  -20.4172  -12.1547 C   0  0  2  0  0  0  0  0  0  0  0  0
   29.4214  -21.5312  -11.4000 C   0  0  0  0  0  0  0  0  0  0  0  0
   27.2103  -20.7009  -12.1909 C   0  0  2  0  0  0  0  0  0  0  0  0
   26.4251  -19.7128  -12.8933 N   0  0  0  0  0  0  0  0  0  0  0  0
   26.5958  -21.0946  -10.9159 C   0  0  0  0  0  0  0  0  0  0  0  0
   26.9589  -22.1829  -10.3996 O   0  0  0  0  0  0  0  0  0  0  0  0
   25.6262  -20.3524  -10.2269 N   0  0  0  0  0  0  0  0  0  0  0  0
   25.0133  -20.9320   -9.0203 C   0  0  1  0  0  0  0  0  0  0  0  0
   25.0341  -19.9918   -7.8762 C   0  0  0  0  0  0  0  0  0  0  0  0
   26.3404  -19.4745   -7.4654 C   0  0  0  0  0  0  0  0  0  0  0  0
   26.9532  -18.3578   -7.9723 C   0  0  0  0  0  0  0  0  0  0  0  0
   28.0783  -18.1488   -7.3181 N   0  0  0  0  0  0  0  0  0  0  0  0
   28.2411  -19.1051   -6.3775 C   0  0  0  0  0  0  0  0  0  0  0  0
   29.2279  -19.3536   -5.4486 C   0  0  0  0  0  0  0  0  0  0  0  0
   29.1567  -20.4340   -4.5970 C   0  0  0  0  0  0  0  0  0  0  0  0
   28.0611  -21.2733   -4.6934 C   0  0  0  0  0  0  0  0  0  0  0  0
   27.0741  -21.0424   -5.6078 C   0  0  0  0  0  0  0  0  0  0  0  0
   27.1634  -19.9547   -6.4462 C   0  0  0  0  0  0  0  0  0  0  0  0
   23.6201  -21.3511   -9.4398 C   0  0  0  0  0  0  0  0  0  0  0  0
   22.7455  -21.9738   -8.5592 O   0  0  0  0  0  0  0  0  0  0  0  0
   23.2199  -21.1505  -10.6034 O   0  0  0  0  0  0  0  0  0  0  0  0
  2  1  1  6
  3  2  1  0
  4  5  1  0
  4  2  1  0
  5  7  1  0
  5  6  1  1
  7  8  2  0
  9 10  1  0
 10 11  1  0
 11 13  1  0
 11 12  1  6
 13 15  1  0
 13 14  1  1
 14  7  1  0
 15 17  1  0
 16 15  2  0
 17 18  1  0
 18 19  1  1
 19 20  1  0
 20 21  2  0
 22 21  1  0
 23 22  1  0
 24 23  2  0
 25 24  1  0
 26 27  1  0
 26 25  2  0
 27 28  2  0
 28 23  1  0
 28 20  1  0
 29 30  1  0
 29 18  1  0
 31 29  2  0
M  END
$$$$
