LIW.pdb
     RDKit          3D

 31 32  0  0  1  0  0  0  0  0999 V2000
   28.1478  -17.9888  -17.9298 C   0  0  0  0  0  0  0  0  0  0  0  0
   28.6960  -19.1040  -17.0741 C   0  0  1  0  0  0  0  0  0  0  0  0
   29.5803  -18.4319  -16.0206 C   0  0  0  0  0  0  0  0  0  0  0  0
   27.6176  -19.7901  -16.2861 C   0  0  0  0  0  0  0  0  0  0  0  0
   28.0510  -20.8173  -15.3296 C   0  0  2  0  0  0  0  0  0  0  0  0
   28.7085  -21.8869  -16.0601 N   0  0  0  0  0  0  0  0  0  0  0  0
   26.9546  -21.3802  -14.4694 C   0  0  0  0  0  0  0  0  0  0  0  0
   26.2860  -22.3323  -14.8962 O   0  0  0  0  0  0  0  0  0  0  0  0
   25.2041  -21.2122   -8.4531 C   0  0  0  0  0  0  0  0  0  0  0  0
   24.8567  -21.3915   -9.8920 C   0  0  0  0  0  0  0  0  0  0  0  0
   25.8486  -21.0394  -10.9038 C   0  0  2  0  0  0  0  0  0  0  0  0
   26.4243  -19.6408  -10.5655 C   0  0  0  0  0  0  0  0  0  0  0  0
   25.5708  -21.1637  -12.3420 C   0  0  2  0  0  0  0  0  0  0  0  0
   26.6892  -20.8383  -13.1962 N   0  0  0  0  0  0  0  0  0  0  0  0
   24.3175  -20.5598  -12.8139 C   0  0  0  0  0  0  0  0  0  0  0  0
   24.3350  -19.3431  -13.1331 O   0  0  0  0  0  0  0  0  0  0  0  0
   23.0939  -21.2341  -12.9320 N   0  0  0  0  0  0  0  0  0  0  0  0
   21.9515  -20.5308  -13.5385 C   0  0  1  0  0  0  0  0  0  0  0  0
   22.0298  -20.5089  -15.0172 C   0  0  0  0  0  0  0  0  0  0  0  0
   20.9198  -19.8763  -15.7318 C   0  0  0  0  0  0  0  0  0  0  0  0
   20.5953  -18.5451  -15.6862 C   0  0  0  0  0  0  0  0  0  0  0  0
   19.5909  -18.3177  -16.5091 N   0  0  0  0  0  0  0  0  0  0  0  0
   19.2265  -19.4714  -17.1107 C   0  0  0  0  0  0  0  0  0  0  0  0
   18.2491  -19.7862  -18.0293 C   0  0  0  0  0  0  0  0  0  0  0  0
   18.0749  -21.0767  -18.4785 C   0  0  0  0  0  0  0  0  0  0  0  0
   18.9115  -22.0613  -17.9840 C   0  0  0  0  0  0  0  0  0  0  0  0
   19.8852  -21.7675  -17.0733 C   0  0  0  0  0  0  0  0  0  0  0  0
   20.0445  -20.4706  -16.6412 C   0  0  0  0  0  0  0  0  0  0  0  0
   20.7198  -21.2305  -13.0035 C   0  0  0  0  0  0  0  0  0  0  0  0
   19.5206  -20.5579  -12.8099 O   0  0  0  0  0  0  0  0  0  0  0  0
   20.7535  -22.4427  -12.7139 O   0  0  0  0  0  0  0  0  0  0  0  0
  2  1  1  6
  3  2  1  0
  4  5  1  0
  4  2  1  0
  5  7  1  0
  5  6  1  6
  7  8  2  0
  9 10  1  0
 10 11  1  0
 11 13  1  0
 11 12  1  6
 13 15  1  0
 13 14  1  6
 14  7  1  0
 15 17  1  0
 16 15  2  0
 17 18  1  0
 18 19  1  6
 19 20  1  0
 20 21  2  0
 22 21  1  0
 23 22  1  0
 24 23  2  0
 25 24  1  0
 26 27  1  0
 26 25  2  0
 27 28  2  0
 28 23  1  0
 28 20  1  0
 29 30  1  0
 29 18  1  0
 31 29  2  0
M  END
$$$$
