LIW.pdb
     RDKit          3D

 31 32  0  0  1  0  0  0  0  0999 V2000
   20.7600  -24.6484  -15.8067 C   0  0  0  0  0  0  0  0  0  0  0  0
   21.7153  -23.6645  -16.4359 C   0  0  1  0  0  0  0  0  0  0  0  0
   21.0212  -22.3016  -16.3703 C   0  0  0  0  0  0  0  0  0  0  0  0
   22.9657  -23.4958  -15.6218 C   0  0  0  0  0  0  0  0  0  0  0  0
   23.8783  -22.4192  -16.0292 C   0  0  2  0  0  0  0  0  0  0  0  0
   24.4267  -22.7418  -17.3349 N   0  0  0  0  0  0  0  0  0  0  0  0
   24.9912  -22.1357  -15.0596 C   0  0  0  0  0  0  0  0  0  0  0  0
   25.7253  -23.0671  -14.7001 O   0  0  0  0  0  0  0  0  0  0  0  0
   28.2511  -17.9327  -15.9679 C   0  0  0  0  0  0  0  0  0  0  0  0
   27.5922  -19.1913  -15.5151 C   0  0  0  0  0  0  0  0  0  0  0  0
   27.0229  -19.2428  -14.1716 C   0  0  2  0  0  0  0  0  0  0  0  0
   28.1169  -18.8275  -13.1554 C   0  0  0  0  0  0  0  0  0  0  0  0
   26.2688  -20.4094  -13.6904 C   0  0  2  0  0  0  0  0  0  0  0  0
   25.2013  -20.8327  -14.5665 N   0  0  0  0  0  0  0  0  0  0  0  0
   25.8509  -20.3743  -12.2825 C   0  0  0  0  0  0  0  0  0  0  0  0
   24.7639  -19.8045  -12.0061 O   0  0  0  0  0  0  0  0  0  0  0  0
   26.5743  -20.9236  -11.2145 N   0  0  0  0  0  0  0  0  0  0  0  0
   26.0739  -20.7292   -9.8436 C   0  0  1  0  0  0  0  0  0  0  0  0
   26.8856  -21.4600   -8.8435 C   0  0  0  0  0  0  0  0  0  0  0  0
   26.6367  -21.1533   -7.4339 C   0  0  0  0  0  0  0  0  0  0  0  0
   25.5532  -21.5699   -6.7047 C   0  0  0  0  0  0  0  0  0  0  0  0
   25.6958  -21.1735   -5.4556 N   0  0  0  0  0  0  0  0  0  0  0  0
   26.8559  -20.4934   -5.3247 C   0  0  0  0  0  0  0  0  0  0  0  0
   27.4668  -19.8705   -4.2583 C   0  0  0  0  0  0  0  0  0  0  0  0
   28.6715  -19.2181   -4.4018 C   0  0  0  0  0  0  0  0  0  0  0  0
   29.2631  -19.2019   -5.6523 C   0  0  0  0  0  0  0  0  0  0  0  0
   28.6721  -19.8137   -6.7200 C   0  0  0  0  0  0  0  0  0  0  0  0
   27.4704  -20.4634   -6.5534 C   0  0  0  0  0  0  0  0  0  0  0  0
   26.0524  -19.2298   -9.6333 C   0  0  0  0  0  0  0  0  0  0  0  0
   27.0495  -18.4047  -10.1361 O   0  0  0  0  0  0  0  0  0  0  0  0
   25.1299  -18.6920   -8.9897 O   0  0  0  0  0  0  0  0  0  0  0  0
  2  1  1  1
  3  2  1  0
  4  5  1  0
  4  2  1  0
  5  7  1  0
  5  6  1  6
  7  8  2  0
  9 10  1  0
 10 11  1  0
 11 13  1  0
 11 12  1  1
 13 15  1  0
 13 14  1  6
 14  7  1  0
 15 17  1  0
 16 15  2  0
 17 18  1  0
 18 19  1  1
 19 20  1  0
 20 21  2  0
 22 21  1  0
 23 22  1  0
 24 23  2  0
 25 24  1  0
 26 27  1  0
 26 25  2  0
 27 28  2  0
 28 23  1  0
 28 20  1  0
 29 30  1  0
 29 18  1  0
 31 29  2  0
M  END
$$$$
