LIW.pdb
     RDKit          3D

 31 32  0  0  1  0  0  0  0  0999 V2000
   24.9176  -26.7505  -17.4019 C   0  0  0  0  0  0  0  0  0  0  0  0
   24.7285  -25.3531  -16.8650 C   0  0  1  0  0  0  0  0  0  0  0  0
   23.7870  -25.4859  -15.6653 C   0  0  0  0  0  0  0  0  0  0  0  0
   25.9993  -24.7939  -16.2931 C   0  0  0  0  0  0  0  0  0  0  0  0
   26.3503  -23.4215  -16.6821 C   0  0  2  0  0  0  0  0  0  0  0  0
   27.1844  -23.4725  -17.8701 N   0  0  0  0  0  0  0  0  0  0  0  0
   27.0305  -22.6171  -15.6101 C   0  0  0  0  0  0  0  0  0  0  0  0
   28.2127  -22.8647  -15.3332 O   0  0  0  0  0  0  0  0  0  0  0  0
   27.8758  -17.5065  -15.8126 C   0  0  0  0  0  0  0  0  0  0  0  0
   27.8281  -18.9473  -15.4320 C   0  0  0  0  0  0  0  0  0  0  0  0
   27.0375  -19.3416  -14.2695 C   0  0  2  0  0  0  0  0  0  0  0  0
   27.4778  -18.4811  -13.0580 C   0  0  0  0  0  0  0  0  0  0  0  0
   26.8691  -20.7504  -13.8848 C   0  0  2  0  0  0  0  0  0  0  0  0
   26.3392  -21.5951  -14.9298 N   0  0  0  0  0  0  0  0  0  0  0  0
   26.2191  -20.9947  -12.5902 C   0  0  0  0  0  0  0  0  0  0  0  0
   24.9630  -21.0607  -12.5663 O   0  0  0  0  0  0  0  0  0  0  0  0
   26.8909  -21.1553  -11.3701 N   0  0  0  0  0  0  0  0  0  0  0  0
   26.0991  -21.3381  -10.1424 C   0  0  1  0  0  0  0  0  0  0  0  0
   26.9496  -21.6451   -8.9695 C   0  0  0  0  0  0  0  0  0  0  0  0
   27.1840  -20.5589   -8.0166 C   0  0  0  0  0  0  0  0  0  0  0  0
   26.6720  -19.2905   -8.1088 C   0  0  0  0  0  0  0  0  0  0  0  0
   27.0267  -18.6037   -7.0411 N   0  0  0  0  0  0  0  0  0  0  0  0
   27.7721  -19.3827   -6.2268 C   0  0  0  0  0  0  0  0  0  0  0  0
   28.3891  -19.1589   -5.0154 C   0  0  0  0  0  0  0  0  0  0  0  0
   29.1207  -20.1440   -4.3894 C   0  0  0  0  0  0  0  0  0  0  0  0
   29.2233  -21.3772   -5.0080 C   0  0  0  0  0  0  0  0  0  0  0  0
   28.6187  -21.6167   -6.2083 C   0  0  0  0  0  0  0  0  0  0  0  0
   27.8892  -20.6193   -6.8143 C   0  0  0  0  0  0  0  0  0  0  0  0
   25.2909  -20.0664   -9.9932 C   0  0  0  0  0  0  0  0  0  0  0  0
   24.0649  -20.0492   -9.3416 O   0  0  0  0  0  0  0  0  0  0  0  0
   25.7084  -18.9898  -10.4632 O   0  0  0  0  0  0  0  0  0  0  0  0
  2  1  1  1
  3  2  1  0
  4  5  1  0
  4  2  1  0
  5  7  1  0
  5  6  1  6
  7  8  2  0
  9 10  1  0
 10 11  1  0
 11 13  1  0
 11 12  1  1
 13 15  1  0
 13 14  1  6
 14  7  1  0
 15 17  1  0
 16 15  2  0
 17 18  1  0
 18 19  1  1
 19 20  1  0
 20 21  2  0
 22 21  1  0
 23 22  1  0
 24 23  2  0
 25 24  1  0
 26 27  1  0
 26 25  2  0
 27 28  2  0
 28 23  1  0
 28 20  1  0
 29 30  1  0
 29 18  1  0
 31 29  2  0
M  END
$$$$
