LIW.pdb
     RDKit          3D

 31 32  0  0  1  0  0  0  0  0999 V2000
   28.5929  -16.6427  -17.6070 C   0  0  0  0  0  0  0  0  0  0  0  0
   27.9130  -17.7544  -16.8465 C   0  0  1  0  0  0  0  0  0  0  0  0
   28.0007  -18.9931  -17.7418 C   0  0  0  0  0  0  0  0  0  0  0  0
   28.6670  -18.1280  -15.6029 C   0  0  0  0  0  0  0  0  0  0  0  0
   28.2632  -19.3725  -14.9350 C   0  0  2  0  0  0  0  0  0  0  0  0
   27.6049  -20.2299  -15.9052 N   0  0  0  0  0  0  0  0  0  0  0  0
   27.3816  -19.1849  -13.7323 C   0  0  0  0  0  0  0  0  0  0  0  0
   27.5257  -18.1706  -13.0352 O   0  0  0  0  0  0  0  0  0  0  0  0
   22.0454  -19.3443  -14.1485 C   0  0  0  0  0  0  0  0  0  0  0  0
   23.4742  -19.1945  -13.7494 C   0  0  0  0  0  0  0  0  0  0  0  0
   24.0345  -20.1293  -12.7779 C   0  0  2  0  0  0  0  0  0  0  0  0
   23.0706  -20.2206  -11.5676 C   0  0  0  0  0  0  0  0  0  0  0  0
   25.4337  -20.0453  -12.3349 C   0  0  2  0  0  0  0  0  0  0  0  0
   26.4039  -20.1436  -13.4005 N   0  0  0  0  0  0  0  0  0  0  0  0
   25.7965  -20.8715  -11.1757 C   0  0  0  0  0  0  0  0  0  0  0  0
   26.2794  -22.0123  -11.3950 O   0  0  0  0  0  0  0  0  0  0  0  0
   25.6411  -20.4901   -9.8354 N   0  0  0  0  0  0  0  0  0  0  0  0
   25.9779  -21.4578   -8.7783 C   0  0  1  0  0  0  0  0  0  0  0  0
   27.3592  -21.2779   -8.2754 C   0  0  0  0  0  0  0  0  0  0  0  0
   27.6045  -20.1266   -7.4053 C   0  0  0  0  0  0  0  0  0  0  0  0
   27.1764  -18.8448   -7.6361 C   0  0  0  0  0  0  0  0  0  0  0  0
   27.5107  -18.0873   -6.6105 N   0  0  0  0  0  0  0  0  0  0  0  0
   28.1601  -18.8316   -5.6886 C   0  0  0  0  0  0  0  0  0  0  0  0
   28.7196  -18.5365   -4.4646 C   0  0  0  0  0  0  0  0  0  0  0  0
   29.3532  -19.5016   -3.7133 C   0  0  0  0  0  0  0  0  0  0  0  0
   29.4160  -20.7884   -4.2177 C   0  0  0  0  0  0  0  0  0  0  0  0
   28.8672  -21.0988   -5.4285 C   0  0  0  0  0  0  0  0  0  0  0  0
   28.2351  -20.1198   -6.1608 C   0  0  0  0  0  0  0  0  0  0  0  0
   24.9140  -21.2778   -7.7159 C   0  0  0  0  0  0  0  0  0  0  0  0
   24.9841  -21.9274   -6.4908 O   0  0  0  0  0  0  0  0  0  0  0  0
   23.9323  -20.5367   -7.9195 O   0  0  0  0  0  0  0  0  0  0  0  0
  2  1  1  6
  3  2  1  0
  4  5  1  0
  4  2  1  0
  5  7  1  0
  5  6  1  6
  7  8  2  0
  9 10  1  0
 10 11  1  0
 11 13  1  0
 11 12  1  1
 13 15  1  0
 13 14  1  6
 14  7  1  0
 15 17  1  0
 16 15  2  0
 17 18  1  0
 18 19  1  1
 19 20  1  0
 20 21  2  0
 22 21  1  0
 23 22  1  0
 24 23  2  0
 25 24  1  0
 26 27  1  0
 26 25  2  0
 27 28  2  0
 28 23  1  0
 28 20  1  0
 29 30  1  0
 29 18  1  0
 31 29  2  0
M  END
$$$$
