TTA.pdb
     RDKit          3D

 20 19  0  0  1  0  0  0  0  0999 V2000
   13.6658  -18.3662   23.5793 C   0  0  0  0  0  0  0  0  0  0  0  0
   13.6470  -17.9600   22.1359 C   0  0  1  0  0  0  0  0  0  0  0  0
   14.3516  -18.8410   21.3283 O   0  0  0  0  0  0  0  0  0  0  0  0
   12.2214  -17.7408   21.6345 C   0  0  2  0  0  0  0  0  0  0  0  0
   12.2522  -17.4438   20.2142 N   0  0  0  0  0  0  0  0  0  0  0  0
   11.5599  -16.6241   22.3365 C   0  0  0  0  0  0  0  0  0  0  0  0
   11.8748  -15.4543   22.0246 O   0  0  0  0  0  0  0  0  0  0  0  0
    8.0467  -15.4114   22.6943 C   0  0  0  0  0  0  0  0  0  0  0  0
    8.5444  -15.8782   24.0355 C   0  0  1  0  0  0  0  0  0  0  0  0
    8.0358  -17.1331   24.3481 O   0  0  0  0  0  0  0  0  0  0  0  0
   10.0375  -15.7976   24.1676 C   0  0  2  0  0  0  0  0  0  0  0  0
   10.6020  -16.8315   23.3286 N   0  0  0  0  0  0  0  0  0  0  0  0
   10.5213  -15.8665   25.5612 C   0  0  0  0  0  0  0  0  0  0  0  0
   11.0700  -16.8970   26.0313 O   0  0  0  0  0  0  0  0  0  0  0  0
   10.6675  -13.5345   28.5084 C   0  0  0  0  0  0  0  0  0  0  0  0
   10.8003  -14.9119   27.8433 C   0  0  2  0  0  0  0  0  0  0  0  0
   10.4103  -14.7889   26.4785 N   0  0  0  0  0  0  0  0  0  0  0  0
   10.0243  -15.8527   28.6375 C   0  0  0  0  0  0  0  0  0  0  0  0
   10.4471  -16.4734   29.8045 O   0  0  0  0  0  0  0  0  0  0  0  0
    8.8640  -16.1363   28.2399 O   0  0  0  0  0  0  0  0  0  0  0  0
  2  1  1  1
  2  3  1  0
  2  4  1  0
  4  5  1  6
  6  4  1  0
  6 12  1  0
  7  6  2  0
  9  8  1  6
 10  9  1  0
 11  9  1  0
 11 12  1  6
 11 13  1  0
 13 14  2  0
 16 15  1  1
 16 18  1  0
 17 13  1  0
 17 16  1  0
 18 19  1  0
 20 18  2  0
M  END
$$$$
