TTA.pdb
     RDKit          3D

 20 19  0  0  1  0  0  0  0  0999 V2000
   -6.1031  -24.6194   23.6931 C   0  0  0  0  0  0  0  0  0  0  0  0
   -4.9068  -25.5095   23.5338 C   0  0  1  0  0  0  0  0  0  0  0  0
   -4.4282  -25.5261   22.2318 O   0  0  0  0  0  0  0  0  0  0  0  0
   -3.8124  -25.1618   24.5404 C   0  0  2  0  0  0  0  0  0  0  0  0
   -2.6714  -26.0338   24.3297 N   0  0  0  0  0  0  0  0  0  0  0  0
   -4.2777  -25.3205   25.9317 C   0  0  0  0  0  0  0  0  0  0  0  0
   -4.4969  -26.4759   26.3584 O   0  0  0  0  0  0  0  0  0  0  0  0
   -2.5768  -24.9960   28.8353 C   0  0  0  0  0  0  0  0  0  0  0  0
   -3.6961  -24.0054   29.0098 C   0  0  1  0  0  0  0  0  0  0  0  0
   -3.2396  -22.7025   28.8505 O   0  0  0  0  0  0  0  0  0  0  0  0
   -4.8940  -24.3183   28.1610 C   0  0  2  0  0  0  0  0  0  0  0  0
   -4.4787  -24.2309   26.7784 N   0  0  0  0  0  0  0  0  0  0  0  0
   -6.0740  -23.4809   28.4561 C   0  0  0  0  0  0  0  0  0  0  0  0
   -6.3138  -22.4147   27.8319 O   0  0  0  0  0  0  0  0  0  0  0  0
   -9.1067  -23.7851   30.6556 C   0  0  0  0  0  0  0  0  0  0  0  0
   -8.2271  -23.0548   29.6308 C   0  0  2  0  0  0  0  0  0  0  0  0
   -7.0273  -23.8035   29.4572 N   0  0  0  0  0  0  0  0  0  0  0  0
   -8.0542  -21.6893   30.1037 C   0  0  0  0  0  0  0  0  0  0  0  0
   -8.9234  -20.6328   29.8714 O   0  0  0  0  0  0  0  0  0  0  0  0
   -7.0279  -21.4319   30.7857 O   0  0  0  0  0  0  0  0  0  0  0  0
  2  1  1  6
  2  3  1  0
  2  4  1  0
  4  5  1  6
  6  4  1  0
  6 12  1  0
  7  6  2  0
  9  8  1  6
 10  9  1  0
 11  9  1  0
 11 12  1  6
 11 13  1  0
 13 14  2  0
 16 15  1  1
 16 18  1  0
 17 13  1  0
 17 16  1  0
 18 19  1  0
 20 18  2  0
M  END
$$$$
