TTA.pdb
     RDKit          3D

 20 19  0  0  1  0  0  0  0  0999 V2000
    9.1033  -12.2708   20.7632 C   0  0  0  0  0  0  0  0  0  0  0  0
    8.6290  -13.1373   19.6350 C   0  0  1  0  0  0  0  0  0  0  0  0
    9.0533  -12.6754   18.3975 O   0  0  0  0  0  0  0  0  0  0  0  0
    9.0035  -14.6009   19.8576 C   0  0  2  0  0  0  0  0  0  0  0  0
    8.5199  -15.3953   18.7433 N   0  0  0  0  0  0  0  0  0  0  0  0
    8.4199  -15.1317   21.1046 C   0  0  0  0  0  0  0  0  0  0  0  0
    7.3899  -15.8374   21.0271 O   0  0  0  0  0  0  0  0  0  0  0  0
    7.8001  -17.4976   22.2424 C   0  0  0  0  0  0  0  0  0  0  0  0
    8.7099  -17.0182   23.3411 C   0  0  1  0  0  0  0  0  0  0  0  0
   10.0150  -17.4473   23.1320 O   0  0  0  0  0  0  0  0  0  0  0  0
    8.6070  -15.5406   23.5849 C   0  0  2  0  0  0  0  0  0  0  0  0
    8.9773  -14.8731   22.3565 N   0  0  0  0  0  0  0  0  0  0  0  0
    9.3856  -15.0685   24.7476 C   0  0  0  0  0  0  0  0  0  0  0  0
   10.6343  -14.9181   24.7031 O   0  0  0  0  0  0  0  0  0  0  0  0
    8.6728  -13.3526   27.9485 C   0  0  0  0  0  0  0  0  0  0  0  0
    9.5688  -14.2621   27.0956 C   0  0  2  0  0  0  0  0  0  0  0  0
    8.7987  -14.7478   25.9997 N   0  0  0  0  0  0  0  0  0  0  0  0
   10.1184  -15.2799   27.9789 C   0  0  0  0  0  0  0  0  0  0  0  0
   11.0489  -15.0654   28.9859 O   0  0  0  0  0  0  0  0  0  0  0  0
    9.7213  -16.4645   27.8250 O   0  0  0  0  0  0  0  0  0  0  0  0
  2  1  1  1
  2  3  1  0
  2  4  1  0
  4  5  1  6
  6  4  1  0
  6 12  1  0
  7  6  2  0
  9  8  1  6
 10  9  1  0
 11  9  1  0
 11 12  1  6
 11 13  1  0
 13 14  2  0
 16 15  1  1
 16 18  1  0
 17 13  1  0
 17 16  1  0
 18 19  1  0
 20 18  2  0
M  END
$$$$
