TTA.pdb
     RDKit          3D

 20 19  0  0  1  0  0  0  0  0999 V2000
    9.5111  -12.3836   20.4789 C   0  0  0  0  0  0  0  0  0  0  0  0
    8.9529  -12.9980   19.2300 C   0  0  1  0  0  0  0  0  0  0  0  0
    9.6983  -12.6797   18.1040 O   0  0  0  0  0  0  0  0  0  0  0  0
    8.7651  -14.5056   19.3834 C   0  0  2  0  0  0  0  0  0  0  0  0
    8.0931  -15.0280   18.2077 N   0  0  0  0  0  0  0  0  0  0  0  0
    7.9604  -14.8387   20.5746 C   0  0  0  0  0  0  0  0  0  0  0  0
    6.7186  -14.7005   20.5123 O   0  0  0  0  0  0  0  0  0  0  0  0
    7.2751  -17.4894   24.5151 C   0  0  0  0  0  0  0  0  0  0  0  0
    7.9014  -17.0643   23.2145 C   0  0  1  0  0  0  0  0  0  0  0  0
    7.4098  -17.8159   22.1540 O   0  0  0  0  0  0  0  0  0  0  0  0
    7.8155  -15.5845   22.9781 C   0  0  2  0  0  0  0  0  0  0  0  0
    8.5373  -15.2992   21.7577 N   0  0  0  0  0  0  0  0  0  0  0  0
    8.2769  -14.7667   24.1180 C   0  0  0  0  0  0  0  0  0  0  0  0
    9.4977  -14.5791   24.3592 O   0  0  0  0  0  0  0  0  0  0  0  0
    6.6831  -12.6459   26.7756 C   0  0  0  0  0  0  0  0  0  0  0  0
    7.8631  -13.4193   26.1699 C   0  0  2  0  0  0  0  0  0  0  0  0
    7.3929  -14.1299   25.0280 N   0  0  0  0  0  0  0  0  0  0  0  0
    8.4340  -14.2375   27.2295 C   0  0  0  0  0  0  0  0  0  0  0  0
    8.4716  -15.6245   27.2543 O   0  0  0  0  0  0  0  0  0  0  0  0
    8.9421  -13.6447   28.2170 O   0  0  0  0  0  0  0  0  0  0  0  0
  2  1  1  1
  2  3  1  0
  2  4  1  0
  4  5  1  6
  6  4  1  0
  6 12  1  0
  7  6  2  0
  9  8  1  1
 10  9  1  0
 11  9  1  0
 11 12  1  6
 11 13  1  0
 13 14  2  0
 16 15  1  1
 16 18  1  0
 17 13  1  0
 17 16  1  0
 18 19  1  0
 20 18  2  0
M  END
$$$$
