TTA.pdb
     RDKit          3D

 20 19  0  0  1  0  0  0  0  0999 V2000
   12.0562  -15.6857   18.4676 C   0  0  0  0  0  0  0  0  0  0  0  0
   11.4750  -14.9096   19.6116 C   0  0  1  0  0  0  0  0  0  0  0  0
   12.2199  -13.7801   19.9182 O   0  0  0  0  0  0  0  0  0  0  0  0
   10.0042  -14.5765   19.3722 C   0  0  2  0  0  0  0  0  0  0  0  0
    9.9024  -13.5769   18.3247 N   0  0  0  0  0  0  0  0  0  0  0  0
    9.3564  -14.0523   20.5900 C   0  0  0  0  0  0  0  0  0  0  0  0
    9.2403  -12.8131   20.7167 O   0  0  0  0  0  0  0  0  0  0  0  0
    5.9364  -14.6845   21.5013 C   0  0  0  0  0  0  0  0  0  0  0  0
    6.7694  -15.1390   22.6693 C   0  0  1  0  0  0  0  0  0  0  0  0
    6.8644  -16.5250   22.7060 O   0  0  0  0  0  0  0  0  0  0  0  0
    8.1035  -14.4546   22.7399 C   0  0  2  0  0  0  0  0  0  0  0  0
    8.8734  -14.8893   21.5954 N   0  0  0  0  0  0  0  0  0  0  0  0
    8.8159  -14.6587   24.0173 C   0  0  0  0  0  0  0  0  0  0  0  0
    9.8252  -15.4046   24.1115 O   0  0  0  0  0  0  0  0  0  0  0  0
    8.5860  -13.2893   27.5083 C   0  0  0  0  0  0  0  0  0  0  0  0
    9.1100  -14.2815   26.4603 C   0  0  2  0  0  0  0  0  0  0  0  0
    8.4276  -14.0381   25.2335 N   0  0  0  0  0  0  0  0  0  0  0  0
    8.9531  -15.6184   27.0136 C   0  0  0  0  0  0  0  0  0  0  0  0
    9.6924  -16.1582   28.0566 O   0  0  0  0  0  0  0  0  0  0  0  0
    8.0706  -16.3607   26.5085 O   0  0  0  0  0  0  0  0  0  0  0  0
  2  1  1  6
  2  3  1  0
  2  4  1  0
  4  5  1  6
  6  4  1  0
  6 12  1  0
  7  6  2  0
  9  8  1  6
 10  9  1  0
 11  9  1  0
 11 12  1  6
 11 13  1  0
 13 14  2  0
 16 15  1  1
 16 18  1  0
 17 13  1  0
 17 16  1  0
 18 19  1  0
 20 18  2  0
M  END
$$$$
