TTA.pdb
     RDKit          3D

 20 19  0  0  1  0  0  0  0  0999 V2000
   13.9053  -21.0115   19.3110 C   0  0  0  0  0  0  0  0  0  0  0  0
   12.9357  -20.7185   18.2052 C   0  0  1  0  0  0  0  0  0  0  0  0
   13.5711  -20.3946   17.0152 O   0  0  0  0  0  0  0  0  0  0  0  0
   11.9313  -21.8547   18.0257 C   0  0  2  0  0  0  0  0  0  0  0  0
   11.0737  -21.5629   16.8917 N   0  0  0  0  0  0  0  0  0  0  0  0
   11.0872  -22.0334   19.2228 C   0  0  0  0  0  0  0  0  0  0  0  0
   10.1456  -21.2318   19.4128 O   0  0  0  0  0  0  0  0  0  0  0  0
    9.2109  -25.0877   20.3789 C   0  0  0  0  0  0  0  0  0  0  0  0
   10.1770  -24.6825   21.4592 C   0  0  1  0  0  0  0  0  0  0  0  0
   11.2639  -25.5472   21.5075 O   0  0  0  0  0  0  0  0  0  0  0  0
   10.5763  -23.2378   21.3774 C   0  0  2  0  0  0  0  0  0  0  0  0
   11.3050  -23.0602   20.1408 N   0  0  0  0  0  0  0  0  0  0  0  0
   11.3248  -22.7543   22.5551 C   0  0  0  0  0  0  0  0  0  0  0  0
   12.5823  -22.7100   22.5796 O   0  0  0  0  0  0  0  0  0  0  0  0
   10.8363  -20.6724   25.5009 C   0  0  0  0  0  0  0  0  0  0  0  0
   11.4411  -21.9537   24.9093 C   0  0  2  0  0  0  0  0  0  0  0  0
   10.6970  -22.3035   23.7457 N   0  0  0  0  0  0  0  0  0  0  0  0
   11.4603  -22.9521   25.9680 C   0  0  0  0  0  0  0  0  0  0  0  0
   12.3599  -22.9999   27.0236 O   0  0  0  0  0  0  0  0  0  0  0  0
   10.5873  -23.8584   25.9334 O   0  0  0  0  0  0  0  0  0  0  0  0
  2  1  1  1
  2  3  1  0
  2  4  1  0
  4  5  1  6
  6  4  1  0
  6 12  1  0
  7  6  2  0
  9  8  1  6
 10  9  1  0
 11  9  1  0
 11 12  1  6
 11 13  1  0
 13 14  2  0
 16 15  1  1
 16 18  1  0
 17 13  1  0
 17 16  1  0
 18 19  1  0
 20 18  2  0
M  END
$$$$
