TTA.pdb
     RDKit          3D

 20 19  0  0  1  0  0  0  0  0999 V2000
   10.8114  -19.1010   19.9374 C   0  0  0  0  0  0  0  0  0  0  0  0
   11.4007  -18.2950   18.8185 C   0  0  1  0  0  0  0  0  0  0  0  0
   11.8554  -19.0891   17.7757 O   0  0  0  0  0  0  0  0  0  0  0  0
   10.4335  -17.2166   18.3357 C   0  0  2  0  0  0  0  0  0  0  0  0
   10.9992  -16.5470   17.1788 N   0  0  0  0  0  0  0  0  0  0  0  0
   10.1694  -16.2099   19.3818 C   0  0  0  0  0  0  0  0  0  0  0  0
   11.0696  -15.3857   19.6563 O   0  0  0  0  0  0  0  0  0  0  0  0
    7.1693  -13.8620   19.6461 C   0  0  0  0  0  0  0  0  0  0  0  0
    7.2685  -14.6972   20.8939 C   0  0  1  0  0  0  0  0  0  0  0  0
    6.2951  -15.6889   20.9101 O   0  0  0  0  0  0  0  0  0  0  0  0
    8.6523  -15.2254   21.1377 C   0  0  2  0  0  0  0  0  0  0  0  0
    8.9568  -16.1498   20.0678 N   0  0  0  0  0  0  0  0  0  0  0  0
    8.8405  -15.8204   22.4762 C   0  0  0  0  0  0  0  0  0  0  0  0
    8.9352  -17.0631   22.6514 O   0  0  0  0  0  0  0  0  0  0  0  0
    9.0939  -14.5349   26.0037 C   0  0  0  0  0  0  0  0  0  0  0  0
    9.0226  -15.6524   24.9533 C   0  0  2  0  0  0  0  0  0  0  0  0
    8.9298  -15.0502   23.6653 N   0  0  0  0  0  0  0  0  0  0  0  0
    7.9165  -16.5233   25.3223 C   0  0  0  0  0  0  0  0  0  0  0  0
    6.7053  -16.6266   24.6528 O   0  0  0  0  0  0  0  0  0  0  0  0
    8.0600  -17.2529   26.3381 O   0  0  0  0  0  0  0  0  0  0  0  0
  2  1  1  1
  2  3  1  0
  2  4  1  0
  4  5  1  6
  6  4  1  0
  6 12  1  0
  7  6  2  0
  9  8  1  6
 10  9  1  0
 11  9  1  0
 11 12  1  6
 11 13  1  0
 13 14  2  0
 16 15  1  1
 16 18  1  0
 17 13  1  0
 17 16  1  0
 18 19  1  0
 20 18  2  0
M  END
$$$$
