TTA.pdb
     RDKit          3D

 20 19  0  0  1  0  0  0  0  0999 V2000
   10.7421  -14.2437   18.4332 C   0  0  0  0  0  0  0  0  0  0  0  0
   10.0959  -14.3141   19.7846 C   0  0  1  0  0  0  0  0  0  0  0  0
   10.6075  -13.3730   20.6662 O   0  0  0  0  0  0  0  0  0  0  0  0
    8.5745  -14.2335   19.6825 C   0  0  2  0  0  0  0  0  0  0  0  0
    8.2009  -12.9784   19.0566 N   0  0  0  0  0  0  0  0  0  0  0  0
    7.9319  -14.3097   21.0087 C   0  0  0  0  0  0  0  0  0  0  0  0
    7.3397  -13.2969   21.4428 O   0  0  0  0  0  0  0  0  0  0  0  0
    6.4069  -17.3358   24.6289 C   0  0  0  0  0  0  0  0  0  0  0  0
    6.9762  -17.0386   23.2681 C   0  0  1  0  0  0  0  0  0  0  0  0
    6.1296  -17.4901   22.2627 O   0  0  0  0  0  0  0  0  0  0  0  0
    7.3763  -15.6015   23.1007 C   0  0  2  0  0  0  0  0  0  0  0  0
    7.9643  -15.4669   21.7862 N   0  0  0  0  0  0  0  0  0  0  0  0
    8.2555  -15.0944   24.1734 C   0  0  0  0  0  0  0  0  0  0  0  0
    9.4906  -15.3347   24.1991 O   0  0  0  0  0  0  0  0  0  0  0  0
    7.9682  -12.6687   27.0038 C   0  0  0  0  0  0  0  0  0  0  0  0
    8.6551  -13.8391   26.2856 C   0  0  2  0  0  0  0  0  0  0  0  0
    7.7879  -14.3017   25.2541 N   0  0  0  0  0  0  0  0  0  0  0  0
    9.0080  -14.8219   27.2994 C   0  0  0  0  0  0  0  0  0  0  0  0
   10.0490  -14.7117   28.2104 O   0  0  0  0  0  0  0  0  0  0  0  0
    8.3135  -15.8699   27.3650 O   0  0  0  0  0  0  0  0  0  0  0  0
  2  1  1  6
  2  3  1  0
  2  4  1  0
  4  5  1  1
  6  4  1  0
  6 12  1  0
  7  6  2  0
  9  8  1  1
 10  9  1  0
 11  9  1  0
 11 12  1  6
 11 13  1  0
 13 14  2  0
 16 15  1  1
 16 18  1  0
 17 13  1  0
 17 16  1  0
 18 19  1  0
 20 18  2  0
M  END
$$$$
