TTA.pdb
     RDKit          3D

 20 19  0  0  1  0  0  0  0  0999 V2000
   11.6748  -14.6509   20.7185 C   0  0  0  0  0  0  0  0  0  0  0  0
   10.9966  -13.7921   19.6932 C   0  0  1  0  0  0  0  0  0  0  0  0
   11.6726  -13.7792   18.4818 O   0  0  0  0  0  0  0  0  0  0  0  0
    9.5283  -14.1760   19.5241 C   0  0  2  0  0  0  0  0  0  0  0  0
    8.9174  -13.3122   18.5305 N   0  0  0  0  0  0  0  0  0  0  0  0
    8.7792  -14.0453   20.7886 C   0  0  0  0  0  0  0  0  0  0  0  0
    8.1991  -12.9631   21.0282 O   0  0  0  0  0  0  0  0  0  0  0  0
    5.9849  -16.2190   21.8313 C   0  0  0  0  0  0  0  0  0  0  0  0
    7.0236  -16.2626   22.9192 C   0  0  1  0  0  0  0  0  0  0  0  0
    7.7304  -17.4587   22.8877 O   0  0  0  0  0  0  0  0  0  0  0  0
    7.9123  -15.0529   22.9305 C   0  0  2  0  0  0  0  0  0  0  0  0
    8.6985  -15.0829   21.7168 N   0  0  0  0  0  0  0  0  0  0  0  0
    8.7431  -14.9296   24.1452 C   0  0  0  0  0  0  0  0  0  0  0  0
    9.9311  -15.3425   24.1909 O   0  0  0  0  0  0  0  0  0  0  0  0
    8.4564  -13.2253   27.4677 C   0  0  0  0  0  0  0  0  0  0  0  0
    9.0996  -14.2383   26.5100 C   0  0  2  0  0  0  0  0  0  0  0  0
    8.2779  -14.3417   25.3506 N   0  0  0  0  0  0  0  0  0  0  0  0
    9.2962  -15.4733   27.2544 C   0  0  0  0  0  0  0  0  0  0  0  0
   10.2360  -15.6783   28.2547 O   0  0  0  0  0  0  0  0  0  0  0  0
    8.5528  -16.4499   26.9744 O   0  0  0  0  0  0  0  0  0  0  0  0
  2  1  1  1
  2  3  1  0
  2  4  1  0
  4  5  1  6
  6  4  1  0
  6 12  1  0
  7  6  2  0
  9  8  1  6
 10  9  1  0
 11  9  1  0
 11 12  1  6
 11 13  1  0
 13 14  2  0
 16 15  1  1
 16 18  1  0
 17 13  1  0
 17 16  1  0
 18 19  1  0
 20 18  2  0
M  END
$$$$
