TTA.pdb
     RDKit          3D

 20 19  0  0  1  0  0  0  0  0999 V2000
    9.0847  -12.4549   19.8233 C   0  0  0  0  0  0  0  0  0  0  0  0
    8.3487  -12.7851   18.5593 C   0  0  1  0  0  0  0  0  0  0  0  0
    8.3746  -11.7434   17.6434 O   0  0  0  0  0  0  0  0  0  0  0  0
    8.8434  -14.0947   17.9492 C   0  0  2  0  0  0  0  0  0  0  0  0
    8.0425  -14.4133   16.7815 N   0  0  0  0  0  0  0  0  0  0  0  0
    8.7499  -15.2141   18.9061 C   0  0  0  0  0  0  0  0  0  0  0  0
    7.6426  -15.7756   19.0597 O   0  0  0  0  0  0  0  0  0  0  0  0
    9.7859  -18.4583   18.7685 C   0  0  0  0  0  0  0  0  0  0  0  0
   10.5172  -17.9173   19.9672 C   0  0  1  0  0  0  0  0  0  0  0  0
   11.8511  -17.6671   19.6679 O   0  0  0  0  0  0  0  0  0  0  0  0
    9.8243  -16.7440   20.5969 C   0  0  2  0  0  0  0  0  0  0  0  0
    9.8493  -15.6617   19.6379 N   0  0  0  0  0  0  0  0  0  0  0  0
   10.3760  -16.3551   21.9104 C   0  0  0  0  0  0  0  0  0  0  0  0
   11.3364  -15.5496   22.0234 O   0  0  0  0  0  0  0  0  0  0  0  0
    9.4711  -16.7020   25.5040 C   0  0  0  0  0  0  0  0  0  0  0  0
   10.5160  -16.5764   24.3860 C   0  0  2  0  0  0  0  0  0  0  0  0
    9.8759  -16.8508   23.1430 N   0  0  0  0  0  0  0  0  0  0  0  0
   11.6255  -17.4531   24.7299 C   0  0  0  0  0  0  0  0  0  0  0  0
   12.5519  -17.2335   25.7396 O   0  0  0  0  0  0  0  0  0  0  0  0
   11.7675  -18.5082   24.0580 O   0  0  0  0  0  0  0  0  0  0  0  0
  2  1  1  1
  2  3  1  0
  2  4  1  0
  4  5  1  6
  6  4  1  0
  6 12  1  0
  7  6  2  0
  9  8  1  6
 10  9  1  0
 11  9  1  0
 11 12  1  6
 11 13  1  0
 13 14  2  0
 16 15  1  1
 16 18  1  0
 17 13  1  0
 17 16  1  0
 18 19  1  0
 20 18  2  0
M  END
$$$$
