TTA.pdb
     RDKit          3D

 20 19  0  0  1  0  0  0  0  0999 V2000
    7.9784  -13.8559   18.8189 C   0  0  0  0  0  0  0  0  0  0  0  0
    7.8293  -13.8402   17.3268 C   0  0  1  0  0  0  0  0  0  0  0  0
    8.2189  -12.6316   16.7680 O   0  0  0  0  0  0  0  0  0  0  0  0
    8.5434  -15.0251   16.6804 C   0  0  2  0  0  0  0  0  0  0  0  0
    8.3414  -14.9821   15.2438 N   0  0  0  0  0  0  0  0  0  0  0  0
    8.0371  -16.3140   17.1904 C   0  0  0  0  0  0  0  0  0  0  0  0
    6.9592  -16.7537   16.7325 O   0  0  0  0  0  0  0  0  0  0  0  0
    9.2317  -19.6392   16.8911 C   0  0  0  0  0  0  0  0  0  0  0  0
    9.2106  -19.3648   18.3705 C   0  0  1  0  0  0  0  0  0  0  0  0
   10.4942  -19.1476   18.8568 O   0  0  0  0  0  0  0  0  0  0  0  0
    8.2443  -18.2814   18.7524 C   0  0  2  0  0  0  0  0  0  0  0  0
    8.7183  -17.0507   18.1588 N   0  0  0  0  0  0  0  0  0  0  0  0
    8.0192  -18.1634   20.2072 C   0  0  0  0  0  0  0  0  0  0  0  0
    8.7828  -17.4963   20.9528 O   0  0  0  0  0  0  0  0  0  0  0  0
    5.3725  -19.1351   22.6683 C   0  0  0  0  0  0  0  0  0  0  0  0
    6.8191  -18.7753   22.3006 C   0  0  2  0  0  0  0  0  0  0  0  0
    6.9350  -18.7847   20.8805 N   0  0  0  0  0  0  0  0  0  0  0  0
    7.6892  -19.7018   23.0095 C   0  0  0  0  0  0  0  0  0  0  0  0
    8.5648  -20.6046   22.4229 O   0  0  0  0  0  0  0  0  0  0  0  0
    7.6527  -19.6923   24.2678 O   0  0  0  0  0  0  0  0  0  0  0  0
  2  1  1  1
  2  3  1  0
  2  4  1  0
  4  5  1  6
  6  4  1  0
  6 12  1  0
  7  6  2  0
  9  8  1  6
 10  9  1  0
 11  9  1  0
 11 12  1  1
 11 13  1  0
 13 14  2  0
 16 15  1  6
 16 18  1  0
 17 13  1  0
 17 16  1  0
 18 19  1  0
 20 18  2  0
M  END
$$$$
