TTA.pdb
     RDKit          3D

 20 19  0  0  1  0  0  0  0  0999 V2000
   12.3198  -18.1841   22.6934 C   0  0  0  0  0  0  0  0  0  0  0  0
   12.4941  -17.5193   21.3605 C   0  0  1  0  0  0  0  0  0  0  0  0
   13.1222  -18.3415   20.4363 O   0  0  0  0  0  0  0  0  0  0  0  0
   11.1708  -16.9710   20.8311 C   0  0  2  0  0  0  0  0  0  0  0  0
   11.3669  -16.4569   19.4880 N   0  0  0  0  0  0  0  0  0  0  0  0
   10.6491  -15.8839   21.6817 C   0  0  0  0  0  0  0  0  0  0  0  0
   11.1435  -14.7414   21.5580 O   0  0  0  0  0  0  0  0  0  0  0  0
    7.1315  -14.4953   22.1793 C   0  0  0  0  0  0  0  0  0  0  0  0
    7.6463  -15.0960   23.4593 C   0  0  1  0  0  0  0  0  0  0  0  0
    7.0850  -16.3471   23.6853 O   0  0  0  0  0  0  0  0  0  0  0  0
    9.1449  -15.0980   23.5454 C   0  0  2  0  0  0  0  0  0  0  0  0
    9.6301  -16.0897   22.6112 N   0  0  0  0  0  0  0  0  0  0  0  0
    9.6674  -15.2980   24.9121 C   0  0  0  0  0  0  0  0  0  0  0  0
   10.1703  -16.3896   25.2856 O   0  0  0  0  0  0  0  0  0  0  0  0
   10.0153  -13.2036   28.0186 C   0  0  0  0  0  0  0  0  0  0  0  0
   10.1516  -14.5098   27.2232 C   0  0  2  0  0  0  0  0  0  0  0  0
    9.6473  -14.2880   25.9093 N   0  0  0  0  0  0  0  0  0  0  0  0
    9.4829  -15.5531   27.9864 C   0  0  0  0  0  0  0  0  0  0  0  0
    9.9805  -16.1737   29.1235 O   0  0  0  0  0  0  0  0  0  0  0  0
    8.3511  -15.9347   27.5887 O   0  0  0  0  0  0  0  0  0  0  0  0
  2  1  1  1
  2  3  1  0
  2  4  1  0
  4  5  1  6
  6  4  1  0
  6 12  1  0
  7  6  2  0
  9  8  1  6
 10  9  1  0
 11  9  1  0
 11 12  1  6
 11 13  1  0
 13 14  2  0
 16 15  1  1
 16 18  1  0
 17 13  1  0
 17 16  1  0
 18 19  1  0
 20 18  2  0
M  END
$$$$
