GKA.pdb
     RDKit          3D

 19 18  0  0  1  0  0  0  0  0999 V2000
   29.8468  -21.4285  -11.9933 N   0  0  0  0  0  0  0  0  0  0  0  0
   28.8743  -20.5976  -11.3383 C   0  0  0  0  0  0  0  0  0  0  0  0
   27.4789  -20.9644  -11.7095 C   0  0  0  0  0  0  0  0  0  0  0  0
   27.2210  -21.7948  -12.6269 O   0  0  0  0  0  0  0  0  0  0  0  0
   26.4030  -20.3748  -11.0245 N   0  0  0  0  0  0  0  0  0  0  0  0
   25.0114  -20.6890  -11.2718 C   0  0  1  0  0  0  0  0  0  0  0  0
   24.1992  -20.4522  -10.0315 C   0  0  0  0  0  0  0  0  0  0  0  0
   23.2336  -21.5270   -9.7083 C   0  0  0  0  0  0  0  0  0  0  0  0
   22.4969  -21.2169   -8.4286 C   0  0  0  0  0  0  0  0  0  0  0  0
   21.4584  -22.2266   -8.0512 C   0  0  0  0  0  0  0  0  0  0  0  0
   20.8732  -21.7710   -6.7929 N   0  0  0  0  0  0  0  0  0  0  0  0
   24.5526  -19.9458  -12.4454 C   0  0  0  0  0  0  0  0  0  0  0  0
   24.7423  -18.7088  -12.5189 O   0  0  0  0  0  0  0  0  0  0  0  0
   24.2955  -20.2574  -15.8808 C   0  0  0  0  0  0  0  0  0  0  0  0
   23.4348  -19.7991  -14.6991 C   0  0  2  0  0  0  0  0  0  0  0  0
   23.8834  -20.5451  -13.5479 N   0  0  0  0  0  0  0  0  0  0  0  0
   22.0104  -20.0636  -15.0108 C   0  0  0  0  0  0  0  0  0  0  0  0
   21.2676  -19.3184  -15.9086 O   0  0  0  0  0  0  0  0  0  0  0  0
   21.4474  -21.0201  -14.4246 O   0  0  0  0  0  0  0  0  0  0  0  0
  1  2  1  0
  3  2  1  0
  3  5  1  0
  4  3  2  0
  6  5  1  0
  6 12  1  0
  6  7  1  1
  8  7  1  0
  9  8  1  0
 10  9  1  0
 11 10  1  0
 12 16  1  0
 13 12  2  0
 15 17  1  0
 15 14  1  6
 16 15  1  0
 17 18  1  0
 19 17  2  0
M  END
$$$$
