GKA.pdb
     RDKit          3D

 19 18  0  0  1  0  0  0  0  0999 V2000
   15.2150   -7.3170   -7.5401 N   0  0  0  0  0  0  0  0  0  0  0  0
   15.3642   -6.7637   -8.8580 C   0  0  0  0  0  0  0  0  0  0  0  0
   16.4536   -7.4276   -9.6273 C   0  0  0  0  0  0  0  0  0  0  0  0
   17.5040   -7.8602   -9.0730 O   0  0  0  0  0  0  0  0  0  0  0  0
   16.3222   -7.5849  -11.0175 N   0  0  0  0  0  0  0  0  0  0  0  0
   17.2994   -8.2456  -11.8570 C   0  0  1  0  0  0  0  0  0  0  0  0
   16.6095   -9.1137  -12.8692 C   0  0  0  0  0  0  0  0  0  0  0  0
   17.5187   -9.8682  -13.7613 C   0  0  0  0  0  0  0  0  0  0  0  0
   16.7349  -10.7514  -14.7006 C   0  0  0  0  0  0  0  0  0  0  0  0
   17.5770  -11.5774  -15.6220 C   0  0  0  0  0  0  0  0  0  0  0  0
   16.6576  -12.2422  -16.5419 N   0  0  0  0  0  0  0  0  0  0  0  0
   18.1953   -7.2422  -12.4322 C   0  0  0  0  0  0  0  0  0  0  0  0
   17.7317   -6.1606  -12.8644 O   0  0  0  0  0  0  0  0  0  0  0  0
   21.9086   -6.8565  -12.8135 C   0  0  0  0  0  0  0  0  0  0  0  0
   20.4739   -6.4167  -13.1226 C   0  0  2  0  0  0  0  0  0  0  0  0
   19.6033   -7.4099  -12.5405 N   0  0  0  0  0  0  0  0  0  0  0  0
   20.3054   -6.3241  -14.5919 C   0  0  0  0  0  0  0  0  0  0  0  0
   20.5978   -5.1918  -15.3304 O   0  0  0  0  0  0  0  0  0  0  0  0
   19.8719   -7.3334  -15.1994 O   0  0  0  0  0  0  0  0  0  0  0  0
  1  2  1  0
  3  2  1  0
  3  5  1  0
  4  3  2  0
  6  5  1  0
  6 12  1  0
  6  7  1  6
  8  7  1  0
  9  8  1  0
 10  9  1  0
 11 10  1  0
 12 16  1  0
 13 12  2  0
 15 17  1  0
 15 14  1  6
 16 15  1  0
 17 18  1  0
 19 17  2  0
M  END
$$$$
