GKA.pdb
     RDKit          3D

 19 18  0  0  1  0  0  0  0  0999 V2000
   25.0624  -12.1202  -16.2517 N   0  0  0  0  0  0  0  0  0  0  0  0
   23.9767  -11.7367  -15.3919 C   0  0  0  0  0  0  0  0  0  0  0  0
   23.3319  -10.4676  -15.8312 C   0  0  0  0  0  0  0  0  0  0  0  0
   23.6516   -9.8855  -16.9067 O   0  0  0  0  0  0  0  0  0  0  0  0
   22.3324   -9.8867  -15.0323 N   0  0  0  0  0  0  0  0  0  0  0  0
   21.5249   -8.7545  -15.4355 C   0  0  1  0  0  0  0  0  0  0  0  0
   20.0732   -9.0356  -15.1754 C   0  0  0  0  0  0  0  0  0  0  0  0
   19.4842  -10.0930  -16.0279 C   0  0  0  0  0  0  0  0  0  0  0  0
   18.0248  -10.2925  -15.7007 C   0  0  0  0  0  0  0  0  0  0  0  0
   17.3610  -11.3898  -16.4725 C   0  0  0  0  0  0  0  0  0  0  0  0
   15.9916  -11.4804  -15.9726 N   0  0  0  0  0  0  0  0  0  0  0  0
   22.0325   -7.5466  -14.7847 C   0  0  0  0  0  0  0  0  0  0  0  0
   22.2372   -7.5386  -13.5479 O   0  0  0  0  0  0  0  0  0  0  0  0
   23.0555   -4.1110  -15.9181 C   0  0  0  0  0  0  0  0  0  0  0  0
   22.7987   -5.1462  -14.8183 C   0  0  2  0  0  0  0  0  0  0  0  0
   22.3207   -6.3382  -15.4769 N   0  0  0  0  0  0  0  0  0  0  0  0
   21.8017   -4.6002  -13.8675 C   0  0  0  0  0  0  0  0  0  0  0  0
   20.4443   -4.8536  -13.9456 O   0  0  0  0  0  0  0  0  0  0  0  0
   22.2158   -3.8652  -12.9380 O   0  0  0  0  0  0  0  0  0  0  0  0
  1  2  1  0
  3  2  1  0
  3  5  1  0
  4  3  2  0
  6  5  1  0
  6 12  1  0
  6  7  1  1
  8  7  1  0
  9  8  1  0
 10  9  1  0
 11 10  1  0
 12 16  1  0
 13 12  2  0
 15 17  1  0
 15 14  1  6
 16 15  1  0
 17 18  1  0
 19 17  2  0
M  END
$$$$
