GKA.pdb
     RDKit          3D

 19 18  0  0  1  0  0  0  0  0999 V2000
   24.6326   -9.1732  -21.0024 N   0  0  0  0  0  0  0  0  0  0  0  0
   24.3984   -9.4841  -19.6191 C   0  0  0  0  0  0  0  0  0  0  0  0
   23.3242   -8.6391  -19.0261 C   0  0  0  0  0  0  0  0  0  0  0  0
   22.9429   -7.5592  -19.5610 O   0  0  0  0  0  0  0  0  0  0  0  0
   22.7051   -9.0445  -17.8316 N   0  0  0  0  0  0  0  0  0  0  0  0
   21.6506   -8.3046  -17.1705 C   0  0  1  0  0  0  0  0  0  0  0  0
   20.5647   -9.2399  -16.7229 C   0  0  0  0  0  0  0  0  0  0  0  0
   19.4250   -8.5853  -16.0414 C   0  0  0  0  0  0  0  0  0  0  0  0
   18.3726   -9.5993  -15.6659 C   0  0  0  0  0  0  0  0  0  0  0  0
   17.1984   -9.0310  -14.9319 C   0  0  0  0  0  0  0  0  0  0  0  0
   16.3348  -10.1588  -14.5921 N   0  0  0  0  0  0  0  0  0  0  0  0
   22.2309   -7.4955  -16.0987 C   0  0  0  0  0  0  0  0  0  0  0  0
   22.9734   -8.0290  -15.2409 O   0  0  0  0  0  0  0  0  0  0  0  0
   22.4897   -3.8574  -15.2921 C   0  0  0  0  0  0  0  0  0  0  0  0
   22.5321   -5.3250  -14.8544 C   0  0  2  0  0  0  0  0  0  0  0  0
   22.0063   -6.0988  -15.9535 N   0  0  0  0  0  0  0  0  0  0  0  0
   21.7194   -5.4837  -13.6254 C   0  0  0  0  0  0  0  0  0  0  0  0
   20.5070   -6.1480  -13.5848 O   0  0  0  0  0  0  0  0  0  0  0  0
   22.1592   -4.9854  -12.5606 O   0  0  0  0  0  0  0  0  0  0  0  0
  1  2  1  0
  3  2  1  0
  3  5  1  0
  4  3  2  0
  6  5  1  0
  6 12  1  0
  6  7  1  1
  8  7  1  0
  9  8  1  0
 10  9  1  0
 11 10  1  0
 12 16  1  0
 13 12  2  0
 15 17  1  0
 15 14  1  6
 16 15  1  0
 17 18  1  0
 19 17  2  0
M  END
$$$$
