GKA.pdb
     RDKit          3D

 19 18  0  0  1  0  0  0  0  0999 V2000
   16.9679  -14.7502  -15.7189 N   0  0  0  0  0  0  0  0  0  0  0  0
   16.7641  -13.6574  -14.8082 C   0  0  0  0  0  0  0  0  0  0  0  0
   17.0980  -12.3422  -15.4233 C   0  0  0  0  0  0  0  0  0  0  0  0
   17.5578  -12.2435  -16.5965 O   0  0  0  0  0  0  0  0  0  0  0  0
   16.9000  -11.1630  -14.6851 N   0  0  0  0  0  0  0  0  0  0  0  0
   17.2065   -9.8357  -15.1756 C   0  0  1  0  0  0  0  0  0  0  0  0
   16.0861   -8.8915  -14.8478 C   0  0  0  0  0  0  0  0  0  0  0  0
   14.8383   -9.1218  -15.6105 C   0  0  0  0  0  0  0  0  0  0  0  0
   13.7499   -8.1833  -15.1511 C   0  0  0  0  0  0  0  0  0  0  0  0
   12.4035   -8.4580  -15.7445 C   0  0  0  0  0  0  0  0  0  0  0  0
   11.4610   -7.5728  -15.0651 N   0  0  0  0  0  0  0  0  0  0  0  0
   18.5132   -9.4240  -14.6624 C   0  0  0  0  0  0  0  0  0  0  0  0
   18.7369   -9.4405  -13.4290 O   0  0  0  0  0  0  0  0  0  0  0  0
   21.8680   -8.7070  -16.1268 C   0  0  0  0  0  0  0  0  0  0  0  0
   20.8711   -8.5897  -14.9695 C   0  0  2  0  0  0  0  0  0  0  0  0
   19.5859   -8.9911  -15.4895 N   0  0  0  0  0  0  0  0  0  0  0  0
   20.8604   -7.1895  -14.4842 C   0  0  0  0  0  0  0  0  0  0  0  0
   21.7682   -6.6843  -13.5712 O   0  0  0  0  0  0  0  0  0  0  0  0
   19.9748   -6.4192  -14.9292 O   0  0  0  0  0  0  0  0  0  0  0  0
  1  2  1  0
  3  2  1  0
  3  5  1  0
  4  3  2  0
  6  5  1  0
  6 12  1  0
  6  7  1  1
  8  7  1  0
  9  8  1  0
 10  9  1  0
 11 10  1  0
 12 16  1  0
 13 12  2  0
 15 17  1  0
 15 14  1  6
 16 15  1  0
 17 18  1  0
 19 17  2  0
M  END
$$$$
