GKA.pdb
     RDKit          3D

 19 18  0  0  1  0  0  0  0  0999 V2000
   15.0157  -12.0512  -21.0724 N   0  0  0  0  0  0  0  0  0  0  0  0
   15.3432  -10.6622  -20.9028 C   0  0  0  0  0  0  0  0  0  0  0  0
   16.3806  -10.4523  -19.8544 C   0  0  0  0  0  0  0  0  0  0  0  0
   16.2505  -10.8966  -18.6782 O   0  0  0  0  0  0  0  0  0  0  0  0
   17.5486   -9.7378  -20.1700 N   0  0  0  0  0  0  0  0  0  0  0  0
   18.5967   -9.4320  -19.2190 C   0  0  1  0  0  0  0  0  0  0  0  0
   19.9382   -9.7751  -19.7995 C   0  0  0  0  0  0  0  0  0  0  0  0
   20.1549  -11.2182  -20.0489 C   0  0  0  0  0  0  0  0  0  0  0  0
   20.8331  -11.8689  -18.8685 C   0  0  0  0  0  0  0  0  0  0  0  0
   21.0731  -13.3381  -19.0242 C   0  0  0  0  0  0  0  0  0  0  0  0
   21.6097  -13.8092  -17.7501 N   0  0  0  0  0  0  0  0  0  0  0  0
   18.4630   -8.0404  -18.7880 C   0  0  0  0  0  0  0  0  0  0  0  0
   18.4874   -7.1158  -19.6343 O   0  0  0  0  0  0  0  0  0  0  0  0
   16.7999   -6.1198  -16.3772 C   0  0  0  0  0  0  0  0  0  0  0  0
   18.1832   -6.2677  -17.0189 C   0  0  2  0  0  0  0  0  0  0  0  0
   18.3016   -7.6458  -17.4313 N   0  0  0  0  0  0  0  0  0  0  0  0
   19.2168   -5.8956  -16.0244 C   0  0  0  0  0  0  0  0  0  0  0  0
   19.4467   -4.5990  -15.6015 O   0  0  0  0  0  0  0  0  0  0  0  0
   19.9235   -6.8124  -15.5388 O   0  0  0  0  0  0  0  0  0  0  0  0
  1  2  1  0
  3  2  1  0
  3  5  1  0
  4  3  2  0
  6  5  1  0
  6 12  1  0
  6  7  1  6
  8  7  1  0
  9  8  1  0
 10  9  1  0
 11 10  1  0
 12 16  1  0
 13 12  2  0
 15 17  1  0
 15 14  1  1
 16 15  1  0
 17 18  1  0
 19 17  2  0
M  END
$$$$
