GKA.pdb
     RDKit          3D

 19 18  0  0  1  0  0  0  0  0999 V2000
   29.3168  -25.2089  -16.7230 N   0  0  0  0  0  0  0  0  0  0  0  0
   27.9359  -24.9786  -16.3989 C   0  0  0  0  0  0  0  0  0  0  0  0
   27.2096  -24.2784  -17.4951 C   0  0  0  0  0  0  0  0  0  0  0  0
   27.7843  -23.9146  -18.5605 O   0  0  0  0  0  0  0  0  0  0  0  0
   25.8383  -24.0064  -17.3531 N   0  0  0  0  0  0  0  0  0  0  0  0
   24.9976  -23.4907  -18.4131 C   0  0  1  0  0  0  0  0  0  0  0  0
   23.7191  -24.2744  -18.4872 C   0  0  0  0  0  0  0  0  0  0  0  0
   22.7780  -23.8272  -19.5388 C   0  0  0  0  0  0  0  0  0  0  0  0
   21.5434  -24.6944  -19.5555 C   0  0  0  0  0  0  0  0  0  0  0  0
   20.5357  -24.3180  -20.5964 C   0  0  0  0  0  0  0  0  0  0  0  0
   19.4534  -25.2940  -20.4997 N   0  0  0  0  0  0  0  0  0  0  0  0
   24.8139  -22.0517  -18.2232 C   0  0  0  0  0  0  0  0  0  0  0  0
   24.5389  -21.5984  -17.0872 O   0  0  0  0  0  0  0  0  0  0  0  0
   25.7766  -18.9978  -20.0271 C   0  0  0  0  0  0  0  0  0  0  0  0
   24.8020  -19.6740  -19.0576 C   0  0  2  0  0  0  0  0  0  0  0  0
   24.9286  -21.0960  -19.2699 N   0  0  0  0  0  0  0  0  0  0  0  0
   23.4299  -19.1909  -19.3403 C   0  0  0  0  0  0  0  0  0  0  0  0
   22.9192  -17.9989  -18.8595 O   0  0  0  0  0  0  0  0  0  0  0  0
   22.6900  -19.9071  -20.0582 O   0  0  0  0  0  0  0  0  0  0  0  0
  1  2  1  0
  3  2  1  0
  3  5  1  0
  4  3  2  0
  6  5  1  0
  6 12  1  0
  6  7  1  1
  8  7  1  0
  9  8  1  0
 10  9  1  0
 11 10  1  0
 12 16  1  0
 13 12  2  0
 15 17  1  0
 15 14  1  6
 16 15  1  0
 17 18  1  0
 19 17  2  0
M  END
$$$$
