GKA.pdb
     RDKit          3D

 19 18  0  0  1  0  0  0  0  0999 V2000
   28.2735  -21.9587  -16.3774 N   0  0  0  0  0  0  0  0  0  0  0  0
   27.1895  -21.9053  -15.4354 C   0  0  0  0  0  0  0  0  0  0  0  0
   26.1546  -20.9067  -15.8240 C   0  0  0  0  0  0  0  0  0  0  0  0
   26.0051  -20.5198  -17.0181 O   0  0  0  0  0  0  0  0  0  0  0  0
   25.3087  -20.3681  -14.8397 N   0  0  0  0  0  0  0  0  0  0  0  0
   24.2234  -19.4499  -15.1140 C   0  0  1  0  0  0  0  0  0  0  0  0
   22.9751  -19.8994  -14.4112 C   0  0  0  0  0  0  0  0  0  0  0  0
   22.3630  -21.1300  -14.9614 C   0  0  0  0  0  0  0  0  0  0  0  0
   21.0628  -21.4397  -14.2612 C   0  0  0  0  0  0  0  0  0  0  0  0
   20.3561  -22.6547  -14.7756 C   0  0  0  0  0  0  0  0  0  0  0  0
   19.1645  -22.8243  -13.9480 N   0  0  0  0  0  0  0  0  0  0  0  0
   24.6485  -18.0904  -14.7801 C   0  0  0  0  0  0  0  0  0  0  0  0
   24.9587  -17.8016  -13.6002 O   0  0  0  0  0  0  0  0  0  0  0  0
   26.5836  -15.7528  -14.9257 C   0  0  0  0  0  0  0  0  0  0  0  0
   25.1215  -15.6888  -15.3786 C   0  0  2  0  0  0  0  0  0  0  0  0
   24.7387  -17.0355  -15.7294 N   0  0  0  0  0  0  0  0  0  0  0  0
   25.0154  -14.7639  -16.5316 C   0  0  0  0  0  0  0  0  0  0  0  0
   25.1863  -13.3946  -16.4383 O   0  0  0  0  0  0  0  0  0  0  0  0
   24.7553  -15.2542  -17.6575 O   0  0  0  0  0  0  0  0  0  0  0  0
  1  2  1  0
  3  2  1  0
  3  5  1  0
  4  3  2  0
  6  5  1  0
  6 12  1  0
  6  7  1  1
  8  7  1  0
  9  8  1  0
 10  9  1  0
 11 10  1  0
 12 16  1  0
 13 12  2  0
 15 17  1  0
 15 14  1  6
 16 15  1  0
 17 18  1  0
 19 17  2  0
M  END
$$$$
