GKA.pdb
     RDKit          3D

 19 18  0  0  1  0  0  0  0  0999 V2000
   15.3501  -10.4618  -14.8611 N   0  0  0  0  0  0  0  0  0  0  0  0
   15.9202   -9.2566  -15.3973 C   0  0  0  0  0  0  0  0  0  0  0  0
   17.3780   -9.1474  -15.1107 C   0  0  0  0  0  0  0  0  0  0  0  0
   17.8769   -9.5041  -14.0054 O   0  0  0  0  0  0  0  0  0  0  0  0
   18.2397   -8.6319  -16.0937 N   0  0  0  0  0  0  0  0  0  0  0  0
   19.6641   -8.4473  -15.9107 C   0  0  1  0  0  0  0  0  0  0  0  0
   20.4019   -8.8477  -17.1555 C   0  0  0  0  0  0  0  0  0  0  0  0
   21.8736   -8.7089  -17.0754 C   0  0  0  0  0  0  0  0  0  0  0  0
   22.5217   -9.1299  -18.3713 C   0  0  0  0  0  0  0  0  0  0  0  0
   23.9923   -8.8603  -18.4450 C   0  0  0  0  0  0  0  0  0  0  0  0
   24.3892   -9.0951  -19.8309 N   0  0  0  0  0  0  0  0  0  0  0  0
   19.9181   -7.0746  -15.4730 C   0  0  0  0  0  0  0  0  0  0  0  0
   19.2987   -6.1220  -16.0027 O   0  0  0  0  0  0  0  0  0  0  0  0
   21.8770   -5.4330  -12.7353 C   0  0  0  0  0  0  0  0  0  0  0  0
   21.1307   -5.3670  -14.0717 C   0  0  2  0  0  0  0  0  0  0  0  0
   20.8490   -6.7297  -14.4548 N   0  0  0  0  0  0  0  0  0  0  0  0
   21.9855   -4.6767  -15.0661 C   0  0  0  0  0  0  0  0  0  0  0  0
   22.0550   -3.3017  -15.1989 O   0  0  0  0  0  0  0  0  0  0  0  0
   22.6863   -5.3831  -15.8312 O   0  0  0  0  0  0  0  0  0  0  0  0
  1  2  1  0
  3  2  1  0
  3  5  1  0
  4  3  2  0
  6  5  1  0
  6 12  1  0
  6  7  1  6
  8  7  1  0
  9  8  1  0
 10  9  1  0
 11 10  1  0
 12 16  1  0
 13 12  2  0
 15 17  1  0
 15 14  1  1
 16 15  1  0
 17 18  1  0
 19 17  2  0
M  END
$$$$
