GKA.pdb
     RDKit          3D

 19 18  0  0  1  0  0  0  0  0999 V2000
   23.5753  -30.1312  -17.7229 N   0  0  0  0  0  0  0  0  0  0  0  0
   24.7603  -30.0863  -16.9111 C   0  0  0  0  0  0  0  0  0  0  0  0
   25.2303  -31.4463  -16.5254 C   0  0  0  0  0  0  0  0  0  0  0  0
   24.5984  -32.4938  -16.8432 O   0  0  0  0  0  0  0  0  0  0  0  0
   26.4153  -31.5840  -15.7828 N   0  0  0  0  0  0  0  0  0  0  0  0
   26.9535  -32.8525  -15.3382 C   0  0  1  0  0  0  0  0  0  0  0  0
   28.4350  -32.7388  -15.1224 C   0  0  0  0  0  0  0  0  0  0  0  0
   29.2440  -32.7419  -16.3623 C   0  0  0  0  0  0  0  0  0  0  0  0
   30.5107  -31.9436  -16.1762 C   0  0  0  0  0  0  0  0  0  0  0  0
   31.3615  -31.8364  -17.4030 C   0  0  0  0  0  0  0  0  0  0  0  0
   32.4635  -30.9384  -17.0677 N   0  0  0  0  0  0  0  0  0  0  0  0
   26.2054  -33.3072  -14.1661 C   0  0  0  0  0  0  0  0  0  0  0  0
   25.8043  -32.4772  -13.3165 O   0  0  0  0  0  0  0  0  0  0  0  0
   23.7385  -34.4112  -12.9088 C   0  0  0  0  0  0  0  0  0  0  0  0
   25.1014  -35.0989  -12.7800 C   0  0  2  0  0  0  0  0  0  0  0  0
   25.8886  -34.6699  -13.9112 N   0  0  0  0  0  0  0  0  0  0  0  0
   24.9000  -36.5670  -12.7692 C   0  0  0  0  0  0  0  0  0  0  0  0
   24.3314  -37.2582  -11.7148 O   0  0  0  0  0  0  0  0  0  0  0  0
   25.2678  -37.2189  -13.7768 O   0  0  0  0  0  0  0  0  0  0  0  0
  1  2  1  0
  3  2  1  0
  3  5  1  0
  4  3  2  0
  6  5  1  0
  6 12  1  0
  6  7  1  1
  8  7  1  0
  9  8  1  0
 10  9  1  0
 11 10  1  0
 12 16  1  0
 13 12  2  0
 15 17  1  0
 15 14  1  6
 16 15  1  0
 17 18  1  0
 19 17  2  0
M  END
$$$$
