GKA.pdb
     RDKit          3D

 19 18  0  0  1  0  0  0  0  0999 V2000
   27.2859  -20.8166  -14.5862 N   0  0  0  0  0  0  0  0  0  0  0  0
   26.0114  -20.1676  -14.4457 C   0  0  0  0  0  0  0  0  0  0  0  0
   25.8572  -19.0207  -15.3840 C   0  0  0  0  0  0  0  0  0  0  0  0
   26.7904  -18.6449  -16.1492 O   0  0  0  0  0  0  0  0  0  0  0  0
   24.6378  -18.3238  -15.4303 N   0  0  0  0  0  0  0  0  0  0  0  0
   24.3440  -17.2608  -16.3683 C   0  0  1  0  0  0  0  0  0  0  0  0
   23.2422  -17.6808  -17.2977 C   0  0  0  0  0  0  0  0  0  0  0  0
   23.6665  -18.5773  -18.3969 C   0  0  0  0  0  0  0  0  0  0  0  0
   22.5099  -18.8786  -19.3178 C   0  0  0  0  0  0  0  0  0  0  0  0
   22.8293  -19.8402  -20.4195 C   0  0  0  0  0  0  0  0  0  0  0  0
   21.5929  -20.0360  -21.1721 N   0  0  0  0  0  0  0  0  0  0  0  0
   24.0730  -16.0284  -15.6280 C   0  0  0  0  0  0  0  0  0  0  0  0
   23.2073  -16.0181  -14.7213 O   0  0  0  0  0  0  0  0  0  0  0  0
   25.6547  -12.6459  -15.3869 C   0  0  0  0  0  0  0  0  0  0  0  0
   24.4837  -13.5957  -15.1149 C   0  0  2  0  0  0  0  0  0  0  0  0
   24.7433  -14.7978  -15.8703 N   0  0  0  0  0  0  0  0  0  0  0  0
   23.2238  -12.9381  -15.5347 C   0  0  0  0  0  0  0  0  0  0  0  0
   22.5794  -11.9646  -14.7931 O   0  0  0  0  0  0  0  0  0  0  0  0
   22.7138  -13.2866  -16.6275 O   0  0  0  0  0  0  0  0  0  0  0  0
  1  2  1  0
  3  2  1  0
  3  5  1  0
  4  3  2  0
  6  5  1  0
  6 12  1  0
  6  7  1  1
  8  7  1  0
  9  8  1  0
 10  9  1  0
 11 10  1  0
 12 16  1  0
 13 12  2  0
 15 17  1  0
 15 14  1  6
 16 15  1  0
 17 18  1  0
 19 17  2  0
M  END
$$$$
