GKA.pdb
     RDKit          3D

 19 18  0  0  1  0  0  0  0  0999 V2000
   16.0887   -7.9886   -8.8287 N   0  0  0  0  0  0  0  0  0  0  0  0
   15.9454   -7.6862  -10.2262 C   0  0  0  0  0  0  0  0  0  0  0  0
   17.2347   -7.8048  -10.9630 C   0  0  0  0  0  0  0  0  0  0  0  0
   18.3495   -7.8514  -10.3689 O   0  0  0  0  0  0  0  0  0  0  0  0
   17.2262   -7.8681  -12.3668 N   0  0  0  0  0  0  0  0  0  0  0  0
   18.4127   -8.0296  -13.1807 C   0  0  1  0  0  0  0  0  0  0  0  0
   18.0843   -8.8002  -14.4268 C   0  0  0  0  0  0  0  0  0  0  0  0
   17.6139  -10.1844  -14.1936 C   0  0  0  0  0  0  0  0  0  0  0  0
   17.3213  -10.8772  -15.5017 C   0  0  0  0  0  0  0  0  0  0  0  0
   16.8161  -12.2791  -15.3611 C   0  0  0  0  0  0  0  0  0  0  0  0
   16.5536  -12.7643  -16.7135 N   0  0  0  0  0  0  0  0  0  0  0  0
   19.0117   -6.7170  -13.4223 C   0  0  0  0  0  0  0  0  0  0  0  0
   18.2890   -5.7492  -13.7580 O   0  0  0  0  0  0  0  0  0  0  0  0
   22.3088   -5.0903  -12.8348 C   0  0  0  0  0  0  0  0  0  0  0  0
   20.9903   -5.1679  -13.6111 C   0  0  2  0  0  0  0  0  0  0  0  0
   20.4030   -6.4491  -13.2999 N   0  0  0  0  0  0  0  0  0  0  0  0
   21.2754   -5.0253  -15.0583 C   0  0  0  0  0  0  0  0  0  0  0  0
   21.0843   -6.0352  -15.9838 O   0  0  0  0  0  0  0  0  0  0  0  0
   21.7160   -3.9227  -15.4655 O   0  0  0  0  0  0  0  0  0  0  0  0
  1  2  1  0
  3  2  1  0
  3  5  1  0
  4  3  2  0
  6  5  1  0
  6 12  1  0
  6  7  1  6
  8  7  1  0
  9  8  1  0
 10  9  1  0
 11 10  1  0
 12 16  1  0
 13 12  2  0
 15 17  1  0
 15 14  1  1
 16 15  1  0
 17 18  1  0
 19 17  2  0
M  END
$$$$
