QAR.pdb
     RDKit          3D

 26 25  0  0  1  0  0  0  0  0999 V2000
   29.2169  -16.5636  -18.2531 N   0  0  0  0  0  0  0  0  0  0  0  0
   28.4158  -17.7280  -18.1748 C   0  0  0  0  0  0  0  0  0  0  0  0
   28.5815  -18.6385  -19.0008 O   0  0  0  0  0  0  0  0  0  0  0  0
   27.4031  -17.8354  -17.1177 C   0  0  0  0  0  0  0  0  0  0  0  0
   27.2973  -16.6393  -16.2131 C   0  0  0  0  0  0  0  0  0  0  0  0
   26.5358  -15.5306  -16.8514 C   0  0  2  0  0  0  0  0  0  0  0  0
   26.9272  -14.3007  -16.1537 N   0  0  0  0  0  0  0  0  0  0  0  0
   25.0667  -15.7248  -16.7923 C   0  0  0  0  0  0  0  0  0  0  0  0
   24.4978  -15.9138  -15.6654 O   0  0  0  0  0  0  0  0  0  0  0  0
   22.0780  -15.6683  -19.1362 C   0  0  0  0  0  0  0  0  0  0  0  0
   22.7658  -15.9350  -17.8130 C   0  0  2  0  0  0  0  0  0  0  0  0
   24.2086  -15.7178  -17.9261 N   0  0  0  0  0  0  0  0  0  0  0  0
   22.4567  -17.3087  -17.3948 C   0  0  0  0  0  0  0  0  0  0  0  0
   23.2560  -18.2468  -17.7357 O   0  0  0  0  0  0  0  0  0  0  0  0
   18.3037  -21.2355  -11.6396 N   0  0  0  0  0  0  0  0  0  0  0  0
   19.2399  -22.2758  -11.8088 C   0  0  0  0  0  0  0  0  0  0  0  0
   18.9259  -23.5048  -11.5075 N   0  0  0  0  0  0  0  0  0  0  0  0
   20.5570  -22.0440  -12.3099 N   0  0  0  0  0  0  0  0  0  0  0  0
   20.9902  -20.7521  -12.7611 C   0  0  0  0  0  0  0  0  0  0  0  0
   20.8211  -20.5826  -14.2574 C   0  0  0  0  0  0  0  0  0  0  0  0
   21.2475  -19.2373  -14.7521 C   0  0  0  0  0  0  0  0  0  0  0  0
   21.1116  -19.1065  -16.2259 C   0  0  2  0  0  0  0  0  0  0  0  0
   21.3353  -17.6981  -16.6357 N   0  0  0  0  0  0  0  0  0  0  0  0
   19.7504  -19.4170  -16.6695 C   0  0  0  0  0  0  0  0  0  0  0  0
   18.8251  -18.4291  -16.8901 O   0  0  0  0  0  0  0  0  0  0  0  0
   19.3922  -20.5988  -16.8582 O   0  0  0  0  0  0  0  0  0  0  0  0
  2  1  1  0
  2  3  2  0
  4  5  1  0
  4  2  1  0
  6  7  1  1
  6  5  1  0
  8  6  1  0
  9  8  2  0
 11 10  1  6
 11 12  1  0
 12  8  1  0
 13 11  1  0
 13 23  1  0
 14 13  2  0
 16 15  1  0
 17 16  2  0
 18 16  1  0
 19 18  1  0
 20 21  1  0
 20 19  1  0
 22 21  1  1
 22 23  1  0
 22 24  1  0
 24 25  1  0
 26 24  2  0
M  END
$$$$
