QAR.pdb
     RDKit          3D

 26 25  0  0  1  0  0  0  0  0999 V2000
   17.2465   -9.3748  -17.7489 N   0  0  0  0  0  0  0  0  0  0  0  0
   18.4911   -9.7952  -18.2761 C   0  0  0  0  0  0  0  0  0  0  0  0
   18.5460  -10.2294  -19.4368 O   0  0  0  0  0  0  0  0  0  0  0  0
   19.6935   -9.7104  -17.4383 C   0  0  0  0  0  0  0  0  0  0  0  0
   19.4757   -9.1305  -16.0685 C   0  0  0  0  0  0  0  0  0  0  0  0
   20.7475   -9.0374  -15.3004 C   0  0  2  0  0  0  0  0  0  0  0  0
   21.1329  -10.4126  -14.9643 N   0  0  0  0  0  0  0  0  0  0  0  0
   20.6278   -8.2098  -14.0756 C   0  0  0  0  0  0  0  0  0  0  0  0
   20.0375   -8.6823  -13.0472 O   0  0  0  0  0  0  0  0  0  0  0  0
   21.6544   -4.7613  -12.8438 C   0  0  0  0  0  0  0  0  0  0  0  0
   20.9571   -6.1010  -12.7247 C   0  0  2  0  0  0  0  0  0  0  0  0
   21.1334   -6.8871  -13.9464 N   0  0  0  0  0  0  0  0  0  0  0  0
   19.5370   -5.8639  -12.4343 C   0  0  0  0  0  0  0  0  0  0  0  0
   18.7369   -5.6662  -13.4120 O   0  0  0  0  0  0  0  0  0  0  0  0
   13.2851   -9.6032   -7.4606 N   0  0  0  0  0  0  0  0  0  0  0  0
   12.7337   -8.4149   -7.9813 C   0  0  0  0  0  0  0  0  0  0  0  0
   11.4709   -8.1398   -7.8093 N   0  0  0  0  0  0  0  0  0  0  0  0
   13.5135   -7.4666   -8.7108 N   0  0  0  0  0  0  0  0  0  0  0  0
   14.9191   -7.6440   -8.9413 C   0  0  0  0  0  0  0  0  0  0  0  0
   15.5087   -6.5216   -9.7714 C   0  0  0  0  0  0  0  0  0  0  0  0
   16.9694   -6.6916  -10.0433 C   0  0  0  0  0  0  0  0  0  0  0  0
   17.5046   -5.6366  -10.9423 C   0  0  2  0  0  0  0  0  0  0  0  0
   18.9608   -5.8331  -11.1487 N   0  0  0  0  0  0  0  0  0  0  0  0
   17.3849   -4.3064  -10.3405 C   0  0  0  0  0  0  0  0  0  0  0  0
   16.1839   -3.6460  -10.2932 O   0  0  0  0  0  0  0  0  0  0  0  0
   18.3812   -3.7323   -9.8522 O   0  0  0  0  0  0  0  0  0  0  0  0
  2  1  1  0
  2  3  2  0
  4  5  1  0
  4  2  1  0
  6  7  1  1
  6  5  1  0
  8  6  1  0
  9  8  2  0
 11 10  1  6
 11 12  1  0
 12  8  1  0
 13 11  1  0
 13 23  1  0
 14 13  2  0
 16 15  1  0
 17 16  2  0
 18 16  1  0
 19 18  1  0
 20 21  1  0
 20 19  1  0
 22 21  1  1
 22 23  1  0
 22 24  1  0
 24 25  1  0
 26 24  2  0
M  END
$$$$
