QAR.pdb
     RDKit          3D

 26 25  0  0  1  0  0  0  0  0999 V2000
   20.2816  -26.1916  -12.4213 N   0  0  0  0  0  0  0  0  0  0  0  0
   19.0930  -26.1136  -11.6567 C   0  0  0  0  0  0  0  0  0  0  0  0
   18.8239  -27.0204  -10.8542 O   0  0  0  0  0  0  0  0  0  0  0  0
   18.2006  -24.9608  -11.8286 C   0  0  0  0  0  0  0  0  0  0  0  0
   18.6488  -23.9555  -12.8525 C   0  0  0  0  0  0  0  0  0  0  0  0
   19.5330  -22.9171  -12.2557 C   0  0  2  0  0  0  0  0  0  0  0  0
   18.6903  -22.1174  -11.3595 N   0  0  0  0  0  0  0  0  0  0  0  0
   20.1865  -22.0563  -13.2713 C   0  0  0  0  0  0  0  0  0  0  0  0
   20.6730  -22.5813  -14.3281 O   0  0  0  0  0  0  0  0  0  0  0  0
   20.9188  -18.3693  -13.8486 C   0  0  0  0  0  0  0  0  0  0  0  0
   20.9858  -19.8436  -14.1909 C   0  0  2  0  0  0  0  0  0  0  0  0
   20.3211  -20.6449  -13.1624 N   0  0  0  0  0  0  0  0  0  0  0  0
   22.3962  -20.2234  -14.3449 C   0  0  0  0  0  0  0  0  0  0  0  0
   23.0909  -20.4378  -13.2929 O   0  0  0  0  0  0  0  0  0  0  0  0
   25.5824  -26.7495  -17.2521 N   0  0  0  0  0  0  0  0  0  0  0  0
   26.7506  -26.1736  -16.7127 C   0  0  0  0  0  0  0  0  0  0  0  0
   27.6595  -26.9215  -16.1520 N   0  0  0  0  0  0  0  0  0  0  0  0
   26.9968  -24.7674  -16.7509 N   0  0  0  0  0  0  0  0  0  0  0  0
   26.0932  -23.8469  -17.3806 C   0  0  0  0  0  0  0  0  0  0  0  0
   25.9824  -22.5422  -16.6180 C   0  0  0  0  0  0  0  0  0  0  0  0
   24.5692  -22.1251  -16.3620 C   0  0  0  0  0  0  0  0  0  0  0  0
   24.4830  -20.8267  -15.6446 C   0  0  2  0  0  0  0  0  0  0  0  0
   23.0710  -20.3768  -15.5724 N   0  0  0  0  0  0  0  0  0  0  0  0
   25.1810  -19.7638  -16.3720 C   0  0  0  0  0  0  0  0  0  0  0  0
   26.5500  -19.6837  -16.3858 O   0  0  0  0  0  0  0  0  0  0  0  0
   24.5435  -18.8938  -17.0023 O   0  0  0  0  0  0  0  0  0  0  0  0
  2  1  1  0
  2  3  2  0
  4  5  1  0
  4  2  1  0
  6  7  1  1
  6  5  1  0
  8  6  1  0
  9  8  2  0
 11 10  1  1
 11 12  1  0
 12  8  1  0
 13 11  1  0
 13 23  1  0
 14 13  2  0
 16 15  1  0
 17 16  2  0
 18 16  1  0
 19 18  1  0
 20 21  1  0
 20 19  1  0
 22 21  1  6
 22 23  1  0
 22 24  1  0
 24 25  1  0
 26 24  2  0
M  END
$$$$
