QAR.pdb
     RDKit          3D

 26 25  0  0  1  0  0  0  0  0999 V2000
   20.0871  -16.0606  -16.1291 N   0  0  0  0  0  0  0  0  0  0  0  0
   18.7310  -15.6556  -16.1065 C   0  0  0  0  0  0  0  0  0  0  0  0
   17.8621  -16.4561  -15.7287 O   0  0  0  0  0  0  0  0  0  0  0  0
   18.3785  -14.2955  -16.5318 C   0  0  0  0  0  0  0  0  0  0  0  0
   17.5075  -13.5338  -15.5720 C   0  0  0  0  0  0  0  0  0  0  0  0
   17.2681  -12.1385  -16.0328 C   0  0  2  0  0  0  0  0  0  0  0  0
   17.8685  -12.0316  -17.3672 N   0  0  0  0  0  0  0  0  0  0  0  0
   17.8346  -11.1186  -15.1172 C   0  0  0  0  0  0  0  0  0  0  0  0
   17.4814  -11.1025  -13.8908 O   0  0  0  0  0  0  0  0  0  0  0  0
   20.3357   -8.2559  -15.2265 C   0  0  0  0  0  0  0  0  0  0  0  0
   19.3093   -9.1461  -14.5563 C   0  0  2  0  0  0  0  0  0  0  0  0
   18.7715  -10.1218  -15.5052 N   0  0  0  0  0  0  0  0  0  0  0  0
   18.2505   -8.2970  -13.9949 C   0  0  0  0  0  0  0  0  0  0  0  0
   17.2603   -7.9805  -14.7396 O   0  0  0  0  0  0  0  0  0  0  0  0
   14.4534   -6.0405   -5.8984 N   0  0  0  0  0  0  0  0  0  0  0  0
   13.7131   -5.8927   -7.0890 C   0  0  0  0  0  0  0  0  0  0  0  0
   12.4103   -5.9410   -7.0690 N   0  0  0  0  0  0  0  0  0  0  0  0
   14.3380   -5.6858   -8.3564 N   0  0  0  0  0  0  0  0  0  0  0  0
   15.4528   -6.4736   -8.8001 C   0  0  0  0  0  0  0  0  0  0  0  0
   15.8092   -6.1964  -10.2466 C   0  0  0  0  0  0  0  0  0  0  0  0
   16.9016   -7.0761  -10.7655 C   0  0  0  0  0  0  0  0  0  0  0  0
   17.1556   -6.8687  -12.2147 C   0  0  2  0  0  0  0  0  0  0  0  0
   18.2236   -7.7867  -12.6817 N   0  0  0  0  0  0  0  0  0  0  0  0
   17.6702   -5.5236  -12.4828 C   0  0  0  0  0  0  0  0  0  0  0  0
   19.0088   -5.2921  -12.6709 O   0  0  0  0  0  0  0  0  0  0  0  0
   16.8984   -4.5433  -12.5457 O   0  0  0  0  0  0  0  0  0  0  0  0
  2  1  1  0
  2  3  2  0
  4  5  1  0
  4  2  1  0
  6  7  1  6
  6  5  1  0
  8  6  1  0
  9  8  2  0
 11 10  1  6
 11 12  1  0
 12  8  1  0
 13 11  1  0
 13 23  1  0
 14 13  2  0
 16 15  1  0
 17 16  2  0
 18 16  1  0
 19 18  1  0
 20 21  1  0
 20 19  1  0
 22 21  1  1
 22 23  1  0
 22 24  1  0
 24 25  1  0
 26 24  2  0
M  END
$$$$
