QAR.pdb
     RDKit          3D

 26 25  0  0  1  0  0  0  0  0999 V2000
   15.5097  -26.5389    0.4496 N   0  0  0  0  0  0  0  0  0  0  0  0
   14.8205  -26.4114   -0.7802 C   0  0  0  0  0  0  0  0  0  0  0  0
   14.4943  -27.4323   -1.4048 O   0  0  0  0  0  0  0  0  0  0  0  0
   14.5055  -25.0727   -1.2937 C   0  0  0  0  0  0  0  0  0  0  0  0
   14.8195  -23.9407   -0.3557 C   0  0  0  0  0  0  0  0  0  0  0  0
   14.2633  -22.6491   -0.8443 C   0  0  2  0  0  0  0  0  0  0  0  0
   15.0182  -22.3012   -2.0534 N   0  0  0  0  0  0  0  0  0  0  0  0
   14.3487  -21.5619    0.1608 C   0  0  0  0  0  0  0  0  0  0  0  0
   15.4872  -21.0777    0.4747 O   0  0  0  0  0  0  0  0  0  0  0  0
   12.0663  -19.2015    2.0289 C   0  0  0  0  0  0  0  0  0  0  0  0
   13.3726  -19.9446    1.8376 C   0  0  2  0  0  0  0  0  0  0  0  0
   13.2287  -20.9937    0.8275 N   0  0  0  0  0  0  0  0  0  0  0  0
   13.7907  -20.4951    3.1335 C   0  0  0  0  0  0  0  0  0  0  0  0
   13.5442  -21.7245    3.3846 O   0  0  0  0  0  0  0  0  0  0  0  0
   21.1017  -21.1884    7.8744 N   0  0  0  0  0  0  0  0  0  0  0  0
   20.1491  -22.1456    8.2789 C   0  0  0  0  0  0  0  0  0  0  0  0
   20.4964  -23.1443    9.0417 N   0  0  0  0  0  0  0  0  0  0  0  0
   18.7788  -22.0742    7.8829 N   0  0  0  0  0  0  0  0  0  0  0  0
   18.3025  -21.1041    6.9382 C   0  0  0  0  0  0  0  0  0  0  0  0
   16.8172  -21.2451    6.6734 C   0  0  0  0  0  0  0  0  0  0  0  0
   16.3076  -20.2916    5.6401 C   0  0  0  0  0  0  0  0  0  0  0  0
   14.8407  -20.4092    5.4353 C   0  0  2  0  0  0  0  0  0  0  0  0
   14.4530  -19.7779    4.1497 N   0  0  0  0  0  0  0  0  0  0  0  0
   14.0947  -19.6717    6.4579 C   0  0  0  0  0  0  0  0  0  0  0  0
   13.8015  -20.2313    7.6751 O   0  0  0  0  0  0  0  0  0  0  0  0
   13.7005  -18.5053    6.2466 O   0  0  0  0  0  0  0  0  0  0  0  0
  2  1  1  0
  2  3  2  0
  4  5  1  0
  4  2  1  0
  6  7  1  6
  6  5  1  0
  8  6  1  0
  9  8  2  0
 11 10  1  1
 11 12  1  0
 12  8  1  0
 13 11  1  0
 13 23  1  0
 14 13  2  0
 16 15  1  0
 17 16  2  0
 18 16  1  0
 19 18  1  0
 20 21  1  0
 20 19  1  0
 22 21  1  1
 22 23  1  0
 22 24  1  0
 24 25  1  0
 26 24  2  0
M  END
$$$$
