QAR.pdb
     RDKit          3D

 26 25  0  0  1  0  0  0  0  0999 V2000
   26.2991  -21.4301  -21.0209 N   0  0  0  0  0  0  0  0  0  0  0  0
   27.7106  -21.3626  -21.1034 C   0  0  0  0  0  0  0  0  0  0  0  0
   28.2567  -21.3621  -22.2171 O   0  0  0  0  0  0  0  0  0  0  0  0
   28.5016  -21.2954  -19.8687 C   0  0  0  0  0  0  0  0  0  0  0  0
   27.7010  -21.3285  -18.5967 C   0  0  0  0  0  0  0  0  0  0  0  0
   28.5711  -21.2150  -17.3941 C   0  0  2  0  0  0  0  0  0  0  0  0
   29.3013  -22.4831  -17.2870 N   0  0  0  0  0  0  0  0  0  0  0  0
   27.8114  -20.9382  -16.1508 C   0  0  0  0  0  0  0  0  0  0  0  0
   27.3562  -21.9085  -15.4575 O   0  0  0  0  0  0  0  0  0  0  0  0
   26.6141  -17.9389  -14.1416 C   0  0  0  0  0  0  0  0  0  0  0  0
   26.7062  -19.4161  -14.4651 C   0  0  2  0  0  0  0  0  0  0  0  0
   27.5381  -19.6362  -15.6487 N   0  0  0  0  0  0  0  0  0  0  0  0
   25.3464  -19.9380  -14.6549 C   0  0  0  0  0  0  0  0  0  0  0  0
   24.7855  -19.7851  -15.7938 O   0  0  0  0  0  0  0  0  0  0  0  0
   20.6105  -25.9742  -15.7324 N   0  0  0  0  0  0  0  0  0  0  0  0
   21.8813  -26.1617  -16.3131 C   0  0  0  0  0  0  0  0  0  0  0  0
   22.0078  -26.8204  -17.4312 N   0  0  0  0  0  0  0  0  0  0  0  0
   23.0753  -25.6498  -15.7199 N   0  0  0  0  0  0  0  0  0  0  0  0
   23.0580  -24.8484  -14.5291 C   0  0  0  0  0  0  0  0  0  0  0  0
   23.1173  -23.3658  -14.8367 C   0  0  0  0  0  0  0  0  0  0  0  0
   23.0634  -22.5057  -13.6144 C   0  0  0  0  0  0  0  0  0  0  0  0
   23.1955  -21.0604  -13.9327 C   0  0  2  0  0  0  0  0  0  0  0  0
   24.5847  -20.6067  -13.6760 N   0  0  0  0  0  0  0  0  0  0  0  0
   22.3614  -20.2382  -13.0528 C   0  0  0  0  0  0  0  0  0  0  0  0
   22.8818  -19.6150  -11.9475 O   0  0  0  0  0  0  0  0  0  0  0  0
   21.1439  -20.0829  -13.2857 O   0  0  0  0  0  0  0  0  0  0  0  0
  2  1  1  0
  2  3  2  0
  4  5  1  0
  4  2  1  0
  6  7  1  1
  6  5  1  0
  8  6  1  0
  9  8  2  0
 11 10  1  6
 11 12  1  0
 12  8  1  0
 13 11  1  0
 13 23  1  0
 14 13  2  0
 16 15  1  0
 17 16  2  0
 18 16  1  0
 19 18  1  0
 20 21  1  0
 20 19  1  0
 22 21  1  1
 22 23  1  0
 22 24  1  0
 24 25  1  0
 26 24  2  0
M  END
$$$$
