QAR.pdb
     RDKit          3D

 26 25  0  0  1  0  0  0  0  0999 V2000
   27.8386  -21.3328  -17.1558 N   0  0  0  0  0  0  0  0  0  0  0  0
   28.2382  -20.3085  -18.0473 C   0  0  0  0  0  0  0  0  0  0  0  0
   29.3891  -20.3179  -18.5099 O   0  0  0  0  0  0  0  0  0  0  0  0
   27.2828  -19.2536  -18.4067 C   0  0  0  0  0  0  0  0  0  0  0  0
   25.9173  -19.3954  -17.7944 C   0  0  0  0  0  0  0  0  0  0  0  0
   24.9952  -18.3178  -18.2470 C   0  0  2  0  0  0  0  0  0  0  0  0
   25.7172  -17.0522  -18.0752 N   0  0  0  0  0  0  0  0  0  0  0  0
   23.7134  -18.2981  -17.5012 C   0  0  0  0  0  0  0  0  0  0  0  0
   23.7009  -17.9533  -16.2723 O   0  0  0  0  0  0  0  0  0  0  0  0
   20.0046  -18.7002  -18.1653 C   0  0  0  0  0  0  0  0  0  0  0  0
   21.2232  -18.6509  -17.2665 C   0  0  2  0  0  0  0  0  0  0  0  0
   22.4525  -18.6435  -18.0605 N   0  0  0  0  0  0  0  0  0  0  0  0
   21.1763  -19.7999  -16.3529 C   0  0  0  0  0  0  0  0  0  0  0  0
   21.6581  -20.9165  -16.7483 O   0  0  0  0  0  0  0  0  0  0  0  0
   24.8381  -20.8471   -9.9758 N   0  0  0  0  0  0  0  0  0  0  0  0
   25.4977  -21.1339  -11.1882 C   0  0  0  0  0  0  0  0  0  0  0  0
   26.5458  -21.9093  -11.2045 N   0  0  0  0  0  0  0  0  0  0  0  0
   25.0617  -20.6015  -12.4396 N   0  0  0  0  0  0  0  0  0  0  0  0
   23.7598  -20.0233  -12.6158 C   0  0  0  0  0  0  0  0  0  0  0  0
   22.6584  -21.0615  -12.5428 C   0  0  0  0  0  0  0  0  0  0  0  0
   21.2995  -20.5025  -12.8213 C   0  0  0  0  0  0  0  0  0  0  0  0
   20.7628  -20.9458  -14.1339 C   0  0  2  0  0  0  0  0  0  0  0  0
   20.6369  -19.7864  -15.0512 N   0  0  0  0  0  0  0  0  0  0  0  0
   19.4030  -21.4759  -14.0070 C   0  0  0  0  0  0  0  0  0  0  0  0
   18.3205  -20.8020  -14.5117 O   0  0  0  0  0  0  0  0  0  0  0  0
   19.1908  -22.5630  -13.4294 O   0  0  0  0  0  0  0  0  0  0  0  0
  2  1  1  0
  2  3  2  0
  4  5  1  0
  4  2  1  0
  6  7  1  1
  6  5  1  0
  8  6  1  0
  9  8  2  0
 11 10  1  6
 11 12  1  0
 12  8  1  0
 13 11  1  0
 13 23  1  0
 14 13  2  0
 16 15  1  0
 17 16  2  0
 18 16  1  0
 19 18  1  0
 20 21  1  0
 20 19  1  0
 22 21  1  1
 22 23  1  0
 22 24  1  0
 24 25  1  0
 26 24  2  0
M  END
$$$$
