QAR.pdb
     RDKit          3D

 26 25  0  0  1  0  0  0  0  0999 V2000
   15.9727  -27.2825   -8.8471 N   0  0  0  0  0  0  0  0  0  0  0  0
   17.3244  -26.8621   -8.8461 C   0  0  0  0  0  0  0  0  0  0  0  0
   17.6259  -25.7806   -8.3189 O   0  0  0  0  0  0  0  0  0  0  0  0
   18.3438  -27.7141   -9.4704 C   0  0  0  0  0  0  0  0  0  0  0  0
   18.9600  -27.1563  -10.7230 C   0  0  0  0  0  0  0  0  0  0  0  0
   17.9487  -26.9699  -11.7995 C   0  0  2  0  0  0  0  0  0  0  0  0
   17.9253  -28.2184  -12.5699 N   0  0  0  0  0  0  0  0  0  0  0  0
   18.2431  -25.8134  -12.6799 C   0  0  0  0  0  0  0  0  0  0  0  0
   19.1648  -25.9046  -13.5583 O   0  0  0  0  0  0  0  0  0  0  0  0
   16.8924  -22.3312  -13.3739 C   0  0  0  0  0  0  0  0  0  0  0  0
   17.9041  -23.4509  -13.5073 C   0  0  2  0  0  0  0  0  0  0  0  0
   17.5604  -24.5672  -12.6255 N   0  0  0  0  0  0  0  0  0  0  0  0
   19.2374  -22.9139  -13.2055 C   0  0  0  0  0  0  0  0  0  0  0  0
   19.5964  -22.8187  -11.9819 O   0  0  0  0  0  0  0  0  0  0  0  0
   26.8234  -23.6607  -17.8123 N   0  0  0  0  0  0  0  0  0  0  0  0
   26.2164  -23.7082  -16.5408 C   0  0  0  0  0  0  0  0  0  0  0  0
   26.5530  -24.6279  -15.6802 N   0  0  0  0  0  0  0  0  0  0  0  0
   25.2197  -22.7694  -16.1347 N   0  0  0  0  0  0  0  0  0  0  0  0
   24.8939  -22.5448  -14.7549 C   0  0  0  0  0  0  0  0  0  0  0  0
   23.8056  -21.5038  -14.5865 C   0  0  0  0  0  0  0  0  0  0  0  0
   22.4416  -22.0139  -14.9270 C   0  0  0  0  0  0  0  0  0  0  0  0
   21.5087  -21.9507  -13.7723 C   0  0  2  0  0  0  0  0  0  0  0  0
   20.1795  -22.4835  -14.1608 N   0  0  0  0  0  0  0  0  0  0  0  0
   21.2554  -20.5675  -13.3615 C   0  0  0  0  0  0  0  0  0  0  0  0
   21.9648  -19.9796  -12.3457 O   0  0  0  0  0  0  0  0  0  0  0  0
   20.3784  -19.8815  -13.9280 O   0  0  0  0  0  0  0  0  0  0  0  0
  2  1  1  0
  2  3  2  0
  4  5  1  0
  4  2  1  0
  6  7  1  6
  6  5  1  0
  8  6  1  0
  9  8  2  0
 11 10  1  1
 11 12  1  0
 12  8  1  0
 13 11  1  0
 13 23  1  0
 14 13  2  0
 16 15  1  0
 17 16  2  0
 18 16  1  0
 19 18  1  0
 20 21  1  0
 20 19  1  0
 22 21  1  6
 22 23  1  0
 22 24  1  0
 24 25  1  0
 26 24  2  0
M  END
$$$$
