QAR.pdb
     RDKit          3D

 26 25  0  0  1  0  0  0  0  0999 V2000
   22.2232  -26.9353  -15.6429 N   0  0  0  0  0  0  0  0  0  0  0  0
   21.8505  -28.2790  -15.3996 C   0  0  0  0  0  0  0  0  0  0  0  0
   22.6570  -29.1891  -15.6445 O   0  0  0  0  0  0  0  0  0  0  0  0
   20.5156  -28.5700  -14.8626 C   0  0  0  0  0  0  0  0  0  0  0  0
   19.6600  -27.3634  -14.5944 C   0  0  0  0  0  0  0  0  0  0  0  0
   20.2754  -26.4656  -13.5787 C   0  0  2  0  0  0  0  0  0  0  0  0
   20.1667  -27.1584  -12.2899 N   0  0  0  0  0  0  0  0  0  0  0  0
   19.6309  -25.1314  -13.5153 C   0  0  0  0  0  0  0  0  0  0  0  0
   19.7048  -24.3442  -14.5173 O   0  0  0  0  0  0  0  0  0  0  0  0
   17.5650  -23.0594  -11.0887 C   0  0  0  0  0  0  0  0  0  0  0  0
   18.4107  -23.2650  -12.3288 C   0  0  2  0  0  0  0  0  0  0  0  0
   18.9120  -24.6384  -12.3919 N   0  0  0  0  0  0  0  0  0  0  0  0
   19.5080  -22.2888  -12.3126 C   0  0  0  0  0  0  0  0  0  0  0  0
   20.5799  -22.5831  -11.6805 O   0  0  0  0  0  0  0  0  0  0  0  0
   26.7748  -22.0921  -14.9171 N   0  0  0  0  0  0  0  0  0  0  0  0
   26.4424  -20.7873  -15.3347 C   0  0  0  0  0  0  0  0  0  0  0  0
   27.3459  -20.0115  -15.8655 N   0  0  0  0  0  0  0  0  0  0  0  0
   25.1236  -20.2555  -15.2017 N   0  0  0  0  0  0  0  0  0  0  0  0
   24.0251  -21.0403  -14.7143 C   0  0  0  0  0  0  0  0  0  0  0  0
   22.7173  -20.2756  -14.7466 C   0  0  0  0  0  0  0  0  0  0  0  0
   21.5585  -21.0635  -14.2239 C   0  0  0  0  0  0  0  0  0  0  0  0
   20.7346  -20.2878  -13.2610 C   0  0  2  0  0  0  0  0  0  0  0  0
   19.4890  -21.0288  -12.9432 N   0  0  0  0  0  0  0  0  0  0  0  0
   20.2823  -19.0204  -13.8401 C   0  0  0  0  0  0  0  0  0  0  0  0
   21.0884  -17.9110  -13.8560 O   0  0  0  0  0  0  0  0  0  0  0  0
   19.1410  -18.9143  -14.3369 O   0  0  0  0  0  0  0  0  0  0  0  0
  2  1  1  0
  2  3  2  0
  4  5  1  0
  4  2  1  0
  6  7  1  1
  6  5  1  0
  8  6  1  0
  9  8  2  0
 11 10  1  1
 11 12  1  0
 12  8  1  0
 13 11  1  0
 13 23  1  0
 14 13  2  0
 16 15  1  0
 17 16  2  0
 18 16  1  0
 19 18  1  0
 20 21  1  0
 20 19  1  0
 22 21  1  6
 22 23  1  0
 22 24  1  0
 24 25  1  0
 26 24  2  0
M  END
$$$$
