QAR.pdb
     RDKit          3D

 26 25  0  0  1  0  0  0  0  0999 V2000
   22.3723  -21.1213  -13.0840 N   0  0  0  0  0  0  0  0  0  0  0  0
   22.4124  -21.2997  -11.6804 C   0  0  0  0  0  0  0  0  0  0  0  0
   21.3877  -21.0988  -11.0109 O   0  0  0  0  0  0  0  0  0  0  0  0
   23.6669  -21.7185  -11.0434 C   0  0  0  0  0  0  0  0  0  0  0  0
   24.8188  -21.9331  -11.9852 C   0  0  0  0  0  0  0  0  0  0  0  0
   26.0189  -21.1532  -11.5756 C   0  0  2  0  0  0  0  0  0  0  0  0
   25.7349  -20.6239  -10.2370 N   0  0  0  0  0  0  0  0  0  0  0  0
   26.3482  -20.0556  -12.5170 C   0  0  0  0  0  0  0  0  0  0  0  0
   25.9234  -18.8743  -12.2858 O   0  0  0  0  0  0  0  0  0  0  0  0
   28.5013  -19.4337  -15.5687 C   0  0  0  0  0  0  0  0  0  0  0  0
   27.3510  -19.1148  -14.6359 C   0  0  2  0  0  0  0  0  0  0  0  0
   27.1251  -20.2146  -13.6973 N   0  0  0  0  0  0  0  0  0  0  0  0
   26.1563  -18.8402  -15.4450 C   0  0  0  0  0  0  0  0  0  0  0  0
   25.4145  -19.8215  -15.7941 O   0  0  0  0  0  0  0  0  0  0  0  0
   20.9923  -12.7535  -18.2917 N   0  0  0  0  0  0  0  0  0  0  0  0
   20.2627  -13.9517  -18.4308 C   0  0  0  0  0  0  0  0  0  0  0  0
   19.2751  -14.0310  -19.2783 N   0  0  0  0  0  0  0  0  0  0  0  0
   20.5606  -15.1205  -17.6662 N   0  0  0  0  0  0  0  0  0  0  0  0
   21.7094  -15.2052  -16.8098 C   0  0  0  0  0  0  0  0  0  0  0  0
   22.9485  -15.6539  -17.5579 C   0  0  0  0  0  0  0  0  0  0  0  0
   24.1114  -15.9354  -16.6608 C   0  0  0  0  0  0  0  0  0  0  0  0
   24.5003  -17.3694  -16.6706 C   0  0  2  0  0  0  0  0  0  0  0  0
   25.7420  -17.5665  -15.8827 N   0  0  0  0  0  0  0  0  0  0  0  0
   24.8343  -17.8261  -18.0219 C   0  0  0  0  0  0  0  0  0  0  0  0
   23.9008  -18.4265  -18.8274 O   0  0  0  0  0  0  0  0  0  0  0  0
   25.9876  -17.6819  -18.4799 O   0  0  0  0  0  0  0  0  0  0  0  0
  2  1  1  0
  2  3  2  0
  4  5  1  0
  4  2  1  0
  6  7  1  1
  6  5  1  0
  8  6  1  0
  9  8  2  0
 11 10  1  6
 11 12  1  0
 12  8  1  0
 13 11  1  0
 13 23  1  0
 14 13  2  0
 16 15  1  0
 17 16  2  0
 18 16  1  0
 19 18  1  0
 20 21  1  0
 20 19  1  0
 22 21  1  6
 22 23  1  0
 22 24  1  0
 24 25  1  0
 26 24  2  0
M  END
$$$$
