QAR.pdb
     RDKit          3D

 26 25  0  0  1  0  0  0  0  0999 V2000
   29.0648  -23.9222  -17.3112 N   0  0  0  0  0  0  0  0  0  0  0  0
   28.0268  -24.3978  -16.4747 C   0  0  0  0  0  0  0  0  0  0  0  0
   27.8016  -25.6162  -16.4155 O   0  0  0  0  0  0  0  0  0  0  0  0
   27.2355  -23.4396  -15.6934 C   0  0  0  0  0  0  0  0  0  0  0  0
   27.5954  -21.9952  -15.9037 C   0  0  0  0  0  0  0  0  0  0  0  0
   26.9344  -21.4325  -17.1132 C   0  0  2  0  0  0  0  0  0  0  0  0
   27.8300  -20.3923  -17.6315 N   0  0  0  0  0  0  0  0  0  0  0  0
   25.5879  -20.8770  -16.8345 C   0  0  0  0  0  0  0  0  0  0  0  0
   25.2178  -20.6888  -15.6276 O   0  0  0  0  0  0  0  0  0  0  0  0
   22.6735  -19.3268  -18.6725 C   0  0  0  0  0  0  0  0  0  0  0  0
   23.2908  -20.0673  -17.5038 C   0  0  2  0  0  0  0  0  0  0  0  0
   24.6411  -20.5239  -17.8350 N   0  0  0  0  0  0  0  0  0  0  0  0
   22.4130  -21.1891  -17.1458 C   0  0  0  0  0  0  0  0  0  0  0  0
   22.6481  -22.3376  -17.6566 O   0  0  0  0  0  0  0  0  0  0  0  0
   18.0717  -25.5196  -10.6424 N   0  0  0  0  0  0  0  0  0  0  0  0
   19.2394  -26.0140  -11.2582 C   0  0  0  0  0  0  0  0  0  0  0  0
   19.6642  -27.2195  -11.0008 N   0  0  0  0  0  0  0  0  0  0  0  0
   20.0049  -25.2363  -12.1795 N   0  0  0  0  0  0  0  0  0  0  0  0
   19.6447  -23.8930  -12.5346 C   0  0  0  0  0  0  0  0  0  0  0  0
   19.6602  -23.6742  -14.0339 C   0  0  0  0  0  0  0  0  0  0  0  0
   20.5552  -22.5539  -14.4588 C   0  0  0  0  0  0  0  0  0  0  0  0
   20.5002  -22.3094  -15.9233 C   0  0  2  0  0  0  0  0  0  0  0  0
   21.3100  -21.1159  -16.2718 N   0  0  0  0  0  0  0  0  0  0  0  0
   19.1411  -21.9846  -16.3631 C   0  0  0  0  0  0  0  0  0  0  0  0
   18.1738  -22.9503  -16.4760 O   0  0  0  0  0  0  0  0  0  0  0  0
   18.8244  -20.8111  -16.6515 O   0  0  0  0  0  0  0  0  0  0  0  0
  2  1  1  0
  2  3  2  0
  4  5  1  0
  4  2  1  0
  6  7  1  1
  6  5  1  0
  8  6  1  0
  9  8  2  0
 11 10  1  6
 11 12  1  0
 12  8  1  0
 13 11  1  0
 13 23  1  0
 14 13  2  0
 16 15  1  0
 17 16  2  0
 18 16  1  0
 19 18  1  0
 20 21  1  0
 20 19  1  0
 22 21  1  1
 22 23  1  0
 22 24  1  0
 24 25  1  0
 26 24  2  0
M  END
$$$$
