DCM.pdb
     RDKit          3D

 23 22  0  0  1  0  0  0  0  0999 V2000
   19.5625  -10.5406  -16.3721 N   0  0  0  0  0  0  0  0  0  0  0  0
   18.8657   -9.3888  -15.8720 C   0  0  1  0  0  0  0  0  0  0  0  0
   17.3777   -9.5568  -16.0627 C   0  0  0  0  0  0  0  0  0  0  0  0
   16.9434   -9.4507  -17.4610 C   0  0  0  0  0  0  0  0  0  0  0  0
   16.1365  -10.2074  -18.0197 O   0  0  0  0  0  0  0  0  0  0  0  0
   19.0849   -9.2564  -14.4104 C   0  0  0  0  0  0  0  0  0  0  0  0
   18.9846  -10.2950  -13.7152 O   0  0  0  0  0  0  0  0  0  0  0  0
   17.4802   -8.4149  -18.2269 O   0  0  0  0  0  0  0  0  0  0  0  0
   19.3932   -8.0261  -13.8144 N   0  0  0  0  0  0  0  0  0  0  0  0
   19.6906   -7.8828  -12.3870 C   0  0  1  0  0  0  0  0  0  0  0  0
   20.8759   -6.9654  -12.1991 C   0  0  0  0  0  0  0  0  0  0  0  0
   21.1502   -6.7062  -10.4400 S   0  0  0  0  0  0  0  0  0  0  0  0
   18.5085   -7.1847  -11.7967 C   0  0  0  0  0  0  0  0  0  0  0  0
   18.1035   -6.1579  -12.3970 O   0  0  0  0  0  0  0  0  0  0  0  0
   11.8997   -7.7594   -7.3988 C   0  0  0  0  0  0  0  0  0  0  0  0
   13.3539   -8.5303   -8.1018 S   0  0  0  0  0  0  0  0  0  0  0  0
   14.5096   -7.2883   -8.8038 C   0  0  0  0  0  0  0  0  0  0  0  0
   15.7211   -7.9677   -9.3892 C   0  0  0  0  0  0  0  0  0  0  0  0
   16.5974   -6.9988  -10.1357 C   0  0  2  0  0  0  0  0  0  0  0  0
   17.8143   -7.5588  -10.6556 N   0  0  0  0  0  0  0  0  0  0  0  0
   16.9932   -5.8898   -9.2542 C   0  0  0  0  0  0  0  0  0  0  0  0
   16.0687   -4.8731   -9.0346 O   0  0  0  0  0  0  0  0  0  0  0  0
   18.1135   -5.8225   -8.6993 O   0  0  0  0  0  0  0  0  0  0  0  0
  2  1  1  1
  2  3  1  0
  3  4  1  0
  4  5  2  0
  4  8  1  0
  6  9  1  0
  6  2  1  0
  7  6  2  0
 10 13  1  0
 10  9  1  0
 10 11  1  6
 11 12  1  0
 13 20  1  0
 14 13  2  0
 16 15  1  0
 17 16  1  0
 18 17  1  0
 19 18  1  1
 19 21  1  0
 20 19  1  0
 21 22  1  0
 23 21  2  0
M  END
$$$$
