DCM.pdb
     RDKit          3D

 23 22  0  0  1  0  0  0  0  0999 V2000
   18.5299  -13.6120  -19.8201 N   0  0  0  0  0  0  0  0  0  0  0  0
   18.2155  -13.2186  -18.4752 C   0  0  1  0  0  0  0  0  0  0  0  0
   18.9337  -14.1094  -17.4905 C   0  0  0  0  0  0  0  0  0  0  0  0
   18.3939  -15.4728  -17.4212 C   0  0  0  0  0  0  0  0  0  0  0  0
   17.4171  -15.8896  -18.0598 O   0  0  0  0  0  0  0  0  0  0  0  0
   18.7032  -11.8404  -18.2211 C   0  0  0  0  0  0  0  0  0  0  0  0
   19.7499  -11.4806  -18.8104 O   0  0  0  0  0  0  0  0  0  0  0  0
   19.0295  -16.3761  -16.5681 O   0  0  0  0  0  0  0  0  0  0  0  0
   18.0320  -10.9624  -17.3596 N   0  0  0  0  0  0  0  0  0  0  0  0
   18.4040   -9.5535  -17.2069 C   0  0  1  0  0  0  0  0  0  0  0  0
   17.2305   -8.7679  -16.6707 C   0  0  0  0  0  0  0  0  0  0  0  0
   15.9597   -8.6628  -17.9398 S   0  0  0  0  0  0  0  0  0  0  0  0
   19.4589   -9.5271  -16.1490 C   0  0  0  0  0  0  0  0  0  0  0  0
   19.2562  -10.2396  -15.1340 O   0  0  0  0  0  0  0  0  0  0  0  0
   26.7593  -10.7143  -14.5125 C   0  0  0  0  0  0  0  0  0  0  0  0
   25.7535   -9.7502  -15.6359 S   0  0  0  0  0  0  0  0  0  0  0  0
   24.1730   -9.2317  -14.8588 C   0  0  0  0  0  0  0  0  0  0  0  0
   23.0497   -9.2853  -15.8626 C   0  0  0  0  0  0  0  0  0  0  0  0
   21.7401   -8.8585  -15.2573 C   0  0  2  0  0  0  0  0  0  0  0  0
   20.6382   -8.7976  -16.1776 N   0  0  0  0  0  0  0  0  0  0  0  0
   21.8663   -7.5157  -14.6702 C   0  0  0  0  0  0  0  0  0  0  0  0
   21.6359   -6.4209  -15.4976 O   0  0  0  0  0  0  0  0  0  0  0  0
   22.1687   -7.3183  -13.4714 O   0  0  0  0  0  0  0  0  0  0  0  0
  2  1  1  6
  2  3  1  0
  3  4  1  0
  4  5  2  0
  4  8  1  0
  6  9  1  0
  6  2  1  0
  7  6  2  0
 10 13  1  0
 10  9  1  0
 10 11  1  1
 11 12  1  0
 13 20  1  0
 14 13  2  0
 16 15  1  0
 17 16  1  0
 18 17  1  0
 19 18  1  6
 19 21  1  0
 20 19  1  0
 21 22  1  0
 23 21  2  0
M  END
$$$$
