DCM.pdb
     RDKit          3D

 23 22  0  0  1  0  0  0  0  0999 V2000
   17.9216  -12.5926  -16.8925 N   0  0  0  0  0  0  0  0  0  0  0  0
   19.0648  -11.7626  -17.1504 C   0  0  1  0  0  0  0  0  0  0  0  0
   19.1283  -11.4040  -18.6154 C   0  0  0  0  0  0  0  0  0  0  0  0
   19.4183  -12.5445  -19.4930 C   0  0  0  0  0  0  0  0  0  0  0  0
   19.0009  -12.6808  -20.6519 O   0  0  0  0  0  0  0  0  0  0  0  0
   18.9393  -10.4805  -16.4139 C   0  0  0  0  0  0  0  0  0  0  0  0
   17.8552   -9.8590  -16.5175 O   0  0  0  0  0  0  0  0  0  0  0  0
   20.2298  -13.5599  -18.9850 O   0  0  0  0  0  0  0  0  0  0  0  0
   19.9817   -9.9704  -15.6286 N   0  0  0  0  0  0  0  0  0  0  0  0
   19.8579   -8.7444  -14.8359 C   0  0  1  0  0  0  0  0  0  0  0  0
   20.0337   -9.0613  -13.3694 C   0  0  0  0  0  0  0  0  0  0  0  0
   20.0955   -7.5247  -12.4357 S   0  0  0  0  0  0  0  0  0  0  0  0
   21.0166   -7.8885  -15.2330 C   0  0  0  0  0  0  0  0  0  0  0  0
   22.1463   -8.4386  -15.2407 O   0  0  0  0  0  0  0  0  0  0  0  0
   23.8645   -1.5948  -19.1600 C   0  0  0  0  0  0  0  0  0  0  0  0
   22.4810   -2.6475  -18.7348 S   0  0  0  0  0  0  0  0  0  0  0  0
   22.9116   -3.8286  -17.3967 C   0  0  0  0  0  0  0  0  0  0  0  0
   21.7300   -4.7046  -17.0667 C   0  0  0  0  0  0  0  0  0  0  0  0
   22.0575   -5.6986  -15.9857 C   0  0  2  0  0  0  0  0  0  0  0  0
   20.9682   -6.5505  -15.5955 N   0  0  0  0  0  0  0  0  0  0  0  0
   22.4946   -4.9983  -14.7682 C   0  0  0  0  0  0  0  0  0  0  0  0
   23.8597   -4.7941  -14.5913 O   0  0  0  0  0  0  0  0  0  0  0  0
   21.6999   -4.5831  -13.8945 O   0  0  0  0  0  0  0  0  0  0  0  0
  2  1  1  6
  2  3  1  0
  3  4  1  0
  4  5  2  0
  4  8  1  0
  6  9  1  0
  6  2  1  0
  7  6  2  0
 10 13  1  0
 10  9  1  0
 10 11  1  1
 11 12  1  0
 13 20  1  0
 14 13  2  0
 16 15  1  0
 17 16  1  0
 18 17  1  0
 19 18  1  6
 19 21  1  0
 20 19  1  0
 21 22  1  0
 23 21  2  0
M  END
$$$$
