DCM.pdb
     RDKit          3D

 23 22  0  0  1  0  0  0  0  0999 V2000
   19.2266  -13.6378  -15.7660 N   0  0  0  0  0  0  0  0  0  0  0  0
   18.2455  -12.5895  -15.7934 C   0  0  1  0  0  0  0  0  0  0  0  0
   16.9008  -13.1232  -15.3624 C   0  0  0  0  0  0  0  0  0  0  0  0
   16.3149  -14.0848  -16.3043 C   0  0  0  0  0  0  0  0  0  0  0  0
   15.7614  -15.1483  -15.9905 O   0  0  0  0  0  0  0  0  0  0  0  0
   18.6045  -11.5310  -14.8175 C   0  0  0  0  0  0  0  0  0  0  0  0
   18.8850  -11.8930  -13.6503 O   0  0  0  0  0  0  0  0  0  0  0  0
   16.3845  -13.7804  -17.6645 O   0  0  0  0  0  0  0  0  0  0  0  0
   18.6342  -10.1751  -15.1703 N   0  0  0  0  0  0  0  0  0  0  0  0
   19.1292   -9.1274  -14.2736 C   0  0  1  0  0  0  0  0  0  0  0  0
   19.8835   -8.0867  -15.0672 C   0  0  0  0  0  0  0  0  0  0  0  0
   20.4426   -6.7866  -13.9563 S   0  0  0  0  0  0  0  0  0  0  0  0
   17.9115   -8.4540  -13.7290 C   0  0  0  0  0  0  0  0  0  0  0  0
   16.9924   -8.2041  -14.5486 O   0  0  0  0  0  0  0  0  0  0  0  0
   13.1473   -7.0261   -7.5264 C   0  0  0  0  0  0  0  0  0  0  0  0
   14.6369   -7.7755   -8.1766 S   0  0  0  0  0  0  0  0  0  0  0  0
   14.9744   -7.2343   -9.8983 C   0  0  0  0  0  0  0  0  0  0  0  0
   16.2327   -7.8821  -10.4172 C   0  0  0  0  0  0  0  0  0  0  0  0
   16.5174   -7.4865  -11.8406 C   0  0  2  0  0  0  0  0  0  0  0  0
   17.6948   -8.0806  -12.4109 N   0  0  0  0  0  0  0  0  0  0  0  0
   16.6987   -6.0299  -11.9357 C   0  0  0  0  0  0  0  0  0  0  0  0
   17.9897   -5.5475  -12.1284 O   0  0  0  0  0  0  0  0  0  0  0  0
   15.7518   -5.2151  -11.8517 O   0  0  0  0  0  0  0  0  0  0  0  0
  2  1  1  1
  2  3  1  0
  3  4  1  0
  4  5  2  0
  4  8  1  0
  6  9  1  0
  6  2  1  0
  7  6  2  0
 10 13  1  0
 10  9  1  0
 10 11  1  6
 11 12  1  0
 13 20  1  0
 14 13  2  0
 16 15  1  0
 17 16  1  0
 18 17  1  0
 19 18  1  1
 19 21  1  0
 20 19  1  0
 21 22  1  0
 23 21  2  0
M  END
$$$$
