DCM.pdb
     RDKit          3D

 23 22  0  0  1  0  0  0  0  0999 V2000
   13.2581   -9.6154   -9.6794 N   0  0  0  0  0  0  0  0  0  0  0  0
   14.6866   -9.5464   -9.8087 C   0  0  1  0  0  0  0  0  0  0  0  0
   15.1499  -10.4259  -10.9449 C   0  0  0  0  0  0  0  0  0  0  0  0
   14.9656  -11.8610  -10.6969 C   0  0  0  0  0  0  0  0  0  0  0  0
   15.2909  -12.4561   -9.6596 O   0  0  0  0  0  0  0  0  0  0  0  0
   15.0998   -8.1646  -10.1579 C   0  0  0  0  0  0  0  0  0  0  0  0
   14.5225   -7.6171  -11.1270 O   0  0  0  0  0  0  0  0  0  0  0  0
   14.3767  -12.6207  -11.7087 O   0  0  0  0  0  0  0  0  0  0  0  0
   16.0941   -7.4840   -9.4426 N   0  0  0  0  0  0  0  0  0  0  0  0
   16.5141   -6.1173   -9.7628 C   0  0  1  0  0  0  0  0  0  0  0  0
   16.3164   -5.2245   -8.5604 C   0  0  0  0  0  0  0  0  0  0  0  0
   14.5561   -4.9484   -8.3119 S   0  0  0  0  0  0  0  0  0  0  0  0
   17.9867   -6.1939  -10.0043 C   0  0  0  0  0  0  0  0  0  0  0  0
   18.6766   -6.7404   -9.1075 O   0  0  0  0  0  0  0  0  0  0  0  0
   23.3801   -9.6819  -13.9034 C   0  0  0  0  0  0  0  0  0  0  0  0
   21.6888   -9.2927  -13.4657 S   0  0  0  0  0  0  0  0  0  0  0  0
   21.5565   -7.6488  -12.6590 C   0  0  0  0  0  0  0  0  0  0  0  0
   20.1389   -7.3922  -12.2151 C   0  0  0  0  0  0  0  0  0  0  0  0
   19.9977   -6.0513  -11.5475 C   0  0  2  0  0  0  0  0  0  0  0  0
   18.6656   -5.7248  -11.1192 N   0  0  0  0  0  0  0  0  0  0  0  0
   20.4132   -4.9808  -12.4667 C   0  0  0  0  0  0  0  0  0  0  0  0
   21.7729   -4.7015  -12.5659 O   0  0  0  0  0  0  0  0  0  0  0  0
   19.6050   -4.3177  -13.1556 O   0  0  0  0  0  0  0  0  0  0  0  0
  2  1  1  6
  2  3  1  0
  3  4  1  0
  4  5  2  0
  4  8  1  0
  6  9  1  0
  6  2  1  0
  7  6  2  0
 10 13  1  0
 10  9  1  0
 10 11  1  1
 11 12  1  0
 13 20  1  0
 14 13  2  0
 16 15  1  0
 17 16  1  0
 18 17  1  0
 19 18  1  6
 19 21  1  0
 20 19  1  0
 21 22  1  0
 23 21  2  0
M  END
$$$$
