DCM.pdb
     RDKit          3D

 23 22  0  0  1  0  0  0  0  0999 V2000
   18.2257  -12.1989  -18.2611 N   0  0  0  0  0  0  0  0  0  0  0  0
   19.2588  -11.2646  -18.6105 C   0  0  1  0  0  0  0  0  0  0  0  0
   18.6731  -10.1023  -19.3754 C   0  0  0  0  0  0  0  0  0  0  0  0
   18.1716  -10.4616  -20.7075 C   0  0  0  0  0  0  0  0  0  0  0  0
   18.6329  -11.3576  -21.4287 O   0  0  0  0  0  0  0  0  0  0  0  0
   19.8631  -10.6914  -17.3823 C   0  0  0  0  0  0  0  0  0  0  0  0
   19.0956  -10.4467  -16.4215 O   0  0  0  0  0  0  0  0  0  0  0  0
   17.0873   -9.7380  -21.2059 O   0  0  0  0  0  0  0  0  0  0  0  0
   21.2359  -10.4284  -17.2837 N   0  0  0  0  0  0  0  0  0  0  0  0
   21.8735   -9.9665  -16.0480 C   0  0  1  0  0  0  0  0  0  0  0  0
   23.2668  -10.5409  -15.9435 C   0  0  0  0  0  0  0  0  0  0  0  0
   24.1019   -9.8126  -14.5262 S   0  0  0  0  0  0  0  0  0  0  0  0
   22.0281   -8.4882  -16.2018 C   0  0  0  0  0  0  0  0  0  0  0  0
   22.4883   -8.0814  -17.2980 O   0  0  0  0  0  0  0  0  0  0  0  0
   19.6909   -1.2505  -16.7484 C   0  0  0  0  0  0  0  0  0  0  0  0
   19.4370   -3.0188  -16.6383 S   0  0  0  0  0  0  0  0  0  0  0  0
   20.9121   -3.8765  -15.9608 C   0  0  0  0  0  0  0  0  0  0  0  0
   20.6600   -5.3593  -15.8611 C   0  0  0  0  0  0  0  0  0  0  0  0
   21.8707   -6.0984  -15.3595 C   0  0  2  0  0  0  0  0  0  0  0  0
   21.7121   -7.5228  -15.2574 N   0  0  0  0  0  0  0  0  0  0  0  0
   22.2347   -5.6230  -14.0160 C   0  0  0  0  0  0  0  0  0  0  0  0
   22.7272   -4.3269  -13.8970 O   0  0  0  0  0  0  0  0  0  0  0  0
   22.1214   -6.3267  -12.9866 O   0  0  0  0  0  0  0  0  0  0  0  0
  2  1  1  1
  2  3  1  0
  3  4  1  0
  4  5  2  0
  4  8  1  0
  6  9  1  0
  6  2  1  0
  7  6  2  0
 10 13  1  0
 10  9  1  0
 10 11  1  6
 11 12  1  0
 13 20  1  0
 14 13  2  0
 16 15  1  0
 17 16  1  0
 18 17  1  0
 19 18  1  1
 19 21  1  0
 20 19  1  0
 21 22  1  0
 23 21  2  0
M  END
$$$$
