DCM.pdb
     RDKit          3D

 23 22  0  0  1  0  0  0  0  0999 V2000
   16.0704  -13.5829  -17.7389 N   0  0  0  0  0  0  0  0  0  0  0  0
   16.4146  -12.7348  -16.6323 C   0  0  1  0  0  0  0  0  0  0  0  0
   17.0461  -13.5487  -15.5289 C   0  0  0  0  0  0  0  0  0  0  0  0
   16.1310  -14.5119  -14.9044 C   0  0  0  0  0  0  0  0  0  0  0  0
   16.2270  -15.7450  -14.9819 O   0  0  0  0  0  0  0  0  0  0  0  0
   17.4338  -11.7408  -17.0508 C   0  0  0  0  0  0  0  0  0  0  0  0
   18.2266  -12.0759  -17.9625 O   0  0  0  0  0  0  0  0  0  0  0  0
   15.0649  -14.0017  -14.1622 O   0  0  0  0  0  0  0  0  0  0  0  0
   17.5201  -10.4727  -16.4608 N   0  0  0  0  0  0  0  0  0  0  0  0
   18.3754   -9.4048  -16.9850 C   0  0  1  0  0  0  0  0  0  0  0  0
   17.6570   -8.0792  -16.8913 C   0  0  0  0  0  0  0  0  0  0  0  0
   18.7695   -6.7656  -17.4143 S   0  0  0  0  0  0  0  0  0  0  0  0
   19.5420   -9.3286  -16.0543 C   0  0  0  0  0  0  0  0  0  0  0  0
   19.2800   -9.2716  -14.8267 O   0  0  0  0  0  0  0  0  0  0  0  0
   27.3521  -10.4800  -14.8591 C   0  0  0  0  0  0  0  0  0  0  0  0
   26.0021  -10.3140  -16.0224 S   0  0  0  0  0  0  0  0  0  0  0  0
   24.4471   -9.8030  -15.1908 C   0  0  0  0  0  0  0  0  0  0  0  0
   23.2932   -9.8440  -16.1599 C   0  0  0  0  0  0  0  0  0  0  0  0
   22.0290   -9.3081  -15.5447 C   0  0  2  0  0  0  0  0  0  0  0  0
   20.8824   -9.3173  -16.4106 N   0  0  0  0  0  0  0  0  0  0  0  0
   22.2217   -7.9118  -15.1243 C   0  0  0  0  0  0  0  0  0  0  0  0
   22.1746   -6.9260  -16.1054 O   0  0  0  0  0  0  0  0  0  0  0  0
   22.4239   -7.5763  -13.9352 O   0  0  0  0  0  0  0  0  0  0  0  0
  2  1  1  6
  2  3  1  0
  3  4  1  0
  4  5  2  0
  4  8  1  0
  6  9  1  0
  6  2  1  0
  7  6  2  0
 10 13  1  0
 10  9  1  0
 10 11  1  1
 11 12  1  0
 13 20  1  0
 14 13  2  0
 16 15  1  0
 17 16  1  0
 18 17  1  0
 19 18  1  6
 19 21  1  0
 20 19  1  0
 21 22  1  0
 23 21  2  0
M  END
$$$$
