DCM.pdb
     RDKit          3D

 23 22  0  0  1  0  0  0  0  0999 V2000
   22.7787  -18.8797  -16.0843 N   0  0  0  0  0  0  0  0  0  0  0  0
   21.6269  -18.7817  -15.2322 C   0  0  1  0  0  0  0  0  0  0  0  0
   20.3679  -19.0294  -16.0275 C   0  0  0  0  0  0  0  0  0  0  0  0
   19.3879  -17.9398  -15.9409 C   0  0  0  0  0  0  0  0  0  0  0  0
   19.3386  -16.9591  -16.6969 O   0  0  0  0  0  0  0  0  0  0  0  0
   21.6741  -19.8366  -14.1896 C   0  0  0  0  0  0  0  0  0  0  0  0
   22.5010  -20.7660  -14.3459 O   0  0  0  0  0  0  0  0  0  0  0  0
   18.4322  -18.0103  -14.9263 O   0  0  0  0  0  0  0  0  0  0  0  0
   20.8345  -19.8098  -13.0680 N   0  0  0  0  0  0  0  0  0  0  0  0
   20.9717  -20.7415  -11.9456 C   0  0  1  0  0  0  0  0  0  0  0  0
   21.0104  -19.9755  -10.6442 C   0  0  0  0  0  0  0  0  0  0  0  0
   19.8562  -18.5984  -10.7342 S   0  0  0  0  0  0  0  0  0  0  0  0
   19.7130  -21.5468  -11.9336 C   0  0  0  0  0  0  0  0  0  0  0  0
   18.7059  -21.0253  -12.4746 O   0  0  0  0  0  0  0  0  0  0  0  0
   17.5419  -27.6226   -8.7931 C   0  0  0  0  0  0  0  0  0  0  0  0
   17.6427  -27.6171  -10.5800 S   0  0  0  0  0  0  0  0  0  0  0  0
   17.3970  -25.9334  -11.2695 C   0  0  0  0  0  0  0  0  0  0  0  0
   18.6039  -25.0718  -10.9988 C   0  0  0  0  0  0  0  0  0  0  0  0
   18.3796  -23.6472  -11.4277 C   0  0  2  0  0  0  0  0  0  0  0  0
   19.5475  -22.8111  -11.3877 N   0  0  0  0  0  0  0  0  0  0  0  0
   17.3800  -23.0073  -10.5588 C   0  0  0  0  0  0  0  0  0  0  0  0
   16.0424  -23.0979  -10.9316 O   0  0  0  0  0  0  0  0  0  0  0  0
   17.6781  -22.3917   -9.5101 O   0  0  0  0  0  0  0  0  0  0  0  0
  2  1  1  6
  2  3  1  0
  3  4  1  0
  4  5  2  0
  4  8  1  0
  6  9  1  0
  6  2  1  0
  7  6  2  0
 10 13  1  0
 10  9  1  0
 10 11  1  1
 11 12  1  0
 13 20  1  0
 14 13  2  0
 16 15  1  0
 17 16  1  0
 18 17  1  0
 19 18  1  1
 19 21  1  0
 20 19  1  0
 21 22  1  0
 23 21  2  0
M  END
$$$$
