DCM.pdb
     RDKit          3D

 23 22  0  0  1  0  0  0  0  0999 V2000
   17.1575  -12.2127  -17.3337 N   0  0  0  0  0  0  0  0  0  0  0  0
   17.8306  -11.8070  -16.1318 C   0  0  1  0  0  0  0  0  0  0  0  0
   19.2166  -12.4034  -16.0845 C   0  0  0  0  0  0  0  0  0  0  0  0
   19.2311  -13.8515  -15.8439 C   0  0  0  0  0  0  0  0  0  0  0  0
   20.2455  -14.5629  -15.8170 O   0  0  0  0  0  0  0  0  0  0  0  0
   18.0115  -10.3342  -16.1223 C   0  0  0  0  0  0  0  0  0  0  0  0
   18.3731   -9.7901  -17.1925 O   0  0  0  0  0  0  0  0  0  0  0  0
   18.0052  -14.4822  -15.6273 O   0  0  0  0  0  0  0  0  0  0  0  0
   17.7907   -9.5667  -14.9708 N   0  0  0  0  0  0  0  0  0  0  0  0
   17.8223   -8.1018  -14.9697 C   0  0  1  0  0  0  0  0  0  0  0  0
   16.8816   -7.5689  -13.9147 C   0  0  0  0  0  0  0  0  0  0  0  0
   15.1843   -7.8736  -14.4277 S   0  0  0  0  0  0  0  0  0  0  0  0
   19.2045   -7.7284  -14.5418 C   0  0  0  0  0  0  0  0  0  0  0  0
   19.7118   -8.4123  -13.6178 O   0  0  0  0  0  0  0  0  0  0  0  0
   23.8678   -6.2730  -18.6304 C   0  0  0  0  0  0  0  0  0  0  0  0
   24.7917   -6.4428  -17.1069 S   0  0  0  0  0  0  0  0  0  0  0  0
   23.7117   -6.2621  -15.6332 C   0  0  0  0  0  0  0  0  0  0  0  0
   22.2832   -6.5924  -15.9832 C   0  0  0  0  0  0  0  0  0  0  0  0
   21.3663   -6.4228  -14.8023 C   0  0  2  0  0  0  0  0  0  0  0  0
   19.9820   -6.7056  -15.0643 N   0  0  0  0  0  0  0  0  0  0  0  0
   21.4222   -5.0373  -14.3116 C   0  0  0  0  0  0  0  0  0  0  0  0
   22.4491   -4.6998  -13.4352 O   0  0  0  0  0  0  0  0  0  0  0  0
   20.5947   -4.1589  -14.6450 O   0  0  0  0  0  0  0  0  0  0  0  0
  2  1  1  6
  2  3  1  0
  3  4  1  0
  4  5  2  0
  4  8  1  0
  6  9  1  0
  6  2  1  0
  7  6  2  0
 10 13  1  0
 10  9  1  0
 10 11  1  1
 11 12  1  0
 13 20  1  0
 14 13  2  0
 16 15  1  0
 17 16  1  0
 18 17  1  0
 19 18  1  6
 19 21  1  0
 20 19  1  0
 21 22  1  0
 23 21  2  0
M  END
$$$$
