DCM.pdb
     RDKit          3D

 23 22  0  0  1  0  0  0  0  0999 V2000
   22.1947  -13.5046  -16.7071 N   0  0  0  0  0  0  0  0  0  0  0  0
   22.0176  -12.2152  -17.3140 C   0  0  1  0  0  0  0  0  0  0  0  0
   20.5535  -11.8480  -17.3392 C   0  0  0  0  0  0  0  0  0  0  0  0
   19.7430  -12.7025  -18.2154 C   0  0  0  0  0  0  0  0  0  0  0  0
   20.0034  -12.9676  -19.3977 O   0  0  0  0  0  0  0  0  0  0  0  0
   22.6932  -11.1733  -16.5016 C   0  0  0  0  0  0  0  0  0  0  0  0
   22.2446  -10.9575  -15.3508 O   0  0  0  0  0  0  0  0  0  0  0  0
   18.5842  -13.2642  -17.6774 O   0  0  0  0  0  0  0  0  0  0  0  0
   23.7912  -10.4500  -16.9864 N   0  0  0  0  0  0  0  0  0  0  0  0
   24.5396   -9.4916  -16.1691 C   0  0  1  0  0  0  0  0  0  0  0  0
   26.0229   -9.6862  -16.3789 C   0  0  0  0  0  0  0  0  0  0  0  0
   26.7357  -10.4321  -14.9049 S   0  0  0  0  0  0  0  0  0  0  0  0
   24.2010   -8.1432  -16.7169 C   0  0  0  0  0  0  0  0  0  0  0  0
   24.2888   -8.0033  -17.9625 O   0  0  0  0  0  0  0  0  0  0  0  0
   20.2769   -1.2724  -15.8286 C   0  0  0  0  0  0  0  0  0  0  0  0
   20.8410   -2.8093  -15.1055 S   0  0  0  0  0  0  0  0  0  0  0  0
   22.0467   -3.6691  -16.1910 C   0  0  0  0  0  0  0  0  0  0  0  0
   22.4449   -4.9933  -15.5910 C   0  0  0  0  0  0  0  0  0  0  0  0
   23.3914   -5.7482  -16.4844 C   0  0  2  0  0  0  0  0  0  0  0  0
   23.7977   -7.0340  -15.9883 N   0  0  0  0  0  0  0  0  0  0  0  0
   24.6243   -4.9723  -16.6881 C   0  0  0  0  0  0  0  0  0  0  0  0
   24.6519   -4.0610  -17.7394 O   0  0  0  0  0  0  0  0  0  0  0  0
   25.6384   -5.0955  -15.9641 O   0  0  0  0  0  0  0  0  0  0  0  0
  2  1  1  1
  2  3  1  0
  3  4  1  0
  4  5  2  0
  4  8  1  0
  6  9  1  0
  6  2  1  0
  7  6  2  0
 10 13  1  0
 10  9  1  0
 10 11  1  6
 11 12  1  0
 13 20  1  0
 14 13  2  0
 16 15  1  0
 17 16  1  0
 18 17  1  0
 19 18  1  1
 19 21  1  0
 20 19  1  0
 21 22  1  0
 23 21  2  0
M  END
$$$$
