DCM.pdb
     RDKit          3D

 23 22  0  0  1  0  0  0  0  0999 V2000
   20.1895   -6.4573  -13.9637 N   0  0  0  0  0  0  0  0  0  0  0  0
   18.8445   -6.9589  -13.9240 C   0  0  1  0  0  0  0  0  0  0  0  0
   18.6898   -8.1114  -14.8867 C   0  0  0  0  0  0  0  0  0  0  0  0
   18.2292   -7.7110  -16.2218 C   0  0  0  0  0  0  0  0  0  0  0  0
   18.0884   -6.5426  -16.6103 O   0  0  0  0  0  0  0  0  0  0  0  0
   18.5429   -7.5004  -12.5758 C   0  0  0  0  0  0  0  0  0  0  0  0
   19.3879   -8.2705  -12.0608 O   0  0  0  0  0  0  0  0  0  0  0  0
   17.9242   -8.7253  -17.1306 O   0  0  0  0  0  0  0  0  0  0  0  0
   17.3649   -7.1736  -11.8910 N   0  0  0  0  0  0  0  0  0  0  0  0
   17.0153   -7.7428  -10.5869 C   0  0  1  0  0  0  0  0  0  0  0  0
   16.4894   -6.6575   -9.6774 C   0  0  0  0  0  0  0  0  0  0  0  0
   16.0597   -7.3769   -8.0853 S   0  0  0  0  0  0  0  0  0  0  0  0
   15.8774   -8.6760  -10.8459 C   0  0  0  0  0  0  0  0  0  0  0  0
   14.9077   -8.2139  -11.4979 O   0  0  0  0  0  0  0  0  0  0  0  0
   12.9257  -16.1197  -10.5019 C   0  0  0  0  0  0  0  0  0  0  0  0
   14.3024  -15.0115  -10.2195 S   0  0  0  0  0  0  0  0  0  0  0  0
   13.8625  -13.2701  -10.6002 C   0  0  0  0  0  0  0  0  0  0  0  0
   15.0492  -12.3668  -10.3811 C   0  0  0  0  0  0  0  0  0  0  0  0
   14.7217  -10.9311  -10.6898 C   0  0  2  0  0  0  0  0  0  0  0  0
   15.7869   -9.9995  -10.4408 N   0  0  0  0  0  0  0  0  0  0  0  0
   13.5803  -10.4850   -9.8763 C   0  0  0  0  0  0  0  0  0  0  0  0
   12.3001  -10.7465  -10.3551 O   0  0  0  0  0  0  0  0  0  0  0  0
   13.7101   -9.8869   -8.7841 O   0  0  0  0  0  0  0  0  0  0  0  0
  2  1  1  1
  2  3  1  0
  3  4  1  0
  4  5  2  0
  4  8  1  0
  6  9  1  0
  6  2  1  0
  7  6  2  0
 10 13  1  0
 10  9  1  0
 10 11  1  1
 11 12  1  0
 13 20  1  0
 14 13  2  0
 16 15  1  0
 17 16  1  0
 18 17  1  0
 19 18  1  1
 19 21  1  0
 20 19  1  0
 21 22  1  0
 23 21  2  0
M  END
$$$$
