DCM.pdb
     RDKit          3D

 23 22  0  0  1  0  0  0  0  0999 V2000
   26.0515  -20.2320  -16.1403 N   0  0  0  0  0  0  0  0  0  0  0  0
   26.3772  -20.9832  -14.9605 C   0  0  1  0  0  0  0  0  0  0  0  0
   27.8545  -21.2926  -14.9313 C   0  0  0  0  0  0  0  0  0  0  0  0
   28.2692  -22.2987  -15.9167 C   0  0  0  0  0  0  0  0  0  0  0  0
   29.4130  -22.7622  -16.0290 O   0  0  0  0  0  0  0  0  0  0  0  0
   26.0983  -20.1736  -13.7486 C   0  0  0  0  0  0  0  0  0  0  0  0
   26.4305  -18.9648  -13.7730 O   0  0  0  0  0  0  0  0  0  0  0  0
   27.2996  -22.7746  -16.8005 O   0  0  0  0  0  0  0  0  0  0  0  0
   25.4877  -20.7229  -12.6132 N   0  0  0  0  0  0  0  0  0  0  0  0
   25.0759  -19.9183  -11.4601 C   0  0  1  0  0  0  0  0  0  0  0  0
   23.5715  -19.9449  -11.3265 C   0  0  0  0  0  0  0  0  0  0  0  0
   22.9743  -21.6014  -11.6955 S   0  0  0  0  0  0  0  0  0  0  0  0
   25.6267  -20.6198  -10.2612 C   0  0  0  0  0  0  0  0  0  0  0  0
   25.6936  -21.8730  -10.3236 O   0  0  0  0  0  0  0  0  0  0  0  0
   28.7677  -17.8144   -5.2049 C   0  0  0  0  0  0  0  0  0  0  0  0
   28.4889  -19.4312   -4.4897 S   0  0  0  0  0  0  0  0  0  0  0  0
   27.5585  -20.5280   -5.6309 C   0  0  0  0  0  0  0  0  0  0  0  0
   27.2704  -19.8161   -6.9279 C   0  0  0  0  0  0  0  0  0  0  0  0
   26.4495  -20.6656   -7.8598 C   0  0  2  0  0  0  0  0  0  0  0  0
   26.0729  -20.0256   -9.0900 N   0  0  0  0  0  0  0  0  0  0  0  0
   25.1982  -21.0747   -7.2037 C   0  0  0  0  0  0  0  0  0  0  0  0
   25.2661  -22.0831   -6.2472 O   0  0  0  0  0  0  0  0  0  0  0  0
   24.0874  -20.5600   -7.4661 O   0  0  0  0  0  0  0  0  0  0  0  0
  2  1  1  6
  2  3  1  0
  3  4  1  0
  4  5  2  0
  4  8  1  0
  6  9  1  0
  6  2  1  0
  7  6  2  0
 10 13  1  0
 10  9  1  0
 10 11  1  1
 11 12  1  0
 13 20  1  0
 14 13  2  0
 16 15  1  0
 17 16  1  0
 18 17  1  0
 19 18  1  1
 19 21  1  0
 20 19  1  0
 21 22  1  0
 23 21  2  0
M  END
$$$$
