DCM.pdb
     RDKit          3D

 23 22  0  0  1  0  0  0  0  0999 V2000
   15.5744   -3.1158   -8.8907 N   0  0  0  0  0  0  0  0  0  0  0  0
   15.4895   -4.4721   -8.4267 C   0  0  1  0  0  0  0  0  0  0  0  0
   14.1188   -4.7422   -7.8547 C   0  0  0  0  0  0  0  0  0  0  0  0
   13.8300   -3.9910   -6.6271 C   0  0  0  0  0  0  0  0  0  0  0  0
   12.8921   -4.2212   -5.8504 O   0  0  0  0  0  0  0  0  0  0  0  0
   15.6575   -5.4104   -9.5639 C   0  0  0  0  0  0  0  0  0  0  0  0
   15.1548   -5.0798  -10.6640 O   0  0  0  0  0  0  0  0  0  0  0  0
   14.6781   -2.9306   -6.3045 O   0  0  0  0  0  0  0  0  0  0  0  0
   16.3483   -6.6223   -9.4307 N   0  0  0  0  0  0  0  0  0  0  0  0
   16.5452   -7.5555  -10.5429 C   0  0  1  0  0  0  0  0  0  0  0  0
   18.0189   -7.8326  -10.7257 C   0  0  0  0  0  0  0  0  0  0  0  0
   18.2284   -9.1329  -11.9513 S   0  0  0  0  0  0  0  0  0  0  0  0
   15.9166   -8.8396  -10.1084 C   0  0  0  0  0  0  0  0  0  0  0  0
   16.2471   -9.2734   -8.9764 O   0  0  0  0  0  0  0  0  0  0  0  0
    9.4504  -13.1437   -9.3385 C   0  0  0  0  0  0  0  0  0  0  0  0
   10.2917  -11.6592   -9.8787 S   0  0  0  0  0  0  0  0  0  0  0  0
   12.1154  -11.8710   -9.8732 C   0  0  0  0  0  0  0  0  0  0  0  0
   12.7948  -10.6000  -10.3148 C   0  0  0  0  0  0  0  0  0  0  0  0
   14.2880  -10.7656  -10.3977 C   0  0  2  0  0  0  0  0  0  0  0  0
   15.0045   -9.5969  -10.8283 N   0  0  0  0  0  0  0  0  0  0  0  0
   14.6277  -11.8356  -11.3481 C   0  0  0  0  0  0  0  0  0  0  0  0
   14.7607  -13.1282  -10.8503 O   0  0  0  0  0  0  0  0  0  0  0  0
   14.8003  -11.6350  -12.5719 O   0  0  0  0  0  0  0  0  0  0  0  0
  2  1  1  6
  2  3  1  0
  3  4  1  0
  4  5  2  0
  4  8  1  0
  6  9  1  0
  6  2  1  0
  7  6  2  0
 10 13  1  0
 10  9  1  0
 10 11  1  1
 11 12  1  0
 13 20  1  0
 14 13  2  0
 16 15  1  0
 17 16  1  0
 18 17  1  0
 19 18  1  6
 19 21  1  0
 20 19  1  0
 21 22  1  0
 23 21  2  0
M  END
$$$$
