DCM.pdb
     RDKit          3D

 23 22  0  0  1  0  0  0  0  0999 V2000
   15.6285  -12.2181  -17.9420 N   0  0  0  0  0  0  0  0  0  0  0  0
   15.7777  -11.1680  -16.9739 C   0  0  1  0  0  0  0  0  0  0  0  0
   16.0074  -11.7534  -15.6015 C   0  0  0  0  0  0  0  0  0  0  0  0
   14.8195  -12.3936  -15.0235 C   0  0  0  0  0  0  0  0  0  0  0  0
   13.6792  -11.9083  -15.0106 O   0  0  0  0  0  0  0  0  0  0  0  0
   16.9797  -10.3556  -17.2855 C   0  0  0  0  0  0  0  0  0  0  0  0
   18.0189  -10.9693  -17.6254 O   0  0  0  0  0  0  0  0  0  0  0  0
   14.9830  -13.6509  -14.4404 O   0  0  0  0  0  0  0  0  0  0  0  0
   16.9705   -8.9564  -17.2083 N   0  0  0  0  0  0  0  0  0  0  0  0
   18.1246   -8.1293  -17.5695 C   0  0  1  0  0  0  0  0  0  0  0  0
   17.6578   -6.8723  -18.2651 C   0  0  0  0  0  0  0  0  0  0  0  0
   19.0797   -5.8270  -18.6147 S   0  0  0  0  0  0  0  0  0  0  0  0
   18.7363   -7.7025  -16.2746 C   0  0  0  0  0  0  0  0  0  0  0  0
   17.9443   -7.3232  -15.3759 O   0  0  0  0  0  0  0  0  0  0  0  0
   22.4130   -8.8547  -10.3761 C   0  0  0  0  0  0  0  0  0  0  0  0
   21.9239   -9.0316  -12.0886 S   0  0  0  0  0  0  0  0  0  0  0  0
   22.6018   -7.6817  -13.1321 C   0  0  0  0  0  0  0  0  0  0  0  0
   22.1230   -7.8239  -14.5544 C   0  0  0  0  0  0  0  0  0  0  0  0
   20.7083   -7.3385  -14.7176 C   0  0  2  0  0  0  0  0  0  0  0  0
   20.0885   -7.6862  -15.9665 N   0  0  0  0  0  0  0  0  0  0  0  0
   20.6615   -5.8713  -14.6244 C   0  0  0  0  0  0  0  0  0  0  0  0
   20.3106   -5.3092  -13.4007 O   0  0  0  0  0  0  0  0  0  0  0  0
   20.9211   -5.1153  -15.5881 O   0  0  0  0  0  0  0  0  0  0  0  0
  2  1  1  6
  2  3  1  0
  3  4  1  0
  4  5  2  0
  4  8  1  0
  6  9  1  0
  6  2  1  0
  7  6  2  0
 10 13  1  0
 10  9  1  0
 10 11  1  1
 11 12  1  0
 13 20  1  0
 14 13  2  0
 16 15  1  0
 17 16  1  0
 18 17  1  0
 19 18  1  6
 19 21  1  0
 20 19  1  0
 21 22  1  0
 23 21  2  0
M  END
$$$$
