DCM.pdb
     RDKit          3D

 23 22  0  0  1  0  0  0  0  0999 V2000
   18.1969  -12.8481  -16.4759 N   0  0  0  0  0  0  0  0  0  0  0  0
   18.1381  -11.4203  -16.6189 C   0  0  1  0  0  0  0  0  0  0  0  0
   16.7959  -10.9056  -16.1581 C   0  0  0  0  0  0  0  0  0  0  0  0
   15.6859  -11.2625  -17.0500 C   0  0  0  0  0  0  0  0  0  0  0  0
   15.5889  -10.9318  -18.2404 O   0  0  0  0  0  0  0  0  0  0  0  0
   19.1514  -10.7793  -15.7448 C   0  0  0  0  0  0  0  0  0  0  0  0
   19.3362  -11.2815  -14.6109 O   0  0  0  0  0  0  0  0  0  0  0  0
   14.6539  -12.0371  -16.5183 O   0  0  0  0  0  0  0  0  0  0  0  0
   19.8821   -9.6562  -16.1553 N   0  0  0  0  0  0  0  0  0  0  0  0
   21.0019   -9.1074  -15.3861 C   0  0  1  0  0  0  0  0  0  0  0  0
   22.1613   -8.8107  -16.3078 C   0  0  0  0  0  0  0  0  0  0  0  0
   23.4496   -7.9611  -15.3829 S   0  0  0  0  0  0  0  0  0  0  0  0
   20.5239   -7.7933  -14.8592 C   0  0  0  0  0  0  0  0  0  0  0  0
   19.9162   -7.0495  -15.6693 O   0  0  0  0  0  0  0  0  0  0  0  0
   17.8883   -3.4675   -8.7679 C   0  0  0  0  0  0  0  0  0  0  0  0
   18.4120   -5.0428   -9.4368 S   0  0  0  0  0  0  0  0  0  0  0  0
   19.2221   -4.8509  -11.0732 C   0  0  0  0  0  0  0  0  0  0  0  0
   19.6361   -6.1945  -11.6170 C   0  0  0  0  0  0  0  0  0  0  0  0
   20.1915   -6.0847  -13.0110 C   0  0  2  0  0  0  0  0  0  0  0  0
   20.6821   -7.3157  -13.5667 N   0  0  0  0  0  0  0  0  0  0  0  0
   21.3181   -5.1393  -13.0352 C   0  0  0  0  0  0  0  0  0  0  0  0
   21.0305   -3.7911  -13.2254 O   0  0  0  0  0  0  0  0  0  0  0  0
   22.5111   -5.4920  -12.8936 O   0  0  0  0  0  0  0  0  0  0  0  0
  2  1  1  1
  2  3  1  0
  3  4  1  0
  4  5  2  0
  4  8  1  0
  6  9  1  0
  6  2  1  0
  7  6  2  0
 10 13  1  0
 10  9  1  0
 10 11  1  6
 11 12  1  0
 13 20  1  0
 14 13  2  0
 16 15  1  0
 17 16  1  0
 18 17  1  0
 19 18  1  1
 19 21  1  0
 20 19  1  0
 21 22  1  0
 23 21  2  0
M  END
$$$$
