HVM.pdb
     RDKit          3D

 26 26  0  0  1  0  0  0  0  0999 V2000
    7.9560  -17.3014   19.2996 N   0  0  0  0  0  0  0  0  0  0  0  0
    8.4973  -16.3708   20.2720 C   0  0  1  0  0  0  0  0  0  0  0  0
    7.5398  -15.1826   20.2965 C   0  0  0  0  0  0  0  0  0  0  0  0
    7.8731  -14.3523   19.0874 C   0  0  0  0  0  0  0  0  0  0  0  0
    8.7855  -13.3192   19.0439 C   0  0  0  0  0  0  0  0  0  0  0  0
    8.7860  -12.8411   17.7868 N   0  0  0  0  0  0  0  0  0  0  0  0
    7.9139  -13.5293   17.0405 C   0  0  0  0  0  0  0  0  0  0  0  0
    7.3655  -14.4449   17.8420 N   0  0  0  0  0  0  0  0  0  0  0  0
    8.5915  -16.9976   21.6154 C   0  0  0  0  0  0  0  0  0  0  0  0
    7.5980  -17.4984   22.1948 O   0  0  0  0  0  0  0  0  0  0  0  0
   11.5073  -19.3392   22.4291 C   0  0  0  0  0  0  0  0  0  0  0  0
   11.4252  -18.2748   23.4862 C   0  0  2  0  0  0  0  0  0  0  0  0
   11.8236  -18.8619   24.8451 C   0  0  0  0  0  0  0  0  0  0  0  0
   10.0463  -17.6299   23.5864 C   0  0  2  0  0  0  0  0  0  0  0  0
    9.8378  -17.0284   22.2550 N   0  0  0  0  0  0  0  0  0  0  0  0
   10.0422  -16.4822   24.5454 C   0  0  0  0  0  0  0  0  0  0  0  0
   11.1395  -15.9209   24.8908 O   0  0  0  0  0  0  0  0  0  0  0  0
    5.8856  -11.6451   25.9309 C   0  0  0  0  0  0  0  0  0  0  0  0
    6.6399  -11.9249   27.5371 S   0  0  0  0  0  0  0  0  0  0  0  0
    7.8724  -13.2235   27.5131 C   0  0  0  0  0  0  0  0  0  0  0  0
    7.7112  -14.1619   26.3374 C   0  0  0  0  0  0  0  0  0  0  0  0
    8.9782  -14.9674   26.1672 C   0  0  2  0  0  0  0  0  0  0  0  0
    8.8549  -15.9546   25.1180 N   0  0  0  0  0  0  0  0  0  0  0  0
    9.3610  -15.6243   27.4546 C   0  0  0  0  0  0  0  0  0  0  0  0
   10.0246  -14.9502   28.4556 O   0  0  0  0  0  0  0  0  0  0  0  0
    9.0720  -16.8330   27.6404 O   0  0  0  0  0  0  0  0  0  0  0  0
  2  1  1  6
  3  2  1  0
  4  8  1  0
  4  3  1  0
  5  4  2  0
  6  5  1  0
  6  7  1  0
  7  8  2  0
  9  2  1  0
  9 10  2  0
 12 13  1  1
 12 11  1  0
 12 14  1  0
 14 15  1  6
 15  9  1  0
 16 14  1  0
 17 16  2  0
 18 19  1  0
 20 19  1  0
 20 21  1  0
 22 21  1  1
 22 23  1  0
 22 24  1  0
 23 16  1  0
 24 26  2  0
 24 25  1  0
M  END
$$$$
