HVM.pdb
     RDKit          3D

 26 26  0  0  1  0  0  0  0  0999 V2000
   10.6306  -18.7770   19.1489 N   0  0  0  0  0  0  0  0  0  0  0  0
   10.9611  -17.7387   20.1067 C   0  0  1  0  0  0  0  0  0  0  0  0
   11.2372  -16.4815   19.2867 C   0  0  0  0  0  0  0  0  0  0  0  0
   12.5976  -16.6723   18.6744 C   0  0  0  0  0  0  0  0  0  0  0  0
   13.8047  -16.4931   19.3168 C   0  0  0  0  0  0  0  0  0  0  0  0
   14.7744  -16.7628   18.4247 N   0  0  0  0  0  0  0  0  0  0  0  0
   14.2281  -17.1030   17.2514 C   0  0  0  0  0  0  0  0  0  0  0  0
   12.9048  -17.0444   17.4156 N   0  0  0  0  0  0  0  0  0  0  0  0
    9.8409  -17.5119   21.0554 C   0  0  0  0  0  0  0  0  0  0  0  0
    8.6911  -17.1872   20.6730 O   0  0  0  0  0  0  0  0  0  0  0  0
    7.2224  -19.3258   24.1867 C   0  0  0  0  0  0  0  0  0  0  0  0
    8.3098  -19.0327   23.1923 C   0  0  2  0  0  0  0  0  0  0  0  0
    9.3420  -20.1660   23.2039 C   0  0  0  0  0  0  0  0  0  0  0  0
    9.0059  -17.6975   23.4366 C   0  0  2  0  0  0  0  0  0  0  0  0
   10.0818  -17.6677   22.4270 N   0  0  0  0  0  0  0  0  0  0  0  0
    9.7026  -17.6722   24.7598 C   0  0  0  0  0  0  0  0  0  0  0  0
   10.7681  -18.3567   24.9456 O   0  0  0  0  0  0  0  0  0  0  0  0
   11.1511  -13.0946   29.2846 C   0  0  0  0  0  0  0  0  0  0  0  0
   10.8359  -13.6964   27.6217 S   0  0  0  0  0  0  0  0  0  0  0  0
    9.3281  -14.6544   27.4997 C   0  0  0  0  0  0  0  0  0  0  0  0
    9.4490  -16.0201   28.1395 C   0  0  0  0  0  0  0  0  0  0  0  0
    9.9610  -17.0053   27.1147 C   0  0  2  0  0  0  0  0  0  0  0  0
    9.2415  -16.9084   25.8642 N   0  0  0  0  0  0  0  0  0  0  0  0
    9.8914  -18.4011   27.6459 C   0  0  0  0  0  0  0  0  0  0  0  0
    8.8259  -19.2344   27.3873 O   0  0  0  0  0  0  0  0  0  0  0  0
   10.8324  -18.8394   28.3540 O   0  0  0  0  0  0  0  0  0  0  0  0
  2  1  1  6
  3  2  1  0
  4  8  1  0
  4  3  1  0
  5  4  2  0
  6  5  1  0
  6  7  1  0
  7  8  2  0
  9  2  1  0
  9 10  2  0
 12 13  1  1
 12 11  1  0
 12 14  1  0
 14 15  1  6
 15  9  1  0
 16 14  1  0
 17 16  2  0
 18 19  1  0
 20 19  1  0
 20 21  1  0
 22 21  1  1
 22 23  1  0
 22 24  1  0
 23 16  1  0
 24 26  2  0
 24 25  1  0
M  END
$$$$
