HVM.pdb
     RDKit          3D

 26 26  0  0  1  0  0  0  0  0999 V2000
   11.7964  -17.6304   18.6994 N   0  0  0  0  0  0  0  0  0  0  0  0
   10.8154  -17.8882   19.7365 C   0  0  1  0  0  0  0  0  0  0  0  0
   11.3926  -19.0124   20.5923 C   0  0  0  0  0  0  0  0  0  0  0  0
   11.2000  -20.2787   19.8040 C   0  0  0  0  0  0  0  0  0  0  0  0
   12.1978  -21.1479   19.4158 C   0  0  0  0  0  0  0  0  0  0  0  0
   11.6116  -22.1481   18.7340 N   0  0  0  0  0  0  0  0  0  0  0  0
   10.2902  -21.9438   18.6777 C   0  0  0  0  0  0  0  0  0  0  0  0
   10.0523  -20.8047   19.3314 N   0  0  0  0  0  0  0  0  0  0  0  0
   10.5749  -16.6736   20.5571 C   0  0  0  0  0  0  0  0  0  0  0  0
   11.4977  -15.8891   20.8836 O   0  0  0  0  0  0  0  0  0  0  0  0
    7.9000  -14.1802   19.5901 C   0  0  0  0  0  0  0  0  0  0  0  0
    7.6360  -14.6871   20.9795 C   0  0  2  0  0  0  0  0  0  0  0  0
    6.9481  -13.5956   21.8075 C   0  0  0  0  0  0  0  0  0  0  0  0
    8.8953  -15.1632   21.6968 C   0  0  2  0  0  0  0  0  0  0  0  0
    9.2676  -16.3980   20.9796 N   0  0  0  0  0  0  0  0  0  0  0  0
    8.6027  -15.5919   23.0996 C   0  0  0  0  0  0  0  0  0  0  0  0
    8.4856  -16.8336   23.3878 O   0  0  0  0  0  0  0  0  0  0  0  0
    7.0463  -10.6391   26.5128 C   0  0  0  0  0  0  0  0  0  0  0  0
    6.2814  -12.0656   27.2920 S   0  0  0  0  0  0  0  0  0  0  0  0
    6.5440  -13.5840   26.3800 C   0  0  0  0  0  0  0  0  0  0  0  0
    7.9584  -14.1060   26.5071 C   0  0  0  0  0  0  0  0  0  0  0  0
    8.1758  -15.2041   25.4921 C   0  0  2  0  0  0  0  0  0  0  0  0
    8.4416  -14.6761   24.1725 N   0  0  0  0  0  0  0  0  0  0  0  0
    6.9994  -16.1261   25.4542 C   0  0  0  0  0  0  0  0  0  0  0  0
    6.8146  -17.1216   26.3878 O   0  0  0  0  0  0  0  0  0  0  0  0
    6.1434  -15.9971   24.5434 O   0  0  0  0  0  0  0  0  0  0  0  0
  2  1  1  6
  3  2  1  0
  4  8  1  0
  4  3  1  0
  5  4  2  0
  6  5  1  0
  6  7  1  0
  7  8  2  0
  9  2  1  0
  9 10  2  0
 12 13  1  1
 12 11  1  0
 12 14  1  0
 14 15  1  6
 15  9  1  0
 16 14  1  0
 17 16  2  0
 18 19  1  0
 20 19  1  0
 20 21  1  0
 22 21  1  1
 22 23  1  0
 22 24  1  0
 23 16  1  0
 24 26  2  0
 24 25  1  0
M  END
$$$$
