HVM.pdb
     RDKit          3D

 26 26  0  0  1  0  0  0  0  0999 V2000
   11.2767  -17.1788   18.0281 N   0  0  0  0  0  0  0  0  0  0  0  0
   10.4731  -17.5362   19.1818 C   0  0  1  0  0  0  0  0  0  0  0  0
   11.3072  -18.5309   19.9844 C   0  0  0  0  0  0  0  0  0  0  0  0
   11.3723  -19.7851   19.1569 C   0  0  0  0  0  0  0  0  0  0  0  0
   10.7808  -19.9715   17.9251 C   0  0  0  0  0  0  0  0  0  0  0  0
   11.0763  -21.2216   17.5265 N   0  0  0  0  0  0  0  0  0  0  0  0
   11.8271  -21.8269   18.4545 C   0  0  0  0  0  0  0  0  0  0  0  0
   12.0002  -20.9439   19.4403 N   0  0  0  0  0  0  0  0  0  0  0  0
   10.1522  -16.3387   20.0000 C   0  0  0  0  0  0  0  0  0  0  0  0
   10.9699  -15.4031   20.1722 O   0  0  0  0  0  0  0  0  0  0  0  0
    6.1067  -15.8130   20.7764 C   0  0  0  0  0  0  0  0  0  0  0  0
    7.1163  -14.7003   20.7735 C   0  0  2  0  0  0  0  0  0  0  0  0
    7.3412  -14.2082   19.3392 C   0  0  0  0  0  0  0  0  0  0  0  0
    8.4502  -15.0952   21.3994 C   0  0  2  0  0  0  0  0  0  0  0  0
    8.8885  -16.2554   20.5996 N   0  0  0  0  0  0  0  0  0  0  0  0
    8.2745  -15.6158   22.7905 C   0  0  0  0  0  0  0  0  0  0  0  0
    8.8695  -16.6861   23.1631 O   0  0  0  0  0  0  0  0  0  0  0  0
    8.2309  -11.0895   28.0991 C   0  0  0  0  0  0  0  0  0  0  0  0
    7.2632  -12.5776   28.3751 S   0  0  0  0  0  0  0  0  0  0  0  0
    7.8018  -13.9575   27.3691 C   0  0  0  0  0  0  0  0  0  0  0  0
    7.2851  -13.8834   25.9491 C   0  0  0  0  0  0  0  0  0  0  0  0
    7.8795  -15.0158   25.1444 C   0  0  2  0  0  0  0  0  0  0  0  0
    7.4604  -14.9747   23.7611 N   0  0  0  0  0  0  0  0  0  0  0  0
    7.5282  -16.3352   25.7535 C   0  0  0  0  0  0  0  0  0  0  0  0
    8.2612  -16.8908   26.7785 O   0  0  0  0  0  0  0  0  0  0  0  0
    6.5314  -16.9677   25.3230 O   0  0  0  0  0  0  0  0  0  0  0  0
  2  1  1  6
  3  2  1  0
  4  8  1  0
  4  3  1  0
  5  4  2  0
  6  5  1  0
  6  7  1  0
  7  8  2  0
  9  2  1  0
  9 10  2  0
 12 13  1  6
 12 11  1  0
 12 14  1  0
 14 15  1  6
 15  9  1  0
 16 14  1  0
 17 16  2  0
 18 19  1  0
 20 19  1  0
 20 21  1  0
 22 21  1  1
 22 23  1  0
 22 24  1  0
 23 16  1  0
 24 26  2  0
 24 25  1  0
M  END
$$$$
