HVM.pdb
     RDKit          3D

 26 26  0  0  1  0  0  0  0  0999 V2000
   11.9796  -18.0745   18.7834 N   0  0  0  0  0  0  0  0  0  0  0  0
   11.0616  -18.1147   19.9060 C   0  0  1  0  0  0  0  0  0  0  0  0
   11.7735  -18.8997   21.0044 C   0  0  0  0  0  0  0  0  0  0  0  0
   11.5975  -20.3533   20.6602 C   0  0  0  0  0  0  0  0  0  0  0  0
   12.2683  -21.0348   19.6666 C   0  0  0  0  0  0  0  0  0  0  0  0
   11.8250  -22.3044   19.6855 N   0  0  0  0  0  0  0  0  0  0  0  0
   10.9056  -22.4485   20.6472 C   0  0  0  0  0  0  0  0  0  0  0  0
   10.7760  -21.2560   21.2326 N   0  0  0  0  0  0  0  0  0  0  0  0
   10.7279  -16.7442   20.3716 C   0  0  0  0  0  0  0  0  0  0  0  0
   11.5578  -15.8040   20.3442 O   0  0  0  0  0  0  0  0  0  0  0  0
    7.7944  -14.8590   19.0356 C   0  0  0  0  0  0  0  0  0  0  0  0
    7.6393  -14.9992   20.5234 C   0  0  2  0  0  0  0  0  0  0  0  0
    6.8781  -13.7912   21.0813 C   0  0  0  0  0  0  0  0  0  0  0  0
    8.9683  -15.1556   21.2557 C   0  0  2  0  0  0  0  0  0  0  0  0
    9.4373  -16.4972   20.8584 N   0  0  0  0  0  0  0  0  0  0  0  0
    8.7771  -15.2248   22.7375 C   0  0  0  0  0  0  0  0  0  0  0  0
    9.1405  -16.2636   23.3911 O   0  0  0  0  0  0  0  0  0  0  0  0
    7.5084  -10.5170   27.6040 C   0  0  0  0  0  0  0  0  0  0  0  0
    6.5949  -12.0230   27.9566 S   0  0  0  0  0  0  0  0  0  0  0  0
    7.2100  -13.4408   27.0524 C   0  0  0  0  0  0  0  0  0  0  0  0
    7.4044  -13.1561   25.5792 C   0  0  0  0  0  0  0  0  0  0  0  0
    8.0159  -14.3680   24.9154 C   0  0  2  0  0  0  0  0  0  0  0  0
    8.1977  -14.1725   23.4943 N   0  0  0  0  0  0  0  0  0  0  0  0
    7.1827  -15.5833   25.1691 C   0  0  0  0  0  0  0  0  0  0  0  0
    7.5380  -16.5386   26.0953 O   0  0  0  0  0  0  0  0  0  0  0  0
    6.1194  -15.7489   24.5203 O   0  0  0  0  0  0  0  0  0  0  0  0
  2  1  1  6
  3  2  1  0
  4  8  1  0
  4  3  1  0
  5  4  2  0
  6  5  1  0
  6  7  1  0
  7  8  2  0
  9  2  1  0
  9 10  2  0
 12 13  1  1
 12 11  1  0
 12 14  1  0
 14 15  1  6
 15  9  1  0
 16 14  1  0
 17 16  2  0
 18 19  1  0
 20 19  1  0
 20 21  1  0
 22 21  1  6
 22 23  1  0
 22 24  1  0
 23 16  1  0
 24 26  2  0
 24 25  1  0
M  END
$$$$
