HVM.pdb
     RDKit          3D

 26 26  0  0  1  0  0  0  0  0999 V2000
   12.5279  -16.6709   19.7703 N   0  0  0  0  0  0  0  0  0  0  0  0
   11.6510  -17.4155   20.6541 C   0  0  1  0  0  0  0  0  0  0  0  0
   12.4626  -18.6120   21.1430 C   0  0  0  0  0  0  0  0  0  0  0  0
   12.3535  -19.6582   20.0680 C   0  0  0  0  0  0  0  0  0  0  0  0
   11.3511  -20.5986   19.9551 C   0  0  0  0  0  0  0  0  0  0  0  0
   11.6214  -21.3399   18.8660 N   0  0  0  0  0  0  0  0  0  0  0  0
   12.7492  -20.9055   18.2913 C   0  0  0  0  0  0  0  0  0  0  0  0
   13.1848  -19.8833   19.0308 N   0  0  0  0  0  0  0  0  0  0  0  0
   11.2096  -16.5771   21.7981 C   0  0  0  0  0  0  0  0  0  0  0  0
   11.9747  -15.7645   22.3708 O   0  0  0  0  0  0  0  0  0  0  0  0
    7.8884  -14.6219   21.7765 C   0  0  0  0  0  0  0  0  0  0  0  0
    7.9299  -15.5725   22.9392 C   0  0  2  0  0  0  0  0  0  0  0  0
    7.1493  -14.9825   24.1193 C   0  0  0  0  0  0  0  0  0  0  0  0
    9.3473  -15.9229   23.3809 C   0  0  2  0  0  0  0  0  0  0  0  0
    9.8894  -16.7019   22.2508 N   0  0  0  0  0  0  0  0  0  0  0  0
    9.3463  -16.8615   24.5455 C   0  0  0  0  0  0  0  0  0  0  0  0
    9.0711  -18.1006   24.3803 O   0  0  0  0  0  0  0  0  0  0  0  0
   10.6371  -12.5790   28.0093 C   0  0  0  0  0  0  0  0  0  0  0  0
    9.7989  -14.1629   28.1349 S   0  0  0  0  0  0  0  0  0  0  0  0
   10.9120  -15.5565   27.9761 C   0  0  0  0  0  0  0  0  0  0  0  0
   10.2257  -16.8838   28.2134 C   0  0  0  0  0  0  0  0  0  0  0  0
    9.8041  -17.4695   26.8859 C   0  0  2  0  0  0  0  0  0  0  0  0
    9.6432  -16.4514   25.8719 N   0  0  0  0  0  0  0  0  0  0  0  0
    8.5416  -18.2565   27.0352 C   0  0  0  0  0  0  0  0  0  0  0  0
    8.4735  -19.4000   27.7997 O   0  0  0  0  0  0  0  0  0  0  0  0
    7.5005  -17.8701   26.4470 O   0  0  0  0  0  0  0  0  0  0  0  0
  2  1  1  6
  3  2  1  0
  4  8  1  0
  4  3  1  0
  5  4  2  0
  6  5  1  0
  6  7  1  0
  7  8  2  0
  9  2  1  0
  9 10  2  0
 12 13  1  1
 12 11  1  0
 12 14  1  0
 14 15  1  6
 15  9  1  0
 16 14  1  0
 17 16  2  0
 18 19  1  0
 20 19  1  0
 20 21  1  0
 22 21  1  1
 22 23  1  0
 22 24  1  0
 23 16  1  0
 24 26  2  0
 24 25  1  0
M  END
$$$$
