HVM.pdb
     RDKit          3D

 26 26  0  0  1  0  0  0  0  0999 V2000
   11.7592  -17.3375   18.5028 N   0  0  0  0  0  0  0  0  0  0  0  0
   10.7374  -17.6481   19.4846 C   0  0  1  0  0  0  0  0  0  0  0  0
   11.2689  -18.8339   20.2851 C   0  0  0  0  0  0  0  0  0  0  0  0
   10.8536  -20.0670   19.5306 C   0  0  0  0  0  0  0  0  0  0  0  0
   10.1288  -20.0903   18.3577 C   0  0  0  0  0  0  0  0  0  0  0  0
    9.9694  -21.3806   18.0136 N   0  0  0  0  0  0  0  0  0  0  0  0
   10.5625  -22.1671   18.9195 C   0  0  0  0  0  0  0  0  0  0  0  0
   11.0963  -21.3574   19.8364 N   0  0  0  0  0  0  0  0  0  0  0  0
   10.4814  -16.4861   20.3739 C   0  0  0  0  0  0  0  0  0  0  0  0
   11.4002  -15.7347   20.7798 O   0  0  0  0  0  0  0  0  0  0  0  0
    7.6418  -13.9918   19.6357 C   0  0  0  0  0  0  0  0  0  0  0  0
    7.4780  -14.5829   21.0072 C   0  0  2  0  0  0  0  0  0  0  0  0
    6.8253  -13.5560   21.9396 C   0  0  0  0  0  0  0  0  0  0  0  0
    8.7898  -15.0710   21.6137 C   0  0  2  0  0  0  0  0  0  0  0  0
    9.1637  -16.2236   20.7715 N   0  0  0  0  0  0  0  0  0  0  0  0
    8.5887  -15.6309   22.9860 C   0  0  0  0  0  0  0  0  0  0  0  0
    8.4460  -16.8912   23.1584 O   0  0  0  0  0  0  0  0  0  0  0  0
    5.9562  -10.9594   27.3338 C   0  0  0  0  0  0  0  0  0  0  0  0
    7.1816  -12.2352   27.6466 S   0  0  0  0  0  0  0  0  0  0  0  0
    7.3000  -13.4305   26.3187 C   0  0  0  0  0  0  0  0  0  0  0  0
    8.3528  -14.4866   26.5740 C   0  0  0  0  0  0  0  0  0  0  0  0
    8.3528  -15.4747   25.4308 C   0  0  2  0  0  0  0  0  0  0  0  0
    8.5454  -14.8245   24.1537 N   0  0  0  0  0  0  0  0  0  0  0  0
    7.0864  -16.2693   25.4221 C   0  0  0  0  0  0  0  0  0  0  0  0
    6.9043  -17.3721   26.2267 O   0  0  0  0  0  0  0  0  0  0  0  0
    6.1490  -15.9280   24.6580 O   0  0  0  0  0  0  0  0  0  0  0  0
  2  1  1  6
  3  2  1  0
  4  8  1  0
  4  3  1  0
  5  4  2  0
  6  5  1  0
  6  7  1  0
  7  8  2  0
  9  2  1  0
  9 10  2  0
 12 13  1  1
 12 11  1  0
 12 14  1  0
 14 15  1  6
 15  9  1  0
 16 14  1  0
 17 16  2  0
 18 19  1  0
 20 19  1  0
 20 21  1  0
 22 21  1  1
 22 23  1  0
 22 24  1  0
 23 16  1  0
 24 26  2  0
 24 25  1  0
M  END
$$$$
