HVM.pdb
     RDKit          3D

 26 26  0  0  1  0  0  0  0  0999 V2000
   10.0423  -16.3288   19.8521 N   0  0  0  0  0  0  0  0  0  0  0  0
    9.1077  -16.5802   20.9327 C   0  0  1  0  0  0  0  0  0  0  0  0
    9.1444  -18.0859   21.1798 C   0  0  0  0  0  0  0  0  0  0  0  0
    8.4585  -18.7196   20.0007 C   0  0  0  0  0  0  0  0  0  0  0  0
    7.9900  -18.0559   18.8864 C   0  0  0  0  0  0  0  0  0  0  0  0
    7.4470  -18.9785   18.0723 N   0  0  0  0  0  0  0  0  0  0  0  0
    7.5545  -20.1914   18.6276 C   0  0  0  0  0  0  0  0  0  0  0  0
    8.1709  -20.0211   19.7992 N   0  0  0  0  0  0  0  0  0  0  0  0
    9.4969  -15.8369   22.1585 C   0  0  0  0  0  0  0  0  0  0  0  0
   10.6846  -15.5134   22.4000 O   0  0  0  0  0  0  0  0  0  0  0  0
    7.0683  -13.1568   23.9463 C   0  0  0  0  0  0  0  0  0  0  0  0
    7.4791  -14.2903   24.8427 C   0  0  2  0  0  0  0  0  0  0  0  0
    7.5921  -13.7931   26.2883 C   0  0  0  0  0  0  0  0  0  0  0  0
    8.7881  -14.9495   24.4193 C   0  0  2  0  0  0  0  0  0  0  0  0
    8.4974  -15.4863   23.0758 N   0  0  0  0  0  0  0  0  0  0  0  0
    9.1034  -16.1429   25.2638 C   0  0  0  0  0  0  0  0  0  0  0  0
    9.2256  -17.3007   24.7318 O   0  0  0  0  0  0  0  0  0  0  0  0
   10.2392  -13.2290   31.4001 C   0  0  0  0  0  0  0  0  0  0  0  0
   11.2922  -14.0905   30.2271 S   0  0  0  0  0  0  0  0  0  0  0  0
   10.3860  -15.2188   29.1728 C   0  0  0  0  0  0  0  0  0  0  0  0
   11.2558  -15.8531   28.1097 C   0  0  0  0  0  0  0  0  0  0  0  0
   10.4089  -16.7667   27.2547 C   0  0  2  0  0  0  0  0  0  0  0  0
    9.2837  -16.0715   26.6703 N   0  0  0  0  0  0  0  0  0  0  0  0
    9.9364  -17.9421   28.0488 C   0  0  0  0  0  0  0  0  0  0  0  0
   10.8015  -18.8966   28.5359 O   0  0  0  0  0  0  0  0  0  0  0  0
    8.7094  -18.0735   28.2859 O   0  0  0  0  0  0  0  0  0  0  0  0
  2  1  1  6
  3  2  1  0
  4  8  1  0
  4  3  1  0
  5  4  2  0
  6  5  1  0
  6  7  1  0
  7  8  2  0
  9  2  1  0
  9 10  2  0
 12 13  1  1
 12 11  1  0
 12 14  1  0
 14 15  1  6
 15  9  1  0
 16 14  1  0
 17 16  2  0
 18 19  1  0
 20 19  1  0
 20 21  1  0
 22 21  1  1
 22 23  1  0
 22 24  1  0
 23 16  1  0
 24 26  2  0
 24 25  1  0
M  END
$$$$
