HVM.pdb
     RDKit          3D

 26 26  0  0  1  0  0  0  0  0999 V2000
    9.9744  -19.0312   19.9229 N   0  0  0  0  0  0  0  0  0  0  0  0
    9.5520  -17.6714   19.6454 C   0  0  1  0  0  0  0  0  0  0  0  0
    8.8140  -17.7235   18.3105 C   0  0  0  0  0  0  0  0  0  0  0  0
    9.8733  -17.6591   17.2447 C   0  0  0  0  0  0  0  0  0  0  0  0
   11.2320  -17.5658   17.4611 C   0  0  0  0  0  0  0  0  0  0  0  0
   11.8261  -17.5334   16.2549 N   0  0  0  0  0  0  0  0  0  0  0  0
   10.8993  -17.6023   15.2920 C   0  0  0  0  0  0  0  0  0  0  0  0
    9.7166  -17.6784   15.9058 N   0  0  0  0  0  0  0  0  0  0  0  0
    8.6614  -17.1599   20.7186 C   0  0  0  0  0  0  0  0  0  0  0  0
    8.0477  -16.0703   20.6207 O   0  0  0  0  0  0  0  0  0  0  0  0
    5.9866  -19.2490   22.6529 C   0  0  0  0  0  0  0  0  0  0  0  0
    7.0586  -18.7316   23.5697 C   0  0  2  0  0  0  0  0  0  0  0  0
    6.4705  -18.4750   24.9619 C   0  0  0  0  0  0  0  0  0  0  0  0
    7.7342  -17.4654   23.0528 C   0  0  2  0  0  0  0  0  0  0  0  0
    8.5041  -17.9262   21.8812 N   0  0  0  0  0  0  0  0  0  0  0  0
    8.7527  -16.9496   24.0190 C   0  0  0  0  0  0  0  0  0  0  0  0
    9.8744  -17.5496   24.1617 O   0  0  0  0  0  0  0  0  0  0  0  0
    5.9761  -11.8638   26.2564 C   0  0  0  0  0  0  0  0  0  0  0  0
    7.6529  -12.0242   26.8806 S   0  0  0  0  0  0  0  0  0  0  0  0
    8.2315  -13.7186   26.9007 C   0  0  0  0  0  0  0  0  0  0  0  0
    9.4893  -13.9173   26.0838 C   0  0  0  0  0  0  0  0  0  0  0  0
    9.6105  -15.3751   25.7048 C   0  0  2  0  0  0  0  0  0  0  0  0
    8.5484  -15.7934   24.8173 N   0  0  0  0  0  0  0  0  0  0  0  0
    9.6342  -16.2362   26.9268 C   0  0  0  0  0  0  0  0  0  0  0  0
    8.5800  -17.0523   27.2723 O   0  0  0  0  0  0  0  0  0  0  0  0
   10.6462  -16.2227   27.6716 O   0  0  0  0  0  0  0  0  0  0  0  0
  2  1  1  1
  3  2  1  0
  4  8  1  0
  4  3  1  0
  5  4  2  0
  6  5  1  0
  6  7  1  0
  7  8  2  0
  9  2  1  0
  9 10  2  0
 12 13  1  1
 12 11  1  0
 12 14  1  0
 14 15  1  6
 15  9  1  0
 16 14  1  0
 17 16  2  0
 18 19  1  0
 20 19  1  0
 20 21  1  0
 22 21  1  1
 22 23  1  0
 22 24  1  0
 23 16  1  0
 24 26  2  0
 24 25  1  0
M  END
$$$$
