HVM.pdb
     RDKit          3D

 26 26  0  0  1  0  0  0  0  0999 V2000
    6.9248  -18.3370   20.6693 N   0  0  0  0  0  0  0  0  0  0  0  0
    8.2329  -18.3374   20.0422 C   0  0  1  0  0  0  0  0  0  0  0  0
    7.9941  -18.6600   18.5697 C   0  0  0  0  0  0  0  0  0  0  0  0
    7.4536  -20.0631   18.5317 C   0  0  0  0  0  0  0  0  0  0  0  0
    7.9981  -21.1558   19.1729 C   0  0  0  0  0  0  0  0  0  0  0  0
    7.2197  -22.2144   18.8862 N   0  0  0  0  0  0  0  0  0  0  0  0
    6.2112  -21.8331   18.0934 C   0  0  0  0  0  0  0  0  0  0  0  0
    6.3642  -20.5237   17.8850 N   0  0  0  0  0  0  0  0  0  0  0  0
    8.8957  -17.0163   20.1900 C   0  0  0  0  0  0  0  0  0  0  0  0
    9.9713  -16.7349   19.6091 O   0  0  0  0  0  0  0  0  0  0  0  0
    7.3598  -13.6289   19.5563 C   0  0  0  0  0  0  0  0  0  0  0  0
    7.7262  -13.7570   21.0077 C   0  0  2  0  0  0  0  0  0  0  0  0
    8.0703  -12.3768   21.5792 C   0  0  0  0  0  0  0  0  0  0  0  0
    8.8822  -14.7212   21.2548 C   0  0  2  0  0  0  0  0  0  0  0  0
    8.2936  -16.0520   21.0092 N   0  0  0  0  0  0  0  0  0  0  0  0
    9.2964  -14.7295   22.6919 C   0  0  0  0  0  0  0  0  0  0  0  0
   10.2486  -13.9763   23.0974 O   0  0  0  0  0  0  0  0  0  0  0  0
    5.5578  -11.8727   25.9992 C   0  0  0  0  0  0  0  0  0  0  0  0
    7.0032  -12.5083   26.8558 S   0  0  0  0  0  0  0  0  0  0  0  0
    8.1466  -13.3511   25.7657 C   0  0  0  0  0  0  0  0  0  0  0  0
    8.1434  -14.8514   25.9607 C   0  0  0  0  0  0  0  0  0  0  0  0
    9.1602  -15.4752   25.0333 C   0  0  2  0  0  0  0  0  0  0  0  0
    8.6776  -15.5491   23.6723 N   0  0  0  0  0  0  0  0  0  0  0  0
    9.5515  -16.8340   25.5190 C   0  0  0  0  0  0  0  0  0  0  0  0
   10.0335  -17.0501   26.7909 O   0  0  0  0  0  0  0  0  0  0  0  0
    9.4407  -17.8203   24.7483 O   0  0  0  0  0  0  0  0  0  0  0  0
  2  1  1  1
  3  2  1  0
  4  8  1  0
  4  3  1  0
  5  4  2  0
  6  5  1  0
  6  7  1  0
  7  8  2  0
  9  2  1  0
  9 10  2  0
 12 13  1  6
 12 11  1  0
 12 14  1  0
 14 15  1  1
 15  9  1  0
 16 14  1  0
 17 16  2  0
 18 19  1  0
 20 19  1  0
 20 21  1  0
 22 21  1  1
 22 23  1  0
 22 24  1  0
 23 16  1  0
 24 26  2  0
 24 25  1  0
M  END
$$$$
