HVM.pdb
     RDKit          3D

 26 26  0  0  1  0  0  0  0  0999 V2000
   10.1816  -17.6555   18.5563 N   0  0  0  0  0  0  0  0  0  0  0  0
   10.6092  -17.8824   19.9239 C   0  0  1  0  0  0  0  0  0  0  0  0
   11.9032  -17.0921   20.0973 C   0  0  0  0  0  0  0  0  0  0  0  0
   12.9605  -17.8508   19.3433 C   0  0  0  0  0  0  0  0  0  0  0  0
   13.8520  -18.7509   19.8882 C   0  0  0  0  0  0  0  0  0  0  0  0
   14.6237  -19.2044   18.8843 N   0  0  0  0  0  0  0  0  0  0  0  0
   14.2550  -18.6280   17.7342 C   0  0  0  0  0  0  0  0  0  0  0  0
   13.2435  -17.8076   18.0259 N   0  0  0  0  0  0  0  0  0  0  0  0
    9.5783  -17.4209   20.8887 C   0  0  0  0  0  0  0  0  0  0  0  0
    8.8343  -16.4376   20.6585 O   0  0  0  0  0  0  0  0  0  0  0  0
    6.8604  -19.5767   22.0590 C   0  0  0  0  0  0  0  0  0  0  0  0
    7.6602  -19.1571   23.2597 C   0  0  2  0  0  0  0  0  0  0  0  0
    6.7516  -19.0979   24.4929 C   0  0  0  0  0  0  0  0  0  0  0  0
    8.3678  -17.8184   23.0745 C   0  0  2  0  0  0  0  0  0  0  0  0
    9.4352  -18.1126   22.0989 N   0  0  0  0  0  0  0  0  0  0  0  0
    9.0760  -17.3916   24.3209 C   0  0  0  0  0  0  0  0  0  0  0  0
   10.1747  -17.9499   24.6668 O   0  0  0  0  0  0  0  0  0  0  0  0
    7.0971  -11.3461   25.1426 C   0  0  0  0  0  0  0  0  0  0  0  0
    7.1917  -12.7481   26.2618 S   0  0  0  0  0  0  0  0  0  0  0  0
    8.7013  -13.6922   26.0725 C   0  0  0  0  0  0  0  0  0  0  0  0
    8.8118  -14.8254   27.0688 C   0  0  0  0  0  0  0  0  0  0  0  0
    9.3466  -16.0527   26.3680 C   0  0  2  0  0  0  0  0  0  0  0  0
    8.5905  -16.3680   25.1765 N   0  0  0  0  0  0  0  0  0  0  0  0
    9.3624  -17.2241   27.2970 C   0  0  0  0  0  0  0  0  0  0  0  0
   10.4283  -17.4899   28.1276 O   0  0  0  0  0  0  0  0  0  0  0  0
    8.3741  -17.9994   27.3292 O   0  0  0  0  0  0  0  0  0  0  0  0
  2  1  1  6
  3  2  1  0
  4  8  1  0
  4  3  1  0
  5  4  2  0
  6  5  1  0
  6  7  1  0
  7  8  2  0
  9  2  1  0
  9 10  2  0
 12 13  1  1
 12 11  1  0
 12 14  1  0
 14 15  1  6
 15  9  1  0
 16 14  1  0
 17 16  2  0
 18 19  1  0
 20 19  1  0
 20 21  1  0
 22 21  1  1
 22 23  1  0
 22 24  1  0
 23 16  1  0
 24 26  2  0
 24 25  1  0
M  END
$$$$
