RSL.pdb
     RDKit          3D

 26 25  0  0  1  0  0  0  0  0999 V2000
   31.8176  -25.8165  -15.5997 N   0  0  0  0  0  0  0  0  0  0  0  0
   31.7741  -25.1189  -16.8367 C   0  0  0  0  0  0  0  0  0  0  0  0
   32.2839  -25.6851  -17.8900 N   0  0  0  0  0  0  0  0  0  0  0  0
   31.2040  -23.8299  -16.9995 N   0  0  0  0  0  0  0  0  0  0  0  0
   30.4536  -23.2055  -15.9309 C   0  0  0  0  0  0  0  0  0  0  0  0
   28.9914  -23.1538  -16.3152 C   0  0  0  0  0  0  0  0  0  0  0  0
   28.6165  -21.8377  -16.9289 C   0  0  0  0  0  0  0  0  0  0  0  0
   27.1106  -21.8757  -17.2006 C   0  0  2  0  0  0  0  0  0  0  0  0
   26.8741  -21.5768  -18.5799 N   0  0  0  0  0  0  0  0  0  0  0  0
   26.4801  -20.9260  -16.2541 C   0  0  0  0  0  0  0  0  0  0  0  0
   27.0743  -19.8357  -16.0618 O   0  0  0  0  0  0  0  0  0  0  0  0
   32.3008  -25.2647  -18.8281 O   0  0  0  0  0  0  0  0  0  0  0  0
   23.5588  -18.2401  -14.8026 C   0  0  0  0  0  0  0  0  0  0  0  0
   23.5091  -19.5766  -15.2283 C   0  0  2  0  0  0  0  0  0  0  0  0
   24.7397  -20.2491  -14.6492 N   0  0  0  0  0  0  0  0  0  0  0  0
   25.2732  -21.2196  -15.5958 C   0  0  0  0  0  0  0  0  0  0  0  0
   24.4067  -20.9293  -13.3607 O   0  0  0  0  0  0  0  0  0  0  0  0
   23.9070  -22.0901  -13.3489 C   0  0  0  0  0  0  0  0  0  0  0  0
   25.6484  -22.1375   -8.3929 C   0  0  1  0  0  0  0  0  0  0  0  0
   25.9268  -20.7758   -8.9526 C   0  0  0  0  0  0  0  0  0  0  0  0
   26.5303  -19.8539   -7.9319 C   0  0  0  0  0  0  0  0  0  0  0  0
   24.8963  -20.1727   -9.7835 C   0  0  2  0  0  0  0  0  0  0  0  0
   24.1842  -20.9081  -10.8351 N   0  0  0  0  0  0  0  0  0  0  0  0
   24.6396  -20.2983  -12.1114 C   0  0  0  0  0  0  0  0  0  0  0  0
   22.7169  -20.8260  -10.8673 O   0  0  0  0  0  0  0  0  0  0  0  0
   22.0316  -21.7238  -10.3309 O   0  0  0  0  0  0  0  0  0  0  0  0
  1  2  1  0
  2  3  2  0
  4  2  1  0
  5  4  1  0
  6  5  1  0
  7  8  1  0
  7  6  1  0
  8  9  1  6
 10 15  1  0
 10  8  1  0
 11 10  2  0
 14 13  1  6
 13 12  1  0
 14 15  1  0
 16 17  2  0
 16 14  1  0
 19 18  1  6
 19 21  1  0
 20 19  1  0
 22 21  1  6
 22 23  1  0
 23 16  1  0
 24 22  1  0
 25 24  2  0
 26 24  1  0
M  END
$$$$
