RSL.pdb
     RDKit          3D

 26 25  0  0  1  0  0  0  0  0999 V2000
   20.2077  -22.9348   -8.7841 N   0  0  0  0  0  0  0  0  0  0  0  0
   19.7794  -21.9315   -9.6945 C   0  0  0  0  0  0  0  0  0  0  0  0
   18.5463  -21.9479  -10.1055 N   0  0  0  0  0  0  0  0  0  0  0  0
   20.6194  -20.9010  -10.1901 N   0  0  0  0  0  0  0  0  0  0  0  0
   22.0454  -20.9173   -9.9434 C   0  0  0  0  0  0  0  0  0  0  0  0
   22.7614  -21.3655  -11.1984 C   0  0  0  0  0  0  0  0  0  0  0  0
   23.7935  -20.3725  -11.6432 C   0  0  0  0  0  0  0  0  0  0  0  0
   25.1075  -21.1353  -11.8290 C   0  0  2  0  0  0  0  0  0  0  0  0
   25.7618  -21.2602  -10.5626 N   0  0  0  0  0  0  0  0  0  0  0  0
   25.8899  -20.3993  -12.8496 C   0  0  0  0  0  0  0  0  0  0  0  0
   26.1306  -19.1882  -12.6173 O   0  0  0  0  0  0  0  0  0  0  0  0
   18.1318  -21.2494  -10.7358 O   0  0  0  0  0  0  0  0  0  0  0  0
   26.7654  -21.9226  -16.5304 C   0  0  0  0  0  0  0  0  0  0  0  0
   27.7975  -21.1446  -15.9832 C   0  0  1  0  0  0  0  0  0  0  0  0
   27.1417  -20.2324  -14.9633 N   0  0  0  0  0  0  0  0  0  0  0  0
   26.3471  -21.0163  -14.0270 C   0  0  0  0  0  0  0  0  0  0  0  0
   26.2730  -19.2250  -15.6445 O   0  0  0  0  0  0  0  0  0  0  0  0
   25.2836  -18.7116  -15.0490 C   0  0  0  0  0  0  0  0  0  0  0  0
   24.4698  -15.2727  -16.1606 C   0  0  2  0  0  0  0  0  0  0  0  0
   25.8465  -15.6686  -15.7217 C   0  0  0  0  0  0  0  0  0  0  0  0
   26.6008  -14.5219  -15.1117 C   0  0  0  0  0  0  0  0  0  0  0  0
   26.6254  -16.4936  -16.6322 C   0  0  2  0  0  0  0  0  0  0  0  0
   26.0253  -17.5142  -17.4993 N   0  0  0  0  0  0  0  0  0  0  0  0
   26.5284  -18.8113  -16.9775 C   0  0  0  0  0  0  0  0  0  0  0  0
   26.3777  -17.5068  -18.9264 O   0  0  0  0  0  0  0  0  0  0  0  0
   27.3939  -18.1201  -19.3196 O   0  0  0  0  0  0  0  0  0  0  0  0
  1  2  1  0
  2  3  2  0
  4  2  1  0
  5  4  1  0
  6  5  1  0
  7  8  1  0
  7  6  1  0
  8  9  1  1
 10 15  1  0
 10  8  1  0
 11 10  2  0
 14 13  1  1
 13 12  1  0
 14 15  1  0
 16 17  2  0
 16 14  1  0
 19 18  1  1
 19 21  1  0
 20 19  1  0
 22 21  1  1
 22 23  1  0
 23 16  1  0
 24 22  1  0
 25 24  2  0
 26 24  1  0
M  END
$$$$
