RSL.pdb
     RDKit          3D

 26 25  0  0  1  0  0  0  0  0999 V2000
   17.6234  -25.4419   -5.3112 N   0  0  0  0  0  0  0  0  0  0  0  0
   16.5457  -26.3355   -5.5537 C   0  0  0  0  0  0  0  0  0  0  0  0
   16.3341  -26.7414   -6.7704 N   0  0  0  0  0  0  0  0  0  0  0  0
   15.6753  -26.8194   -4.5431 N   0  0  0  0  0  0  0  0  0  0  0  0
   15.8210  -26.3954   -3.1670 C   0  0  0  0  0  0  0  0  0  0  0  0
   15.1956  -25.0281   -2.9997 C   0  0  0  0  0  0  0  0  0  0  0  0
   15.2606  -24.5489   -1.5801 C   0  0  0  0  0  0  0  0  0  0  0  0
   14.6449  -23.1480   -1.5449 C   0  0  2  0  0  0  0  0  0  0  0  0
   14.9317  -22.4773   -2.7759 N   0  0  0  0  0  0  0  0  0  0  0  0
   15.1852  -22.4722   -0.3421 C   0  0  0  0  0  0  0  0  0  0  0  0
   15.3137  -21.2237   -0.4005 O   0  0  0  0  0  0  0  0  0  0  0  0
   15.5810  -27.3837   -7.0487 O   0  0  0  0  0  0  0  0  0  0  0  0
   13.6826  -22.8291    2.9782 C   0  0  0  0  0  0  0  0  0  0  0  0
   14.5062  -21.7864    2.5261 C   0  0  1  0  0  0  0  0  0  0  0  0
   15.7880  -22.4405    2.0451 N   0  0  0  0  0  0  0  0  0  0  0  0
   15.5413  -23.1840    0.8168 C   0  0  0  0  0  0  0  0  0  0  0  0
   16.3315  -23.3585    3.0918 O   0  0  0  0  0  0  0  0  0  0  0  0
   16.1965  -24.6111    2.9911 C   0  0  0  0  0  0  0  0  0  0  0  0
   19.7349  -25.7386    3.1837 C   0  0  2  0  0  0  0  0  0  0  0  0
   19.5462  -24.3436    2.6708 C   0  0  0  0  0  0  0  0  0  0  0  0
   20.5880  -23.9643    1.6575 C   0  0  0  0  0  0  0  0  0  0  0  0
   19.2423  -23.3092    3.6475 C   0  0  2  0  0  0  0  0  0  0  0  0
   18.2647  -23.4904    4.7270 N   0  0  0  0  0  0  0  0  0  0  0  0
   17.0156  -22.8578    4.2296 C   0  0  0  0  0  0  0  0  0  0  0  0
   18.5348  -22.8504    6.0225 O   0  0  0  0  0  0  0  0  0  0  0  0
   18.0590  -21.7208    6.2697 O   0  0  0  0  0  0  0  0  0  0  0  0
  1  2  1  0
  2  3  2  0
  4  2  1  0
  5  4  1  0
  6  5  1  0
  7  8  1  0
  7  6  1  0
  8  9  1  6
 10 15  1  0
 10  8  1  0
 11 10  2  0
 14 13  1  6
 13 12  1  0
 14 15  1  0
 16 17  2  0
 16 14  1  0
 19 18  1  6
 19 21  1  0
 20 19  1  0
 22 21  1  6
 22 23  1  0
 23 16  1  0
 24 22  1  0
 25 24  2  0
 26 24  1  0
M  END
$$$$
