RSL.pdb
     RDKit          3D

 26 25  0  0  1  0  0  0  0  0999 V2000
   20.0483  -20.2538  -17.5928 N   0  0  0  0  0  0  0  0  0  0  0  0
   20.0732  -19.3018  -16.5383 C   0  0  0  0  0  0  0  0  0  0  0  0
   19.0325  -19.1995  -15.7661 N   0  0  0  0  0  0  0  0  0  0  0  0
   21.1724  -18.4458  -16.2699 N   0  0  0  0  0  0  0  0  0  0  0  0
   22.3289  -18.4212  -17.1398 C   0  0  0  0  0  0  0  0  0  0  0  0
   23.2103  -19.6104  -16.8278 C   0  0  0  0  0  0  0  0  0  0  0  0
   24.4396  -19.2156  -16.0648 C   0  0  0  0  0  0  0  0  0  0  0  0
   25.5297  -20.2366  -16.3998 C   0  0  2  0  0  0  0  0  0  0  0  0
   24.9783  -21.2539  -17.2417 N   0  0  0  0  0  0  0  0  0  0  0  0
   26.0615  -20.7348  -15.1097 C   0  0  0  0  0  0  0  0  0  0  0  0
   25.2989  -21.4583  -14.4215 O   0  0  0  0  0  0  0  0  0  0  0  0
   18.9403  -18.5228  -14.9975 O   0  0  0  0  0  0  0  0  0  0  0  0
   29.8263  -20.5412  -14.3968 C   0  0  0  0  0  0  0  0  0  0  0  0
   29.2399  -20.5620  -13.1218 C   0  0  2  0  0  0  0  0  0  0  0  0
   27.7686  -20.8623  -13.3398 N   0  0  0  0  0  0  0  0  0  0  0  0
   27.3575  -20.4196  -14.6655 C   0  0  0  0  0  0  0  0  0  0  0  0
   26.9365  -20.1849  -12.2994 O   0  0  0  0  0  0  0  0  0  0  0  0
   26.2558  -19.1576  -12.5795 C   0  0  0  0  0  0  0  0  0  0  0  0
   22.9120  -19.0534  -10.4806 C   0  0  2  0  0  0  0  0  0  0  0  0
   23.5084  -20.1216  -11.3455 C   0  0  0  0  0  0  0  0  0  0  0  0
   22.4635  -20.8881  -12.1047 C   0  0  0  0  0  0  0  0  0  0  0  0
   24.5611  -20.9401  -10.7640 C   0  0  2  0  0  0  0  0  0  0  0  0
   25.7285  -20.3738  -10.0783 N   0  0  0  0  0  0  0  0  0  0  0  0
   26.8819  -20.6698  -10.9672 C   0  0  0  0  0  0  0  0  0  0  0  0
   26.0977  -20.9249   -8.7665 O   0  0  0  0  0  0  0  0  0  0  0  0
   25.4909  -20.5481   -7.7402 O   0  0  0  0  0  0  0  0  0  0  0  0
  1  2  1  0
  2  3  2  0
  4  2  1  0
  5  4  1  0
  6  5  1  0
  7  8  1  0
  7  6  1  0
  8  9  1  6
 10 15  1  0
 10  8  1  0
 11 10  2  0
 14 13  1  6
 13 12  1  0
 14 15  1  0
 16 17  2  0
 16 14  1  0
 19 18  1  6
 19 21  1  0
 20 19  1  0
 22 21  1  6
 22 23  1  0
 23 16  1  0
 24 22  1  0
 25 24  2  0
 26 24  1  0
M  END
$$$$
