RSL.pdb
     RDKit          3D

 26 25  0  0  1  0  0  0  0  0999 V2000
   20.5588  -17.3796  -17.3305 N   0  0  0  0  0  0  0  0  0  0  0  0
   19.3503  -17.9310  -16.8264 C   0  0  0  0  0  0  0  0  0  0  0  0
   18.3239  -18.0132  -17.6198 N   0  0  0  0  0  0  0  0  0  0  0  0
   19.1886  -18.4031  -15.4983 N   0  0  0  0  0  0  0  0  0  0  0  0
   20.2512  -18.2703  -14.5245 C   0  0  0  0  0  0  0  0  0  0  0  0
   19.7694  -18.7933  -13.1893 C   0  0  0  0  0  0  0  0  0  0  0  0
   19.6007  -20.2835  -13.1958 C   0  0  0  0  0  0  0  0  0  0  0  0
   20.5645  -20.8545  -12.1528 C   0  0  2  0  0  0  0  0  0  0  0  0
   21.0381  -19.7922  -11.3191 N   0  0  0  0  0  0  0  0  0  0  0  0
   21.6296  -21.5662  -12.8974 C   0  0  0  0  0  0  0  0  0  0  0  0
   22.7854  -21.5351  -12.4057 O   0  0  0  0  0  0  0  0  0  0  0  0
   17.4029  -18.3798  -17.3467 O   0  0  0  0  0  0  0  0  0  0  0  0
   21.1363  -23.3567  -16.5999 C   0  0  0  0  0  0  0  0  0  0  0  0
   21.8228  -24.0966  -15.6244 C   0  0  1  0  0  0  0  0  0  0  0  0
   22.4219  -23.0809  -14.6697 N   0  0  0  0  0  0  0  0  0  0  0  0
   21.3712  -22.2483  -14.0992 C   0  0  0  0  0  0  0  0  0  0  0  0
   23.4195  -22.2223  -15.3777 O   0  0  0  0  0  0  0  0  0  0  0  0
   23.1360  -21.0367  -15.7109 C   0  0  0  0  0  0  0  0  0  0  0  0
   29.4333  -22.9715  -16.7339 C   0  0  1  0  0  0  0  0  0  0  0  0
   28.2492  -22.0539  -16.7608 C   0  0  0  0  0  0  0  0  0  0  0  0
   28.5842  -20.6783  -16.2593 C   0  0  0  0  0  0  0  0  0  0  0  0
   26.9828  -22.5849  -16.2808 C   0  0  2  0  0  0  0  0  0  0  0  0
   25.7162  -21.8511  -16.3857 N   0  0  0  0  0  0  0  0  0  0  0  0
   24.7141  -22.7064  -15.6983 C   0  0  0  0  0  0  0  0  0  0  0  0
   25.1644  -21.6073  -17.7262 O   0  0  0  0  0  0  0  0  0  0  0  0
   25.3073  -20.4874  -18.2636 O   0  0  0  0  0  0  0  0  0  0  0  0
  1  2  1  0
  2  3  2  0
  4  2  1  0
  5  4  1  0
  6  5  1  0
  7  8  1  0
  7  6  1  0
  8  9  1  6
 10 15  1  0
 10  8  1  0
 11 10  2  0
 14 13  1  1
 13 12  1  0
 14 15  1  0
 16 17  2  0
 16 14  1  0
 19 18  1  6
 19 21  1  0
 20 19  1  0
 22 21  1  1
 22 23  1  0
 23 16  1  0
 24 22  1  0
 25 24  2  0
 26 24  1  0
M  END
$$$$
