RSL.pdb
     RDKit          3D

 26 25  0  0  1  0  0  0  0  0999 V2000
   20.6210  -23.5699   -7.7840 N   0  0  0  0  0  0  0  0  0  0  0  0
   19.7349  -23.2425   -8.8453 C   0  0  0  0  0  0  0  0  0  0  0  0
   18.5552  -23.7880   -8.8632 N   0  0  0  0  0  0  0  0  0  0  0  0
   20.0573  -22.3487   -9.8990 N   0  0  0  0  0  0  0  0  0  0  0  0
   21.4344  -22.0466  -10.2262 C   0  0  0  0  0  0  0  0  0  0  0  0
   21.8632  -20.8066   -9.4731 C   0  0  0  0  0  0  0  0  0  0  0  0
   23.0160  -20.1146  -10.1376 C   0  0  0  0  0  0  0  0  0  0  0  0
   24.1984  -21.0866  -10.1239 C   0  0  2  0  0  0  0  0  0  0  0  0
   24.7214  -21.1720   -8.7947 N   0  0  0  0  0  0  0  0  0  0  0  0
   25.1686  -20.5957  -11.1305 C   0  0  0  0  0  0  0  0  0  0  0  0
   25.9335  -19.6640  -10.7760 O   0  0  0  0  0  0  0  0  0  0  0  0
   17.8522  -23.6345   -9.5977 O   0  0  0  0  0  0  0  0  0  0  0  0
   25.6999  -22.2811  -14.8847 C   0  0  0  0  0  0  0  0  0  0  0  0
   26.7865  -21.6795  -14.2310 C   0  0  1  0  0  0  0  0  0  0  0  0
   26.2008  -20.5791  -13.3659 N   0  0  0  0  0  0  0  0  0  0  0  0
   25.2395  -21.1390  -12.4251 C   0  0  0  0  0  0  0  0  0  0  0  0
   25.5346  -19.5449  -14.2147 O   0  0  0  0  0  0  0  0  0  0  0  0
   24.2779  -19.5232  -14.3460 C   0  0  0  0  0  0  0  0  0  0  0  0
   27.2179  -14.0716  -16.4362 C   0  0  1  0  0  0  0  0  0  0  0  0
   26.1700  -15.1425  -16.4464 C   0  0  0  0  0  0  0  0  0  0  0  0
   24.7868  -14.5864  -16.2638 C   0  0  0  0  0  0  0  0  0  0  0  0
   26.4450  -16.3519  -15.6862 C   0  0  2  0  0  0  0  0  0  0  0  0
   25.6373  -17.5717  -15.8034 N   0  0  0  0  0  0  0  0  0  0  0  0
   26.2869  -18.5556  -14.8991 C   0  0  0  0  0  0  0  0  0  0  0  0
   25.5680  -18.2349  -17.1135 O   0  0  0  0  0  0  0  0  0  0  0  0
   24.5559  -18.0875  -17.8327 O   0  0  0  0  0  0  0  0  0  0  0  0
  1  2  1  0
  2  3  2  0
  4  2  1  0
  5  4  1  0
  6  5  1  0
  7  8  1  0
  7  6  1  0
  8  9  1  1
 10 15  1  0
 10  8  1  0
 11 10  2  0
 14 13  1  1
 13 12  1  0
 14 15  1  0
 16 17  2  0
 16 14  1  0
 19 18  1  6
 19 21  1  0
 20 19  1  0
 22 21  1  1
 22 23  1  0
 23 16  1  0
 24 22  1  0
 25 24  2  0
 26 24  1  0
M  END
$$$$
