RSL.pdb
     RDKit          3D

 26 25  0  0  1  0  0  0  0  0999 V2000
   18.8276  -22.7340  -13.7002 N   0  0  0  0  0  0  0  0  0  0  0  0
   18.3836  -21.6158  -14.4560 C   0  0  0  0  0  0  0  0  0  0  0  0
   17.1752  -21.6273  -14.9351 N   0  0  0  0  0  0  0  0  0  0  0  0
   19.1820  -20.4742  -14.7249 N   0  0  0  0  0  0  0  0  0  0  0  0
   20.1141  -19.9668  -13.7408 C   0  0  0  0  0  0  0  0  0  0  0  0
   21.3664  -20.8152  -13.7590 C   0  0  0  0  0  0  0  0  0  0  0  0
   21.9358  -21.0086  -12.3851 C   0  0  0  0  0  0  0  0  0  0  0  0
   23.1066  -20.0337  -12.2372 C   0  0  2  0  0  0  0  0  0  0  0  0
   23.7122  -19.8287  -13.5174 N   0  0  0  0  0  0  0  0  0  0  0  0
   24.0158  -20.6072  -11.2175 C   0  0  0  0  0  0  0  0  0  0  0  0
   23.5328  -20.8125  -10.0758 O   0  0  0  0  0  0  0  0  0  0  0  0
   16.7864  -20.9051  -15.5551 O   0  0  0  0  0  0  0  0  0  0  0  0
   28.0496  -21.0663  -11.7755 C   0  0  0  0  0  0  0  0  0  0  0  0
   27.4382  -22.1037  -11.0542 C   0  0  1  0  0  0  0  0  0  0  0  0
   26.1751  -21.5130  -10.4560 N   0  0  0  0  0  0  0  0  0  0  0  0
   25.3584  -20.9117  -11.5019 C   0  0  0  0  0  0  0  0  0  0  0  0
   26.5153  -20.4851   -9.4257 O   0  0  0  0  0  0  0  0  0  0  0  0
   26.4605  -19.2517   -9.6957 C   0  0  0  0  0  0  0  0  0  0  0  0
   29.1667  -19.1019   -4.6827 C   0  0  1  0  0  0  0  0  0  0  0  0
   27.7979  -19.7106   -4.6578 C   0  0  0  0  0  0  0  0  0  0  0  0
   27.5212  -20.4358   -3.3719 C   0  0  0  0  0  0  0  0  0  0  0  0
   27.3556  -20.4066   -5.8563 C   0  0  1  0  0  0  0  0  0  0  0  0
   27.6063  -19.9038   -7.2121 N   0  0  0  0  0  0  0  0  0  0  0  0
   26.9093  -20.8568   -8.1144 C   0  0  0  0  0  0  0  0  0  0  0  0
   28.9955  -19.8612   -7.6906 O   0  0  0  0  0  0  0  0  0  0  0  0
   29.5171  -20.8874   -8.1789 O   0  0  0  0  0  0  0  0  0  0  0  0
  1  2  1  0
  2  3  2  0
  4  2  1  0
  5  4  1  0
  6  5  1  0
  7  8  1  0
  7  6  1  0
  8  9  1  6
 10 15  1  0
 10  8  1  0
 11 10  2  0
 14 13  1  6
 13 12  1  0
 14 15  1  0
 16 17  2  0
 16 14  1  0
 19 18  1  1
 19 21  1  0
 20 19  1  0
 22 21  1  1
 22 23  1  0
 23 16  1  0
 24 22  1  0
 25 24  2  0
 26 24  1  0
M  END
$$$$
