RSL.pdb
     RDKit          3D

 26 25  0  0  1  0  0  0  0  0999 V2000
    6.2603  -15.5437  -17.1455 N   0  0  0  0  0  0  0  0  0  0  0  0
    6.8302  -14.4847  -17.9021 C   0  0  0  0  0  0  0  0  0  0  0  0
    6.0437  -13.5670  -18.3808 N   0  0  0  0  0  0  0  0  0  0  0  0
    8.2176  -14.3618  -18.1724 N   0  0  0  0  0  0  0  0  0  0  0  0
    9.1551  -15.3754  -17.7382 C   0  0  0  0  0  0  0  0  0  0  0  0
   10.5355  -15.0270  -18.2498 C   0  0  0  0  0  0  0  0  0  0  0  0
   11.5861  -15.9511  -17.7099 C   0  0  0  0  0  0  0  0  0  0  0  0
   11.9801  -16.9021  -18.8428 C   0  0  2  0  0  0  0  0  0  0  0  0
   10.8570  -17.7220  -19.1803 N   0  0  0  0  0  0  0  0  0  0  0  0
   13.1672  -17.6561  -18.3762 C   0  0  0  0  0  0  0  0  0  0  0  0
   12.9525  -18.6973  -17.7064 O   0  0  0  0  0  0  0  0  0  0  0  0
    6.3532  -12.7802  -18.9659 O   0  0  0  0  0  0  0  0  0  0  0  0
   16.8944  -18.3482  -20.1787 C   0  0  0  0  0  0  0  0  0  0  0  0
   16.8621  -17.6526  -18.9601 C   0  0  2  0  0  0  0  0  0  0  0  0
   15.5884  -18.0885  -18.2600 N   0  0  0  0  0  0  0  0  0  0  0  0
   14.4778  -17.2362  -18.6631 C   0  0  0  0  0  0  0  0  0  0  0  0
   15.7599  -18.0285  -16.7766 O   0  0  0  0  0  0  0  0  0  0  0  0
   15.6535  -16.9338  -16.1540 C   0  0  0  0  0  0  0  0  0  0  0  0
   13.4038  -19.0750  -13.1327 C   0  0  2  0  0  0  0  0  0  0  0  0
   13.9940  -20.2286  -13.8848 C   0  0  0  0  0  0  0  0  0  0  0  0
   13.3665  -21.5383  -13.5013 C   0  0  0  0  0  0  0  0  0  0  0  0
   15.4418  -20.2647  -14.0221 C   0  0  2  0  0  0  0  0  0  0  0  0
   16.2243  -19.1384  -14.5448 N   0  0  0  0  0  0  0  0  0  0  0  0
   16.0465  -19.1934  -16.0191 C   0  0  0  0  0  0  0  0  0  0  0  0
   17.6783  -19.1440  -14.3285 O   0  0  0  0  0  0  0  0  0  0  0  0
   18.4386  -19.5751  -15.2226 O   0  0  0  0  0  0  0  0  0  0  0  0
  1  2  1  0
  2  3  2  0
  4  2  1  0
  5  4  1  0
  6  5  1  0
  7  8  1  0
  7  6  1  0
  8  9  1  1
 10 15  1  0
 10  8  1  0
 11 10  2  0
 14 13  1  6
 13 12  1  0
 14 15  1  0
 16 17  2  0
 16 14  1  0
 19 18  1  6
 19 21  1  0
 20 19  1  0
 22 21  1  1
 22 23  1  0
 23 16  1  0
 24 22  1  0
 25 24  2  0
 26 24  1  0
M  END
$$$$
