RSL.pdb
     RDKit          3D

 26 25  0  0  1  0  0  0  0  0999 V2000
   16.8101  -16.1604  -15.3172 N   0  0  0  0  0  0  0  0  0  0  0  0
   17.3539  -16.1810  -16.6297 C   0  0  0  0  0  0  0  0  0  0  0  0
   17.1075  -17.2058  -17.3906 N   0  0  0  0  0  0  0  0  0  0  0  0
   18.1575  -15.1442  -17.1704 N   0  0  0  0  0  0  0  0  0  0  0  0
   18.4531  -13.9525  -16.4040 C   0  0  0  0  0  0  0  0  0  0  0  0
   17.9840  -12.7378  -17.1742 C   0  0  0  0  0  0  0  0  0  0  0  0
   18.2455  -11.4629  -16.4289 C   0  0  0  0  0  0  0  0  0  0  0  0
   19.3969  -10.7485  -17.1408 C   0  0  2  0  0  0  0  0  0  0  0  0
   20.1874  -11.7137  -17.8416 N   0  0  0  0  0  0  0  0  0  0  0  0
   20.1370   -9.9905  -16.1050 C   0  0  0  0  0  0  0  0  0  0  0  0
   19.4881   -9.1326  -15.4556 O   0  0  0  0  0  0  0  0  0  0  0  0
   17.4666  -17.3223  -18.3469 O   0  0  0  0  0  0  0  0  0  0  0  0
   24.1938  -10.1574  -15.7106 C   0  0  0  0  0  0  0  0  0  0  0  0
   23.5154  -10.0003  -14.4919 C   0  0  1  0  0  0  0  0  0  0  0  0
   22.1639   -9.4028  -14.8364 N   0  0  0  0  0  0  0  0  0  0  0  0
   21.5019  -10.2117  -15.8512 C   0  0  0  0  0  0  0  0  0  0  0  0
   22.3221   -8.0012  -15.3304 O   0  0  0  0  0  0  0  0  0  0  0  0
   22.4310   -7.7559  -16.5654 C   0  0  0  0  0  0  0  0  0  0  0  0
   19.5059   -3.8030  -16.7806 C   0  0  1  0  0  0  0  0  0  0  0  0
   20.9055   -3.9783  -16.2754 C   0  0  0  0  0  0  0  0  0  0  0  0
   21.9258   -3.4040  -17.2162 C   0  0  0  0  0  0  0  0  0  0  0  0
   21.2552   -5.2750  -15.7162 C   0  0  2  0  0  0  0  0  0  0  0  0
   22.4681   -5.5031  -14.9220 N   0  0  0  0  0  0  0  0  0  0  0  0
   22.3548   -6.9020  -14.4338 C   0  0  0  0  0  0  0  0  0  0  0  0
   22.6722   -4.6865  -13.7169 O   0  0  0  0  0  0  0  0  0  0  0  0
   22.3220   -5.1269  -12.6002 O   0  0  0  0  0  0  0  0  0  0  0  0
  1  2  1  0
  2  3  2  0
  4  2  1  0
  5  4  1  0
  6  5  1  0
  7  8  1  0
  7  6  1  0
  8  9  1  1
 10 15  1  0
 10  8  1  0
 11 10  2  0
 14 13  1  1
 13 12  1  0
 14 15  1  0
 16 17  2  0
 16 14  1  0
 19 18  1  1
 19 21  1  0
 20 19  1  0
 22 21  1  6
 22 23  1  0
 23 16  1  0
 24 22  1  0
 25 24  2  0
 26 24  1  0
M  END
$$$$
