RSL.pdb
     RDKit          3D

 26 25  0  0  1  0  0  0  0  0999 V2000
   27.6989  -25.4378  -16.3208 N   0  0  0  0  0  0  0  0  0  0  0  0
   27.6899  -24.6289  -17.4889 C   0  0  0  0  0  0  0  0  0  0  0  0
   26.9193  -24.9711  -18.4783 N   0  0  0  0  0  0  0  0  0  0  0  0
   28.4759  -23.4585  -17.6477 N   0  0  0  0  0  0  0  0  0  0  0  0
   29.0422  -22.7787  -16.5023 C   0  0  0  0  0  0  0  0  0  0  0  0
   28.3237  -21.4628  -16.3005 C   0  0  0  0  0  0  0  0  0  0  0  0
   28.0702  -21.1761  -14.8504 C   0  0  0  0  0  0  0  0  0  0  0  0
   26.5731  -21.3765  -14.6026 C   0  0  2  0  0  0  0  0  0  0  0  0
   25.8541  -21.0808  -15.8040 N   0  0  0  0  0  0  0  0  0  0  0  0
   26.2111  -20.5202  -13.4489 C   0  0  0  0  0  0  0  0  0  0  0  0
   25.9205  -19.3234  -13.6980 O   0  0  0  0  0  0  0  0  0  0  0  0
   26.9185  -24.5180  -19.4012 O   0  0  0  0  0  0  0  0  0  0  0  0
   23.5659  -20.9972  -11.5348 C   0  0  0  0  0  0  0  0  0  0  0  0
   24.2415  -19.7838  -11.3321 C   0  0  1  0  0  0  0  0  0  0  0  0
   25.6913  -20.1475  -11.0712 N   0  0  0  0  0  0  0  0  0  0  0  0
   26.1901  -21.0123  -12.1323 C   0  0  0  0  0  0  0  0  0  0  0  0
   25.8288  -20.8352   -9.7513 O   0  0  0  0  0  0  0  0  0  0  0  0
   25.7162  -22.0905   -9.6579 C   0  0  0  0  0  0  0  0  0  0  0  0
   29.1328  -20.4628   -6.4213 C   0  0  2  0  0  0  0  0  0  0  0  0
   28.1009  -19.3767   -6.4019 C   0  0  0  0  0  0  0  0  0  0  0  0
   28.4795  -18.2488   -5.4852 C   0  0  0  0  0  0  0  0  0  0  0  0
   26.7063  -19.7830   -6.3229 C   0  0  2  0  0  0  0  0  0  0  0  0
   26.1067  -20.7667   -7.2321 N   0  0  0  0  0  0  0  0  0  0  0  0
   26.0900  -20.1056   -8.5628 C   0  0  0  0  0  0  0  0  0  0  0  0
   24.7180  -21.1819   -6.9873 O   0  0  0  0  0  0  0  0  0  0  0  0
   23.7896  -20.6705   -7.6506 O   0  0  0  0  0  0  0  0  0  0  0  0
  1  2  1  0
  2  3  2  0
  4  2  1  0
  5  4  1  0
  6  5  1  0
  7  8  1  0
  7  6  1  0
  8  9  1  6
 10 15  1  0
 10  8  1  0
 11 10  2  0
 14 13  1  6
 13 12  1  0
 14 15  1  0
 16 17  2  0
 16 14  1  0
 19 18  1  6
 19 21  1  0
 20 19  1  0
 22 21  1  6
 22 23  1  0
 23 16  1  0
 24 22  1  0
 25 24  2  0
 26 24  1  0
M  END
$$$$
