RSL.pdb
     RDKit          3D

 26 25  0  0  1  0  0  0  0  0999 V2000
   28.4661  -26.6987  -16.7639 N   0  0  0  0  0  0  0  0  0  0  0  0
   28.3927  -26.7541  -18.1818 C   0  0  0  0  0  0  0  0  0  0  0  0
   29.2205  -27.5276  -18.8191 N   0  0  0  0  0  0  0  0  0  0  0  0
   27.4643  -26.0117  -18.9564 N   0  0  0  0  0  0  0  0  0  0  0  0
   26.4280  -25.2228  -18.3251 C   0  0  0  0  0  0  0  0  0  0  0  0
   26.8270  -23.7638  -18.3549 C   0  0  0  0  0  0  0  0  0  0  0  0
   26.0990  -22.9596  -17.3194 C   0  0  0  0  0  0  0  0  0  0  0  0
   26.5411  -21.5032  -17.4818 C   0  0  2  0  0  0  0  0  0  0  0  0
   27.9688  -21.4348  -17.4132 N   0  0  0  0  0  0  0  0  0  0  0  0
   25.8423  -20.7235  -16.4333 C   0  0  0  0  0  0  0  0  0  0  0  0
   26.4585  -20.5425  -15.3534 O   0  0  0  0  0  0  0  0  0  0  0  0
   29.1712  -27.7319  -19.8256 O   0  0  0  0  0  0  0  0  0  0  0  0
   21.9816  -19.4466  -16.8193 C   0  0  0  0  0  0  0  0  0  0  0  0
   22.8178  -18.5665  -16.1149 C   0  0  1  0  0  0  0  0  0  0  0  0
   23.9490  -19.4128  -15.5613 N   0  0  0  0  0  0  0  0  0  0  0  0
   24.5498  -20.2053  -16.6260 C   0  0  0  0  0  0  0  0  0  0  0  0
   23.4470  -20.3150  -14.4807 O   0  0  0  0  0  0  0  0  0  0  0  0
   23.0869  -21.4988  -14.7376 C   0  0  0  0  0  0  0  0  0  0  0  0
   25.3483  -22.1896  -10.9501 C   0  0  2  0  0  0  0  0  0  0  0  0
   24.9600  -20.7658  -10.6917 C   0  0  0  0  0  0  0  0  0  0  0  0
   25.5983  -20.2192   -9.4468 C   0  0  0  0  0  0  0  0  0  0  0  0
   23.5582  -20.4155  -10.8609 C   0  0  2  0  0  0  0  0  0  0  0  0
   22.7919  -20.7428  -12.0690 N   0  0  0  0  0  0  0  0  0  0  0  0
   23.3581  -19.8756  -13.1345 C   0  0  0  0  0  0  0  0  0  0  0  0
   21.3479  -20.4674  -12.0706 O   0  0  0  0  0  0  0  0  0  0  0  0
   20.5659  -21.2432  -11.4789 O   0  0  0  0  0  0  0  0  0  0  0  0
  1  2  1  0
  2  3  2  0
  4  2  1  0
  5  4  1  0
  6  5  1  0
  7  8  1  0
  7  6  1  0
  8  9  1  1
 10 15  1  0
 10  8  1  0
 11 10  2  0
 14 13  1  6
 13 12  1  0
 14 15  1  0
 16 17  2  0
 16 14  1  0
 19 18  1  6
 19 21  1  0
 20 19  1  0
 22 21  1  6
 22 23  1  0
 23 16  1  0
 24 22  1  0
 25 24  2  0
 26 24  1  0
M  END
$$$$
