RSL.pdb
     RDKit          3D

 26 25  0  0  1  0  0  0  0  0999 V2000
   15.7258  -15.3816  -14.7883 N   0  0  0  0  0  0  0  0  0  0  0  0
   14.6400  -14.6268  -14.2686 C   0  0  0  0  0  0  0  0  0  0  0  0
   13.5978  -15.2612  -13.8204 N   0  0  0  0  0  0  0  0  0  0  0  0
   14.6188  -13.2095  -14.2062 N   0  0  0  0  0  0  0  0  0  0  0  0
   15.1227  -12.4068  -15.3001 C   0  0  0  0  0  0  0  0  0  0  0  0
   16.6302  -12.3254  -15.2031 C   0  0  0  0  0  0  0  0  0  0  0  0
   17.0761  -11.2774  -14.2274 C   0  0  0  0  0  0  0  0  0  0  0  0
   17.8579  -10.2248  -15.0171 C   0  0  2  0  0  0  0  0  0  0  0  0
   19.0202  -10.8332  -15.5885 N   0  0  0  0  0  0  0  0  0  0  0  0
   18.1491   -9.1146  -14.0800 C   0  0  0  0  0  0  0  0  0  0  0  0
   19.0941   -9.2869  -13.2701 O   0  0  0  0  0  0  0  0  0  0  0  0
   12.7333  -14.8083  -13.4968 O   0  0  0  0  0  0  0  0  0  0  0  0
   17.3065   -5.2975  -14.7242 C   0  0  0  0  0  0  0  0  0  0  0  0
   18.2453   -5.6542  -13.7436 C   0  0  1  0  0  0  0  0  0  0  0  0
   17.7062   -6.9082  -13.0809 N   0  0  0  0  0  0  0  0  0  0  0  0
   17.4095   -7.9191  -14.0871 C   0  0  0  0  0  0  0  0  0  0  0  0
   16.4723   -6.5966  -12.2973 O   0  0  0  0  0  0  0  0  0  0  0  0
   15.3242   -6.7867  -12.7903 C   0  0  0  0  0  0  0  0  0  0  0  0
   13.4505   -5.2128   -7.8261 C   0  0  1  0  0  0  0  0  0  0  0  0
   14.1530   -6.4992   -8.1369 C   0  0  0  0  0  0  0  0  0  0  0  0
   14.3420   -7.3533   -6.9160 C   0  0  0  0  0  0  0  0  0  0  0  0
   15.3089   -6.4320   -9.0175 C   0  0  2  0  0  0  0  0  0  0  0  0
   15.3320   -5.6327  -10.2481 N   0  0  0  0  0  0  0  0  0  0  0  0
   16.5467   -6.0793  -10.9782 C   0  0  0  0  0  0  0  0  0  0  0  0
   15.4668   -4.1741  -10.1257 O   0  0  0  0  0  0  0  0  0  0  0  0
   16.6023   -3.6605  -10.0246 O   0  0  0  0  0  0  0  0  0  0  0  0
  1  2  1  0
  2  3  2  0
  4  2  1  0
  5  4  1  0
  6  5  1  0
  7  8  1  0
  7  6  1  0
  8  9  1  1
 10 15  1  0
 10  8  1  0
 11 10  2  0
 14 13  1  1
 13 12  1  0
 14 15  1  0
 16 17  2  0
 16 14  1  0
 19 18  1  6
 19 21  1  0
 20 19  1  0
 22 21  1  6
 22 23  1  0
 23 16  1  0
 24 22  1  0
 25 24  2  0
 26 24  1  0
M  END
$$$$
