RSL.pdb
     RDKit          3D

 26 25  0  0  1  0  0  0  0  0999 V2000
   26.9344  -23.2531  -17.7363 N   0  0  0  0  0  0  0  0  0  0  0  0
   28.3448  -23.0879  -17.7858 C   0  0  0  0  0  0  0  0  0  0  0  0
   28.9870  -23.5217  -18.8295 N   0  0  0  0  0  0  0  0  0  0  0  0
   29.1067  -22.4735  -16.7587 N   0  0  0  0  0  0  0  0  0  0  0  0
   28.4633  -21.8744  -15.6090 C   0  0  0  0  0  0  0  0  0  0  0  0
   28.1609  -20.4229  -15.9094 C   0  0  0  0  0  0  0  0  0  0  0  0
   27.6331  -19.6971  -14.7079 C   0  0  0  0  0  0  0  0  0  0  0  0
   26.1975  -20.1774  -14.4814 C   0  0  2  0  0  0  0  0  0  0  0  0
   25.3803  -19.7488  -15.5751 N   0  0  0  0  0  0  0  0  0  0  0  0
   25.7734  -19.6539  -13.1617 C   0  0  0  0  0  0  0  0  0  0  0  0
   25.7607  -18.4053  -13.0225 O   0  0  0  0  0  0  0  0  0  0  0  0
   30.0084  -23.4867  -18.9424 O   0  0  0  0  0  0  0  0  0  0  0  0
   23.3763  -21.4595  -10.8655 C   0  0  0  0  0  0  0  0  0  0  0  0
   23.6892  -20.1723  -10.4013 C   0  0  1  0  0  0  0  0  0  0  0  0
   25.1314  -19.9201  -10.7995 N   0  0  0  0  0  0  0  0  0  0  0  0
   25.4003  -20.5047  -12.1066 C   0  0  0  0  0  0  0  0  0  0  0  0
   26.0633  -20.4993   -9.7848 O   0  0  0  0  0  0  0  0  0  0  0  0
   26.4391  -21.7036   -9.8603 C   0  0  0  0  0  0  0  0  0  0  0  0
   29.0802  -18.2506   -4.8877 C   0  0  1  0  0  0  0  0  0  0  0  0
   28.6955  -19.4896   -5.6371 C   0  0  0  0  0  0  0  0  0  0  0  0
   29.8017  -20.5053   -5.6629 C   0  0  0  0  0  0  0  0  0  0  0  0
   28.0004  -19.3147   -6.9031 C   0  0  2  0  0  0  0  0  0  0  0  0
   27.1486  -20.3511   -7.4981 N   0  0  0  0  0  0  0  0  0  0  0  0
   26.5567  -19.7203   -8.7064 C   0  0  0  0  0  0  0  0  0  0  0  0
   26.0046  -20.8423   -6.7165 O   0  0  0  0  0  0  0  0  0  0  0  0
   24.9369  -20.1918   -6.7004 O   0  0  0  0  0  0  0  0  0  0  0  0
  1  2  1  0
  2  3  2  0
  4  2  1  0
  5  4  1  0
  6  5  1  0
  7  8  1  0
  7  6  1  0
  8  9  1  6
 10 15  1  0
 10  8  1  0
 11 10  2  0
 14 13  1  6
 13 12  1  0
 14 15  1  0
 16 17  2  0
 16 14  1  0
 19 18  1  1
 19 21  1  0
 20 19  1  0
 22 21  1  6
 22 23  1  0
 23 16  1  0
 24 22  1  0
 25 24  2  0
 26 24  1  0
M  END
$$$$
