RSL.pdb
     RDKit          3D

 26 25  0  0  1  0  0  0  0  0999 V2000
   19.5924  -17.4253  -19.8085 N   0  0  0  0  0  0  0  0  0  0  0  0
   20.5065  -16.4645  -19.2986 C   0  0  0  0  0  0  0  0  0  0  0  0
   20.1865  -15.2060  -19.3591 N   0  0  0  0  0  0  0  0  0  0  0  0
   21.7602  -16.7926  -18.7211 N   0  0  0  0  0  0  0  0  0  0  0  0
   22.2233  -18.1630  -18.6717 C   0  0  0  0  0  0  0  0  0  0  0  0
   21.6533  -18.8358  -17.4424 C   0  0  0  0  0  0  0  0  0  0  0  0
   22.2049  -18.2540  -16.1750 C   0  0  0  0  0  0  0  0  0  0  0  0
   21.5673  -19.0155  -15.0104 C   0  0  2  0  0  0  0  0  0  0  0  0
   20.3573  -18.3564  -14.6240 N   0  0  0  0  0  0  0  0  0  0  0  0
   22.5879  -19.0936  -13.9391 C   0  0  0  0  0  0  0  0  0  0  0  0
   23.2818  -18.0654  -13.7386 O   0  0  0  0  0  0  0  0  0  0  0  0
   20.7667  -14.4382  -18.9970 O   0  0  0  0  0  0  0  0  0  0  0  0
   22.4837  -21.9545  -11.4874 C   0  0  0  0  0  0  0  0  0  0  0  0
   23.7897  -21.4699  -11.3156 C   0  0  2  0  0  0  0  0  0  0  0  0
   23.9581  -20.3475  -12.3227 N   0  0  0  0  0  0  0  0  0  0  0  0
   22.7805  -20.2582  -13.1757 C   0  0  0  0  0  0  0  0  0  0  0  0
   25.1743  -20.5751  -13.1611 O   0  0  0  0  0  0  0  0  0  0  0  0
   25.1390  -20.4141  -14.4141 C   0  0  0  0  0  0  0  0  0  0  0  0
   29.6659  -19.1372  -12.2652 C   0  0  1  0  0  0  0  0  0  0  0  0
   29.2593  -20.4180  -11.6026 C   0  0  0  0  0  0  0  0  0  0  0  0
   30.2843  -20.8978  -10.6151 C   0  0  0  0  0  0  0  0  0  0  0  0
   28.6972  -21.4582  -12.4501 C   0  0  2  0  0  0  0  0  0  0  0  0
   27.6161  -21.2101  -13.4111 N   0  0  0  0  0  0  0  0  0  0  0  0
   26.4053  -20.9775  -12.5817 C   0  0  0  0  0  0  0  0  0  0  0  0
   27.2502  -22.2906  -14.3382 O   0  0  0  0  0  0  0  0  0  0  0  0
   26.3596  -23.1085  -14.0198 O   0  0  0  0  0  0  0  0  0  0  0  0
  1  2  1  0
  2  3  2  0
  4  2  1  0
  5  4  1  0
  6  5  1  0
  7  8  1  0
  7  6  1  0
  8  9  1  1
 10 15  1  0
 10  8  1  0
 11 10  2  0
 14 13  1  1
 13 12  1  0
 14 15  1  0
 16 17  2  0
 16 14  1  0
 19 18  1  1
 19 21  1  0
 20 19  1  0
 22 21  1  1
 22 23  1  0
 23 16  1  0
 24 22  1  0
 25 24  2  0
 26 24  1  0
M  END
$$$$
