RSL.pdb
     RDKit          3D

 26 25  0  0  1  0  0  0  0  0999 V2000
   26.2309  -27.2520  -16.1180 N   0  0  0  0  0  0  0  0  0  0  0  0
   27.5422  -27.0762  -16.6360 C   0  0  0  0  0  0  0  0  0  0  0  0
   28.2024  -28.1243  -17.0303 N   0  0  0  0  0  0  0  0  0  0  0  0
   28.1855  -25.8170  -16.7524 N   0  0  0  0  0  0  0  0  0  0  0  0
   27.4791  -24.5882  -16.4596 C   0  0  0  0  0  0  0  0  0  0  0  0
   26.1695  -24.5757  -17.2169 C   0  0  0  0  0  0  0  0  0  0  0  0
   25.4171  -23.2934  -17.0196 C   0  0  0  0  0  0  0  0  0  0  0  0
   25.3009  -23.0624  -15.5110 C   0  0  2  0  0  0  0  0  0  0  0  0
   23.9946  -23.4515  -15.0751 N   0  0  0  0  0  0  0  0  0  0  0  0
   25.6248  -21.6369  -15.2693 C   0  0  0  0  0  0  0  0  0  0  0  0
   24.6989  -20.9096  -14.8307 O   0  0  0  0  0  0  0  0  0  0  0  0
   29.1406  -28.0992  -17.4502 O   0  0  0  0  0  0  0  0  0  0  0  0
   29.1062  -19.9826  -16.4950 C   0  0  0  0  0  0  0  0  0  0  0  0
   28.6211  -19.3895  -15.3191 C   0  0  1  0  0  0  0  0  0  0  0  0
   27.1349  -19.6920  -15.2770 N   0  0  0  0  0  0  0  0  0  0  0  0
   26.9050  -21.1108  -15.5155 C   0  0  0  0  0  0  0  0  0  0  0  0
   26.4069  -18.8823  -16.3007 O   0  0  0  0  0  0  0  0  0  0  0  0
   26.0398  -19.3968  -17.3951 C   0  0  0  0  0  0  0  0  0  0  0  0
   22.5401  -15.8153  -16.6049 C   0  0  2  0  0  0  0  0  0  0  0  0
   23.7399  -15.4094  -15.8045 C   0  0  0  0  0  0  0  0  0  0  0  0
   23.4949  -14.1614  -15.0055 C   0  0  0  0  0  0  0  0  0  0  0  0
   25.0335  -15.4632  -16.4678 C   0  0  2  0  0  0  0  0  0  0  0  0
   25.5317  -16.6610  -17.1541 N   0  0  0  0  0  0  0  0  0  0  0  0
   26.1036  -17.5139  -16.0801 C   0  0  0  0  0  0  0  0  0  0  0  0
   26.6121  -16.4984  -18.1375 O   0  0  0  0  0  0  0  0  0  0  0  0
   26.3340  -16.3205  -19.3436 O   0  0  0  0  0  0  0  0  0  0  0  0
  1  2  1  0
  2  3  2  0
  4  2  1  0
  5  4  1  0
  6  5  1  0
  7  8  1  0
  7  6  1  0
  8  9  1  6
 10 15  1  0
 10  8  1  0
 11 10  2  0
 14 13  1  1
 13 12  1  0
 14 15  1  0
 16 17  2  0
 16 14  1  0
 19 18  1  1
 19 21  1  0
 20 19  1  0
 22 21  1  1
 22 23  1  0
 23 16  1  0
 24 22  1  0
 25 24  2  0
 26 24  1  0
M  END
$$$$
