PTA.pdb
     RDKit          3D

 20 20  0  0  1  0  0  0  0  0999 V2000
    8.6704  -14.9093   20.2583 N   0  0  0  0  0  0  0  0  0  0  0  0
    8.4860  -14.4579   18.9011 C   0  0  0  0  0  0  0  0  0  0  0  0
    7.8308  -13.1065   18.9563 C   0  0  0  0  0  0  0  0  0  0  0  0
    7.2498  -13.1179   20.3776 C   0  0  0  0  0  0  0  0  0  0  0  0
    8.4219  -13.7687   21.0964 C   0  0  1  0  0  0  0  0  0  0  0  0
    8.1428  -14.0961   22.4865 C   0  0  0  0  0  0  0  0  0  0  0  0
    7.7238  -13.1960   23.2612 O   0  0  0  0  0  0  0  0  0  0  0  0
    6.6414  -17.7238   23.3277 C   0  0  0  0  0  0  0  0  0  0  0  0
    7.7279  -17.3161   24.2940 C   0  0  1  0  0  0  0  0  0  0  0  0
    8.8981  -17.9292   23.8046 O   0  0  0  0  0  0  0  0  0  0  0  0
    7.9512  -15.8146   24.3414 C   0  0  2  0  0  0  0  0  0  0  0  0
    8.3333  -15.3913   22.9694 N   0  0  0  0  0  0  0  0  0  0  0  0
    8.9849  -15.3842   25.2904 C   0  0  0  0  0  0  0  0  0  0  0  0
   10.2071  -15.3249   24.8894 O   0  0  0  0  0  0  0  0  0  0  0  0
    9.3383  -13.4017   28.3759 C   0  0  0  0  0  0  0  0  0  0  0  0
    9.8321  -14.5365   27.5028 C   0  0  2  0  0  0  0  0  0  0  0  0
    8.7781  -15.0178   26.6222 N   0  0  0  0  0  0  0  0  0  0  0  0
   10.2229  -15.6441   28.4116 C   0  0  0  0  0  0  0  0  0  0  0  0
   11.2992  -15.5730   29.2849 O   0  0  0  0  0  0  0  0  0  0  0  0
    9.5746  -16.7384   28.4345 O   0  0  0  0  0  0  0  0  0  0  0  0
  1  2  1  0
  3  2  1  0
  4  3  1  0
  4  5  1  0
  5  1  1  0
  6 12  1  0
  5  6  1  1
  7  6  2  0
  9  8  1  6
  9 11  1  0
 10  9  1  0
 11 12  1  6
 11 13  1  0
 13 14  2  0
 16 15  1  1
 16 18  1  0
 17 13  1  0
 17 16  1  0
 18 19  1  0
 20 18  2  0
M  END
$$$$
