PTA.pdb
     RDKit          3D

 20 20  0  0  1  0  0  0  0  0999 V2000
    8.7197  -15.1618   20.2857 N   0  0  0  0  0  0  0  0  0  0  0  0
    8.6105  -14.8484   18.8822 C   0  0  0  0  0  0  0  0  0  0  0  0
    8.2287  -13.3993   18.7681 C   0  0  0  0  0  0  0  0  0  0  0  0
    7.6724  -13.1290   20.1735 C   0  0  0  0  0  0  0  0  0  0  0  0
    8.7051  -13.9030   20.9788 C   0  0  1  0  0  0  0  0  0  0  0  0
    8.3837  -14.0023   22.3946 C   0  0  0  0  0  0  0  0  0  0  0  0
    8.1385  -12.9537   23.0476 O   0  0  0  0  0  0  0  0  0  0  0  0
    5.8881  -16.7707   23.4955 C   0  0  0  0  0  0  0  0  0  0  0  0
    7.0771  -16.7528   24.4263 C   0  0  1  0  0  0  0  0  0  0  0  0
    7.9350  -17.7586   23.9391 O   0  0  0  0  0  0  0  0  0  0  0  0
    7.8244  -15.4307   24.4138 C   0  0  2  0  0  0  0  0  0  0  0  0
    8.3441  -15.2414   23.0348 N   0  0  0  0  0  0  0  0  0  0  0  0
    8.9360  -15.3527   25.3691 C   0  0  0  0  0  0  0  0  0  0  0  0
   10.0950  -15.7811   25.0064 O   0  0  0  0  0  0  0  0  0  0  0  0
    9.7591  -13.6312   28.6019 C   0  0  0  0  0  0  0  0  0  0  0  0
   10.0315  -14.6624   27.5265 C   0  0  2  0  0  0  0  0  0  0  0  0
    8.8702  -14.8449   26.6685 N   0  0  0  0  0  0  0  0  0  0  0  0
   10.3073  -15.9474   28.2181 C   0  0  0  0  0  0  0  0  0  0  0  0
   11.4993  -16.2225   28.8734 O   0  0  0  0  0  0  0  0  0  0  0  0
    9.4436  -16.8810   28.2442 O   0  0  0  0  0  0  0  0  0  0  0  0
  1  2  1  0
  3  2  1  0
  4  3  1  0
  4  5  1  0
  5  1  1  0
  6 12  1  0
  5  6  1  1
  7  6  2  0
  9  8  1  6
  9 11  1  0
 10  9  1  0
 11 12  1  6
 11 13  1  0
 13 14  2  0
 16 15  1  1
 16 18  1  0
 17 13  1  0
 17 16  1  0
 18 19  1  0
 20 18  2  0
M  END
$$$$
