PTA.pdb
     RDKit          3D

 20 20  0  0  1  0  0  0  0  0999 V2000
    8.0418  -15.1279   19.5082 N   0  0  0  0  0  0  0  0  0  0  0  0
    8.3274  -14.3579   18.3227 C   0  0  0  0  0  0  0  0  0  0  0  0
    8.6024  -12.9446   18.7536 C   0  0  0  0  0  0  0  0  0  0  0  0
    7.9617  -12.9315   20.1490 C   0  0  0  0  0  0  0  0  0  0  0  0
    8.4204  -14.3026   20.6220 C   0  0  1  0  0  0  0  0  0  0  0  0
    7.8359  -14.7054   21.8923 C   0  0  0  0  0  0  0  0  0  0  0  0
    6.5909  -14.8768   21.9730 O   0  0  0  0  0  0  0  0  0  0  0  0
    6.5128  -16.8982   23.1556 C   0  0  0  0  0  0  0  0  0  0  0  0
    7.6123  -16.7541   24.1808 C   0  0  1  0  0  0  0  0  0  0  0  0
    8.6741  -17.5375   23.6872 O   0  0  0  0  0  0  0  0  0  0  0  0
    8.0978  -15.3236   24.3376 C   0  0  2  0  0  0  0  0  0  0  0  0
    8.6361  -14.9032   23.0181 N   0  0  0  0  0  0  0  0  0  0  0  0
    9.1295  -15.1420   25.3657 C   0  0  0  0  0  0  0  0  0  0  0  0
   10.3568  -15.3845   25.0606 O   0  0  0  0  0  0  0  0  0  0  0  0
    9.5521  -13.5309   28.7257 C   0  0  0  0  0  0  0  0  0  0  0  0
    9.9851  -14.4966   27.6422 C   0  0  2  0  0  0  0  0  0  0  0  0
    8.9164  -14.7181   26.6793 N   0  0  0  0  0  0  0  0  0  0  0  0
   10.2877  -15.7887   28.3090 C   0  0  0  0  0  0  0  0  0  0  0  0
   11.4152  -16.0004   29.0898 O   0  0  0  0  0  0  0  0  0  0  0  0
    9.5094  -16.7884   28.1940 O   0  0  0  0  0  0  0  0  0  0  0  0
  1  2  1  0
  3  2  1  0
  4  3  1  0
  4  5  1  0
  5  1  1  0
  6 12  1  0
  5  6  1  1
  7  6  2  0
  9  8  1  6
  9 11  1  0
 10  9  1  0
 11 12  1  6
 11 13  1  0
 13 14  2  0
 16 15  1  1
 16 18  1  0
 17 13  1  0
 17 16  1  0
 18 19  1  0
 20 18  2  0
M  END
$$$$
