PTA.pdb
     RDKit          3D

 20 20  0  0  1  0  0  0  0  0999 V2000
    8.6068  -15.3391   17.9733 N   0  0  0  0  0  0  0  0  0  0  0  0
    8.3520  -15.0002   16.5949 C   0  0  0  0  0  0  0  0  0  0  0  0
    8.6126  -13.5291   16.4324 C   0  0  0  0  0  0  0  0  0  0  0  0
    8.5324  -13.0524   17.8898 C   0  0  0  0  0  0  0  0  0  0  0  0
    9.2773  -14.2046   18.5466 C   0  0  1  0  0  0  0  0  0  0  0  0
    9.2477  -14.1630   20.0009 C   0  0  0  0  0  0  0  0  0  0  0  0
    9.7490  -13.1760   20.6012 O   0  0  0  0  0  0  0  0  0  0  0  0
    6.1461  -14.3898   21.9972 C   0  0  0  0  0  0  0  0  0  0  0  0
    7.0787  -15.4509   22.5309 C   0  0  1  0  0  0  0  0  0  0  0  0
    6.6929  -16.6367   21.8752 O   0  0  0  0  0  0  0  0  0  0  0  0
    8.5385  -15.1756   22.2149 C   0  0  2  0  0  0  0  0  0  0  0  0
    8.6722  -15.2004   20.7354 N   0  0  0  0  0  0  0  0  0  0  0  0
    9.4789  -16.1351   22.8060 C   0  0  0  0  0  0  0  0  0  0  0  0
    9.9435  -17.0817   22.0669 O   0  0  0  0  0  0  0  0  0  0  0  0
   11.4084  -16.6981   26.0011 C   0  0  0  0  0  0  0  0  0  0  0  0
   10.8239  -17.1452   24.6773 C   0  0  2  0  0  0  0  0  0  0  0  0
    9.9406  -16.1293   24.1241 N   0  0  0  0  0  0  0  0  0  0  0  0
   10.0208  -18.3648   24.9478 C   0  0  0  0  0  0  0  0  0  0  0  0
   10.5811  -19.5952   25.2611 O   0  0  0  0  0  0  0  0  0  0  0  0
    8.7497  -18.3404   24.9045 O   0  0  0  0  0  0  0  0  0  0  0  0
  1  2  1  0
  3  2  1  0
  4  3  1  0
  4  5  1  0
  5  1  1  0
  6 12  1  0
  5  6  1  1
  7  6  2  0
  9  8  1  6
  9 11  1  0
 10  9  1  0
 11 12  1  6
 11 13  1  0
 13 14  2  0
 16 15  1  1
 16 18  1  0
 17 13  1  0
 17 16  1  0
 18 19  1  0
 20 18  2  0
M  END
$$$$
