PTA.pdb
     RDKit          3D

 20 20  0  0  1  0  0  0  0  0999 V2000
    8.7712  -14.9353   20.0296 N   0  0  0  0  0  0  0  0  0  0  0  0
    8.6417  -14.5453   18.6472 C   0  0  0  0  0  0  0  0  0  0  0  0
    8.0601  -13.1599   18.6180 C   0  0  0  0  0  0  0  0  0  0  0  0
    7.4481  -13.0669   20.0232 C   0  0  0  0  0  0  0  0  0  0  0  0
    8.5668  -13.7413   20.8027 C   0  0  1  0  0  0  0  0  0  0  0  0
    8.2396  -13.9811   22.2002 C   0  0  0  0  0  0  0  0  0  0  0  0
    7.8481  -13.0222   22.9165 O   0  0  0  0  0  0  0  0  0  0  0  0
    6.3795  -17.3479   23.1392 C   0  0  0  0  0  0  0  0  0  0  0  0
    7.4935  -17.0542   24.1156 C   0  0  1  0  0  0  0  0  0  0  0  0
    8.5842  -17.8232   23.6641 O   0  0  0  0  0  0  0  0  0  0  0  0
    7.9042  -15.5922   24.1296 C   0  0  2  0  0  0  0  0  0  0  0  0
    8.3541  -15.2568   22.7538 N   0  0  0  0  0  0  0  0  0  0  0  0
    8.9720  -15.2707   25.0840 C   0  0  0  0  0  0  0  0  0  0  0  0
   10.1936  -15.2954   24.6774 O   0  0  0  0  0  0  0  0  0  0  0  0
    9.5243  -13.4741   28.2609 C   0  0  0  0  0  0  0  0  0  0  0  0
    9.8964  -14.6081   27.3284 C   0  0  2  0  0  0  0  0  0  0  0  0
    8.7995  -14.9272   26.4267 N   0  0  0  0  0  0  0  0  0  0  0  0
   10.1638  -15.7971   28.1771 C   0  0  0  0  0  0  0  0  0  0  0  0
   11.2066  -15.8658   29.0902 O   0  0  0  0  0  0  0  0  0  0  0  0
    9.4324  -16.8356   28.1068 O   0  0  0  0  0  0  0  0  0  0  0  0
  1  2  1  0
  3  2  1  0
  4  3  1  0
  4  5  1  0
  5  1  1  0
  6 12  1  0
  5  6  1  1
  7  6  2  0
  9  8  1  6
  9 11  1  0
 10  9  1  0
 11 12  1  6
 11 13  1  0
 13 14  2  0
 16 15  1  1
 16 18  1  0
 17 13  1  0
 17 16  1  0
 18 19  1  0
 20 18  2  0
M  END
$$$$
