PTA.pdb
     RDKit          3D

 20 20  0  0  1  0  0  0  0  0999 V2000
    8.9681  -14.8453   20.0740 N   0  0  0  0  0  0  0  0  0  0  0  0
    8.9124  -14.4924   18.6768 C   0  0  0  0  0  0  0  0  0  0  0  0
    8.2381  -13.1534   18.5723 C   0  0  0  0  0  0  0  0  0  0  0  0
    7.5204  -13.0777   19.9276 C   0  0  0  0  0  0  0  0  0  0  0  0
    8.6241  -13.6544   20.8011 C   0  0  1  0  0  0  0  0  0  0  0  0
    8.2137  -13.8902   22.1772 C   0  0  0  0  0  0  0  0  0  0  0  0
    7.7264  -12.9421   22.8477 O   0  0  0  0  0  0  0  0  0  0  0  0
    6.2268  -17.1086   23.0836 C   0  0  0  0  0  0  0  0  0  0  0  0
    7.3502  -16.9098   24.0730 C   0  0  1  0  0  0  0  0  0  0  0  0
    8.3915  -17.7390   23.6117 O   0  0  0  0  0  0  0  0  0  0  0  0
    7.8559  -15.4785   24.1213 C   0  0  2  0  0  0  0  0  0  0  0  0
    8.3533  -15.1501   22.7602 N   0  0  0  0  0  0  0  0  0  0  0  0
    8.9240  -15.2449   25.1005 C   0  0  0  0  0  0  0  0  0  0  0  0
   10.1435  -15.4653   24.7507 O   0  0  0  0  0  0  0  0  0  0  0  0
    9.4693  -13.5608   28.4043 C   0  0  0  0  0  0  0  0  0  0  0  0
    9.8530  -14.5657   27.3381 C   0  0  2  0  0  0  0  0  0  0  0  0
    8.7544  -14.7919   26.4108 N   0  0  0  0  0  0  0  0  0  0  0  0
   10.1474  -15.8444   28.0337 C   0  0  0  0  0  0  0  0  0  0  0  0
   11.2788  -16.0492   28.8107 O   0  0  0  0  0  0  0  0  0  0  0  0
    9.3578  -16.8383   27.9490 O   0  0  0  0  0  0  0  0  0  0  0  0
  1  2  1  0
  3  2  1  0
  4  3  1  0
  4  5  1  0
  5  1  1  0
  6 12  1  0
  5  6  1  1
  7  6  2  0
  9  8  1  6
  9 11  1  0
 10  9  1  0
 11 12  1  6
 11 13  1  0
 13 14  2  0
 16 15  1  1
 16 18  1  0
 17 13  1  0
 17 16  1  0
 18 19  1  0
 20 18  2  0
M  END
$$$$
