PTA.pdb
     RDKit          3D

 20 20  0  0  1  0  0  0  0  0999 V2000
    9.1208  -15.2537   15.1192 N   0  0  0  0  0  0  0  0  0  0  0  0
    8.8406  -16.2238   14.0895 C   0  0  0  0  0  0  0  0  0  0  0  0
    8.5171  -17.5257   14.7669 C   0  0  0  0  0  0  0  0  0  0  0  0
    9.1258  -17.2942   16.1574 C   0  0  0  0  0  0  0  0  0  0  0  0
    8.6947  -15.8489   16.3559 C   0  0  1  0  0  0  0  0  0  0  0  0
    9.2617  -15.2307   17.5450 C   0  0  0  0  0  0  0  0  0  0  0  0
   10.4193  -14.7377   17.4930 O   0  0  0  0  0  0  0  0  0  0  0  0
    7.5298  -12.5623   19.5886 C   0  0  0  0  0  0  0  0  0  0  0  0
    7.9361  -13.6739   20.5265 C   0  0  1  0  0  0  0  0  0  0  0  0
    6.7821  -14.4695   20.6682 O   0  0  0  0  0  0  0  0  0  0  0  0
    9.0564  -14.5391   19.9760 C   0  0  2  0  0  0  0  0  0  0  0  0
    8.5399  -15.1781   18.7380 N   0  0  0  0  0  0  0  0  0  0  0  0
    9.5314  -15.5768   20.8989 C   0  0  0  0  0  0  0  0  0  0  0  0
    9.0112  -16.7526   20.8290 O   0  0  0  0  0  0  0  0  0  0  0  0
   12.4466  -16.1577   23.1953 C   0  0  0  0  0  0  0  0  0  0  0  0
   11.0893  -16.5250   22.6325 C   0  0  2  0  0  0  0  0  0  0  0  0
   10.5202  -15.4215   21.8731 N   0  0  0  0  0  0  0  0  0  0  0  0
   10.2008  -16.8022   23.7898 C   0  0  0  0  0  0  0  0  0  0  0  0
   10.3900  -17.8654   24.6614 O   0  0  0  0  0  0  0  0  0  0  0  0
    9.1990  -16.0607   24.0446 O   0  0  0  0  0  0  0  0  0  0  0  0
  1  2  1  0
  3  2  1  0
  4  3  1  0
  4  5  1  0
  5  1  1  0
  6 12  1  0
  5  6  1  1
  7  6  2  0
  9  8  1  6
  9 11  1  0
 10  9  1  0
 11 12  1  6
 11 13  1  0
 13 14  2  0
 16 15  1  1
 16 18  1  0
 17 13  1  0
 17 16  1  0
 18 19  1  0
 20 18  2  0
M  END
$$$$
