PTA.pdb
     RDKit          3D

 20 20  0  0  1  0  0  0  0  0999 V2000
    7.7252  -14.8382   19.4592 N   0  0  0  0  0  0  0  0  0  0  0  0
    7.9358  -13.9028   18.3819 C   0  0  0  0  0  0  0  0  0  0  0  0
    8.3480  -12.5923   18.9914 C   0  0  0  0  0  0  0  0  0  0  0  0
    7.8592  -12.7718   20.4359 C   0  0  0  0  0  0  0  0  0  0  0  0
    8.2725  -14.2220   20.6365 C   0  0  1  0  0  0  0  0  0  0  0  0
    7.7986  -14.7942   21.8877 C   0  0  0  0  0  0  0  0  0  0  0  0
    6.5602  -14.8620   22.1064 O   0  0  0  0  0  0  0  0  0  0  0  0
    7.4001  -17.8447   23.0710 C   0  0  0  0  0  0  0  0  0  0  0  0
    8.3084  -17.2712   24.1325 C   0  0  1  0  0  0  0  0  0  0  0  0
    9.6039  -17.6840   23.7637 O   0  0  0  0  0  0  0  0  0  0  0  0
    8.2801  -15.7536   24.1851 C   0  0  2  0  0  0  0  0  0  0  0  0
    8.6973  -15.2671   22.8446 N   0  0  0  0  0  0  0  0  0  0  0  0
    9.1506  -15.1655   25.2102 C   0  0  0  0  0  0  0  0  0  0  0  0
   10.3743  -14.9033   24.9069 O   0  0  0  0  0  0  0  0  0  0  0  0
    9.0311  -13.2168   28.3306 C   0  0  0  0  0  0  0  0  0  0  0  0
    9.6980  -14.3002   27.5086 C   0  0  2  0  0  0  0  0  0  0  0  0
    8.7815  -14.8469   26.5190 N   0  0  0  0  0  0  0  0  0  0  0  0
   10.0736  -15.3875   28.4479 C   0  0  0  0  0  0  0  0  0  0  0  0
   11.0237  -15.2393   29.4485 O   0  0  0  0  0  0  0  0  0  0  0  0
    9.5295  -16.5354   28.3794 O   0  0  0  0  0  0  0  0  0  0  0  0
  1  2  1  0
  3  2  1  0
  4  3  1  0
  4  5  1  0
  5  1  1  0
  6 12  1  0
  5  6  1  1
  7  6  2  0
  9  8  1  6
  9 11  1  0
 10  9  1  0
 11 12  1  6
 11 13  1  0
 13 14  2  0
 16 15  1  1
 16 18  1  0
 17 13  1  0
 17 16  1  0
 18 19  1  0
 20 18  2  0
M  END
$$$$
