PTA.pdb
     RDKit          3D

 20 20  0  0  1  0  0  0  0  0999 V2000
    8.8064  -14.9904   20.1924 N   0  0  0  0  0  0  0  0  0  0  0  0
    8.7087  -14.6075   18.8054 C   0  0  0  0  0  0  0  0  0  0  0  0
    8.0507  -13.2574   18.7515 C   0  0  0  0  0  0  0  0  0  0  0  0
    7.3803  -13.2004   20.1317 C   0  0  0  0  0  0  0  0  0  0  0  0
    8.5044  -13.8106   20.9551 C   0  0  1  0  0  0  0  0  0  0  0  0
    8.1373  -14.0695   22.3392 C   0  0  0  0  0  0  0  0  0  0  0  0
    7.7024  -13.1255   23.0502 O   0  0  0  0  0  0  0  0  0  0  0  0
    8.5164  -18.0911   23.8770 C   0  0  0  0  0  0  0  0  0  0  0  0
    7.3865  -17.1527   24.2282 C   0  0  1  0  0  0  0  0  0  0  0  0
    6.9892  -17.5321   25.5255 O   0  0  0  0  0  0  0  0  0  0  0  0
    7.8099  -15.6945   24.2583 C   0  0  2  0  0  0  0  0  0  0  0  0
    8.2611  -15.3473   22.8858 N   0  0  0  0  0  0  0  0  0  0  0  0
    8.8816  -15.3932   25.2149 C   0  0  0  0  0  0  0  0  0  0  0  0
   10.1020  -15.6097   24.8656 O   0  0  0  0  0  0  0  0  0  0  0  0
    9.4471  -13.3680   28.2869 C   0  0  0  0  0  0  0  0  0  0  0  0
    9.8183  -14.5252   27.3830 C   0  0  2  0  0  0  0  0  0  0  0  0
    8.7146  -14.8779   26.5022 N   0  0  0  0  0  0  0  0  0  0  0  0
   10.1036  -15.6877   28.2621 C   0  0  0  0  0  0  0  0  0  0  0  0
   11.2147  -15.7657   29.0899 O   0  0  0  0  0  0  0  0  0  0  0  0
    9.3247  -16.6928   28.2999 O   0  0  0  0  0  0  0  0  0  0  0  0
  1  2  1  0
  3  2  1  0
  4  3  1  0
  4  5  1  0
  5  1  1  0
  6 12  1  0
  5  6  1  1
  7  6  2  0
  9  8  1  1
  9 11  1  0
 10  9  1  0
 11 12  1  6
 11 13  1  0
 13 14  2  0
 16 15  1  1
 16 18  1  0
 17 13  1  0
 17 16  1  0
 18 19  1  0
 20 18  2  0
M  END
$$$$
