PTA.pdb
     RDKit          3D

 20 20  0  0  1  0  0  0  0  0999 V2000
    8.7807  -14.8229   20.1983 N   0  0  0  0  0  0  0  0  0  0  0  0
    8.6907  -14.3794   18.8289 C   0  0  0  0  0  0  0  0  0  0  0  0
    7.9549  -13.0691   18.8227 C   0  0  0  0  0  0  0  0  0  0  0  0
    7.2523  -13.1184   20.1871 C   0  0  0  0  0  0  0  0  0  0  0  0
    8.3926  -13.7011   21.0082 C   0  0  1  0  0  0  0  0  0  0  0  0
    8.0114  -14.0480   22.3691 C   0  0  0  0  0  0  0  0  0  0  0  0
    7.5058  -13.1666   23.1130 O   0  0  0  0  0  0  0  0  0  0  0  0
    6.5303  -17.6800   23.3355 C   0  0  0  0  0  0  0  0  0  0  0  0
    7.6608  -17.2468   24.2383 C   0  0  1  0  0  0  0  0  0  0  0  0
    8.8103  -17.8574   23.6994 O   0  0  0  0  0  0  0  0  0  0  0  0
    7.8714  -15.7428   24.2503 C   0  0  2  0  0  0  0  0  0  0  0  0
    8.1990  -15.3415   22.8576 N   0  0  0  0  0  0  0  0  0  0  0  0
    8.9352  -15.2860   25.1525 C   0  0  0  0  0  0  0  0  0  0  0  0
   10.1455  -15.2498   24.7142 O   0  0  0  0  0  0  0  0  0  0  0  0
    9.4907  -13.2338   28.1498 C   0  0  0  0  0  0  0  0  0  0  0  0
    9.8668  -14.4554   27.3373 C   0  0  2  0  0  0  0  0  0  0  0  0
    8.7698  -14.8705   26.4757 N   0  0  0  0  0  0  0  0  0  0  0  0
   10.1419  -15.5500   28.3026 C   0  0  0  0  0  0  0  0  0  0  0  0
   11.2034  -15.5323   29.1965 O   0  0  0  0  0  0  0  0  0  0  0  0
    9.4002  -16.5820   28.3585 O   0  0  0  0  0  0  0  0  0  0  0  0
  1  2  1  0
  3  2  1  0
  4  3  1  0
  4  5  1  0
  5  1  1  0
  6 12  1  0
  5  6  1  1
  7  6  2  0
  9  8  1  6
  9 11  1  0
 10  9  1  0
 11 12  1  6
 11 13  1  0
 13 14  2  0
 16 15  1  1
 16 18  1  0
 17 13  1  0
 17 16  1  0
 18 19  1  0
 20 18  2  0
M  END
$$$$
