PTA.pdb
     RDKit          3D

 20 20  0  0  1  0  0  0  0  0999 V2000
   10.2125  -17.1042   19.9116 N   0  0  0  0  0  0  0  0  0  0  0  0
   11.2792  -17.3573   18.9746 C   0  0  0  0  0  0  0  0  0  0  0  0
   12.5690  -16.9593   19.6353 C   0  0  0  0  0  0  0  0  0  0  0  0
   12.0565  -16.0401   20.7535 C   0  0  0  0  0  0  0  0  0  0  0  0
   10.8437  -16.8542   21.1781 C   0  0  1  0  0  0  0  0  0  0  0  0
    9.9964  -16.1740   22.1461 C   0  0  0  0  0  0  0  0  0  0  0  0
    9.3811  -15.1301   21.8029 O   0  0  0  0  0  0  0  0  0  0  0  0
    6.8956  -16.9092   23.4844 C   0  0  0  0  0  0  0  0  0  0  0  0
    7.8011  -16.8644   24.6922 C   0  0  1  0  0  0  0  0  0  0  0  0
    8.2181  -18.1965   24.8831 O   0  0  0  0  0  0  0  0  0  0  0  0
    9.0303  -15.9971   24.4840 C   0  0  2  0  0  0  0  0  0  0  0  0
    9.8581  -16.6633   23.4454 N   0  0  0  0  0  0  0  0  0  0  0  0
    9.8378  -15.7887   25.6918 C   0  0  0  0  0  0  0  0  0  0  0  0
   10.9136  -16.4799   25.8441 O   0  0  0  0  0  0  0  0  0  0  0  0
    9.9690  -13.5123   28.7071 C   0  0  0  0  0  0  0  0  0  0  0  0
   10.3993  -14.7188   27.8990 C   0  0  2  0  0  0  0  0  0  0  0  0
    9.5574  -14.8909   26.7243 N   0  0  0  0  0  0  0  0  0  0  0  0
   10.2304  -15.9081   28.7723 C   0  0  0  0  0  0  0  0  0  0  0  0
   11.0729  -16.2019   29.8352 O   0  0  0  0  0  0  0  0  0  0  0  0
    9.2824  -16.7352   28.5842 O   0  0  0  0  0  0  0  0  0  0  0  0
  1  2  1  0
  3  2  1  0
  4  3  1  0
  4  5  1  0
  5  1  1  0
  6 12  1  0
  5  6  1  1
  7  6  2  0
  9  8  1  6
  9 11  1  0
 10  9  1  0
 11 12  1  6
 11 13  1  0
 13 14  2  0
 16 15  1  1
 16 18  1  0
 17 13  1  0
 17 16  1  0
 18 19  1  0
 20 18  2  0
M  END
$$$$
