PTA.pdb
     RDKit          3D

 20 20  0  0  1  0  0  0  0  0999 V2000
   10.0505  -16.3296   14.1520 N   0  0  0  0  0  0  0  0  0  0  0  0
    9.8210  -17.4717   13.3019 C   0  0  0  0  0  0  0  0  0  0  0  0
    9.0119  -18.4667   14.0854 C   0  0  0  0  0  0  0  0  0  0  0  0
    9.2650  -17.9872   15.5220 C   0  0  0  0  0  0  0  0  0  0  0  0
    9.1742  -16.4882   15.2799 C   0  0  1  0  0  0  0  0  0  0  0  0
    9.5394  -15.6885   16.4395 C   0  0  0  0  0  0  0  0  0  0  0  0
   10.7293  -15.2973   16.5705 O   0  0  0  0  0  0  0  0  0  0  0  0
    7.8664  -12.8492   20.1587 C   0  0  0  0  0  0  0  0  0  0  0  0
    7.6821  -13.7318   18.9472 C   0  0  1  0  0  0  0  0  0  0  0  0
    7.4500  -12.8410   17.8807 O   0  0  0  0  0  0  0  0  0  0  0  0
    8.9100  -14.5650   18.6240 C   0  0  2  0  0  0  0  0  0  0  0  0
    8.5898  -15.3512   17.4046 N   0  0  0  0  0  0  0  0  0  0  0  0
    9.3248  -15.4764   19.6971 C   0  0  0  0  0  0  0  0  0  0  0  0
    8.6700  -16.5722   19.8661 O   0  0  0  0  0  0  0  0  0  0  0  0
   12.3467  -16.1208   21.7869 C   0  0  0  0  0  0  0  0  0  0  0  0
   10.8666  -16.2879   21.5125 C   0  0  2  0  0  0  0  0  0  0  0  0
   10.3886  -15.2778   20.5801 N   0  0  0  0  0  0  0  0  0  0  0  0
   10.1620  -16.0995   22.8062 C   0  0  0  0  0  0  0  0  0  0  0  0
   10.2756  -16.9788   23.8738 O   0  0  0  0  0  0  0  0  0  0  0  0
    9.4017  -15.0988   23.0034 O   0  0  0  0  0  0  0  0  0  0  0  0
  1  2  1  0
  3  2  1  0
  4  3  1  0
  4  5  1  0
  5  1  1  0
  6 12  1  0
  5  6  1  1
  7  6  2  0
  9  8  1  1
  9 11  1  0
 10  9  1  0
 11 12  1  6
 11 13  1  0
 13 14  2  0
 16 15  1  1
 16 18  1  0
 17 13  1  0
 17 16  1  0
 18 19  1  0
 20 18  2  0
M  END
$$$$
