PTA.pdb
     RDKit          3D

 20 20  0  0  1  0  0  0  0  0999 V2000
    8.7186  -14.9888   20.1086 N   0  0  0  0  0  0  0  0  0  0  0  0
    8.6380  -14.6024   18.7215 C   0  0  0  0  0  0  0  0  0  0  0  0
    8.0017  -13.2422   18.6644 C   0  0  0  0  0  0  0  0  0  0  0  0
    7.3212  -13.1766   20.0393 C   0  0  0  0  0  0  0  0  0  0  0  0
    8.4291  -13.8054   20.8708 C   0  0  1  0  0  0  0  0  0  0  0  0
    8.0469  -14.0605   22.2515 C   0  0  0  0  0  0  0  0  0  0  0  0
    7.6225  -13.1104   22.9609 O   0  0  0  0  0  0  0  0  0  0  0  0
    6.2973  -17.5166   23.2834 C   0  0  0  0  0  0  0  0  0  0  0  0
    7.4167  -17.1445   24.2263 C   0  0  1  0  0  0  0  0  0  0  0  0
    8.5333  -17.8721   23.7697 O   0  0  0  0  0  0  0  0  0  0  0  0
    7.7565  -15.6646   24.1939 C   0  0  2  0  0  0  0  0  0  0  0  0
    8.1448  -15.3412   22.7966 N   0  0  0  0  0  0  0  0  0  0  0  0
    8.8380  -15.2701   25.1045 C   0  0  0  0  0  0  0  0  0  0  0  0
   10.0566  -15.3826   24.7036 O   0  0  0  0  0  0  0  0  0  0  0  0
    9.4163  -13.2776   28.1990 C   0  0  0  0  0  0  0  0  0  0  0  0
    9.7933  -14.4112   27.2680 C   0  0  2  0  0  0  0  0  0  0  0  0
    8.6821  -14.7671   26.3981 N   0  0  0  0  0  0  0  0  0  0  0  0
   10.1126  -15.5844   28.1208 C   0  0  0  0  0  0  0  0  0  0  0  0
   11.2221  -15.6459   28.9522 O   0  0  0  0  0  0  0  0  0  0  0  0
    9.3667  -16.6149   28.1310 O   0  0  0  0  0  0  0  0  0  0  0  0
  1  2  1  0
  3  2  1  0
  4  3  1  0
  4  5  1  0
  5  1  1  0
  6 12  1  0
  5  6  1  1
  7  6  2  0
  9  8  1  6
  9 11  1  0
 10  9  1  0
 11 12  1  6
 11 13  1  0
 13 14  2  0
 16 15  1  1
 16 18  1  0
 17 13  1  0
 17 16  1  0
 18 19  1  0
 20 18  2  0
M  END
$$$$
