PTA.pdb
     RDKit          3D

 20 20  0  0  1  0  0  0  0  0999 V2000
    7.7744  -14.9053   19.4682 N   0  0  0  0  0  0  0  0  0  0  0  0
    7.9644  -14.0526   18.3207 C   0  0  0  0  0  0  0  0  0  0  0  0
    8.3070  -12.6794   18.8261 C   0  0  0  0  0  0  0  0  0  0  0  0
    7.7989  -12.7620   20.2727 C   0  0  0  0  0  0  0  0  0  0  0  0
    8.2715  -14.1706   20.5989 C   0  0  1  0  0  0  0  0  0  0  0  0
    7.7993  -14.6594   21.8856 C   0  0  0  0  0  0  0  0  0  0  0  0
    6.5610  -14.7604   22.0917 O   0  0  0  0  0  0  0  0  0  0  0  0
    7.0330  -17.4110   23.0891 C   0  0  0  0  0  0  0  0  0  0  0  0
    8.1016  -17.0267   24.0845 C   0  0  1  0  0  0  0  0  0  0  0  0
    9.2929  -17.5730   23.5675 O   0  0  0  0  0  0  0  0  0  0  0  0
    8.2769  -15.5243   24.2210 C   0  0  2  0  0  0  0  0  0  0  0  0
    8.6994  -15.0161   22.8903 N   0  0  0  0  0  0  0  0  0  0  0  0
    9.2590  -15.1172   25.2330 C   0  0  0  0  0  0  0  0  0  0  0  0
   10.4919  -14.9908   24.8833 O   0  0  0  0  0  0  0  0  0  0  0  0
    9.4494  -13.4448   28.5357 C   0  0  0  0  0  0  0  0  0  0  0  0
   10.0059  -14.4394   27.5382 C   0  0  2  0  0  0  0  0  0  0  0  0
    8.9909  -14.8407   26.5755 N   0  0  0  0  0  0  0  0  0  0  0  0
   10.4195  -15.6401   28.3081 C   0  0  0  0  0  0  0  0  0  0  0  0
   11.4820  -15.6473   29.2008 O   0  0  0  0  0  0  0  0  0  0  0  0
    9.8053  -16.7471   28.1838 O   0  0  0  0  0  0  0  0  0  0  0  0
  1  2  1  0
  3  2  1  0
  4  3  1  0
  4  5  1  0
  5  1  1  0
  6 12  1  0
  5  6  1  1
  7  6  2  0
  9  8  1  6
  9 11  1  0
 10  9  1  0
 11 12  1  6
 11 13  1  0
 13 14  2  0
 16 15  1  1
 16 18  1  0
 17 13  1  0
 17 16  1  0
 18 19  1  0
 20 18  2  0
M  END
$$$$
