PTA.pdb
     RDKit          3D

 20 20  0  0  1  0  0  0  0  0999 V2000
    8.7666  -14.9972   20.1724 N   0  0  0  0  0  0  0  0  0  0  0  0
    8.6734  -14.6088   18.7866 C   0  0  0  0  0  0  0  0  0  0  0  0
    8.0954  -13.2223   18.7407 C   0  0  0  0  0  0  0  0  0  0  0  0
    7.4477  -13.1263   20.1296 C   0  0  0  0  0  0  0  0  0  0  0  0
    8.5447  -13.8018   20.9385 C   0  0  1  0  0  0  0  0  0  0  0  0
    8.1812  -14.0391   22.3274 C   0  0  0  0  0  0  0  0  0  0  0  0
    7.7861  -13.0759   23.0360 O   0  0  0  0  0  0  0  0  0  0  0  0
    6.2680  -17.3840   23.2974 C   0  0  0  0  0  0  0  0  0  0  0  0
    7.3947  -17.0961   24.2608 C   0  0  1  0  0  0  0  0  0  0  0  0
    8.4730  -17.8787   23.8030 O   0  0  0  0  0  0  0  0  0  0  0  0
    7.8204  -15.6382   24.2621 C   0  0  2  0  0  0  0  0  0  0  0  0
    8.2652  -15.3170   22.8813 N   0  0  0  0  0  0  0  0  0  0  0  0
    8.8973  -15.3211   25.2076 C   0  0  0  0  0  0  0  0  0  0  0  0
   10.1184  -15.4221   24.8116 O   0  0  0  0  0  0  0  0  0  0  0  0
    9.5041  -13.5000   28.3840 C   0  0  0  0  0  0  0  0  0  0  0  0
    9.8408  -14.6326   27.4363 C   0  0  2  0  0  0  0  0  0  0  0  0
    8.7343  -14.9056   26.5311 N   0  0  0  0  0  0  0  0  0  0  0  0
   10.0713  -15.8405   28.2691 C   0  0  0  0  0  0  0  0  0  0  0  0
   11.1544  -15.9838   29.1249 O   0  0  0  0  0  0  0  0  0  0  0  0
    9.2679  -16.8263   28.2378 O   0  0  0  0  0  0  0  0  0  0  0  0
  1  2  1  0
  3  2  1  0
  4  3  1  0
  4  5  1  0
  5  1  1  0
  6 12  1  0
  5  6  1  1
  7  6  2  0
  9  8  1  6
  9 11  1  0
 10  9  1  0
 11 12  1  6
 11 13  1  0
 13 14  2  0
 16 15  1  1
 16 18  1  0
 17 13  1  0
 17 16  1  0
 18 19  1  0
 20 18  2  0
M  END
$$$$
