PTA.pdb
     RDKit          3D

 20 20  0  0  1  0  0  0  0  0999 V2000
    8.1024  -14.9498   19.2550 N   0  0  0  0  0  0  0  0  0  0  0  0
    8.2034  -14.0104   18.1654 C   0  0  0  0  0  0  0  0  0  0  0  0
    8.3324  -12.6362   18.7600 C   0  0  0  0  0  0  0  0  0  0  0  0
    7.7985  -12.8774   20.1794 C   0  0  0  0  0  0  0  0  0  0  0  0
    8.4564  -14.2234   20.4433 C   0  0  1  0  0  0  0  0  0  0  0  0
    8.0204  -14.8513   21.6816 C   0  0  0  0  0  0  0  0  0  0  0  0
    6.7886  -14.9504   21.9237 O   0  0  0  0  0  0  0  0  0  0  0  0
    8.1086  -18.0987   22.8345 C   0  0  0  0  0  0  0  0  0  0  0  0
    8.8590  -17.3627   23.9189 C   0  0  1  0  0  0  0  0  0  0  0  0
   10.2207  -17.5538   23.6121 O   0  0  0  0  0  0  0  0  0  0  0  0
    8.5710  -15.8717   23.9368 C   0  0  2  0  0  0  0  0  0  0  0  0
    8.9482  -15.3430   22.6004 N   0  0  0  0  0  0  0  0  0  0  0  0
    9.2904  -15.1269   24.9769 C   0  0  0  0  0  0  0  0  0  0  0  0
   10.4919  -14.7311   24.7360 O   0  0  0  0  0  0  0  0  0  0  0  0
    8.6401  -13.0260   27.9329 C   0  0  0  0  0  0  0  0  0  0  0  0
    9.5400  -14.0138   27.2197 C   0  0  2  0  0  0  0  0  0  0  0  0
    8.7950  -14.7881   26.2381 N   0  0  0  0  0  0  0  0  0  0  0  0
   10.0627  -14.9463   28.2505 C   0  0  0  0  0  0  0  0  0  0  0  0
   10.9253  -14.5580   29.2659 O   0  0  0  0  0  0  0  0  0  0  0  0
    9.7375  -16.1762   28.2530 O   0  0  0  0  0  0  0  0  0  0  0  0
  1  2  1  0
  3  2  1  0
  4  3  1  0
  4  5  1  0
  5  1  1  0
  6 12  1  0
  5  6  1  1
  7  6  2  0
  9  8  1  6
  9 11  1  0
 10  9  1  0
 11 12  1  6
 11 13  1  0
 13 14  2  0
 16 15  1  1
 16 18  1  0
 17 13  1  0
 17 16  1  0
 18 19  1  0
 20 18  2  0
M  END
$$$$
