PTA.pdb
     RDKit          3D

 20 20  0  0  1  0  0  0  0  0999 V2000
    9.1781  -15.4812   15.0952 N   0  0  0  0  0  0  0  0  0  0  0  0
    8.7992  -16.4942   14.1411 C   0  0  0  0  0  0  0  0  0  0  0  0
    8.2604  -17.6664   14.9119 C   0  0  0  0  0  0  0  0  0  0  0  0
    8.8406  -17.3940   16.3072 C   0  0  0  0  0  0  0  0  0  0  0  0
    8.6199  -15.8897   16.3548 C   0  0  1  0  0  0  0  0  0  0  0  0
    9.2238  -15.2494   17.5136 C   0  0  0  0  0  0  0  0  0  0  0  0
   10.4274  -14.8828   17.4598 O   0  0  0  0  0  0  0  0  0  0  0  0
    7.7679  -12.3701   19.5899 C   0  0  0  0  0  0  0  0  0  0  0  0
    8.0747  -13.5243   20.5142 C   0  0  1  0  0  0  0  0  0  0  0  0
    6.8451  -14.1907   20.6835 O   0  0  0  0  0  0  0  0  0  0  0  0
    9.0801  -14.5028   19.9328 C   0  0  2  0  0  0  0  0  0  0  0  0
    8.4874  -15.0376   18.6797 N   0  0  0  0  0  0  0  0  0  0  0  0
    9.4269  -15.6173   20.8228 C   0  0  0  0  0  0  0  0  0  0  0  0
    8.7242  -16.6950   20.7680 O   0  0  0  0  0  0  0  0  0  0  0  0
   12.2325  -16.7133   23.0687 C   0  0  0  0  0  0  0  0  0  0  0  0
   10.8031  -16.7889   22.5734 C   0  0  2  0  0  0  0  0  0  0  0  0
   10.4719  -15.6359   21.7493 N   0  0  0  0  0  0  0  0  0  0  0  0
    9.9274  -16.7722   23.7728 C   0  0  0  0  0  0  0  0  0  0  0  0
    9.8520  -17.8205   24.6790 O   0  0  0  0  0  0  0  0  0  0  0  0
    9.1859  -15.7721   24.0342 O   0  0  0  0  0  0  0  0  0  0  0  0
  1  2  1  0
  3  2  1  0
  4  3  1  0
  4  5  1  0
  5  1  1  0
  6 12  1  0
  5  6  1  1
  7  6  2  0
  9  8  1  6
  9 11  1  0
 10  9  1  0
 11 12  1  6
 11 13  1  0
 13 14  2  0
 16 15  1  1
 16 18  1  0
 17 13  1  0
 17 16  1  0
 18 19  1  0
 20 18  2  0
M  END
$$$$
