PTA.pdb
     RDKit          3D

 20 20  0  0  1  0  0  0  0  0999 V2000
    8.6376  -14.9258   20.1816 N   0  0  0  0  0  0  0  0  0  0  0  0
    8.4825  -14.5044   18.8111 C   0  0  0  0  0  0  0  0  0  0  0  0
    7.8814  -13.1270   18.8239 C   0  0  0  0  0  0  0  0  0  0  0  0
    7.2888  -13.0767   20.2396 C   0  0  0  0  0  0  0  0  0  0  0  0
    8.4280  -13.7538   20.9864 C   0  0  1  0  0  0  0  0  0  0  0  0
    8.1245  -14.0319   22.3822 C   0  0  0  0  0  0  0  0  0  0  0  0
    7.7775  -13.0873   23.1392 O   0  0  0  0  0  0  0  0  0  0  0  0
    6.2979  -17.4564   23.3981 C   0  0  0  0  0  0  0  0  0  0  0  0
    7.4777  -17.1517   24.2901 C   0  0  1  0  0  0  0  0  0  0  0  0
    8.5444  -17.8956   23.7483 O   0  0  0  0  0  0  0  0  0  0  0  0
    7.8621  -15.6824   24.2894 C   0  0  2  0  0  0  0  0  0  0  0  0
    8.2133  -15.3286   22.8896 N   0  0  0  0  0  0  0  0  0  0  0  0
    8.9851  -15.3483   25.1734 C   0  0  0  0  0  0  0  0  0  0  0  0
   10.1834  -15.4263   24.7084 O   0  0  0  0  0  0  0  0  0  0  0  0
    9.7609  -13.3488   28.1529 C   0  0  0  0  0  0  0  0  0  0  0  0
   10.0381  -14.5890   27.3288 C   0  0  2  0  0  0  0  0  0  0  0  0
    8.8902  -14.9390   26.5054 N   0  0  0  0  0  0  0  0  0  0  0  0
   10.2824  -15.6989   28.2849 C   0  0  0  0  0  0  0  0  0  0  0  0
   11.3733  -15.7439   29.1415 O   0  0  0  0  0  0  0  0  0  0  0  0
    9.4845  -16.6862   28.3671 O   0  0  0  0  0  0  0  0  0  0  0  0
  1  2  1  0
  3  2  1  0
  4  3  1  0
  4  5  1  0
  5  1  1  0
  6 12  1  0
  5  6  1  1
  7  6  2  0
  9  8  1  6
  9 11  1  0
 10  9  1  0
 11 12  1  6
 11 13  1  0
 13 14  2  0
 16 15  1  1
 16 18  1  0
 17 13  1  0
 17 16  1  0
 18 19  1  0
 20 18  2  0
M  END
$$$$
