FGQ.pdb
     RDKit          3D

 25 25  0  0  1  0  0  0  0  0999 V2000
   -1.1207  -27.6582   23.3168 N   0  0  0  0  0  0  0  0  0  0  0  0
    0.3126  -27.7748   23.5036 C   0  0  1  0  0  0  0  0  0  0  0  0
    0.9472  -26.7622   22.5464 C   0  0  0  0  0  0  0  0  0  0  0  0
    0.6913  -27.2403   21.1595 C   0  0  0  0  0  0  0  0  0  0  0  0
   -0.3486  -26.7953   20.3830 C   0  0  0  0  0  0  0  0  0  0  0  0
   -0.5632  -27.2516   19.1073 C   0  0  0  0  0  0  0  0  0  0  0  0
    0.2923  -28.1942   18.5726 C   0  0  0  0  0  0  0  0  0  0  0  0
    1.3361  -28.6598   19.3137 C   0  0  0  0  0  0  0  0  0  0  0  0
    1.5389  -28.1877   20.6023 C   0  0  0  0  0  0  0  0  0  0  0  0
    0.7210  -27.4490   24.8842 C   0  0  0  0  0  0  0  0  0  0  0  0
    0.0719  -26.6229   25.5597 O   0  0  0  0  0  0  0  0  0  0  0  0
    1.8582  -28.0777   25.4489 N   0  0  0  0  0  0  0  0  0  0  0  0
    2.3184  -27.8186   26.7648 C   0  0  0  0  0  0  0  0  0  0  0  0
    3.5485  -28.5908   27.1561 C   0  0  0  0  0  0  0  0  0  0  0  0
    3.9756  -29.4666   26.3392 O   0  0  0  0  0  0  0  0  0  0  0  0
    8.1258  -26.3677   25.8193 N   0  0  0  0  0  0  0  0  0  0  0  0
    8.2271  -27.0908   27.0322 C   0  0  0  0  0  0  0  0  0  0  0  0
    9.3289  -27.5851   27.3449 O   0  0  0  0  0  0  0  0  0  0  0  0
    6.9957  -27.2283   27.8879 C   0  0  0  0  0  0  0  0  0  0  0  0
    6.6838  -28.6778   27.9576 C   0  0  0  0  0  0  0  0  0  0  0  0
    5.4642  -29.0306   28.7868 C   0  0  2  0  0  0  0  0  0  0  0  0
    4.2426  -28.3945   28.3610 N   0  0  0  0  0  0  0  0  0  0  0  0
    5.7242  -28.5992   30.1657 C   0  0  0  0  0  0  0  0  0  0  0  0
    5.0436  -27.5473   30.7707 O   0  0  0  0  0  0  0  0  0  0  0  0
    6.5914  -29.1875   30.8479 O   0  0  0  0  0  0  0  0  0  0  0  0
  2  1  1  1
  2 10  1  0
  3  2  1  0
  4  9  2  0
  4  3  1  0
  5  4  1  0
  6  7  1  0
  6  5  2  0
  7  8  2  0
  8  9  1  0
 10 11  2  0
 12 10  1  0
 12 13  1  0
 14 13  1  0
 14 15  2  0
 16 17  1  0
 17 19  1  0
 18 17  2  0
 19 20  1  0
 21 20  1  6
 21 23  1  0
 22 21  1  0
 22 14  1  0
 23 25  2  0
 23 24  1  0
M  END
$$$$
