FGQ.pdb
     RDKit          3D

 25 25  0  0  1  0  0  0  0  0999 V2000
    8.0640  -15.1523   25.4237 N   0  0  0  0  0  0  0  0  0  0  0  0
    7.4504  -14.7250   24.1812 C   0  0  1  0  0  0  0  0  0  0  0  0
    7.6044  -13.2023   24.1359 C   0  0  0  0  0  0  0  0  0  0  0  0
    6.9748  -12.6545   25.3692 C   0  0  0  0  0  0  0  0  0  0  0  0
    5.6181  -12.5767   25.5584 C   0  0  0  0  0  0  0  0  0  0  0  0
    5.0622  -12.0676   26.7045 C   0  0  0  0  0  0  0  0  0  0  0  0
    5.8880  -11.6129   27.7133 C   0  0  0  0  0  0  0  0  0  0  0  0
    7.2403  -11.6740   27.5614 C   0  0  0  0  0  0  0  0  0  0  0  0
    7.7862  -12.1919   26.3959 C   0  0  0  0  0  0  0  0  0  0  0  0
    8.1192  -15.3088   23.0020 C   0  0  0  0  0  0  0  0  0  0  0  0
    7.6422  -15.1500   21.8586 O   0  0  0  0  0  0  0  0  0  0  0  0
    9.3119  -16.0556   23.1668 N   0  0  0  0  0  0  0  0  0  0  0  0
    9.9730  -16.7134   22.0986 C   0  0  0  0  0  0  0  0  0  0  0  0
   11.2512  -17.4031   22.4899 C   0  0  0  0  0  0  0  0  0  0  0  0
   11.3037  -18.6655   22.3473 O   0  0  0  0  0  0  0  0  0  0  0  0
   16.2224  -15.6320   18.9171 N   0  0  0  0  0  0  0  0  0  0  0  0
   15.4892  -15.4418   20.1132 C   0  0  0  0  0  0  0  0  0  0  0  0
   14.8645  -14.3736   20.2697 O   0  0  0  0  0  0  0  0  0  0  0  0
   15.4997  -16.5422   21.1412 C   0  0  0  0  0  0  0  0  0  0  0  0
   14.6684  -16.0727   22.2777 C   0  0  0  0  0  0  0  0  0  0  0  0
   13.7592  -17.1246   22.8829 C   0  0  2  0  0  0  0  0  0  0  0  0
   12.3766  -16.7323   22.9953 N   0  0  0  0  0  0  0  0  0  0  0  0
   14.2458  -17.4056   24.2392 C   0  0  0  0  0  0  0  0  0  0  0  0
   15.5233  -17.8915   24.4995 O   0  0  0  0  0  0  0  0  0  0  0  0
   13.4976  -17.2076   25.2213 O   0  0  0  0  0  0  0  0  0  0  0  0
  2  1  1  1
  2 10  1  0
  3  2  1  0
  4  9  2  0
  4  3  1  0
  5  4  1  0
  6  7  1  0
  6  5  2  0
  7  8  2  0
  8  9  1  0
 10 11  2  0
 12 10  1  0
 12 13  1  0
 14 13  1  0
 14 15  2  0
 16 17  1  0
 17 19  1  0
 18 17  2  0
 19 20  1  0
 21 20  1  1
 21 23  1  0
 22 21  1  0
 22 14  1  0
 23 25  2  0
 23 24  1  0
M  END
$$$$
