FGQ.pdb
     RDKit          3D

 25 25  0  0  1  0  0  0  0  0999 V2000
    7.5845  -16.1558   26.0149 N   0  0  0  0  0  0  0  0  0  0  0  0
    6.7296  -15.7967   24.9000 C   0  0  1  0  0  0  0  0  0  0  0  0
    7.2443  -14.4477   24.3904 C   0  0  0  0  0  0  0  0  0  0  0  0
    7.1783  -13.4881   25.5273 C   0  0  0  0  0  0  0  0  0  0  0  0
    6.0158  -12.8999   25.9573 C   0  0  0  0  0  0  0  0  0  0  0  0
    5.9811  -12.0184   27.0078 C   0  0  0  0  0  0  0  0  0  0  0  0
    7.1533  -11.7028   27.6656 C   0  0  0  0  0  0  0  0  0  0  0  0
    8.3272  -12.2670   27.2670 C   0  0  0  0  0  0  0  0  0  0  0  0
    8.3447  -13.1567   26.2026 C   0  0  0  0  0  0  0  0  0  0  0  0
    6.8036  -16.7821   23.8035 C   0  0  0  0  0  0  0  0  0  0  0  0
    6.0966  -16.6495   22.7824 O   0  0  0  0  0  0  0  0  0  0  0  0
    7.6831  -17.8879   23.9087 N   0  0  0  0  0  0  0  0  0  0  0  0
    7.8895  -18.8214   22.8616 C   0  0  0  0  0  0  0  0  0  0  0  0
    8.8287  -18.3500   21.7853 C   0  0  0  0  0  0  0  0  0  0  0  0
    9.0024  -19.1130   20.7832 O   0  0  0  0  0  0  0  0  0  0  0  0
    8.3384  -12.3647   18.7118 N   0  0  0  0  0  0  0  0  0  0  0  0
    8.6670  -13.7341   18.5672 C   0  0  0  0  0  0  0  0  0  0  0  0
    7.9595  -14.4451   17.8256 O   0  0  0  0  0  0  0  0  0  0  0  0
    9.8583  -14.2670   19.3184 C   0  0  0  0  0  0  0  0  0  0  0  0
    9.3268  -15.0511   20.4611 C   0  0  0  0  0  0  0  0  0  0  0  0
   10.0341  -16.3677   20.7178 C   0  0  2  0  0  0  0  0  0  0  0  0
    9.5127  -17.1243   21.8286 N   0  0  0  0  0  0  0  0  0  0  0  0
   11.4398  -16.0664   21.0154 C   0  0  0  0  0  0  0  0  0  0  0  0
   12.3210  -15.5541   20.0683 O   0  0  0  0  0  0  0  0  0  0  0  0
   11.8895  -16.2706   22.1642 O   0  0  0  0  0  0  0  0  0  0  0  0
  2  1  1  1
  2 10  1  0
  3  2  1  0
  4  9  2  0
  4  3  1  0
  5  4  1  0
  6  7  1  0
  6  5  2  0
  7  8  2  0
  8  9  1  0
 10 11  2  0
 12 10  1  0
 12 13  1  0
 14 13  1  0
 14 15  2  0
 16 17  1  0
 17 19  1  0
 18 17  2  0
 19 20  1  0
 21 20  1  1
 21 23  1  0
 22 21  1  0
 22 14  1  0
 23 25  2  0
 23 24  1  0
M  END
$$$$
