FGQ.pdb
     RDKit          3D

 25 25  0  0  1  0  0  0  0  0999 V2000
    7.6903  -15.4138   25.0794 N   0  0  0  0  0  0  0  0  0  0  0  0
    7.4770  -15.1734   23.6653 C   0  0  1  0  0  0  0  0  0  0  0  0
    7.3786  -13.6538   23.5054 C   0  0  0  0  0  0  0  0  0  0  0  0
    7.0259  -13.0882   24.8371 C   0  0  0  0  0  0  0  0  0  0  0  0
    7.9242  -12.4454   25.6507 C   0  0  0  0  0  0  0  0  0  0  0  0
    7.5744  -11.9327   26.8741 C   0  0  0  0  0  0  0  0  0  0  0  0
    6.2723  -12.0618   27.3149 C   0  0  0  0  0  0  0  0  0  0  0  0
    5.3522  -12.6941   26.5345 C   0  0  0  0  0  0  0  0  0  0  0  0
    5.7227  -13.2068   25.2998 C   0  0  0  0  0  0  0  0  0  0  0  0
    8.5974  -15.6695   22.8424 C   0  0  0  0  0  0  0  0  0  0  0  0
    8.4957  -15.7240   21.5986 O   0  0  0  0  0  0  0  0  0  0  0  0
    9.7985  -16.0876   23.4667 N   0  0  0  0  0  0  0  0  0  0  0  0
   10.9072  -16.6085   22.7526 C   0  0  0  0  0  0  0  0  0  0  0  0
   12.1185  -16.8842   23.6008 C   0  0  0  0  0  0  0  0  0  0  0  0
   13.0803  -17.5172   23.0615 O   0  0  0  0  0  0  0  0  0  0  0  0
   10.0939  -14.8786   29.0610 N   0  0  0  0  0  0  0  0  0  0  0  0
   10.9782  -15.1659   27.9934 C   0  0  0  0  0  0  0  0  0  0  0  0
   11.3255  -14.2373   27.2365 O   0  0  0  0  0  0  0  0  0  0  0  0
   11.4576  -16.5833   27.8235 C   0  0  0  0  0  0  0  0  0  0  0  0
   12.8628  -16.5051   27.3519 C   0  0  0  0  0  0  0  0  0  0  0  0
   13.0992  -17.0422   25.9536 C   0  0  2  0  0  0  0  0  0  0  0  0
   12.2411  -16.4808   24.9403 N   0  0  0  0  0  0  0  0  0  0  0  0
   12.8503  -18.4887   25.9851 C   0  0  0  0  0  0  0  0  0  0  0  0
   11.6666  -19.0630   25.5325 O   0  0  0  0  0  0  0  0  0  0  0  0
   13.7257  -19.2603   26.4341 O   0  0  0  0  0  0  0  0  0  0  0  0
  2  1  1  1
  2 10  1  0
  3  2  1  0
  4  9  2  0
  4  3  1  0
  5  4  1  0
  6  7  1  0
  6  5  2  0
  7  8  2  0
  8  9  1  0
 10 11  2  0
 12 10  1  0
 12 13  1  0
 14 13  1  0
 14 15  2  0
 16 17  1  0
 17 19  1  0
 18 17  2  0
 19 20  1  0
 21 20  1  1
 21 23  1  0
 22 21  1  0
 22 14  1  0
 23 25  2  0
 23 24  1  0
M  END
$$$$
