FGQ.pdb
     RDKit          3D

 25 25  0  0  1  0  0  0  0  0999 V2000
    9.4018  -17.0002   18.7057 N   0  0  0  0  0  0  0  0  0  0  0  0
    9.2934  -16.7155   20.1236 C   0  0  1  0  0  0  0  0  0  0  0  0
    7.8654  -16.2096   20.3449 C   0  0  0  0  0  0  0  0  0  0  0  0
    7.8824  -14.7326   20.1561 C   0  0  0  0  0  0  0  0  0  0  0  0
    7.7083  -14.1208   18.9405 C   0  0  0  0  0  0  0  0  0  0  0  0
    7.7282  -12.7571   18.7926 C   0  0  0  0  0  0  0  0  0  0  0  0
    7.9301  -11.9589   19.9009 C   0  0  0  0  0  0  0  0  0  0  0  0
    8.1067  -12.5304   21.1246 C   0  0  0  0  0  0  0  0  0  0  0  0
    8.0837  -13.9112   21.2567 C   0  0  0  0  0  0  0  0  0  0  0  0
    9.5078  -17.9198   20.9497 C   0  0  0  0  0  0  0  0  0  0  0  0
    8.6716  -18.8476   20.9480 O   0  0  0  0  0  0  0  0  0  0  0  0
   10.6710  -18.0256   21.7518 N   0  0  0  0  0  0  0  0  0  0  0  0
   10.9995  -19.1854   22.4984 C   0  0  0  0  0  0  0  0  0  0  0  0
   12.2353  -19.0497   23.3451 C   0  0  0  0  0  0  0  0  0  0  0  0
   12.5145  -20.0077   24.1330 O   0  0  0  0  0  0  0  0  0  0  0  0
   14.1706  -15.1724   19.8911 N   0  0  0  0  0  0  0  0  0  0  0  0
   14.9065  -15.3688   21.0845 C   0  0  0  0  0  0  0  0  0  0  0  0
   15.2731  -14.3689   21.7339 O   0  0  0  0  0  0  0  0  0  0  0  0
   15.2117  -16.7799   21.5126 C   0  0  0  0  0  0  0  0  0  0  0  0
   15.2688  -16.7732   22.9958 C   0  0  0  0  0  0  0  0  0  0  0  0
   14.4818  -17.8794   23.6714 C   0  0  2  0  0  0  0  0  0  0  0  0
   13.0877  -17.9343   23.3082 N   0  0  0  0  0  0  0  0  0  0  0  0
   14.5476  -17.6508   25.1201 C   0  0  0  0  0  0  0  0  0  0  0  0
   15.7388  -17.6850   25.8383 O   0  0  0  0  0  0  0  0  0  0  0  0
   13.5001  -17.4128   25.7599 O   0  0  0  0  0  0  0  0  0  0  0  0
  2  1  1  6
  2 10  1  0
  3  2  1  0
  4  9  2  0
  4  3  1  0
  5  4  1  0
  6  7  1  0
  6  5  2  0
  7  8  2  0
  8  9  1  0
 10 11  2  0
 12 10  1  0
 12 13  1  0
 14 13  1  0
 14 15  2  0
 16 17  1  0
 17 19  1  0
 18 17  2  0
 19 20  1  0
 21 20  1  6
 21 23  1  0
 22 21  1  0
 22 14  1  0
 23 25  2  0
 23 24  1  0
M  END
$$$$
