FGQ.pdb
     RDKit          3D

 25 25  0  0  1  0  0  0  0  0999 V2000
    9.1945  -14.8472   24.2167 N   0  0  0  0  0  0  0  0  0  0  0  0
    7.9214  -15.2180   23.6296 C   0  0  1  0  0  0  0  0  0  0  0  0
    7.1993  -13.9033   23.3219 C   0  0  0  0  0  0  0  0  0  0  0  0
    7.0128  -13.1854   24.6132 C   0  0  0  0  0  0  0  0  0  0  0  0
    6.0365  -13.5021   25.5236 C   0  0  0  0  0  0  0  0  0  0  0  0
    5.8852  -12.8250   26.7070 C   0  0  0  0  0  0  0  0  0  0  0  0
    6.7412  -11.7836   27.0053 C   0  0  0  0  0  0  0  0  0  0  0  0
    7.7230  -11.4402   26.1257 C   0  0  0  0  0  0  0  0  0  0  0  0
    7.8622  -12.1353   24.9332 C   0  0  0  0  0  0  0  0  0  0  0  0
    8.0886  -15.9770   22.3748 C   0  0  0  0  0  0  0  0  0  0  0  0
    7.1549  -16.6748   21.9261 O   0  0  0  0  0  0  0  0  0  0  0  0
    9.3175  -15.9146   21.6725 N   0  0  0  0  0  0  0  0  0  0  0  0
   10.2189  -17.0053   21.5813 C   0  0  0  0  0  0  0  0  0  0  0  0
   11.2325  -17.0680   22.6910 C   0  0  0  0  0  0  0  0  0  0  0  0
   12.0698  -16.1148   22.7748 O   0  0  0  0  0  0  0  0  0  0  0  0
    7.0941  -18.8405   27.1088 N   0  0  0  0  0  0  0  0  0  0  0  0
    8.5050  -18.8984   27.0063 C   0  0  0  0  0  0  0  0  0  0  0  0
    9.1719  -19.1230   28.0362 O   0  0  0  0  0  0  0  0  0  0  0  0
    9.1332  -18.6852   25.6545 C   0  0  0  0  0  0  0  0  0  0  0  0
   10.2343  -17.7083   25.8446 C   0  0  0  0  0  0  0  0  0  0  0  0
   11.4942  -18.0021   25.0534 C   0  0  2  0  0  0  0  0  0  0  0  0
   11.2987  -18.1107   23.6292 N   0  0  0  0  0  0  0  0  0  0  0  0
   12.0229  -19.2892   25.5216 C   0  0  0  0  0  0  0  0  0  0  0  0
   12.0721  -20.4244   24.7186 O   0  0  0  0  0  0  0  0  0  0  0  0
   12.4544  -19.3957   26.6903 O   0  0  0  0  0  0  0  0  0  0  0  0
  2  1  1  6
  2 10  1  0
  3  2  1  0
  4  9  2  0
  4  3  1  0
  5  4  1  0
  6  7  1  0
  6  5  2  0
  7  8  2  0
  8  9  1  0
 10 11  2  0
 12 10  1  0
 12 13  1  0
 14 13  1  0
 14 15  2  0
 16 17  1  0
 17 19  1  0
 18 17  2  0
 19 20  1  0
 21 20  1  1
 21 23  1  0
 22 21  1  0
 22 14  1  0
 23 25  2  0
 23 24  1  0
M  END
$$$$
