FGQ.pdb
     RDKit          3D

 25 25  0  0  1  0  0  0  0  0999 V2000
    8.0948  -15.6744   24.8479 N   0  0  0  0  0  0  0  0  0  0  0  0
    7.7506  -14.9272   23.6537 C   0  0  1  0  0  0  0  0  0  0  0  0
    8.3149  -13.5188   23.8595 C   0  0  0  0  0  0  0  0  0  0  0  0
    7.6499  -12.9444   25.0619 C   0  0  0  0  0  0  0  0  0  0  0  0
    8.2804  -12.7719   26.2681 C   0  0  0  0  0  0  0  0  0  0  0  0
    7.6455  -12.2402   27.3617 C   0  0  0  0  0  0  0  0  0  0  0  0
    6.3222  -11.8602   27.2579 C   0  0  0  0  0  0  0  0  0  0  0  0
    5.6631  -12.0163   26.0761 C   0  0  0  0  0  0  0  0  0  0  0  0
    6.3200  -12.5558   24.9797 C   0  0  0  0  0  0  0  0  0  0  0  0
    8.3537  -15.5115   22.4399 C   0  0  0  0  0  0  0  0  0  0  0  0
    8.2629  -14.9251   21.3408 O   0  0  0  0  0  0  0  0  0  0  0  0
    9.0416  -16.7476   22.5204 N   0  0  0  0  0  0  0  0  0  0  0  0
   10.3700  -16.9312   22.0600 C   0  0  0  0  0  0  0  0  0  0  0  0
   11.4106  -16.9231   23.1462 C   0  0  0  0  0  0  0  0  0  0  0  0
   12.6220  -17.0927   22.7991 O   0  0  0  0  0  0  0  0  0  0  0  0
   10.9915  -17.6444   30.1699 N   0  0  0  0  0  0  0  0  0  0  0  0
   11.4615  -16.5683   29.3790 C   0  0  0  0  0  0  0  0  0  0  0  0
   11.1930  -15.4026   29.7327 O   0  0  0  0  0  0  0  0  0  0  0  0
   12.2651  -16.8848   28.1455 C   0  0  0  0  0  0  0  0  0  0  0  0
   11.3630  -16.6822   26.9845 C   0  0  0  0  0  0  0  0  0  0  0  0
   12.0112  -16.8812   25.6281 C   0  0  2  0  0  0  0  0  0  0  0  0
   11.1167  -16.7371   24.5068 N   0  0  0  0  0  0  0  0  0  0  0  0
   12.5466  -18.2476   25.5876 C   0  0  0  0  0  0  0  0  0  0  0  0
   11.7731  -19.3539   25.2507 O   0  0  0  0  0  0  0  0  0  0  0  0
   13.7487  -18.4525   25.8642 O   0  0  0  0  0  0  0  0  0  0  0  0
  2  1  1  1
  2 10  1  0
  3  2  1  0
  4  9  2  0
  4  3  1  0
  5  4  1  0
  6  7  1  0
  6  5  2  0
  7  8  2  0
  8  9  1  0
 10 11  2  0
 12 10  1  0
 12 13  1  0
 14 13  1  0
 14 15  2  0
 16 17  1  0
 17 19  1  0
 18 17  2  0
 19 20  1  0
 21 20  1  1
 21 23  1  0
 22 21  1  0
 22 14  1  0
 23 25  2  0
 23 24  1  0
M  END
$$$$
