FGQ.pdb
     RDKit          3D

 25 25  0  0  1  0  0  0  0  0999 V2000
    8.2005  -15.5305   24.5496 N   0  0  0  0  0  0  0  0  0  0  0  0
    7.4170  -14.9754   23.4628 C   0  0  1  0  0  0  0  0  0  0  0  0
    7.7384  -13.4787   23.4319 C   0  0  0  0  0  0  0  0  0  0  0  0
    7.4638  -12.9366   24.7914 C   0  0  0  0  0  0  0  0  0  0  0  0
    8.3514  -12.1600   25.4924 C   0  0  0  0  0  0  0  0  0  0  0  0
    8.0747  -11.6723   26.7443 C   0  0  0  0  0  0  0  0  0  0  0  0
    6.8606  -11.9667   27.3324 C   0  0  0  0  0  0  0  0  0  0  0  0
    5.9538  -12.7349   26.6669 C   0  0  0  0  0  0  0  0  0  0  0  0
    6.2496  -13.2202   25.4013 C   0  0  0  0  0  0  0  0  0  0  0  0
    7.7760  -15.5688   22.1599 C   0  0  0  0  0  0  0  0  0  0  0  0
    7.2518  -15.1505   21.1061 O   0  0  0  0  0  0  0  0  0  0  0  0
    8.7225  -16.6215   22.1024 N   0  0  0  0  0  0  0  0  0  0  0  0
    9.7921  -16.6573   21.1722 C   0  0  0  0  0  0  0  0  0  0  0  0
   11.0566  -17.2753   21.7030 C   0  0  0  0  0  0  0  0  0  0  0  0
   11.4964  -18.3112   21.1112 O   0  0  0  0  0  0  0  0  0  0  0  0
    8.4341  -18.8902   27.0532 N   0  0  0  0  0  0  0  0  0  0  0  0
    9.2387  -17.7397   26.8708 C   0  0  0  0  0  0  0  0  0  0  0  0
    8.7889  -16.6315   27.2251 O   0  0  0  0  0  0  0  0  0  0  0  0
   10.6026  -17.9110   26.2559 C   0  0  0  0  0  0  0  0  0  0  0  0
   10.5457  -17.2873   24.9103 C   0  0  0  0  0  0  0  0  0  0  0  0
   11.8461  -17.3268   24.1312 C   0  0  2  0  0  0  0  0  0  0  0  0
   11.7691  -16.7714   22.8032 N   0  0  0  0  0  0  0  0  0  0  0  0
   12.2396  -18.7346   23.9943 C   0  0  0  0  0  0  0  0  0  0  0  0
   13.3761  -19.2648   24.5968 O   0  0  0  0  0  0  0  0  0  0  0  0
   11.5384  -19.5122   23.3108 O   0  0  0  0  0  0  0  0  0  0  0  0
  2  1  1  1
  2 10  1  0
  3  2  1  0
  4  9  2  0
  4  3  1  0
  5  4  1  0
  6  7  1  0
  6  5  2  0
  7  8  2  0
  8  9  1  0
 10 11  2  0
 12 10  1  0
 12 13  1  0
 14 13  1  0
 14 15  2  0
 16 17  1  0
 17 19  1  0
 18 17  2  0
 19 20  1  0
 21 20  1  6
 21 23  1  0
 22 21  1  0
 22 14  1  0
 23 25  2  0
 23 24  1  0
M  END
$$$$
