FGQ.pdb
     RDKit          3D

 25 25  0  0  1  0  0  0  0  0999 V2000
    6.4784  -16.5705   21.8202 N   0  0  0  0  0  0  0  0  0  0  0  0
    7.4434  -15.8604   22.6372 C   0  0  1  0  0  0  0  0  0  0  0  0
    7.0269  -14.3875   22.5988 C   0  0  0  0  0  0  0  0  0  0  0  0
    7.4018  -13.8540   21.2600 C   0  0  0  0  0  0  0  0  0  0  0  0
    6.4926  -13.5860   20.2681 C   0  0  0  0  0  0  0  0  0  0  0  0
    6.8634  -13.0945   19.0422 C   0  0  0  0  0  0  0  0  0  0  0  0
    8.1987  -12.8561   18.7841 C   0  0  0  0  0  0  0  0  0  0  0  0
    9.1304  -13.1101   19.7447 C   0  0  0  0  0  0  0  0  0  0  0  0
    8.7385  -13.6070   20.9792 C   0  0  0  0  0  0  0  0  0  0  0  0
    7.4329  -16.3242   24.0385 C   0  0  0  0  0  0  0  0  0  0  0  0
    8.2128  -15.8264   24.8776 O   0  0  0  0  0  0  0  0  0  0  0  0
    6.5314  -17.3421   24.4365 N   0  0  0  0  0  0  0  0  0  0  0  0
    6.4782  -17.8642   25.7537 C   0  0  0  0  0  0  0  0  0  0  0  0
    7.7279  -18.5790   26.1896 C   0  0  0  0  0  0  0  0  0  0  0  0
    8.4173  -19.1560   25.2905 O   0  0  0  0  0  0  0  0  0  0  0  0
   11.1467  -17.2512   31.2005 N   0  0  0  0  0  0  0  0  0  0  0  0
   10.5840  -16.3640   30.2515 C   0  0  0  0  0  0  0  0  0  0  0  0
   10.6535  -15.1368   30.4636 O   0  0  0  0  0  0  0  0  0  0  0  0
    9.9270  -16.9475   29.0286 C   0  0  0  0  0  0  0  0  0  0  0  0
   10.0477  -18.4225   29.1417 C   0  0  0  0  0  0  0  0  0  0  0  0
    9.3973  -19.2058   28.0179 C   0  0  2  0  0  0  0  0  0  0  0  0
    8.1685  -18.6382   27.5217 N   0  0  0  0  0  0  0  0  0  0  0  0
    9.0841  -20.5446   28.5325 C   0  0  0  0  0  0  0  0  0  0  0  0
   10.0616  -21.4900   28.8268 O   0  0  0  0  0  0  0  0  0  0  0  0
    7.8931  -20.8741   28.7234 O   0  0  0  0  0  0  0  0  0  0  0  0
  2  1  1  6
  2 10  1  0
  3  2  1  0
  4  9  2  0
  4  3  1  0
  5  4  1  0
  6  7  1  0
  6  5  2  0
  7  8  2  0
  8  9  1  0
 10 11  2  0
 12 10  1  0
 12 13  1  0
 14 13  1  0
 14 15  2  0
 16 17  1  0
 17 19  1  0
 18 17  2  0
 19 20  1  0
 21 20  1  1
 21 23  1  0
 22 21  1  0
 22 14  1  0
 23 25  2  0
 23 24  1  0
M  END
$$$$
