FGQ.pdb
     RDKit          3D

 25 25  0  0  1  0  0  0  0  0999 V2000
    9.3578  -14.9863   24.4390 N   0  0  0  0  0  0  0  0  0  0  0  0
    8.1096  -15.1786   23.7263 C   0  0  1  0  0  0  0  0  0  0  0  0
    7.6074  -13.7771   23.3684 C   0  0  0  0  0  0  0  0  0  0  0  0
    7.2761  -13.0839   24.6441 C   0  0  0  0  0  0  0  0  0  0  0  0
    7.6324  -11.7877   24.9181 C   0  0  0  0  0  0  0  0  0  0  0  0
    7.3151  -11.1711   26.1018 C   0  0  0  0  0  0  0  0  0  0  0  0
    6.6111  -11.8703   27.0618 C   0  0  0  0  0  0  0  0  0  0  0  0
    6.2401  -13.1594   26.8255 C   0  0  0  0  0  0  0  0  0  0  0  0
    6.5690  -13.7681   25.6230 C   0  0  0  0  0  0  0  0  0  0  0  0
    8.2934  -15.9529   22.4832 C   0  0  0  0  0  0  0  0  0  0  0  0
    7.3311  -16.5558   21.9631 O   0  0  0  0  0  0  0  0  0  0  0  0
    9.5711  -16.0137   21.8740 N   0  0  0  0  0  0  0  0  0  0  0  0
   10.3507  -17.1966   21.8156 C   0  0  0  0  0  0  0  0  0  0  0  0
   11.3170  -17.3607   22.9566 C   0  0  0  0  0  0  0  0  0  0  0  0
   12.4751  -16.8537   22.8218 O   0  0  0  0  0  0  0  0  0  0  0  0
    9.7731  -14.9941   28.9861 N   0  0  0  0  0  0  0  0  0  0  0  0
   10.7569  -15.4199   28.0614 C   0  0  0  0  0  0  0  0  0  0  0  0
   11.4705  -14.5600   27.5072 O   0  0  0  0  0  0  0  0  0  0  0  0
   10.8939  -16.8950   27.7915 C   0  0  0  0  0  0  0  0  0  0  0  0
   10.4429  -17.1173   26.3950 C   0  0  0  0  0  0  0  0  0  0  0  0
   11.4814  -17.7336   25.4778 C   0  0  2  0  0  0  0  0  0  0  0  0
   11.0084  -18.0343   24.1496 N   0  0  0  0  0  0  0  0  0  0  0  0
   11.9154  -18.9982   26.0841 C   0  0  0  0  0  0  0  0  0  0  0  0
   11.7104  -20.2358   25.4822 O   0  0  0  0  0  0  0  0  0  0  0  0
   12.4976  -18.9893   27.1906 O   0  0  0  0  0  0  0  0  0  0  0  0
  2  1  1  6
  2 10  1  0
  3  2  1  0
  4  9  2  0
  4  3  1  0
  5  4  1  0
  6  7  1  0
  6  5  2  0
  7  8  2  0
  8  9  1  0
 10 11  2  0
 12 10  1  0
 12 13  1  0
 14 13  1  0
 14 15  2  0
 16 17  1  0
 17 19  1  0
 18 17  2  0
 19 20  1  0
 21 20  1  1
 21 23  1  0
 22 21  1  0
 22 14  1  0
 23 25  2  0
 23 24  1  0
M  END
$$$$
