FGQ.pdb
     RDKit          3D

 25 25  0  0  1  0  0  0  0  0999 V2000
    7.6988  -14.2814   20.3581 N   0  0  0  0  0  0  0  0  0  0  0  0
    7.9157  -14.1989   21.7896 C   0  0  1  0  0  0  0  0  0  0  0  0
    6.8225  -13.2730   22.3298 C   0  0  0  0  0  0  0  0  0  0  0  0
    7.0886  -13.0698   23.7809 C   0  0  0  0  0  0  0  0  0  0  0  0
    7.9491  -12.1192   24.2688 C   0  0  0  0  0  0  0  0  0  0  0  0
    8.1774  -11.9517   25.6111 C   0  0  0  0  0  0  0  0  0  0  0  0
    7.5227  -12.7639   26.5156 C   0  0  0  0  0  0  0  0  0  0  0  0
    6.6607  -13.7191   26.0685 C   0  0  0  0  0  0  0  0  0  0  0  0
    6.4412  -13.8752   24.7076 C   0  0  0  0  0  0  0  0  0  0  0  0
    7.7953  -15.5153   22.4463 C   0  0  0  0  0  0  0  0  0  0  0  0
    6.7647  -16.2056   22.3000 O   0  0  0  0  0  0  0  0  0  0  0  0
    8.8566  -16.0012   23.2495 N   0  0  0  0  0  0  0  0  0  0  0  0
    8.9920  -17.3630   23.6208 C   0  0  0  0  0  0  0  0  0  0  0  0
   10.1587  -17.6467   24.5269 C   0  0  0  0  0  0  0  0  0  0  0  0
   11.1533  -18.2615   24.0272 O   0  0  0  0  0  0  0  0  0  0  0  0
    9.1860  -15.4515   29.3342 N   0  0  0  0  0  0  0  0  0  0  0  0
   10.2630  -14.6498   28.8849 C   0  0  0  0  0  0  0  0  0  0  0  0
   10.2176  -13.4192   29.0837 O   0  0  0  0  0  0  0  0  0  0  0  0
   11.4142  -15.3244   28.1869 C   0  0  0  0  0  0  0  0  0  0  0  0
   11.1005  -16.7747   28.1500 C   0  0  0  0  0  0  0  0  0  0  0  0
   11.3011  -17.4386   26.8015 C   0  0  2  0  0  0  0  0  0  0  0  0
   10.2066  -17.2693   25.8786 N   0  0  0  0  0  0  0  0  0  0  0  0
   11.4579  -18.8796   27.0344 C   0  0  0  0  0  0  0  0  0  0  0  0
   12.5711  -19.4278   27.6637 O   0  0  0  0  0  0  0  0  0  0  0  0
   10.5647  -19.6704   26.6599 O   0  0  0  0  0  0  0  0  0  0  0  0
  2  1  1  6
  2 10  1  0
  3  2  1  0
  4  9  2  0
  4  3  1  0
  5  4  1  0
  6  7  1  0
  6  5  2  0
  7  8  2  0
  8  9  1  0
 10 11  2  0
 12 10  1  0
 12 13  1  0
 14 13  1  0
 14 15  2  0
 16 17  1  0
 17 19  1  0
 18 17  2  0
 19 20  1  0
 21 20  1  1
 21 23  1  0
 22 21  1  0
 22 14  1  0
 23 25  2  0
 23 24  1  0
M  END
$$$$
