WKS.pdb
     RDKit          3D

 30 31  0  0  1  0  0  0  0  0999 V2000
   20.3331  -20.7892  -15.8945 N   0  0  0  0  0  0  0  0  0  0  0  0
   21.1743  -19.9036  -15.1301 C   0  0  1  0  0  0  0  0  0  0  0  0
   20.3660  -18.8199  -14.5115 C   0  0  0  0  0  0  0  0  0  0  0  0
   19.9016  -17.8722  -15.5493 C   0  0  0  0  0  0  0  0  0  0  0  0
   20.6657  -16.8993  -16.1968 C   0  0  0  0  0  0  0  0  0  0  0  0
   19.9158  -16.2539  -17.1024 N   0  0  0  0  0  0  0  0  0  0  0  0
   18.6941  -16.7877  -17.0501 C   0  0  0  0  0  0  0  0  0  0  0  0
   17.5721  -16.4700  -17.7696 C   0  0  0  0  0  0  0  0  0  0  0  0
   16.3909  -17.1463  -17.5518 C   0  0  0  0  0  0  0  0  0  0  0  0
   16.2994  -18.1516  -16.6146 C   0  0  0  0  0  0  0  0  0  0  0  0
   17.4613  -18.4535  -15.8962 C   0  0  0  0  0  0  0  0  0  0  0  0
   18.6420  -17.7960  -16.0979 C   0  0  0  0  0  0  0  0  0  0  0  0
   21.9120  -20.7266  -14.1436 C   0  0  0  0  0  0  0  0  0  0  0  0
   21.3506  -21.2728  -13.1627 O   0  0  0  0  0  0  0  0  0  0  0  0
   23.3054  -20.8920  -14.3328 N   0  0  0  0  0  0  0  0  0  0  0  0
   24.1659  -21.6411  -13.4513 C   0  0  1  0  0  0  0  0  0  0  0  0
   25.2754  -22.2211  -14.3465 C   0  0  0  0  0  0  0  0  0  0  0  0
   24.8156  -23.4358  -15.0701 C   0  0  0  0  0  0  0  0  0  0  0  0
   25.8853  -23.9114  -16.0088 C   0  0  0  0  0  0  0  0  0  0  0  0
   25.4858  -25.1061  -16.8090 C   0  0  0  0  0  0  0  0  0  0  0  0
   26.5771  -25.4561  -17.7224 N   0  0  0  0  0  0  0  0  0  0  0  0
   24.8547  -20.6831  -12.5594 C   0  0  0  0  0  0  0  0  0  0  0  0
   25.2740  -19.6050  -13.0686 O   0  0  0  0  0  0  0  0  0  0  0  0
   25.1572  -21.1939   -8.6450 O   0  0  0  0  0  0  0  0  0  0  0  0
   25.5994  -19.9343   -9.0614 C   0  0  0  0  0  0  0  0  0  0  0  0
   26.0705  -20.1157  -10.5068 C   0  0  2  0  0  0  0  0  0  0  0  0
   25.0696  -20.8974  -11.1923 N   0  0  0  0  0  0  0  0  0  0  0  0
   27.4028  -20.7238  -10.5629 C   0  0  0  0  0  0  0  0  0  0  0  0
   28.4983  -20.0790  -10.0291 O   0  0  0  0  0  0  0  0  0  0  0  0
   27.5589  -21.8392  -11.0987 O   0  0  0  0  0  0  0  0  0  0  0  0
  2 13  1  0
  2  1  1  1
  3  2  1  0
  3  4  1  0
  4  5  2  0
  4 12  1  0
  5  6  1  0
  6  7  1  0
  7  8  2  0
  8  9  1  0
 10  9  2  0
 11 10  1  0
 12 11  2  0
 12  7  1  0
 13 14  2  0
 15 16  1  0
 15 13  1  0
 16 22  1  0
 16 17  1  6
 18 17  1  0
 19 18  1  0
 20 19  1  0
 21 20  1  0
 22 23  2  0
 24 25  1  0
 26 25  1  1
 26 28  1  0
 27 22  1  0
 27 26  1  0
 28 30  2  0
 28 29  1  0
M  END
$$$$
