WKS.pdb
     RDKit          3D

 30 31  0  0  1  0  0  0  0  0999 V2000
   28.4256  -20.8725  -10.3632 N   0  0  0  0  0  0  0  0  0  0  0  0
   27.0602  -21.0778   -9.9510 C   0  0  1  0  0  0  0  0  0  0  0  0
   26.8493  -20.5687   -8.5701 C   0  0  0  0  0  0  0  0  0  0  0  0
   28.0813  -20.7406   -7.7680 C   0  0  0  0  0  0  0  0  0  0  0  0
   29.2214  -21.4616   -8.1288 C   0  0  0  0  0  0  0  0  0  0  0  0
   30.1504  -21.3635   -7.1663 N   0  0  0  0  0  0  0  0  0  0  0  0
   29.6344  -20.6004   -6.2012 C   0  0  0  0  0  0  0  0  0  0  0  0
   30.1851  -20.2123   -5.0081 C   0  0  0  0  0  0  0  0  0  0  0  0
   29.4698  -19.4197   -4.1363 C   0  0  0  0  0  0  0  0  0  0  0  0
   28.1925  -18.9966   -4.4312 C   0  0  0  0  0  0  0  0  0  0  0  0
   27.6573  -19.4085   -5.6563 C   0  0  0  0  0  0  0  0  0  0  0  0
   28.3503  -20.1930   -6.5347 C   0  0  0  0  0  0  0  0  0  0  0  0
   26.1862  -20.4323  -10.9581 C   0  0  0  0  0  0  0  0  0  0  0  0
   26.3708  -19.2582  -11.3618 O   0  0  0  0  0  0  0  0  0  0  0  0
   25.1052  -21.1872  -11.4742 N   0  0  0  0  0  0  0  0  0  0  0  0
   24.2230  -20.7386  -12.5228 C   0  0  1  0  0  0  0  0  0  0  0  0
   24.3540  -21.7783  -13.6499 C   0  0  0  0  0  0  0  0  0  0  0  0
   23.4682  -21.4540  -14.7992 C   0  0  0  0  0  0  0  0  0  0  0  0
   23.6276  -22.4841  -15.8785 C   0  0  0  0  0  0  0  0  0  0  0  0
   22.8642  -22.1665  -17.1209 C   0  0  0  0  0  0  0  0  0  0  0  0
   23.1605  -23.1807  -18.1363 N   0  0  0  0  0  0  0  0  0  0  0  0
   22.8314  -20.8707  -12.0393 C   0  0  0  0  0  0  0  0  0  0  0  0
   22.5284  -21.9205  -11.4042 O   0  0  0  0  0  0  0  0  0  0  0  0
   19.9783  -18.2487  -12.9903 O   0  0  0  0  0  0  0  0  0  0  0  0
   19.7526  -18.8308  -11.7390 C   0  0  0  0  0  0  0  0  0  0  0  0
   20.4987  -20.1674  -11.7614 C   0  0  2  0  0  0  0  0  0  0  0  0
   21.8347  -19.9082  -12.2418 N   0  0  0  0  0  0  0  0  0  0  0  0
   19.7882  -21.1634  -12.5683 C   0  0  0  0  0  0  0  0  0  0  0  0
   18.7049  -21.8461  -12.0573 O   0  0  0  0  0  0  0  0  0  0  0  0
   20.1605  -21.4045  -13.7339 O   0  0  0  0  0  0  0  0  0  0  0  0
  2 13  1  0
  2  1  1  6
  3  2  1  0
  3  4  1  0
  4  5  2  0
  4 12  1  0
  5  6  1  0
  6  7  1  0
  7  8  2  0
  8  9  1  0
 10  9  2  0
 11 10  1  0
 12 11  2  0
 12  7  1  0
 13 14  2  0
 15 16  1  0
 15 13  1  0
 16 22  1  0
 16 17  1  6
 18 17  1  0
 19 18  1  0
 20 19  1  0
 21 20  1  0
 22 23  2  0
 24 25  1  0
 26 25  1  6
 26 28  1  0
 27 22  1  0
 27 26  1  0
 28 30  2  0
 28 29  1  0
M  END
$$$$
