WKS.pdb
     RDKit          3D

 30 31  0  0  1  0  0  0  0  0999 V2000
   25.1709  -19.3941  -11.9349 N   0  0  0  0  0  0  0  0  0  0  0  0
   25.6303  -20.7465  -12.1253 C   0  0  1  0  0  0  0  0  0  0  0  0
   25.4180  -21.5488  -10.8917 C   0  0  0  0  0  0  0  0  0  0  0  0
   26.1610  -20.9519   -9.7593 C   0  0  0  0  0  0  0  0  0  0  0  0
   25.6236  -20.2202   -8.6982 C   0  0  0  0  0  0  0  0  0  0  0  0
   26.5957  -19.8709   -7.8425 N   0  0  0  0  0  0  0  0  0  0  0  0
   27.7383  -20.3590   -8.3285 C   0  0  0  0  0  0  0  0  0  0  0  0
   29.0100  -20.2652   -7.8269 C   0  0  0  0  0  0  0  0  0  0  0  0
   30.0675  -20.8399   -8.4988 C   0  0  0  0  0  0  0  0  0  0  0  0
   29.8839  -21.5193   -9.6829 C   0  0  0  0  0  0  0  0  0  0  0  0
   28.5748  -21.5986  -10.1697 C   0  0  0  0  0  0  0  0  0  0  0  0
   27.5131  -21.0368   -9.5184 C   0  0  0  0  0  0  0  0  0  0  0  0
   24.9334  -21.2935  -13.3126 C   0  0  0  0  0  0  0  0  0  0  0  0
   23.8748  -20.7941  -13.7662 O   0  0  0  0  0  0  0  0  0  0  0  0
   25.5006  -22.4249  -13.9474 N   0  0  0  0  0  0  0  0  0  0  0  0
   25.0354  -22.9807  -15.1938 C   0  0  1  0  0  0  0  0  0  0  0  0
   26.2789  -23.5857  -15.8695 C   0  0  0  0  0  0  0  0  0  0  0  0
   26.2165  -25.0708  -15.9010 C   0  0  0  0  0  0  0  0  0  0  0  0
   27.4272  -25.6221  -16.5952 C   0  0  0  0  0  0  0  0  0  0  0  0
   27.3957  -27.1053  -16.7574 C   0  0  0  0  0  0  0  0  0  0  0  0
   28.6178  -27.5374  -17.4410 N   0  0  0  0  0  0  0  0  0  0  0  0
   24.1665  -24.1371  -14.8846 C   0  0  0  0  0  0  0  0  0  0  0  0
   24.5478  -24.9314  -13.9785 O   0  0  0  0  0  0  0  0  0  0  0  0
   20.1962  -23.9943  -14.8397 O   0  0  0  0  0  0  0  0  0  0  0  0
   21.1092  -24.6689  -14.0231 C   0  0  0  0  0  0  0  0  0  0  0  0
   22.0630  -25.3940  -14.9762 C   0  0  2  0  0  0  0  0  0  0  0  0
   22.9537  -24.4037  -15.5318 N   0  0  0  0  0  0  0  0  0  0  0  0
   21.3293  -26.1383  -16.0036 C   0  0  0  0  0  0  0  0  0  0  0  0
   20.6234  -27.2784  -15.6833 O   0  0  0  0  0  0  0  0  0  0  0  0
   21.3372  -25.7439  -17.1868 O   0  0  0  0  0  0  0  0  0  0  0  0
  2 13  1  0
  2  1  1  1
  3  2  1  0
  3  4  1  0
  4  5  2  0
  4 12  1  0
  5  6  1  0
  6  7  1  0
  7  8  2  0
  8  9  1  0
 10  9  2  0
 11 10  1  0
 12 11  2  0
 12  7  1  0
 13 14  2  0
 15 16  1  0
 15 13  1  0
 16 22  1  0
 16 17  1  6
 18 17  1  0
 19 18  1  0
 20 19  1  0
 21 20  1  0
 22 23  2  0
 24 25  1  0
 26 25  1  1
 26 28  1  0
 27 22  1  0
 27 26  1  0
 28 30  2  0
 28 29  1  0
M  END
$$$$
