WKS.pdb
     RDKit          3D

 30 31  0  0  1  0  0  0  0  0999 V2000
   26.5831  -22.4600  -12.5806 N   0  0  0  0  0  0  0  0  0  0  0  0
   25.8160  -21.5186  -11.8050 C   0  0  1  0  0  0  0  0  0  0  0  0
   26.5573  -20.2387  -11.6548 C   0  0  0  0  0  0  0  0  0  0  0  0
   27.6954  -20.4130  -10.7247 C   0  0  0  0  0  0  0  0  0  0  0  0
   29.0367  -20.5953  -11.0678 C   0  0  0  0  0  0  0  0  0  0  0  0
   29.7868  -20.6804   -9.9592 N   0  0  0  0  0  0  0  0  0  0  0  0
   28.9612  -20.5581   -8.9182 C   0  0  0  0  0  0  0  0  0  0  0  0
   29.2392  -20.5856   -7.5768 C   0  0  0  0  0  0  0  0  0  0  0  0
   28.2254  -20.4490   -6.6529 C   0  0  0  0  0  0  0  0  0  0  0  0
   26.9145  -20.2828   -7.0421 C   0  0  0  0  0  0  0  0  0  0  0  0
   26.6621  -20.2585   -8.4179 C   0  0  0  0  0  0  0  0  0  0  0  0
   27.6527  -20.3909   -9.3496 C   0  0  0  0  0  0  0  0  0  0  0  0
   24.4981  -21.3638  -12.4639 C   0  0  0  0  0  0  0  0  0  0  0  0
   24.3576  -21.3878  -13.7110 O   0  0  0  0  0  0  0  0  0  0  0  0
   23.3638  -21.1832  -11.6359 N   0  0  0  0  0  0  0  0  0  0  0  0
   21.9986  -21.3101  -12.0820 C   0  0  1  0  0  0  0  0  0  0  0  0
   21.1723  -21.5995  -10.8163 C   0  0  0  0  0  0  0  0  0  0  0  0
   20.0778  -22.5687  -11.0870 C   0  0  0  0  0  0  0  0  0  0  0  0
   19.3444  -22.8847   -9.8167 C   0  0  0  0  0  0  0  0  0  0  0  0
   18.1885  -23.8085  -10.0116 C   0  0  0  0  0  0  0  0  0  0  0  0
   17.6202  -24.1454   -8.7035 N   0  0  0  0  0  0  0  0  0  0  0  0
   21.5412  -19.9811  -12.5428 C   0  0  0  0  0  0  0  0  0  0  0  0
   21.6499  -19.0122  -11.7386 O   0  0  0  0  0  0  0  0  0  0  0  0
   21.0205  -19.4214  -16.2338 O   0  0  0  0  0  0  0  0  0  0  0  0
   21.1040  -18.1668  -15.6216 C   0  0  0  0  0  0  0  0  0  0  0  0
   20.6537  -18.3796  -14.1740 C   0  0  2  0  0  0  0  0  0  0  0  0
   20.9976  -19.7329  -13.8092 N   0  0  0  0  0  0  0  0  0  0  0  0
   19.2259  -18.0925  -14.0101 C   0  0  0  0  0  0  0  0  0  0  0  0
   18.7335  -16.8188  -14.1998 O   0  0  0  0  0  0  0  0  0  0  0  0
   18.4369  -19.0055  -13.6946 O   0  0  0  0  0  0  0  0  0  0  0  0
  2 13  1  0
  2  1  1  6
  3  2  1  0
  3  4  1  0
  4  5  2  0
  4 12  1  0
  5  6  1  0
  6  7  1  0
  7  8  2  0
  8  9  1  0
 10  9  2  0
 11 10  1  0
 12 11  2  0
 12  7  1  0
 13 14  2  0
 15 16  1  0
 15 13  1  0
 16 22  1  0
 16 17  1  1
 18 17  1  0
 19 18  1  0
 20 19  1  0
 21 20  1  0
 22 23  2  0
 24 25  1  0
 26 25  1  6
 26 28  1  0
 27 22  1  0
 27 26  1  0
 28 30  2  0
 28 29  1  0
M  END
$$$$
