WKS.pdb
     RDKit          3D

 30 31  0  0  1  0  0  0  0  0999 V2000
   19.8752  -14.7289  -18.0990 N   0  0  0  0  0  0  0  0  0  0  0  0
   20.4732  -13.6267  -18.8088 C   0  0  1  0  0  0  0  0  0  0  0  0
   19.4504  -12.9056  -19.6114 C   0  0  0  0  0  0  0  0  0  0  0  0
   18.9962  -13.7503  -20.7387 C   0  0  0  0  0  0  0  0  0  0  0  0
   17.8704  -14.5759  -20.7657 C   0  0  0  0  0  0  0  0  0  0  0  0
   17.7574  -15.1592  -21.9682 N   0  0  0  0  0  0  0  0  0  0  0  0
   18.7803  -14.7291  -22.7090 C   0  0  0  0  0  0  0  0  0  0  0  0
   19.1117  -15.0389  -24.0019 C   0  0  0  0  0  0  0  0  0  0  0  0
   20.2311  -14.4852  -24.5854 C   0  0  0  0  0  0  0  0  0  0  0  0
   21.0447  -13.6127  -23.8967 C   0  0  0  0  0  0  0  0  0  0  0  0
   20.6805  -13.3154  -22.5792 C   0  0  0  0  0  0  0  0  0  0  0  0
   19.5746  -13.8526  -21.9831 C   0  0  0  0  0  0  0  0  0  0  0  0
   21.1543  -12.7683  -17.8117 C   0  0  0  0  0  0  0  0  0  0  0  0
   20.7168  -12.6063  -16.6464 O   0  0  0  0  0  0  0  0  0  0  0  0
   22.3454  -12.1138  -18.2086 N   0  0  0  0  0  0  0  0  0  0  0  0
   23.0937  -11.2046  -17.3765 C   0  0  1  0  0  0  0  0  0  0  0  0
   24.4915  -11.1119  -18.0138 C   0  0  0  0  0  0  0  0  0  0  0  0
   25.4242  -10.3150  -17.1737 C   0  0  0  0  0  0  0  0  0  0  0  0
   26.7879  -10.2917  -17.7991 C   0  0  0  0  0  0  0  0  0  0  0  0
   27.8419   -9.7269  -16.9061 C   0  0  0  0  0  0  0  0  0  0  0  0
   29.1367   -9.8014  -17.5885 N   0  0  0  0  0  0  0  0  0  0  0  0
   22.5108   -9.8542  -17.5330 C   0  0  0  0  0  0  0  0  0  0  0  0
   22.3618   -9.4123  -18.7076 O   0  0  0  0  0  0  0  0  0  0  0  0
   19.5445   -6.5344  -16.3995 O   0  0  0  0  0  0  0  0  0  0  0  0
   20.1336   -7.7554  -16.0565 C   0  0  0  0  0  0  0  0  0  0  0  0
   21.5028   -7.7636  -16.7414 C   0  0  2  0  0  0  0  0  0  0  0  0
   22.1166   -9.0401  -16.4640 N   0  0  0  0  0  0  0  0  0  0  0  0
   22.3254   -6.6313  -16.3065 C   0  0  0  0  0  0  0  0  0  0  0  0
   22.0811   -5.3578  -16.7748 O   0  0  0  0  0  0  0  0  0  0  0  0
   23.2617   -6.8112  -15.5025 O   0  0  0  0  0  0  0  0  0  0  0  0
  2 13  1  0
  2  1  1  1
  3  2  1  0
  3  4  1  0
  4  5  2  0
  4 12  1  0
  5  6  1  0
  6  7  1  0
  7  8  2  0
  8  9  1  0
 10  9  2  0
 11 10  1  0
 12 11  2  0
 12  7  1  0
 13 14  2  0
 15 16  1  0
 15 13  1  0
 16 22  1  0
 16 17  1  6
 18 17  1  0
 19 18  1  0
 20 19  1  0
 21 20  1  0
 22 23  2  0
 24 25  1  0
 26 25  1  1
 26 28  1  0
 27 22  1  0
 27 26  1  0
 28 30  2  0
 28 29  1  0
M  END
$$$$
