WKS.pdb
     RDKit          3D

 30 31  0  0  1  0  0  0  0  0999 V2000
   14.0076  -15.9385    6.3882 N   0  0  0  0  0  0  0  0  0  0  0  0
   15.4372  -15.8422    6.2356 C   0  0  1  0  0  0  0  0  0  0  0  0
   15.8107  -14.5397    5.6238 C   0  0  0  0  0  0  0  0  0  0  0  0
   16.7282  -14.7552    4.4826 C   0  0  0  0  0  0  0  0  0  0  0  0
   16.7274  -15.8378    3.6006 C   0  0  0  0  0  0  0  0  0  0  0  0
   17.6797  -15.6730    2.6705 N   0  0  0  0  0  0  0  0  0  0  0  0
   18.2885  -14.5156    2.9351 C   0  0  0  0  0  0  0  0  0  0  0  0
   19.3284  -13.9080    2.2817 C   0  0  0  0  0  0  0  0  0  0  0  0
   19.8224  -12.7017    2.7300 C   0  0  0  0  0  0  0  0  0  0  0  0
   19.2941  -12.0743    3.8367 C   0  0  0  0  0  0  0  0  0  0  0  0
   18.2333  -12.7185    4.4822 C   0  0  0  0  0  0  0  0  0  0  0  0
   17.7286  -13.9136    4.0531 C   0  0  0  0  0  0  0  0  0  0  0  0
   16.0460  -16.0650    7.5677 C   0  0  0  0  0  0  0  0  0  0  0  0
   15.7613  -15.3627    8.5684 O   0  0  0  0  0  0  0  0  0  0  0  0
   16.9838  -17.1180    7.6967 N   0  0  0  0  0  0  0  0  0  0  0  0
   17.7531  -17.3852    8.8865 C   0  0  1  0  0  0  0  0  0  0  0  0
   17.8392  -18.9182    8.9909 C   0  0  0  0  0  0  0  0  0  0  0  0
   17.3986  -19.4014   10.3262 C   0  0  0  0  0  0  0  0  0  0  0  0
   17.4410  -20.9006   10.3708 C   0  0  0  0  0  0  0  0  0  0  0  0
   17.0203  -21.4685   11.6852 C   0  0  0  0  0  0  0  0  0  0  0  0
   17.1439  -22.9279   11.6368 N   0  0  0  0  0  0  0  0  0  0  0  0
   19.1423  -16.9389    8.6443 C   0  0  0  0  0  0  0  0  0  0  0  0
   19.5868  -17.0192    7.4639 O   0  0  0  0  0  0  0  0  0  0  0  0
   22.9126  -14.3483    9.5819 O   0  0  0  0  0  0  0  0  0  0  0  0
   21.6244  -14.7153    9.9834 C   0  0  0  0  0  0  0  0  0  0  0  0
   21.3347  -16.0468    9.2855 C   0  0  2  0  0  0  0  0  0  0  0  0
   19.9905  -16.4358    9.6386 N   0  0  0  0  0  0  0  0  0  0  0  0
   22.3308  -17.0628    9.6366 C   0  0  0  0  0  0  0  0  0  0  0  0
   23.4289  -17.2850    8.8331 O   0  0  0  0  0  0  0  0  0  0  0  0
   22.1928  -17.7414   10.6738 O   0  0  0  0  0  0  0  0  0  0  0  0
  2 13  1  0
  2  1  1  1
  3  2  1  0
  3  4  1  0
  4  5  2  0
  4 12  1  0
  5  6  1  0
  6  7  1  0
  7  8  2  0
  8  9  1  0
 10  9  2  0
 11 10  1  0
 12 11  2  0
 12  7  1  0
 13 14  2  0
 15 16  1  0
 15 13  1  0
 16 22  1  0
 16 17  1  6
 18 17  1  0
 19 18  1  0
 20 19  1  0
 21 20  1  0
 22 23  2  0
 24 25  1  0
 26 25  1  1
 26 28  1  0
 27 22  1  0
 27 26  1  0
 28 30  2  0
 28 29  1  0
M  END
$$$$
