WKS.pdb
     RDKit          3D

 30 31  0  0  1  0  0  0  0  0999 V2000
   25.7338  -19.1635  -11.5240 N   0  0  0  0  0  0  0  0  0  0  0  0
   25.8001  -20.5841  -11.7559 C   0  0  1  0  0  0  0  0  0  0  0  0
   25.5751  -21.3311  -10.4903 C   0  0  0  0  0  0  0  0  0  0  0  0
   26.3280  -20.7001   -9.3833 C   0  0  0  0  0  0  0  0  0  0  0  0
   25.8160  -19.8519   -8.3992 C   0  0  0  0  0  0  0  0  0  0  0  0
   26.7871  -19.5047   -7.5416 N   0  0  0  0  0  0  0  0  0  0  0  0
   27.9046  -20.1073   -7.9516 C   0  0  0  0  0  0  0  0  0  0  0  0
   29.1657  -20.0627   -7.4176 C   0  0  0  0  0  0  0  0  0  0  0  0
   30.1971  -20.7602   -8.0090 C   0  0  0  0  0  0  0  0  0  0  0  0
   29.9975  -21.5161   -9.1431 C   0  0  0  0  0  0  0  0  0  0  0  0
   28.6996  -21.5425   -9.6646 C   0  0  0  0  0  0  0  0  0  0  0  0
   27.6636  -20.8592   -9.0929 C   0  0  0  0  0  0  0  0  0  0  0  0
   24.8192  -20.9111  -12.8169 C   0  0  0  0  0  0  0  0  0  0  0  0
   23.9128  -20.1173  -13.1691 O   0  0  0  0  0  0  0  0  0  0  0  0
   24.9258  -22.1745  -13.4473 N   0  0  0  0  0  0  0  0  0  0  0  0
   24.2988  -22.5178  -14.6994 C   0  0  1  0  0  0  0  0  0  0  0  0
   25.2244  -23.5566  -15.3573 C   0  0  0  0  0  0  0  0  0  0  0  0
   26.3170  -22.9059  -16.1278 C   0  0  0  0  0  0  0  0  0  0  0  0
   27.2010  -23.9481  -16.7474 C   0  0  0  0  0  0  0  0  0  0  0  0
   28.2638  -23.3794  -17.6273 C   0  0  0  0  0  0  0  0  0  0  0  0
   29.0698  -24.4752  -18.1725 N   0  0  0  0  0  0  0  0  0  0  0  0
   23.0499  -23.2518  -14.4010 C   0  0  0  0  0  0  0  0  0  0  0  0
   23.1536  -24.4395  -13.9816 O   0  0  0  0  0  0  0  0  0  0  0  0
   18.3350  -23.3941  -13.7610 O   0  0  0  0  0  0  0  0  0  0  0  0
   19.3907  -22.6158  -14.2460 C   0  0  0  0  0  0  0  0  0  0  0  0
   20.6189  -23.5297  -14.2386 C   0  0  2  0  0  0  0  0  0  0  0  0
   21.7664  -22.7133  -14.5545 N   0  0  0  0  0  0  0  0  0  0  0  0
   20.4526  -24.6569  -15.1604 C   0  0  0  0  0  0  0  0  0  0  0  0
   20.0773  -25.9002  -14.6977 O   0  0  0  0  0  0  0  0  0  0  0  0
   20.6510  -24.5003  -16.3817 O   0  0  0  0  0  0  0  0  0  0  0  0
  2 13  1  0
  2  1  1  1
  3  2  1  0
  3  4  1  0
  4  5  2  0
  4 12  1  0
  5  6  1  0
  6  7  1  0
  7  8  2  0
  8  9  1  0
 10  9  2  0
 11 10  1  0
 12 11  2  0
 12  7  1  0
 13 14  2  0
 15 16  1  0
 15 13  1  0
 16 22  1  0
 16 17  1  6
 18 17  1  0
 19 18  1  0
 20 19  1  0
 21 20  1  0
 22 23  2  0
 24 25  1  0
 26 25  1  6
 26 28  1  0
 27 22  1  0
 27 26  1  0
 28 30  2  0
 28 29  1  0
M  END
$$$$
