WKS.pdb
     RDKit          3D

 30 31  0  0  1  0  0  0  0  0999 V2000
   26.7276  -20.9308  -15.7712 N   0  0  0  0  0  0  0  0  0  0  0  0
   26.0535  -21.2524  -14.5390 C   0  0  1  0  0  0  0  0  0  0  0  0
   26.1201  -20.1075  -13.5928 C   0  0  0  0  0  0  0  0  0  0  0  0
   27.5118  -19.9058  -13.1312 C   0  0  0  0  0  0  0  0  0  0  0  0
   28.4725  -19.0722  -13.7074 C   0  0  0  0  0  0  0  0  0  0  0  0
   29.6078  -19.1188  -12.9947 N   0  0  0  0  0  0  0  0  0  0  0  0
   29.3983  -19.9595  -11.9801 C   0  0  0  0  0  0  0  0  0  0  0  0
   30.2503  -20.3491  -10.9802 C   0  0  0  0  0  0  0  0  0  0  0  0
   29.8339  -21.2479  -10.0217 C   0  0  0  0  0  0  0  0  0  0  0  0
   28.5628  -21.7787  -10.0367 C   0  0  0  0  0  0  0  0  0  0  0  0
   27.7160  -21.3618  -11.0692 C   0  0  0  0  0  0  0  0  0  0  0  0
   28.1091  -20.4712  -12.0280 C   0  0  0  0  0  0  0  0  0  0  0  0
   24.6697  -21.6586  -14.8779 C   0  0  0  0  0  0  0  0  0  0  0  0
   23.9982  -21.0923  -15.7746 O   0  0  0  0  0  0  0  0  0  0  0  0
   24.1001  -22.7314  -14.1502 N   0  0  0  0  0  0  0  0  0  0  0  0
   22.8369  -23.3515  -14.4643 C   0  0  1  0  0  0  0  0  0  0  0  0
   22.8506  -24.7116  -13.7443 C   0  0  0  0  0  0  0  0  0  0  0  0
   21.5956  -25.4714  -13.9859 C   0  0  0  0  0  0  0  0  0  0  0  0
   21.6362  -26.7791  -13.2513 C   0  0  0  0  0  0  0  0  0  0  0  0
   20.4290  -27.6266  -13.4789 C   0  0  0  0  0  0  0  0  0  0  0  0
   20.5430  -28.8465  -12.6748 N   0  0  0  0  0  0  0  0  0  0  0  0
   21.7673  -22.5763  -13.7989 C   0  0  0  0  0  0  0  0  0  0  0  0
   21.9469  -22.2449  -12.5926 O   0  0  0  0  0  0  0  0  0  0  0  0
   19.0645  -20.5987  -15.7899 O   0  0  0  0  0  0  0  0  0  0  0  0
   19.2925  -20.1642  -14.4805 C   0  0  0  0  0  0  0  0  0  0  0  0
   19.6053  -21.4261  -13.6720 C   0  0  2  0  0  0  0  0  0  0  0  0
   20.5739  -22.1898  -14.4213 N   0  0  0  0  0  0  0  0  0  0  0  0
   18.3883  -22.1869  -13.3754 C   0  0  0  0  0  0  0  0  0  0  0  0
   18.1837  -23.4361  -13.9218 O   0  0  0  0  0  0  0  0  0  0  0  0
   17.5196  -21.7071  -12.6201 O   0  0  0  0  0  0  0  0  0  0  0  0
  2 13  1  0
  2  1  1  6
  3  2  1  0
  3  4  1  0
  4  5  2  0
  4 12  1  0
  5  6  1  0
  6  7  1  0
  7  8  2  0
  8  9  1  0
 10  9  2  0
 11 10  1  0
 12 11  2  0
 12  7  1  0
 13 14  2  0
 15 16  1  0
 15 13  1  0
 16 22  1  0
 16 17  1  1
 18 17  1  0
 19 18  1  0
 20 19  1  0
 21 20  1  0
 22 23  2  0
 24 25  1  0
 26 25  1  6
 26 28  1  0
 27 22  1  0
 27 26  1  0
 28 30  2  0
 28 29  1  0
M  END
$$$$
