WKS.pdb
     RDKit          3D

 30 31  0  0  1  0  0  0  0  0999 V2000
   27.9582  -20.6709  -13.0344 N   0  0  0  0  0  0  0  0  0  0  0  0
   26.5450  -20.4120  -12.9254 C   0  0  1  0  0  0  0  0  0  0  0  0
   26.3037  -19.0361  -12.4162 C   0  0  0  0  0  0  0  0  0  0  0  0
   26.5348  -18.9837  -10.9552 C   0  0  0  0  0  0  0  0  0  0  0  0
   27.1200  -17.9389  -10.2371 C   0  0  0  0  0  0  0  0  0  0  0  0
   27.1290  -18.2301   -8.9278 N   0  0  0  0  0  0  0  0  0  0  0  0
   26.5663  -19.4320   -8.7908 C   0  0  0  0  0  0  0  0  0  0  0  0
   26.3493  -20.1691   -7.6563 C   0  0  0  0  0  0  0  0  0  0  0  0
   25.7536  -21.4096   -7.7354 C   0  0  0  0  0  0  0  0  0  0  0  0
   25.3614  -21.9439   -8.9430 C   0  0  0  0  0  0  0  0  0  0  0  0
   25.5956  -21.1680  -10.0832 C   0  0  0  0  0  0  0  0  0  0  0  0
   26.1835  -19.9359  -10.0260 C   0  0  0  0  0  0  0  0  0  0  0  0
   25.9394  -20.6646  -14.2537 C   0  0  0  0  0  0  0  0  0  0  0  0
   26.4338  -20.2209  -15.3187 O   0  0  0  0  0  0  0  0  0  0  0  0
   24.7560  -21.4405  -14.3024 N   0  0  0  0  0  0  0  0  0  0  0  0
   24.0461  -21.7719  -15.5128 C   0  0  1  0  0  0  0  0  0  0  0  0
   23.9956  -23.3094  -15.5580 C   0  0  0  0  0  0  0  0  0  0  0  0
   25.2171  -23.8788  -16.1858 C   0  0  0  0  0  0  0  0  0  0  0  0
   25.1701  -25.3778  -16.1366 C   0  0  0  0  0  0  0  0  0  0  0  0
   26.3472  -26.0310  -16.7806 C   0  0  0  0  0  0  0  0  0  0  0  0
   26.2586  -27.4800  -16.5803 N   0  0  0  0  0  0  0  0  0  0  0  0
   22.6387  -21.3468  -15.3502 C   0  0  0  0  0  0  0  0  0  0  0  0
   22.0855  -21.5646  -14.2349 O   0  0  0  0  0  0  0  0  0  0  0  0
   20.6796  -19.4339  -18.2236 O   0  0  0  0  0  0  0  0  0  0  0  0
   20.2219  -19.1005  -16.9450 C   0  0  0  0  0  0  0  0  0  0  0  0
   20.5326  -20.3125  -16.0628 C   0  0  2  0  0  0  0  0  0  0  0  0
   21.8863  -20.7212  -16.3518 N   0  0  0  0  0  0  0  0  0  0  0  0
   19.5584  -21.3879  -16.2685 C   0  0  0  0  0  0  0  0  0  0  0  0
   18.3719  -21.4120  -15.5669 O   0  0  0  0  0  0  0  0  0  0  0  0
   19.7961  -22.2986  -17.0869 O   0  0  0  0  0  0  0  0  0  0  0  0
  2 13  1  0
  2  1  1  6
  3  2  1  0
  3  4  1  0
  4  5  2  0
  4 12  1  0
  5  6  1  0
  6  7  1  0
  7  8  2  0
  8  9  1  0
 10  9  2  0
 11 10  1  0
 12 11  2  0
 12  7  1  0
 13 14  2  0
 15 16  1  0
 15 13  1  0
 16 22  1  0
 16 17  1  1
 18 17  1  0
 19 18  1  0
 20 19  1  0
 21 20  1  0
 22 23  2  0
 24 25  1  0
 26 25  1  6
 26 28  1  0
 27 22  1  0
 27 26  1  0
 28 30  2  0
 28 29  1  0
M  END
$$$$
