WKS.pdb
     RDKit          3D

 30 31  0  0  1  0  0  0  0  0999 V2000
   27.8321  -21.9257  -10.4597 N   0  0  0  0  0  0  0  0  0  0  0  0
   26.7314  -21.0207  -10.2455 C   0  0  1  0  0  0  0  0  0  0  0  0
   27.2107  -19.7483   -9.6440 C   0  0  0  0  0  0  0  0  0  0  0  0
   28.1904  -20.0274   -8.5703 C   0  0  0  0  0  0  0  0  0  0  0  0
   29.4270  -20.6610   -8.7092 C   0  0  0  0  0  0  0  0  0  0  0  0
   30.0561  -20.7048   -7.5254 N   0  0  0  0  0  0  0  0  0  0  0  0
   29.2549  -20.1173   -6.6350 C   0  0  0  0  0  0  0  0  0  0  0  0
   29.4409  -19.9188   -5.2920 C   0  0  0  0  0  0  0  0  0  0  0  0
   28.4712  -19.2903   -4.5404 C   0  0  0  0  0  0  0  0  0  0  0  0
   27.2967  -18.8465   -5.1069 C   0  0  0  0  0  0  0  0  0  0  0  0
   27.1358  -19.0631   -6.4796 C   0  0  0  0  0  0  0  0  0  0  0  0
   28.0851  -19.6828   -7.2423 C   0  0  0  0  0  0  0  0  0  0  0  0
   26.0428  -20.8373  -11.5443 C   0  0  0  0  0  0  0  0  0  0  0  0
   26.6476  -20.4912  -12.5884 O   0  0  0  0  0  0  0  0  0  0  0  0
   24.6464  -21.0672  -11.5889 N   0  0  0  0  0  0  0  0  0  0  0  0
   23.8569  -21.0672  -12.7954 C   0  0  1  0  0  0  0  0  0  0  0  0
   23.4342  -22.5305  -13.0161 C   0  0  0  0  0  0  0  0  0  0  0  0
   23.8047  -23.0082  -14.3744 C   0  0  0  0  0  0  0  0  0  0  0  0
   25.2501  -23.4101  -14.4021 C   0  0  0  0  0  0  0  0  0  0  0  0
   25.7066  -23.8960  -15.7373 C   0  0  0  0  0  0  0  0  0  0  0  0
   27.1327  -24.2258  -15.6639 N   0  0  0  0  0  0  0  0  0  0  0  0
   22.5977  -20.3419  -12.5197 C   0  0  0  0  0  0  0  0  0  0  0  0
   22.0437  -20.5335  -11.4000 O   0  0  0  0  0  0  0  0  0  0  0  0
   19.2609  -17.1366  -13.6928 O   0  0  0  0  0  0  0  0  0  0  0  0
   20.4339  -17.7701  -14.1147 C   0  0  0  0  0  0  0  0  0  0  0  0
   20.7510  -18.8155  -13.0420 C   0  0  2  0  0  0  0  0  0  0  0  0
   21.9854  -19.4608  -13.4196 N   0  0  0  0  0  0  0  0  0  0  0  0
   19.6442  -19.7612  -12.8729 C   0  0  0  0  0  0  0  0  0  0  0  0
   18.7280  -19.6039  -11.8548 O   0  0  0  0  0  0  0  0  0  0  0  0
   19.5204  -20.7249  -13.6548 O   0  0  0  0  0  0  0  0  0  0  0  0
  2 13  1  0
  2  1  1  6
  3  2  1  0
  3  4  1  0
  4  5  2  0
  4 12  1  0
  5  6  1  0
  6  7  1  0
  7  8  2  0
  8  9  1  0
 10  9  2  0
 11 10  1  0
 12 11  2  0
 12  7  1  0
 13 14  2  0
 15 16  1  0
 15 13  1  0
 16 22  1  0
 16 17  1  1
 18 17  1  0
 19 18  1  0
 20 19  1  0
 21 20  1  0
 22 23  2  0
 24 25  1  0
 26 25  1  6
 26 28  1  0
 27 22  1  0
 27 26  1  0
 28 30  2  0
 28 29  1  0
M  END
$$$$
