WKS.pdb
     RDKit          3D

 30 31  0  0  1  0  0  0  0  0999 V2000
   25.2276  -18.9858   -9.1317 N   0  0  0  0  0  0  0  0  0  0  0  0
   25.9705  -20.1087   -9.6450 C   0  0  1  0  0  0  0  0  0  0  0  0
   25.7797  -21.3015   -8.7782 C   0  0  0  0  0  0  0  0  0  0  0  0
   26.1481  -20.9823   -7.3807 C   0  0  0  0  0  0  0  0  0  0  0  0
   25.3268  -21.0786   -6.2555 C   0  0  0  0  0  0  0  0  0  0  0  0
   26.0147  -20.7411   -5.1546 N   0  0  0  0  0  0  0  0  0  0  0  0
   27.2519  -20.4316   -5.5463 C   0  0  0  0  0  0  0  0  0  0  0  0
   28.3251  -20.0190   -4.8009 C   0  0  0  0  0  0  0  0  0  0  0  0
   29.5288  -19.7370   -5.4104 C   0  0  0  0  0  0  0  0  0  0  0  0
   29.6915  -19.8585   -6.7728 C   0  0  0  0  0  0  0  0  0  0  0  0
   28.5785  -20.2819   -7.5069 C   0  0  0  0  0  0  0  0  0  0  0  0
   27.3772  -20.5675   -6.9218 C   0  0  0  0  0  0  0  0  0  0  0  0
   25.5452  -20.3240  -11.0477 C   0  0  0  0  0  0  0  0  0  0  0  0
   24.4170  -19.9764  -11.4741 O   0  0  0  0  0  0  0  0  0  0  0  0
   26.4631  -20.9479  -11.9270 N   0  0  0  0  0  0  0  0  0  0  0  0
   26.2649  -21.0898  -13.3480 C   0  0  1  0  0  0  0  0  0  0  0  0
   27.6145  -21.5704  -13.9104 C   0  0  0  0  0  0  0  0  0  0  0  0
   27.5369  -21.8302  -15.3723 C   0  0  0  0  0  0  0  0  0  0  0  0
   28.8916  -22.1978  -15.9023 C   0  0  0  0  0  0  0  0  0  0  0  0
   28.9159  -22.4043  -17.3802 C   0  0  0  0  0  0  0  0  0  0  0  0
   30.3065  -22.5475  -17.8199 N   0  0  0  0  0  0  0  0  0  0  0  0
   25.3336  -22.2170  -13.5710 C   0  0  0  0  0  0  0  0  0  0  0  0
   25.5617  -23.2969  -12.9552 O   0  0  0  0  0  0  0  0  0  0  0  0
   21.8267  -21.6115  -14.8421 O   0  0  0  0  0  0  0  0  0  0  0  0
   21.9416  -22.8965  -14.3027 C   0  0  0  0  0  0  0  0  0  0  0  0
   23.3867  -23.3295  -14.5636 C   0  0  2  0  0  0  0  0  0  0  0  0
   24.2205  -22.1605  -14.4189 N   0  0  0  0  0  0  0  0  0  0  0  0
   23.5255  -23.9673  -15.8758 C   0  0  0  0  0  0  0  0  0  0  0  0
   22.9742  -25.2067  -16.1224 O   0  0  0  0  0  0  0  0  0  0  0  0
   24.1491  -23.3900  -16.7887 O   0  0  0  0  0  0  0  0  0  0  0  0
  2 13  1  0
  2  1  1  1
  3  2  1  0
  3  4  1  0
  4  5  2  0
  4 12  1  0
  5  6  1  0
  6  7  1  0
  7  8  2  0
  8  9  1  0
 10  9  2  0
 11 10  1  0
 12 11  2  0
 12  7  1  0
 13 14  2  0
 15 16  1  0
 15 13  1  0
 16 22  1  0
 16 17  1  6
 18 17  1  0
 19 18  1  0
 20 19  1  0
 21 20  1  0
 22 23  2  0
 24 25  1  0
 26 25  1  6
 26 28  1  0
 27 22  1  0
 27 26  1  0
 28 30  2  0
 28 29  1  0
M  END
$$$$
