WKS.pdb
     RDKit          3D

 30 31  0  0  1  0  0  0  0  0999 V2000
   23.7431  -20.1544  -12.4222 N   0  0  0  0  0  0  0  0  0  0  0  0
   25.1270  -20.2274  -12.8168 C   0  0  1  0  0  0  0  0  0  0  0  0
   25.7854  -21.4077  -12.1973 C   0  0  0  0  0  0  0  0  0  0  0  0
   26.2440  -21.0781  -10.8292 C   0  0  0  0  0  0  0  0  0  0  0  0
   25.4409  -20.7990   -9.7215 C   0  0  0  0  0  0  0  0  0  0  0  0
   26.2069  -20.5817   -8.6421 N   0  0  0  0  0  0  0  0  0  0  0  0
   27.4764  -20.7137   -9.0306 C   0  0  0  0  0  0  0  0  0  0  0  0
   28.6295  -20.5814   -8.3024 C   0  0  0  0  0  0  0  0  0  0  0  0
   29.8572  -20.7513   -8.9057 C   0  0  0  0  0  0  0  0  0  0  0  0
   29.9651  -21.0556  -10.2448 C   0  0  0  0  0  0  0  0  0  0  0  0
   28.7708  -21.1846  -10.9617 C   0  0  0  0  0  0  0  0  0  0  0  0
   27.5441  -21.0214  -10.3822 C   0  0  0  0  0  0  0  0  0  0  0  0
   25.1710  -20.2363  -14.2976 C   0  0  0  0  0  0  0  0  0  0  0  0
   24.2548  -20.7302  -14.9992 O   0  0  0  0  0  0  0  0  0  0  0  0
   26.2999  -19.6589  -14.9276 N   0  0  0  0  0  0  0  0  0  0  0  0
   26.4280  -19.4585  -16.3496 C   0  0  1  0  0  0  0  0  0  0  0  0
   27.1901  -18.1318  -16.5159 C   0  0  0  0  0  0  0  0  0  0  0  0
   26.3369  -17.0848  -17.1376 C   0  0  0  0  0  0  0  0  0  0  0  0
   27.1090  -15.8053  -17.2731 C   0  0  0  0  0  0  0  0  0  0  0  0
   26.2838  -14.6620  -17.7621 C   0  0  0  0  0  0  0  0  0  0  0  0
   27.1168  -13.4572  -17.8094 N   0  0  0  0  0  0  0  0  0  0  0  0
   27.3419  -20.4943  -16.8784 C   0  0  0  0  0  0  0  0  0  0  0  0
   27.9012  -20.2710  -17.9896 O   0  0  0  0  0  0  0  0  0  0  0  0
   29.7983  -22.7139  -15.0062 O   0  0  0  0  0  0  0  0  0  0  0  0
   29.0594  -23.5776  -15.8207 C   0  0  0  0  0  0  0  0  0  0  0  0
   28.4267  -22.6934  -16.8986 C   0  0  2  0  0  0  0  0  0  0  0  0
   27.6231  -21.7010  -16.2260 N   0  0  0  0  0  0  0  0  0  0  0  0
   27.6592  -23.4890  -17.8607 C   0  0  0  0  0  0  0  0  0  0  0  0
   28.2665  -24.4767  -18.6067 O   0  0  0  0  0  0  0  0  0  0  0  0
   26.4397  -23.2778  -18.0148 O   0  0  0  0  0  0  0  0  0  0  0  0
  2 13  1  0
  2  1  1  6
  3  2  1  0
  3  4  1  0
  4  5  2  0
  4 12  1  0
  5  6  1  0
  6  7  1  0
  7  8  2  0
  8  9  1  0
 10  9  2  0
 11 10  1  0
 12 11  2  0
 12  7  1  0
 13 14  2  0
 15 16  1  0
 15 13  1  0
 16 22  1  0
 16 17  1  1
 18 17  1  0
 19 18  1  0
 20 19  1  0
 21 20  1  0
 22 23  2  0
 24 25  1  0
 26 25  1  1
 26 28  1  0
 27 22  1  0
 27 26  1  0
 28 30  2  0
 28 29  1  0
M  END
$$$$
