WKS.pdb
     RDKit          3D

 30 31  0  0  1  0  0  0  0  0999 V2000
   16.5414  -16.5622    3.3171 N   0  0  0  0  0  0  0  0  0  0  0  0
   16.8700  -17.1821    4.5757 C   0  0  1  0  0  0  0  0  0  0  0  0
   17.3826  -18.5610    4.3608 C   0  0  0  0  0  0  0  0  0  0  0  0
   16.3002  -19.4365    3.8582 C   0  0  0  0  0  0  0  0  0  0  0  0
   15.0950  -19.0306    3.2814 C   0  0  0  0  0  0  0  0  0  0  0  0
   14.3782  -20.1027    2.9131 N   0  0  0  0  0  0  0  0  0  0  0  0
   15.0923  -21.1814    3.2396 C   0  0  0  0  0  0  0  0  0  0  0  0
   14.7916  -22.5083    3.0771 C   0  0  0  0  0  0  0  0  0  0  0  0
   15.6752  -23.4789    3.4980 C   0  0  0  0  0  0  0  0  0  0  0  0
   16.8755  -23.1518    4.0894 C   0  0  0  0  0  0  0  0  0  0  0  0
   17.1546  -21.7894    4.2412 C   0  0  0  0  0  0  0  0  0  0  0  0
   16.2929  -20.8121    3.8298 C   0  0  0  0  0  0  0  0  0  0  0  0
   17.8312  -16.2969    5.2738 C   0  0  0  0  0  0  0  0  0  0  0  0
   18.8478  -15.8232    4.7102 O   0  0  0  0  0  0  0  0  0  0  0  0
   17.5745  -15.9841    6.6307 N   0  0  0  0  0  0  0  0  0  0  0  0
   18.3594  -15.0678    7.4201 C   0  0  1  0  0  0  0  0  0  0  0  0
   17.3497  -14.2948    8.2870 C   0  0  0  0  0  0  0  0  0  0  0  0
   17.5121  -12.8246    8.1365 C   0  0  0  0  0  0  0  0  0  0  0  0
   16.5123  -12.1060    8.9942 C   0  0  0  0  0  0  0  0  0  0  0  0
   16.5872  -10.6201    8.8767 C   0  0  0  0  0  0  0  0  0  0  0  0
   15.5279  -10.0221    9.6940 N   0  0  0  0  0  0  0  0  0  0  0  0
   19.1612  -15.8588    8.3788 C   0  0  0  0  0  0  0  0  0  0  0  0
   18.6155  -16.8696    8.9059 O   0  0  0  0  0  0  0  0  0  0  0  0
   22.9656  -16.3919    8.2247 O   0  0  0  0  0  0  0  0  0  0  0  0
   22.1450  -17.2714    8.9379 C   0  0  0  0  0  0  0  0  0  0  0  0
   21.1556  -16.3889    9.7035 C   0  0  2  0  0  0  0  0  0  0  0  0
   20.4811  -15.5569    8.7361 N   0  0  0  0  0  0  0  0  0  0  0  0
   21.8286  -15.6131   10.7489 C   0  0  0  0  0  0  0  0  0  0  0  0
   22.4470  -16.2410   11.8092 O   0  0  0  0  0  0  0  0  0  0  0  0
   21.8480  -14.3675   10.6884 O   0  0  0  0  0  0  0  0  0  0  0  0
  2 13  1  0
  2  1  1  6
  3  2  1  0
  3  4  1  0
  4  5  2  0
  4 12  1  0
  5  6  1  0
  6  7  1  0
  7  8  2  0
  8  9  1  0
 10  9  2  0
 11 10  1  0
 12 11  2  0
 12  7  1  0
 13 14  2  0
 15 16  1  0
 15 13  1  0
 16 22  1  0
 16 17  1  1
 18 17  1  0
 19 18  1  0
 20 19  1  0
 21 20  1  0
 22 23  2  0
 24 25  1  0
 26 25  1  6
 26 28  1  0
 27 22  1  0
 27 26  1  0
 28 30  2  0
 28 29  1  0
M  END
$$$$
