WKS.pdb
     RDKit          3D

 30 31  0  0  1  0  0  0  0  0999 V2000
   27.2560  -21.7638  -10.3309 N   0  0  0  0  0  0  0  0  0  0  0  0
   26.4294  -20.7230   -9.7745 C   0  0  1  0  0  0  0  0  0  0  0  0
   27.2664  -19.5923   -9.2933 C   0  0  0  0  0  0  0  0  0  0  0  0
   28.2350  -20.0681   -8.2803 C   0  0  0  0  0  0  0  0  0  0  0  0
   29.3701  -20.8485   -8.5089 C   0  0  0  0  0  0  0  0  0  0  0  0
   30.0267  -21.0526   -7.3573 N   0  0  0  0  0  0  0  0  0  0  0  0
   29.3416  -20.4246   -6.4001 C   0  0  0  0  0  0  0  0  0  0  0  0
   29.5971  -20.3411   -5.0565 C   0  0  0  0  0  0  0  0  0  0  0  0
   28.7460  -19.6412   -4.2283 C   0  0  0  0  0  0  0  0  0  0  0  0
   27.6234  -19.0102   -4.7173 C   0  0  0  0  0  0  0  0  0  0  0  0
   27.3894  -19.1129   -6.0926 C   0  0  0  0  0  0  0  0  0  0  0  0
   28.2211  -19.8007   -6.9306 C   0  0  0  0  0  0  0  0  0  0  0  0
   25.4456  -20.3303  -10.8102 C   0  0  0  0  0  0  0  0  0  0  0  0
   25.3788  -19.1656  -11.2737 O   0  0  0  0  0  0  0  0  0  0  0  0
   24.5542  -21.3233  -11.2836 N   0  0  0  0  0  0  0  0  0  0  0  0
   23.6122  -21.1298  -12.3579 C   0  0  1  0  0  0  0  0  0  0  0  0
   24.1071  -22.0210  -13.5109 C   0  0  0  0  0  0  0  0  0  0  0  0
   25.3278  -21.4619  -14.1494 C   0  0  0  0  0  0  0  0  0  0  0  0
   25.8291  -22.3983  -15.2093 C   0  0  0  0  0  0  0  0  0  0  0  0
   27.0238  -21.8836  -15.9407 C   0  0  0  0  0  0  0  0  0  0  0  0
   27.4811  -22.9046  -16.8874 N   0  0  0  0  0  0  0  0  0  0  0  0
   22.3194  -21.7187  -11.9460 C   0  0  0  0  0  0  0  0  0  0  0  0
   22.0920  -22.9190  -12.2699 O   0  0  0  0  0  0  0  0  0  0  0  0
   19.8951  -18.4570  -12.1735 O   0  0  0  0  0  0  0  0  0  0  0  0
   20.2697  -19.6247  -12.8456 C   0  0  0  0  0  0  0  0  0  0  0  0
   20.0625  -20.7650  -11.8453 C   0  0  2  0  0  0  0  0  0  0  0  0
   21.3374  -21.0304  -11.2230 N   0  0  0  0  0  0  0  0  0  0  0  0
   19.4896  -21.9480  -12.4936 C   0  0  0  0  0  0  0  0  0  0  0  0
   18.3639  -22.5592  -11.9838 O   0  0  0  0  0  0  0  0  0  0  0  0
   20.0199  -22.4163  -13.5207 O   0  0  0  0  0  0  0  0  0  0  0  0
  2 13  1  0
  2  1  1  6
  3  2  1  0
  3  4  1  0
  4  5  2  0
  4 12  1  0
  5  6  1  0
  6  7  1  0
  7  8  2  0
  8  9  1  0
 10  9  2  0
 11 10  1  0
 12 11  2  0
 12  7  1  0
 13 14  2  0
 15 16  1  0
 15 13  1  0
 16 22  1  0
 16 17  1  6
 18 17  1  0
 19 18  1  0
 20 19  1  0
 21 20  1  0
 22 23  2  0
 24 25  1  0
 26 25  1  6
 26 28  1  0
 27 22  1  0
 27 26  1  0
 28 30  2  0
 28 29  1  0
M  END
$$$$
