LPT.pdb
     RDKit          3D

 23 23  0  0  1  0  0  0  0  0999 V2000
    7.3776  -12.0215   27.5077 C   0  0  0  0  0  0  0  0  0  0  0  0
    6.4922  -13.0687   26.8455 C   0  0  1  0  0  0  0  0  0  0  0  0
    5.3882  -12.3568   26.1269 C   0  0  0  0  0  0  0  0  0  0  0  0
    7.2807  -14.0119   26.0133 C   0  0  0  0  0  0  0  0  0  0  0  0
    6.4847  -15.1576   25.4233 C   0  0  2  0  0  0  0  0  0  0  0  0
    5.8621  -15.9497   26.4069 N   0  0  0  0  0  0  0  0  0  0  0  0
    7.3375  -15.8356   24.4499 C   0  0  0  0  0  0  0  0  0  0  0  0
    7.5756  -17.0742   24.6795 O   0  0  0  0  0  0  0  0  0  0  0  0
    7.9220  -15.2885   23.3001 N   0  0  0  0  0  0  0  0  0  0  0  0
    7.9612  -13.9366   22.7861 C   0  0  0  0  0  0  0  0  0  0  0  0
    7.5085  -14.1960   21.3382 C   0  0  0  0  0  0  0  0  0  0  0  0
    8.4586  -15.3210   20.9804 C   0  0  0  0  0  0  0  0  0  0  0  0
    8.6974  -16.0295   22.2730 C   0  0  1  0  0  0  0  0  0  0  0  0
   10.1055  -15.9865   22.7173 C   0  0  0  0  0  0  0  0  0  0  0  0
   10.6372  -14.8848   23.0684 O   0  0  0  0  0  0  0  0  0  0  0  0
   11.4953  -18.2452   25.5024 C   0  0  0  0  0  0  0  0  0  0  0  0
   12.2020  -18.4694   24.2102 C   0  0  1  0  0  0  0  0  0  0  0  0
   11.6118  -19.5464   23.5215 O   0  0  0  0  0  0  0  0  0  0  0  0
   12.1683  -17.2767   23.2822 C   0  0  2  0  0  0  0  0  0  0  0  0
   10.8378  -17.1991   22.7398 N   0  0  0  0  0  0  0  0  0  0  0  0
   13.1406  -17.3607   22.1958 C   0  0  0  0  0  0  0  0  0  0  0  0
   12.7663  -17.7110   21.0531 O   0  0  0  0  0  0  0  0  0  0  0  0
   14.4837  -17.0669   22.3663 O   0  0  0  0  0  0  0  0  0  0  0  0
  2  1  1  6
  3  2  1  0
  4  5  1  0
  4  2  1  0
  5  6  1  1
  5  7  1  0
  7  9  1  0
  8  7  2  0
  9 13  1  0
  9 10  1  0
 10 11  1  0
 11 12  1  0
 13 12  1  0
 13 14  1  1
 14 15  2  0
 14 20  1  0
 17 19  1  0
 17 16  1  1
 18 17  1  0
 19 21  1  0
 19 20  1  6
 21 22  2  0
 21 23  1  0
M  END
$$$$
