LPT.pdb
     RDKit          3D

 23 23  0  0  1  0  0  0  0  0999 V2000
    6.4408  -12.4667   25.7196 C   0  0  0  0  0  0  0  0  0  0  0  0
    7.4014  -13.5593   26.1696 C   0  0  1  0  0  0  0  0  0  0  0  0
    8.3814  -12.9520   27.1251 C   0  0  0  0  0  0  0  0  0  0  0  0
    6.6803  -14.7526   26.6796 C   0  0  0  0  0  0  0  0  0  0  0  0
    6.0461  -15.6176   25.6101 C   0  0  2  0  0  0  0  0  0  0  0  0
    5.2334  -16.6350   26.1457 N   0  0  0  0  0  0  0  0  0  0  0  0
    7.0989  -16.0142   24.6779 C   0  0  0  0  0  0  0  0  0  0  0  0
    7.6256  -17.1648   24.8834 O   0  0  0  0  0  0  0  0  0  0  0  0
    7.5959  -15.2834   23.5908 N   0  0  0  0  0  0  0  0  0  0  0  0
    7.4520  -13.8939   23.2141 C   0  0  0  0  0  0  0  0  0  0  0  0
    7.0245  -14.0658   21.7456 C   0  0  0  0  0  0  0  0  0  0  0  0
    8.1114  -15.0144   21.2817 C   0  0  0  0  0  0  0  0  0  0  0  0
    8.4530  -15.8099   22.4984 C   0  0  1  0  0  0  0  0  0  0  0  0
    9.8470  -15.6256   22.9508 C   0  0  0  0  0  0  0  0  0  0  0  0
   10.2229  -14.5145   23.4447 O   0  0  0  0  0  0  0  0  0  0  0  0
   11.3824  -17.4847   25.6399 C   0  0  0  0  0  0  0  0  0  0  0  0
   12.1623  -17.7698   24.4030 C   0  0  1  0  0  0  0  0  0  0  0  0
   11.6919  -18.9527   23.8014 O   0  0  0  0  0  0  0  0  0  0  0  0
   12.0751  -16.6771   23.3622 C   0  0  2  0  0  0  0  0  0  0  0  0
   10.7434  -16.7148   22.8185 N   0  0  0  0  0  0  0  0  0  0  0  0
   13.0521  -16.8226   22.2865 C   0  0  0  0  0  0  0  0  0  0  0  0
   12.6915  -17.2794   21.1776 O   0  0  0  0  0  0  0  0  0  0  0  0
   14.3852  -16.4746   22.4315 O   0  0  0  0  0  0  0  0  0  0  0  0
  2  1  1  1
  3  2  1  0
  4  5  1  0
  4  2  1  0
  5  6  1  1
  5  7  1  0
  7  9  1  0
  8  7  2  0
  9 13  1  0
  9 10  1  0
 10 11  1  0
 11 12  1  0
 13 12  1  0
 13 14  1  1
 14 15  2  0
 14 20  1  0
 17 19  1  0
 17 16  1  1
 18 17  1  0
 19 21  1  0
 19 20  1  6
 21 22  2  0
 21 23  1  0
M  END
$$$$
