LPT.pdb
     RDKit          3D

 23 23  0  0  1  0  0  0  0  0999 V2000
    7.8538  -11.8923   19.6213 C   0  0  0  0  0  0  0  0  0  0  0  0
    8.0844  -13.2525   20.2661 C   0  0  1  0  0  0  0  0  0  0  0  0
    9.4674  -13.2665   20.8400 C   0  0  0  0  0  0  0  0  0  0  0  0
    7.0023  -13.6016   21.2206 C   0  0  0  0  0  0  0  0  0  0  0  0
    7.2283  -14.8820   21.9976 C   0  0  2  0  0  0  0  0  0  0  0  0
    6.0340  -15.5863   22.2432 N   0  0  0  0  0  0  0  0  0  0  0  0
    8.0718  -14.5610   23.1465 C   0  0  0  0  0  0  0  0  0  0  0  0
    9.3336  -14.5246   22.9230 O   0  0  0  0  0  0  0  0  0  0  0  0
    7.6604  -14.2902   24.4581 N   0  0  0  0  0  0  0  0  0  0  0  0
    6.3509  -14.0771   25.0353 C   0  0  0  0  0  0  0  0  0  0  0  0
    6.6171  -12.7736   25.8091 C   0  0  0  0  0  0  0  0  0  0  0  0
    7.8719  -13.1810   26.5545 C   0  0  0  0  0  0  0  0  0  0  0  0
    8.5437  -14.1557   25.6442 C   0  0  1  0  0  0  0  0  0  0  0  0
    8.6636  -15.5116   26.2177 C   0  0  0  0  0  0  0  0  0  0  0  0
    7.6292  -16.2335   26.3875 O   0  0  0  0  0  0  0  0  0  0  0  0
   10.6841  -17.9162   24.5549 C   0  0  0  0  0  0  0  0  0  0  0  0
   11.1771  -17.9202   25.9607 C   0  0  1  0  0  0  0  0  0  0  0  0
   12.3567  -17.1577   26.0575 O   0  0  0  0  0  0  0  0  0  0  0  0
   10.1931  -17.3443   26.9531 C   0  0  2  0  0  0  0  0  0  0  0  0
    9.9543  -15.9783   26.5692 N   0  0  0  0  0  0  0  0  0  0  0  0
   10.6670  -17.3937   28.3337 C   0  0  0  0  0  0  0  0  0  0  0  0
   10.9717  -16.3321   28.9241 O   0  0  0  0  0  0  0  0  0  0  0  0
   10.7999  -18.5784   29.0395 O   0  0  0  0  0  0  0  0  0  0  0  0
  2  1  1  1
  3  2  1  0
  4  5  1  0
  4  2  1  0
  5  6  1  1
  5  7  1  0
  7  9  1  0
  8  7  2  0
  9 13  1  0
  9 10  1  0
 10 11  1  0
 11 12  1  0
 13 12  1  0
 13 14  1  1
 14 15  2  0
 14 20  1  0
 17 19  1  0
 17 16  1  6
 18 17  1  0
 19 21  1  0
 19 20  1  6
 21 22  2  0
 21 23  1  0
M  END
$$$$
