LPT.pdb
     RDKit          3D

 23 23  0  0  1  0  0  0  0  0999 V2000
   11.5701  -14.7539   29.2782 C   0  0  0  0  0  0  0  0  0  0  0  0
   10.0728  -15.0118   29.1758 C   0  0  1  0  0  0  0  0  0  0  0  0
    9.3648  -13.6993   29.3111 C   0  0  0  0  0  0  0  0  0  0  0  0
    9.7286  -15.7913   27.9601 C   0  0  0  0  0  0  0  0  0  0  0  0
    8.3028  -16.3003   27.9136 C   0  0  2  0  0  0  0  0  0  0  0  0
    8.1563  -17.5617   28.5218 N   0  0  0  0  0  0  0  0  0  0  0  0
    7.8230  -16.1519   26.5416 C   0  0  0  0  0  0  0  0  0  0  0  0
    7.5198  -17.2386   25.9329 O   0  0  0  0  0  0  0  0  0  0  0  0
    7.6581  -14.9628   25.8193 N   0  0  0  0  0  0  0  0  0  0  0  0
    7.8761  -13.5776   26.1759 C   0  0  0  0  0  0  0  0  0  0  0  0
    6.5313  -12.9790   25.7264 C   0  0  0  0  0  0  0  0  0  0  0  0
    6.4659  -13.5456   24.3225 C   0  0  0  0  0  0  0  0  0  0  0  0
    7.1911  -14.8477   24.4143 C   0  0  1  0  0  0  0  0  0  0  0  0
    8.4059  -14.9061   23.5760 C   0  0  0  0  0  0  0  0  0  0  0  0
    9.4142  -14.1797   23.8508 O   0  0  0  0  0  0  0  0  0  0  0  0
   10.8197  -17.3690   23.2874 C   0  0  0  0  0  0  0  0  0  0  0  0
   10.1661  -17.3028   21.9503 C   0  0  1  0  0  0  0  0  0  0  0  0
    9.1201  -18.2427   21.8807 O   0  0  0  0  0  0  0  0  0  0  0  0
    9.5709  -15.9510   21.6292 C   0  0  2  0  0  0  0  0  0  0  0  0
    8.4126  -15.7880   22.4673 N   0  0  0  0  0  0  0  0  0  0  0  0
    9.1905  -15.8041   20.2268 C   0  0  0  0  0  0  0  0  0  0  0  0
    7.9788  -15.7684   19.9125 O   0  0  0  0  0  0  0  0  0  0  0  0
   10.1195  -15.6998   19.2044 O   0  0  0  0  0  0  0  0  0  0  0  0
  2  1  1  6
  3  2  1  0
  4  5  1  0
  4  2  1  0
  5  6  1  6
  5  7  1  0
  7  9  1  0
  8  7  2  0
  9 13  1  0
  9 10  1  0
 10 11  1  0
 11 12  1  0
 13 12  1  0
 13 14  1  6
 14 15  2  0
 14 20  1  0
 17 19  1  0
 17 16  1  1
 18 17  1  0
 19 21  1  0
 19 20  1  1
 21 22  2  0
 21 23  1  0
M  END
$$$$
