LPT.pdb
     RDKit          3D

 23 23  0  0  1  0  0  0  0  0999 V2000
    7.6184  -11.9570   27.4599 C   0  0  0  0  0  0  0  0  0  0  0  0
    6.6815  -12.9689   26.8139 C   0  0  1  0  0  0  0  0  0  0  0  0
    5.6259  -12.2141   26.0667 C   0  0  0  0  0  0  0  0  0  0  0  0
    7.4232  -13.9751   26.0129 C   0  0  0  0  0  0  0  0  0  0  0  0
    6.5625  -15.0614   25.4018 C   0  0  2  0  0  0  0  0  0  0  0  0
    5.9015  -15.8401   26.3709 N   0  0  0  0  0  0  0  0  0  0  0  0
    7.3722  -15.7631   24.4085 C   0  0  0  0  0  0  0  0  0  0  0  0
    7.5514  -17.0156   24.6145 O   0  0  0  0  0  0  0  0  0  0  0  0
    7.9723  -15.2250   23.2625 N   0  0  0  0  0  0  0  0  0  0  0  0
    8.0875  -13.8660   22.7798 C   0  0  0  0  0  0  0  0  0  0  0  0
    7.5981  -14.0615   21.3338 C   0  0  0  0  0  0  0  0  0  0  0  0
    8.4712  -15.2338   20.9342 C   0  0  0  0  0  0  0  0  0  0  0  0
    8.6849  -15.9871   22.2057 C   0  0  1  0  0  0  0  0  0  0  0  0
   10.0993  -16.0418   22.6278 C   0  0  0  0  0  0  0  0  0  0  0  0
   10.6581  -15.0212   23.1434 O   0  0  0  0  0  0  0  0  0  0  0  0
   11.3795  -18.8432   24.9328 C   0  0  0  0  0  0  0  0  0  0  0  0
   12.1354  -18.8088   23.6495 C   0  0  1  0  0  0  0  0  0  0  0  0
   11.5785  -19.7281   22.7400 O   0  0  0  0  0  0  0  0  0  0  0  0
   12.1286  -17.4564   22.9744 C   0  0  2  0  0  0  0  0  0  0  0  0
   10.8071  -17.2550   22.4420 N   0  0  0  0  0  0  0  0  0  0  0  0
   13.1155  -17.3383   21.9044 C   0  0  0  0  0  0  0  0  0  0  0  0
   12.7487  -17.4184   20.7096 O   0  0  0  0  0  0  0  0  0  0  0  0
   14.4648  -17.1381   22.1467 O   0  0  0  0  0  0  0  0  0  0  0  0
  2  1  1  6
  3  2  1  0
  4  5  1  0
  4  2  1  0
  5  6  1  1
  5  7  1  0
  7  9  1  0
  8  7  2  0
  9 13  1  0
  9 10  1  0
 10 11  1  0
 11 12  1  0
 13 12  1  0
 13 14  1  1
 14 15  2  0
 14 20  1  0
 17 19  1  0
 17 16  1  1
 18 17  1  0
 19 21  1  0
 19 20  1  6
 21 22  2  0
 21 23  1  0
M  END
$$$$
