LPT.pdb
     RDKit          3D

 23 23  0  0  1  0  0  0  0  0999 V2000
    8.2640  -12.2749   26.2995 C   0  0  0  0  0  0  0  0  0  0  0  0
    6.9895  -13.0857   26.4921 C   0  0  1  0  0  0  0  0  0  0  0  0
    6.1060  -12.3433   27.4462 C   0  0  0  0  0  0  0  0  0  0  0  0
    6.3595  -13.4404   25.1954 C   0  0  0  0  0  0  0  0  0  0  0  0
    5.9503  -14.8928   25.0634 C   0  0  2  0  0  0  0  0  0  0  0  0
    5.5317  -15.4523   26.2857 N   0  0  0  0  0  0  0  0  0  0  0  0
    7.0058  -15.5864   24.3290 C   0  0  0  0  0  0  0  0  0  0  0  0
    7.2911  -16.7671   24.7386 O   0  0  0  0  0  0  0  0  0  0  0  0
    7.7381  -15.1097   23.2338 N   0  0  0  0  0  0  0  0  0  0  0  0
    7.8194  -13.8013   22.6217 C   0  0  0  0  0  0  0  0  0  0  0  0
    7.5885  -14.1882   21.1500 C   0  0  0  0  0  0  0  0  0  0  0  0
    8.6071  -15.3031   21.0253 C   0  0  0  0  0  0  0  0  0  0  0  0
    8.6722  -15.9002   22.3925 C   0  0  1  0  0  0  0  0  0  0  0  0
    9.9992  -15.7730   23.0286 C   0  0  0  0  0  0  0  0  0  0  0  0
   10.3658  -14.6663   23.5391 O   0  0  0  0  0  0  0  0  0  0  0  0
   11.1485  -18.2584   25.7125 C   0  0  0  0  0  0  0  0  0  0  0  0
   12.1078  -18.2234   24.5732 C   0  0  1  0  0  0  0  0  0  0  0  0
   11.8159  -19.2619   23.6684 O   0  0  0  0  0  0  0  0  0  0  0  0
   12.0773  -16.9306   23.7905 C   0  0  2  0  0  0  0  0  0  0  0  0
   10.8425  -16.9112   23.0520 N   0  0  0  0  0  0  0  0  0  0  0  0
   13.2039  -16.7824   22.8730 C   0  0  0  0  0  0  0  0  0  0  0  0
   13.0405  -16.9946   21.6496 O   0  0  0  0  0  0  0  0  0  0  0  0
   14.4706  -16.4116   23.2938 O   0  0  0  0  0  0  0  0  0  0  0  0
  2  1  1  6
  3  2  1  0
  4  5  1  0
  4  2  1  0
  5  6  1  1
  5  7  1  0
  7  9  1  0
  8  7  2  0
  9 13  1  0
  9 10  1  0
 10 11  1  0
 11 12  1  0
 13 12  1  0
 13 14  1  1
 14 15  2  0
 14 20  1  0
 17 19  1  0
 17 16  1  1
 18 17  1  0
 19 21  1  0
 19 20  1  6
 21 22  2  0
 21 23  1  0
M  END
$$$$
