LPT.pdb
     RDKit          3D

 23 23  0  0  1  0  0  0  0  0999 V2000
    7.6980  -12.1968   27.6491 C   0  0  0  0  0  0  0  0  0  0  0  0
    6.6994  -13.0980   26.9352 C   0  0  1  0  0  0  0  0  0  0  0  0
    5.8420  -12.2389   26.0584 C   0  0  0  0  0  0  0  0  0  0  0  0
    7.3706  -14.2294   26.2470 C   0  0  0  0  0  0  0  0  0  0  0  0
    6.4374  -15.1742   25.5184 C   0  0  2  0  0  0  0  0  0  0  0  0
    5.6984  -15.9912   26.3953 N   0  0  0  0  0  0  0  0  0  0  0  0
    7.2068  -15.8346   24.4666 C   0  0  0  0  0  0  0  0  0  0  0  0
    7.3921  -17.0945   24.6143 O   0  0  0  0  0  0  0  0  0  0  0  0
    7.7627  -15.2502   23.3210 N   0  0  0  0  0  0  0  0  0  0  0  0
    7.8084  -13.8792   22.8611 C   0  0  0  0  0  0  0  0  0  0  0  0
    7.3041  -14.0717   21.4198 C   0  0  0  0  0  0  0  0  0  0  0  0
    8.2222  -15.1961   20.9852 C   0  0  0  0  0  0  0  0  0  0  0  0
    8.4911  -15.9608   22.2394 C   0  0  1  0  0  0  0  0  0  0  0  0
    9.9134  -15.9585   22.6376 C   0  0  0  0  0  0  0  0  0  0  0  0
   10.4273  -14.9320   23.1871 O   0  0  0  0  0  0  0  0  0  0  0  0
   12.0550  -19.6199   21.9323 C   0  0  0  0  0  0  0  0  0  0  0  0
   12.0058  -18.9025   23.2370 C   0  0  1  0  0  0  0  0  0  0  0  0
   13.1742  -19.1700   23.9758 O   0  0  0  0  0  0  0  0  0  0  0  0
   11.8990  -17.4007   23.1030 C   0  0  2  0  0  0  0  0  0  0  0  0
   10.6797  -17.1243   22.3907 N   0  0  0  0  0  0  0  0  0  0  0  0
   13.0292  -16.8003   22.3993 C   0  0  0  0  0  0  0  0  0  0  0  0
   12.9179  -16.4992   21.1887 O   0  0  0  0  0  0  0  0  0  0  0  0
   14.2435  -16.5408   23.0135 O   0  0  0  0  0  0  0  0  0  0  0  0
  2  1  1  6
  3  2  1  0
  4  5  1  0
  4  2  1  0
  5  6  1  1
  5  7  1  0
  7  9  1  0
  8  7  2  0
  9 13  1  0
  9 10  1  0
 10 11  1  0
 11 12  1  0
 13 12  1  0
 13 14  1  1
 14 15  2  0
 14 20  1  0
 17 19  1  0
 17 16  1  6
 18 17  1  0
 19 21  1  0
 19 20  1  6
 21 22  2  0
 21 23  1  0
M  END
$$$$
