LPT.pdb
     RDKit          3D

 23 23  0  0  1  0  0  0  0  0999 V2000
    6.9667  -11.8431   27.3668 C   0  0  0  0  0  0  0  0  0  0  0  0
    6.2013  -13.0084   26.7542 C   0  0  1  0  0  0  0  0  0  0  0  0
    5.0947  -12.4481   25.9153 C   0  0  0  0  0  0  0  0  0  0  0  0
    7.1052  -13.9557   26.0544 C   0  0  0  0  0  0  0  0  0  0  0  0
    6.4173  -15.1628   25.4509 C   0  0  2  0  0  0  0  0  0  0  0  0
    5.8287  -15.9946   26.4225 N   0  0  0  0  0  0  0  0  0  0  0  0
    7.3482  -15.7788   24.5082 C   0  0  0  0  0  0  0  0  0  0  0  0
    7.6869  -16.9884   24.7640 O   0  0  0  0  0  0  0  0  0  0  0  0
    7.9100  -15.2004   23.3625 N   0  0  0  0  0  0  0  0  0  0  0  0
    7.9387  -13.8351   22.8845 C   0  0  0  0  0  0  0  0  0  0  0  0
    7.4581  -14.0558   21.4391 C   0  0  0  0  0  0  0  0  0  0  0  0
    8.4015  -15.1699   21.0328 C   0  0  0  0  0  0  0  0  0  0  0  0
    8.6657  -15.9127   22.3010 C   0  0  1  0  0  0  0  0  0  0  0  0
   10.0820  -15.8804   22.7189 C   0  0  0  0  0  0  0  0  0  0  0  0
   10.6001  -14.8041   23.1581 O   0  0  0  0  0  0  0  0  0  0  0  0
   11.5661  -17.8113   25.4693 C   0  0  0  0  0  0  0  0  0  0  0  0
   12.1843  -18.2424   24.1843 C   0  0  1  0  0  0  0  0  0  0  0  0
   11.4847  -19.3470   23.6622 O   0  0  0  0  0  0  0  0  0  0  0  0
   12.1829  -17.1712   23.1178 C   0  0  2  0  0  0  0  0  0  0  0  0
   10.8379  -17.0743   22.6160 N   0  0  0  0  0  0  0  0  0  0  0  0
   13.1020  -17.4486   22.0172 C   0  0  0  0  0  0  0  0  0  0  0  0
   12.6543  -17.8650   20.9243 O   0  0  0  0  0  0  0  0  0  0  0  0
   14.4721  -17.2715   22.1209 O   0  0  0  0  0  0  0  0  0  0  0  0
  2  1  1  6
  3  2  1  0
  4  5  1  0
  4  2  1  0
  5  6  1  1
  5  7  1  0
  7  9  1  0
  8  7  2  0
  9 13  1  0
  9 10  1  0
 10 11  1  0
 11 12  1  0
 13 12  1  0
 13 14  1  1
 14 15  2  0
 14 20  1  0
 17 19  1  0
 17 16  1  1
 18 17  1  0
 19 21  1  0
 19 20  1  6
 21 22  2  0
 21 23  1  0
M  END
$$$$
