LPT.pdb
     RDKit          3D

 23 23  0  0  1  0  0  0  0  0999 V2000
    7.8953  -12.0089   27.2681 C   0  0  0  0  0  0  0  0  0  0  0  0
    6.8772  -13.0003   26.7209 C   0  0  1  0  0  0  0  0  0  0  0  0
    5.7544  -12.2226   26.1073 C   0  0  0  0  0  0  0  0  0  0  0  0
    7.5092  -14.0051   25.8292 C   0  0  0  0  0  0  0  0  0  0  0  0
    6.5750  -15.0862   25.3266 C   0  0  2  0  0  0  0  0  0  0  0  0
    6.0074  -15.8419   26.3703 N   0  0  0  0  0  0  0  0  0  0  0  0
    7.2676  -15.8132   24.2653 C   0  0  0  0  0  0  0  0  0  0  0  0
    7.4315  -17.0695   24.4608 O   0  0  0  0  0  0  0  0  0  0  0  0
    7.7709  -15.2957   23.0645 N   0  0  0  0  0  0  0  0  0  0  0  0
    7.7897  -13.9539   22.5235 C   0  0  0  0  0  0  0  0  0  0  0  0
    7.2252  -14.2323   21.1190 C   0  0  0  0  0  0  0  0  0  0  0  0
    8.1298  -15.3778   20.7120 C   0  0  0  0  0  0  0  0  0  0  0  0
    8.4561  -16.0666   21.9962 C   0  0  1  0  0  0  0  0  0  0  0  0
    9.8942  -16.0370   22.3320 C   0  0  0  0  0  0  0  0  0  0  0  0
   10.5852  -14.9904   22.1156 O   0  0  0  0  0  0  0  0  0  0  0  0
   11.1427  -17.4487   25.7931 C   0  0  0  0  0  0  0  0  0  0  0  0
   11.8399  -18.0706   24.6328 C   0  0  1  0  0  0  0  0  0  0  0  0
   11.2254  -19.2939   24.3035 O   0  0  0  0  0  0  0  0  0  0  0  0
   11.8273  -17.2171   23.3854 C   0  0  2  0  0  0  0  0  0  0  0  0
   10.4738  -17.1997   22.8973 N   0  0  0  0  0  0  0  0  0  0  0  0
   12.7230  -17.7056   22.3403 C   0  0  0  0  0  0  0  0  0  0  0  0
   12.2478  -18.2771   21.3323 O   0  0  0  0  0  0  0  0  0  0  0  0
   14.0998  -17.5671   22.4069 O   0  0  0  0  0  0  0  0  0  0  0  0
  2  1  1  6
  3  2  1  0
  4  5  1  0
  4  2  1  0
  5  6  1  1
  5  7  1  0
  7  9  1  0
  8  7  2  0
  9 13  1  0
  9 10  1  0
 10 11  1  0
 11 12  1  0
 13 12  1  0
 13 14  1  1
 14 15  2  0
 14 20  1  0
 17 19  1  0
 17 16  1  1
 18 17  1  0
 19 21  1  0
 19 20  1  6
 21 22  2  0
 21 23  1  0
M  END
$$$$
