LPT.pdb
     RDKit          3D

 23 23  0  0  1  0  0  0  0  0999 V2000
    6.1016  -15.5394   21.7846 C   0  0  0  0  0  0  0  0  0  0  0  0
    7.4933  -14.9221   21.8192 C   0  0  1  0  0  0  0  0  0  0  0  0
    7.3615  -13.4614   21.5173 C   0  0  0  0  0  0  0  0  0  0  0  0
    8.2085  -15.2432   23.0800 C   0  0  0  0  0  0  0  0  0  0  0  0
    9.6409  -14.7546   23.1406 C   0  0  2  0  0  0  0  0  0  0  0  0
   10.3796  -15.0936   21.9908 N   0  0  0  0  0  0  0  0  0  0  0  0
   10.1895  -15.1478   24.4364 C   0  0  0  0  0  0  0  0  0  0  0  0
   11.2269  -15.9001   24.4012 O   0  0  0  0  0  0  0  0  0  0  0  0
    9.7127  -14.7981   25.7065 N   0  0  0  0  0  0  0  0  0  0  0  0
    8.5040  -14.1273   26.1337 C   0  0  0  0  0  0  0  0  0  0  0  0
    9.1132  -13.0588   27.0589 C   0  0  0  0  0  0  0  0  0  0  0  0
    9.9975  -13.9459   27.9116 C   0  0  0  0  0  0  0  0  0  0  0  0
   10.3905  -15.0624   27.0011 C   0  0  1  0  0  0  0  0  0  0  0  0
    9.9098  -16.3852   27.4492 C   0  0  0  0  0  0  0  0  0  0  0  0
    8.6696  -16.6681   27.4083 O   0  0  0  0  0  0  0  0  0  0  0  0
   11.1923  -19.3660   25.8590 C   0  0  0  0  0  0  0  0  0  0  0  0
   11.4162  -19.5494   27.3204 C   0  0  1  0  0  0  0  0  0  0  0  0
   12.7460  -19.2212   27.6467 O   0  0  0  0  0  0  0  0  0  0  0  0
   10.5218  -18.6920   28.1862 C   0  0  2  0  0  0  0  0  0  0  0  0
   10.8642  -17.3198   27.9212 N   0  0  0  0  0  0  0  0  0  0  0  0
   10.6595  -18.9688   29.6135 C   0  0  0  0  0  0  0  0  0  0  0  0
   11.2118  -18.1273   30.3588 O   0  0  0  0  0  0  0  0  0  0  0  0
   10.2017  -20.1380   30.1989 O   0  0  0  0  0  0  0  0  0  0  0  0
  2  1  1  1
  3  2  1  0
  4  5  1  0
  4  2  1  0
  5  6  1  6
  5  7  1  0
  7  9  1  0
  8  7  2  0
  9 13  1  0
  9 10  1  0
 10 11  1  0
 11 12  1  0
 13 12  1  0
 13 14  1  1
 14 15  2  0
 14 20  1  0
 17 19  1  0
 17 16  1  6
 18 17  1  0
 19 21  1  0
 19 20  1  1
 21 22  2  0
 21 23  1  0
M  END
$$$$
