LPT.pdb
     RDKit          3D

 23 23  0  0  1  0  0  0  0  0999 V2000
    7.1118  -11.8826   27.2556 C   0  0  0  0  0  0  0  0  0  0  0  0
    6.3468  -13.0905   26.7315 C   0  0  1  0  0  0  0  0  0  0  0  0
    5.1065  -12.5967   26.0531 C   0  0  0  0  0  0  0  0  0  0  0  0
    7.2081  -13.9737   25.9055 C   0  0  0  0  0  0  0  0  0  0  0  0
    6.5378  -15.2422   25.4199 C   0  0  2  0  0  0  0  0  0  0  0  0
    6.0836  -16.0551   26.4761 N   0  0  0  0  0  0  0  0  0  0  0  0
    7.4149  -15.8547   24.4249 C   0  0  0  0  0  0  0  0  0  0  0  0
    7.6890  -17.0938   24.6059 O   0  0  0  0  0  0  0  0  0  0  0  0
    7.9877  -15.2446   23.3013 N   0  0  0  0  0  0  0  0  0  0  0  0
    8.0865  -13.8580   22.9000 C   0  0  0  0  0  0  0  0  0  0  0  0
    7.5669  -13.9680   21.4555 C   0  0  0  0  0  0  0  0  0  0  0  0
    8.4364  -15.1088   20.9667 C   0  0  0  0  0  0  0  0  0  0  0  0
    8.6808  -15.9368   22.1852 C   0  0  1  0  0  0  0  0  0  0  0  0
   10.1042  -16.0089   22.5730 C   0  0  0  0  0  0  0  0  0  0  0  0
   10.6650  -15.0245   23.1528 O   0  0  0  0  0  0  0  0  0  0  0  0
   11.4792  -18.4987   24.9292 C   0  0  0  0  0  0  0  0  0  0  0  0
   12.1250  -18.6786   23.5988 C   0  0  1  0  0  0  0  0  0  0  0  0
   11.4305  -19.6527   22.8564 O   0  0  0  0  0  0  0  0  0  0  0  0
   12.1562  -17.4206   22.7615 C   0  0  2  0  0  0  0  0  0  0  0  0
   10.8182  -17.1974   22.2816 N   0  0  0  0  0  0  0  0  0  0  0  0
   13.0793  -17.4992   21.6325 C   0  0  0  0  0  0  0  0  0  0  0  0
   12.6402  -17.7559   20.4881 O   0  0  0  0  0  0  0  0  0  0  0  0
   14.4441  -17.3004   21.7638 O   0  0  0  0  0  0  0  0  0  0  0  0
  2  1  1  6
  3  2  1  0
  4  5  1  0
  4  2  1  0
  5  6  1  1
  5  7  1  0
  7  9  1  0
  8  7  2  0
  9 13  1  0
  9 10  1  0
 10 11  1  0
 11 12  1  0
 13 12  1  0
 13 14  1  1
 14 15  2  0
 14 20  1  0
 17 19  1  0
 17 16  1  1
 18 17  1  0
 19 21  1  0
 19 20  1  6
 21 22  2  0
 21 23  1  0
M  END
$$$$
