LPT.pdb
     RDKit          3D

 23 23  0  0  1  0  0  0  0  0999 V2000
    7.4401  -11.7979   27.4771 C   0  0  0  0  0  0  0  0  0  0  0  0
    6.5195  -12.8077   26.8049 C   0  0  1  0  0  0  0  0  0  0  0  0
    5.3585  -12.0627   26.2226 C   0  0  0  0  0  0  0  0  0  0  0  0
    7.2547  -13.6750   25.8502 C   0  0  0  0  0  0  0  0  0  0  0  0
    6.4898  -14.8953   25.3810 C   0  0  2  0  0  0  0  0  0  0  0  0
    5.9075  -15.6130   26.4432 N   0  0  0  0  0  0  0  0  0  0  0  0
    7.3519  -15.6324   24.4599 C   0  0  0  0  0  0  0  0  0  0  0  0
    7.6061  -16.8472   24.7805 O   0  0  0  0  0  0  0  0  0  0  0  0
    7.9296  -15.1643   23.2725 N   0  0  0  0  0  0  0  0  0  0  0  0
    7.9562  -13.8526   22.6626 C   0  0  0  0  0  0  0  0  0  0  0  0
    7.5033  -14.2192   21.2381 C   0  0  0  0  0  0  0  0  0  0  0  0
    8.4625  -15.3588   20.9599 C   0  0  0  0  0  0  0  0  0  0  0  0
    8.7097  -15.9705   22.2995 C   0  0  1  0  0  0  0  0  0  0  0  0
   10.1181  -15.8837   22.7362 C   0  0  0  0  0  0  0  0  0  0  0  0
   10.6245  -14.7619   23.0600 O   0  0  0  0  0  0  0  0  0  0  0  0
   11.3747  -18.0973   25.5665 C   0  0  0  0  0  0  0  0  0  0  0  0
   12.1866  -18.3091   24.3356 C   0  0  1  0  0  0  0  0  0  0  0  0
   11.6904  -19.4142   23.6180 O   0  0  0  0  0  0  0  0  0  0  0  0
   12.1821  -17.1282   23.3920 C   0  0  2  0  0  0  0  0  0  0  0  0
   10.8796  -17.0775   22.7827 N   0  0  0  0  0  0  0  0  0  0  0  0
   13.2089  -17.2103   22.3566 C   0  0  0  0  0  0  0  0  0  0  0  0
   12.8890  -17.5296   21.1887 O   0  0  0  0  0  0  0  0  0  0  0  0
   14.5465  -16.9480   22.6039 O   0  0  0  0  0  0  0  0  0  0  0  0
  2  1  1  6
  3  2  1  0
  4  5  1  0
  4  2  1  0
  5  6  1  1
  5  7  1  0
  7  9  1  0
  8  7  2  0
  9 13  1  0
  9 10  1  0
 10 11  1  0
 11 12  1  0
 13 12  1  0
 13 14  1  1
 14 15  2  0
 14 20  1  0
 17 19  1  0
 17 16  1  1
 18 17  1  0
 19 21  1  0
 19 20  1  6
 21 22  2  0
 21 23  1  0
M  END
$$$$
