LPT.pdb
     RDKit          3D

 23 23  0  0  1  0  0  0  0  0999 V2000
    6.4004  -12.1129   25.3552 C   0  0  0  0  0  0  0  0  0  0  0  0
    7.2036  -13.1573   26.1188 C   0  0  1  0  0  0  0  0  0  0  0  0
    7.9998  -12.4522   27.1729 C   0  0  0  0  0  0  0  0  0  0  0  0
    6.3440  -14.2627   26.6120 C   0  0  0  0  0  0  0  0  0  0  0  0
    5.8882  -15.2378   25.5464 C   0  0  2  0  0  0  0  0  0  0  0  0
    5.0154  -16.2221   26.0484 N   0  0  0  0  0  0  0  0  0  0  0  0
    7.0740  -15.6915   24.8235 C   0  0  0  0  0  0  0  0  0  0  0  0
    7.6611  -16.7257   25.3022 O   0  0  0  0  0  0  0  0  0  0  0  0
    7.6397  -15.1272   23.6727 N   0  0  0  0  0  0  0  0  0  0  0  0
    7.5636  -13.7955   23.1122 C   0  0  0  0  0  0  0  0  0  0  0  0
    7.1862  -14.1454   21.6617 C   0  0  0  0  0  0  0  0  0  0  0  0
    8.2528  -15.1822   21.3724 C   0  0  0  0  0  0  0  0  0  0  0  0
    8.5171  -15.8211   22.6960 C   0  0  1  0  0  0  0  0  0  0  0  0
    9.8989  -15.6249   23.1797 C   0  0  0  0  0  0  0  0  0  0  0  0
   10.2587  -14.5051   23.6658 O   0  0  0  0  0  0  0  0  0  0  0  0
   11.3613  -17.7882   25.8243 C   0  0  0  0  0  0  0  0  0  0  0  0
   12.2063  -17.8829   24.6010 C   0  0  1  0  0  0  0  0  0  0  0  0
   11.8249  -19.0047   23.8403 O   0  0  0  0  0  0  0  0  0  0  0  0
   12.1049  -16.6768   23.6955 C   0  0  2  0  0  0  0  0  0  0  0  0
   10.8019  -16.7125   23.0861 N   0  0  0  0  0  0  0  0  0  0  0  0
   13.1339  -16.6422   22.6597 C   0  0  0  0  0  0  0  0  0  0  0  0
   12.8415  -16.9564   21.4832 O   0  0  0  0  0  0  0  0  0  0  0  0
   14.4441  -16.2722   22.9156 O   0  0  0  0  0  0  0  0  0  0  0  0
  2  1  1  1
  3  2  1  0
  4  5  1  0
  4  2  1  0
  5  6  1  1
  5  7  1  0
  7  9  1  0
  8  7  2  0
  9 13  1  0
  9 10  1  0
 10 11  1  0
 11 12  1  0
 13 12  1  0
 13 14  1  1
 14 15  2  0
 14 20  1  0
 17 19  1  0
 17 16  1  1
 18 17  1  0
 19 21  1  0
 19 20  1  6
 21 22  2  0
 21 23  1  0
M  END
$$$$
