LPT.pdb
     RDKit          3D

 23 23  0  0  1  0  0  0  0  0999 V2000
    6.5141  -12.4942   25.8192 C   0  0  0  0  0  0  0  0  0  0  0  0
    7.4810  -13.6137   26.1810 C   0  0  1  0  0  0  0  0  0  0  0  0
    8.5192  -13.0517   27.1021 C   0  0  0  0  0  0  0  0  0  0  0  0
    6.7705  -14.8141   26.6893 C   0  0  0  0  0  0  0  0  0  0  0  0
    6.1553  -15.6903   25.6178 C   0  0  2  0  0  0  0  0  0  0  0  0
    5.3954  -16.7486   26.1518 N   0  0  0  0  0  0  0  0  0  0  0  0
    7.2079  -16.0288   24.6629 C   0  0  0  0  0  0  0  0  0  0  0  0
    7.8179  -17.1371   24.8703 O   0  0  0  0  0  0  0  0  0  0  0  0
    7.6245  -15.2834   23.5522 N   0  0  0  0  0  0  0  0  0  0  0  0
    7.3843  -13.9101   23.1652 C   0  0  0  0  0  0  0  0  0  0  0  0
    6.9213  -14.1265   21.7135 C   0  0  0  0  0  0  0  0  0  0  0  0
    8.0484  -15.0135   21.2246 C   0  0  0  0  0  0  0  0  0  0  0  0
    8.4766  -15.7712   22.4381 C   0  0  1  0  0  0  0  0  0  0  0  0
    9.8706  -15.4972   22.8426 C   0  0  0  0  0  0  0  0  0  0  0  0
   10.2533  -14.3048   23.0698 O   0  0  0  0  0  0  0  0  0  0  0  0
   11.3860  -17.1609   25.8120 C   0  0  0  0  0  0  0  0  0  0  0  0
   12.2309  -17.4541   24.6205 C   0  0  1  0  0  0  0  0  0  0  0  0
   11.8874  -18.7107   24.0864 O   0  0  0  0  0  0  0  0  0  0  0  0
   12.0851  -16.4429   23.5065 C   0  0  2  0  0  0  0  0  0  0  0  0
   10.7592  -16.5935   22.9682 N   0  0  0  0  0  0  0  0  0  0  0  0
   13.0718  -16.6073   22.4424 C   0  0  0  0  0  0  0  0  0  0  0  0
   14.2286  -16.1515   22.5923 O   0  0  0  0  0  0  0  0  0  0  0  0
   12.7894  -17.2548   21.2506 O   0  0  0  0  0  0  0  0  0  0  0  0
  2  1  1  1
  3  2  1  0
  4  5  1  0
  4  2  1  0
  5  6  1  1
  5  7  1  0
  7  9  1  0
  8  7  2  0
  9 13  1  0
  9 10  1  0
 10 11  1  0
 11 12  1  0
 13 12  1  0
 13 14  1  1
 14 15  2  0
 14 20  1  0
 17 19  1  0
 17 16  1  1
 18 17  1  0
 19 21  1  0
 19 20  1  6
 21 22  2  0
 21 23  1  0
M  END
$$$$
