LPT.pdb
     RDKit          3D

 23 23  0  0  1  0  0  0  0  0999 V2000
    5.3855  -15.2141   21.7364 C   0  0  0  0  0  0  0  0  0  0  0  0
    6.8853  -15.4465   21.6112 C   0  0  1  0  0  0  0  0  0  0  0  0
    7.0989  -16.8354   21.0940 C   0  0  0  0  0  0  0  0  0  0  0  0
    7.5468  -14.3732   20.8273 C   0  0  0  0  0  0  0  0  0  0  0  0
    7.8508  -13.1111   21.6076 C   0  0  2  0  0  0  0  0  0  0  0  0
    8.5955  -12.1776   20.8617 N   0  0  0  0  0  0  0  0  0  0  0  0
    8.3788  -13.5108   22.9099 C   0  0  0  0  0  0  0  0  0  0  0  0
    9.6211  -13.8257   22.9387 O   0  0  0  0  0  0  0  0  0  0  0  0
    7.6849  -13.5891   24.1246 N   0  0  0  0  0  0  0  0  0  0  0  0
    6.2767  -13.4882   24.4409 C   0  0  0  0  0  0  0  0  0  0  0  0
    6.3397  -12.4544   25.5794 C   0  0  0  0  0  0  0  0  0  0  0  0
    7.4094  -13.0981   26.4382 C   0  0  0  0  0  0  0  0  0  0  0  0
    8.2845  -13.8159   25.4641 C   0  0  1  0  0  0  0  0  0  0  0  0
    8.3048  -15.2801   25.6578 C   0  0  0  0  0  0  0  0  0  0  0  0
    7.2545  -15.9710   25.4599 O   0  0  0  0  0  0  0  0  0  0  0  0
   11.0397  -19.2471   25.5094 C   0  0  0  0  0  0  0  0  0  0  0  0
   10.7719  -17.7861   25.3949 C   0  0  1  0  0  0  0  0  0  0  0  0
   10.4402  -17.4620   24.0655 O   0  0  0  0  0  0  0  0  0  0  0  0
    9.6346  -17.3049   26.2665 C   0  0  2  0  0  0  0  0  0  0  0  0
    9.5190  -15.8846   26.0668 N   0  0  0  0  0  0  0  0  0  0  0  0
    9.8318  -17.5898   27.6853 C   0  0  0  0  0  0  0  0  0  0  0  0
   10.3307  -16.7158   28.4307 O   0  0  0  0  0  0  0  0  0  0  0  0
    9.4887  -18.8017   28.2621 O   0  0  0  0  0  0  0  0  0  0  0  0
  2  1  1  6
  3  2  1  0
  4  5  1  0
  4  2  1  0
  5  6  1  6
  5  7  1  0
  7  9  1  0
  8  7  2  0
  9 13  1  0
  9 10  1  0
 10 11  1  0
 11 12  1  0
 13 12  1  0
 13 14  1  1
 14 15  2  0
 14 20  1  0
 17 19  1  0
 17 16  1  6
 18 17  1  0
 19 21  1  0
 19 20  1  1
 21 22  2  0
 21 23  1  0
M  END
$$$$
