RWA.pdb
     RDKit          3D

 31 32  0  0  1  0  0  0  0  0999 V2000
    9.1404  -14.9520   14.7282 N   0  0  0  0  0  0  0  0  0  0  0  0
    7.9998  -14.2853   15.2716 C   0  0  0  0  0  0  0  0  0  0  0  0
    7.4569  -13.3475   14.5740 N   0  0  0  0  0  0  0  0  0  0  0  0
    7.5065  -14.6644   16.5399 N   0  0  0  0  0  0  0  0  0  0  0  0
    8.1228  -15.7195   17.2651 C   0  0  0  0  0  0  0  0  0  0  0  0
    8.5704  -15.4489   18.6492 C   0  0  0  0  0  0  0  0  0  0  0  0
    7.7287  -15.9131   19.7686 C   0  0  0  0  0  0  0  0  0  0  0  0
    7.4479  -14.8785   20.8042 C   0  0  2  0  0  0  0  0  0  0  0  0
    7.5912  -13.5780   20.1829 N   0  0  0  0  0  0  0  0  0  0  0  0
    8.4818  -14.9618   21.8941 C   0  0  0  0  0  0  0  0  0  0  0  0
    9.5284  -14.2871   21.8058 O   0  0  0  0  0  0  0  0  0  0  0  0
    6.6217  -12.8220   14.8983 N   0  0  0  0  0  0  0  0  0  0  0  0
    8.2546  -15.7978   22.9970 C   0  0  1  0  0  0  0  0  0  0  0  0
    9.1914  -15.8331   24.0780 C   0  0  0  0  0  0  0  0  0  0  0  0
    8.4510  -16.1296   25.3908 C   0  0  0  0  0  0  0  0  0  0  0  0
    7.3440  -15.1530   25.5679 C   0  0  0  0  0  0  0  0  0  0  0  0
    5.9953  -15.3809   25.4416 N   0  0  0  0  0  0  0  0  0  0  0  0
    5.3683  -14.2278   25.6832 C   0  0  0  0  0  0  0  0  0  0  0  0
    6.2789  -13.2649   25.9612 C   0  0  0  0  0  0  0  0  0  0  0  0
    6.1488  -11.9175   26.2754 C   0  0  0  0  0  0  0  0  0  0  0  0
    7.2672  -11.1687   26.5135 C   0  0  0  0  0  0  0  0  0  0  0  0
    8.5388  -11.7349   26.4466 C   0  0  0  0  0  0  0  0  0  0  0  0
    8.6632  -13.0704   26.1349 C   0  0  0  0  0  0  0  0  0  0  0  0
    7.5300  -13.8351   25.8921 C   0  0  0  0  0  0  0  0  0  0  0  0
   10.2710  -16.8351   23.8608 O   0  0  0  0  0  0  0  0  0  0  0  0
   10.0268  -18.0215   23.5234 C   0  0  0  0  0  0  0  0  0  0  0  0
   13.9525  -16.7057   23.4579 C   0  0  2  0  0  0  0  0  0  0  0  0
   12.6922  -17.4973   23.8252 N   0  0  0  0  0  0  0  0  0  0  0  0
   11.6528  -16.5082   24.0230 C   0  0  0  0  0  0  0  0  0  0  0  0
   12.9925  -18.2645   25.0348 O   0  0  0  0  0  0  0  0  0  0  0  0
   13.9662  -19.2474   25.0113 O   0  0  0  0  0  0  0  0  0  0  0  0
  2  1  1  0
  3  2  2  0
  4  2  1  0
  5  4  1  0
  6  5  1  0
  7  6  1  0
  8 10  1  0
  8  7  1  0
  8  9  1  6
 10 11  2  0
 12 13  1  0
 12 10  1  0
 13 14  1  6
 15 16  2  0
 15 14  1  0
 17 16  1  0
 18 23  2  0
 18 17  1  0
 19 18  1  0
 20 21  1  0
 20 19  2  0
 21 22  2  0
 22 23  1  0
 23 15  1  0
 24 28  1  0
 24 13  1  0
 25 24  2  0
 27 26  1  6
 27 29  1  0
 27 28  1  0
 29 30  1  0
 31 29  2  0
M  END
$$$$
