RWA.pdb
     RDKit          3D

 31 32  0  0  1  0  0  0  0  0999 V2000
    8.0935  -12.3763   17.5260 N   0  0  0  0  0  0  0  0  0  0  0  0
    7.9366  -13.6186   16.8383 C   0  0  0  0  0  0  0  0  0  0  0  0
    8.2572  -13.6651   15.5910 N   0  0  0  0  0  0  0  0  0  0  0  0
    7.4402  -14.7443   17.5324 N   0  0  0  0  0  0  0  0  0  0  0  0
    7.4863  -14.7919   18.9518 C   0  0  0  0  0  0  0  0  0  0  0  0
    8.8012  -14.6462   19.6143 C   0  0  0  0  0  0  0  0  0  0  0  0
    8.8650  -14.7284   21.0861 C   0  0  0  0  0  0  0  0  0  0  0  0
    9.4763  -15.9823   21.6114 C   0  0  2  0  0  0  0  0  0  0  0  0
    8.5515  -17.0675   21.3572 N   0  0  0  0  0  0  0  0  0  0  0  0
    9.6346  -15.8796   23.1042 C   0  0  0  0  0  0  0  0  0  0  0  0
   10.2275  -14.8977   23.5966 O   0  0  0  0  0  0  0  0  0  0  0  0
    8.2851  -14.5539   15.0541 N   0  0  0  0  0  0  0  0  0  0  0  0
    9.1119  -16.8907   23.9236 C   0  0  1  0  0  0  0  0  0  0  0  0
    9.2939  -16.8334   25.3417 C   0  0  0  0  0  0  0  0  0  0  0  0
    7.9238  -16.7986   26.0352 C   0  0  0  0  0  0  0  0  0  0  0  0
    7.1896  -15.5732   25.6226 C   0  0  0  0  0  0  0  0  0  0  0  0
    6.1682  -15.4740   24.7096 N   0  0  0  0  0  0  0  0  0  0  0  0
    5.8081  -14.1905   24.6468 C   0  0  0  0  0  0  0  0  0  0  0  0
    6.5716  -13.4623   25.4956 C   0  0  0  0  0  0  0  0  0  0  0  0
    6.5981  -12.1068   25.8008 C   0  0  0  0  0  0  0  0  0  0  0  0
    7.4962  -11.6388   26.7187 C   0  0  0  0  0  0  0  0  0  0  0  0
    8.3879  -12.5000   27.3554 C   0  0  0  0  0  0  0  0  0  0  0  0
    8.3583  -13.8424   27.0501 C   0  0  0  0  0  0  0  0  0  0  0  0
    7.4478  -14.3225   26.1181 C   0  0  0  0  0  0  0  0  0  0  0  0
   10.1004  -17.9740   25.8568 O   0  0  0  0  0  0  0  0  0  0  0  0
    9.7009  -19.1641   25.7854 C   0  0  0  0  0  0  0  0  0  0  0  0
   13.5557  -18.3783   27.2132 C   0  0  2  0  0  0  0  0  0  0  0  0
   12.1258  -18.8956   27.0189 N   0  0  0  0  0  0  0  0  0  0  0  0
   11.3798  -17.7846   26.4650 C   0  0  0  0  0  0  0  0  0  0  0  0
   11.6318  -19.3230   28.3285 O   0  0  0  0  0  0  0  0  0  0  0  0
   12.2278  -20.3861   28.9837 O   0  0  0  0  0  0  0  0  0  0  0  0
  2  1  1  0
  3  2  2  0
  4  2  1  0
  5  4  1  0
  6  5  1  0
  7  6  1  0
  8 10  1  0
  8  7  1  0
  8  9  1  1
 10 11  2  0
 12 13  1  0
 12 10  1  0
 13 14  1  1
 15 16  2  0
 15 14  1  0
 17 16  1  0
 18 23  2  0
 18 17  1  0
 19 18  1  0
 20 21  1  0
 20 19  2  0
 21 22  2  0
 22 23  1  0
 23 15  1  0
 24 28  1  0
 24 13  1  0
 25 24  2  0
 27 26  1  6
 27 29  1  0
 27 28  1  0
 29 30  1  0
 31 29  2  0
M  END
$$$$
