RWA.pdb
     RDKit          3D

 31 32  0  0  1  0  0  0  0  0999 V2000
    6.8877  -12.9517   16.8725 N   0  0  0  0  0  0  0  0  0  0  0  0
    8.1583  -13.6024   16.8175 C   0  0  0  0  0  0  0  0  0  0  0  0
    8.7364  -13.7064   15.6704 N   0  0  0  0  0  0  0  0  0  0  0  0
    8.7370  -14.1081   18.0028 N   0  0  0  0  0  0  0  0  0  0  0  0
    8.3805  -13.5639   19.2660 C   0  0  0  0  0  0  0  0  0  0  0  0
    7.2488  -14.1755   19.9971 C   0  0  0  0  0  0  0  0  0  0  0  0
    7.3019  -15.6175   20.3052 C   0  0  0  0  0  0  0  0  0  0  0  0
    8.4526  -16.0274   21.1594 C   0  0  2  0  0  0  0  0  0  0  0  0
    8.5612  -17.4702   21.0956 N   0  0  0  0  0  0  0  0  0  0  0  0
    8.1689  -15.6705   22.5933 C   0  0  0  0  0  0  0  0  0  0  0  0
    7.0145  -15.8087   23.0477 O   0  0  0  0  0  0  0  0  0  0  0  0
    9.6672  -14.1519   15.5523 N   0  0  0  0  0  0  0  0  0  0  0  0
    9.2080  -15.1868   23.4015 C   0  0  2  0  0  0  0  0  0  0  0  0
    9.4342  -15.7511   24.6968 C   0  0  0  0  0  0  0  0  0  0  0  0
    8.1177  -16.3199   25.2472 C   0  0  0  0  0  0  0  0  0  0  0  0
    7.1667  -15.2071   25.5079 C   0  0  0  0  0  0  0  0  0  0  0  0
    5.7944  -15.2487   25.4673 N   0  0  0  0  0  0  0  0  0  0  0  0
    5.3460  -14.0270   25.7631 C   0  0  0  0  0  0  0  0  0  0  0  0
    6.3945  -13.2014   25.9926 C   0  0  0  0  0  0  0  0  0  0  0  0
    6.4684  -11.8555   26.3308 C   0  0  0  0  0  0  0  0  0  0  0  0
    7.6908  -11.2691   26.5043 C   0  0  0  0  0  0  0  0  0  0  0  0
    8.8672  -11.9998   26.3476 C   0  0  0  0  0  0  0  0  0  0  0  0
    8.7893  -13.3331   26.0125 C   0  0  0  0  0  0  0  0  0  0  0  0
    7.5499  -13.9332   25.8350 C   0  0  0  0  0  0  0  0  0  0  0  0
   10.4821  -16.8086   24.6799 O   0  0  0  0  0  0  0  0  0  0  0  0
   10.1985  -18.0334   24.6583 C   0  0  0  0  0  0  0  0  0  0  0  0
   14.1399  -16.8521   24.0583 C   0  0  2  0  0  0  0  0  0  0  0  0
   12.8854  -17.5316   24.6190 N   0  0  0  0  0  0  0  0  0  0  0  0
   11.8764  -16.4948   24.6873 C   0  0  0  0  0  0  0  0  0  0  0  0
   13.2328  -18.0821   25.9298 O   0  0  0  0  0  0  0  0  0  0  0  0
   14.2066  -19.0591   26.0380 O   0  0  0  0  0  0  0  0  0  0  0  0
  2  1  1  0
  3  2  2  0
  4  2  1  0
  5  4  1  0
  6  5  1  0
  7  6  1  0
  8 10  1  0
  8  7  1  0
  8  9  1  1
 10 11  2  0
 12 13  1  0
 12 10  1  0
 13 14  1  1
 15 16  2  0
 15 14  1  0
 17 16  1  0
 18 23  2  0
 18 17  1  0
 19 18  1  0
 20 21  1  0
 20 19  2  0
 21 22  2  0
 22 23  1  0
 23 15  1  0
 24 28  1  0
 24 13  1  0
 25 24  2  0
 27 26  1  6
 27 29  1  0
 27 28  1  0
 29 30  1  0
 31 29  2  0
M  END
$$$$
