RWA.pdb
     RDKit          3D

 31 32  0  0  1  0  0  0  0  0999 V2000
    6.5713  -14.3663   16.8627 N   0  0  0  0  0  0  0  0  0  0  0  0
    7.7764  -13.6066   16.9678 C   0  0  0  0  0  0  0  0  0  0  0  0
    8.4206  -13.3397   15.8840 N   0  0  0  0  0  0  0  0  0  0  0  0
    8.2239  -13.1768   18.2369 N   0  0  0  0  0  0  0  0  0  0  0  0
    8.8075  -14.1012   19.1446 C   0  0  0  0  0  0  0  0  0  0  0  0
    7.9524  -15.1761   19.6948 C   0  0  0  0  0  0  0  0  0  0  0  0
    7.9265  -15.3819   21.1556 C   0  0  0  0  0  0  0  0  0  0  0  0
    8.8762  -16.4174   21.6532 C   0  0  2  0  0  0  0  0  0  0  0  0
    8.1097  -17.6015   21.9820 N   0  0  0  0  0  0  0  0  0  0  0  0
    9.5194  -15.9416   22.9275 C   0  0  0  0  0  0  0  0  0  0  0  0
   10.2871  -14.9577   22.9022 O   0  0  0  0  0  0  0  0  0  0  0  0
    9.2643  -12.7340   15.8703 N   0  0  0  0  0  0  0  0  0  0  0  0
    9.2462  -16.6115   24.1289 C   0  0  1  0  0  0  0  0  0  0  0  0
    9.9229  -16.2353   25.3323 C   0  0  0  0  0  0  0  0  0  0  0  0
    8.9317  -16.2484   26.5056 C   0  0  0  0  0  0  0  0  0  0  0  0
    7.7247  -15.4587   26.1445 C   0  0  0  0  0  0  0  0  0  0  0  0
    6.5120  -15.9320   25.7062 N   0  0  0  0  0  0  0  0  0  0  0  0
    5.7204  -14.8780   25.4978 C   0  0  0  0  0  0  0  0  0  0  0  0
    6.3928  -13.7397   25.7907 C   0  0  0  0  0  0  0  0  0  0  0  0
    6.0282  -12.3995   25.7432 C   0  0  0  0  0  0  0  0  0  0  0  0
    6.9325  -11.4405   26.1045 C   0  0  0  0  0  0  0  0  0  0  0  0
    8.2173  -11.7846   26.5209 C   0  0  0  0  0  0  0  0  0  0  0  0
    8.5744  -13.1137   26.5664 C   0  0  0  0  0  0  0  0  0  0  0  0
    7.6592  -14.0915   26.2002 C   0  0  0  0  0  0  0  0  0  0  0  0
   11.0828  -17.1196   25.6312 O   0  0  0  0  0  0  0  0  0  0  0  0
   11.6712  -17.1012   26.7423 C   0  0  0  0  0  0  0  0  0  0  0  0
   12.8151  -19.9018   23.8244 C   0  0  2  0  0  0  0  0  0  0  0  0
   12.7417  -18.8831   24.9676 N   0  0  0  0  0  0  0  0  0  0  0  0
   11.5985  -18.0446   24.6715 C   0  0  0  0  0  0  0  0  0  0  0  0
   14.0062  -18.1463   24.9809 O   0  0  0  0  0  0  0  0  0  0  0  0
   15.1682  -18.7664   25.4048 O   0  0  0  0  0  0  0  0  0  0  0  0
  2  1  1  0
  3  2  2  0
  4  2  1  0
  5  4  1  0
  6  5  1  0
  7  6  1  0
  8 10  1  0
  8  7  1  0
  8  9  1  1
 10 11  2  0
 12 13  1  0
 12 10  1  0
 13 14  1  1
 15 16  2  0
 15 14  1  0
 17 16  1  0
 18 23  2  0
 18 17  1  0
 19 18  1  0
 20 21  1  0
 20 19  2  0
 21 22  2  0
 22 23  1  0
 23 15  1  0
 24 28  1  0
 24 13  1  0
 25 24  2  0
 27 26  1  1
 27 29  1  0
 27 28  1  0
 29 30  1  0
 31 29  2  0
M  END
$$$$
