RWA.pdb
     RDKit          3D

 31 32  0  0  1  0  0  0  0  0999 V2000
    8.1371  -12.1685   16.3939 N   0  0  0  0  0  0  0  0  0  0  0  0
    8.2292  -13.4103   17.0939 C   0  0  0  0  0  0  0  0  0  0  0  0
    8.3114  -14.4926   16.3992 N   0  0  0  0  0  0  0  0  0  0  0  0
    8.2256  -13.4188   18.5065 N   0  0  0  0  0  0  0  0  0  0  0  0
    8.2500  -14.6484   19.2183 C   0  0  0  0  0  0  0  0  0  0  0  0
    9.5587  -15.3020   19.4409 C   0  0  0  0  0  0  0  0  0  0  0  0
   10.2183  -15.1371   20.7504 C   0  0  0  0  0  0  0  0  0  0  0  0
   10.4643  -16.4101   21.4858 C   0  0  2  0  0  0  0  0  0  0  0  0
    9.3284  -17.2798   21.2601 N   0  0  0  0  0  0  0  0  0  0  0  0
   10.5216  -16.1358   22.9641 C   0  0  0  0  0  0  0  0  0  0  0  0
   11.4095  -15.3857   23.4194 O   0  0  0  0  0  0  0  0  0  0  0  0
    8.4080  -15.4304   16.8352 N   0  0  0  0  0  0  0  0  0  0  0  0
    9.5742  -16.7278   23.8119 C   0  0  1  0  0  0  0  0  0  0  0  0
    9.4220  -16.2628   25.1565 C   0  0  0  0  0  0  0  0  0  0  0  0
    7.9397  -16.3181   25.5554 C   0  0  0  0  0  0  0  0  0  0  0  0
    7.2247  -15.1526   24.9714 C   0  0  0  0  0  0  0  0  0  0  0  0
    6.6221  -15.0684   23.7399 N   0  0  0  0  0  0  0  0  0  0  0  0
    6.1065  -13.8426   23.6274 C   0  0  0  0  0  0  0  0  0  0  0  0
    6.3620  -13.1369   24.7545 C   0  0  0  0  0  0  0  0  0  0  0  0
    6.0479  -11.8381   25.1361 C   0  0  0  0  0  0  0  0  0  0  0  0
    6.4429  -11.3803   26.3619 C   0  0  0  0  0  0  0  0  0  0  0  0
    7.1569  -12.1959   27.2378 C   0  0  0  0  0  0  0  0  0  0  0  0
    7.4661  -13.4821   26.8557 C   0  0  0  0  0  0  0  0  0  0  0  0
    7.0671  -13.9517   25.6114 C   0  0  0  0  0  0  0  0  0  0  0  0
   10.2424  -17.0433   26.1231 O   0  0  0  0  0  0  0  0  0  0  0  0
   10.4865  -18.2662   25.9613 C   0  0  0  0  0  0  0  0  0  0  0  0
   11.9951  -16.2430   29.3410 C   0  0  2  0  0  0  0  0  0  0  0  0
   11.5546  -17.2312   28.2551 N   0  0  0  0  0  0  0  0  0  0  0  0
   10.8031  -16.4487   27.2956 C   0  0  0  0  0  0  0  0  0  0  0  0
   10.7519  -18.2683   28.9047 O   0  0  0  0  0  0  0  0  0  0  0  0
   11.3413  -19.1488   29.7946 O   0  0  0  0  0  0  0  0  0  0  0  0
  2  1  1  0
  3  2  2  0
  4  2  1  0
  5  4  1  0
  6  5  1  0
  7  6  1  0
  8 10  1  0
  8  7  1  0
  8  9  1  1
 10 11  2  0
 12 13  1  0
 12 10  1  0
 13 14  1  1
 15 16  2  0
 15 14  1  0
 17 16  1  0
 18 23  2  0
 18 17  1  0
 19 18  1  0
 20 21  1  0
 20 19  2  0
 21 22  2  0
 22 23  1  0
 23 15  1  0
 24 28  1  0
 24 13  1  0
 25 24  2  0
 27 26  1  6
 27 29  1  0
 27 28  1  0
 29 30  1  0
 31 29  2  0
M  END
$$$$
