RWA.pdb
     RDKit          3D

 31 32  0  0  1  0  0  0  0  0999 V2000
    8.3912  -14.6849   17.4210 N   0  0  0  0  0  0  0  0  0  0  0  0
    8.0970  -13.4704   18.1131 C   0  0  0  0  0  0  0  0  0  0  0  0
    8.5027  -12.3633   17.5930 N   0  0  0  0  0  0  0  0  0  0  0  0
    7.3823  -13.5148   19.3308 N   0  0  0  0  0  0  0  0  0  0  0  0
    6.9147  -14.7540   19.8454 C   0  0  0  0  0  0  0  0  0  0  0  0
    7.8987  -15.6725   20.4595 C   0  0  0  0  0  0  0  0  0  0  0  0
    8.6780  -15.2013   21.6204 C   0  0  0  0  0  0  0  0  0  0  0  0
    9.6325  -16.2031   22.1747 C   0  0  2  0  0  0  0  0  0  0  0  0
    9.0015  -17.5048   22.1029 N   0  0  0  0  0  0  0  0  0  0  0  0
    9.8792  -15.9134   23.6305 C   0  0  0  0  0  0  0  0  0  0  0  0
   10.4915  -14.8765   23.9590 O   0  0  0  0  0  0  0  0  0  0  0  0
    8.2374  -11.4354   17.9770 N   0  0  0  0  0  0  0  0  0  0  0  0
    9.4161  -16.8144   24.6003 C   0  0  1  0  0  0  0  0  0  0  0  0
    9.6685  -16.5707   25.9875 C   0  0  0  0  0  0  0  0  0  0  0  0
    8.3542  -16.6751   26.7756 C   0  0  0  0  0  0  0  0  0  0  0  0
    7.3908  -15.6611   26.2708 C   0  0  0  0  0  0  0  0  0  0  0  0
    6.2442  -15.8799   25.5470 N   0  0  0  0  0  0  0  0  0  0  0  0
    5.6888  -14.6909   25.3042 C   0  0  0  0  0  0  0  0  0  0  0  0
    6.4488  -13.7138   25.8531 C   0  0  0  0  0  0  0  0  0  0  0  0
    6.3141  -12.3311   25.8850 C   0  0  0  0  0  0  0  0  0  0  0  0
    7.2552  -11.5757   26.5270 C   0  0  0  0  0  0  0  0  0  0  0  0
    8.3501  -12.1701   27.1516 C   0  0  0  0  0  0  0  0  0  0  0  0
    8.4796  -13.5405   27.1174 C   0  0  0  0  0  0  0  0  0  0  0  0
    7.5263  -14.3121   26.4665 C   0  0  0  0  0  0  0  0  0  0  0  0
   10.6807  -17.5048   26.5528 O   0  0  0  0  0  0  0  0  0  0  0  0
   10.8280  -18.6760   26.1198 C   0  0  0  0  0  0  0  0  0  0  0  0
   13.2771  -17.2819   29.2463 C   0  0  2  0  0  0  0  0  0  0  0  0
   12.3993  -18.0925   28.2858 N   0  0  0  0  0  0  0  0  0  0  0  0
   11.5477  -17.1258   27.6240 C   0  0  0  0  0  0  0  0  0  0  0  0
   11.6519  -19.0627   29.0870 O   0  0  0  0  0  0  0  0  0  0  0  0
   10.2846  -18.9253   29.2486 O   0  0  0  0  0  0  0  0  0  0  0  0
  2  1  1  0
  3  2  2  0
  4  2  1  0
  5  4  1  0
  6  5  1  0
  7  6  1  0
  8 10  1  0
  8  7  1  0
  8  9  1  1
 10 11  2  0
 12 13  1  0
 12 10  1  0
 13 14  1  1
 15 16  2  0
 15 14  1  0
 17 16  1  0
 18 23  2  0
 18 17  1  0
 19 18  1  0
 20 21  1  0
 20 19  2  0
 21 22  2  0
 22 23  1  0
 23 15  1  0
 24 28  1  0
 24 13  1  0
 25 24  2  0
 27 26  1  6
 27 29  1  0
 27 28  1  0
 29 30  1  0
 31 29  2  0
M  END
$$$$
