RWA.pdb
     RDKit          3D

 31 32  0  0  1  0  0  0  0  0999 V2000
    8.0493  -12.4613   17.1860 N   0  0  0  0  0  0  0  0  0  0  0  0
    8.5535  -13.7178   16.7305 C   0  0  0  0  0  0  0  0  0  0  0  0
    8.6614  -13.9025   15.4597 N   0  0  0  0  0  0  0  0  0  0  0  0
    8.9128  -14.7094   17.6703 N   0  0  0  0  0  0  0  0  0  0  0  0
    7.9154  -15.3628   18.4431 C   0  0  0  0  0  0  0  0  0  0  0  0
    7.4018  -14.6748   19.6482 C   0  0  0  0  0  0  0  0  0  0  0  0
    8.2600  -14.6114   20.8467 C   0  0  0  0  0  0  0  0  0  0  0  0
    8.7638  -15.9322   21.3194 C   0  0  2  0  0  0  0  0  0  0  0  0
    7.6441  -16.8505   21.3472 N   0  0  0  0  0  0  0  0  0  0  0  0
    9.2637  -15.8051   22.7329 C   0  0  0  0  0  0  0  0  0  0  0  0
   10.0955  -14.9187   23.0168 O   0  0  0  0  0  0  0  0  0  0  0  0
    9.0325  -14.7831   15.0526 N   0  0  0  0  0  0  0  0  0  0  0  0
    8.7865  -16.6861   23.7143 C   0  0  1  0  0  0  0  0  0  0  0  0
    9.3023  -16.6253   25.0476 C   0  0  0  0  0  0  0  0  0  0  0  0
    8.1388  -16.6388   26.0504 C   0  0  0  0  0  0  0  0  0  0  0  0
    7.2600  -15.4644   25.8069 C   0  0  0  0  0  0  0  0  0  0  0  0
    6.0366  -15.4466   25.1826 N   0  0  0  0  0  0  0  0  0  0  0  0
    5.6048  -14.1838   25.1802 C   0  0  0  0  0  0  0  0  0  0  0  0
    6.5188  -13.3898   25.7866 C   0  0  0  0  0  0  0  0  0  0  0  0
    6.5498  -12.0236   26.0393 C   0  0  0  0  0  0  0  0  0  0  0  0
    7.6252  -11.4807   26.6850 C   0  0  0  0  0  0  0  0  0  0  0  0
    8.6937  -12.2758   27.0954 C   0  0  0  0  0  0  0  0  0  0  0  0
    8.6589  -13.6290   26.8429 C   0  0  0  0  0  0  0  0  0  0  0  0
    7.5686  -14.1851   26.1872 C   0  0  0  0  0  0  0  0  0  0  0  0
   10.2459  -17.7386   25.3423 O   0  0  0  0  0  0  0  0  0  0  0  0
    9.8989  -18.9456   25.2816 C   0  0  0  0  0  0  0  0  0  0  0  0
   13.9248  -18.0092   25.8231 C   0  0  2  0  0  0  0  0  0  0  0  0
   12.5172  -18.5948   25.9829 N   0  0  0  0  0  0  0  0  0  0  0  0
   11.6058  -17.5020   25.7128 C   0  0  0  0  0  0  0  0  0  0  0  0
   12.4081  -19.1092   27.3487 O   0  0  0  0  0  0  0  0  0  0  0  0
   13.2161  -20.1521   27.7659 O   0  0  0  0  0  0  0  0  0  0  0  0
  2  1  1  0
  3  2  2  0
  4  2  1  0
  5  4  1  0
  6  5  1  0
  7  6  1  0
  8 10  1  0
  8  7  1  0
  8  9  1  1
 10 11  2  0
 12 13  1  0
 12 10  1  0
 13 14  1  1
 15 16  2  0
 15 14  1  0
 17 16  1  0
 18 23  2  0
 18 17  1  0
 19 18  1  0
 20 21  1  0
 20 19  2  0
 21 22  2  0
 22 23  1  0
 23 15  1  0
 24 28  1  0
 24 13  1  0
 25 24  2  0
 27 26  1  6
 27 29  1  0
 27 28  1  0
 29 30  1  0
 31 29  2  0
M  END
$$$$
