RWA.pdb
     RDKit          3D

 31 32  0  0  1  0  0  0  0  0999 V2000
    7.2142  -12.2349   19.2287 N   0  0  0  0  0  0  0  0  0  0  0  0
    7.6489  -13.2945   18.3750 C   0  0  0  0  0  0  0  0  0  0  0  0
    8.1784  -12.9814   17.2425 N   0  0  0  0  0  0  0  0  0  0  0  0
    7.4874  -14.6359   18.7873 N   0  0  0  0  0  0  0  0  0  0  0  0
    6.9096  -14.9354   20.0504 C   0  0  0  0  0  0  0  0  0  0  0  0
    7.7923  -14.9492   21.2379 C   0  0  0  0  0  0  0  0  0  0  0  0
    9.1068  -15.6114   21.1349 C   0  0  0  0  0  0  0  0  0  0  0  0
    9.2818  -16.7861   22.0356 C   0  0  2  0  0  0  0  0  0  0  0  0
    7.9694  -17.1961   22.4907 N   0  0  0  0  0  0  0  0  0  0  0  0
   10.0619  -16.3753   23.2548 C   0  0  0  0  0  0  0  0  0  0  0  0
   11.2007  -15.8816   23.1224 O   0  0  0  0  0  0  0  0  0  0  0  0
    8.4199  -13.6909   16.5234 N   0  0  0  0  0  0  0  0  0  0  0  0
    9.4971  -16.5527   24.5262 C   0  0  1  0  0  0  0  0  0  0  0  0
   10.3110  -16.4374   25.6974 C   0  0  0  0  0  0  0  0  0  0  0  0
    9.7102  -15.3835   26.6396 C   0  0  0  0  0  0  0  0  0  0  0  0
    8.3073  -15.0998   26.2370 C   0  0  0  0  0  0  0  0  0  0  0  0
    7.3231  -16.0066   25.9275 N   0  0  0  0  0  0  0  0  0  0  0  0
    6.2229  -15.3166   25.6197 C   0  0  0  0  0  0  0  0  0  0  0  0
    6.4746  -13.9901   25.7232 C   0  0  0  0  0  0  0  0  0  0  0  0
    5.6809  -12.8686   25.5147 C   0  0  0  0  0  0  0  0  0  0  0  0
    6.2114  -11.6224   25.6984 C   0  0  0  0  0  0  0  0  0  0  0  0
    7.5380  -11.4569   26.0921 C   0  0  0  0  0  0  0  0  0  0  0  0
    8.3209  -12.5709   26.2975 C   0  0  0  0  0  0  0  0  0  0  0  0
    7.7865  -13.8389   26.1121 C   0  0  0  0  0  0  0  0  0  0  0  0
   10.4652  -17.7348   26.4113 O   0  0  0  0  0  0  0  0  0  0  0  0
    9.4893  -18.4936   26.6416 C   0  0  0  0  0  0  0  0  0  0  0  0
   13.3545  -19.8131   27.5191 C   0  0  2  0  0  0  0  0  0  0  0  0
   11.8667  -19.4508   27.5917 N   0  0  0  0  0  0  0  0  0  0  0  0
   11.7342  -18.1970   26.8788 C   0  0  0  0  0  0  0  0  0  0  0  0
   11.5085  -19.3474   29.0069 O   0  0  0  0  0  0  0  0  0  0  0  0
   11.5233  -20.4725   29.8122 O   0  0  0  0  0  0  0  0  0  0  0  0
  2  1  1  0
  3  2  2  0
  4  2  1  0
  5  4  1  0
  6  5  1  0
  7  6  1  0
  8 10  1  0
  8  7  1  0
  8  9  1  1
 10 11  2  0
 12 13  1  0
 12 10  1  0
 13 14  1  1
 15 16  2  0
 15 14  1  0
 17 16  1  0
 18 23  2  0
 18 17  1  0
 19 18  1  0
 20 21  1  0
 20 19  2  0
 21 22  2  0
 22 23  1  0
 23 15  1  0
 24 28  1  0
 24 13  1  0
 25 24  2  0
 27 26  1  6
 27 29  1  0
 27 28  1  0
 29 30  1  0
 31 29  2  0
M  END
$$$$
