RWA.pdb
     RDKit          3D

 31 32  0  0  1  0  0  0  0  0999 V2000
    8.1356  -12.4418   17.3478 N   0  0  0  0  0  0  0  0  0  0  0  0
    7.7733  -13.4472   16.3998 C   0  0  0  0  0  0  0  0  0  0  0  0
    7.7809  -13.1323   15.1502 N   0  0  0  0  0  0  0  0  0  0  0  0
    7.4199  -14.7385   16.8504 N   0  0  0  0  0  0  0  0  0  0  0  0
    7.8013  -15.1770   18.1471 C   0  0  0  0  0  0  0  0  0  0  0  0
    6.9324  -14.8196   19.2902 C   0  0  0  0  0  0  0  0  0  0  0  0
    7.5079  -14.8358   20.6487 C   0  0  0  0  0  0  0  0  0  0  0  0
    8.1919  -16.1078   21.0175 C   0  0  2  0  0  0  0  0  0  0  0  0
    7.1760  -17.0559   21.4258 N   0  0  0  0  0  0  0  0  0  0  0  0
    9.0812  -15.8755   22.2088 C   0  0  0  0  0  0  0  0  0  0  0  0
   10.0762  -15.1295   22.1009 O   0  0  0  0  0  0  0  0  0  0  0  0
    7.6060  -13.8269   14.3979 N   0  0  0  0  0  0  0  0  0  0  0  0
    8.7788  -16.5015   23.4268 C   0  0  1  0  0  0  0  0  0  0  0  0
    9.6061  -16.2818   24.5734 C   0  0  0  0  0  0  0  0  0  0  0  0
    8.7474  -16.3376   25.8457 C   0  0  0  0  0  0  0  0  0  0  0  0
    7.5929  -15.4110   25.7065 C   0  0  0  0  0  0  0  0  0  0  0  0
    6.3042  -15.7235   25.3483 N   0  0  0  0  0  0  0  0  0  0  0  0
    5.6012  -14.5891   25.3458 C   0  0  0  0  0  0  0  0  0  0  0  0
    6.4046  -13.5558   25.6930 C   0  0  0  0  0  0  0  0  0  0  0  0
    6.1674  -12.1941   25.8367 C   0  0  0  0  0  0  0  0  0  0  0  0
    7.1899  -11.3660   26.2066 C   0  0  0  0  0  0  0  0  0  0  0  0
    8.4694  -11.8652   26.4428 C   0  0  0  0  0  0  0  0  0  0  0  0
    8.7001  -13.2152   26.2992 C   0  0  0  0  0  0  0  0  0  0  0  0
    7.6646  -14.0604   25.9235 C   0  0  0  0  0  0  0  0  0  0  0  0
   10.7219  -17.2633   24.6645 O   0  0  0  0  0  0  0  0  0  0  0  0
   10.5253  -18.5052   24.6511 C   0  0  0  0  0  0  0  0  0  0  0  0
   14.4066  -17.1105   24.3289 C   0  0  2  0  0  0  0  0  0  0  0  0
   13.1612  -17.8180   24.8751 N   0  0  0  0  0  0  0  0  0  0  0  0
   12.0864  -16.8525   24.7731 C   0  0  0  0  0  0  0  0  0  0  0  0
   13.4498  -18.2124   26.2546 O   0  0  0  0  0  0  0  0  0  0  0  0
   12.6963  -17.7011   27.2964 O   0  0  0  0  0  0  0  0  0  0  0  0
  2  1  1  0
  3  2  2  0
  4  2  1  0
  5  4  1  0
  6  5  1  0
  7  6  1  0
  8 10  1  0
  8  7  1  0
  8  9  1  1
 10 11  2  0
 12 13  1  0
 12 10  1  0
 13 14  1  1
 15 16  2  0
 15 14  1  0
 17 16  1  0
 18 23  2  0
 18 17  1  0
 19 18  1  0
 20 21  1  0
 20 19  2  0
 21 22  2  0
 22 23  1  0
 23 15  1  0
 24 28  1  0
 24 13  1  0
 25 24  2  0
 27 26  1  6
 27 29  1  0
 27 28  1  0
 29 30  1  0
 31 29  2  0
M  END
$$$$
