RWA.pdb
     RDKit          3D

 31 32  0  0  1  0  0  0  0  0999 V2000
    9.2358  -15.2330   14.7886 N   0  0  0  0  0  0  0  0  0  0  0  0
    8.5612  -14.1527   15.4355 C   0  0  0  0  0  0  0  0  0  0  0  0
    8.8760  -12.9506   15.0940 N   0  0  0  0  0  0  0  0  0  0  0  0
    7.5840  -14.4266   16.4182 N   0  0  0  0  0  0  0  0  0  0  0  0
    7.9686  -14.8909   17.7049 C   0  0  0  0  0  0  0  0  0  0  0  0
    8.4645  -16.2794   17.8282 C   0  0  0  0  0  0  0  0  0  0  0  0
    7.7578  -17.2055   18.7337 C   0  0  0  0  0  0  0  0  0  0  0  0
    8.5732  -17.6929   19.8824 C   0  0  2  0  0  0  0  0  0  0  0  0
    7.7051  -18.4650   20.7472 N   0  0  0  0  0  0  0  0  0  0  0  0
    9.0645  -16.5196   20.6862 C   0  0  0  0  0  0  0  0  0  0  0  0
    9.9205  -15.7523   20.1997 O   0  0  0  0  0  0  0  0  0  0  0  0
    8.4383  -12.1140   15.5269 N   0  0  0  0  0  0  0  0  0  0  0  0
    8.5522  -16.3036   21.9737 C   0  0  1  0  0  0  0  0  0  0  0  0
    9.0144  -15.1980   22.7557 C   0  0  0  0  0  0  0  0  0  0  0  0
    7.8582  -14.2141   22.9893 C   0  0  0  0  0  0  0  0  0  0  0  0
    7.2973  -14.4215   24.3507 C   0  0  0  0  0  0  0  0  0  0  0  0
    6.7695  -15.5766   24.8741 N   0  0  0  0  0  0  0  0  0  0  0  0
    6.3830  -15.3119   26.1237 C   0  0  0  0  0  0  0  0  0  0  0  0
    6.6486  -14.0169   26.4169 C   0  0  0  0  0  0  0  0  0  0  0  0
    6.4439  -13.2563   27.5618 C   0  0  0  0  0  0  0  0  0  0  0  0
    6.8188  -11.9420   27.5752 C   0  0  0  0  0  0  0  0  0  0  0  0
    7.4042  -11.3501   26.4574 C   0  0  0  0  0  0  0  0  0  0  0  0
    7.6051  -12.1075   25.3251 C   0  0  0  0  0  0  0  0  0  0  0  0
    7.2259  -13.4430   25.3067 C   0  0  0  0  0  0  0  0  0  0  0  0
    9.5934  -15.6272   24.0585 O   0  0  0  0  0  0  0  0  0  0  0  0
   10.1224  -14.8133   24.8578 C   0  0  0  0  0  0  0  0  0  0  0  0
    9.5500  -18.6271   26.2048 C   0  0  2  0  0  0  0  0  0  0  0  0
   10.3270  -17.4311   25.6428 N   0  0  0  0  0  0  0  0  0  0  0  0
    9.5830  -16.9928   24.4800 C   0  0  0  0  0  0  0  0  0  0  0  0
   11.6761  -17.8968   25.3193 O   0  0  0  0  0  0  0  0  0  0  0  0
   12.5311  -18.3061   26.3273 O   0  0  0  0  0  0  0  0  0  0  0  0
  2  1  1  0
  3  2  2  0
  4  2  1  0
  5  4  1  0
  6  5  1  0
  7  6  1  0
  8 10  1  0
  8  7  1  0
  8  9  1  1
 10 11  2  0
 12 13  1  0
 12 10  1  0
 13 14  1  1
 15 16  2  0
 15 14  1  0
 17 16  1  0
 18 23  2  0
 18 17  1  0
 19 18  1  0
 20 21  1  0
 20 19  2  0
 21 22  2  0
 22 23  1  0
 23 15  1  0
 24 28  1  0
 24 13  1  0
 25 24  2  0
 27 26  1  1
 27 29  1  0
 27 28  1  0
 29 30  1  0
 31 29  2  0
M  END
$$$$
