RWA.pdb
     RDKit          3D

 31 32  0  0  1  0  0  0  0  0999 V2000
   11.2358  -21.9407   18.1153 N   0  0  0  0  0  0  0  0  0  0  0  0
   10.2350  -21.2385   17.3763 C   0  0  0  0  0  0  0  0  0  0  0  0
    9.5224  -21.9065   16.5356 N   0  0  0  0  0  0  0  0  0  0  0  0
   10.0575  -19.8522   17.5820 N   0  0  0  0  0  0  0  0  0  0  0  0
    9.8422  -19.3412   18.8903 C   0  0  0  0  0  0  0  0  0  0  0  0
   10.9264  -18.5575   19.5225 C   0  0  0  0  0  0  0  0  0  0  0  0
   10.7484  -18.0969   20.9129 C   0  0  0  0  0  0  0  0  0  0  0  0
   10.2001  -16.7170   21.0438 C   0  0  2  0  0  0  0  0  0  0  0  0
   11.1145  -15.8110   20.3800 N   0  0  0  0  0  0  0  0  0  0  0  0
   10.1668  -16.3230   22.4956 C   0  0  0  0  0  0  0  0  0  0  0  0
   11.0689  -15.5952   22.9591 O   0  0  0  0  0  0  0  0  0  0  0  0
    8.8353  -21.4537   15.9019 N   0  0  0  0  0  0  0  0  0  0  0  0
    9.1199  -16.7794   23.3095 C   0  0  2  0  0  0  0  0  0  0  0  0
    9.0559  -16.3903   24.6850 C   0  0  0  0  0  0  0  0  0  0  0  0
    7.6104  -16.0185   25.0477 C   0  0  0  0  0  0  0  0  0  0  0  0
    7.3925  -14.5694   24.7961 C   0  0  0  0  0  0  0  0  0  0  0  0
    7.4355  -13.9108   23.5914 N   0  0  0  0  0  0  0  0  0  0  0  0
    7.1850  -12.6216   23.8287 C   0  0  0  0  0  0  0  0  0  0  0  0
    6.9822  -12.4346   25.1544 C   0  0  0  0  0  0  0  0  0  0  0  0
    6.6923  -11.3019   25.9055 C   0  0  0  0  0  0  0  0  0  0  0  0
    6.5364  -11.4109   27.2590 C   0  0  0  0  0  0  0  0  0  0  0  0
    6.6634  -12.6417   27.9003 C   0  0  0  0  0  0  0  0  0  0  0  0
    6.9507  -13.7615   27.1522 C   0  0  0  0  0  0  0  0  0  0  0  0
    7.1101  -13.6558   25.7770 C   0  0  0  0  0  0  0  0  0  0  0  0
    9.5567  -17.4532   25.5993 O   0  0  0  0  0  0  0  0  0  0  0  0
    9.0490  -18.6032   25.6324 C   0  0  0  0  0  0  0  0  0  0  0  0
   12.4910  -17.7760   27.8920 C   0  0  2  0  0  0  0  0  0  0  0  0
   11.1494  -18.2848   27.3526 N   0  0  0  0  0  0  0  0  0  0  0  0
   10.6467  -17.2303   26.4964 C   0  0  0  0  0  0  0  0  0  0  0  0
   10.2857  -18.5506   28.5037 O   0  0  0  0  0  0  0  0  0  0  0  0
   10.5583  -19.6130   29.3473 O   0  0  0  0  0  0  0  0  0  0  0  0
  2  1  1  0
  3  2  2  0
  4  2  1  0
  5  4  1  0
  6  5  1  0
  7  6  1  0
  8 10  1  0
  8  7  1  0
  8  9  1  6
 10 11  2  0
 12 13  1  0
 12 10  1  0
 13 14  1  6
 15 16  2  0
 15 14  1  0
 17 16  1  0
 18 23  2  0
 18 17  1  0
 19 18  1  0
 20 21  1  0
 20 19  2  0
 21 22  2  0
 22 23  1  0
 23 15  1  0
 24 28  1  0
 24 13  1  0
 25 24  2  0
 27 26  1  6
 27 29  1  0
 27 28  1  0
 29 30  1  0
 31 29  2  0
M  END
$$$$
