RWA.pdb
     RDKit          3D

 31 32  0  0  1  0  0  0  0  0999 V2000
    8.5117  -12.2418   19.7117 N   0  0  0  0  0  0  0  0  0  0  0  0
    8.1954  -13.3568   18.8766 C   0  0  0  0  0  0  0  0  0  0  0  0
    8.7172  -13.3987   17.6989 N   0  0  0  0  0  0  0  0  0  0  0  0
    7.3313  -14.3664   19.3555 N   0  0  0  0  0  0  0  0  0  0  0  0
    7.7503  -15.2367   20.3976 C   0  0  0  0  0  0  0  0  0  0  0  0
    8.7300  -16.2968   20.0724 C   0  0  0  0  0  0  0  0  0  0  0  0
   10.1227  -16.1387   20.5333 C   0  0  0  0  0  0  0  0  0  0  0  0
   10.4700  -16.9366   21.7435 C   0  0  2  0  0  0  0  0  0  0  0  0
    9.6443  -18.1265   21.7429 N   0  0  0  0  0  0  0  0  0  0  0  0
   10.1166  -16.1565   22.9807 C   0  0  0  0  0  0  0  0  0  0  0  0
   10.3313  -14.9274   23.0185 O   0  0  0  0  0  0  0  0  0  0  0  0
    8.4731  -14.1326   17.0056 N   0  0  0  0  0  0  0  0  0  0  0  0
    9.5490  -16.8227   24.0765 C   0  0  1  0  0  0  0  0  0  0  0  0
    9.2533  -16.1065   25.2794 C   0  0  0  0  0  0  0  0  0  0  0  0
    7.8758  -16.5342   25.8075 C   0  0  0  0  0  0  0  0  0  0  0  0
    6.8645  -15.5058   25.4463 C   0  0  0  0  0  0  0  0  0  0  0  0
    5.7340  -15.6716   24.6839 N   0  0  0  0  0  0  0  0  0  0  0  0
    5.1199  -14.4889   24.6127 C   0  0  0  0  0  0  0  0  0  0  0  0
    5.8263  -13.5674   25.3095 C   0  0  0  0  0  0  0  0  0  0  0  0
    5.6211  -12.2131   25.5440 C   0  0  0  0  0  0  0  0  0  0  0  0
    6.5192  -11.5155   26.3022 C   0  0  0  0  0  0  0  0  0  0  0  0
    7.6399  -12.1407   26.8456 C   0  0  0  0  0  0  0  0  0  0  0  0
    7.8394  -13.4828   26.6107 C   0  0  0  0  0  0  0  0  0  0  0  0
    6.9299  -14.1957   25.8410 C   0  0  0  0  0  0  0  0  0  0  0  0
   10.2898  -16.3078   26.3291 O   0  0  0  0  0  0  0  0  0  0  0  0
   11.1492  -17.2228   26.2560 C   0  0  0  0  0  0  0  0  0  0  0  0
   11.0347  -14.6867   29.6277 C   0  0  2  0  0  0  0  0  0  0  0  0
   11.2923  -15.7607   28.5646 N   0  0  0  0  0  0  0  0  0  0  0  0
   10.3707  -15.4718   27.4854 C   0  0  0  0  0  0  0  0  0  0  0  0
   11.0550  -17.0627   29.1894 O   0  0  0  0  0  0  0  0  0  0  0  0
   11.9890  -17.5976   30.0589 O   0  0  0  0  0  0  0  0  0  0  0  0
  2  1  1  0
  3  2  2  0
  4  2  1  0
  5  4  1  0
  6  5  1  0
  7  6  1  0
  8 10  1  0
  8  7  1  0
  8  9  1  6
 10 11  2  0
 12 13  1  0
 12 10  1  0
 13 14  1  1
 15 16  2  0
 15 14  1  0
 17 16  1  0
 18 23  2  0
 18 17  1  0
 19 18  1  0
 20 21  1  0
 20 19  2  0
 21 22  2  0
 22 23  1  0
 23 15  1  0
 24 28  1  0
 24 13  1  0
 25 24  2  0
 27 26  1  6
 27 29  1  0
 27 28  1  0
 29 30  1  0
 31 29  2  0
M  END
$$$$
