RWA.pdb
     RDKit          3D

 31 32  0  0  1  0  0  0  0  0999 V2000
    9.4907  -15.3874   15.3008 N   0  0  0  0  0  0  0  0  0  0  0  0
    8.4932  -14.5821   14.6706 C   0  0  0  0  0  0  0  0  0  0  0  0
    8.5397  -14.4528   13.3892 N   0  0  0  0  0  0  0  0  0  0  0  0
    7.4995  -13.9572   15.4565 N   0  0  0  0  0  0  0  0  0  0  0  0
    7.5453  -14.0417   16.8741 C   0  0  0  0  0  0  0  0  0  0  0  0
    8.7048  -13.4453   17.5735 C   0  0  0  0  0  0  0  0  0  0  0  0
    8.7438  -13.4942   19.0476 C   0  0  0  0  0  0  0  0  0  0  0  0
    9.2249  -14.7868   19.6129 C   0  0  2  0  0  0  0  0  0  0  0  0
    8.2768  -15.8156   19.2383 N   0  0  0  0  0  0  0  0  0  0  0  0
    9.2225  -14.7124   21.1157 C   0  0  0  0  0  0  0  0  0  0  0  0
    9.9578  -13.8862   21.6946 O   0  0  0  0  0  0  0  0  0  0  0  0
    7.8058  -13.9520   12.8512 N   0  0  0  0  0  0  0  0  0  0  0  0
    8.3918  -15.5739   21.8469 C   0  0  1  0  0  0  0  0  0  0  0  0
    8.3515  -15.4941   23.2750 C   0  0  0  0  0  0  0  0  0  0  0  0
    6.8906  -15.4997   23.7495 C   0  0  0  0  0  0  0  0  0  0  0  0
    6.8340  -15.1217   25.1864 C   0  0  0  0  0  0  0  0  0  0  0  0
    6.6392  -15.9494   26.2652 N   0  0  0  0  0  0  0  0  0  0  0  0
    6.6569  -15.1905   27.3628 C   0  0  0  0  0  0  0  0  0  0  0  0
    6.8579  -13.8967   27.0175 C   0  0  0  0  0  0  0  0  0  0  0  0
    6.9567  -12.7325   27.7699 C   0  0  0  0  0  0  0  0  0  0  0  0
    7.1662  -11.5375   27.1403 C   0  0  0  0  0  0  0  0  0  0  0  0
    7.2829  -11.4665   25.7534 C   0  0  0  0  0  0  0  0  0  0  0  0
    7.1844  -12.6225   25.0118 C   0  0  0  0  0  0  0  0  0  0  0  0
    6.9715  -13.8388   25.6467 C   0  0  0  0  0  0  0  0  0  0  0  0
    9.1064  -16.5995   23.9266 O   0  0  0  0  0  0  0  0  0  0  0  0
    8.8983  -17.8082   23.6494 C   0  0  0  0  0  0  0  0  0  0  0  0
   12.3394  -16.8807   25.5580 C   0  0  2  0  0  0  0  0  0  0  0  0
   10.9112  -17.4294   25.4616 N   0  0  0  0  0  0  0  0  0  0  0  0
   10.1152  -16.3532   24.9086 C   0  0  0  0  0  0  0  0  0  0  0  0
   10.4971  -17.8149   26.8114 O   0  0  0  0  0  0  0  0  0  0  0  0
   11.1554  -18.8342   27.4765 O   0  0  0  0  0  0  0  0  0  0  0  0
  2  1  1  0
  3  2  2  0
  4  2  1  0
  5  4  1  0
  6  5  1  0
  7  6  1  0
  8 10  1  0
  8  7  1  0
  8  9  1  1
 10 11  2  0
 12 13  1  0
 12 10  1  0
 13 14  1  1
 15 16  2  0
 15 14  1  0
 17 16  1  0
 18 23  2  0
 18 17  1  0
 19 18  1  0
 20 21  1  0
 20 19  2  0
 21 22  2  0
 22 23  1  0
 23 15  1  0
 24 28  1  0
 24 13  1  0
 25 24  2  0
 27 26  1  6
 27 29  1  0
 27 28  1  0
 29 30  1  0
 31 29  2  0
M  END
$$$$
