RWA.pdb
     RDKit          3D

 31 32  0  0  1  0  0  0  0  0999 V2000
    8.2434  -12.2681   18.0781 N   0  0  0  0  0  0  0  0  0  0  0  0
    8.0074  -13.3939   17.2310 C   0  0  0  0  0  0  0  0  0  0  0  0
    8.5694  -13.4076   16.0713 N   0  0  0  0  0  0  0  0  0  0  0  0
    7.1760  -14.4443   17.6791 N   0  0  0  0  0  0  0  0  0  0  0  0
    6.9737  -14.6582   19.0692 C   0  0  0  0  0  0  0  0  0  0  0  0
    8.1607  -14.6916   19.9519 C   0  0  0  0  0  0  0  0  0  0  0  0
    7.9802  -15.0701   21.3665 C   0  0  0  0  0  0  0  0  0  0  0  0
    8.7551  -16.2706   21.7912 C   0  0  2  0  0  0  0  0  0  0  0  0
    7.8270  -17.3747   21.9218 N   0  0  0  0  0  0  0  0  0  0  0  0
    9.3493  -16.0319   23.1528 C   0  0  0  0  0  0  0  0  0  0  0  0
   10.1960  -15.1278   23.3076 O   0  0  0  0  0  0  0  0  0  0  0  0
    8.5056  -14.2215   15.4292 N   0  0  0  0  0  0  0  0  0  0  0  0
    8.9422  -16.8300   24.2317 C   0  0  1  0  0  0  0  0  0  0  0  0
    9.5382  -16.6554   25.5208 C   0  0  0  0  0  0  0  0  0  0  0  0
    8.4367  -16.4979   26.5797 C   0  0  0  0  0  0  0  0  0  0  0  0
    7.4080  -15.5436   26.0878 C   0  0  0  0  0  0  0  0  0  0  0  0
    6.1873  -15.8385   25.5313 N   0  0  0  0  0  0  0  0  0  0  0  0
    5.5922  -14.6822   25.2315 C   0  0  0  0  0  0  0  0  0  0  0  0
    6.3986  -13.6520   25.5808 C   0  0  0  0  0  0  0  0  0  0  0  0
    6.2509  -12.2737   25.4823 C   0  0  0  0  0  0  0  0  0  0  0  0
    7.2509  -11.4542   25.9255 C   0  0  0  0  0  0  0  0  0  0  0  0
    8.4190  -11.9784   26.4760 C   0  0  0  0  0  0  0  0  0  0  0  0
    8.5612  -13.3447   26.5717 C   0  0  0  0  0  0  0  0  0  0  0  0
    7.5482  -14.1814   26.1227 C   0  0  0  0  0  0  0  0  0  0  0  0
   10.4423  -17.7807   25.8851 O   0  0  0  0  0  0  0  0  0  0  0  0
   10.0132  -18.8487   26.3914 C   0  0  0  0  0  0  0  0  0  0  0  0
   14.1162  -18.4269   25.5114 C   0  0  2  0  0  0  0  0  0  0  0  0
   12.7153  -18.8426   25.9749 N   0  0  0  0  0  0  0  0  0  0  0  0
   11.8554  -17.7149   25.6811 C   0  0  0  0  0  0  0  0  0  0  0  0
   12.7976  -19.1449   27.4045 O   0  0  0  0  0  0  0  0  0  0  0  0
   12.3584  -18.2218   28.3371 O   0  0  0  0  0  0  0  0  0  0  0  0
  2  1  1  0
  3  2  2  0
  4  2  1  0
  5  4  1  0
  6  5  1  0
  7  6  1  0
  8 10  1  0
  8  7  1  0
  8  9  1  1
 10 11  2  0
 12 13  1  0
 12 10  1  0
 13 14  1  1
 15 16  2  0
 15 14  1  0
 17 16  1  0
 18 23  2  0
 18 17  1  0
 19 18  1  0
 20 21  1  0
 20 19  2  0
 21 22  2  0
 22 23  1  0
 23 15  1  0
 24 28  1  0
 24 13  1  0
 25 24  2  0
 27 26  1  6
 27 29  1  0
 27 28  1  0
 29 30  1  0
 31 29  2  0
M  END
$$$$
