PKW.pdb
     RDKit          3D

 31 33  0  0  1  0  0  0  0  0999 V2000
   26.0081  -25.1281  -17.0928 N   0  0  0  0  0  0  0  0  0  0  0  0
   26.1229  -26.1212  -18.1223 C   0  0  0  0  0  0  0  0  0  0  0  0
   27.5794  -26.0290  -18.5476 C   0  0  0  0  0  0  0  0  0  0  0  0
   28.2879  -25.8250  -17.2091 C   0  0  0  0  0  0  0  0  0  0  0  0
   27.2021  -25.3224  -16.3056 C   0  0  1  0  0  0  0  0  0  0  0  0
   27.5603  -24.0218  -15.6776 C   0  0  0  0  0  0  0  0  0  0  0  0
   28.5192  -23.9548  -14.8802 O   0  0  0  0  0  0  0  0  0  0  0  0
   26.8119  -22.8407  -15.9801 N   0  0  0  0  0  0  0  0  0  0  0  0
   27.0627  -21.5522  -15.4183 C   0  0  1  0  0  0  0  0  0  0  0  0
   26.8423  -20.4109  -16.3433 C   0  0  0  0  0  0  0  0  0  0  0  0
   27.1727  -19.1102  -15.7024 C   0  0  0  0  0  0  0  0  0  0  0  0
   26.9339  -17.9117  -16.5627 C   0  0  0  0  0  0  0  0  0  0  0  0
   27.3153  -16.6198  -15.8358 C   0  0  0  0  0  0  0  0  0  0  0  0
   27.1840  -15.4843  -16.7293 N   0  0  0  0  0  0  0  0  0  0  0  0
   26.3535  -21.3821  -14.0930 C   0  0  0  0  0  0  0  0  0  0  0  0
   25.1002  -21.3663  -14.0480 O   0  0  0  0  0  0  0  0  0  0  0  0
   27.0468  -21.2386  -12.8852 N   0  0  0  0  0  0  0  0  0  0  0  0
   26.3847  -21.0345  -11.5867 C   0  0  1  0  0  0  0  0  0  0  0  0
   27.3750  -21.0596  -10.4830 C   0  0  0  0  0  0  0  0  0  0  0  0
   26.8530  -20.6898   -9.1607 C   0  0  0  0  0  0  0  0  0  0  0  0
   25.5078  -20.6403   -8.7609 C   0  0  0  0  0  0  0  0  0  0  0  0
   25.4146  -20.2287   -7.4880 N   0  0  0  0  0  0  0  0  0  0  0  0
   26.6530  -19.9986   -7.0133 C   0  0  0  0  0  0  0  0  0  0  0  0
   27.0746  -19.5772   -5.7529 C   0  0  0  0  0  0  0  0  0  0  0  0
   28.4334  -19.4522   -5.5639 C   0  0  0  0  0  0  0  0  0  0  0  0
   29.3459  -19.7244   -6.5566 C   0  0  0  0  0  0  0  0  0  0  0  0
   28.9064  -20.1361   -7.7863 C   0  0  0  0  0  0  0  0  0  0  0  0
   27.5524  -20.2764   -8.0255 C   0  0  0  0  0  0  0  0  0  0  0  0
   25.4588  -19.9081  -11.6223 C   0  0  0  0  0  0  0  0  0  0  0  0
   25.9331  -18.7045  -12.1815 O   0  0  0  0  0  0  0  0  0  0  0  0
   24.2869  -19.8995  -11.2078 O   0  0  0  0  0  0  0  0  0  0  0  0
  1  5  1  0
  2  3  1  0
  2  1  1  0
  3  4  1  0
  5  4  1  0
  6  7  2  0
  5  6  1  6
  8  6  1  0
  9  8  1  0
  9 10  1  6
 11 12  1  0
 11 10  1  0
 13 12  1  0
 14 13  1  0
 15  9  1  0
 15 17  1  0
 16 15  2  0
 18 17  1  0
 18 29  1  0
 18 19  1  1
 19 20  1  0
 20 28  1  0
 21 20  2  0
 21 22  1  0
 22 23  1  0
 23 24  1  0
 24 25  2  0
 26 25  1  0
 27 26  2  0
 28 23  2  0
 28 27  1  0
 29 30  1  0
 31 29  2  0
M  END
$$$$
