PKW.pdb
     RDKit          3D

 31 33  0  0  1  0  0  0  0  0999 V2000
   27.8986  -20.1065  -16.2955 N   0  0  0  0  0  0  0  0  0  0  0  0
   28.5138  -19.5863  -17.4829 C   0  0  0  0  0  0  0  0  0  0  0  0
   28.4160  -18.0797  -17.3059 C   0  0  0  0  0  0  0  0  0  0  0  0
   28.7153  -17.9156  -15.8165 C   0  0  0  0  0  0  0  0  0  0  0  0
   28.4381  -19.2745  -15.2469 C   0  0  1  0  0  0  0  0  0  0  0  0
   27.4446  -19.2203  -14.1403 C   0  0  0  0  0  0  0  0  0  0  0  0
   27.6117  -18.4306  -13.1874 O   0  0  0  0  0  0  0  0  0  0  0  0
   26.2936  -20.0697  -14.1578 N   0  0  0  0  0  0  0  0  0  0  0  0
   25.2781  -20.0850  -13.1542 C   0  0  1  0  0  0  0  0  0  0  0  0
   23.9651  -20.6191  -13.5986 C   0  0  0  0  0  0  0  0  0  0  0  0
   22.8395  -19.7543  -13.1548 C   0  0  0  0  0  0  0  0  0  0  0  0
   21.4817  -20.2595  -13.5215 C   0  0  0  0  0  0  0  0  0  0  0  0
   20.3885  -19.2749  -13.0992 C   0  0  0  0  0  0  0  0  0  0  0  0
   19.0805  -19.8005  -13.4424 N   0  0  0  0  0  0  0  0  0  0  0  0
   25.7749  -20.7282  -11.8783 C   0  0  0  0  0  0  0  0  0  0  0  0
   26.0684  -21.9475  -11.8618 O   0  0  0  0  0  0  0  0  0  0  0  0
   25.9265  -20.0092  -10.6866 N   0  0  0  0  0  0  0  0  0  0  0  0
   26.3445  -20.6214   -9.4152 C   0  0  1  0  0  0  0  0  0  0  0  0
   27.4703  -19.8658   -8.8140 C   0  0  0  0  0  0  0  0  0  0  0  0
   27.9329  -20.3578   -7.5096 C   0  0  0  0  0  0  0  0  0  0  0  0
   28.2702  -21.6778   -7.1695 C   0  0  0  0  0  0  0  0  0  0  0  0
   28.6189  -21.7515   -5.8766 N   0  0  0  0  0  0  0  0  0  0  0  0
   28.5292  -20.5242   -5.3311 C   0  0  0  0  0  0  0  0  0  0  0  0
   28.8001  -20.0887   -4.0346 C   0  0  0  0  0  0  0  0  0  0  0  0
   28.6304  -18.7448   -3.7843 C   0  0  0  0  0  0  0  0  0  0  0  0
   28.2149  -17.8595   -4.7516 C   0  0  0  0  0  0  0  0  0  0  0  0
   27.9545  -18.3122   -6.0173 C   0  0  0  0  0  0  0  0  0  0  0  0
   28.1094  -19.6522   -6.3181 C   0  0  0  0  0  0  0  0  0  0  0  0
   25.2042  -20.9112   -8.5531 C   0  0  0  0  0  0  0  0  0  0  0  0
   25.3824  -21.8980   -7.5628 O   0  0  0  0  0  0  0  0  0  0  0  0
   24.0840  -20.3744   -8.6017 O   0  0  0  0  0  0  0  0  0  0  0  0
  1  5  1  0
  2  3  1  0
  2  1  1  0
  3  4  1  0
  5  4  1  0
  6  7  2  0
  5  6  1  1
  8  6  1  0
  9  8  1  0
  9 10  1  6
 11 12  1  0
 11 10  1  0
 13 12  1  0
 14 13  1  0
 15  9  1  0
 15 17  1  0
 16 15  2  0
 18 17  1  0
 18 29  1  0
 18 19  1  1
 19 20  1  0
 20 28  1  0
 21 20  2  0
 21 22  1  0
 22 23  1  0
 23 24  1  0
 24 25  2  0
 26 25  1  0
 27 26  2  0
 28 23  2  0
 28 27  1  0
 29 30  1  0
 31 29  2  0
M  END
$$$$
