PKW.pdb
     RDKit          3D

 31 33  0  0  1  0  0  0  0  0999 V2000
   28.5006  -20.9552  -15.8719 N   0  0  0  0  0  0  0  0  0  0  0  0
   29.3106  -20.7192  -17.0326 C   0  0  0  0  0  0  0  0  0  0  0  0
   29.3730  -19.2030  -17.1231 C   0  0  0  0  0  0  0  0  0  0  0  0
   29.5102  -18.8035  -15.6545 C   0  0  0  0  0  0  0  0  0  0  0  0
   29.0068  -20.0043  -14.9114 C   0  0  1  0  0  0  0  0  0  0  0  0
   27.9022  -19.6560  -13.9770 C   0  0  0  0  0  0  0  0  0  0  0  0
   28.0845  -18.8038  -13.0825 O   0  0  0  0  0  0  0  0  0  0  0  0
   26.6263  -20.2923  -14.0944 N   0  0  0  0  0  0  0  0  0  0  0  0
   25.4837  -19.9776  -13.2981 C   0  0  1  0  0  0  0  0  0  0  0  0
   24.1977  -19.9243  -14.0398 C   0  0  0  0  0  0  0  0  0  0  0  0
   24.2289  -18.9076  -15.1247 C   0  0  0  0  0  0  0  0  0  0  0  0
   23.0295  -18.9088  -16.0164 C   0  0  0  0  0  0  0  0  0  0  0  0
   23.1520  -17.8510  -17.1158 C   0  0  0  0  0  0  0  0  0  0  0  0
   22.0676  -17.9912  -18.0694 N   0  0  0  0  0  0  0  0  0  0  0  0
   25.4164  -20.8491  -12.0634 C   0  0  0  0  0  0  0  0  0  0  0  0
   26.1576  -21.8558  -11.9633 O   0  0  0  0  0  0  0  0  0  0  0  0
   24.5451  -20.5780  -11.0016 N   0  0  0  0  0  0  0  0  0  0  0  0
   24.8072  -20.9826   -9.6110 C   0  0  1  0  0  0  0  0  0  0  0  0
   26.1704  -20.5740   -9.1937 C   0  0  0  0  0  0  0  0  0  0  0  0
   26.4504  -20.6923   -7.7566 C   0  0  0  0  0  0  0  0  0  0  0  0
   25.7015  -21.3956   -6.7993 C   0  0  0  0  0  0  0  0  0  0  0  0
   26.2463  -21.2504   -5.5826 N   0  0  0  0  0  0  0  0  0  0  0  0
   27.3399  -20.4723   -5.6854 C   0  0  0  0  0  0  0  0  0  0  0  0
   28.2447  -20.0507   -4.7121 C   0  0  0  0  0  0  0  0  0  0  0  0
   29.2921  -19.2643   -5.1389 C   0  0  0  0  0  0  0  0  0  0  0  0
   29.4551  -18.9014   -6.4556 C   0  0  0  0  0  0  0  0  0  0  0  0
   28.5522  -19.3277   -7.3926 C   0  0  0  0  0  0  0  0  0  0  0  0
   27.4838  -20.1184   -7.0139 C   0  0  0  0  0  0  0  0  0  0  0  0
   23.7058  -20.6218   -8.7255 C   0  0  0  0  0  0  0  0  0  0  0  0
   23.2207  -21.6249   -7.8625 O   0  0  0  0  0  0  0  0  0  0  0  0
   23.1469  -19.5138   -8.6525 O   0  0  0  0  0  0  0  0  0  0  0  0
  1  5  1  0
  2  3  1  0
  2  1  1  0
  3  4  1  0
  5  4  1  0
  6  7  2  0
  5  6  1  1
  8  6  1  0
  9  8  1  0
  9 10  1  6
 11 12  1  0
 11 10  1  0
 13 12  1  0
 14 13  1  0
 15  9  1  0
 15 17  1  0
 16 15  2  0
 18 17  1  0
 18 29  1  0
 18 19  1  1
 19 20  1  0
 20 28  1  0
 21 20  2  0
 21 22  1  0
 22 23  1  0
 23 24  1  0
 24 25  2  0
 26 25  1  0
 27 26  2  0
 28 23  2  0
 28 27  1  0
 29 30  1  0
 31 29  2  0
M  END
$$$$
