PKW.pdb
     RDKit          3D

 31 33  0  0  1  0  0  0  0  0999 V2000
   26.9288  -19.4923  -14.3782 N   0  0  0  0  0  0  0  0  0  0  0  0
   28.2550  -19.0937  -14.7543 C   0  0  0  0  0  0  0  0  0  0  0  0
   29.1481  -20.0645  -13.9987 C   0  0  0  0  0  0  0  0  0  0  0  0
   28.3741  -21.3754  -14.1309 C   0  0  0  0  0  0  0  0  0  0  0  0
   26.9783  -20.9327  -14.4526 C   0  0  1  0  0  0  0  0  0  0  0  0
   25.9861  -21.4814  -13.4888 C   0  0  0  0  0  0  0  0  0  0  0  0
   25.4182  -22.5681  -13.7258 O   0  0  0  0  0  0  0  0  0  0  0  0
   25.6745  -20.7711  -12.2868 N   0  0  0  0  0  0  0  0  0  0  0  0
   24.5002  -20.9769  -11.5011 C   0  0  1  0  0  0  0  0  0  0  0  0
   24.6278  -20.5964  -10.0708 C   0  0  0  0  0  0  0  0  0  0  0  0
   25.9932  -20.8682   -9.5478 C   0  0  0  0  0  0  0  0  0  0  0  0
   26.1995  -20.4937   -8.1158 C   0  0  0  0  0  0  0  0  0  0  0  0
   27.6143  -20.8425   -7.6473 C   0  0  0  0  0  0  0  0  0  0  0  0
   27.7811  -20.4893   -6.2501 N   0  0  0  0  0  0  0  0  0  0  0  0
   23.2814  -20.3748  -12.1647 C   0  0  0  0  0  0  0  0  0  0  0  0
   23.3203  -19.2007  -12.6040 O   0  0  0  0  0  0  0  0  0  0  0  0
   22.0835  -21.0835  -12.3156 N   0  0  0  0  0  0  0  0  0  0  0  0
   21.0608  -20.7476  -13.3193 C   0  0  1  0  0  0  0  0  0  0  0  0
   21.6755  -20.5779  -14.6583 C   0  0  0  0  0  0  0  0  0  0  0  0
   20.7461  -20.2131  -15.7357 C   0  0  0  0  0  0  0  0  0  0  0  0
   19.9755  -19.0434  -15.8343 C   0  0  0  0  0  0  0  0  0  0  0  0
   19.2208  -19.0744  -16.9424 N   0  0  0  0  0  0  0  0  0  0  0  0
   19.4562  -20.2267  -17.5972 C   0  0  0  0  0  0  0  0  0  0  0  0
   18.9319  -20.7094  -18.7955 C   0  0  0  0  0  0  0  0  0  0  0  0
   19.3928  -21.9346  -19.2244 C   0  0  0  0  0  0  0  0  0  0  0  0
   20.3236  -22.6621  -18.5199 C   0  0  0  0  0  0  0  0  0  0  0  0
   20.8228  -22.1665  -17.3451 C   0  0  0  0  0  0  0  0  0  0  0  0
   20.3914  -20.9415  -16.8725 C   0  0  0  0  0  0  0  0  0  0  0  0
   19.9023  -21.6290  -13.2277 C   0  0  0  0  0  0  0  0  0  0  0  0
   20.1506  -23.0161  -13.2102 O   0  0  0  0  0  0  0  0  0  0  0  0
   18.7106  -21.2811  -13.1629 O   0  0  0  0  0  0  0  0  0  0  0  0
  1  5  1  0
  2  3  1  0
  2  1  1  0
  3  4  1  0
  5  4  1  0
  6  7  2  0
  5  6  1  1
  8  6  1  0
  9  8  1  0
  9 10  1  1
 11 12  1  0
 11 10  1  0
 13 12  1  0
 14 13  1  0
 15  9  1  0
 15 17  1  0
 16 15  2  0
 18 17  1  0
 18 29  1  0
 18 19  1  6
 19 20  1  0
 20 28  1  0
 21 20  2  0
 21 22  1  0
 22 23  1  0
 23 24  1  0
 24 25  2  0
 26 25  1  0
 27 26  2  0
 28 23  2  0
 28 27  1  0
 29 30  1  0
 31 29  2  0
M  END
$$$$
