PKW.pdb
     RDKit          3D

 31 33  0  0  1  0  0  0  0  0999 V2000
   21.4746  -18.6737  -14.9033 N   0  0  0  0  0  0  0  0  0  0  0  0
   20.4532  -18.4044  -15.8745 C   0  0  0  0  0  0  0  0  0  0  0  0
   19.8684  -19.7765  -16.1685 C   0  0  0  0  0  0  0  0  0  0  0  0
   19.8481  -20.4161  -14.7809 C   0  0  0  0  0  0  0  0  0  0  0  0
   20.8425  -19.6077  -14.0027 C   0  0  1  0  0  0  0  0  0  0  0  0
   21.9023  -20.4615  -13.4009 C   0  0  0  0  0  0  0  0  0  0  0  0
   21.5968  -21.3562  -12.5849 O   0  0  0  0  0  0  0  0  0  0  0  0
   23.2757  -20.2654  -13.7499 N   0  0  0  0  0  0  0  0  0  0  0  0
   24.3671  -21.0108  -13.2096 C   0  0  1  0  0  0  0  0  0  0  0  0
   25.3991  -21.4174  -14.1977 C   0  0  0  0  0  0  0  0  0  0  0  0
   24.9693  -22.6017  -14.9878 C   0  0  0  0  0  0  0  0  0  0  0  0
   25.5321  -23.9039  -14.5177 C   0  0  0  0  0  0  0  0  0  0  0  0
   25.0246  -25.0699  -15.3696 C   0  0  0  0  0  0  0  0  0  0  0  0
   25.5353  -26.3265  -14.8547 N   0  0  0  0  0  0  0  0  0  0  0  0
   24.9523  -20.3269  -11.9937 C   0  0  0  0  0  0  0  0  0  0  0  0
   24.6609  -19.1331  -11.7427 O   0  0  0  0  0  0  0  0  0  0  0  0
   25.8243  -20.9796  -11.1141 N   0  0  0  0  0  0  0  0  0  0  0  0
   26.6261  -20.2813  -10.0966 C   0  0  1  0  0  0  0  0  0  0  0  0
   25.9307  -20.2856   -8.7866 C   0  0  0  0  0  0  0  0  0  0  0  0
   26.6192  -19.5667   -7.7064 C   0  0  0  0  0  0  0  0  0  0  0  0
   26.8628  -18.1863   -7.6240 C   0  0  0  0  0  0  0  0  0  0  0  0
   27.5466  -17.8995   -6.5065 N   0  0  0  0  0  0  0  0  0  0  0  0
   27.7730  -19.0408   -5.8298 C   0  0  0  0  0  0  0  0  0  0  0  0
   28.4219  -19.2586   -4.6152 C   0  0  0  0  0  0  0  0  0  0  0  0
   28.4745  -20.5596   -4.1654 C   0  0  0  0  0  0  0  0  0  0  0  0
   27.9208  -21.6065   -4.8651 C   0  0  0  0  0  0  0  0  0  0  0  0
   27.2894  -21.3666   -6.0561 C   0  0  0  0  0  0  0  0  0  0  0  0
   27.2107  -20.0781   -6.5500 C   0  0  0  0  0  0  0  0  0  0  0  0
   28.0179  -20.7176  -10.1108 C   0  0  0  0  0  0  0  0  0  0  0  0
   28.3412  -21.8052  -10.9467 O   0  0  0  0  0  0  0  0  0  0  0  0
   28.9545  -20.2263   -9.4577 O   0  0  0  0  0  0  0  0  0  0  0  0
  1  5  1  0
  2  3  1  0
  2  1  1  0
  3  4  1  0
  5  4  1  0
  6  7  2  0
  5  6  1  6
  8  6  1  0
  9  8  1  0
  9 10  1  6
 11 12  1  0
 11 10  1  0
 13 12  1  0
 14 13  1  0
 15  9  1  0
 15 17  1  0
 16 15  2  0
 18 17  1  0
 18 29  1  0
 18 19  1  1
 19 20  1  0
 20 28  1  0
 21 20  2  0
 21 22  1  0
 22 23  1  0
 23 24  1  0
 24 25  2  0
 26 25  1  0
 27 26  2  0
 28 23  2  0
 28 27  1  0
 29 30  1  0
 31 29  2  0
M  END
$$$$
