PKW.pdb
     RDKit          3D

 31 33  0  0  1  0  0  0  0  0999 V2000
   26.0450  -15.6304  -14.8782 N   0  0  0  0  0  0  0  0  0  0  0  0
   25.7377  -14.5781  -15.8042 C   0  0  0  0  0  0  0  0  0  0  0  0
   24.9978  -15.2918  -16.9240 C   0  0  0  0  0  0  0  0  0  0  0  0
   24.1348  -16.2870  -16.1495 C   0  0  0  0  0  0  0  0  0  0  0  0
   24.8217  -16.3941  -14.8212 C   0  0  1  0  0  0  0  0  0  0  0  0
   25.1690  -17.8021  -14.4879 C   0  0  0  0  0  0  0  0  0  0  0  0
   24.2940  -18.5738  -14.0421 O   0  0  0  0  0  0  0  0  0  0  0  0
   26.5035  -18.2827  -14.6739 N   0  0  0  0  0  0  0  0  0  0  0  0
   26.9225  -19.6290  -14.4489 C   0  0  1  0  0  0  0  0  0  0  0  0
   28.1007  -20.0604  -15.2442 C   0  0  0  0  0  0  0  0  0  0  0  0
   28.3425  -21.5228  -15.1222 C   0  0  0  0  0  0  0  0  0  0  0  0
   29.4297  -22.0515  -16.0008 C   0  0  0  0  0  0  0  0  0  0  0  0
   29.6432  -23.5511  -15.7812 C   0  0  0  0  0  0  0  0  0  0  0  0
   30.7093  -24.0363  -16.6373 N   0  0  0  0  0  0  0  0  0  0  0  0
   27.0699  -19.9200  -12.9718 C   0  0  0  0  0  0  0  0  0  0  0  0
   28.0432  -19.4533  -12.3331 O   0  0  0  0  0  0  0  0  0  0  0  0
   26.1487  -20.7042  -12.2671 N   0  0  0  0  0  0  0  0  0  0  0  0
   26.2670  -21.0045  -10.8311 C   0  0  1  0  0  0  0  0  0  0  0  0
   26.5159  -19.7657  -10.0546 C   0  0  0  0  0  0  0  0  0  0  0  0
   26.3130  -19.8806   -8.6044 C   0  0  0  0  0  0  0  0  0  0  0  0
   25.1272  -20.2264   -7.9364 C   0  0  0  0  0  0  0  0  0  0  0  0
   25.3147  -20.1978   -6.6088 N   0  0  0  0  0  0  0  0  0  0  0  0
   26.5890  -19.8446   -6.3568 C   0  0  0  0  0  0  0  0  0  0  0  0
   27.2631  -19.6941   -5.1457 C   0  0  0  0  0  0  0  0  0  0  0  0
   28.5920  -19.3381   -5.2165 C   0  0  0  0  0  0  0  0  0  0  0  0
   29.2404  -19.1360   -6.4126 C   0  0  0  0  0  0  0  0  0  0  0  0
   28.5558  -19.2893   -7.5885 C   0  0  0  0  0  0  0  0  0  0  0  0
   27.2205  -19.6453   -7.5701 C   0  0  0  0  0  0  0  0  0  0  0  0
   25.1896  -21.8724  -10.3690 C   0  0  0  0  0  0  0  0  0  0  0  0
   25.5494  -22.9637   -9.5531 O   0  0  0  0  0  0  0  0  0  0  0  0
   23.9788  -21.7483  -10.6219 O   0  0  0  0  0  0  0  0  0  0  0  0
  1  5  1  0
  2  3  1  0
  2  1  1  0
  3  4  1  0
  5  4  1  0
  6  7  2  0
  5  6  1  6
  8  6  1  0
  9  8  1  0
  9 10  1  6
 11 12  1  0
 11 10  1  0
 13 12  1  0
 14 13  1  0
 15  9  1  0
 15 17  1  0
 16 15  2  0
 18 17  1  0
 18 29  1  0
 18 19  1  1
 19 20  1  0
 20 28  1  0
 21 20  2  0
 21 22  1  0
 22 23  1  0
 23 24  1  0
 24 25  2  0
 26 25  1  0
 27 26  2  0
 28 23  2  0
 28 27  1  0
 29 30  1  0
 31 29  2  0
M  END
$$$$
