PKW.pdb
     RDKit          3D

 31 33  0  0  1  0  0  0  0  0999 V2000
   28.0574  -23.0594  -16.1139 N   0  0  0  0  0  0  0  0  0  0  0  0
   28.6843  -23.5225  -17.3188 C   0  0  0  0  0  0  0  0  0  0  0  0
   28.8267  -22.2613  -18.1555 C   0  0  0  0  0  0  0  0  0  0  0  0
   29.2222  -21.2262  -17.1033 C   0  0  0  0  0  0  0  0  0  0  0  0
   28.7698  -21.8408  -15.8129 C   0  0  1  0  0  0  0  0  0  0  0  0
   27.8533  -20.9414  -15.0610 C   0  0  0  0  0  0  0  0  0  0  0  0
   28.2269  -19.7938  -14.7398 O   0  0  0  0  0  0  0  0  0  0  0  0
   26.5409  -21.3818  -14.7000 N   0  0  0  0  0  0  0  0  0  0  0  0
   25.5567  -20.5685  -14.0608 C   0  0  1  0  0  0  0  0  0  0  0  0
   24.3275  -20.3273  -14.8594 C   0  0  0  0  0  0  0  0  0  0  0  0
   24.5624  -19.3424  -15.9487 C   0  0  0  0  0  0  0  0  0  0  0  0
   23.3680  -19.0564  -16.8002 C   0  0  0  0  0  0  0  0  0  0  0  0
   23.7049  -18.0658  -17.9173 C   0  0  0  0  0  0  0  0  0  0  0  0
   22.5674  -17.9031  -18.8031 N   0  0  0  0  0  0  0  0  0  0  0  0
   25.2629  -21.0587  -12.6602 C   0  0  0  0  0  0  0  0  0  0  0  0
   25.0913  -22.2824  -12.4454 O   0  0  0  0  0  0  0  0  0  0  0  0
   25.1718  -20.1899  -11.5661 N   0  0  0  0  0  0  0  0  0  0  0  0
   24.8151  -20.6282  -10.2072 C   0  0  1  0  0  0  0  0  0  0  0  0
   25.6037  -19.8874   -9.1928 C   0  0  0  0  0  0  0  0  0  0  0  0
   26.9767  -20.3679   -8.9894 C   0  0  0  0  0  0  0  0  0  0  0  0
   27.6599  -21.3350   -9.7443 C   0  0  0  0  0  0  0  0  0  0  0  0
   28.8867  -21.5373   -9.2420 N   0  0  0  0  0  0  0  0  0  0  0  0
   29.0563  -20.7381   -8.1722 C   0  0  0  0  0  0  0  0  0  0  0  0
   30.1560  -20.5738   -7.3312 C   0  0  0  0  0  0  0  0  0  0  0  0
   30.0291  -19.6483   -6.3189 C   0  0  0  0  0  0  0  0  0  0  0  0
   28.8824  -18.9124   -6.1297 C   0  0  0  0  0  0  0  0  0  0  0  0
   27.8157  -19.0928   -6.9689 C   0  0  0  0  0  0  0  0  0  0  0  0
   27.8939  -20.0102   -7.9997 C   0  0  0  0  0  0  0  0  0  0  0  0
   23.3699  -20.6795  -10.0167 C   0  0  0  0  0  0  0  0  0  0  0  0
   22.9020  -21.1755   -8.7833 O   0  0  0  0  0  0  0  0  0  0  0  0
   22.5024  -20.3287  -10.8350 O   0  0  0  0  0  0  0  0  0  0  0  0
  1  5  1  0
  2  3  1  0
  2  1  1  0
  3  4  1  0
  5  4  1  0
  6  7  2  0
  5  6  1  6
  8  6  1  0
  9  8  1  0
  9 10  1  6
 11 12  1  0
 11 10  1  0
 13 12  1  0
 14 13  1  0
 15  9  1  0
 15 17  1  0
 16 15  2  0
 18 17  1  0
 18 29  1  0
 18 19  1  1
 19 20  1  0
 20 28  1  0
 21 20  2  0
 21 22  1  0
 22 23  1  0
 23 24  1  0
 24 25  2  0
 26 25  1  0
 27 26  2  0
 28 23  2  0
 28 27  1  0
 29 30  1  0
 31 29  2  0
M  END
$$$$
