PKW.pdb
     RDKit          3D

 31 33  0  0  1  0  0  0  0  0999 V2000
   28.0855  -21.0871  -15.6345 N   0  0  0  0  0  0  0  0  0  0  0  0
   28.6673  -21.0158  -16.9443 C   0  0  0  0  0  0  0  0  0  0  0  0
   28.4161  -19.5781  -17.3697 C   0  0  0  0  0  0  0  0  0  0  0  0
   28.6702  -18.8145  -16.0706 C   0  0  0  0  0  0  0  0  0  0  0  0
   28.5198  -19.8615  -15.0081 C   0  0  1  0  0  0  0  0  0  0  0  0
   27.5058  -19.4767  -13.9893 C   0  0  0  0  0  0  0  0  0  0  0  0
   27.6260  -18.4043  -13.3606 O   0  0  0  0  0  0  0  0  0  0  0  0
   26.3884  -20.3289  -13.7213 N   0  0  0  0  0  0  0  0  0  0  0  0
   25.3397  -20.0301  -12.7997 C   0  0  1  0  0  0  0  0  0  0  0  0
   23.9720  -20.0444  -13.3795 C   0  0  0  0  0  0  0  0  0  0  0  0
   23.8385  -19.0760  -14.5003 C   0  0  0  0  0  0  0  0  0  0  0  0
   22.5273  -19.1259  -15.2158 C   0  0  0  0  0  0  0  0  0  0  0  0
   22.4736  -18.1015  -16.3518 C   0  0  0  0  0  0  0  0  0  0  0  0
   23.3201  -18.5267  -17.4507 N   0  0  0  0  0  0  0  0  0  0  0  0
   25.4561  -20.8654  -11.5438 C   0  0  0  0  0  0  0  0  0  0  0  0
   26.3527  -21.7374  -11.4496 O   0  0  0  0  0  0  0  0  0  0  0  0
   24.5898  -20.7068  -10.4555 N   0  0  0  0  0  0  0  0  0  0  0  0
   24.9473  -21.0630   -9.0729 C   0  0  1  0  0  0  0  0  0  0  0  0
   26.3039  -20.5667   -8.7372 C   0  0  0  0  0  0  0  0  0  0  0  0
   26.7330  -20.7970   -7.3513 C   0  0  0  0  0  0  0  0  0  0  0  0
   26.2859  -21.8020   -6.4785 C   0  0  0  0  0  0  0  0  0  0  0  0
   26.8798  -21.6788   -5.2825 N   0  0  0  0  0  0  0  0  0  0  0  0
   27.7147  -20.6235   -5.3178 C   0  0  0  0  0  0  0  0  0  0  0  0
   28.5593  -20.1053   -4.3370 C   0  0  0  0  0  0  0  0  0  0  0  0
   29.3187  -19.0110   -4.6885 C   0  0  0  0  0  0  0  0  0  0  0  0
   29.2610  -18.4424   -5.9396 C   0  0  0  0  0  0  0  0  0  0  0  0
   28.4228  -18.9696   -6.8853 C   0  0  0  0  0  0  0  0  0  0  0  0
   27.6400  -20.0672   -6.5810 C   0  0  0  0  0  0  0  0  0  0  0  0
   23.8740  -20.7459   -8.1374 C   0  0  0  0  0  0  0  0  0  0  0  0
   22.9275  -19.7858   -8.5477 O   0  0  0  0  0  0  0  0  0  0  0  0
   23.7066  -21.2381   -7.0083 O   0  0  0  0  0  0  0  0  0  0  0  0
  1  5  1  0
  2  3  1  0
  2  1  1  0
  3  4  1  0
  5  4  1  0
  6  7  2  0
  5  6  1  1
  8  6  1  0
  9  8  1  0
  9 10  1  6
 11 12  1  0
 11 10  1  0
 13 12  1  0
 14 13  1  0
 15  9  1  0
 15 17  1  0
 16 15  2  0
 18 17  1  0
 18 29  1  0
 18 19  1  1
 19 20  1  0
 20 28  1  0
 21 20  2  0
 21 22  1  0
 22 23  1  0
 23 24  1  0
 24 25  2  0
 26 25  1  0
 27 26  2  0
 28 23  2  0
 28 27  1  0
 29 30  1  0
 31 29  2  0
M  END
$$$$
