PKW.pdb
     RDKit          3D

 31 33  0  0  1  0  0  0  0  0999 V2000
   27.1390  -21.1781  -16.0343 N   0  0  0  0  0  0  0  0  0  0  0  0
   27.8016  -20.9289  -17.2825 C   0  0  0  0  0  0  0  0  0  0  0  0
   28.0580  -19.4307  -17.2585 C   0  0  0  0  0  0  0  0  0  0  0  0
   28.4546  -19.2005  -15.8009 C   0  0  0  0  0  0  0  0  0  0  0  0
   27.9013  -20.3983  -15.0890 C   0  0  1  0  0  0  0  0  0  0  0  0
   26.9980  -20.0115  -13.9714 C   0  0  0  0  0  0  0  0  0  0  0  0
   27.3855  -19.1986  -13.1062 O   0  0  0  0  0  0  0  0  0  0  0  0
   25.6825  -20.5658  -13.8782 N   0  0  0  0  0  0  0  0  0  0  0  0
   24.7190  -20.2125  -12.8856 C   0  0  1  0  0  0  0  0  0  0  0  0
   23.3031  -20.4242  -13.2823 C   0  0  0  0  0  0  0  0  0  0  0  0
   22.6894  -19.1807  -13.8197 C   0  0  0  0  0  0  0  0  0  0  0  0
   21.2484  -19.3073  -14.1953 C   0  0  0  0  0  0  0  0  0  0  0  0
   20.6822  -17.9734  -14.6879 C   0  0  0  0  0  0  0  0  0  0  0  0
   19.2808  -18.1206  -15.0334 N   0  0  0  0  0  0  0  0  0  0  0  0
   25.0550  -20.8321  -11.5471 C   0  0  0  0  0  0  0  0  0  0  0  0
   24.8531  -22.0544  -11.3517 O   0  0  0  0  0  0  0  0  0  0  0  0
   25.5943  -20.0877  -10.4911 N   0  0  0  0  0  0  0  0  0  0  0  0
   25.9358  -20.6644   -9.1808 C   0  0  1  0  0  0  0  0  0  0  0  0
   27.2261  -20.1229   -8.6893 C   0  0  0  0  0  0  0  0  0  0  0  0
   27.6027  -20.5312   -7.3295 C   0  0  0  0  0  0  0  0  0  0  0  0
   27.5088  -21.8160   -6.7707 C   0  0  0  0  0  0  0  0  0  0  0  0
   27.9164  -21.7997   -5.4932 N   0  0  0  0  0  0  0  0  0  0  0  0
   28.2837  -20.5458   -5.1696 C   0  0  0  0  0  0  0  0  0  0  0  0
   28.7874  -20.0304   -3.9761 C   0  0  0  0  0  0  0  0  0  0  0  0
   29.0945  -18.6876   -3.9617 C   0  0  0  0  0  0  0  0  0  0  0  0
   28.9199  -17.8777   -5.0597 C   0  0  0  0  0  0  0  0  0  0  0  0
   28.4227  -18.4078   -6.2202 C   0  0  0  0  0  0  0  0  0  0  0  0
   28.0991  -19.7499   -6.2846 C   0  0  0  0  0  0  0  0  0  0  0  0
   24.8052  -20.6241   -8.2602 C   0  0  0  0  0  0  0  0  0  0  0  0
   24.7312  -21.6428   -7.2892 O   0  0  0  0  0  0  0  0  0  0  0  0
   23.8940  -19.7787   -8.2432 O   0  0  0  0  0  0  0  0  0  0  0  0
  1  5  1  0
  2  3  1  0
  2  1  1  0
  3  4  1  0
  5  4  1  0
  6  7  2  0
  5  6  1  1
  8  6  1  0
  9  8  1  0
  9 10  1  6
 11 12  1  0
 11 10  1  0
 13 12  1  0
 14 13  1  0
 15  9  1  0
 15 17  1  0
 16 15  2  0
 18 17  1  0
 18 29  1  0
 18 19  1  1
 19 20  1  0
 20 28  1  0
 21 20  2  0
 21 22  1  0
 22 23  1  0
 23 24  1  0
 24 25  2  0
 26 25  1  0
 27 26  2  0
 28 23  2  0
 28 27  1  0
 29 30  1  0
 31 29  2  0
M  END
$$$$
