PKW.pdb
     RDKit          3D

 31 33  0  0  1  0  0  0  0  0999 V2000
   29.3273  -18.8106  -16.5989 N   0  0  0  0  0  0  0  0  0  0  0  0
   30.0590  -17.9410  -17.4750 C   0  0  0  0  0  0  0  0  0  0  0  0
   29.0016  -17.4370  -18.4438 C   0  0  0  0  0  0  0  0  0  0  0  0
   27.8028  -17.2225  -17.5208 C   0  0  0  0  0  0  0  0  0  0  0  0
   28.1185  -18.0709  -16.3257 C   0  0  1  0  0  0  0  0  0  0  0  0
   27.0332  -19.0466  -16.0354 C   0  0  0  0  0  0  0  0  0  0  0  0
   25.8677  -18.6450  -15.8350 O   0  0  0  0  0  0  0  0  0  0  0  0
   27.3141  -20.4484  -15.9829 N   0  0  0  0  0  0  0  0  0  0  0  0
   26.3504  -21.4612  -15.6928 C   0  0  1  0  0  0  0  0  0  0  0  0
   26.4993  -22.7124  -16.4795 C   0  0  0  0  0  0  0  0  0  0  0  0
   26.5518  -22.4417  -17.9409 C   0  0  0  0  0  0  0  0  0  0  0  0
   26.7610  -23.6515  -18.7931 C   0  0  0  0  0  0  0  0  0  0  0  0
   26.8322  -23.2821  -20.2767 C   0  0  0  0  0  0  0  0  0  0  0  0
   27.2303  -24.4352  -21.0620 N   0  0  0  0  0  0  0  0  0  0  0  0
   26.2443  -21.7098  -14.2044 C   0  0  0  0  0  0  0  0  0  0  0  0
   27.1395  -22.3562  -13.6096 O   0  0  0  0  0  0  0  0  0  0  0  0
   25.1684  -21.2407  -13.4412 N   0  0  0  0  0  0  0  0  0  0  0  0
   25.1105  -21.3343  -11.9736 C   0  0  1  0  0  0  0  0  0  0  0  0
   26.3817  -20.8692  -11.3676 C   0  0  0  0  0  0  0  0  0  0  0  0
   26.3258  -20.5867   -9.9272 C   0  0  0  0  0  0  0  0  0  0  0  0
   25.1825  -20.3205   -9.1566 C   0  0  0  0  0  0  0  0  0  0  0  0
   25.5250  -20.0779   -7.8829 N   0  0  0  0  0  0  0  0  0  0  0  0
   26.8627  -20.1719   -7.7664 C   0  0  0  0  0  0  0  0  0  0  0  0
   27.6862  -20.0227   -6.6513 C   0  0  0  0  0  0  0  0  0  0  0  0
   29.0372  -20.2036   -6.8502 C   0  0  0  0  0  0  0  0  0  0  0  0
   29.5679  -20.5161   -8.0801 C   0  0  0  0  0  0  0  0  0  0  0  0
   28.7380  -20.6566   -9.1601 C   0  0  0  0  0  0  0  0  0  0  0  0
   27.3747  -20.4845   -9.0117 C   0  0  0  0  0  0  0  0  0  0  0  0
   23.8758  -20.7672  -11.4433 C   0  0  0  0  0  0  0  0  0  0  0  0
   23.4856  -19.5054  -11.9351 O   0  0  0  0  0  0  0  0  0  0  0  0
   23.1269  -21.2849  -10.5968 O   0  0  0  0  0  0  0  0  0  0  0  0
  1  5  1  0
  2  3  1  0
  2  1  1  0
  3  4  1  0
  5  4  1  0
  6  7  2  0
  5  6  1  6
  8  6  1  0
  9  8  1  0
  9 10  1  6
 11 12  1  0
 11 10  1  0
 13 12  1  0
 14 13  1  0
 15  9  1  0
 15 17  1  0
 16 15  2  0
 18 17  1  0
 18 29  1  0
 18 19  1  1
 19 20  1  0
 20 28  1  0
 21 20  2  0
 21 22  1  0
 22 23  1  0
 23 24  1  0
 24 25  2  0
 26 25  1  0
 27 26  2  0
 28 23  2  0
 28 27  1  0
 29 30  1  0
 31 29  2  0
M  END
$$$$
