PKW.pdb
     RDKit          3D

 31 33  0  0  1  0  0  0  0  0999 V2000
   29.1238  -20.0821  -16.2361 N   0  0  0  0  0  0  0  0  0  0  0  0
   29.8434  -19.7815  -17.4407 C   0  0  0  0  0  0  0  0  0  0  0  0
   29.4507  -18.3444  -17.7429 C   0  0  0  0  0  0  0  0  0  0  0  0
   29.4400  -17.7190  -16.3487 C   0  0  0  0  0  0  0  0  0  0  0  0
   29.3079  -18.8979  -15.4318 C   0  0  1  0  0  0  0  0  0  0  0  0
   28.1358  -18.7666  -14.5244 C   0  0  0  0  0  0  0  0  0  0  0  0
   27.9954  -17.7395  -13.8281 O   0  0  0  0  0  0  0  0  0  0  0  0
   27.1631  -19.8124  -14.4415 N   0  0  0  0  0  0  0  0  0  0  0  0
   25.9532  -19.7404  -13.6868 C   0  0  1  0  0  0  0  0  0  0  0  0
   24.7224  -20.0945  -14.4395 C   0  0  0  0  0  0  0  0  0  0  0  0
   24.5008  -19.1830  -15.5936 C   0  0  0  0  0  0  0  0  0  0  0  0
   23.2860  -19.4906  -16.4080 C   0  0  0  0  0  0  0  0  0  0  0  0
   22.0326  -18.8568  -15.7995 C   0  0  0  0  0  0  0  0  0  0  0  0
   21.7411  -17.5948  -16.4533 N   0  0  0  0  0  0  0  0  0  0  0  0
   26.0771  -20.4851  -12.3759 C   0  0  0  0  0  0  0  0  0  0  0  0
   27.0506  -21.2506  -12.1772 O   0  0  0  0  0  0  0  0  0  0  0  0
   25.1340  -20.3567  -11.3492 N   0  0  0  0  0  0  0  0  0  0  0  0
   25.2866  -20.9758  -10.0227 C   0  0  1  0  0  0  0  0  0  0  0  0
   26.6328  -20.6983   -9.4658 C   0  0  0  0  0  0  0  0  0  0  0  0
   26.6923  -20.5556   -8.0051 C   0  0  0  0  0  0  0  0  0  0  0  0
   25.6529  -20.7732   -7.0864 C   0  0  0  0  0  0  0  0  0  0  0  0
   26.0709  -20.5124   -5.8391 N   0  0  0  0  0  0  0  0  0  0  0  0
   27.3596  -20.1261   -5.8839 C   0  0  0  0  0  0  0  0  0  0  0  0
   28.2326  -19.7680   -4.8575 C   0  0  0  0  0  0  0  0  0  0  0  0
   29.5180  -19.4358   -5.2252 C   0  0  0  0  0  0  0  0  0  0  0  0
   29.9393  -19.4501   -6.5345 C   0  0  0  0  0  0  0  0  0  0  0  0
   29.0624  -19.8048   -7.5244 C   0  0  0  0  0  0  0  0  0  0  0  0
   27.7614  -20.1461   -7.2063 C   0  0  0  0  0  0  0  0  0  0  0  0
   24.1421  -20.6997   -9.1616 C   0  0  0  0  0  0  0  0  0  0  0  0
   23.8159  -21.6729   -8.1958 O   0  0  0  0  0  0  0  0  0  0  0  0
   23.4200  -19.6884   -9.1914 O   0  0  0  0  0  0  0  0  0  0  0  0
  1  5  1  0
  2  3  1  0
  2  1  1  0
  3  4  1  0
  5  4  1  0
  6  7  2  0
  5  6  1  1
  8  6  1  0
  9  8  1  0
  9 10  1  6
 11 12  1  0
 11 10  1  0
 13 12  1  0
 14 13  1  0
 15  9  1  0
 15 17  1  0
 16 15  2  0
 18 17  1  0
 18 29  1  0
 18 19  1  1
 19 20  1  0
 20 28  1  0
 21 20  2  0
 21 22  1  0
 22 23  1  0
 23 24  1  0
 24 25  2  0
 26 25  1  0
 27 26  2  0
 28 23  2  0
 28 27  1  0
 29 30  1  0
 31 29  2  0
M  END
$$$$
