PKW.pdb
     RDKit          3D

 31 33  0  0  1  0  0  0  0  0999 V2000
   29.1104  -21.1669  -19.3171 N   0  0  0  0  0  0  0  0  0  0  0  0
   30.2654  -21.2767  -20.1616 C   0  0  0  0  0  0  0  0  0  0  0  0
   29.7733  -22.1094  -21.3344 C   0  0  0  0  0  0  0  0  0  0  0  0
   28.3685  -21.5492  -21.5532 C   0  0  0  0  0  0  0  0  0  0  0  0
   28.0413  -20.8910  -20.2465 C   0  0  1  0  0  0  0  0  0  0  0  0
   26.7748  -21.4122  -19.6644 C   0  0  0  0  0  0  0  0  0  0  0  0
   25.6950  -21.2530  -20.2713 O   0  0  0  0  0  0  0  0  0  0  0  0
   26.7826  -22.0975  -18.4087 N   0  0  0  0  0  0  0  0  0  0  0  0
   25.6406  -22.7084  -17.8078 C   0  0  1  0  0  0  0  0  0  0  0  0
   25.9442  -23.8208  -16.8712 C   0  0  0  0  0  0  0  0  0  0  0  0
   26.5609  -24.9786  -17.5720 C   0  0  0  0  0  0  0  0  0  0  0  0
   26.8607  -26.1515  -16.6958 C   0  0  0  0  0  0  0  0  0  0  0  0
   27.5443  -27.2732  -17.4815 C   0  0  0  0  0  0  0  0  0  0  0  0
   27.7345  -28.4352  -16.6338 N   0  0  0  0  0  0  0  0  0  0  0  0
   24.7121  -21.6733  -17.2122 C   0  0  0  0  0  0  0  0  0  0  0  0
   25.1314  -20.8856  -16.3308 O   0  0  0  0  0  0  0  0  0  0  0  0
   23.3749  -21.5498  -17.6082 N   0  0  0  0  0  0  0  0  0  0  0  0
   22.4491  -20.5534  -17.0462 C   0  0  1  0  0  0  0  0  0  0  0  0
   22.2111  -19.4541  -18.0129 C   0  0  0  0  0  0  0  0  0  0  0  0
   21.3022  -19.7763  -19.1209 C   0  0  0  0  0  0  0  0  0  0  0  0
   19.8994  -19.8245  -19.0835 C   0  0  0  0  0  0  0  0  0  0  0  0
   19.4132  -20.1858  -20.2800 N   0  0  0  0  0  0  0  0  0  0  0  0
   20.4415  -20.3830  -21.1260 C   0  0  0  0  0  0  0  0  0  0  0  0
   20.4484  -20.7488  -22.4713 C   0  0  0  0  0  0  0  0  0  0  0  0
   21.6803  -20.8512  -23.0792 C   0  0  0  0  0  0  0  0  0  0  0  0
   22.8573  -20.6091  -22.4098 C   0  0  0  0  0  0  0  0  0  0  0  0
   22.8238  -20.2518  -21.0884 C   0  0  0  0  0  0  0  0  0  0  0  0
   21.6121  -20.1362  -20.4337 C   0  0  0  0  0  0  0  0  0  0  0  0
   21.2740  -21.1808  -16.4520 C   0  0  0  0  0  0  0  0  0  0  0  0
   20.4311  -20.3599  -15.6761 O   0  0  0  0  0  0  0  0  0  0  0  0
   20.9366  -22.3723  -16.5597 O   0  0  0  0  0  0  0  0  0  0  0  0
  1  5  1  0
  2  3  1  0
  2  1  1  0
  3  4  1  0
  5  4  1  0
  6  7  2  0
  5  6  1  1
  8  6  1  0
  9  8  1  0
  9 10  1  1
 11 12  1  0
 11 10  1  0
 13 12  1  0
 14 13  1  0
 15  9  1  0
 15 17  1  0
 16 15  2  0
 18 17  1  0
 18 29  1  0
 18 19  1  6
 19 20  1  0
 20 28  1  0
 21 20  2  0
 21 22  1  0
 22 23  1  0
 23 24  1  0
 24 25  2  0
 26 25  1  0
 27 26  2  0
 28 23  2  0
 28 27  1  0
 29 30  1  0
 31 29  2  0
M  END
$$$$
