PKW.pdb
     RDKit          3D

 31 33  0  0  1  0  0  0  0  0999 V2000
   25.8771  -17.1192  -15.2056 N   0  0  0  0  0  0  0  0  0  0  0  0
   25.9645  -16.3147  -16.3906 C   0  0  0  0  0  0  0  0  0  0  0  0
   24.6710  -16.6219  -17.1278 C   0  0  0  0  0  0  0  0  0  0  0  0
   23.6618  -16.6886  -15.9823 C   0  0  0  0  0  0  0  0  0  0  0  0
   24.5135  -16.9301  -14.7724 C   0  0  1  0  0  0  0  0  0  0  0  0
   24.0897  -18.1479  -14.0295 C   0  0  0  0  0  0  0  0  0  0  0  0
   22.9341  -18.2256  -13.5624 O   0  0  0  0  0  0  0  0  0  0  0  0
   24.9992  -19.2364  -13.8438 N   0  0  0  0  0  0  0  0  0  0  0  0
   24.6495  -20.5029  -13.2850 C   0  0  1  0  0  0  0  0  0  0  0  0
   24.5705  -21.6193  -14.2618 C   0  0  0  0  0  0  0  0  0  0  0  0
   24.0345  -22.8592  -13.6396 C   0  0  0  0  0  0  0  0  0  0  0  0
   23.9918  -24.0455  -14.5476 C   0  0  0  0  0  0  0  0  0  0  0  0
   23.3522  -25.2524  -13.8570 C   0  0  0  0  0  0  0  0  0  0  0  0
   23.3675  -26.4024  -14.7415 N   0  0  0  0  0  0  0  0  0  0  0  0
   25.5085  -20.8305  -12.0837 C   0  0  0  0  0  0  0  0  0  0  0  0
   26.7164  -21.1310  -12.2377 O   0  0  0  0  0  0  0  0  0  0  0  0
   25.0068  -20.8133  -10.7767 N   0  0  0  0  0  0  0  0  0  0  0  0
   25.8285  -21.0863   -9.5866 C   0  0  1  0  0  0  0  0  0  0  0  0
   26.9532  -20.1239   -9.4934 C   0  0  0  0  0  0  0  0  0  0  0  0
   28.0046  -20.4763   -8.5301 C   0  0  0  0  0  0  0  0  0  0  0  0
   29.0668  -21.3746   -8.7213 C   0  0  0  0  0  0  0  0  0  0  0  0
   29.8079  -21.4641   -7.6072 N   0  0  0  0  0  0  0  0  0  0  0  0
   29.2821  -20.6551   -6.6686 C   0  0  0  0  0  0  0  0  0  0  0  0
   29.6993  -20.3921   -5.3645 C   0  0  0  0  0  0  0  0  0  0  0  0
   28.9524  -19.4845   -4.6462 C   0  0  0  0  0  0  0  0  0  0  0  0
   27.8460  -18.8580   -5.1709 C   0  0  0  0  0  0  0  0  0  0  0  0
   27.4562  -19.1340   -6.4542 C   0  0  0  0  0  0  0  0  0  0  0  0
   28.1728  -20.0379   -7.2154 C   0  0  0  0  0  0  0  0  0  0  0  0
   25.0096  -21.2679   -8.3934 C   0  0  0  0  0  0  0  0  0  0  0  0
   25.3850  -22.2978   -7.5077 O   0  0  0  0  0  0  0  0  0  0  0  0
   24.0083  -20.6039   -8.0745 O   0  0  0  0  0  0  0  0  0  0  0  0
  1  5  1  0
  2  3  1  0
  2  1  1  0
  3  4  1  0
  5  4  1  0
  6  7  2  0
  5  6  1  6
  8  6  1  0
  9  8  1  0
  9 10  1  6
 11 12  1  0
 11 10  1  0
 13 12  1  0
 14 13  1  0
 15  9  1  0
 15 17  1  0
 16 15  2  0
 18 17  1  0
 18 29  1  0
 18 19  1  1
 19 20  1  0
 20 28  1  0
 21 20  2  0
 21 22  1  0
 22 23  1  0
 23 24  1  0
 24 25  2  0
 26 25  1  0
 27 26  2  0
 28 23  2  0
 28 27  1  0
 29 30  1  0
 31 29  2  0
M  END
$$$$
