PKW.pdb
     RDKit          3D

 31 33  0  0  1  0  0  0  0  0999 V2000
   28.1767  -19.9684  -16.1611 N   0  0  0  0  0  0  0  0  0  0  0  0
   28.8391  -19.5310  -17.3566 C   0  0  0  0  0  0  0  0  0  0  0  0
   28.6124  -18.0279  -17.3617 C   0  0  0  0  0  0  0  0  0  0  0  0
   28.7835  -17.6767  -15.8844 C   0  0  0  0  0  0  0  0  0  0  0  0
   28.5690  -18.9836  -15.1816 C   0  0  1  0  0  0  0  0  0  0  0  0
   27.4927  -18.8931  -14.1580 C   0  0  0  0  0  0  0  0  0  0  0  0
   27.5067  -17.9719  -13.3149 O   0  0  0  0  0  0  0  0  0  0  0  0
   26.4363  -19.8574  -14.1304 N   0  0  0  0  0  0  0  0  0  0  0  0
   25.3320  -19.8290  -13.2257 C   0  0  1  0  0  0  0  0  0  0  0  0
   24.0468  -20.3162  -13.7893 C   0  0  0  0  0  0  0  0  0  0  0  0
   23.5524  -19.4325  -14.8785 C   0  0  0  0  0  0  0  0  0  0  0  0
   22.2490  -19.8503  -15.4786 C   0  0  0  0  0  0  0  0  0  0  0  0
   21.8749  -18.9646  -16.6695 C   0  0  0  0  0  0  0  0  0  0  0  0
   20.5765  -19.3479  -17.1911 N   0  0  0  0  0  0  0  0  0  0  0  0
   25.6833  -20.4832  -11.9077 C   0  0  0  0  0  0  0  0  0  0  0  0
   26.7716  -21.0931  -11.7789 O   0  0  0  0  0  0  0  0  0  0  0  0
   24.8306  -20.4384  -10.7983 N   0  0  0  0  0  0  0  0  0  0  0  0
   25.2029  -20.9401   -9.4657 C   0  0  1  0  0  0  0  0  0  0  0  0
   26.5223  -20.4033   -9.0526 C   0  0  0  0  0  0  0  0  0  0  0  0
   26.9256  -20.7160   -7.6753 C   0  0  0  0  0  0  0  0  0  0  0  0
   26.5437  -21.8292   -6.9093 C   0  0  0  0  0  0  0  0  0  0  0  0
   27.0851  -21.7601   -5.6843 N   0  0  0  0  0  0  0  0  0  0  0  0
   27.8214  -20.6367   -5.5967 C   0  0  0  0  0  0  0  0  0  0  0  0
   28.5834  -20.1347   -4.5426 C   0  0  0  0  0  0  0  0  0  0  0  0
   29.2511  -18.9513   -4.7694 C   0  0  0  0  0  0  0  0  0  0  0  0
   29.1824  -18.2821   -5.9692 C   0  0  0  0  0  0  0  0  0  0  0  0
   28.4264  -18.7955   -6.9889 C   0  0  0  0  0  0  0  0  0  0  0  0
   27.7373  -19.9801   -6.8102 C   0  0  0  0  0  0  0  0  0  0  0  0
   24.1060  -20.8115   -8.5129 C   0  0  0  0  0  0  0  0  0  0  0  0
   24.0861  -21.7146   -7.4311 O   0  0  0  0  0  0  0  0  0  0  0  0
   23.1809  -19.9824   -8.5564 O   0  0  0  0  0  0  0  0  0  0  0  0
  1  5  1  0
  2  3  1  0
  2  1  1  0
  3  4  1  0
  5  4  1  0
  6  7  2  0
  5  6  1  1
  8  6  1  0
  9  8  1  0
  9 10  1  6
 11 12  1  0
 11 10  1  0
 13 12  1  0
 14 13  1  0
 15  9  1  0
 15 17  1  0
 16 15  2  0
 18 17  1  0
 18 29  1  0
 18 19  1  1
 19 20  1  0
 20 28  1  0
 21 20  2  0
 21 22  1  0
 22 23  1  0
 23 24  1  0
 24 25  2  0
 26 25  1  0
 27 26  2  0
 28 23  2  0
 28 27  1  0
 29 30  1  0
 31 29  2  0
M  END
$$$$
