QQC.pdb
     RDKit          3D

 25 24  0  0  1  0  0  0  0  0999 V2000
   24.5455  -31.5291  -17.4608 N   0  0  0  0  0  0  0  0  0  0  0  0
   24.7940  -32.7273  -16.7504 C   0  0  0  0  0  0  0  0  0  0  0  0
   24.0457  -33.7079  -16.8349 O   0  0  0  0  0  0  0  0  0  0  0  0
   26.0160  -32.7761  -15.8733 C   0  0  0  0  0  0  0  0  0  0  0  0
   26.6563  -31.4249  -15.9041 C   0  0  0  0  0  0  0  0  0  0  0  0
   27.7343  -31.2606  -16.9186 C   0  0  2  0  0  0  0  0  0  0  0  0
   28.8977  -31.9908  -16.3522 N   0  0  0  0  0  0  0  0  0  0  0  0
   28.1893  -29.8917  -17.1699 C   0  0  0  0  0  0  0  0  0  0  0  0
   29.0687  -29.3636  -16.3997 O   0  0  0  0  0  0  0  0  0  0  0  0
   27.4441  -24.5530  -20.6844 N   0  0  0  0  0  0  0  0  0  0  0  0
   28.2501  -25.6006  -21.1917 C   0  0  0  0  0  0  0  0  0  0  0  0
   28.1510  -25.9042  -22.3977 O   0  0  0  0  0  0  0  0  0  0  0  0
   29.1827  -26.3190  -20.3183 C   0  0  0  0  0  0  0  0  0  0  0  0
   28.6175  -27.6084  -19.8740 C   0  0  0  0  0  0  0  0  0  0  0  0
   28.2958  -27.6794  -18.3690 C   0  0  2  0  0  0  0  0  0  0  0  0
   27.7681  -29.0264  -18.2097 N   0  0  0  0  0  0  0  0  0  0  0  0
   27.3851  -26.6084  -17.9781 C   0  0  0  0  0  0  0  0  0  0  0  0
   26.1674  -26.8501  -17.7574 O   0  0  0  0  0  0  0  0  0  0  0  0
   27.7826  -25.2559  -17.8192 N   0  0  0  0  0  0  0  0  0  0  0  0
   26.8151  -24.2158  -17.4580 C   0  0  1  0  0  0  0  0  0  0  0  0
   26.4800  -24.3999  -15.9867 C   0  0  0  0  0  0  0  0  0  0  0  0
   25.4504  -23.0007  -15.4899 S   0  0  0  0  0  0  0  0  0  0  0  0
   27.3509  -22.8713  -17.7232 C   0  0  0  0  0  0  0  0  0  0  0  0
   26.6369  -21.9903  -18.2553 O   0  0  0  0  0  0  0  0  0  0  0  0
   28.6524  -22.5467  -17.3929 O   0  0  0  0  0  0  0  0  0  0  0  0
  1  2  1  0
  2  4  1  0
  3  2  2  0
  4  5  1  0
  6  5  1  0
  6  8  1  0
  6  7  1  1
  8  9  2  0
 10 11  1  0
 11 12  2  0
 11 13  1  0
 13 14  1  0
 15 14  1  6
 15 17  1  0
 16 15  1  0
 16  8  1  0
 17 19  1  0
 17 18  2  0
 19 20  1  0
 20 23  1  0
 20 21  1  1
 22 21  1  0
 23 24  2  0
 23 25  1  0
M  END
$$$$
