QQC.pdb
     RDKit          3D

 25 24  0  0  1  0  0  0  0  0999 V2000
   25.0515  -20.7747  -10.2973 N   0  0  0  0  0  0  0  0  0  0  0  0
   26.4436  -20.7039  -10.5406 C   0  0  0  0  0  0  0  0  0  0  0  0
   27.2752  -20.8156   -9.6325 O   0  0  0  0  0  0  0  0  0  0  0  0
   26.8920  -20.4849  -11.9604 C   0  0  0  0  0  0  0  0  0  0  0  0
   25.6704  -20.3048  -12.8042 C   0  0  0  0  0  0  0  0  0  0  0  0
   24.9209  -21.5564  -13.1045 C   0  0  2  0  0  0  0  0  0  0  0  0
   25.8038  -22.3097  -14.0321 N   0  0  0  0  0  0  0  0  0  0  0  0
   23.6384  -21.3985  -13.7931 C   0  0  0  0  0  0  0  0  0  0  0  0
   23.5636  -21.6200  -15.0544 O   0  0  0  0  0  0  0  0  0  0  0  0
   19.1022  -23.7094  -13.3936 N   0  0  0  0  0  0  0  0  0  0  0  0
   18.2681  -22.6094  -13.7077 C   0  0  0  0  0  0  0  0  0  0  0  0
   17.1563  -22.8287  -14.2298 O   0  0  0  0  0  0  0  0  0  0  0  0
   18.7006  -21.2370  -13.4285 C   0  0  0  0  0  0  0  0  0  0  0  0
   20.0825  -21.2043  -12.9100 C   0  0  0  0  0  0  0  0  0  0  0  0
   21.1624  -20.9791  -13.9855 C   0  0  2  0  0  0  0  0  0  0  0  0
   22.3999  -21.0170  -13.2204 N   0  0  0  0  0  0  0  0  0  0  0  0
   20.9237  -19.7374  -14.7138 C   0  0  0  0  0  0  0  0  0  0  0  0
   21.0624  -18.6217  -14.1429 O   0  0  0  0  0  0  0  0  0  0  0  0
   20.5311  -19.6869  -16.0761 N   0  0  0  0  0  0  0  0  0  0  0  0
   20.3339  -18.4080  -16.7644 C   0  0  1  0  0  0  0  0  0  0  0  0
   20.6231  -18.6376  -18.2390 C   0  0  0  0  0  0  0  0  0  0  0  0
   22.4038  -18.8950  -18.4046 S   0  0  0  0  0  0  0  0  0  0  0  0
   18.9709  -17.8936  -16.5576 C   0  0  0  0  0  0  0  0  0  0  0  0
   18.1141  -18.5753  -15.9490 O   0  0  0  0  0  0  0  0  0  0  0  0
   18.6019  -16.6484  -17.0282 O   0  0  0  0  0  0  0  0  0  0  0  0
  1  2  1  0
  2  4  1  0
  3  2  2  0
  4  5  1  0
  6  5  1  0
  6  8  1  0
  6  7  1  6
  8  9  2  0
 10 11  1  0
 11 12  2  0
 11 13  1  0
 13 14  1  0
 15 14  1  1
 15 17  1  0
 16 15  1  0
 16  8  1  0
 17 19  1  0
 17 18  2  0
 19 20  1  0
 20 23  1  0
 20 21  1  6
 22 21  1  0
 23 24  2  0
 23 25  1  0
M  END
$$$$
