QQC.pdb
     RDKit          3D

 25 24  0  0  1  0  0  0  0  0999 V2000
   17.9265  -15.1451  -13.5453 N   0  0  0  0  0  0  0  0  0  0  0  0
   17.4421  -14.4642  -14.6872 C   0  0  0  0  0  0  0  0  0  0  0  0
   16.3199  -13.9461  -14.7157 O   0  0  0  0  0  0  0  0  0  0  0  0
   18.3468  -14.3867  -15.8874 C   0  0  0  0  0  0  0  0  0  0  0  0
   18.7893  -12.9659  -16.0365 C   0  0  0  0  0  0  0  0  0  0  0  0
   17.8072  -12.0657  -16.7022 C   0  0  2  0  0  0  0  0  0  0  0  0
   17.7970  -12.5048  -18.1216 N   0  0  0  0  0  0  0  0  0  0  0  0
   18.1353  -10.6387  -16.7146 C   0  0  0  0  0  0  0  0  0  0  0  0
   19.0427  -10.2029  -17.5098 O   0  0  0  0  0  0  0  0  0  0  0  0
   14.6085   -9.2741  -16.0574 N   0  0  0  0  0  0  0  0  0  0  0  0
   14.6886   -8.2063  -16.9837 C   0  0  0  0  0  0  0  0  0  0  0  0
   13.8161   -8.1145  -17.8708 O   0  0  0  0  0  0  0  0  0  0  0  0
   15.7763   -7.2268  -16.9064 C   0  0  0  0  0  0  0  0  0  0  0  0
   16.6335   -7.4679  -15.7289 C   0  0  0  0  0  0  0  0  0  0  0  0
   17.9420   -8.2211  -16.0356 C   0  0  2  0  0  0  0  0  0  0  0  0
   17.5496   -9.6183  -15.9253 N   0  0  0  0  0  0  0  0  0  0  0  0
   19.0087   -7.8053  -15.1309 C   0  0  0  0  0  0  0  0  0  0  0  0
   19.0601   -8.2500  -13.9521 O   0  0  0  0  0  0  0  0  0  0  0  0
   20.0391   -6.8997  -15.4924 N   0  0  0  0  0  0  0  0  0  0  0  0
   21.1005   -6.5384  -14.5484 C   0  0  1  0  0  0  0  0  0  0  0  0
   22.4281   -6.7330  -15.2630 C   0  0  0  0  0  0  0  0  0  0  0  0
   23.7096   -5.9867  -14.2308 S   0  0  0  0  0  0  0  0  0  0  0  0
   20.9444   -5.1552  -14.0715 C   0  0  0  0  0  0  0  0  0  0  0  0
   20.3290   -4.3064  -14.7571 O   0  0  0  0  0  0  0  0  0  0  0  0
   21.4714   -4.7579  -12.8580 O   0  0  0  0  0  0  0  0  0  0  0  0
  1  2  1  0
  2  4  1  0
  3  2  2  0
  4  5  1  0
  6  5  1  0
  6  8  1  0
  6  7  1  6
  8  9  2  0
 10 11  1  0
 11 12  2  0
 11 13  1  0
 13 14  1  0
 15 14  1  1
 15 17  1  0
 16 15  1  0
 16  8  1  0
 17 19  1  0
 17 18  2  0
 19 20  1  0
 20 23  1  0
 20 21  1  6
 22 21  1  0
 23 24  2  0
 23 25  1  0
M  END
$$$$
