QQC.pdb
     RDKit          3D

 25 24  0  0  1  0  0  0  0  0999 V2000
   28.1824  -16.6011  -18.0473 N   0  0  0  0  0  0  0  0  0  0  0  0
   27.9317  -17.6974  -18.9060 C   0  0  0  0  0  0  0  0  0  0  0  0
   28.2121  -17.6659  -20.1099 O   0  0  0  0  0  0  0  0  0  0  0  0
   27.3031  -18.9247  -18.3031 C   0  0  0  0  0  0  0  0  0  0  0  0
   27.0307  -18.6384  -16.8607 C   0  0  0  0  0  0  0  0  0  0  0  0
   27.5023  -19.6835  -15.9100 C   0  0  2  0  0  0  0  0  0  0  0  0
   27.8255  -20.8530  -16.7675 N   0  0  0  0  0  0  0  0  0  0  0  0
   26.5286  -20.1530  -14.9223 C   0  0  0  0  0  0  0  0  0  0  0  0
   25.7120  -21.0924  -15.2327 O   0  0  0  0  0  0  0  0  0  0  0  0
   26.2606  -22.1136  -10.3208 N   0  0  0  0  0  0  0  0  0  0  0  0
   25.1780  -21.3973   -9.7558 C   0  0  0  0  0  0  0  0  0  0  0  0
   24.5133  -21.9329   -8.8459 O   0  0  0  0  0  0  0  0  0  0  0  0
   24.8399  -20.0522  -10.2304 C   0  0  0  0  0  0  0  0  0  0  0  0
   25.7216  -19.6366  -11.3391 C   0  0  0  0  0  0  0  0  0  0  0  0
   25.3031  -20.1713  -12.7221 C   0  0  2  0  0  0  0  0  0  0  0  0
   26.3613  -19.6856  -13.5953 N   0  0  0  0  0  0  0  0  0  0  0  0
   23.9591  -19.7229  -13.0710 C   0  0  0  0  0  0  0  0  0  0  0  0
   23.7882  -18.6695  -13.7427 O   0  0  0  0  0  0  0  0  0  0  0  0
   22.7772  -20.4126  -12.6967 N   0  0  0  0  0  0  0  0  0  0  0  0
   21.6045  -20.4451  -13.5754 C   0  0  1  0  0  0  0  0  0  0  0  0
   22.0338  -21.0962  -14.8802 C   0  0  0  0  0  0  0  0  0  0  0  0
   20.5672  -21.2201  -15.9282 S   0  0  0  0  0  0  0  0  0  0  0  0
   20.4889  -21.1746  -12.9521 C   0  0  0  0  0  0  0  0  0  0  0  0
   19.3303  -20.6984  -12.9554 O   0  0  0  0  0  0  0  0  0  0  0  0
   20.6902  -22.4008  -12.3487 O   0  0  0  0  0  0  0  0  0  0  0  0
  1  2  1  0
  2  4  1  0
  3  2  2  0
  4  5  1  0
  6  5  1  0
  6  8  1  0
  6  7  1  6
  8  9  2  0
 10 11  1  0
 11 12  2  0
 11 13  1  0
 13 14  1  0
 15 14  1  1
 15 17  1  0
 16 15  1  0
 16  8  1  0
 17 19  1  0
 17 18  2  0
 19 20  1  0
 20 23  1  0
 20 21  1  6
 22 21  1  0
 23 24  2  0
 23 25  1  0
M  END
$$$$
