QQC.pdb
     RDKit          3D

 25 24  0  0  1  0  0  0  0  0999 V2000
   15.3176  -13.4605  -14.9998 N   0  0  0  0  0  0  0  0  0  0  0  0
   15.0430  -13.7678  -16.3534 C   0  0  0  0  0  0  0  0  0  0  0  0
   14.0655  -14.4473  -16.6871 O   0  0  0  0  0  0  0  0  0  0  0  0
   15.9906  -13.2354  -17.3943 C   0  0  0  0  0  0  0  0  0  0  0  0
   16.9911  -12.3662  -16.7014 C   0  0  0  0  0  0  0  0  0  0  0  0
   18.3828  -12.4674  -17.2222 C   0  0  2  0  0  0  0  0  0  0  0  0
   18.8936  -13.7537  -16.6817 N   0  0  0  0  0  0  0  0  0  0  0  0
   19.3206  -11.4333  -16.7806 C   0  0  0  0  0  0  0  0  0  0  0  0
   19.5835  -11.3062  -15.5315 O   0  0  0  0  0  0  0  0  0  0  0  0
   24.3015   -9.8824  -19.7054 N   0  0  0  0  0  0  0  0  0  0  0  0
   24.4177   -8.9799  -18.6208 C   0  0  0  0  0  0  0  0  0  0  0  0
   25.4732   -8.3269  -18.4937 O   0  0  0  0  0  0  0  0  0  0  0  0
   23.3215   -8.8154  -17.6617 C   0  0  0  0  0  0  0  0  0  0  0  0
   22.1687   -9.6683  -18.0122 C   0  0  0  0  0  0  0  0  0  0  0  0
   20.9717   -9.5504  -17.0495 C   0  0  2  0  0  0  0  0  0  0  0  0
   20.0180  -10.5059  -17.5936 N   0  0  0  0  0  0  0  0  0  0  0  0
   20.4938   -8.1737  -16.9759 C   0  0  0  0  0  0  0  0  0  0  0  0
   19.9011   -7.6469  -17.9563 O   0  0  0  0  0  0  0  0  0  0  0  0
   20.6507   -7.3459  -15.8345 N   0  0  0  0  0  0  0  0  0  0  0  0
   20.2912   -5.9254  -15.8694 C   0  0  1  0  0  0  0  0  0  0  0  0
   18.9455   -5.7815  -15.1771 C   0  0  0  0  0  0  0  0  0  0  0  0
   18.6735   -4.0184  -14.8903 S   0  0  0  0  0  0  0  0  0  0  0  0
   21.3203   -5.0969  -15.2218 C   0  0  0  0  0  0  0  0  0  0  0  0
   22.2348   -5.6226  -14.5462 O   0  0  0  0  0  0  0  0  0  0  0  0
   21.3044   -3.7208  -15.3418 O   0  0  0  0  0  0  0  0  0  0  0  0
  1  2  1  0
  2  4  1  0
  3  2  2  0
  4  5  1  0
  6  5  1  0
  6  8  1  0
  6  7  1  1
  8  9  2  0
 10 11  1  0
 11 12  2  0
 11 13  1  0
 13 14  1  0
 15 14  1  6
 15 17  1  0
 16 15  1  0
 16  8  1  0
 17 19  1  0
 17 18  2  0
 19 20  1  0
 20 23  1  0
 20 21  1  1
 22 21  1  0
 23 24  2  0
 23 25  1  0
M  END
$$$$
