QQC.pdb
     RDKit          3D

 25 24  0  0  1  0  0  0  0  0999 V2000
   24.2475  -19.7762  -20.1695 N   0  0  0  0  0  0  0  0  0  0  0  0
   25.5812  -19.3137  -20.2667 C   0  0  0  0  0  0  0  0  0  0  0  0
   26.0009  -18.7264  -21.2706 O   0  0  0  0  0  0  0  0  0  0  0  0
   26.4911  -19.5606  -19.0937 C   0  0  0  0  0  0  0  0  0  0  0  0
   25.7076  -20.2951  -18.0528 C   0  0  0  0  0  0  0  0  0  0  0  0
   26.3183  -20.3061  -16.6944 C   0  0  2  0  0  0  0  0  0  0  0  0
   27.4432  -21.2714  -16.7960 N   0  0  0  0  0  0  0  0  0  0  0  0
   25.4668  -20.7789  -15.6010 C   0  0  0  0  0  0  0  0  0  0  0  0
   25.0317  -21.9856  -15.6116 O   0  0  0  0  0  0  0  0  0  0  0  0
   25.1664  -22.6286  -11.3458 N   0  0  0  0  0  0  0  0  0  0  0  0
   26.2638  -21.7428  -11.4711 C   0  0  0  0  0  0  0  0  0  0  0  0
   27.4038  -22.1535  -11.1738 O   0  0  0  0  0  0  0  0  0  0  0  0
   26.0675  -20.3675  -11.9384 C   0  0  0  0  0  0  0  0  0  0  0  0
   24.6374  -20.0738  -12.1578 C   0  0  0  0  0  0  0  0  0  0  0  0
   24.0835  -20.5713  -13.5066 C   0  0  2  0  0  0  0  0  0  0  0  0
   25.0392  -20.0426  -14.4686 N   0  0  0  0  0  0  0  0  0  0  0  0
   22.7053  -20.1325  -13.6994 C   0  0  0  0  0  0  0  0  0  0  0  0
   22.4413  -19.1610  -14.4588 O   0  0  0  0  0  0  0  0  0  0  0  0
   21.5895  -20.7430  -13.0709 N   0  0  0  0  0  0  0  0  0  0  0  0
   20.3613  -21.0338  -13.8160 C   0  0  1  0  0  0  0  0  0  0  0  0
   20.7663  -21.7430  -15.0982 C   0  0  0  0  0  0  0  0  0  0  0  0
   19.4543  -21.4595  -16.3077 S   0  0  0  0  0  0  0  0  0  0  0  0
   19.4331  -21.8517  -13.0194 C   0  0  0  0  0  0  0  0  0  0  0  0
   19.8289  -22.8893  -12.4398 O   0  0  0  0  0  0  0  0  0  0  0  0
   18.1043  -21.4971  -12.8905 O   0  0  0  0  0  0  0  0  0  0  0  0
  1  2  1  0
  2  4  1  0
  3  2  2  0
  4  5  1  0
  6  5  1  0
  6  8  1  0
  6  7  1  6
  8  9  2  0
 10 11  1  0
 11 12  2  0
 11 13  1  0
 13 14  1  0
 15 14  1  1
 15 17  1  0
 16 15  1  0
 16  8  1  0
 17 19  1  0
 17 18  2  0
 19 20  1  0
 20 23  1  0
 20 21  1  6
 22 21  1  0
 23 24  2  0
 23 25  1  0
M  END
$$$$
