QQC.pdb
     RDKit          3D

 25 24  0  0  1  0  0  0  0  0999 V2000
   17.4837  -14.3325  -17.4121 N   0  0  0  0  0  0  0  0  0  0  0  0
   18.3734  -14.3914  -18.5107 C   0  0  0  0  0  0  0  0  0  0  0  0
   18.2814  -15.2618  -19.3841 O   0  0  0  0  0  0  0  0  0  0  0  0
   19.4541  -13.3469  -18.5882 C   0  0  0  0  0  0  0  0  0  0  0  0
   19.2332  -12.3754  -17.4729 C   0  0  0  0  0  0  0  0  0  0  0  0
   20.2351  -11.2768  -17.3854 C   0  0  2  0  0  0  0  0  0  0  0  0
   21.4567  -11.9249  -16.8421 N   0  0  0  0  0  0  0  0  0  0  0  0
   19.9150  -10.1738  -16.4772 C   0  0  0  0  0  0  0  0  0  0  0  0
   19.1624  -10.3868  -15.4604 O   0  0  0  0  0  0  0  0  0  0  0  0
   23.5709   -5.7217  -14.7908 N   0  0  0  0  0  0  0  0  0  0  0  0
   22.4078   -5.3125  -14.0949 C   0  0  0  0  0  0  0  0  0  0  0  0
   22.4970   -4.3765  -13.2749 O   0  0  0  0  0  0  0  0  0  0  0  0
   21.1219   -5.9758  -14.3292 C   0  0  0  0  0  0  0  0  0  0  0  0
   21.2571   -7.0837  -15.2955 C   0  0  0  0  0  0  0  0  0  0  0  0
   19.9360   -7.8011  -15.6327 C   0  0  2  0  0  0  0  0  0  0  0  0
   20.3527   -8.8298  -16.5742 N   0  0  0  0  0  0  0  0  0  0  0  0
   18.9457   -6.8594  -16.1443 C   0  0  0  0  0  0  0  0  0  0  0  0
   19.0488   -6.3900  -17.3101 O   0  0  0  0  0  0  0  0  0  0  0  0
   17.8252   -6.4125  -15.3979 N   0  0  0  0  0  0  0  0  0  0  0  0
   16.9462   -5.3546  -15.9044 C   0  0  1  0  0  0  0  0  0  0  0  0
   15.6159   -6.0006  -16.2564 C   0  0  0  0  0  0  0  0  0  0  0  0
   15.0670   -6.9274  -14.8058 S   0  0  0  0  0  0  0  0  0  0  0  0
   16.7766   -4.2799  -14.9138 C   0  0  0  0  0  0  0  0  0  0  0  0
   16.0948   -3.2636  -15.1811 O   0  0  0  0  0  0  0  0  0  0  0  0
   17.3634   -4.3640  -13.6661 O   0  0  0  0  0  0  0  0  0  0  0  0
  1  2  1  0
  2  4  1  0
  3  2  2  0
  4  5  1  0
  6  5  1  0
  6  8  1  0
  6  7  1  1
  8  9  2  0
 10 11  1  0
 11 12  2  0
 11 13  1  0
 13 14  1  0
 15 14  1  6
 15 17  1  0
 16 15  1  0
 16  8  1  0
 17 19  1  0
 17 18  2  0
 19 20  1  0
 20 23  1  0
 20 21  1  1
 22 21  1  0
 23 24  2  0
 23 25  1  0
M  END
$$$$
