QQC.pdb
     RDKit          3D

 25 24  0  0  1  0  0  0  0  0999 V2000
   17.6759  -12.4813  -16.7888 N   0  0  0  0  0  0  0  0  0  0  0  0
   17.1223  -13.3179  -15.7910 C   0  0  0  0  0  0  0  0  0  0  0  0
   16.4688  -14.3296  -16.0708 O   0  0  0  0  0  0  0  0  0  0  0  0
   17.3548  -12.9356  -14.3541 C   0  0  0  0  0  0  0  0  0  0  0  0
   17.3575  -11.4423  -14.2719 C   0  0  0  0  0  0  0  0  0  0  0  0
   16.3780  -10.8615  -13.3120 C   0  0  2  0  0  0  0  0  0  0  0  0
   15.0574  -11.0386  -13.9694 N   0  0  0  0  0  0  0  0  0  0  0  0
   16.5104   -9.4304  -13.0318 C   0  0  0  0  0  0  0  0  0  0  0  0
   16.2402   -8.5762  -13.9499 O   0  0  0  0  0  0  0  0  0  0  0  0
   15.5909   -6.4535   -7.7884 N   0  0  0  0  0  0  0  0  0  0  0  0
   14.6473   -6.7525   -8.8007 C   0  0  0  0  0  0  0  0  0  0  0  0
   13.4319   -6.6902   -8.5258 O   0  0  0  0  0  0  0  0  0  0  0  0
   15.0866   -7.1310  -10.1469 C   0  0  0  0  0  0  0  0  0  0  0  0
   16.5587   -7.1128  -10.2563 C   0  0  0  0  0  0  0  0  0  0  0  0
   17.0968   -7.3928  -11.6726 C   0  0  2  0  0  0  0  0  0  0  0  0
   16.9152   -8.8299  -11.8141 N   0  0  0  0  0  0  0  0  0  0  0  0
   18.4728   -6.9270  -11.8104 C   0  0  0  0  0  0  0  0  0  0  0  0
   19.4296   -7.6072  -11.3502 O   0  0  0  0  0  0  0  0  0  0  0  0
   18.8327   -5.7142  -12.4522 N   0  0  0  0  0  0  0  0  0  0  0  0
   20.2373   -5.3542  -12.6664 C   0  0  1  0  0  0  0  0  0  0  0  0
   20.8298   -6.3848  -13.6140 C   0  0  0  0  0  0  0  0  0  0  0  0
   22.5405   -5.9002  -13.9350 S   0  0  0  0  0  0  0  0  0  0  0  0
   20.3641   -3.9915  -13.2068 C   0  0  0  0  0  0  0  0  0  0  0  0
   19.5297   -3.5479  -14.0291 O   0  0  0  0  0  0  0  0  0  0  0  0
   21.4043   -3.1681  -12.8221 O   0  0  0  0  0  0  0  0  0  0  0  0
  1  2  1  0
  2  4  1  0
  3  2  2  0
  4  5  1  0
  6  5  1  0
  6  8  1  0
  6  7  1  6
  8  9  2  0
 10 11  1  0
 11 12  2  0
 11 13  1  0
 13 14  1  0
 15 14  1  1
 15 17  1  0
 16 15  1  0
 16  8  1  0
 17 19  1  0
 17 18  2  0
 19 20  1  0
 20 23  1  0
 20 21  1  6
 22 21  1  0
 23 24  2  0
 23 25  1  0
M  END
$$$$
