QQC.pdb
     RDKit          3D

 25 24  0  0  1  0  0  0  0  0999 V2000
   17.2389  -21.0772  -13.3281 N   0  0  0  0  0  0  0  0  0  0  0  0
   17.1301  -20.4873  -14.6096 C   0  0  0  0  0  0  0  0  0  0  0  0
   16.0734  -19.9903  -15.0160 O   0  0  0  0  0  0  0  0  0  0  0  0
   18.3579  -20.4812  -15.4799 C   0  0  0  0  0  0  0  0  0  0  0  0
   19.4912  -21.0361  -14.6772 C   0  0  0  0  0  0  0  0  0  0  0  0
   20.8446  -20.8109  -15.2567 C   0  0  2  0  0  0  0  0  0  0  0  0
   20.8533  -21.6069  -16.5112 N   0  0  0  0  0  0  0  0  0  0  0  0
   21.9805  -21.2818  -14.4617 C   0  0  0  0  0  0  0  0  0  0  0  0
   21.7771  -22.0626  -13.4644 O   0  0  0  0  0  0  0  0  0  0  0  0
   27.9711  -20.9239  -16.0240 N   0  0  0  0  0  0  0  0  0  0  0  0
   28.0853  -21.5332  -14.7511 C   0  0  0  0  0  0  0  0  0  0  0  0
   29.2091  -21.9157  -14.3673 O   0  0  0  0  0  0  0  0  0  0  0  0
   26.9068  -21.7153  -13.8987 C   0  0  0  0  0  0  0  0  0  0  0  0
   25.6722  -21.2998  -14.5934 C   0  0  0  0  0  0  0  0  0  0  0  0
   24.3912  -21.4228  -13.7463 C   0  0  2  0  0  0  0  0  0  0  0  0
   23.3498  -20.9770  -14.6601 N   0  0  0  0  0  0  0  0  0  0  0  0
   24.5038  -20.6505  -12.5134 C   0  0  0  0  0  0  0  0  0  0  0  0
   24.5362  -19.3904  -12.5462 O   0  0  0  0  0  0  0  0  0  0  0  0
   24.5819  -21.2346  -11.2229 N   0  0  0  0  0  0  0  0  0  0  0  0
   24.7713  -20.4114  -10.0251 C   0  0  1  0  0  0  0  0  0  0  0  0
   24.4749  -21.2896   -8.8202 C   0  0  0  0  0  0  0  0  0  0  0  0
   25.9488  -21.2850   -7.7751 S   0  0  0  0  0  0  0  0  0  0  0  0
   26.1337  -19.8588   -9.9655 C   0  0  0  0  0  0  0  0  0  0  0  0
   27.0677  -20.3852  -10.6132 O   0  0  0  0  0  0  0  0  0  0  0  0
   26.4171  -18.7475   -9.1954 O   0  0  0  0  0  0  0  0  0  0  0  0
  1  2  1  0
  2  4  1  0
  3  2  2  0
  4  5  1  0
  6  5  1  0
  6  8  1  0
  6  7  1  6
  8  9  2  0
 10 11  1  0
 11 12  2  0
 11 13  1  0
 13 14  1  0
 15 14  1  6
 15 17  1  0
 16 15  1  0
 16  8  1  0
 17 19  1  0
 17 18  2  0
 19 20  1  0
 20 23  1  0
 20 21  1  1
 22 21  1  0
 23 24  2  0
 23 25  1  0
M  END
$$$$
