QQC.pdb
     RDKit          3D

 25 24  0  0  1  0  0  0  0  0999 V2000
   25.3365   -9.6446  -22.1611 N   0  0  0  0  0  0  0  0  0  0  0  0
   24.8394  -10.9266  -22.4949 C   0  0  0  0  0  0  0  0  0  0  0  0
   24.9439  -11.3951  -23.6343 O   0  0  0  0  0  0  0  0  0  0  0  0
   24.1679  -11.7183  -21.4053 C   0  0  0  0  0  0  0  0  0  0  0  0
   23.4516  -10.7547  -20.5136 C   0  0  0  0  0  0  0  0  0  0  0  0
   22.8425  -11.3561  -19.2948 C   0  0  2  0  0  0  0  0  0  0  0  0
   21.8678  -12.3503  -19.8133 N   0  0  0  0  0  0  0  0  0  0  0  0
   22.0856  -10.4493  -18.4294 C   0  0  0  0  0  0  0  0  0  0  0  0
   20.8413  -10.2412  -18.6617 O   0  0  0  0  0  0  0  0  0  0  0  0
   18.9370   -9.9253  -15.3917 N   0  0  0  0  0  0  0  0  0  0  0  0
   19.3964   -9.0876  -14.3468 C   0  0  0  0  0  0  0  0  0  0  0  0
   18.5576   -8.5455  -13.5991 O   0  0  0  0  0  0  0  0  0  0  0  0
   20.8301   -8.8572  -14.1462 C   0  0  0  0  0  0  0  0  0  0  0  0
   21.6351   -9.5659  -15.1607 C   0  0  0  0  0  0  0  0  0  0  0  0
   21.7253   -8.8467  -16.5202 C   0  0  2  0  0  0  0  0  0  0  0  0
   22.5694   -9.7349  -17.3056 N   0  0  0  0  0  0  0  0  0  0  0  0
   22.2363   -7.4893  -16.3604 C   0  0  0  0  0  0  0  0  0  0  0  0
   23.4305   -7.2906  -16.0076 O   0  0  0  0  0  0  0  0  0  0  0  0
   21.4583   -6.3240  -16.5826 N   0  0  0  0  0  0  0  0  0  0  0  0
   22.0086   -4.9857  -16.3493 C   0  0  1  0  0  0  0  0  0  0  0  0
   21.1122   -3.9945  -17.0740 C   0  0  0  0  0  0  0  0  0  0  0  0
   21.7376   -2.3385  -16.7119 S   0  0  0  0  0  0  0  0  0  0  0  0
   22.0912   -4.6842  -14.9114 C   0  0  0  0  0  0  0  0  0  0  0  0
   21.1318   -4.9386  -14.1471 O   0  0  0  0  0  0  0  0  0  0  0  0
   23.2263   -4.1142  -14.3686 O   0  0  0  0  0  0  0  0  0  0  0  0
  1  2  1  0
  2  4  1  0
  3  2  2  0
  4  5  1  0
  6  5  1  0
  6  8  1  0
  6  7  1  6
  8  9  2  0
 10 11  1  0
 11 12  2  0
 11 13  1  0
 13 14  1  0
 15 14  1  1
 15 17  1  0
 16 15  1  0
 16  8  1  0
 17 19  1  0
 17 18  2  0
 19 20  1  0
 20 23  1  0
 20 21  1  6
 22 21  1  0
 23 24  2  0
 23 25  1  0
M  END
$$$$
