QQC.pdb
     RDKit          3D

 25 24  0  0  1  0  0  0  0  0999 V2000
   20.5326  -18.2569  -12.9613 N   0  0  0  0  0  0  0  0  0  0  0  0
   19.8667  -18.9516  -13.9987 C   0  0  0  0  0  0  0  0  0  0  0  0
   18.9482  -19.7476  -13.7715 O   0  0  0  0  0  0  0  0  0  0  0  0
   20.3150  -18.6902  -15.4113 C   0  0  0  0  0  0  0  0  0  0  0  0
   21.3472  -17.6087  -15.3718 C   0  0  0  0  0  0  0  0  0  0  0  0
   21.8998  -17.2151  -16.6976 C   0  0  2  0  0  0  0  0  0  0  0  0
   23.1831  -17.9563  -16.8048 N   0  0  0  0  0  0  0  0  0  0  0  0
   22.2260  -15.7985  -16.8731 C   0  0  0  0  0  0  0  0  0  0  0  0
   23.4057  -15.3793  -16.5932 O   0  0  0  0  0  0  0  0  0  0  0  0
   23.1051  -12.6262  -20.5962 N   0  0  0  0  0  0  0  0  0  0  0  0
   22.4680  -11.4522  -20.1268 C   0  0  0  0  0  0  0  0  0  0  0  0
   22.8494  -10.3470  -20.5624 O   0  0  0  0  0  0  0  0  0  0  0  0
   21.3821  -11.5299  -19.1452 C   0  0  0  0  0  0  0  0  0  0  0  0
   21.1015  -12.9283  -18.7644 C   0  0  0  0  0  0  0  0  0  0  0  0
   21.7986  -13.3893  -17.4701 C   0  0  2  0  0  0  0  0  0  0  0  0
   21.3671  -14.7733  -17.3404 N   0  0  0  0  0  0  0  0  0  0  0  0
   21.4452  -12.5241  -16.3495 C   0  0  0  0  0  0  0  0  0  0  0  0
   20.3414  -12.6617  -15.7556 O   0  0  0  0  0  0  0  0  0  0  0  0
   22.2864  -11.4948  -15.8540 N   0  0  0  0  0  0  0  0  0  0  0  0
   21.9093  -10.7031  -14.6795 C   0  0  1  0  0  0  0  0  0  0  0  0
   22.9361  -10.9848  -13.5945 C   0  0  0  0  0  0  0  0  0  0  0  0
   24.5196  -10.3317  -14.1691 S   0  0  0  0  0  0  0  0  0  0  0  0
   21.8451   -9.2683  -14.9994 C   0  0  0  0  0  0  0  0  0  0  0  0
   22.2111   -8.8445  -16.1200 O   0  0  0  0  0  0  0  0  0  0  0  0
   21.3806   -8.3537  -14.0742 O   0  0  0  0  0  0  0  0  0  0  0  0
  1  2  1  0
  2  4  1  0
  3  2  2  0
  4  5  1  0
  6  5  1  0
  6  8  1  0
  6  7  1  1
  8  9  2  0
 10 11  1  0
 11 12  2  0
 11 13  1  0
 13 14  1  0
 15 14  1  6
 15 17  1  0
 16 15  1  0
 16  8  1  0
 17 19  1  0
 17 18  2  0
 19 20  1  0
 20 23  1  0
 20 21  1  1
 22 21  1  0
 23 24  2  0
 23 25  1  0
M  END
$$$$
