QQC.pdb
     RDKit          3D

 25 24  0  0  1  0  0  0  0  0999 V2000
   28.2776  -22.4500  -18.8412 N   0  0  0  0  0  0  0  0  0  0  0  0
   28.6753  -21.0963  -18.9480 C   0  0  0  0  0  0  0  0  0  0  0  0
   28.5987  -20.4715  -20.0122 O   0  0  0  0  0  0  0  0  0  0  0  0
   29.2035  -20.4258  -17.7085 C   0  0  0  0  0  0  0  0  0  0  0  0
   28.4316  -20.9500  -16.5397 C   0  0  0  0  0  0  0  0  0  0  0  0
   27.1150  -20.2936  -16.3075 C   0  0  2  0  0  0  0  0  0  0  0  0
   27.4418  -18.8591  -16.1002 N   0  0  0  0  0  0  0  0  0  0  0  0
   26.3731  -20.7231  -15.1204 C   0  0  0  0  0  0  0  0  0  0  0  0
   26.0937  -21.9649  -14.9614 O   0  0  0  0  0  0  0  0  0  0  0  0
   25.2349  -21.5846   -9.9694 N   0  0  0  0  0  0  0  0  0  0  0  0
   26.5058  -21.0472  -10.2866 C   0  0  0  0  0  0  0  0  0  0  0  0
   27.5184  -21.5472   -9.7561 O   0  0  0  0  0  0  0  0  0  0  0  0
   26.6329  -19.9228  -11.2183 C   0  0  0  0  0  0  0  0  0  0  0  0
   25.3293  -19.5688  -11.8139 C   0  0  0  0  0  0  0  0  0  0  0  0
   24.9565  -20.3865  -13.0654 C   0  0  2  0  0  0  0  0  0  0  0  0
   25.9002  -19.9061  -14.0639 N   0  0  0  0  0  0  0  0  0  0  0  0
   23.5495  -20.2063  -13.4073 C   0  0  0  0  0  0  0  0  0  0  0  0
   23.1633  -19.1676  -14.0090 O   0  0  0  0  0  0  0  0  0  0  0  0
   22.5378  -21.1528  -13.1023 N   0  0  0  0  0  0  0  0  0  0  0  0
   21.1758  -21.0056  -13.6236 C   0  0  1  0  0  0  0  0  0  0  0  0
   21.2641  -21.0481  -15.1406 C   0  0  0  0  0  0  0  0  0  0  0  0
   19.9728  -22.1693  -15.7238 S   0  0  0  0  0  0  0  0  0  0  0  0
   20.2883  -22.0594  -13.1070 C   0  0  0  0  0  0  0  0  0  0  0  0
   20.7169  -23.2205  -12.9136 O   0  0  0  0  0  0  0  0  0  0  0  0
   18.9625  -21.7960  -12.8225 O   0  0  0  0  0  0  0  0  0  0  0  0
  1  2  1  0
  2  4  1  0
  3  2  2  0
  4  5  1  0
  6  5  1  0
  6  8  1  0
  6  7  1  1
  8  9  2  0
 10 11  1  0
 11 12  2  0
 11 13  1  0
 13 14  1  0
 15 14  1  1
 15 17  1  0
 16 15  1  0
 16  8  1  0
 17 19  1  0
 17 18  2  0
 19 20  1  0
 20 23  1  0
 20 21  1  6
 22 21  1  0
 23 24  2  0
 23 25  1  0
M  END
$$$$
