QQC.pdb
     RDKit          3D

 25 24  0  0  1  0  0  0  0  0999 V2000
   16.0193  -13.8902  -13.0873 N   0  0  0  0  0  0  0  0  0  0  0  0
   16.6924  -13.0775  -14.0299 C   0  0  0  0  0  0  0  0  0  0  0  0
   17.9262  -13.0207  -14.0854 O   0  0  0  0  0  0  0  0  0  0  0  0
   15.8500  -12.2697  -14.9801 C   0  0  0  0  0  0  0  0  0  0  0  0
   16.1167  -10.8227  -14.7121 C   0  0  0  0  0  0  0  0  0  0  0  0
   15.3489  -10.2394  -13.5770 C   0  0  2  0  0  0  0  0  0  0  0  0
   13.9979   -9.9727  -14.1348 N   0  0  0  0  0  0  0  0  0  0  0  0
   15.8358   -8.9636  -13.0483 C   0  0  0  0  0  0  0  0  0  0  0  0
   15.6062   -7.8796  -13.6947 O   0  0  0  0  0  0  0  0  0  0  0  0
   14.9021   -5.3412   -9.7246 N   0  0  0  0  0  0  0  0  0  0  0  0
   16.1909   -5.1315   -9.1775 C   0  0  0  0  0  0  0  0  0  0  0  0
   16.4333   -4.0470   -8.6104 O   0  0  0  0  0  0  0  0  0  0  0  0
   17.2245   -6.1663   -9.2761 C   0  0  0  0  0  0  0  0  0  0  0  0
   16.7158   -7.3697   -9.9633 C   0  0  0  0  0  0  0  0  0  0  0  0
   17.0697   -7.4469  -11.4608 C   0  0  2  0  0  0  0  0  0  0  0  0
   16.5629   -8.7544  -11.8505 N   0  0  0  0  0  0  0  0  0  0  0  0
   18.5004   -7.2508  -11.6705 C   0  0  0  0  0  0  0  0  0  0  0  0
   19.3429   -7.9259  -11.0191 O   0  0  0  0  0  0  0  0  0  0  0  0
   19.0402   -6.3181  -12.5931 N   0  0  0  0  0  0  0  0  0  0  0  0
   20.4839   -6.2311  -12.8306 C   0  0  1  0  0  0  0  0  0  0  0  0
   20.7827   -7.0153  -14.0981 C   0  0  0  0  0  0  0  0  0  0  0  0
   22.5525   -6.8558  -14.4253 S   0  0  0  0  0  0  0  0  0  0  0  0
   20.9235   -4.8318  -12.9480 C   0  0  0  0  0  0  0  0  0  0  0  0
   20.1365   -3.9444  -13.3508 O   0  0  0  0  0  0  0  0  0  0  0  0
   22.2127   -4.4615  -12.6177 O   0  0  0  0  0  0  0  0  0  0  0  0
  1  2  1  0
  2  4  1  0
  3  2  2  0
  4  5  1  0
  6  5  1  0
  6  8  1  0
  6  7  1  6
  8  9  2  0
 10 11  1  0
 11 12  2  0
 11 13  1  0
 13 14  1  0
 15 14  1  1
 15 17  1  0
 16 15  1  0
 16  8  1  0
 17 19  1  0
 17 18  2  0
 19 20  1  0
 20 23  1  0
 20 21  1  6
 22 21  1  0
 23 24  2  0
 23 25  1  0
M  END
$$$$
