QQC.pdb
     RDKit          3D

 25 24  0  0  1  0  0  0  0  0999 V2000
   17.7781  -15.0852  -18.4829 N   0  0  0  0  0  0  0  0  0  0  0  0
   17.5045  -15.5227  -17.1654 C   0  0  0  0  0  0  0  0  0  0  0  0
   17.2428  -16.7031  -16.9067 O   0  0  0  0  0  0  0  0  0  0  0  0
   17.5415  -14.4934  -16.0681 C   0  0  0  0  0  0  0  0  0  0  0  0
   18.0277  -13.2092  -16.6607 C   0  0  0  0  0  0  0  0  0  0  0  0
   18.0933  -12.0621  -15.7131 C   0  0  2  0  0  0  0  0  0  0  0  0
   16.6769  -11.6629  -15.5079 N   0  0  0  0  0  0  0  0  0  0  0  0
   18.7943  -10.8663  -16.1851 C   0  0  0  0  0  0  0  0  0  0  0  0
   18.4639  -10.3377  -17.3063 O   0  0  0  0  0  0  0  0  0  0  0  0
   19.0259   -5.9231  -14.8111 N   0  0  0  0  0  0  0  0  0  0  0  0
   20.3859   -5.6918  -15.1296 C   0  0  0  0  0  0  0  0  0  0  0  0
   20.7543   -4.5261  -15.3786 O   0  0  0  0  0  0  0  0  0  0  0  0
   21.3452   -6.7994  -15.1696 C   0  0  0  0  0  0  0  0  0  0  0  0
   20.6899   -8.0885  -14.8723 C   0  0  0  0  0  0  0  0  0  0  0  0
   20.4770   -8.9942  -16.1003 C   0  0  2  0  0  0  0  0  0  0  0  0
   19.8437  -10.1746  -15.5312 N   0  0  0  0  0  0  0  0  0  0  0  0
   21.7377   -9.2418  -16.7920 C   0  0  0  0  0  0  0  0  0  0  0  0
   22.6695   -9.8716  -16.2219 O   0  0  0  0  0  0  0  0  0  0  0  0
   22.0071   -8.8101  -18.1163 N   0  0  0  0  0  0  0  0  0  0  0  0
   23.2845   -9.1099  -18.7694 C   0  0  1  0  0  0  0  0  0  0  0  0
   23.0405  -10.2564  -19.7373 C   0  0  0  0  0  0  0  0  0  0  0  0
   22.9686  -11.7768  -18.7636 S   0  0  0  0  0  0  0  0  0  0  0  0
   23.8222   -7.9277  -19.4611 C   0  0  0  0  0  0  0  0  0  0  0  0
   23.0547   -7.0792  -19.9711 O   0  0  0  0  0  0  0  0  0  0  0  0
   25.1845   -7.7236  -19.5655 O   0  0  0  0  0  0  0  0  0  0  0  0
  1  2  1  0
  2  4  1  0
  3  2  2  0
  4  5  1  0
  6  5  1  0
  6  8  1  0
  6  7  1  6
  8  9  2  0
 10 11  1  0
 11 12  2  0
 11 13  1  0
 13 14  1  0
 15 14  1  1
 15 17  1  0
 16 15  1  0
 16  8  1  0
 17 19  1  0
 17 18  2  0
 19 20  1  0
 20 23  1  0
 20 21  1  6
 22 21  1  0
 23 24  2  0
 23 25  1  0
M  END
$$$$
