PQE.pdb
     RDKit          3D

 26 26  0  0  1  0  0  0  0  0999 V2000
    7.3463  -15.1836   19.7105 N   0  0  0  0  0  0  0  0  0  0  0  0
    6.7600  -14.3350   18.6613 C   0  0  0  0  0  0  0  0  0  0  0  0
    7.0109  -12.9568   19.2488 C   0  0  0  0  0  0  0  0  0  0  0  0
    8.4188  -13.1193   19.8078 C   0  0  0  0  0  0  0  0  0  0  0  0
    8.6582  -14.5982   19.8460 C   0  0  1  0  0  0  0  0  0  0  0  0
    9.2966  -14.9614   21.1395 C   0  0  0  0  0  0  0  0  0  0  0  0
   10.4710  -14.5826   21.3692 O   0  0  0  0  0  0  0  0  0  0  0  0
    6.3242  -18.0164   25.8556 N   0  0  0  0  0  0  0  0  0  0  0  0
    7.6039  -17.7423   26.3853 C   0  0  0  0  0  0  0  0  0  0  0  0
    7.8149  -18.1223   27.5638 O   0  0  0  0  0  0  0  0  0  0  0  0
    8.6710  -17.0458   25.6274 C   0  0  0  0  0  0  0  0  0  0  0  0
    8.2611  -16.5628   24.2965 C   0  0  0  0  0  0  0  0  0  0  0  0
    9.2875  -15.9709   23.4028 C   0  0  2  0  0  0  0  0  0  0  0  0
    8.6401  -15.7205   22.1352 N   0  0  0  0  0  0  0  0  0  0  0  0
   10.4863  -16.7596   23.1789 C   0  0  0  0  0  0  0  0  0  0  0  0
   10.5728  -17.7737   22.4387 O   0  0  0  0  0  0  0  0  0  0  0  0
   11.6845  -16.3801   23.8383 N   0  0  0  0  0  0  0  0  0  0  0  0
   12.9063  -17.1505   23.7332 C   0  0  1  0  0  0  0  0  0  0  0  0
   14.0189  -16.1699   23.3988 C   0  0  0  0  0  0  0  0  0  0  0  0
   15.3263  -16.9606   23.4244 C   0  0  0  0  0  0  0  0  0  0  0  0
   16.4611  -16.0645   23.0877 C   0  0  0  0  0  0  0  0  0  0  0  0
   17.1177  -15.5268   24.0155 O   0  0  0  0  0  0  0  0  0  0  0  0
   13.2004  -17.7625   25.0772 C   0  0  0  0  0  0  0  0  0  0  0  0
   14.0096  -18.8856   25.1999 O   0  0  0  0  0  0  0  0  0  0  0  0
   16.7891  -15.8263   21.7682 O   0  0  0  0  0  0  0  0  0  0  0  0
   12.7234  -17.2768   26.1292 O   0  0  0  0  0  0  0  0  0  0  0  0
  1  2  1  0
  3  2  1  0
  4  5  1  0
  4  3  1  0
  5  1  1  0
  6 14  1  0
  5  6  1  1
  7  6  2  0
  8  9  1  0
  9 10  2  0
 11 12  1  0
 11  9  1  0
 13 14  1  0
 13 12  1  1
 15 13  1  0
 16 15  2  0
 17 15  1  0
 18 17  1  0
 18 19  1  1
 20 19  1  0
 20 21  1  0
 21 25  1  0
 21 22  2  0
 23 18  1  0
 23 24  1  0
 26 23  2  0
M  END
$$$$
