PQE.pdb
     RDKit          3D

 26 26  0  0  1  0  0  0  0  0999 V2000
    7.2771  -14.9823   19.7462 N   0  0  0  0  0  0  0  0  0  0  0  0
    6.9262  -14.4965   18.4025 C   0  0  0  0  0  0  0  0  0  0  0  0
    7.0548  -12.9969   18.6088 C   0  0  0  0  0  0  0  0  0  0  0  0
    8.3144  -12.9172   19.4621 C   0  0  0  0  0  0  0  0  0  0  0  0
    8.5344  -14.3101   19.9694 C   0  0  1  0  0  0  0  0  0  0  0  0
    8.8873  -14.2594   21.4135 C   0  0  0  0  0  0  0  0  0  0  0  0
    9.9993  -13.7876   21.7547 O   0  0  0  0  0  0  0  0  0  0  0  0
    5.5196  -13.8871   26.8427 N   0  0  0  0  0  0  0  0  0  0  0  0
    6.4488  -12.8537   26.5942 C   0  0  0  0  0  0  0  0  0  0  0  0
    6.4568  -11.8998   27.4115 O   0  0  0  0  0  0  0  0  0  0  0  0
    7.3831  -12.8529   25.4430 C   0  0  0  0  0  0  0  0  0  0  0  0
    7.1923  -13.9686   24.4990 C   0  0  0  0  0  0  0  0  0  0  0  0
    8.3809  -14.5448   23.8226 C   0  0  2  0  0  0  0  0  0  0  0  0
    8.0238  -14.7209   22.4333 N   0  0  0  0  0  0  0  0  0  0  0  0
    8.8821  -15.8020   24.3495 C   0  0  0  0  0  0  0  0  0  0  0  0
    8.2983  -16.9146   24.2793 O   0  0  0  0  0  0  0  0  0  0  0  0
   10.1394  -15.8119   25.0080 N   0  0  0  0  0  0  0  0  0  0  0  0
   10.7028  -17.0132   25.5882 C   0  0  1  0  0  0  0  0  0  0  0  0
   12.2085  -16.9331   25.3932 C   0  0  0  0  0  0  0  0  0  0  0  0
   12.4573  -16.9041   23.8858 C   0  0  0  0  0  0  0  0  0  0  0  0
   13.9174  -16.8726   23.6189 C   0  0  0  0  0  0  0  0  0  0  0  0
   14.3728  -17.4735   22.6127 O   0  0  0  0  0  0  0  0  0  0  0  0
   10.4143  -17.0089   27.0660 C   0  0  0  0  0  0  0  0  0  0  0  0
   10.7145  -18.1051   27.8655 O   0  0  0  0  0  0  0  0  0  0  0  0
   14.7634  -16.1895   24.4693 O   0  0  0  0  0  0  0  0  0  0  0  0
    9.8931  -16.0142   27.6220 O   0  0  0  0  0  0  0  0  0  0  0  0
  1  2  1  0
  3  2  1  0
  4  5  1  0
  4  3  1  0
  5  1  1  0
  6 14  1  0
  5  6  1  1
  7  6  2  0
  8  9  1  0
  9 10  2  0
 11 12  1  0
 11  9  1  0
 13 14  1  0
 13 12  1  1
 15 13  1  0
 16 15  2  0
 17 15  1  0
 18 17  1  0
 18 19  1  1
 20 19  1  0
 20 21  1  0
 21 25  1  0
 21 22  2  0
 23 18  1  0
 23 24  1  0
 26 23  2  0
M  END
$$$$
