PQE.pdb
     RDKit          3D

 26 26  0  0  1  0  0  0  0  0999 V2000
    7.9632  -14.8734   19.1989 N   0  0  0  0  0  0  0  0  0  0  0  0
    7.1167  -14.2266   18.1842 C   0  0  0  0  0  0  0  0  0  0  0  0
    7.2896  -12.7674   18.5698 C   0  0  0  0  0  0  0  0  0  0  0  0
    8.7784  -12.7146   18.8888 C   0  0  0  0  0  0  0  0  0  0  0  0
    9.1988  -14.1450   19.0409 C   0  0  1  0  0  0  0  0  0  0  0  0
   10.0768  -14.2770   20.2343 C   0  0  0  0  0  0  0  0  0  0  0  0
   11.1729  -13.6659   20.2574 O   0  0  0  0  0  0  0  0  0  0  0  0
    8.3373  -16.8210   25.7975 N   0  0  0  0  0  0  0  0  0  0  0  0
    8.0506  -15.5205   25.3287 C   0  0  0  0  0  0  0  0  0  0  0  0
    7.1284  -14.9038   25.9179 O   0  0  0  0  0  0  0  0  0  0  0  0
    8.7729  -14.8784   24.2044 C   0  0  0  0  0  0  0  0  0  0  0  0
    9.8466  -15.7002   23.6176 C   0  0  0  0  0  0  0  0  0  0  0  0
   10.6333  -15.1481   22.4867 C   0  0  2  0  0  0  0  0  0  0  0  0
    9.7355  -15.0651   21.3573 N   0  0  0  0  0  0  0  0  0  0  0  0
   11.8208  -15.8889   22.0990 C   0  0  0  0  0  0  0  0  0  0  0  0
   11.8356  -17.0237   21.5552 O   0  0  0  0  0  0  0  0  0  0  0  0
   13.0940  -15.3102   22.3406 N   0  0  0  0  0  0  0  0  0  0  0  0
   14.3294  -15.9683   21.9693 C   0  0  1  0  0  0  0  0  0  0  0  0
   15.1679  -14.9437   21.2219 C   0  0  0  0  0  0  0  0  0  0  0  0
   15.2771  -15.4317   19.7779 C   0  0  0  0  0  0  0  0  0  0  0  0
   16.2467  -14.5876   19.0353 C   0  0  0  0  0  0  0  0  0  0  0  0
   15.8701  -13.4827   18.5680 O   0  0  0  0  0  0  0  0  0  0  0  0
   15.0607  -16.3536   23.2279 C   0  0  0  0  0  0  0  0  0  0  0  0
   16.1652  -17.1961   23.1945 O   0  0  0  0  0  0  0  0  0  0  0  0
   17.5477  -15.0149   18.8615 O   0  0  0  0  0  0  0  0  0  0  0  0
   14.6949  -15.9252   24.3472 O   0  0  0  0  0  0  0  0  0  0  0  0
  1  2  1  0
  3  2  1  0
  4  5  1  0
  4  3  1  0
  5  1  1  0
  6 14  1  0
  5  6  1  1
  7  6  2  0
  8  9  1  0
  9 10  2  0
 11 12  1  0
 11  9  1  0
 13 14  1  0
 13 12  1  1
 15 13  1  0
 16 15  2  0
 17 15  1  0
 18 17  1  0
 18 19  1  6
 20 19  1  0
 20 21  1  0
 21 25  1  0
 21 22  2  0
 23 18  1  0
 23 24  1  0
 26 23  2  0
M  END
$$$$
