PQE.pdb
     RDKit          3D

 26 26  0  0  1  0  0  0  0  0999 V2000
    7.2206  -15.0056   19.8283 N   0  0  0  0  0  0  0  0  0  0  0  0
    6.7920  -14.5245   18.5057 C   0  0  0  0  0  0  0  0  0  0  0  0
    6.9753  -13.0271   18.6838 C   0  0  0  0  0  0  0  0  0  0  0  0
    8.2921  -12.9737   19.4482 C   0  0  0  0  0  0  0  0  0  0  0  0
    8.5081  -14.3667   19.9569 C   0  0  1  0  0  0  0  0  0  0  0  0
    8.9603  -14.3105   21.3728 C   0  0  0  0  0  0  0  0  0  0  0  0
   10.1120  -13.8830   21.6301 O   0  0  0  0  0  0  0  0  0  0  0  0
    5.0724  -13.3380   26.0573 N   0  0  0  0  0  0  0  0  0  0  0  0
    6.3387  -12.8220   26.4088 C   0  0  0  0  0  0  0  0  0  0  0  0
    6.3616  -11.9853   27.3454 O   0  0  0  0  0  0  0  0  0  0  0  0
    7.5990  -13.2176   25.7356 C   0  0  0  0  0  0  0  0  0  0  0  0
    7.4265  -14.1710   24.6248 C   0  0  0  0  0  0  0  0  0  0  0  0
    8.6116  -14.5480   23.8149 C   0  0  2  0  0  0  0  0  0  0  0  0
    8.1492  -14.7189   22.4564 N   0  0  0  0  0  0  0  0  0  0  0  0
    9.3280  -15.7416   24.2289 C   0  0  0  0  0  0  0  0  0  0  0  0
    8.8798  -16.9171   24.1979 O   0  0  0  0  0  0  0  0  0  0  0  0
   10.6538  -15.6056   24.7169 N   0  0  0  0  0  0  0  0  0  0  0  0
   11.4991  -16.7475   24.9974 C   0  0  1  0  0  0  0  0  0  0  0  0
   12.9378  -16.2779   24.8521 C   0  0  0  0  0  0  0  0  0  0  0  0
   13.8283  -17.4652   25.2157 C   0  0  0  0  0  0  0  0  0  0  0  0
   15.1385  -17.3383   24.5290 C   0  0  0  0  0  0  0  0  0  0  0  0
   15.9016  -16.3853   24.8293 O   0  0  0  0  0  0  0  0  0  0  0  0
   11.2775  -17.1642   26.4273 C   0  0  0  0  0  0  0  0  0  0  0  0
   11.6150  -18.4370   26.8711 O   0  0  0  0  0  0  0  0  0  0  0  0
   15.5116  -18.2594   23.5709 O   0  0  0  0  0  0  0  0  0  0  0  0
   10.7807  -16.3740   27.2633 O   0  0  0  0  0  0  0  0  0  0  0  0
  1  2  1  0
  3  2  1  0
  4  5  1  0
  4  3  1  0
  5  1  1  0
  6 14  1  0
  5  6  1  1
  7  6  2  0
  8  9  1  0
  9 10  2  0
 11 12  1  0
 11  9  1  0
 13 14  1  0
 13 12  1  1
 15 13  1  0
 16 15  2  0
 17 15  1  0
 18 17  1  0
 18 19  1  1
 20 19  1  0
 20 21  1  0
 21 25  1  0
 21 22  2  0
 23 18  1  0
 23 24  1  0
 26 23  2  0
M  END
$$$$
