PQE.pdb
     RDKit          3D

 26 26  0  0  1  0  0  0  0  0999 V2000
    4.9014  -19.4011   22.4852 N   0  0  0  0  0  0  0  0  0  0  0  0
    3.4813  -19.7833   22.5255 C   0  0  0  0  0  0  0  0  0  0  0  0
    2.8256  -18.4367   22.2716 C   0  0  0  0  0  0  0  0  0  0  0  0
    3.7310  -17.8599   21.1905 C   0  0  0  0  0  0  0  0  0  0  0  0
    4.9696  -18.7029   21.2242 C   0  0  1  0  0  0  0  0  0  0  0  0
    6.1669  -17.8242   21.1409 C   0  0  0  0  0  0  0  0  0  0  0  0
    7.2433  -18.2977   20.7021 O   0  0  0  0  0  0  0  0  0  0  0  0
    8.1455  -12.1978   18.4439 N   0  0  0  0  0  0  0  0  0  0  0  0
    8.4243  -13.2671   19.3226 C   0  0  0  0  0  0  0  0  0  0  0  0
    9.0901  -14.2213   18.8494 O   0  0  0  0  0  0  0  0  0  0  0  0
    7.9746  -13.3039   20.7349 C   0  0  0  0  0  0  0  0  0  0  0  0
    6.9372  -14.3111   21.0210 C   0  0  0  0  0  0  0  0  0  0  0  0
    7.3569  -15.6711   21.4413 C   0  0  2  0  0  0  0  0  0  0  0  0
    6.1540  -16.4667   21.5356 N   0  0  0  0  0  0  0  0  0  0  0  0
    8.0915  -15.7670   22.6905 C   0  0  0  0  0  0  0  0  0  0  0  0
    7.5976  -15.6722   23.8441 O   0  0  0  0  0  0  0  0  0  0  0  0
    9.4928  -15.9868   22.6417 N   0  0  0  0  0  0  0  0  0  0  0  0
   10.2942  -16.1575   23.8358 C   0  0  1  0  0  0  0  0  0  0  0  0
    9.9638  -17.5315   24.3964 C   0  0  0  0  0  0  0  0  0  0  0  0
   10.8741  -17.7455   25.6049 C   0  0  0  0  0  0  0  0  0  0  0  0
   10.6122  -19.0802   26.2000 C   0  0  0  0  0  0  0  0  0  0  0  0
    9.8440  -19.8793   25.6065 O   0  0  0  0  0  0  0  0  0  0  0  0
   11.7470  -16.1425   23.4403 C   0  0  0  0  0  0  0  0  0  0  0  0
   12.7552  -16.0383   24.3910 O   0  0  0  0  0  0  0  0  0  0  0  0
   11.2079  -19.4368   27.3931 O   0  0  0  0  0  0  0  0  0  0  0  0
   12.0928  -16.2239   22.2387 O   0  0  0  0  0  0  0  0  0  0  0  0
  1  2  1  0
  3  2  1  0
  4  5  1  0
  4  3  1  0
  5  1  1  0
  6 14  1  0
  5  6  1  1
  7  6  2  0
  8  9  1  0
  9 10  2  0
 11 12  1  0
 11  9  1  0
 13 14  1  0
 13 12  1  1
 15 13  1  0
 16 15  2  0
 17 15  1  0
 18 17  1  0
 18 19  1  6
 20 19  1  0
 20 21  1  0
 21 25  1  0
 21 22  2  0
 23 18  1  0
 23 24  1  0
 26 23  2  0
M  END
$$$$
