PQE.pdb
     RDKit          3D

 26 26  0  0  1  0  0  0  0  0999 V2000
    7.4317  -15.0921   19.4650 N   0  0  0  0  0  0  0  0  0  0  0  0
    6.8432  -14.2687   18.3972 C   0  0  0  0  0  0  0  0  0  0  0  0
    7.1483  -12.8763   18.9224 C   0  0  0  0  0  0  0  0  0  0  0  0
    8.5649  -13.0582   19.4528 C   0  0  0  0  0  0  0  0  0  0  0  0
    8.7628  -14.5408   19.5447 C   0  0  1  0  0  0  0  0  0  0  0  0
    9.4236  -14.8713   20.8357 C   0  0  0  0  0  0  0  0  0  0  0  0
   10.6208  -14.5385   21.0124 O   0  0  0  0  0  0  0  0  0  0  0  0
    6.4819  -17.6078   25.7767 N   0  0  0  0  0  0  0  0  0  0  0  0
    7.7907  -17.3669   26.2482 C   0  0  0  0  0  0  0  0  0  0  0  0
    8.0260  -17.6941   27.4379 O   0  0  0  0  0  0  0  0  0  0  0  0
    8.8606  -16.7621   25.4190 C   0  0  0  0  0  0  0  0  0  0  0  0
    8.4294  -16.3443   24.0728 C   0  0  0  0  0  0  0  0  0  0  0  0
    9.4323  -15.7551   23.1511 C   0  0  2  0  0  0  0  0  0  0  0  0
    8.7638  -15.5493   21.8863 N   0  0  0  0  0  0  0  0  0  0  0  0
   10.6436  -16.5255   22.9308 C   0  0  0  0  0  0  0  0  0  0  0  0
   10.7428  -17.5504   22.2073 O   0  0  0  0  0  0  0  0  0  0  0  0
   11.8397  -16.1131   23.5739 N   0  0  0  0  0  0  0  0  0  0  0  0
   13.0896  -16.8287   23.4222 C   0  0  1  0  0  0  0  0  0  0  0  0
   14.0601  -15.8812   22.7355 C   0  0  0  0  0  0  0  0  0  0  0  0
   15.4176  -16.5823   22.7098 C   0  0  0  0  0  0  0  0  0  0  0  0
   16.4019  -15.7429   21.9814 C   0  0  0  0  0  0  0  0  0  0  0  0
   16.1858  -15.4427   20.7797 O   0  0  0  0  0  0  0  0  0  0  0  0
   13.6256  -17.1466   24.7929 C   0  0  0  0  0  0  0  0  0  0  0  0
   13.0223  -16.6462   25.9404 O   0  0  0  0  0  0  0  0  0  0  0  0
   17.5419  -15.2983   22.6204 O   0  0  0  0  0  0  0  0  0  0  0  0
   14.6350  -17.8741   24.9417 O   0  0  0  0  0  0  0  0  0  0  0  0
  1  2  1  0
  3  2  1  0
  4  5  1  0
  4  3  1  0
  5  1  1  0
  6 14  1  0
  5  6  1  1
  7  6  2  0
  8  9  1  0
  9 10  2  0
 11 12  1  0
 11  9  1  0
 13 14  1  0
 13 12  1  1
 15 13  1  0
 16 15  2  0
 17 15  1  0
 18 17  1  0
 18 19  1  1
 20 19  1  0
 20 21  1  0
 21 25  1  0
 21 22  2  0
 23 18  1  0
 23 24  1  0
 26 23  2  0
M  END
$$$$
