PQE.pdb
     RDKit          3D

 26 26  0  0  1  0  0  0  0  0999 V2000
    8.2184  -15.0156   19.0223 N   0  0  0  0  0  0  0  0  0  0  0  0
    8.0850  -14.0993   17.8790 C   0  0  0  0  0  0  0  0  0  0  0  0
    7.1502  -13.0568   18.4682 C   0  0  0  0  0  0  0  0  0  0  0  0
    7.7129  -12.9094   19.8763 C   0  0  0  0  0  0  0  0  0  0  0  0
    8.5987  -14.1021   20.0726 C   0  0  1  0  0  0  0  0  0  0  0  0
    8.3584  -14.6785   21.4226 C   0  0  0  0  0  0  0  0  0  0  0  0
    8.6026  -13.9810   22.4372 O   0  0  0  0  0  0  0  0  0  0  0  0
    5.2883  -20.1066   22.6312 N   0  0  0  0  0  0  0  0  0  0  0  0
    5.8989  -19.7840   23.8626 C   0  0  0  0  0  0  0  0  0  0  0  0
    5.6681  -20.5610   24.8222 O   0  0  0  0  0  0  0  0  0  0  0  0
    6.7720  -18.6017   24.0579 C   0  0  0  0  0  0  0  0  0  0  0  0
    6.9349  -17.7566   22.8613 C   0  0  0  0  0  0  0  0  0  0  0  0
    7.7633  -16.5292   22.9596 C   0  0  2  0  0  0  0  0  0  0  0  0
    7.8633  -15.9873   21.6236 N   0  0  0  0  0  0  0  0  0  0  0  0
    9.0974  -16.6886   23.5110 C   0  0  0  0  0  0  0  0  0  0  0  0
   10.1391  -16.9486   22.8546 O   0  0  0  0  0  0  0  0  0  0  0  0
    9.2774  -16.5447   24.9115 N   0  0  0  0  0  0  0  0  0  0  0  0
   10.5696  -16.6942   25.5479 C   0  0  1  0  0  0  0  0  0  0  0  0
   10.7499  -15.4970   26.4673 C   0  0  0  0  0  0  0  0  0  0  0  0
    9.9493  -15.7900   27.7355 C   0  0  0  0  0  0  0  0  0  0  0  0
   10.1285  -14.6834   28.7087 C   0  0  0  0  0  0  0  0  0  0  0  0
   10.6592  -13.6087   28.3287 O   0  0  0  0  0  0  0  0  0  0  0  0
   10.5436  -17.9413   26.3913 C   0  0  0  0  0  0  0  0  0  0  0  0
   11.7144  -18.5138   26.8737 O   0  0  0  0  0  0  0  0  0  0  0  0
    9.7155  -14.8364   30.0170 O   0  0  0  0  0  0  0  0  0  0  0  0
    9.4626  -18.5029   26.6852 O   0  0  0  0  0  0  0  0  0  0  0  0
  1  2  1  0
  3  2  1  0
  4  5  1  0
  4  3  1  0
  5  1  1  0
  6 14  1  0
  5  6  1  1
  7  6  2  0
  8  9  1  0
  9 10  2  0
 11 12  1  0
 11  9  1  0
 13 14  1  0
 13 12  1  6
 15 13  1  0
 16 15  2  0
 17 15  1  0
 18 17  1  0
 18 19  1  1
 20 19  1  0
 20 21  1  0
 21 25  1  0
 21 22  2  0
 23 18  1  0
 23 24  1  0
 26 23  2  0
M  END
$$$$
