PQE.pdb
     RDKit          3D

 26 26  0  0  1  0  0  0  0  0999 V2000
    7.0372  -15.0292   19.9342 N   0  0  0  0  0  0  0  0  0  0  0  0
    6.6623  -14.5699   18.5876 C   0  0  0  0  0  0  0  0  0  0  0  0
    7.0054  -13.0939   18.6938 C   0  0  0  0  0  0  0  0  0  0  0  0
    8.3205  -13.1448   19.4613 C   0  0  0  0  0  0  0  0  0  0  0  0
    8.3859  -14.5265   20.0380 C   0  0  1  0  0  0  0  0  0  0  0  0
    8.8419  -14.4501   21.4517 C   0  0  0  0  0  0  0  0  0  0  0  0
   10.0482  -14.2001   21.6922 O   0  0  0  0  0  0  0  0  0  0  0  0
    5.0492  -12.9341   26.1709 N   0  0  0  0  0  0  0  0  0  0  0  0
    6.3141  -13.0415   26.7888 C   0  0  0  0  0  0  0  0  0  0  0  0
    6.3794  -12.6947   27.9943 O   0  0  0  0  0  0  0  0  0  0  0  0
    7.5268  -13.5314   26.0905 C   0  0  0  0  0  0  0  0  0  0  0  0
    7.3216  -13.8673   24.6701 C   0  0  0  0  0  0  0  0  0  0  0  0
    8.4535  -14.4393   23.8993 C   0  0  2  0  0  0  0  0  0  0  0  0
    7.9755  -14.6471   22.5514 N   0  0  0  0  0  0  0  0  0  0  0  0
    9.0202  -15.6788   24.4011 C   0  0  0  0  0  0  0  0  0  0  0  0
    8.5181  -16.8250   24.2674 O   0  0  0  0  0  0  0  0  0  0  0  0
   10.2488  -15.6286   25.1099 N   0  0  0  0  0  0  0  0  0  0  0  0
   11.1190  -16.7790   25.2383 C   0  0  1  0  0  0  0  0  0  0  0  0
   12.4981  -16.3437   24.7693 C   0  0  0  0  0  0  0  0  0  0  0  0
   13.4131  -17.5605   24.9004 C   0  0  0  0  0  0  0  0  0  0  0  0
   14.7506  -17.2451   24.3385 C   0  0  0  0  0  0  0  0  0  0  0  0
   14.8971  -17.1891   23.0910 O   0  0  0  0  0  0  0  0  0  0  0  0
   11.2075  -17.1488   26.6952 C   0  0  0  0  0  0  0  0  0  0  0  0
   10.7894  -16.2743   27.6910 O   0  0  0  0  0  0  0  0  0  0  0  0
   15.8204  -17.0164   25.1804 O   0  0  0  0  0  0  0  0  0  0  0  0
   11.6621  -18.2596   27.0558 O   0  0  0  0  0  0  0  0  0  0  0  0
  1  2  1  0
  3  2  1  0
  4  5  1  0
  4  3  1  0
  5  1  1  0
  6 14  1  0
  5  6  1  1
  7  6  2  0
  8  9  1  0
  9 10  2  0
 11 12  1  0
 11  9  1  0
 13 14  1  0
 13 12  1  1
 15 13  1  0
 16 15  2  0
 17 15  1  0
 18 17  1  0
 18 19  1  1
 20 19  1  0
 20 21  1  0
 21 25  1  0
 21 22  2  0
 23 18  1  0
 23 24  1  0
 26 23  2  0
M  END
$$$$
