PQE.pdb
     RDKit          3D

 26 26  0  0  1  0  0  0  0  0999 V2000
    6.7286  -14.6858   19.9469 N   0  0  0  0  0  0  0  0  0  0  0  0
    6.2923  -14.1082   18.6660 C   0  0  0  0  0  0  0  0  0  0  0  0
    6.7600  -12.6730   18.8368 C   0  0  0  0  0  0  0  0  0  0  0  0
    8.1205  -12.8756   19.4920 C   0  0  0  0  0  0  0  0  0  0  0  0
    8.1173  -14.2946   19.9739 C   0  0  1  0  0  0  0  0  0  0  0  0
    8.6824  -14.3501   21.3487 C   0  0  0  0  0  0  0  0  0  0  0  0
    9.9199  -14.2121   21.5069 O   0  0  0  0  0  0  0  0  0  0  0  0
    5.3345  -12.4545   26.2014 N   0  0  0  0  0  0  0  0  0  0  0  0
    6.5692  -12.7927   26.7967 C   0  0  0  0  0  0  0  0  0  0  0  0
    6.7135  -12.4772   28.0040 O   0  0  0  0  0  0  0  0  0  0  0  0
    7.6645  -13.4822   26.0735 C   0  0  0  0  0  0  0  0  0  0  0  0
    7.3923  -13.7349   24.6471 C   0  0  0  0  0  0  0  0  0  0  0  0
    8.4516  -14.3594   23.8162 C   0  0  2  0  0  0  0  0  0  0  0  0
    7.8872  -14.5528   22.4999 N   0  0  0  0  0  0  0  0  0  0  0  0
    8.9927  -15.6198   24.2934 C   0  0  0  0  0  0  0  0  0  0  0  0
    8.3836  -16.7208   24.3163 O   0  0  0  0  0  0  0  0  0  0  0  0
   10.3240  -15.6475   24.7844 N   0  0  0  0  0  0  0  0  0  0  0  0
   10.9928  -16.8798   25.1467 C   0  0  1  0  0  0  0  0  0  0  0  0
   12.4768  -16.6674   24.8940 C   0  0  0  0  0  0  0  0  0  0  0  0
   13.1946  -17.9155   25.4061 C   0  0  0  0  0  0  0  0  0  0  0  0
   14.6551  -17.7848   25.1739 C   0  0  0  0  0  0  0  0  0  0  0  0
   15.1014  -16.7438   24.6280 O   0  0  0  0  0  0  0  0  0  0  0  0
   10.7908  -17.1158   26.6201 C   0  0  0  0  0  0  0  0  0  0  0  0
   11.0172  -18.3621   27.1915 O   0  0  0  0  0  0  0  0  0  0  0  0
   15.5115  -18.7983   25.5548 O   0  0  0  0  0  0  0  0  0  0  0  0
   10.4114  -16.1932   27.3785 O   0  0  0  0  0  0  0  0  0  0  0  0
  1  2  1  0
  3  2  1  0
  4  5  1  0
  4  3  1  0
  5  1  1  0
  6 14  1  0
  5  6  1  1
  7  6  2  0
  8  9  1  0
  9 10  2  0
 11 12  1  0
 11  9  1  0
 13 14  1  0
 13 12  1  1
 15 13  1  0
 16 15  2  0
 17 15  1  0
 18 17  1  0
 18 19  1  1
 20 19  1  0
 20 21  1  0
 21 25  1  0
 21 22  2  0
 23 18  1  0
 23 24  1  0
 26 23  2  0
M  END
$$$$
