PQE.pdb
     RDKit          3D

 26 26  0  0  1  0  0  0  0  0999 V2000
    7.0209  -14.6927   19.9935 N   0  0  0  0  0  0  0  0  0  0  0  0
    6.6873  -14.1415   18.6709 C   0  0  0  0  0  0  0  0  0  0  0  0
    7.1635  -12.7089   18.8406 C   0  0  0  0  0  0  0  0  0  0  0  0
    8.4696  -12.9135   19.5977 C   0  0  0  0  0  0  0  0  0  0  0  0
    8.4098  -14.3198   20.1120 C   0  0  1  0  0  0  0  0  0  0  0  0
    8.8730  -14.3485   21.5252 C   0  0  0  0  0  0  0  0  0  0  0  0
   10.0878  -14.1543   21.7743 O   0  0  0  0  0  0  0  0  0  0  0  0
    5.4608  -12.2563   26.1886 N   0  0  0  0  0  0  0  0  0  0  0  0
    6.7038  -12.5469   26.7918 C   0  0  0  0  0  0  0  0  0  0  0  0
    6.8824  -12.0961   27.9506 O   0  0  0  0  0  0  0  0  0  0  0  0
    7.7695  -13.3370   26.1300 C   0  0  0  0  0  0  0  0  0  0  0  0
    7.5122  -13.6449   24.7117 C   0  0  0  0  0  0  0  0  0  0  0  0
    8.4928  -14.4767   23.9708 C   0  0  2  0  0  0  0  0  0  0  0  0
    8.0044  -14.5862   22.6150 N   0  0  0  0  0  0  0  0  0  0  0  0
    8.7442  -15.8071   24.4963 C   0  0  0  0  0  0  0  0  0  0  0  0
    7.9588  -16.7877   24.4241 O   0  0  0  0  0  0  0  0  0  0  0  0
    9.9757  -16.0576   25.1560 N   0  0  0  0  0  0  0  0  0  0  0  0
   10.4476  -17.3975   25.4372 C   0  0  1  0  0  0  0  0  0  0  0  0
   11.8267  -17.5205   24.8092 C   0  0  0  0  0  0  0  0  0  0  0  0
   12.3835  -18.8798   25.2302 C   0  0  0  0  0  0  0  0  0  0  0  0
   13.7282  -19.0778   24.6327 C   0  0  0  0  0  0  0  0  0  0  0  0
   14.4571  -20.0125   25.0522 O   0  0  0  0  0  0  0  0  0  0  0  0
   10.5895  -17.5492   26.9286 C   0  0  0  0  0  0  0  0  0  0  0  0
   10.6545  -18.8022   27.5260 O   0  0  0  0  0  0  0  0  0  0  0  0
   14.1703  -18.2421   23.6269 O   0  0  0  0  0  0  0  0  0  0  0  0
   10.6534  -16.5477   27.6790 O   0  0  0  0  0  0  0  0  0  0  0  0
  1  2  1  0
  3  2  1  0
  4  5  1  0
  4  3  1  0
  5  1  1  0
  6 14  1  0
  5  6  1  1
  7  6  2  0
  8  9  1  0
  9 10  2  0
 11 12  1  0
 11  9  1  0
 13 14  1  0
 13 12  1  1
 15 13  1  0
 16 15  2  0
 17 15  1  0
 18 17  1  0
 18 19  1  6
 20 19  1  0
 20 21  1  0
 21 25  1  0
 21 22  2  0
 23 18  1  0
 23 24  1  0
 26 23  2  0
M  END
$$$$
