PQE.pdb
     RDKit          3D

 26 26  0  0  1  0  0  0  0  0999 V2000
    7.1808  -14.7928   19.6892 N   0  0  0  0  0  0  0  0  0  0  0  0
    6.9305  -14.1771   18.3766 C   0  0  0  0  0  0  0  0  0  0  0  0
    7.0548  -12.7058   18.7336 C   0  0  0  0  0  0  0  0  0  0  0  0
    8.2506  -12.7248   19.6774 C   0  0  0  0  0  0  0  0  0  0  0  0
    8.4236  -14.1624   20.0638 C   0  0  1  0  0  0  0  0  0  0  0  0
    8.6725  -14.2535   21.5275 C   0  0  0  0  0  0  0  0  0  0  0  0
    9.8183  -13.9951   21.9698 O   0  0  0  0  0  0  0  0  0  0  0  0
    8.0309  -12.4142   26.7613 N   0  0  0  0  0  0  0  0  0  0  0  0
    6.8028  -13.1083   26.7037 C   0  0  0  0  0  0  0  0  0  0  0  0
    5.8196  -12.5525   27.2535 O   0  0  0  0  0  0  0  0  0  0  0  0
    6.6370  -14.4242   26.0412 C   0  0  0  0  0  0  0  0  0  0  0  0
    6.6696  -14.3766   24.5684 C   0  0  0  0  0  0  0  0  0  0  0  0
    7.9589  -14.6146   23.8732 C   0  0  2  0  0  0  0  0  0  0  0  0
    7.6723  -14.6207   22.4567 N   0  0  0  0  0  0  0  0  0  0  0  0
    8.6695  -15.8324   24.2215 C   0  0  0  0  0  0  0  0  0  0  0  0
    8.3051  -17.0035   23.9399 O   0  0  0  0  0  0  0  0  0  0  0  0
    9.8868  -15.7280   24.9438 N   0  0  0  0  0  0  0  0  0  0  0  0
   10.7809  -16.8526   25.1257 C   0  0  1  0  0  0  0  0  0  0  0  0
   12.1805  -16.3623   24.7908 C   0  0  0  0  0  0  0  0  0  0  0  0
   13.1248  -17.5448   25.0032 C   0  0  0  0  0  0  0  0  0  0  0  0
   14.5165  -17.1391   24.6827 C   0  0  0  0  0  0  0  0  0  0  0  0
   14.7720  -15.9257   24.4745 O   0  0  0  0  0  0  0  0  0  0  0  0
   10.7525  -17.2537   26.5767 C   0  0  0  0  0  0  0  0  0  0  0  0
   10.3045  -16.3807   27.5607 O   0  0  0  0  0  0  0  0  0  0  0  0
   15.5173  -18.0874   24.6148 O   0  0  0  0  0  0  0  0  0  0  0  0
   11.1330  -18.3902   26.9429 O   0  0  0  0  0  0  0  0  0  0  0  0
  1  2  1  0
  3  2  1  0
  4  5  1  0
  4  3  1  0
  5  1  1  0
  6 14  1  0
  5  6  1  1
  7  6  2  0
  8  9  1  0
  9 10  2  0
 11 12  1  0
 11  9  1  0
 13 14  1  0
 13 12  1  1
 15 13  1  0
 16 15  2  0
 17 15  1  0
 18 17  1  0
 18 19  1  1
 20 19  1  0
 20 21  1  0
 21 25  1  0
 21 22  2  0
 23 18  1  0
 23 24  1  0
 26 23  2  0
M  END
$$$$
