PQE.pdb
     RDKit          3D

 26 26  0  0  1  0  0  0  0  0999 V2000
    8.4816  -14.8315   19.0135 N   0  0  0  0  0  0  0  0  0  0  0  0
    8.5967  -13.8578   17.9166 C   0  0  0  0  0  0  0  0  0  0  0  0
    7.6253  -12.7908   18.3916 C   0  0  0  0  0  0  0  0  0  0  0  0
    7.9380  -12.7407   19.8818 C   0  0  0  0  0  0  0  0  0  0  0  0
    8.7157  -13.9906   20.1626 C   0  0  1  0  0  0  0  0  0  0  0  0
    8.2135  -14.6130   21.4168 C   0  0  0  0  0  0  0  0  0  0  0  0
    8.2986  -13.9732   22.4933 O   0  0  0  0  0  0  0  0  0  0  0  0
    5.9974  -21.1582   23.3176 N   0  0  0  0  0  0  0  0  0  0  0  0
    5.4500  -19.8740   23.1066 C   0  0  0  0  0  0  0  0  0  0  0  0
    4.3355  -19.8287   22.5290 O   0  0  0  0  0  0  0  0  0  0  0  0
    6.1199  -18.6199   23.5269 C   0  0  0  0  0  0  0  0  0  0  0  0
    6.5351  -17.7454   22.4154 C   0  0  0  0  0  0  0  0  0  0  0  0
    7.2744  -16.4965   22.7253 C   0  0  2  0  0  0  0  0  0  0  0  0
    7.6383  -15.9038   21.4585 N   0  0  0  0  0  0  0  0  0  0  0  0
    8.4637  -16.6329   23.5476 C   0  0  0  0  0  0  0  0  0  0  0  0
    9.6315  -16.8361   23.1250 O   0  0  0  0  0  0  0  0  0  0  0  0
    8.3325  -16.5332   24.9573 N   0  0  0  0  0  0  0  0  0  0  0  0
    9.4684  -16.6217   25.8512 C   0  0  1  0  0  0  0  0  0  0  0  0
    9.3434  -15.4725   26.8387 C   0  0  0  0  0  0  0  0  0  0  0  0
   10.4921  -15.6204   27.8356 C   0  0  0  0  0  0  0  0  0  0  0  0
   10.4639  -14.4954   28.8038 C   0  0  0  0  0  0  0  0  0  0  0  0
    9.5723  -13.6150   28.6995 O   0  0  0  0  0  0  0  0  0  0  0  0
    9.3741  -17.9162   26.6145 C   0  0  0  0  0  0  0  0  0  0  0  0
   10.5014  -18.5201   27.1581 O   0  0  0  0  0  0  0  0  0  0  0  0
   11.4088  -14.4199   29.8073 O   0  0  0  0  0  0  0  0  0  0  0  0
    8.2733  -18.4905   26.7835 O   0  0  0  0  0  0  0  0  0  0  0  0
  1  2  1  0
  3  2  1  0
  4  5  1  0
  4  3  1  0
  5  1  1  0
  6 14  1  0
  5  6  1  1
  7  6  2  0
  8  9  1  0
  9 10  2  0
 11 12  1  0
 11  9  1  0
 13 14  1  0
 13 12  1  6
 15 13  1  0
 16 15  2  0
 17 15  1  0
 18 17  1  0
 18 19  1  1
 20 19  1  0
 20 21  1  0
 21 25  1  0
 21 22  2  0
 23 18  1  0
 23 24  1  0
 26 23  2  0
M  END
$$$$
