AYQ.pdb
     RDKit          3D

 27 27  0  0  1  0  0  0  0  0999 V2000
   22.0858  -17.7589  -17.2253 C   0  0  0  0  0  0  0  0  0  0  0  0
   23.4279  -18.4537  -17.1543 C   0  0  2  0  0  0  0  0  0  0  0  0
   24.0251  -18.6289  -18.4617 N   0  0  0  0  0  0  0  0  0  0  0  0
   23.3178  -19.7711  -16.4640 C   0  0  0  0  0  0  0  0  0  0  0  0
   22.9176  -20.7391  -17.1474 O   0  0  0  0  0  0  0  0  0  0  0  0
   29.1890  -22.6199  -16.8345 O   0  0  0  0  0  0  0  0  0  0  0  0
   28.0630  -22.3629  -16.0281 C   0  0  0  0  0  0  0  0  0  0  0  0
   27.1200  -23.3382  -15.7954 C   0  0  0  0  0  0  0  0  0  0  0  0
   26.0326  -23.0047  -14.9849 C   0  0  0  0  0  0  0  0  0  0  0  0
   25.8721  -21.7646  -14.4222 C   0  0  0  0  0  0  0  0  0  0  0  0
   24.7234  -21.4122  -13.5601 C   0  0  0  0  0  0  0  0  0  0  0  0
   23.5212  -21.1959  -14.4045 C   0  0  2  0  0  0  0  0  0  0  0  0
   23.6430  -19.9422  -15.1085 N   0  0  0  0  0  0  0  0  0  0  0  0
   22.2320  -21.2043  -13.6705 C   0  0  0  0  0  0  0  0  0  0  0  0
   21.9728  -20.2336  -12.9178 O   0  0  0  0  0  0  0  0  0  0  0  0
   26.8307  -20.8109  -14.6729 C   0  0  0  0  0  0  0  0  0  0  0  0
   27.9117  -21.1196  -15.4702 C   0  0  0  0  0  0  0  0  0  0  0  0
   17.0856  -20.4828  -15.6126 N   0  0  0  0  0  0  0  0  0  0  0  0
   16.6875  -20.6817  -14.2718 C   0  0  0  0  0  0  0  0  0  0  0  0
   15.5545  -20.3448  -13.8989 O   0  0  0  0  0  0  0  0  0  0  0  0
   17.7050  -21.3104  -13.3630 C   0  0  0  0  0  0  0  0  0  0  0  0
   19.0404  -21.4146  -14.0370 C   0  0  0  0  0  0  0  0  0  0  0  0
   20.0165  -22.0989  -13.1448 C   0  0  2  0  0  0  0  0  0  0  0  0
   21.3045  -22.2826  -13.8096 N   0  0  0  0  0  0  0  0  0  0  0  0
   19.5290  -23.4515  -12.8139 C   0  0  0  0  0  0  0  0  0  0  0  0
   19.9333  -24.4173  -13.5563 O   0  0  0  0  0  0  0  0  0  0  0  0
   18.6888  -23.8010  -11.7939 O   0  0  0  0  0  0  0  0  0  0  0  0
  2  1  1  6
  3  2  1  0
  4 13  1  0
  4  2  1  0
  5  4  2  0
  7  6  1  0
  8  7  2  0
  9  8  1  0
 10  9  2  0
 10 16  1  0
 12 11  1  1
 11 10  1  0
 12 14  1  0
 12 13  1  0
 14 15  2  0
 16 17  2  0
 17  7  1  0
 19 18  1  0
 19 21  1  0
 20 19  2  0
 22 21  1  0
 23 22  1  6
 24 14  1  0
 24 23  1  0
 25 23  1  0
 25 27  1  0
 26 25  2  0
M  END
$$$$
