AYQ.pdb
     RDKit          3D

 27 27  0  0  1  0  0  0  0  0999 V2000
   28.3542  -22.1216  -18.6064 C   0  0  0  0  0  0  0  0  0  0  0  0
   29.1884  -22.3720  -17.3693 C   0  0  2  0  0  0  0  0  0  0  0  0
   30.0031  -23.5632  -17.4883 N   0  0  0  0  0  0  0  0  0  0  0  0
   28.3335  -22.4594  -16.1503 C   0  0  0  0  0  0  0  0  0  0  0  0
   27.9017  -23.5913  -15.8391 O   0  0  0  0  0  0  0  0  0  0  0  0
   24.3528  -20.5130   -8.6060 O   0  0  0  0  0  0  0  0  0  0  0  0
   25.1050  -20.4227   -9.7937 C   0  0  0  0  0  0  0  0  0  0  0  0
   24.6145  -19.7582  -10.8948 C   0  0  0  0  0  0  0  0  0  0  0  0
   25.4211  -19.7132  -12.0340 C   0  0  0  0  0  0  0  0  0  0  0  0
   26.6609  -20.2956  -12.0957 C   0  0  0  0  0  0  0  0  0  0  0  0
   27.5174  -20.2443  -13.3001 C   0  0  0  0  0  0  0  0  0  0  0  0
   27.1857  -21.3858  -14.1901 C   0  0  2  0  0  0  0  0  0  0  0  0
   28.0138  -21.3359  -15.3708 N   0  0  0  0  0  0  0  0  0  0  0  0
   25.7648  -21.4586  -14.6102 C   0  0  0  0  0  0  0  0  0  0  0  0
   25.4310  -20.8798  -15.6730 O   0  0  0  0  0  0  0  0  0  0  0  0
   27.1239  -20.9525  -10.9798 C   0  0  0  0  0  0  0  0  0  0  0  0
   26.3435  -21.0086   -9.8452 C   0  0  0  0  0  0  0  0  0  0  0  0
   22.4729  -26.3232  -15.1071 N   0  0  0  0  0  0  0  0  0  0  0  0
   21.4439  -25.3972  -15.3890 C   0  0  0  0  0  0  0  0  0  0  0  0
   20.3391  -25.7919  -15.7888 O   0  0  0  0  0  0  0  0  0  0  0  0
   21.7772  -23.9482  -15.1753 C   0  0  0  0  0  0  0  0  0  0  0  0
   23.1763  -23.7857  -14.6610 C   0  0  0  0  0  0  0  0  0  0  0  0
   23.4887  -22.3435  -14.4625 C   0  0  2  0  0  0  0  0  0  0  0  0
   24.7953  -22.1654  -13.8336 N   0  0  0  0  0  0  0  0  0  0  0  0
   22.5051  -21.7404  -13.5430 C   0  0  0  0  0  0  0  0  0  0  0  0
   22.7008  -21.9070  -12.2854 O   0  0  0  0  0  0  0  0  0  0  0  0
   21.3974  -21.0131  -13.8781 O   0  0  0  0  0  0  0  0  0  0  0  0
  2  1  1  6
  3  2  1  0
  4 13  1  0
  4  2  1  0
  5  4  2  0
  7  6  1  0
  8  7  2  0
  9  8  1  0
 10  9  2  0
 10 16  1  0
 12 11  1  1
 11 10  1  0
 12 14  1  0
 12 13  1  0
 14 15  2  0
 16 17  2  0
 17  7  1  0
 19 18  1  0
 19 21  1  0
 20 19  2  0
 22 21  1  0
 23 22  1  1
 24 14  1  0
 24 23  1  0
 25 23  1  0
 25 27  1  0
 26 25  2  0
M  END
$$$$
