AYQ.pdb
     RDKit          3D

 27 27  0  0  1  0  0  0  0  0999 V2000
   19.0853  -13.0010  -18.9156 C   0  0  0  0  0  0  0  0  0  0  0  0
   19.7610  -13.0985  -17.5654 C   0  0  2  0  0  0  0  0  0  0  0  0
   19.1515  -14.1020  -16.7178 N   0  0  0  0  0  0  0  0  0  0  0  0
   19.7682  -11.7798  -16.8689 C   0  0  0  0  0  0  0  0  0  0  0  0
   18.7194  -11.4447  -16.2757 O   0  0  0  0  0  0  0  0  0  0  0  0
   22.2330   -4.1446  -13.4139 O   0  0  0  0  0  0  0  0  0  0  0  0
   22.2422   -5.4243  -14.0028 C   0  0  0  0  0  0  0  0  0  0  0  0
   22.7157   -5.6129  -15.2814 C   0  0  0  0  0  0  0  0  0  0  0  0
   22.6913   -6.9119  -15.7938 C   0  0  0  0  0  0  0  0  0  0  0  0
   22.2219   -7.9870  -15.0838 C   0  0  0  0  0  0  0  0  0  0  0  0
   22.2000   -9.3634  -15.6241 C   0  0  0  0  0  0  0  0  0  0  0  0
   20.8969   -9.6105  -16.2918 C   0  0  2  0  0  0  0  0  0  0  0  0
   20.8899  -10.9347  -16.8652 N   0  0  0  0  0  0  0  0  0  0  0  0
   20.5416   -8.6336  -17.3502 C   0  0  0  0  0  0  0  0  0  0  0  0
   21.0363   -8.7926  -18.4931 O   0  0  0  0  0  0  0  0  0  0  0  0
   21.7552   -7.7671  -13.8091 C   0  0  0  0  0  0  0  0  0  0  0  0
   21.7705   -6.4927  -13.2846 C   0  0  0  0  0  0  0  0  0  0  0  0
   15.4052   -5.9933  -19.0303 N   0  0  0  0  0  0  0  0  0  0  0  0
   16.2985   -5.2694  -19.8511 C   0  0  0  0  0  0  0  0  0  0  0  0
   15.8658   -4.5269  -20.7442 O   0  0  0  0  0  0  0  0  0  0  0  0
   17.7618   -5.4600  -19.5702 C   0  0  0  0  0  0  0  0  0  0  0  0
   17.9756   -6.4597  -18.4731 C   0  0  0  0  0  0  0  0  0  0  0  0
   19.4305   -6.6289  -18.2058 C   0  0  2  0  0  0  0  0  0  0  0  0
   19.6619   -7.5387  -17.0863 N   0  0  0  0  0  0  0  0  0  0  0  0
   20.0207   -5.3353  -17.8121 C   0  0  0  0  0  0  0  0  0  0  0  0
   19.7227   -4.8865  -16.6471 O   0  0  0  0  0  0  0  0  0  0  0  0
   20.8611   -4.5507  -18.5513 O   0  0  0  0  0  0  0  0  0  0  0  0
  2  1  1  6
  3  2  1  0
  4 13  1  0
  4  2  1  0
  5  4  2  0
  7  6  1  0
  8  7  2  0
  9  8  1  0
 10  9  2  0
 10 16  1  0
 12 11  1  6
 11 10  1  0
 12 14  1  0
 12 13  1  0
 14 15  2  0
 16 17  2  0
 17  7  1  0
 19 18  1  0
 19 21  1  0
 20 19  2  0
 22 21  1  0
 23 22  1  1
 24 14  1  0
 24 23  1  0
 25 23  1  0
 25 27  1  0
 26 25  2  0
M  END
$$$$
