AYQ.pdb
     RDKit          3D

 27 27  0  0  1  0  0  0  0  0999 V2000
   28.1706  -16.2576  -16.1708 C   0  0  0  0  0  0  0  0  0  0  0  0
   26.6767  -16.3132  -15.9378 C   0  0  2  0  0  0  0  0  0  0  0  0
   26.2530  -15.4222  -14.8778 N   0  0  0  0  0  0  0  0  0  0  0  0
   26.2276  -17.7046  -15.6436 C   0  0  0  0  0  0  0  0  0  0  0  0
   26.4687  -18.5745  -16.5092 O   0  0  0  0  0  0  0  0  0  0  0  0
   30.8265  -21.2546  -12.0279 O   0  0  0  0  0  0  0  0  0  0  0  0
   29.4745  -20.8997  -12.2029 C   0  0  0  0  0  0  0  0  0  0  0  0
   28.5353  -21.8400  -12.5609 C   0  0  0  0  0  0  0  0  0  0  0  0
   27.2159  -21.4086  -12.7147 C   0  0  0  0  0  0  0  0  0  0  0  0
   26.8280  -20.1071  -12.5258 C   0  0  0  0  0  0  0  0  0  0  0  0
   25.4304  -19.6506  -12.6839 C   0  0  0  0  0  0  0  0  0  0  0  0
   25.1559  -19.3906  -14.1200 C   0  0  2  0  0  0  0  0  0  0  0  0
   25.5622  -18.0472  -14.4552 N   0  0  0  0  0  0  0  0  0  0  0  0
   23.7420  -19.5747  -14.5295 C   0  0  0  0  0  0  0  0  0  0  0  0
   22.9032  -18.7147  -14.1650 O   0  0  0  0  0  0  0  0  0  0  0  0
   27.7890  -19.1905  -12.1686 C   0  0  0  0  0  0  0  0  0  0  0  0
   29.0969  -19.5955  -12.0117 C   0  0  0  0  0  0  0  0  0  0  0  0
   20.7060  -17.0133  -16.8658 N   0  0  0  0  0  0  0  0  0  0  0  0
   20.3363  -17.9171  -17.8867 C   0  0  0  0  0  0  0  0  0  0  0  0
   19.6922  -17.5219  -18.8692 O   0  0  0  0  0  0  0  0  0  0  0  0
   20.7671  -19.3438  -17.6991 C   0  0  0  0  0  0  0  0  0  0  0  0
   22.0708  -19.4221  -16.9623 C   0  0  0  0  0  0  0  0  0  0  0  0
   22.0519  -20.5580  -15.9998 C   0  0  2  0  0  0  0  0  0  0  0  0
   23.3361  -20.6961  -15.3170 N   0  0  0  0  0  0  0  0  0  0  0  0
   21.8344  -21.8245  -16.7248 C   0  0  0  0  0  0  0  0  0  0  0  0
   22.8764  -22.4418  -17.1499 O   0  0  0  0  0  0  0  0  0  0  0  0
   20.6378  -22.4263  -16.9972 O   0  0  0  0  0  0  0  0  0  0  0  0
  2  1  1  1
  3  2  1  0
  4 13  1  0
  4  2  1  0
  5  4  2  0
  7  6  1  0
  8  7  2  0
  9  8  1  0
 10  9  2  0
 10 16  1  0
 12 11  1  1
 11 10  1  0
 12 14  1  0
 12 13  1  0
 14 15  2  0
 16 17  2  0
 17  7  1  0
 19 18  1  0
 19 21  1  0
 20 19  2  0
 22 21  1  0
 23 22  1  6
 24 14  1  0
 24 23  1  0
 25 23  1  0
 25 27  1  0
 26 25  2  0
M  END
$$$$
