AYQ.pdb
     RDKit          3D

 27 27  0  0  1  0  0  0  0  0999 V2000
   21.7554    6.7776   -7.8189 C   0  0  0  0  0  0  0  0  0  0  0  0
   22.1747    5.3353   -8.0005 C   0  0  2  0  0  0  0  0  0  0  0  0
   21.0499    4.4677   -8.2815 N   0  0  0  0  0  0  0  0  0  0  0  0
   22.9182    4.8351   -6.8082 C   0  0  0  0  0  0  0  0  0  0  0  0
   23.1756    5.6659   -5.9094 O   0  0  0  0  0  0  0  0  0  0  0  0
   25.8182   -0.2597   -0.3900 O   0  0  0  0  0  0  0  0  0  0  0  0
   25.2527    0.2040   -1.5940 C   0  0  0  0  0  0  0  0  0  0  0  0
   25.8958    0.0191   -2.7969 C   0  0  0  0  0  0  0  0  0  0  0  0
   25.2697    0.5079   -3.9456 C   0  0  0  0  0  0  0  0  0  0  0  0
   24.0601    1.1533   -3.9206 C   0  0  0  0  0  0  0  0  0  0  0  0
   23.3944    1.6670   -5.1371 C   0  0  0  0  0  0  0  0  0  0  0  0
   23.9974    2.9699   -5.5164 C   0  0  2  0  0  0  0  0  0  0  0  0
   23.3218    3.4964   -6.6778 N   0  0  0  0  0  0  0  0  0  0  0  0
   25.4541    2.9275   -5.7937 C   0  0  0  0  0  0  0  0  0  0  0  0
   25.8301    2.5420   -6.9278 O   0  0  0  0  0  0  0  0  0  0  0  0
   23.4419    1.3231   -2.7040 C   0  0  0  0  0  0  0  0  0  0  0  0
   24.0429    0.8483   -1.5583 C   0  0  0  0  0  0  0  0  0  0  0  0
   28.4461    6.1776   -8.1439 N   0  0  0  0  0  0  0  0  0  0  0  0
   29.6281    5.5523   -7.6887 C   0  0  0  0  0  0  0  0  0  0  0  0
   30.7067    5.7588   -8.2634 O   0  0  0  0  0  0  0  0  0  0  0  0
   29.4853    4.6491   -6.4969 C   0  0  0  0  0  0  0  0  0  0  0  0
   28.0724    4.6365   -5.9948 C   0  0  0  0  0  0  0  0  0  0  0  0
   27.7988    3.3730   -5.2560 C   0  0  2  0  0  0  0  0  0  0  0  0
   26.4107    3.3126   -4.8043 N   0  0  0  0  0  0  0  0  0  0  0  0
   28.6295    3.3156   -4.0381 C   0  0  0  0  0  0  0  0  0  0  0  0
   29.8239    2.8631   -4.1652 O   0  0  0  0  0  0  0  0  0  0  0  0
   28.2722    3.6958   -2.7748 O   0  0  0  0  0  0  0  0  0  0  0  0
  2  1  1  1
  3  2  1  0
  4 13  1  0
  4  2  1  0
  5  4  2  0
  7  6  1  0
  8  7  2  0
  9  8  1  0
 10  9  2  0
 10 16  1  0
 12 11  1  6
 11 10  1  0
 12 14  1  0
 12 13  1  0
 14 15  2  0
 16 17  2  0
 17  7  1  0
 19 18  1  0
 19 21  1  0
 20 19  2  0
 22 21  1  0
 23 22  1  1
 24 14  1  0
 24 23  1  0
 25 23  1  0
 25 27  1  0
 26 25  2  0
M  END
$$$$
