AYQ.pdb
     RDKit          3D

 27 27  0  0  1  0  0  0  0  0999 V2000
   27.7068  -21.6210  -18.6524 C   0  0  0  0  0  0  0  0  0  0  0  0
   28.5074  -22.0680  -17.4489 C   0  0  2  0  0  0  0  0  0  0  0  0
   29.1677  -23.3377  -17.6696 N   0  0  0  0  0  0  0  0  0  0  0  0
   27.6522  -22.1439  -16.2295 C   0  0  0  0  0  0  0  0  0  0  0  0
   26.9875  -23.1906  -16.0659 O   0  0  0  0  0  0  0  0  0  0  0  0
   24.3192  -20.6163   -8.3017 O   0  0  0  0  0  0  0  0  0  0  0  0
   25.0902  -20.5397   -9.4781 C   0  0  0  0  0  0  0  0  0  0  0  0
   26.2038  -21.3306   -9.6488 C   0  0  0  0  0  0  0  0  0  0  0  0
   26.9148  -21.1954  -10.8433 C   0  0  0  0  0  0  0  0  0  0  0  0
   26.5517  -20.3202  -11.8345 C   0  0  0  0  0  0  0  0  0  0  0  0
   27.3014  -20.1799  -13.1014 C   0  0  0  0  0  0  0  0  0  0  0  0
   26.7744  -21.1483  -14.0962 C   0  0  2  0  0  0  0  0  0  0  0  0
   27.5796  -21.1002  -15.2926 N   0  0  0  0  0  0  0  0  0  0  0  0
   25.3535  -20.9472  -14.4724 C   0  0  0  0  0  0  0  0  0  0  0  0
   25.0986  -20.1872  -15.4385 O   0  0  0  0  0  0  0  0  0  0  0  0
   25.4347  -19.5434  -11.6351 C   0  0  0  0  0  0  0  0  0  0  0  0
   24.7189  -19.6613  -10.4632 C   0  0  0  0  0  0  0  0  0  0  0  0
   21.2653  -24.1910  -16.6476 N   0  0  0  0  0  0  0  0  0  0  0  0
   20.4169  -23.0986  -16.3602 C   0  0  0  0  0  0  0  0  0  0  0  0
   19.3023  -23.0140  -16.8957 O   0  0  0  0  0  0  0  0  0  0  0  0
   20.9483  -22.0820  -15.3904 C   0  0  0  0  0  0  0  0  0  0  0  0
   22.3497  -22.4142  -14.9730 C   0  0  0  0  0  0  0  0  0  0  0  0
   22.9439  -21.2806  -14.2123 C   0  0  2  0  0  0  0  0  0  0  0  0
   24.2972  -21.5959  -13.7611 N   0  0  0  0  0  0  0  0  0  0  0  0
   22.1533  -21.0275  -12.9925 C   0  0  0  0  0  0  0  0  0  0  0  0
   20.9748  -20.5435  -13.1489 O   0  0  0  0  0  0  0  0  0  0  0  0
   22.5330  -21.2543  -11.6992 O   0  0  0  0  0  0  0  0  0  0  0  0
  2  1  1  6
  3  2  1  0
  4 13  1  0
  4  2  1  0
  5  4  2  0
  7  6  1  0
  8  7  2  0
  9  8  1  0
 10  9  2  0
 10 16  1  0
 12 11  1  1
 11 10  1  0
 12 14  1  0
 12 13  1  0
 14 15  2  0
 16 17  2  0
 17  7  1  0
 19 18  1  0
 19 21  1  0
 20 19  2  0
 22 21  1  0
 23 22  1  1
 24 14  1  0
 24 23  1  0
 25 23  1  0
 25 27  1  0
 26 25  2  0
M  END
$$$$
