AYQ.pdb
     RDKit          3D

 27 27  0  0  1  0  0  0  0  0999 V2000
   17.6920  -13.8482  -21.5470 C   0  0  0  0  0  0  0  0  0  0  0  0
   18.6507  -14.5530  -20.6125 C   0  0  2  0  0  0  0  0  0  0  0  0
   18.3368  -15.9586  -20.4618 N   0  0  0  0  0  0  0  0  0  0  0  0
   18.6850  -13.8927  -19.2757 C   0  0  0  0  0  0  0  0  0  0  0  0
   17.7926  -14.2137  -18.4603 O   0  0  0  0  0  0  0  0  0  0  0  0
   21.0016  -17.9964  -15.0922 O   0  0  0  0  0  0  0  0  0  0  0  0
   20.9958  -16.6575  -15.5300 C   0  0  0  0  0  0  0  0  0  0  0  0
   20.4463  -15.6608  -14.7559 C   0  0  0  0  0  0  0  0  0  0  0  0
   20.4797  -14.3589  -15.2605 C   0  0  0  0  0  0  0  0  0  0  0  0
   21.0294  -14.0420  -16.4760 C   0  0  0  0  0  0  0  0  0  0  0  0
   21.0693  -12.6631  -17.0087 C   0  0  0  0  0  0  0  0  0  0  0  0
   19.7582  -12.3338  -17.6233 C   0  0  2  0  0  0  0  0  0  0  0  0
   19.6650  -12.9500  -18.9248 N   0  0  0  0  0  0  0  0  0  0  0  0
   19.4806  -10.8833  -17.7643 C   0  0  0  0  0  0  0  0  0  0  0  0
   20.0206  -10.2667  -18.7152 O   0  0  0  0  0  0  0  0  0  0  0  0
   21.5706  -15.0592  -17.2267 C   0  0  0  0  0  0  0  0  0  0  0  0
   21.5479  -16.3511  -16.7471 C   0  0  0  0  0  0  0  0  0  0  0  0
   15.6660   -4.8372  -16.0473 N   0  0  0  0  0  0  0  0  0  0  0  0
   15.9326   -6.2116  -15.8584 C   0  0  0  0  0  0  0  0  0  0  0  0
   15.2243   -6.8878  -15.0986 O   0  0  0  0  0  0  0  0  0  0  0  0
   17.0986   -6.7731  -16.6211 C   0  0  0  0  0  0  0  0  0  0  0  0
   17.2711   -8.2367  -16.3440 C   0  0  0  0  0  0  0  0  0  0  0  0
   18.4309   -8.7732  -17.1081 C   0  0  2  0  0  0  0  0  0  0  0  0
   18.6239  -10.1979  -16.8485 N   0  0  0  0  0  0  0  0  0  0  0  0
   19.6710   -8.1046  -16.6702 C   0  0  0  0  0  0  0  0  0  0  0  0
   20.0726   -7.1029  -17.3651 O   0  0  0  0  0  0  0  0  0  0  0  0
   20.4504   -8.4295  -15.5953 O   0  0  0  0  0  0  0  0  0  0  0  0
  2  1  1  6
  3  2  1  0
  4 13  1  0
  4  2  1  0
  5  4  2  0
  7  6  1  0
  8  7  2  0
  9  8  1  0
 10  9  2  0
 10 16  1  0
 12 11  1  6
 11 10  1  0
 12 14  1  0
 12 13  1  0
 14 15  2  0
 16 17  2  0
 17  7  1  0
 19 18  1  0
 19 21  1  0
 20 19  2  0
 22 21  1  0
 23 22  1  1
 24 14  1  0
 24 23  1  0
 25 23  1  0
 25 27  1  0
 26 25  2  0
M  END
$$$$
