AYQ.pdb
     RDKit          3D

 27 27  0  0  1  0  0  0  0  0999 V2000
   29.9239  -20.0715  -12.1495 C   0  0  0  0  0  0  0  0  0  0  0  0
   29.9647  -20.6154  -10.7383 C   0  0  2  0  0  0  0  0  0  0  0  0
   30.8813  -21.7285  -10.6053 N   0  0  0  0  0  0  0  0  0  0  0  0
   28.6051  -21.0172  -10.2751 C   0  0  0  0  0  0  0  0  0  0  0  0
   28.3031  -22.2263  -10.3807 O   0  0  0  0  0  0  0  0  0  0  0  0
   29.0324  -20.2050   -3.5476 O   0  0  0  0  0  0  0  0  0  0  0  0
   28.2852  -19.9846   -4.7213 C   0  0  0  0  0  0  0  0  0  0  0  0
   28.5250  -18.8889   -5.5191 C   0  0  0  0  0  0  0  0  0  0  0  0
   27.7415  -18.7413   -6.6657 C   0  0  0  0  0  0  0  0  0  0  0  0
   26.7601  -19.6308   -7.0202 C   0  0  0  0  0  0  0  0  0  0  0  0
   25.9332  -19.4777   -8.2367 C   0  0  0  0  0  0  0  0  0  0  0  0
   26.3757  -20.4581   -9.2604 C   0  0  2  0  0  0  0  0  0  0  0  0
   27.6878  -20.0978   -9.7409 N   0  0  0  0  0  0  0  0  0  0  0  0
   25.4668  -20.5999  -10.4243 C   0  0  0  0  0  0  0  0  0  0  0  0
   25.5988  -19.7967  -11.3800 O   0  0  0  0  0  0  0  0  0  0  0  0
   26.5437  -20.7157   -6.2033 C   0  0  0  0  0  0  0  0  0  0  0  0
   27.3060  -20.8799   -5.0669 C   0  0  0  0  0  0  0  0  0  0  0  0
   20.4772  -19.5124  -10.3314 N   0  0  0  0  0  0  0  0  0  0  0  0
   20.4893  -19.5272  -11.7440 C   0  0  0  0  0  0  0  0  0  0  0  0
   19.4428  -19.3388  -12.3808 O   0  0  0  0  0  0  0  0  0  0  0  0
   21.8196  -19.7795  -12.3944 C   0  0  0  0  0  0  0  0  0  0  0  0
   22.8910  -19.9945  -11.3675 C   0  0  0  0  0  0  0  0  0  0  0  0
   23.3795  -21.4002  -11.4181 C   0  0  2  0  0  0  0  0  0  0  0  0
   24.4657  -21.6189  -10.4659 N   0  0  0  0  0  0  0  0  0  0  0  0
   23.9395  -21.6875  -12.7525 C   0  0  0  0  0  0  0  0  0  0  0  0
   25.1029  -21.2122  -13.0136 O   0  0  0  0  0  0  0  0  0  0  0  0
   23.3581  -22.4126  -13.7546 O   0  0  0  0  0  0  0  0  0  0  0  0
  2  1  1  6
  3  2  1  0
  4 13  1  0
  4  2  1  0
  5  4  2  0
  7  6  1  0
  8  7  2  0
  9  8  1  0
 10  9  2  0
 10 16  1  0
 12 11  1  1
 11 10  1  0
 12 14  1  0
 12 13  1  0
 14 15  2  0
 16 17  2  0
 17  7  1  0
 19 18  1  0
 19 21  1  0
 20 19  2  0
 22 21  1  0
 23 22  1  6
 24 14  1  0
 24 23  1  0
 25 23  1  0
 25 27  1  0
 26 25  2  0
M  END
$$$$
