AYQ.pdb
     RDKit          3D

 27 27  0  0  1  0  0  0  0  0999 V2000
   22.5108  -30.8811  -13.2182 C   0  0  0  0  0  0  0  0  0  0  0  0
   21.6450  -30.2227  -14.2699 C   0  0  2  0  0  0  0  0  0  0  0  0
   22.2800  -30.2046  -15.5711 N   0  0  0  0  0  0  0  0  0  0  0  0
   21.2675  -28.8369  -13.8681 C   0  0  0  0  0  0  0  0  0  0  0  0
   22.1447  -27.9530  -13.9834 O   0  0  0  0  0  0  0  0  0  0  0  0
   17.1528  -21.3306  -13.0870 O   0  0  0  0  0  0  0  0  0  0  0  0
   17.5387  -22.6544  -13.3753 C   0  0  0  0  0  0  0  0  0  0  0  0
   16.6238  -23.6823  -13.3442 C   0  0  0  0  0  0  0  0  0  0  0  0
   17.0851  -24.9665  -13.6421 C   0  0  0  0  0  0  0  0  0  0  0  0
   18.3915  -25.2368  -13.9588 C   0  0  0  0  0  0  0  0  0  0  0  0
   18.8797  -26.5955  -14.2788 C   0  0  0  0  0  0  0  0  0  0  0  0
   19.5578  -27.1690  -13.0887 C   0  0  2  0  0  0  0  0  0  0  0  0
   19.9909  -28.5144  -13.3795 N   0  0  0  0  0  0  0  0  0  0  0  0
   18.7380  -27.1915  -11.8525 C   0  0  0  0  0  0  0  0  0  0  0  0
   17.9482  -28.1525  -11.6830 O   0  0  0  0  0  0  0  0  0  0  0  0
   19.2823  -24.1893  -13.9816 C   0  0  0  0  0  0  0  0  0  0  0  0
   18.8475  -22.9142  -13.6907 C   0  0  0  0  0  0  0  0  0  0  0  0
   17.6285  -25.3040   -4.8819 N   0  0  0  0  0  0  0  0  0  0  0  0
   18.3731  -25.2222   -6.0796 C   0  0  0  0  0  0  0  0  0  0  0  0
   19.4810  -24.6664   -6.0911 O   0  0  0  0  0  0  0  0  0  0  0  0
   17.7436  -25.8379   -7.2966 C   0  0  0  0  0  0  0  0  0  0  0  0
   18.5846  -25.6053   -8.5162 C   0  0  0  0  0  0  0  0  0  0  0  0
   18.0061  -26.3220   -9.6861 C   0  0  2  0  0  0  0  0  0  0  0  0
   18.8371  -26.1530  -10.8757 N   0  0  0  0  0  0  0  0  0  0  0  0
   16.6882  -25.7498  -10.0216 C   0  0  0  0  0  0  0  0  0  0  0  0
   15.6534  -26.4458   -9.7175 O   0  0  0  0  0  0  0  0  0  0  0  0
   16.4372  -24.5484  -10.6232 O   0  0  0  0  0  0  0  0  0  0  0  0
  2  1  1  1
  3  2  1  0
  4 13  1  0
  4  2  1  0
  5  4  2  0
  7  6  1  0
  8  7  2  0
  9  8  1  0
 10  9  2  0
 10 16  1  0
 12 11  1  6
 11 10  1  0
 12 14  1  0
 12 13  1  0
 14 15  2  0
 16 17  2  0
 17  7  1  0
 19 18  1  0
 19 21  1  0
 20 19  2  0
 22 21  1  0
 23 22  1  1
 24 14  1  0
 24 23  1  0
 25 23  1  0
 25 27  1  0
 26 25  2  0
M  END
$$$$
