AYQ.pdb
     RDKit          3D

 27 27  0  0  1  0  0  0  0  0999 V2000
   27.6379  -17.7420  -14.8230 C   0  0  0  0  0  0  0  0  0  0  0  0
   26.6852  -18.6219  -15.6021 C   0  0  2  0  0  0  0  0  0  0  0  0
   25.3814  -18.0125  -15.7619 N   0  0  0  0  0  0  0  0  0  0  0  0
   26.5458  -19.9632  -14.9651 C   0  0  0  0  0  0  0  0  0  0  0  0
   27.5868  -20.6458  -14.8442 O   0  0  0  0  0  0  0  0  0  0  0  0
   26.1545  -19.7048   -8.0012 O   0  0  0  0  0  0  0  0  0  0  0  0
   25.6763  -20.2265   -9.2192 C   0  0  0  0  0  0  0  0  0  0  0  0
   26.4001  -21.1627   -9.9224 C   0  0  0  0  0  0  0  0  0  0  0  0
   25.8578  -21.6307  -11.1213 C   0  0  0  0  0  0  0  0  0  0  0  0
   24.6531  -21.2006  -11.6152 C   0  0  0  0  0  0  0  0  0  0  0  0
   24.0761  -21.6993  -12.8822 C   0  0  0  0  0  0  0  0  0  0  0  0
   25.1391  -21.7620  -13.9172 C   0  0  2  0  0  0  0  0  0  0  0  0
   25.3121  -20.4594  -14.5134 N   0  0  0  0  0  0  0  0  0  0  0  0
   24.9019  -22.7504  -14.9978 C   0  0  0  0  0  0  0  0  0  0  0  0
   24.2471  -22.3825  -16.0036 O   0  0  0  0  0  0  0  0  0  0  0  0
   23.9531  -20.2648  -10.8904 C   0  0  0  0  0  0  0  0  0  0  0  0
   24.4706  -19.7898   -9.7046 C   0  0  0  0  0  0  0  0  0  0  0  0
   27.8643  -28.1486  -16.2172 N   0  0  0  0  0  0  0  0  0  0  0  0
   27.0706  -27.9884  -17.3748 C   0  0  0  0  0  0  0  0  0  0  0  0
   27.1713  -28.7862  -18.3180 O   0  0  0  0  0  0  0  0  0  0  0  0
   26.1277  -26.8191  -17.3772 C   0  0  0  0  0  0  0  0  0  0  0  0
   26.2213  -26.0469  -16.0952 C   0  0  0  0  0  0  0  0  0  0  0  0
   25.2835  -24.8907  -16.1198 C   0  0  2  0  0  0  0  0  0  0  0  0
   25.4008  -24.0865  -14.9057 N   0  0  0  0  0  0  0  0  0  0  0  0
   23.8909  -25.3766  -16.1571 C   0  0  0  0  0  0  0  0  0  0  0  0
   23.3321  -25.6386  -15.0316 O   0  0  0  0  0  0  0  0  0  0  0  0
   23.1155  -25.5801  -17.2642 O   0  0  0  0  0  0  0  0  0  0  0  0
  2  1  1  1
  3  2  1  0
  4 13  1  0
  4  2  1  0
  5  4  2  0
  7  6  1  0
  8  7  2  0
  9  8  1  0
 10  9  2  0
 10 16  1  0
 12 11  1  1
 11 10  1  0
 12 14  1  0
 12 13  1  0
 14 15  2  0
 16 17  2  0
 17  7  1  0
 19 18  1  0
 19 21  1  0
 20 19  2  0
 22 21  1  0
 23 22  1  1
 24 14  1  0
 24 23  1  0
 25 23  1  0
 25 27  1  0
 26 25  2  0
M  END
$$$$
