AYQ.pdb
     RDKit          3D

 27 27  0  0  1  0  0  0  0  0999 V2000
   20.0952   -6.7589  -17.6787 C   0  0  0  0  0  0  0  0  0  0  0  0
   19.7658   -8.1207  -17.1077 C   0  0  2  0  0  0  0  0  0  0  0  0
   19.3482   -9.0579  -18.1295 N   0  0  0  0  0  0  0  0  0  0  0  0
   18.7208   -8.0233  -16.0481 C   0  0  0  0  0  0  0  0  0  0  0  0
   17.5905   -7.6199  -16.4001 O   0  0  0  0  0  0  0  0  0  0  0  0
   13.7723  -12.7239  -15.5296 O   0  0  0  0  0  0  0  0  0  0  0  0
   14.7603  -11.9484  -14.8918 C   0  0  0  0  0  0  0  0  0  0  0  0
   14.4181  -10.9662  -13.9903 C   0  0  0  0  0  0  0  0  0  0  0  0
   15.4560  -10.2411  -13.4006 C   0  0  0  0  0  0  0  0  0  0  0  0
   16.7791  -10.4670  -13.6808 C   0  0  0  0  0  0  0  0  0  0  0  0
   17.8787   -9.7028  -13.0534 C   0  0  0  0  0  0  0  0  0  0  0  0
   17.9624   -8.3574  -13.6762 C   0  0  2  0  0  0  0  0  0  0  0  0
   18.9705   -8.3636  -14.7087 N   0  0  0  0  0  0  0  0  0  0  0  0
   18.2551   -7.2495  -12.7341 C   0  0  0  0  0  0  0  0  0  0  0  0
   19.4501   -7.0537  -12.4033 O   0  0  0  0  0  0  0  0  0  0  0  0
   17.0897  -11.4549  -14.5857 C   0  0  0  0  0  0  0  0  0  0  0  0
   16.0804  -12.1821  -15.1790 C   0  0  0  0  0  0  0  0  0  0  0  0
   16.4924   -1.5798  -12.7765 N   0  0  0  0  0  0  0  0  0  0  0  0
   17.1338   -1.5661  -11.5179 C   0  0  0  0  0  0  0  0  0  0  0  0
   17.2584   -0.5045  -10.8905 O   0  0  0  0  0  0  0  0  0  0  0  0
   17.6364   -2.8889  -11.0140 C   0  0  0  0  0  0  0  0  0  0  0  0
   17.2488   -4.0026  -11.9403 C   0  0  0  0  0  0  0  0  0  0  0  0
   17.6484   -5.3159  -11.3636 C   0  0  2  0  0  0  0  0  0  0  0  0
   17.2129   -6.4225  -12.2122 N   0  0  0  0  0  0  0  0  0  0  0  0
   16.9852   -5.5126  -10.0604 C   0  0  0  0  0  0  0  0  0  0  0  0
   16.0067   -6.3424  -10.0210 O   0  0  0  0  0  0  0  0  0  0  0  0
   17.2973   -4.9092   -8.8744 O   0  0  0  0  0  0  0  0  0  0  0  0
  2  1  1  6
  3  2  1  0
  4 13  1  0
  4  2  1  0
  5  4  2  0
  7  6  1  0
  8  7  2  0
  9  8  1  0
 10  9  2  0
 10 16  1  0
 12 11  1  1
 11 10  1  0
 12 14  1  0
 12 13  1  0
 14 15  2  0
 16 17  2  0
 17  7  1  0
 19 18  1  0
 19 21  1  0
 20 19  2  0
 22 21  1  0
 23 22  1  6
 24 14  1  0
 24 23  1  0
 25 23  1  0
 25 27  1  0
 26 25  2  0
M  END
$$$$
