AYQ.pdb
     RDKit          3D

 27 27  0  0  1  0  0  0  0  0999 V2000
   27.0510  -20.3786  -18.9489 C   0  0  0  0  0  0  0  0  0  0  0  0
   27.8862  -21.1201  -17.9282 C   0  0  2  0  0  0  0  0  0  0  0  0
   28.3690  -22.3892  -18.4315 N   0  0  0  0  0  0  0  0  0  0  0  0
   27.1288  -21.3298  -16.6607 C   0  0  0  0  0  0  0  0  0  0  0  0
   26.3414  -22.3008  -16.6232 O   0  0  0  0  0  0  0  0  0  0  0  0
   24.6467  -20.8070   -8.2838 O   0  0  0  0  0  0  0  0  0  0  0  0
   25.3473  -20.6556   -9.4965 C   0  0  0  0  0  0  0  0  0  0  0  0
   26.2898  -21.5781   -9.8906 C   0  0  0  0  0  0  0  0  0  0  0  0
   26.9410  -21.3567  -11.1062 C   0  0  0  0  0  0  0  0  0  0  0  0
   26.6812  -20.2746  -11.9073 C   0  0  0  0  0  0  0  0  0  0  0  0
   27.3668  -20.0421  -13.1968 C   0  0  0  0  0  0  0  0  0  0  0  0
   26.5999  -20.6952  -14.2879 C   0  0  2  0  0  0  0  0  0  0  0  0
   27.2761  -20.4885  -15.5458 N   0  0  0  0  0  0  0  0  0  0  0  0
   25.1949  -20.2390  -14.4241 C   0  0  0  0  0  0  0  0  0  0  0  0
   24.9583  -19.2690  -15.1852 O   0  0  0  0  0  0  0  0  0  0  0  0
   25.7344  -19.3702  -11.4868 C   0  0  0  0  0  0  0  0  0  0  0  0
   25.0803  -19.5701  -10.2903 C   0  0  0  0  0  0  0  0  0  0  0  0
   19.9825  -20.4905  -16.4938 N   0  0  0  0  0  0  0  0  0  0  0  0
   20.7496  -19.3284  -16.7319 C   0  0  0  0  0  0  0  0  0  0  0  0
   20.2992  -18.4151  -17.4385 O   0  0  0  0  0  0  0  0  0  0  0  0
   22.1055  -19.2836  -16.0869 C   0  0  0  0  0  0  0  0  0  0  0  0
   22.4397  -20.5945  -15.4401 C   0  0  0  0  0  0  0  0  0  0  0  0
   22.7888  -20.3887  -14.0074 C   0  0  2  0  0  0  0  0  0  0  0  0
   24.1332  -20.8792  -13.7132 N   0  0  0  0  0  0  0  0  0  0  0  0
   21.8720  -21.1666  -13.1523 C   0  0  0  0  0  0  0  0  0  0  0  0
   22.3708  -22.1613  -12.5126 O   0  0  0  0  0  0  0  0  0  0  0  0
   20.5372  -20.9468  -12.9569 O   0  0  0  0  0  0  0  0  0  0  0  0
  2  1  1  6
  3  2  1  0
  4 13  1  0
  4  2  1  0
  5  4  2  0
  7  6  1  0
  8  7  2  0
  9  8  1  0
 10  9  2  0
 10 16  1  0
 12 11  1  1
 11 10  1  0
 12 14  1  0
 12 13  1  0
 14 15  2  0
 16 17  2  0
 17  7  1  0
 19 18  1  0
 19 21  1  0
 20 19  2  0
 22 21  1  0
 23 22  1  6
 24 14  1  0
 24 23  1  0
 25 23  1  0
 25 27  1  0
 26 25  2  0
M  END
$$$$
