AYQ.pdb
     RDKit          3D

 27 27  0  0  1  0  0  0  0  0999 V2000
   29.2484  -23.2052  -17.1969 C   0  0  0  0  0  0  0  0  0  0  0  0
   28.2155  -22.1000  -17.2275 C   0  0  2  0  0  0  0  0  0  0  0  0
   28.8193  -20.7867  -17.3139 N   0  0  0  0  0  0  0  0  0  0  0  0
   27.3152  -22.1696  -16.0405 C   0  0  0  0  0  0  0  0  0  0  0  0
   26.6415  -23.2138  -15.8988 O   0  0  0  0  0  0  0  0  0  0  0  0
   23.3711  -20.5055   -8.4401 O   0  0  0  0  0  0  0  0  0  0  0  0
   24.2824  -20.4996   -9.5143 C   0  0  0  0  0  0  0  0  0  0  0  0
   25.4560  -21.2162   -9.4523 C   0  0  0  0  0  0  0  0  0  0  0  0
   26.3067  -21.1588  -10.5584 C   0  0  0  0  0  0  0  0  0  0  0  0
   26.0218  -20.4287  -11.6836 C   0  0  0  0  0  0  0  0  0  0  0  0
   26.9199  -20.3712  -12.8570 C   0  0  0  0  0  0  0  0  0  0  0  0
   26.3193  -21.1410  -13.9759 C   0  0  2  0  0  0  0  0  0  0  0  0
   27.2114  -21.1229  -15.1100 N   0  0  0  0  0  0  0  0  0  0  0  0
   24.9841  -20.6668  -14.4152 C   0  0  0  0  0  0  0  0  0  0  0  0
   24.9306  -19.6702  -15.1767 O   0  0  0  0  0  0  0  0  0  0  0  0
   24.8419  -19.7230  -11.7160 C   0  0  0  0  0  0  0  0  0  0  0  0
   23.9883  -19.7662  -10.6348 C   0  0  0  0  0  0  0  0  0  0  0  0
   22.1409  -23.4172  -17.5035 N   0  0  0  0  0  0  0  0  0  0  0  0
   21.2168  -23.6191  -16.4543 C   0  0  0  0  0  0  0  0  0  0  0  0
   20.5097  -24.6368  -16.4303 O   0  0  0  0  0  0  0  0  0  0  0  0
   21.1572  -22.5453  -15.4056 C   0  0  0  0  0  0  0  0  0  0  0  0
   22.0896  -21.4176  -15.7334 C   0  0  0  0  0  0  0  0  0  0  0  0
   22.5397  -20.7412  -14.4856 C   0  0  2  0  0  0  0  0  0  0  0  0
   23.7861  -21.3193  -13.9889 N   0  0  0  0  0  0  0  0  0  0  0  0
   21.5404  -20.9423  -13.4190 C   0  0  0  0  0  0  0  0  0  0  0  0
   21.7996  -21.8363  -12.5353 O   0  0  0  0  0  0  0  0  0  0  0  0
   20.3572  -20.2770  -13.2584 O   0  0  0  0  0  0  0  0  0  0  0  0
  2  1  1  1
  3  2  1  0
  4 13  1  0
  4  2  1  0
  5  4  2  0
  7  6  1  0
  8  7  2  0
  9  8  1  0
 10  9  2  0
 10 16  1  0
 12 11  1  1
 11 10  1  0
 12 14  1  0
 12 13  1  0
 14 15  2  0
 16 17  2  0
 17  7  1  0
 19 18  1  0
 19 21  1  0
 20 19  2  0
 22 21  1  0
 23 22  1  6
 24 14  1  0
 24 23  1  0
 25 23  1  0
 25 27  1  0
 26 25  2  0
M  END
$$$$
