LRY.pdb
     RDKit          3D

 32 32  0  0  1  0  0  0  0  0999 V2000
    8.5853  -12.3934   18.7323 C   0  0  0  0  0  0  0  0  0  0  0  0
    7.3204  -13.2486   18.6987 C   0  0  2  0  0  0  0  0  0  0  0  0
    6.1607  -12.2872   18.7846 C   0  0  0  0  0  0  0  0  0  0  0  0
    7.3398  -14.2704   19.8112 C   0  0  0  0  0  0  0  0  0  0  0  0
    8.6196  -15.0433   19.7143 C   0  0  2  0  0  0  0  0  0  0  0  0
    8.6446  -15.8563   18.5180 N   0  0  0  0  0  0  0  0  0  0  0  0
    8.9072  -15.8674   20.8865 C   0  0  0  0  0  0  0  0  0  0  0  0
    8.0695  -15.9372   21.8169 O   0  0  0  0  0  0  0  0  0  0  0  0
   14.0183  -20.0928   24.8992 N   0  0  0  0  0  0  0  0  0  0  0  0
   13.1035  -21.1717   25.0750 C   0  0  0  0  0  0  0  0  0  0  0  0
   13.0966  -21.8214   26.1764 N   0  0  0  0  0  0  0  0  0  0  0  0
   12.2150  -21.5096   24.0277 N   0  0  0  0  0  0  0  0  0  0  0  0
   12.0311  -20.6568   22.8605 C   0  0  0  0  0  0  0  0  0  0  0  0
   10.7424  -19.9012   22.9380 C   0  0  0  0  0  0  0  0  0  0  0  0
   10.4714  -18.9672   21.8041 C   0  0  0  0  0  0  0  0  0  0  0  0
   10.3470  -17.5309   22.1326 C   0  0  2  0  0  0  0  0  0  0  0  0
   10.1111  -16.6248   21.0577 N   0  0  0  0  0  0  0  0  0  0  0  0
   11.6834  -17.1142   22.7159 C   0  0  0  0  0  0  0  0  0  0  0  0
   12.6736  -17.8825   22.7230 O   0  0  0  0  0  0  0  0  0  0  0  0
   12.5065  -22.6416   26.4035 O   0  0  0  0  0  0  0  0  0  0  0  0
   10.1711  -15.1889   30.8815 C   0  0  0  0  0  0  0  0  0  0  0  0
   10.2553  -15.3788   29.5194 C   0  0  0  0  0  0  0  0  0  0  0  0
   10.5299  -16.5983   28.9375 C   0  0  0  0  0  0  0  0  0  0  0  0
   10.5963  -16.7014   27.5626 C   0  0  0  0  0  0  0  0  0  0  0  0
   10.3975  -15.6212   26.7147 C   0  0  0  0  0  0  0  0  0  0  0  0
   10.4751  -15.7377   25.2400 C   0  0  1  0  0  0  0  0  0  0  0  0
   11.8956  -15.6661   24.7324 N   0  0  0  0  0  0  0  0  0  0  0  0
   11.8505  -15.8217   23.2783 C   0  0  0  0  0  0  0  0  0  0  0  0
   12.7717  -16.7058   25.2968 O   0  0  0  0  0  0  0  0  0  0  0  0
   13.8099  -16.4523   25.9576 C   0  0  0  0  0  0  0  0  0  0  0  0
   10.1246  -14.4116   27.3019 C   0  0  0  0  0  0  0  0  0  0  0  0
   10.0536  -14.2850   28.6695 O   0  0  0  0  0  0  0  0  0  0  0  0
  2  1  1  1
  2  3  1  0
  4  5  1  0
  4  2  1  0
  5  6  1  6
  7  8  2  0
  7  5  1  0
  9 10  1  0
 10 12  1  0
 10 11  2  0
 12 13  1  0
 13 14  1  0
 14 15  1  0
 16 15  1  6
 16 18  1  0
 16 17  1  0
 17  7  1  0
 18 27  1  0
 19 18  2  0
 21 20  1  0
 22 21  2  0
 23 22  1  0
 24 30  1  0
 24 23  2  0
 25 24  1  0
 26 25  1  6
 27 26  1  0
 28 26  1  0
 29 28  2  0
 30 31  2  0
 31 21  1  0
 32 28  1  0
M  END
$$$$
