LRY.pdb
     RDKit          3D

 32 32  0  0  1  0  0  0  0  0999 V2000
    5.2936  -12.1055   24.3742 C   0  0  0  0  0  0  0  0  0  0  0  0
    5.7008  -12.7983   25.6730 C   0  0  2  0  0  0  0  0  0  0  0  0
    6.0054  -11.6975   26.6589 C   0  0  0  0  0  0  0  0  0  0  0  0
    6.8635  -13.7329   25.4350 C   0  0  0  0  0  0  0  0  0  0  0  0
    6.3503  -14.9458   24.7206 C   0  0  2  0  0  0  0  0  0  0  0  0
    5.4929  -15.7304   25.5820 N   0  0  0  0  0  0  0  0  0  0  0  0
    7.3993  -15.7905   24.1533 C   0  0  0  0  0  0  0  0  0  0  0  0
    7.9091  -16.6995   24.8504 O   0  0  0  0  0  0  0  0  0  0  0  0
   12.0710  -19.4409   18.8448 N   0  0  0  0  0  0  0  0  0  0  0  0
   10.8265  -19.3001   18.1642 C   0  0  0  0  0  0  0  0  0  0  0  0
   10.3155  -20.3084   17.5663 N   0  0  0  0  0  0  0  0  0  0  0  0
   10.1729  -18.0459   18.1594 N   0  0  0  0  0  0  0  0  0  0  0  0
   10.7124  -16.8869   18.8587 C   0  0  0  0  0  0  0  0  0  0  0  0
   10.4921  -16.9923   20.3345 C   0  0  0  0  0  0  0  0  0  0  0  0
    9.3689  -16.1727   20.8806 C   0  0  0  0  0  0  0  0  0  0  0  0
    9.0233  -16.3714   22.3044 C   0  0  2  0  0  0  0  0  0  0  0  0
    7.9044  -15.6539   22.8197 N   0  0  0  0  0  0  0  0  0  0  0  0
   10.2139  -15.8738   23.1010 C   0  0  0  0  0  0  0  0  0  0  0  0
   10.4836  -14.6539   23.2005 O   0  0  0  0  0  0  0  0  0  0  0  0
    9.4520  -20.3124   16.9946 O   0  0  0  0  0  0  0  0  0  0  0  0
   11.7279  -15.4057   31.4223 C   0  0  0  0  0  0  0  0  0  0  0  0
   11.3886  -15.6705   30.1134 C   0  0  0  0  0  0  0  0  0  0  0  0
   11.2043  -16.9443   29.6187 C   0  0  0  0  0  0  0  0  0  0  0  0
   10.8649  -17.1213   28.2925 C   0  0  0  0  0  0  0  0  0  0  0  0
   10.6954  -16.0644   27.4097 C   0  0  0  0  0  0  0  0  0  0  0  0
   10.3360  -16.2615   25.9862 C   0  0  1  0  0  0  0  0  0  0  0  0
   11.5481  -16.4870   25.1140 N   0  0  0  0  0  0  0  0  0  0  0  0
   11.0682  -16.7919   23.7659 C   0  0  0  0  0  0  0  0  0  0  0  0
   12.4047  -17.5911   25.5768 O   0  0  0  0  0  0  0  0  0  0  0  0
   13.3545  -17.4383   26.3852 C   0  0  0  0  0  0  0  0  0  0  0  0
   10.8806  -14.8003   27.9100 C   0  0  0  0  0  0  0  0  0  0  0  0
   11.2190  -14.5997   29.2279 O   0  0  0  0  0  0  0  0  0  0  0  0
  2  1  1  6
  2  3  1  0
  4  5  1  0
  4  2  1  0
  5  6  1  1
  7  8  2  0
  7  5  1  0
  9 10  1  0
 10 12  1  0
 10 11  2  0
 12 13  1  0
 13 14  1  0
 14 15  1  0
 16 15  1  6
 16 18  1  0
 16 17  1  0
 17  7  1  0
 18 27  1  0
 19 18  2  0
 21 20  1  0
 22 21  2  0
 23 22  1  0
 24 30  1  0
 24 23  2  0
 25 24  1  0
 26 25  1  6
 27 26  1  0
 28 26  1  0
 29 28  2  0
 30 31  2  0
 31 21  1  0
 32 28  1  0
M  END
$$$$
