LRY.pdb
     RDKit          3D

 32 32  0  0  1  0  0  0  0  0999 V2000
    8.9079  -11.7936   19.9316 C   0  0  0  0  0  0  0  0  0  0  0  0
    8.2136  -13.0604   19.4358 C   0  0  2  0  0  0  0  0  0  0  0  0
    6.8699  -12.6235   18.9064 C   0  0  0  0  0  0  0  0  0  0  0  0
    8.1214  -14.0839   20.5430 C   0  0  0  0  0  0  0  0  0  0  0  0
    9.5021  -14.3279   21.0710 C   0  0  2  0  0  0  0  0  0  0  0  0
   10.5029  -13.9663   20.0909 N   0  0  0  0  0  0  0  0  0  0  0  0
    9.7279  -15.6943   21.5374 C   0  0  0  0  0  0  0  0  0  0  0  0
    8.9061  -16.2268   22.3204 O   0  0  0  0  0  0  0  0  0  0  0  0
   11.0810  -17.6598   17.6243 N   0  0  0  0  0  0  0  0  0  0  0  0
   11.0490  -18.9142   16.9480 C   0  0  0  0  0  0  0  0  0  0  0  0
   10.2875  -19.0651   15.9318 N   0  0  0  0  0  0  0  0  0  0  0  0
   11.8608  -19.9760   17.4104 N   0  0  0  0  0  0  0  0  0  0  0  0
   12.0817  -20.2230   18.8294 C   0  0  0  0  0  0  0  0  0  0  0  0
   11.2434  -19.3174   19.6749 C   0  0  0  0  0  0  0  0  0  0  0  0
   11.9325  -18.7132   20.8546 C   0  0  0  0  0  0  0  0  0  0  0  0
   11.1420  -17.7848   21.6909 C   0  0  2  0  0  0  0  0  0  0  0  0
   10.8522  -16.4959   21.1553 N   0  0  0  0  0  0  0  0  0  0  0  0
   11.9747  -17.5206   22.9305 C   0  0  0  0  0  0  0  0  0  0  0  0
   12.8453  -16.6198   22.9664 O   0  0  0  0  0  0  0  0  0  0  0  0
   10.2276  -19.9034   15.3267 O   0  0  0  0  0  0  0  0  0  0  0  0
   10.1674  -13.7291   30.2447 C   0  0  0  0  0  0  0  0  0  0  0  0
   10.3060  -14.4739   29.0937 C   0  0  0  0  0  0  0  0  0  0  0  0
   10.7547  -15.7776   29.0815 C   0  0  0  0  0  0  0  0  0  0  0  0
   10.8643  -16.4528   27.8824 C   0  0  0  0  0  0  0  0  0  0  0  0
   10.5408  -15.8788   26.6613 C   0  0  0  0  0  0  0  0  0  0  0  0
   10.6654  -16.6073   25.3775 C   0  0  1  0  0  0  0  0  0  0  0  0
   11.7629  -17.6442   25.4101 N   0  0  0  0  0  0  0  0  0  0  0  0
   11.7866  -18.2995   24.1022 C   0  0  0  0  0  0  0  0  0  0  0  0
   11.5718  -18.6658   26.4525 O   0  0  0  0  0  0  0  0  0  0  0  0
   10.8042  -19.6522   26.3225 C   0  0  0  0  0  0  0  0  0  0  0  0
   10.0951  -14.5813   26.6825 C   0  0  0  0  0  0  0  0  0  0  0  0
    9.9778  -13.8890   27.8651 O   0  0  0  0  0  0  0  0  0  0  0  0
  2  1  1  1
  2  3  1  0
  4  5  1  0
  4  2  1  0
  5  6  1  6
  7  8  2  0
  7  5  1  0
  9 10  1  0
 10 12  1  0
 10 11  2  0
 12 13  1  0
 13 14  1  0
 14 15  1  0
 16 15  1  6
 16 18  1  0
 16 17  1  0
 17  7  1  0
 18 27  1  0
 19 18  2  0
 21 20  1  0
 22 21  2  0
 23 22  1  0
 24 30  1  0
 24 23  2  0
 25 24  1  0
 26 25  1  6
 27 26  1  0
 28 26  1  0
 29 28  2  0
 30 31  2  0
 31 21  1  0
 32 28  1  0
M  END
$$$$
