LRY.pdb
     RDKit          3D

 32 32  0  0  1  0  0  0  0  0999 V2000
    9.3601  -12.0259   19.3799 C   0  0  0  0  0  0  0  0  0  0  0  0
    8.2047  -12.9641   19.0373 C   0  0  2  0  0  0  0  0  0  0  0  0
    6.9885  -12.0877   18.8655 C   0  0  0  0  0  0  0  0  0  0  0  0
    8.0414  -14.0187   20.1064 C   0  0  0  0  0  0  0  0  0  0  0  0
    9.3873  -14.6154   20.3845 C   0  0  2  0  0  0  0  0  0  0  0  0
   10.0230  -15.0527   19.1608 N   0  0  0  0  0  0  0  0  0  0  0  0
    9.3649  -15.7071   21.3558 C   0  0  0  0  0  0  0  0  0  0  0  0
    8.8082  -15.5385   22.4665 O   0  0  0  0  0  0  0  0  0  0  0  0
    9.9231  -19.9797   17.1552 N   0  0  0  0  0  0  0  0  0  0  0  0
    8.9194  -20.9710   17.3598 C   0  0  0  0  0  0  0  0  0  0  0  0
    8.1726  -21.3251   16.3840 N   0  0  0  0  0  0  0  0  0  0  0  0
    8.7630  -21.5501   18.6406 N   0  0  0  0  0  0  0  0  0  0  0  0
    9.6379  -21.2142   19.7564 C   0  0  0  0  0  0  0  0  0  0  0  0
    9.2991  -19.8737   20.3274 C   0  0  0  0  0  0  0  0  0  0  0  0
   10.1173  -19.4456   21.5016 C   0  0  0  0  0  0  0  0  0  0  0  0
    9.8667  -18.0900   22.0362 C   0  0  2  0  0  0  0  0  0  0  0  0
    9.9491  -16.9951   21.1271 N   0  0  0  0  0  0  0  0  0  0  0  0
   10.9523  -17.8344   23.0638 C   0  0  0  0  0  0  0  0  0  0  0  0
   11.9138  -17.0633   22.8365 O   0  0  0  0  0  0  0  0  0  0  0  0
    7.4193  -22.0352   16.4118 O   0  0  0  0  0  0  0  0  0  0  0  0
   10.5779  -13.3925   30.2697 C   0  0  0  0  0  0  0  0  0  0  0  0
   10.5681  -14.1623   29.1270 C   0  0  0  0  0  0  0  0  0  0  0  0
   11.5678  -15.0553   28.8035 C   0  0  0  0  0  0  0  0  0  0  0  0
   11.4798  -15.7885   27.6372 C   0  0  0  0  0  0  0  0  0  0  0  0
   10.4170  -15.6738   26.7526 C   0  0  0  0  0  0  0  0  0  0  0  0
   10.3312  -16.4601   25.5000 C   0  0  1  0  0  0  0  0  0  0  0  0
   11.1929  -17.6996   25.5402 N   0  0  0  0  0  0  0  0  0  0  0  0
   10.9070  -18.4723   24.3310 C   0  0  0  0  0  0  0  0  0  0  0  0
   10.9445  -18.5470   26.7179 O   0  0  0  0  0  0  0  0  0  0  0  0
   11.5924  -18.4491   27.7901 C   0  0  0  0  0  0  0  0  0  0  0  0
    9.4267  -14.7832   27.0821 C   0  0  0  0  0  0  0  0  0  0  0  0
    9.4930  -14.0420   28.2387 O   0  0  0  0  0  0  0  0  0  0  0  0
  2  1  1  1
  2  3  1  0
  4  5  1  0
  4  2  1  0
  5  6  1  6
  7  8  2  0
  7  5  1  0
  9 10  1  0
 10 12  1  0
 10 11  2  0
 12 13  1  0
 13 14  1  0
 14 15  1  0
 16 15  1  6
 16 18  1  0
 16 17  1  0
 17  7  1  0
 18 27  1  0
 19 18  2  0
 21 20  1  0
 22 21  2  0
 23 22  1  0
 24 30  1  0
 24 23  2  0
 25 24  1  0
 26 25  1  6
 27 26  1  0
 28 26  1  0
 29 28  2  0
 30 31  2  0
 31 21  1  0
 32 28  1  0
M  END
$$$$
