LRY.pdb
     RDKit          3D

 32 32  0  0  1  0  0  0  0  0999 V2000
    4.1813  -22.3168   23.5272 C   0  0  0  0  0  0  0  0  0  0  0  0
    5.2977  -22.3639   24.5684 C   0  0  2  0  0  0  0  0  0  0  0  0
    4.6955  -22.9889   25.8025 C   0  0  0  0  0  0  0  0  0  0  0  0
    5.8614  -20.9827   24.8060 C   0  0  0  0  0  0  0  0  0  0  0  0
    6.3401  -20.4404   23.4940 C   0  0  2  0  0  0  0  0  0  0  0  0
    7.2001  -21.3909   22.8234 N   0  0  0  0  0  0  0  0  0  0  0  0
    7.0073  -19.1440   23.5938 C   0  0  0  0  0  0  0  0  0  0  0  0
    7.8941  -18.9675   24.4626 O   0  0  0  0  0  0  0  0  0  0  0  0
    8.2522  -12.5731   17.8377 N   0  0  0  0  0  0  0  0  0  0  0  0
    8.4879  -13.9682   18.0105 C   0  0  0  0  0  0  0  0  0  0  0  0
    8.8085  -14.6848   17.0011 N   0  0  0  0  0  0  0  0  0  0  0  0
    8.3638  -14.5416   19.2974 N   0  0  0  0  0  0  0  0  0  0  0  0
    8.0000  -13.7523   20.4670 C   0  0  0  0  0  0  0  0  0  0  0  0
    8.0303  -14.5811   21.7120 C   0  0  0  0  0  0  0  0  0  0  0  0
    7.2671  -15.8640   21.6532 C   0  0  0  0  0  0  0  0  0  0  0  0
    7.3798  -16.7661   22.8192 C   0  0  2  0  0  0  0  0  0  0  0  0
    6.7157  -18.0255   22.7476 N   0  0  0  0  0  0  0  0  0  0  0  0
    6.7272  -16.0396   23.9794 C   0  0  0  0  0  0  0  0  0  0  0  0
    5.4858  -16.0429   24.1514 O   0  0  0  0  0  0  0  0  0  0  0  0
    9.0123  -15.7002   17.0071 O   0  0  0  0  0  0  0  0  0  0  0  0
   12.2951  -15.2147   29.2477 C   0  0  0  0  0  0  0  0  0  0  0  0
   11.0092  -15.1396   28.7585 C   0  0  0  0  0  0  0  0  0  0  0  0
   10.3803  -13.9510   28.4536 C   0  0  0  0  0  0  0  0  0  0  0  0
    9.0885  -13.9650   27.9672 C   0  0  0  0  0  0  0  0  0  0  0  0
    8.3718  -15.1355   27.7639 C   0  0  0  0  0  0  0  0  0  0  0  0
    6.9838  -15.1434   27.2463 C   0  0  1  0  0  0  0  0  0  0  0  0
    6.8681  -14.4625   25.9033 N   0  0  0  0  0  0  0  0  0  0  0  0
    7.5185  -15.3250   24.9164 C   0  0  0  0  0  0  0  0  0  0  0  0
    7.4991  -13.1331   25.8650 O   0  0  0  0  0  0  0  0  0  0  0  0
    8.5242  -12.8728   25.1866 C   0  0  0  0  0  0  0  0  0  0  0  0
    9.0050  -16.3137   28.0697 C   0  0  0  0  0  0  0  0  0  0  0  0
   10.2916  -16.3242   28.5554 O   0  0  0  0  0  0  0  0  0  0  0  0
  2  1  1  6
  2  3  1  0
  4  5  1  0
  4  2  1  0
  5  6  1  1
  7  8  2  0
  7  5  1  0
  9 10  1  0
 10 12  1  0
 10 11  2  0
 12 13  1  0
 13 14  1  0
 14 15  1  0
 16 15  1  6
 16 18  1  0
 16 17  1  0
 17  7  1  0
 18 27  1  0
 19 18  2  0
 21 20  1  0
 22 21  2  0
 23 22  1  0
 24 30  1  0
 24 23  2  0
 25 24  1  0
 26 25  1  6
 27 26  1  0
 28 26  1  0
 29 28  2  0
 30 31  2  0
 31 21  1  0
 32 28  1  0
M  END
$$$$
