LRY.pdb
     RDKit          3D

 32 32  0  0  1  0  0  0  0  0999 V2000
    9.4753  -12.5543   18.6430 C   0  0  0  0  0  0  0  0  0  0  0  0
    8.1208  -13.0989   18.1943 C   0  0  2  0  0  0  0  0  0  0  0  0
    7.3493  -11.9178   17.6593 C   0  0  0  0  0  0  0  0  0  0  0  0
    7.4272  -13.8049   19.3356 C   0  0  0  0  0  0  0  0  0  0  0  0
    8.3737  -14.8179   19.9036 C   0  0  2  0  0  0  0  0  0  0  0  0
    8.8432  -15.7216   18.8761 N   0  0  0  0  0  0  0  0  0  0  0  0
    7.8291  -15.5764   21.0278 C   0  0  0  0  0  0  0  0  0  0  0  0
    7.3960  -14.9684   22.0352 O   0  0  0  0  0  0  0  0  0  0  0  0
    6.7446  -21.0368   25.9666 N   0  0  0  0  0  0  0  0  0  0  0  0
    6.1329  -22.1705   25.3563 C   0  0  0  0  0  0  0  0  0  0  0  0
    5.9463  -23.2336   26.0420 N   0  0  0  0  0  0  0  0  0  0  0  0
    5.7402  -22.1040   23.9993 N   0  0  0  0  0  0  0  0  0  0  0  0
    6.5776  -21.4880   22.9781 C   0  0  0  0  0  0  0  0  0  0  0  0
    6.6807  -20.0094   23.1802 C   0  0  0  0  0  0  0  0  0  0  0  0
    7.0811  -19.2190   21.9774 C   0  0  0  0  0  0  0  0  0  0  0  0
    7.1877  -17.7535   22.1422 C   0  0  2  0  0  0  0  0  0  0  0  0
    7.7503  -17.0063   21.0664 N   0  0  0  0  0  0  0  0  0  0  0  0
    8.1239  -17.5277   23.3136 C   0  0  0  0  0  0  0  0  0  0  0  0
    9.3343  -17.8496   23.2683 O   0  0  0  0  0  0  0  0  0  0  0  0
    5.6191  -24.1482   25.6827 O   0  0  0  0  0  0  0  0  0  0  0  0
   11.2793  -14.0442   30.7858 C   0  0  0  0  0  0  0  0  0  0  0  0
   10.4697  -14.3889   29.7255 C   0  0  0  0  0  0  0  0  0  0  0  0
    9.2620  -15.0382   29.8711 C   0  0  0  0  0  0  0  0  0  0  0  0
    8.5118  -15.3471   28.7543 C   0  0  0  0  0  0  0  0  0  0  0  0
    8.9151  -15.0334   27.4643 C   0  0  0  0  0  0  0  0  0  0  0  0
    8.1075  -15.3723   26.2695 C   0  0  1  0  0  0  0  0  0  0  0  0
    8.5834  -16.6367   25.5948 N   0  0  0  0  0  0  0  0  0  0  0  0
    7.6459  -16.9360   24.5121 C   0  0  0  0  0  0  0  0  0  0  0  0
    8.6505  -17.7942   26.5016 O   0  0  0  0  0  0  0  0  0  0  0  0
    7.6443  -18.4643   26.8444 C   0  0  0  0  0  0  0  0  0  0  0  0
   10.1179  -14.3874   27.3284 C   0  0  0  0  0  0  0  0  0  0  0  0
   10.8824  -14.0694   28.4266 O   0  0  0  0  0  0  0  0  0  0  0  0
  2  1  1  1
  2  3  1  0
  4  5  1  0
  4  2  1  0
  5  6  1  6
  7  8  2  0
  7  5  1  0
  9 10  1  0
 10 12  1  0
 10 11  2  0
 12 13  1  0
 13 14  1  0
 14 15  1  0
 16 15  1  6
 16 18  1  0
 16 17  1  0
 17  7  1  0
 18 27  1  0
 19 18  2  0
 21 20  1  0
 22 21  2  0
 23 22  1  0
 24 30  1  0
 24 23  2  0
 25 24  1  0
 26 25  1  6
 27 26  1  0
 28 26  1  0
 29 28  2  0
 30 31  2  0
 31 21  1  0
 32 28  1  0
M  END
$$$$
