LRY.pdb
     RDKit          3D

 32 32  0  0  1  0  0  0  0  0999 V2000
    5.3753  -12.2034   25.3051 C   0  0  0  0  0  0  0  0  0  0  0  0
    6.1349  -12.9773   26.3806 C   0  0  2  0  0  0  0  0  0  0  0  0
    6.6612  -11.9459   27.3480 C   0  0  0  0  0  0  0  0  0  0  0  0
    7.2172  -13.8281   25.7588 C   0  0  0  0  0  0  0  0  0  0  0  0
    6.5608  -14.8714   24.9070 C   0  0  2  0  0  0  0  0  0  0  0  0
    5.8020  -15.7993   25.7169 N   0  0  0  0  0  0  0  0  0  0  0  0
    7.4853  -15.6010   24.0417 C   0  0  0  0  0  0  0  0  0  0  0  0
    7.9778  -16.6854   24.4337 O   0  0  0  0  0  0  0  0  0  0  0  0
    7.9690  -13.2592   16.0582 N   0  0  0  0  0  0  0  0  0  0  0  0
    8.1846  -14.4964   16.7325 C   0  0  0  0  0  0  0  0  0  0  0  0
    8.7933  -15.4464   16.1307 N   0  0  0  0  0  0  0  0  0  0  0  0
    7.7218  -14.6567   18.0593 N   0  0  0  0  0  0  0  0  0  0  0  0
    7.8566  -13.6065   19.0605 C   0  0  0  0  0  0  0  0  0  0  0  0
    8.7953  -14.0141   20.1516 C   0  0  0  0  0  0  0  0  0  0  0  0
    8.8289  -15.4747   20.4634 C   0  0  0  0  0  0  0  0  0  0  0  0
    8.7900  -15.8574   21.8911 C   0  0  2  0  0  0  0  0  0  0  0  0
    7.8833  -15.1568   22.7391 N   0  0  0  0  0  0  0  0  0  0  0  0
   10.1678  -15.5532   22.4470 C   0  0  0  0  0  0  0  0  0  0  0  0
   10.6793  -14.4118   22.3669 O   0  0  0  0  0  0  0  0  0  0  0  0
    8.9969  -16.3869   16.5136 O   0  0  0  0  0  0  0  0  0  0  0  0
   11.3782  -15.1345   30.7475 C   0  0  0  0  0  0  0  0  0  0  0  0
   11.0688  -15.3393   29.4206 C   0  0  0  0  0  0  0  0  0  0  0  0
   10.7515  -14.3199   28.5480 C   0  0  0  0  0  0  0  0  0  0  0  0
   10.4536  -14.6127   27.2323 C   0  0  0  0  0  0  0  0  0  0  0  0
   10.4558  -15.9054   26.7281 C   0  0  0  0  0  0  0  0  0  0  0  0
   10.1303  -16.2133   25.3161 C   0  0  2  0  0  0  0  0  0  0  0  0
   11.3668  -16.3856   24.4664 N   0  0  0  0  0  0  0  0  0  0  0  0
   10.9267  -16.5701   23.0833 C   0  0  0  0  0  0  0  0  0  0  0  0
   12.1928  -17.5379   24.8622 O   0  0  0  0  0  0  0  0  0  0  0  0
   11.9283  -18.7229   24.5387 C   0  0  0  0  0  0  0  0  0  0  0  0
   10.7728  -16.9137   27.6030 C   0  0  0  0  0  0  0  0  0  0  0  0
   11.0730  -16.6458   28.9181 O   0  0  0  0  0  0  0  0  0  0  0  0
  2  1  1  6
  2  3  1  0
  4  5  1  0
  4  2  1  0
  5  6  1  1
  7  8  2  0
  7  5  1  0
  9 10  1  0
 10 12  1  0
 10 11  2  0
 12 13  1  0
 13 14  1  0
 14 15  1  0
 16 15  1  6
 16 18  1  0
 16 17  1  0
 17  7  1  0
 18 27  1  0
 19 18  2  0
 21 20  1  0
 22 21  2  0
 23 22  1  0
 24 30  1  0
 24 23  2  0
 25 24  1  0
 26 25  1  6
 27 26  1  0
 28 26  1  0
 29 28  2  0
 30 31  2  0
 31 21  1  0
 32 28  1  0
M  END
$$$$
