LRY.pdb
     RDKit          3D

 32 32  0  0  1  0  0  0  0  0999 V2000
    7.4563  -13.0064   26.6798 C   0  0  0  0  0  0  0  0  0  0  0  0
    6.7139  -13.5002   25.4398 C   0  0  2  0  0  0  0  0  0  0  0  0
    5.6350  -12.4824   25.1628 C   0  0  0  0  0  0  0  0  0  0  0  0
    6.1826  -14.8971   25.6595 C   0  0  0  0  0  0  0  0  0  0  0  0
    6.0696  -15.5700   24.3257 C   0  0  2  0  0  0  0  0  0  0  0  0
    5.4755  -16.8825   24.4563 N   0  0  0  0  0  0  0  0  0  0  0  0
    7.3328  -15.6618   23.5967 C   0  0  0  0  0  0  0  0  0  0  0  0
    8.1406  -16.5817   23.8677 O   0  0  0  0  0  0  0  0  0  0  0  0
    8.7914  -15.7895   16.5244 N   0  0  0  0  0  0  0  0  0  0  0  0
    8.0066  -14.6510   16.8704 C   0  0  0  0  0  0  0  0  0  0  0  0
    8.1751  -13.5517   16.2390 N   0  0  0  0  0  0  0  0  0  0  0  0
    7.0512  -14.7525   17.9082 N   0  0  0  0  0  0  0  0  0  0  0  0
    7.4054  -14.5700   19.3098 C   0  0  0  0  0  0  0  0  0  0  0  0
    8.7835  -14.0059   19.4524 C   0  0  0  0  0  0  0  0  0  0  0  0
    9.2464  -13.7768   20.8541 C   0  0  0  0  0  0  0  0  0  0  0  0
    8.9546  -14.8397   21.8397 C   0  0  2  0  0  0  0  0  0  0  0  0
    7.7298  -14.7520   22.5637 N   0  0  0  0  0  0  0  0  0  0  0  0
   10.0437  -14.7505   22.8912 C   0  0  0  0  0  0  0  0  0  0  0  0
   10.4124  -13.6543   23.3743 O   0  0  0  0  0  0  0  0  0  0  0  0
    7.6840  -12.6577   16.4180 O   0  0  0  0  0  0  0  0  0  0  0  0
   11.9256  -15.6408   31.0727 C   0  0  0  0  0  0  0  0  0  0  0  0
   11.5045  -15.5794   29.7622 C   0  0  0  0  0  0  0  0  0  0  0  0
   11.4521  -14.4092   29.0348 C   0  0  0  0  0  0  0  0  0  0  0  0
   11.0172  -14.4361   27.7250 C   0  0  0  0  0  0  0  0  0  0  0  0
   10.6209  -15.6020   27.0856 C   0  0  0  0  0  0  0  0  0  0  0  0
   10.1503  -15.6232   25.6811 C   0  0  2  0  0  0  0  0  0  0  0  0
   11.2603  -15.9442   24.7087 N   0  0  0  0  0  0  0  0  0  0  0  0
   10.6846  -15.9256   23.3637 C   0  0  0  0  0  0  0  0  0  0  0  0
   11.8823  -17.2575   24.9435 O   0  0  0  0  0  0  0  0  0  0  0  0
   11.4761  -18.3208   24.4113 C   0  0  0  0  0  0  0  0  0  0  0  0
   10.6762  -16.7618   27.8165 C   0  0  0  0  0  0  0  0  0  0  0  0
   11.1062  -16.7592   29.1229 O   0  0  0  0  0  0  0  0  0  0  0  0
  2  1  1  1
  2  3  1  0
  4  5  1  0
  4  2  1  0
  5  6  1  1
  7  8  2  0
  7  5  1  0
  9 10  1  0
 10 12  1  0
 10 11  2  0
 12 13  1  0
 13 14  1  0
 14 15  1  0
 16 15  1  6
 16 18  1  0
 16 17  1  0
 17  7  1  0
 18 27  1  0
 19 18  2  0
 21 20  1  0
 22 21  2  0
 23 22  1  0
 24 30  1  0
 24 23  2  0
 25 24  1  0
 26 25  1  6
 27 26  1  0
 28 26  1  0
 29 28  2  0
 30 31  2  0
 31 21  1  0
 32 28  1  0
M  END
$$$$
