LRY.pdb
     RDKit          3D

 32 32  0  0  1  0  0  0  0  0999 V2000
    8.5498  -12.3860   19.5693 C   0  0  0  0  0  0  0  0  0  0  0  0
    7.4922  -13.4872   19.5329 C   0  0  2  0  0  0  0  0  0  0  0  0
    6.1896  -12.8320   19.9205 C   0  0  0  0  0  0  0  0  0  0  0  0
    7.8845  -14.6310   20.4384 C   0  0  0  0  0  0  0  0  0  0  0  0
    9.3430  -14.9083   20.2370 C   0  0  2  0  0  0  0  0  0  0  0  0
    9.6081  -15.3253   18.8774 N   0  0  0  0  0  0  0  0  0  0  0  0
    9.8993  -15.8795   21.1767 C   0  0  0  0  0  0  0  0  0  0  0  0
    9.6975  -15.7394   22.4063 O   0  0  0  0  0  0  0  0  0  0  0  0
   13.8194  -21.8595   21.0337 N   0  0  0  0  0  0  0  0  0  0  0  0
   13.2928  -22.1599   19.7436 C   0  0  0  0  0  0  0  0  0  0  0  0
   12.7556  -23.3006   19.5302 N   0  0  0  0  0  0  0  0  0  0  0  0
   13.3715  -21.1914   18.7160 N   0  0  0  0  0  0  0  0  0  0  0  0
   13.1478  -19.7735   18.9670 C   0  0  0  0  0  0  0  0  0  0  0  0
   11.9914  -19.5620   19.8920 C   0  0  0  0  0  0  0  0  0  0  0  0
   12.3065  -18.8549   21.1697 C   0  0  0  0  0  0  0  0  0  0  0  0
   11.2778  -17.9338   21.6986 C   0  0  2  0  0  0  0  0  0  0  0  0
   10.6816  -17.0145   20.7868 N   0  0  0  0  0  0  0  0  0  0  0  0
   11.9757  -17.0707   22.7319 C   0  0  0  0  0  0  0  0  0  0  0  0
   12.4076  -15.9262   22.4591 O   0  0  0  0  0  0  0  0  0  0  0  0
   12.3831  -23.6464   18.6279 O   0  0  0  0  0  0  0  0  0  0  0  0
    8.6722  -13.1376   29.4717 C   0  0  0  0  0  0  0  0  0  0  0  0
    9.0759  -13.8579   28.3686 C   0  0  0  0  0  0  0  0  0  0  0  0
    9.0043  -13.3763   27.0786 C   0  0  0  0  0  0  0  0  0  0  0  0
    9.4308  -14.1647   26.0288 C   0  0  0  0  0  0  0  0  0  0  0  0
    9.9390  -15.4439   26.2041 C   0  0  0  0  0  0  0  0  0  0  0  0
   10.3904  -16.2867   25.0726 C   0  0  1  0  0  0  0  0  0  0  0  0
   11.8464  -16.6705   25.1879 N   0  0  0  0  0  0  0  0  0  0  0  0
   12.1609  -17.5443   24.0572 C   0  0  0  0  0  0  0  0  0  0  0  0
   12.1685  -17.3751   26.4395 O   0  0  0  0  0  0  0  0  0  0  0  0
   12.6741  -16.8101   27.4416 C   0  0  0  0  0  0  0  0  0  0  0  0
   10.0069  -15.9153   27.4908 C   0  0  0  0  0  0  0  0  0  0  0  0
    9.5878  -15.1477   28.5523 O   0  0  0  0  0  0  0  0  0  0  0  0
  2  1  1  1
  2  3  1  0
  4  5  1  0
  4  2  1  0
  5  6  1  6
  7  8  2  0
  7  5  1  0
  9 10  1  0
 10 12  1  0
 10 11  2  0
 12 13  1  0
 13 14  1  0
 14 15  1  0
 16 15  1  6
 16 18  1  0
 16 17  1  0
 17  7  1  0
 18 27  1  0
 19 18  2  0
 21 20  1  0
 22 21  2  0
 23 22  1  0
 24 30  1  0
 24 23  2  0
 25 24  1  0
 26 25  1  6
 27 26  1  0
 28 26  1  0
 29 28  2  0
 30 31  2  0
 31 21  1  0
 32 28  1  0
M  END
$$$$
