LRY.pdb
     RDKit          3D

 32 32  0  0  1  0  0  0  0  0999 V2000
    9.5801  -12.3603   19.6679 C   0  0  0  0  0  0  0  0  0  0  0  0
    8.2650  -12.8822   19.0926 C   0  0  2  0  0  0  0  0  0  0  0  0
    7.5254  -11.6745   18.5720 C   0  0  0  0  0  0  0  0  0  0  0  0
    7.4966  -13.6548   20.1388 C   0  0  0  0  0  0  0  0  0  0  0  0
    8.3538  -14.7920   20.6043 C   0  0  2  0  0  0  0  0  0  0  0  0
    8.8693  -15.5454   19.4820 N   0  0  0  0  0  0  0  0  0  0  0  0
    7.6908  -15.6893   21.5483 C   0  0  0  0  0  0  0  0  0  0  0  0
    7.2872  -15.2442   22.6488 O   0  0  0  0  0  0  0  0  0  0  0  0
    9.4286  -22.4677   19.0087 N   0  0  0  0  0  0  0  0  0  0  0  0
    9.0370  -22.9772   20.2810 C   0  0  0  0  0  0  0  0  0  0  0  0
    9.7173  -23.9145   20.8232 N   0  0  0  0  0  0  0  0  0  0  0  0
    7.9001  -22.4387   20.9273 N   0  0  0  0  0  0  0  0  0  0  0  0
    7.1251  -21.3466   20.3526 C   0  0  0  0  0  0  0  0  0  0  0  0
    7.5380  -20.0279   20.9254 C   0  0  0  0  0  0  0  0  0  0  0  0
    6.5083  -19.3322   21.7544 C   0  0  0  0  0  0  0  0  0  0  0  0
    6.8352  -17.9698   22.2268 C   0  0  2  0  0  0  0  0  0  0  0  0
    7.4602  -17.0818   21.3032 N   0  0  0  0  0  0  0  0  0  0  0  0
    7.8381  -18.1424   23.3510 C   0  0  0  0  0  0  0  0  0  0  0  0
    9.0687  -18.2401   23.1342 O   0  0  0  0  0  0  0  0  0  0  0  0
   10.5452  -24.3872   20.4187 O   0  0  0  0  0  0  0  0  0  0  0  0
   10.9606  -13.8898   30.1255 C   0  0  0  0  0  0  0  0  0  0  0  0
   10.2745  -14.4127   29.0511 C   0  0  0  0  0  0  0  0  0  0  0  0
    9.0490  -13.9416   28.6298 C   0  0  0  0  0  0  0  0  0  0  0  0
    8.4289  -14.5235   27.5424 C   0  0  0  0  0  0  0  0  0  0  0  0
    8.9831  -15.5801   26.8341 C   0  0  0  0  0  0  0  0  0  0  0  0
    8.3100  -16.2033   25.6709 C   0  0  1  0  0  0  0  0  0  0  0  0
    8.2796  -17.7102   25.7649 N   0  0  0  0  0  0  0  0  0  0  0  0
    7.4023  -18.1987   24.7007 C   0  0  0  0  0  0  0  0  0  0  0  0
    7.7822  -18.2059   27.0587 O   0  0  0  0  0  0  0  0  0  0  0  0
    8.5282  -18.4465   28.0408 C   0  0  0  0  0  0  0  0  0  0  0  0
   10.2027  -16.0426   27.2599 C   0  0  0  0  0  0  0  0  0  0  0  0
   10.8392  -15.4785   28.3408 O   0  0  0  0  0  0  0  0  0  0  0  0
  2  1  1  1
  2  3  1  0
  4  5  1  0
  4  2  1  0
  5  6  1  6
  7  8  2  0
  7  5  1  0
  9 10  1  0
 10 12  1  0
 10 11  2  0
 12 13  1  0
 13 14  1  0
 14 15  1  0
 16 15  1  6
 16 18  1  0
 16 17  1  0
 17  7  1  0
 18 27  1  0
 19 18  2  0
 21 20  1  0
 22 21  2  0
 23 22  1  0
 24 30  1  0
 24 23  2  0
 25 24  1  0
 26 25  1  6
 27 26  1  0
 28 26  1  0
 29 28  2  0
 30 31  2  0
 31 21  1  0
 32 28  1  0
M  END
$$$$
