CHE.pdb
     RDKit          3D

 26 26  0  0  1  0  0  0  0  0999 V2000
   32.8113  -21.9556  -20.3106 N   0  0  0  0  0  0  0  0  0  0  0  0
   31.5932  -21.2329  -20.1275 C   0  0  1  0  0  0  0  0  0  0  0  0
   31.1029  -20.7179  -21.4696 C   0  0  0  0  0  0  0  0  0  0  0  0
   32.1150  -19.2799  -21.9115 S   0  0  0  0  0  0  0  0  0  0  0  0
   30.5196  -22.0764  -19.4776 C   0  0  0  0  0  0  0  0  0  0  0  0
   30.1733  -23.0793  -20.1030 O   0  0  0  0  0  0  0  0  0  0  0  0
   29.9674  -21.7124  -18.2306 N   0  0  0  0  0  0  0  0  0  0  0  0
   28.9748  -22.3660  -17.4944 C   0  0  1  0  0  0  0  0  0  0  0  0
   29.3248  -22.7348  -16.0460 C   0  0  0  0  0  0  0  0  0  0  0  0
   30.4057  -23.7487  -15.9544 C   0  0  0  0  0  0  0  0  0  0  0  0
   31.0429  -24.3566  -17.0494 C   0  0  0  0  0  0  0  0  0  0  0  0
   31.9513  -25.2054  -16.5854 N   0  0  0  0  0  0  0  0  0  0  0  0
   31.9446  -25.1873  -15.2434 C   0  0  0  0  0  0  0  0  0  0  0  0
   31.0099  -24.3066  -14.9033 N   0  0  0  0  0  0  0  0  0  0  0  0
   27.6016  -21.8779  -17.5618 C   0  0  0  0  0  0  0  0  0  0  0  0
   27.3940  -20.6571  -17.2308 O   0  0  0  0  0  0  0  0  0  0  0  0
   26.4863  -22.6418  -17.9619 N   0  0  0  0  0  0  0  0  0  0  0  0
   25.1622  -22.0294  -18.1743 C   0  0  1  0  0  0  0  0  0  0  0  0
   24.2623  -22.9691  -18.9008 C   0  0  0  0  0  0  0  0  0  0  0  0
   23.8916  -24.1544  -18.0657 C   0  0  0  0  0  0  0  0  0  0  0  0
   23.0771  -25.1581  -18.7789 C   0  0  0  0  0  0  0  0  0  0  0  0
   21.9525  -24.9779  -19.2521 O   0  0  0  0  0  0  0  0  0  0  0  0
   24.5810  -21.5992  -16.9034 C   0  0  0  0  0  0  0  0  0  0  0  0
   23.4099  -20.7926  -16.9173 O   0  0  0  0  0  0  0  0  0  0  0  0
   23.6356  -26.4372  -18.9323 O   0  0  0  0  0  0  0  0  0  0  0  0
   25.0057  -21.8670  -15.7760 O   0  0  0  0  0  0  0  0  0  0  0  0
  2  5  1  0
  2  1  1  6
  3  2  1  0
  4  3  1  0
  5  6  2  0
  7  8  1  0
  7  5  1  0
  9 10  1  0
  8  9  1  1
 10 11  2  0
 11 12  1  0
 13 12  1  0
 14 10  1  0
 14 13  2  0
 15  8  1  0
 15 16  2  0
 17 15  1  0
 18 17  1  0
 18 23  1  0
 18 19  1  1
 20 21  1  0
 20 19  1  0
 21 25  1  0
 22 21  2  0
 23 26  2  0
 23 24  1  0
M  END
$$$$
