CHE.pdb
     RDKit          3D

 26 26  0  0  1  0  0  0  0  0999 V2000
   25.2379  -12.0848  -15.4194 N   0  0  0  0  0  0  0  0  0  0  0  0
   25.1032  -11.4038  -16.6675 C   0  0  1  0  0  0  0  0  0  0  0  0
   25.2482  -12.3987  -17.8059 C   0  0  0  0  0  0  0  0  0  0  0  0
   26.6889  -13.4398  -17.4481 S   0  0  0  0  0  0  0  0  0  0  0  0
   23.7815  -10.6787  -16.7840 C   0  0  0  0  0  0  0  0  0  0  0  0
   23.6871   -9.8821  -17.7187 O   0  0  0  0  0  0  0  0  0  0  0  0
   22.7383  -10.9205  -15.8644 N   0  0  0  0  0  0  0  0  0  0  0  0
   21.4832  -10.3090  -15.7917 C   0  0  1  0  0  0  0  0  0  0  0  0
   20.2899  -11.2247  -15.4854 C   0  0  0  0  0  0  0  0  0  0  0  0
   18.9828  -10.5337  -15.6224 C   0  0  0  0  0  0  0  0  0  0  0  0
   18.2884  -10.3430  -16.8290 C   0  0  0  0  0  0  0  0  0  0  0  0
   17.1642   -9.6890  -16.5649 N   0  0  0  0  0  0  0  0  0  0  0  0
   17.0835   -9.4400  -15.2486 C   0  0  0  0  0  0  0  0  0  0  0  0
   18.1861   -9.9587  -14.7193 N   0  0  0  0  0  0  0  0  0  0  0  0
   21.3443   -9.0550  -15.0592 C   0  0  0  0  0  0  0  0  0  0  0  0
   22.0791   -8.8954  -14.0210 O   0  0  0  0  0  0  0  0  0  0  0  0
   20.4671   -8.0061  -15.4024 N   0  0  0  0  0  0  0  0  0  0  0  0
   20.6052   -6.6578  -14.8225 C   0  0  1  0  0  0  0  0  0  0  0  0
   21.9837   -6.1347  -15.0387 C   0  0  0  0  0  0  0  0  0  0  0  0
   22.1671   -4.7691  -14.4545 C   0  0  0  0  0  0  0  0  0  0  0  0
   23.2305   -3.9777  -15.1042 C   0  0  0  0  0  0  0  0  0  0  0  0
   23.9394   -4.3463  -16.0438 O   0  0  0  0  0  0  0  0  0  0  0  0
   19.5932   -5.7538  -15.3673 C   0  0  0  0  0  0  0  0  0  0  0  0
   19.0698   -4.7233  -14.5390 O   0  0  0  0  0  0  0  0  0  0  0  0
   23.4553   -2.6846  -14.6054 O   0  0  0  0  0  0  0  0  0  0  0  0
   19.1235   -5.7827  -16.5083 O   0  0  0  0  0  0  0  0  0  0  0  0
  2  5  1  0
  2  1  1  1
  3  2  1  0
  4  3  1  0
  5  6  2  0
  7  8  1  0
  7  5  1  0
  9 10  1  0
  8  9  1  1
 10 11  2  0
 11 12  1  0
 13 12  1  0
 14 10  1  0
 14 13  2  0
 15  8  1  0
 15 16  2  0
 17 15  1  0
 18 17  1  0
 18 23  1  0
 18 19  1  6
 20 21  1  0
 20 19  1  0
 21 25  1  0
 22 21  2  0
 23 26  2  0
 23 24  1  0
M  END
$$$$
