CHE.pdb
     RDKit          3D

 26 26  0  0  1  0  0  0  0  0999 V2000
   19.5745  -14.3691  -18.4252 N   0  0  0  0  0  0  0  0  0  0  0  0
   19.2305  -12.9862  -18.5198 C   0  0  1  0  0  0  0  0  0  0  0  0
   18.0906  -12.6810  -17.5636 C   0  0  0  0  0  0  0  0  0  0  0  0
   16.5832  -13.4195  -18.2491 S   0  0  0  0  0  0  0  0  0  0  0  0
   20.4059  -12.0826  -18.2231 C   0  0  0  0  0  0  0  0  0  0  0  0
   21.0505  -12.3560  -17.2099 O   0  0  0  0  0  0  0  0  0  0  0  0
   20.7213  -11.0006  -19.0730 N   0  0  0  0  0  0  0  0  0  0  0  0
   21.7528  -10.0656  -18.9451 C   0  0  1  0  0  0  0  0  0  0  0  0
   22.7204   -9.9444  -20.1306 C   0  0  0  0  0  0  0  0  0  0  0  0
   23.4456  -11.2086  -20.4145 C   0  0  0  0  0  0  0  0  0  0  0  0
   22.9835  -12.2388  -21.2510 C   0  0  0  0  0  0  0  0  0  0  0  0
   23.8926  -13.2055  -21.2640 N   0  0  0  0  0  0  0  0  0  0  0  0
   24.9275  -12.8648  -20.4803 C   0  0  0  0  0  0  0  0  0  0  0  0
   24.6250  -11.6675  -19.9907 N   0  0  0  0  0  0  0  0  0  0  0  0
   21.4496   -8.7398  -18.4174 C   0  0  0  0  0  0  0  0  0  0  0  0
   20.4091   -8.1478  -18.8756 O   0  0  0  0  0  0  0  0  0  0  0  0
   22.2094   -8.0591  -17.4443 N   0  0  0  0  0  0  0  0  0  0  0  0
   21.8198   -6.7269  -16.9477 C   0  0  1  0  0  0  0  0  0  0  0  0
   22.2154   -6.5650  -15.5202 C   0  0  0  0  0  0  0  0  0  0  0  0
   21.7942   -5.2408  -14.9646 C   0  0  0  0  0  0  0  0  0  0  0  0
   22.1841   -5.0309  -13.5563 C   0  0  0  0  0  0  0  0  0  0  0  0
   22.3419   -3.9411  -13.0007 O   0  0  0  0  0  0  0  0  0  0  0  0
   22.3887   -5.6743  -17.7883 C   0  0  0  0  0  0  0  0  0  0  0  0
   23.7624   -5.7454  -18.1491 O   0  0  0  0  0  0  0  0  0  0  0  0
   22.3949   -6.1799  -12.7771 O   0  0  0  0  0  0  0  0  0  0  0  0
   21.7903   -4.6936  -18.2392 O   0  0  0  0  0  0  0  0  0  0  0  0
  2  5  1  0
  2  1  1  1
  3  2  1  0
  4  3  1  0
  5  6  2  0
  7  8  1  0
  7  5  1  0
  9 10  1  0
  8  9  1  6
 10 11  2  0
 11 12  1  0
 13 12  1  0
 14 10  1  0
 14 13  2  0
 15  8  1  0
 15 16  2  0
 17 15  1  0
 18 17  1  0
 18 23  1  0
 18 19  1  1
 20 21  1  0
 20 19  1  0
 21 25  1  0
 22 21  2  0
 23 26  2  0
 23 24  1  0
M  END
$$$$
