CHE.pdb
     RDKit          3D

 26 26  0  0  1  0  0  0  0  0999 V2000
   45.2302   -9.7170   -4.4581 N   0  0  0  0  0  0  0  0  0  0  0  0
   43.8218   -9.9465   -4.5170 C   0  0  1  0  0  0  0  0  0  0  0  0
   43.0976   -8.8518   -3.7528 C   0  0  0  0  0  0  0  0  0  0  0  0
   42.3568   -9.6054   -2.2795 S   0  0  0  0  0  0  0  0  0  0  0  0
   43.3106  -10.0050   -5.9388 C   0  0  0  0  0  0  0  0  0  0  0  0
   43.8049   -9.1917   -6.7205 O   0  0  0  0  0  0  0  0  0  0  0  0
   42.3276  -10.9445   -6.3177 N   0  0  0  0  0  0  0  0  0  0  0  0
   41.5710  -10.9864   -7.4926 C   0  0  1  0  0  0  0  0  0  0  0  0
   41.0975  -12.3713   -7.9553 C   0  0  0  0  0  0  0  0  0  0  0  0
   42.1435  -13.1201   -8.6970 C   0  0  0  0  0  0  0  0  0  0  0  0
   43.4215  -12.6296   -9.0142 C   0  0  0  0  0  0  0  0  0  0  0  0
   44.0777  -13.5727   -9.6782 N   0  0  0  0  0  0  0  0  0  0  0  0
   43.2984  -14.6569   -9.8139 C   0  0  0  0  0  0  0  0  0  0  0  0
   42.1525  -14.3495   -9.2162 N   0  0  0  0  0  0  0  0  0  0  0  0
   40.5052  -10.0094   -7.6874 C   0  0  0  0  0  0  0  0  0  0  0  0
   39.5377  -10.0184   -6.8467 O   0  0  0  0  0  0  0  0  0  0  0  0
   40.4555   -9.0571   -8.7258 N   0  0  0  0  0  0  0  0  0  0  0  0
   39.3633   -8.0719   -8.8236 C   0  0  1  0  0  0  0  0  0  0  0  0
   39.8128   -6.7420   -8.3239 C   0  0  0  0  0  0  0  0  0  0  0  0
   38.7356   -5.7080   -8.4242 C   0  0  0  0  0  0  0  0  0  0  0  0
   39.1465   -4.3682   -7.9599 C   0  0  0  0  0  0  0  0  0  0  0  0
   39.5747   -4.0878   -6.8377 O   0  0  0  0  0  0  0  0  0  0  0  0
   38.8597   -7.9917  -10.1940 C   0  0  0  0  0  0  0  0  0  0  0  0
   37.6610   -7.2702  -10.4484 O   0  0  0  0  0  0  0  0  0  0  0  0
   39.0396   -3.3153   -8.8826 O   0  0  0  0  0  0  0  0  0  0  0  0
   39.3761   -8.4969  -11.1947 O   0  0  0  0  0  0  0  0  0  0  0  0
  2  5  1  0
  2  1  1  6
  3  2  1  0
  4  3  1  0
  5  6  2  0
  7  8  1  0
  7  5  1  0
  9 10  1  0
  8  9  1  1
 10 11  2  0
 11 12  1  0
 13 12  1  0
 14 10  1  0
 14 13  2  0
 15  8  1  0
 15 16  2  0
 17 15  1  0
 18 17  1  0
 18 23  1  0
 18 19  1  6
 20 21  1  0
 20 19  1  0
 21 25  1  0
 22 21  2  0
 23 26  2  0
 23 24  1  0
M  END
$$$$
