CHE.pdb
     RDKit          3D

 26 26  0  0  1  0  0  0  0  0999 V2000
   18.1917  -15.2659  -16.1683 N   0  0  0  0  0  0  0  0  0  0  0  0
   17.6892  -13.9310  -16.0964 C   0  0  1  0  0  0  0  0  0  0  0  0
   16.9866  -13.7251  -14.7656 C   0  0  0  0  0  0  0  0  0  0  0  0
   15.5033  -14.7677  -14.7583 S   0  0  0  0  0  0  0  0  0  0  0  0
   18.7810  -12.8987  -16.2661 C   0  0  0  0  0  0  0  0  0  0  0  0
   19.8684  -13.1799  -15.7607 O   0  0  0  0  0  0  0  0  0  0  0  0
   18.5398  -11.6967  -16.9657 N   0  0  0  0  0  0  0  0  0  0  0  0
   19.4366  -10.6644  -17.2567 C   0  0  1  0  0  0  0  0  0  0  0  0
   19.7891  -10.4579  -18.7364 C   0  0  0  0  0  0  0  0  0  0  0  0
   20.3221  -11.6860  -19.3788 C   0  0  0  0  0  0  0  0  0  0  0  0
   19.5708  -12.5907  -20.1479 C   0  0  0  0  0  0  0  0  0  0  0  0
   20.3776  -13.5621  -20.5561 N   0  0  0  0  0  0  0  0  0  0  0  0
   21.6192  -13.3433  -20.0958 C   0  0  0  0  0  0  0  0  0  0  0  0
   21.5471  -12.2152  -19.3979 N   0  0  0  0  0  0  0  0  0  0  0  0
   19.2679   -9.3706  -16.6040 C   0  0  0  0  0  0  0  0  0  0  0  0
   18.0722   -8.9257  -16.4794 O   0  0  0  0  0  0  0  0  0  0  0  0
   20.3146   -8.5721  -16.0997 N   0  0  0  0  0  0  0  0  0  0  0  0
   20.0590   -7.2615  -15.4751 C   0  0  1  0  0  0  0  0  0  0  0  0
   21.2615   -6.7948  -14.7288 C   0  0  0  0  0  0  0  0  0  0  0  0
   21.0326   -5.4773  -14.0571 C   0  0  0  0  0  0  0  0  0  0  0  0
   22.1848   -4.9996  -13.2674 C   0  0  0  0  0  0  0  0  0  0  0  0
   22.5937   -5.4872  -12.2108 O   0  0  0  0  0  0  0  0  0  0  0  0
   19.6327   -6.2850  -16.4766 C   0  0  0  0  0  0  0  0  0  0  0  0
   18.5884   -5.3755  -16.1537 O   0  0  0  0  0  0  0  0  0  0  0  0
   22.8796   -3.8861  -13.7663 O   0  0  0  0  0  0  0  0  0  0  0  0
   20.0936   -6.1536  -17.6139 O   0  0  0  0  0  0  0  0  0  0  0  0
  2  5  1  0
  2  1  1  1
  3  2  1  0
  4  3  1  0
  5  6  2  0
  7  8  1  0
  7  5  1  0
  9 10  1  0
  8  9  1  6
 10 11  2  0
 11 12  1  0
 13 12  1  0
 14 10  1  0
 14 13  2  0
 15  8  1  0
 15 16  2  0
 17 15  1  0
 18 17  1  0
 18 23  1  0
 18 19  1  6
 20 21  1  0
 20 19  1  0
 21 25  1  0
 22 21  2  0
 23 26  2  0
 23 24  1  0
M  END
$$$$
