CHE.pdb
     RDKit          3D

 26 26  0  0  1  0  0  0  0  0999 V2000
   27.4071  -30.3069  -17.0990 N   0  0  0  0  0  0  0  0  0  0  0  0
   26.8861  -31.6301  -16.9664 C   0  0  1  0  0  0  0  0  0  0  0  0
   28.0104  -32.5830  -16.5995 C   0  0  0  0  0  0  0  0  0  0  0  0
   28.5383  -32.1885  -14.9103 S   0  0  0  0  0  0  0  0  0  0  0  0
   25.7860  -31.7109  -15.9322 C   0  0  0  0  0  0  0  0  0  0  0  0
   25.7050  -30.7553  -15.1594 O   0  0  0  0  0  0  0  0  0  0  0  0
   24.9205  -32.8246  -15.8800 N   0  0  0  0  0  0  0  0  0  0  0  0
   23.8477  -33.0530  -15.0129 C   0  0  1  0  0  0  0  0  0  0  0  0
   22.5794  -33.6551  -15.6335 C   0  0  0  0  0  0  0  0  0  0  0  0
   22.0393  -32.8372  -16.7489 C   0  0  0  0  0  0  0  0  0  0  0  0
   22.2559  -31.4599  -16.9240 C   0  0  0  0  0  0  0  0  0  0  0  0
   21.6215  -31.0739  -18.0238 N   0  0  0  0  0  0  0  0  0  0  0  0
   20.9995  -32.1249  -18.5805 C   0  0  0  0  0  0  0  0  0  0  0  0
   21.2715  -33.1589  -17.7920 N   0  0  0  0  0  0  0  0  0  0  0  0
   24.1014  -33.6669  -13.7140 C   0  0  0  0  0  0  0  0  0  0  0  0
   25.3123  -33.9859  -13.4402 O   0  0  0  0  0  0  0  0  0  0  0  0
   23.1213  -33.9366  -12.7372 N   0  0  0  0  0  0  0  0  0  0  0  0
   23.4826  -34.3071  -11.3569 C   0  0  1  0  0  0  0  0  0  0  0  0
   24.5149  -33.3766  -10.8193 C   0  0  0  0  0  0  0  0  0  0  0  0
   24.9129  -33.7235   -9.4189 C   0  0  0  0  0  0  0  0  0  0  0  0
   25.5352  -32.6076   -8.6794 C   0  0  0  0  0  0  0  0  0  0  0  0
   25.0129  -31.9571   -7.7709 O   0  0  0  0  0  0  0  0  0  0  0  0
   22.2955  -34.3473  -10.5040 C   0  0  0  0  0  0  0  0  0  0  0  0
   22.4130  -34.8527   -9.1801 O   0  0  0  0  0  0  0  0  0  0  0  0
   26.8441  -32.2543   -9.0451 O   0  0  0  0  0  0  0  0  0  0  0  0
   21.1592  -33.9776  -10.8127 O   0  0  0  0  0  0  0  0  0  0  0  0
  2  5  1  0
  2  1  1  1
  3  2  1  0
  4  3  1  0
  5  6  2  0
  7  8  1  0
  7  5  1  0
  9 10  1  0
  8  9  1  6
 10 11  2  0
 11 12  1  0
 13 12  1  0
 14 10  1  0
 14 13  2  0
 15  8  1  0
 15 16  2  0
 17 15  1  0
 18 17  1  0
 18 23  1  0
 18 19  1  1
 20 21  1  0
 20 19  1  0
 21 25  1  0
 22 21  2  0
 23 26  2  0
 23 24  1  0
M  END
$$$$
