CHE.pdb
     RDKit          3D

 26 26  0  0  1  0  0  0  0  0999 V2000
   24.0224  -14.0263  -17.0367 N   0  0  0  0  0  0  0  0  0  0  0  0
   24.0758  -13.0230  -16.0217 C   0  0  1  0  0  0  0  0  0  0  0  0
   25.5008  -12.5153  -15.8855 C   0  0  0  0  0  0  0  0  0  0  0  0
   26.4836  -13.8306  -15.1163 S   0  0  0  0  0  0  0  0  0  0  0  0
   23.1440  -11.8676  -16.3096 C   0  0  0  0  0  0  0  0  0  0  0  0
   23.0337  -11.5498  -17.4945 O   0  0  0  0  0  0  0  0  0  0  0  0
   22.4563  -11.2131  -15.2651 N   0  0  0  0  0  0  0  0  0  0  0  0
   21.5707  -10.1344  -15.3482 C   0  0  1  0  0  0  0  0  0  0  0  0
   20.1376  -10.3832  -14.8578 C   0  0  0  0  0  0  0  0  0  0  0  0
   19.4391  -11.4408  -15.6313 C   0  0  0  0  0  0  0  0  0  0  0  0
   19.0363  -12.6868  -15.1216 C   0  0  0  0  0  0  0  0  0  0  0  0
   18.4464  -13.3660  -16.0971 N   0  0  0  0  0  0  0  0  0  0  0  0
   18.4402  -12.6321  -17.2208 C   0  0  0  0  0  0  0  0  0  0  0  0
   19.0409  -11.4903  -16.9041 N   0  0  0  0  0  0  0  0  0  0  0  0
   22.0171   -8.8132  -14.9197 C   0  0  0  0  0  0  0  0  0  0  0  0
   22.4609   -8.7016  -13.7223 O   0  0  0  0  0  0  0  0  0  0  0  0
   21.9991   -7.6510  -15.7174 N   0  0  0  0  0  0  0  0  0  0  0  0
   22.4453   -6.3458  -15.1973 C   0  0  1  0  0  0  0  0  0  0  0  0
   22.4209   -5.3175  -16.2756 C   0  0  0  0  0  0  0  0  0  0  0  0
   22.9473   -3.9970  -15.8081 C   0  0  0  0  0  0  0  0  0  0  0  0
   22.9013   -2.9367  -16.8343 C   0  0  0  0  0  0  0  0  0  0  0  0
   23.4953   -2.9455  -17.9152 O   0  0  0  0  0  0  0  0  0  0  0  0
   21.6359   -5.9423  -14.0483 C   0  0  0  0  0  0  0  0  0  0  0  0
   22.2522   -5.2230  -12.9877 O   0  0  0  0  0  0  0  0  0  0  0  0
   22.1069   -1.8136  -16.5527 O   0  0  0  0  0  0  0  0  0  0  0  0
   20.4321   -6.1618  -13.8873 O   0  0  0  0  0  0  0  0  0  0  0  0
  2  5  1  0
  2  1  1  6
  3  2  1  0
  4  3  1  0
  5  6  2  0
  7  8  1  0
  7  5  1  0
  9 10  1  0
  8  9  1  1
 10 11  2  0
 11 12  1  0
 13 12  1  0
 14 10  1  0
 14 13  2  0
 15  8  1  0
 15 16  2  0
 17 15  1  0
 18 17  1  0
 18 23  1  0
 18 19  1  6
 20 21  1  0
 20 19  1  0
 21 25  1  0
 22 21  2  0
 23 26  2  0
 23 24  1  0
M  END
$$$$
