CHE.pdb
     RDKit          3D

 26 26  0  0  1  0  0  0  0  0999 V2000
   25.9779  -20.2234  -15.0648 N   0  0  0  0  0  0  0  0  0  0  0  0
   25.1557  -21.0720  -15.8671 C   0  0  1  0  0  0  0  0  0  0  0  0
   25.8840  -22.3778  -16.1343 C   0  0  0  0  0  0  0  0  0  0  0  0
   27.5944  -21.9740  -16.5801 S   0  0  0  0  0  0  0  0  0  0  0  0
   23.8188  -21.3526  -15.2188 C   0  0  0  0  0  0  0  0  0  0  0  0
   23.0204  -22.0022  -15.8952 O   0  0  0  0  0  0  0  0  0  0  0  0
   23.5320  -20.8868  -13.9176 N   0  0  0  0  0  0  0  0  0  0  0  0
   22.3338  -20.9823  -13.2036 C   0  0  1  0  0  0  0  0  0  0  0  0
   22.4521  -21.1253  -11.6798 C   0  0  0  0  0  0  0  0  0  0  0  0
   21.1479  -21.3948  -11.0231 C   0  0  0  0  0  0  0  0  0  0  0  0
   20.3007  -22.4772  -11.3152 C   0  0  0  0  0  0  0  0  0  0  0  0
   19.2309  -22.3925  -10.5347 N   0  0  0  0  0  0  0  0  0  0  0  0
   19.3305  -21.3117   -9.7452 C   0  0  0  0  0  0  0  0  0  0  0  0
   20.4870  -20.7418  -10.0652 N   0  0  0  0  0  0  0  0  0  0  0  0
   21.2367  -20.0782  -13.5312 C   0  0  0  0  0  0  0  0  0  0  0  0
   21.4899  -18.8217  -13.5324 O   0  0  0  0  0  0  0  0  0  0  0  0
   19.9216  -20.4769  -13.8464 N   0  0  0  0  0  0  0  0  0  0  0  0
   18.8602  -19.4944  -14.1314 C   0  0  1  0  0  0  0  0  0  0  0  0
   19.1507  -18.7636  -15.3972 C   0  0  0  0  0  0  0  0  0  0  0  0
   19.3825  -19.6946  -16.5457 C   0  0  0  0  0  0  0  0  0  0  0  0
   19.4229  -19.0248  -17.8607 C   0  0  0  0  0  0  0  0  0  0  0  0
   18.5924  -19.1474  -18.7643 O   0  0  0  0  0  0  0  0  0  0  0  0
   17.5507  -20.1439  -14.1714 C   0  0  0  0  0  0  0  0  0  0  0  0
   17.4766  -21.5577  -14.0374 O   0  0  0  0  0  0  0  0  0  0  0  0
   20.5085  -18.1685  -18.1048 O   0  0  0  0  0  0  0  0  0  0  0  0
   16.4598  -19.5844  -14.3125 O   0  0  0  0  0  0  0  0  0  0  0  0
  2  5  1  0
  2  1  1  1
  3  2  1  0
  4  3  1  0
  5  6  2  0
  7  8  1  0
  7  5  1  0
  9 10  1  0
  8  9  1  1
 10 11  2  0
 11 12  1  0
 13 12  1  0
 14 10  1  0
 14 13  2  0
 15  8  1  0
 15 16  2  0
 17 15  1  0
 18 17  1  0
 18 23  1  0
 18 19  1  6
 20 21  1  0
 20 19  1  0
 21 25  1  0
 22 21  2  0
 23 26  2  0
 23 24  1  0
M  END
$$$$
