CHE.pdb
     RDKit          3D

 26 26  0  0  1  0  0  0  0  0999 V2000
   23.2719  -11.6554  -15.7819 N   0  0  0  0  0  0  0  0  0  0  0  0
   22.7371  -10.5367  -15.0733 C   0  0  1  0  0  0  0  0  0  0  0  0
   23.7596  -10.0384  -14.0668 C   0  0  0  0  0  0  0  0  0  0  0  0
   23.4692  -10.9142  -12.5060 S   0  0  0  0  0  0  0  0  0  0  0  0
   22.3370   -9.4106  -15.9996 C   0  0  0  0  0  0  0  0  0  0  0  0
   23.0903   -9.2065  -16.9524 O   0  0  0  0  0  0  0  0  0  0  0  0
   21.1670   -8.6575  -15.7623 N   0  0  0  0  0  0  0  0  0  0  0  0
   20.6430   -7.6030  -16.5161 C   0  0  1  0  0  0  0  0  0  0  0  0
   19.5307   -7.9578  -17.5127 C   0  0  0  0  0  0  0  0  0  0  0  0
   19.9592   -8.9582  -18.5228 C   0  0  0  0  0  0  0  0  0  0  0  0
   19.7254  -10.3416  -18.4446 C   0  0  0  0  0  0  0  0  0  0  0  0
   20.2496  -10.9151  -19.5205 N   0  0  0  0  0  0  0  0  0  0  0  0
   20.8154   -9.9816  -20.3013 C   0  0  0  0  0  0  0  0  0  0  0  0
   20.6223   -8.8268  -19.6735 N   0  0  0  0  0  0  0  0  0  0  0  0
   20.3284   -6.3423  -15.8529 C   0  0  0  0  0  0  0  0  0  0  0  0
   19.7980   -6.4065  -14.6877 O   0  0  0  0  0  0  0  0  0  0  0  0
   20.5616   -5.0604  -16.3913 N   0  0  0  0  0  0  0  0  0  0  0  0
   20.2212   -3.8332  -15.6489 C   0  0  1  0  0  0  0  0  0  0  0  0
   20.7510   -2.6320  -16.3539 C   0  0  0  0  0  0  0  0  0  0  0  0
   20.4805   -1.3690  -15.5980 C   0  0  0  0  0  0  0  0  0  0  0  0
   20.9781   -0.1516  -16.2686 C   0  0  0  0  0  0  0  0  0  0  0  0
   21.6295   -0.1133  -17.3153 O   0  0  0  0  0  0  0  0  0  0  0  0
   18.7776   -3.7408  -15.4354 C   0  0  0  0  0  0  0  0  0  0  0  0
   18.2928   -3.2957  -14.1749 O   0  0  0  0  0  0  0  0  0  0  0  0
   20.6819    1.0771  -15.6570 O   0  0  0  0  0  0  0  0  0  0  0  0
   17.8970   -4.0144  -16.2558 O   0  0  0  0  0  0  0  0  0  0  0  0
  2  5  1  0
  2  1  1  6
  3  2  1  0
  4  3  1  0
  5  6  2  0
  7  8  1  0
  7  5  1  0
  9 10  1  0
  8  9  1  1
 10 11  2  0
 11 12  1  0
 13 12  1  0
 14 10  1  0
 14 13  2  0
 15  8  1  0
 15 16  2  0
 17 15  1  0
 18 17  1  0
 18 23  1  0
 18 19  1  6
 20 21  1  0
 20 19  1  0
 21 25  1  0
 22 21  2  0
 23 26  2  0
 23 24  1  0
M  END
$$$$
