CHE.pdb
     RDKit          3D

 26 26  0  0  1  0  0  0  0  0999 V2000
   16.2947  -10.9075  -11.8188 N   0  0  0  0  0  0  0  0  0  0  0  0
   17.0408   -9.8109  -11.2893 C   0  0  1  0  0  0  0  0  0  0  0  0
   18.0066   -9.2988  -12.3438 C   0  0  0  0  0  0  0  0  0  0  0  0
   19.3218  -10.5325  -12.5325 S   0  0  0  0  0  0  0  0  0  0  0  0
   16.1477   -8.6845  -10.8202 C   0  0  0  0  0  0  0  0  0  0  0  0
   15.3186   -8.2816  -11.6370 O   0  0  0  0  0  0  0  0  0  0  0  0
   16.2789   -8.1483   -9.5212 N   0  0  0  0  0  0  0  0  0  0  0  0
   15.5830   -7.0807   -8.9461 C   0  0  1  0  0  0  0  0  0  0  0  0
   14.9472   -7.3359   -7.5724 C   0  0  0  0  0  0  0  0  0  0  0  0
   13.6821   -8.1084   -7.6572 C   0  0  0  0  0  0  0  0  0  0  0  0
   13.0478   -8.4983   -8.8490 C   0  0  0  0  0  0  0  0  0  0  0  0
   11.9467   -9.1695   -8.5357 N   0  0  0  0  0  0  0  0  0  0  0  0
   11.8241   -9.2412   -7.2011 C   0  0  0  0  0  0  0  0  0  0  0  0
   12.8776   -8.5971   -6.7112 N   0  0  0  0  0  0  0  0  0  0  0  0
   16.1742   -5.7473   -8.9768 C   0  0  0  0  0  0  0  0  0  0  0  0
   17.4500   -5.6669   -8.8818 O   0  0  0  0  0  0  0  0  0  0  0  0
   15.4543   -4.5418   -9.1028 N   0  0  0  0  0  0  0  0  0  0  0  0
   16.1056   -3.2899   -9.5290 C   0  0  1  0  0  0  0  0  0  0  0  0
   16.7507   -3.4636  -10.8610 C   0  0  0  0  0  0  0  0  0  0  0  0
   17.3361   -2.1860  -11.3754 C   0  0  0  0  0  0  0  0  0  0  0  0
   17.9842   -2.3131  -12.6957 C   0  0  0  0  0  0  0  0  0  0  0  0
   18.1498   -3.3603  -13.3260 O   0  0  0  0  0  0  0  0  0  0  0  0
   15.1491   -2.1839   -9.5326 C   0  0  0  0  0  0  0  0  0  0  0  0
   15.6368   -0.8487   -9.4914 O   0  0  0  0  0  0  0  0  0  0  0  0
   18.4560   -1.1310  -13.2886 O   0  0  0  0  0  0  0  0  0  0  0  0
   13.9192   -2.2795   -9.5698 O   0  0  0  0  0  0  0  0  0  0  0  0
  2  5  1  0
  2  1  1  6
  3  2  1  0
  4  3  1  0
  5  6  2  0
  7  8  1  0
  7  5  1  0
  9 10  1  0
  8  9  1  1
 10 11  2  0
 11 12  1  0
 13 12  1  0
 14 10  1  0
 14 13  2  0
 15  8  1  0
 15 16  2  0
 17 15  1  0
 18 17  1  0
 18 23  1  0
 18 19  1  6
 20 21  1  0
 20 19  1  0
 21 25  1  0
 22 21  2  0
 23 26  2  0
 23 24  1  0
M  END
$$$$
