PHG.pdb
     RDKit          3D

 22 23  0  0  1  0  0  0  0  0999 V2000
    9.3010  -18.6774   19.0463 N   0  0  0  0  0  0  0  0  0  0  0  0
    8.7699  -19.4338   17.9311 C   0  0  0  0  0  0  0  0  0  0  0  0
    9.1248  -18.6955   16.6842 C   0  0  0  0  0  0  0  0  0  0  0  0
    9.7901  -17.4525   17.1657 C   0  0  0  0  0  0  0  0  0  0  0  0
   10.3283  -17.8261   18.5324 C   0  0  1  0  0  0  0  0  0  0  0  0
   10.4415  -16.5675   19.3103 C   0  0  0  0  0  0  0  0  0  0  0  0
   11.3214  -15.7526   19.0246 O   0  0  0  0  0  0  0  0  0  0  0  0
    9.5711  -16.2367   20.3955 N   0  0  0  0  0  0  0  0  0  0  0  0
    9.5920  -15.0099   21.0956 C   0  0  1  0  0  0  0  0  0  0  0  0
    8.5102  -14.0371   20.9229 C   0  0  0  0  0  0  0  0  0  0  0  0
    8.0925  -13.7157   19.5489 C   0  0  0  0  0  0  0  0  0  0  0  0
    8.3125  -12.6546   18.7182 C   0  0  0  0  0  0  0  0  0  0  0  0
    7.6819  -12.9096   17.5302 N   0  0  0  0  0  0  0  0  0  0  0  0
    7.0838  -14.1024   17.6204 C   0  0  0  0  0  0  0  0  0  0  0  0
    7.3248  -14.5870   18.8195 N   0  0  0  0  0  0  0  0  0  0  0  0
    9.6914  -15.3326   22.5695 C   0  0  0  0  0  0  0  0  0  0  0  0
    9.7401  -14.4234   23.4318 O   0  0  0  0  0  0  0  0  0  0  0  0
    9.7344  -16.6778   23.0359 N   0  0  0  0  0  0  0  0  0  0  0  0
    9.8662  -17.0032   24.4397 C   0  0  0  0  0  0  0  0  0  0  0  0
   11.2722  -17.2730   24.7695 C   0  0  0  0  0  0  0  0  0  0  0  0
   12.1528  -17.1850   23.8736 O   0  0  0  0  0  0  0  0  0  0  0  0
   11.6956  -17.6279   26.0423 O   0  0  0  0  0  0  0  0  0  0  0  0
  1  5  1  0
  2  3  1  0
  2  1  1  0
  3  4  1  0
  4  5  1  0
  5  6  1  1
  6  7  2  0
  8  9  1  0
  8  6  1  0
  9 16  1  0
  9 10  1  1
 11 10  1  0
 11 15  1  0
 12 13  1  0
 12 11  2  0
 13 14  1  0
 14 15  2  0
 16 17  2  0
 18 16  1  0
 18 19  1  0
 19 20  1  0
 20 21  2  0
 20 22  1  0
M  END
$$$$
