PHG.pdb
     RDKit          3D

 22 23  0  0  1  0  0  0  0  0999 V2000
    7.4958  -15.3060   20.9072 N   0  0  0  0  0  0  0  0  0  0  0  0
    6.5549  -14.7679   19.9465 C   0  0  0  0  0  0  0  0  0  0  0  0
    6.9163  -13.3376   19.7238 C   0  0  0  0  0  0  0  0  0  0  0  0
    8.0358  -13.0856   20.6739 C   0  0  0  0  0  0  0  0  0  0  0  0
    8.6446  -14.4550   20.9004 C   0  0  1  0  0  0  0  0  0  0  0  0
    9.3103  -14.4173   22.2261 C   0  0  0  0  0  0  0  0  0  0  0  0
   10.2730  -13.6675   22.4024 O   0  0  0  0  0  0  0  0  0  0  0  0
    8.8920  -15.2166   23.3354 N   0  0  0  0  0  0  0  0  0  0  0  0
    9.5000  -15.2007   24.6105 C   0  0  1  0  0  0  0  0  0  0  0  0
    8.6815  -15.1304   25.8235 C   0  0  0  0  0  0  0  0  0  0  0  0
    7.7186  -14.0232   25.9354 C   0  0  0  0  0  0  0  0  0  0  0  0
    7.8190  -12.7200   26.3303 C   0  0  0  0  0  0  0  0  0  0  0  0
    6.5819  -12.1458   26.2127 N   0  0  0  0  0  0  0  0  0  0  0  0
    5.7319  -13.0712   25.7548 C   0  0  0  0  0  0  0  0  0  0  0  0
    6.4027  -14.1905   25.5878 N   0  0  0  0  0  0  0  0  0  0  0  0
   10.3698  -16.4334   24.7114 C   0  0  0  0  0  0  0  0  0  0  0  0
    9.8729  -17.5624   24.9379 O   0  0  0  0  0  0  0  0  0  0  0  0
   11.7837  -16.3619   24.5548 N   0  0  0  0  0  0  0  0  0  0  0  0
   12.6297  -17.5324   24.6461 C   0  0  0  0  0  0  0  0  0  0  0  0
   14.0241  -17.1765   24.3505 C   0  0  0  0  0  0  0  0  0  0  0  0
   14.3056  -16.0070   23.9778 O   0  0  0  0  0  0  0  0  0  0  0  0
   15.0740  -18.0768   24.4610 O   0  0  0  0  0  0  0  0  0  0  0  0
  1  5  1  0
  2  3  1  0
  2  1  1  0
  3  4  1  0
  4  5  1  0
  5  6  1  1
  6  7  2  0
  8  9  1  0
  8  6  1  0
  9 16  1  0
  9 10  1  1
 11 10  1  0
 11 15  1  0
 12 13  1  0
 12 11  2  0
 13 14  1  0
 14 15  2  0
 16 17  2  0
 18 16  1  0
 18 19  1  0
 19 20  1  0
 20 21  2  0
 20 22  1  0
M  END
$$$$
