PHG.pdb
     RDKit          3D

 22 23  0  0  1  0  0  0  0  0999 V2000
    9.2014  -14.3484   18.9598 N   0  0  0  0  0  0  0  0  0  0  0  0
    8.6853  -13.6304   17.8126 C   0  0  0  0  0  0  0  0  0  0  0  0
    7.7318  -12.6030   18.3235 C   0  0  0  0  0  0  0  0  0  0  0  0
    7.6725  -12.8494   19.7916 C   0  0  0  0  0  0  0  0  0  0  0  0
    8.9933  -13.5221   20.1078 C   0  0  1  0  0  0  0  0  0  0  0  0
    8.7839  -14.3279   21.3362 C   0  0  0  0  0  0  0  0  0  0  0  0
    8.3743  -13.7791   22.3614 O   0  0  0  0  0  0  0  0  0  0  0  0
    9.0347  -15.7340   21.4025 N   0  0  0  0  0  0  0  0  0  0  0  0
    8.8309  -16.5323   22.5501 C   0  0  1  0  0  0  0  0  0  0  0  0
    8.0663  -17.7788   22.4622 C   0  0  0  0  0  0  0  0  0  0  0  0
    6.7604  -17.7338   21.7852 C   0  0  0  0  0  0  0  0  0  0  0  0
    5.7708  -16.7966   21.7025 C   0  0  0  0  0  0  0  0  0  0  0  0
    4.7759  -17.3009   20.9088 N   0  0  0  0  0  0  0  0  0  0  0  0
    5.1392  -18.5236   20.5070 C   0  0  0  0  0  0  0  0  0  0  0  0
    6.3194  -18.7866   21.0253 N   0  0  0  0  0  0  0  0  0  0  0  0
   10.1928  -16.8652   23.1163 C   0  0  0  0  0  0  0  0  0  0  0  0
   11.2416  -16.6145   22.4760 O   0  0  0  0  0  0  0  0  0  0  0  0
   10.3386  -17.4756   24.3950 N   0  0  0  0  0  0  0  0  0  0  0  0
   11.6354  -17.7240   24.9873 C   0  0  0  0  0  0  0  0  0  0  0  0
   11.4830  -18.1475   26.3858 C   0  0  0  0  0  0  0  0  0  0  0  0
   10.3324  -18.2417   26.8890 O   0  0  0  0  0  0  0  0  0  0  0  0
   12.5601  -18.4571   27.2037 O   0  0  0  0  0  0  0  0  0  0  0  0
  1  5  1  0
  2  3  1  0
  2  1  1  0
  3  4  1  0
  4  5  1  0
  5  6  1  1
  6  7  2  0
  8  9  1  0
  8  6  1  0
  9 16  1  0
  9 10  1  6
 11 10  1  0
 11 15  1  0
 12 13  1  0
 12 11  2  0
 13 14  1  0
 14 15  2  0
 16 17  2  0
 18 16  1  0
 18 19  1  0
 19 20  1  0
 20 21  2  0
 20 22  1  0
M  END
$$$$
