PHG.pdb
     RDKit          3D

 22 23  0  0  1  0  0  0  0  0999 V2000
   10.0878  -14.9259   18.3811 N   0  0  0  0  0  0  0  0  0  0  0  0
    9.3173  -14.6630   17.1831 C   0  0  0  0  0  0  0  0  0  0  0  0
    8.6213  -13.3582   17.3798 C   0  0  0  0  0  0  0  0  0  0  0  0
    8.9651  -12.9608   18.7739 C   0  0  0  0  0  0  0  0  0  0  0  0
   10.2720  -13.6765   19.0513 C   0  0  1  0  0  0  0  0  0  0  0  0
   10.3658  -13.8487   20.5222 C   0  0  0  0  0  0  0  0  0  0  0  0
   10.4554  -12.8552   21.2467 O   0  0  0  0  0  0  0  0  0  0  0  0
   10.3581  -15.1270   21.1630 N   0  0  0  0  0  0  0  0  0  0  0  0
   10.3018  -15.3235   22.5609 C   0  0  1  0  0  0  0  0  0  0  0  0
    9.1110  -15.9091   23.1817 C   0  0  0  0  0  0  0  0  0  0  0  0
    7.8014  -15.5729   22.6007 C   0  0  0  0  0  0  0  0  0  0  0  0
    6.8899  -14.5834   22.8345 C   0  0  0  0  0  0  0  0  0  0  0  0
    5.8435  -14.7592   21.9694 N   0  0  0  0  0  0  0  0  0  0  0  0
    6.0991  -15.8333   21.2149 C   0  0  0  0  0  0  0  0  0  0  0  0
    7.2630  -16.3217   21.5859 N   0  0  0  0  0  0  0  0  0  0  0  0
   11.4895  -16.1766   22.9452 C   0  0  0  0  0  0  0  0  0  0  0  0
   11.5280  -16.7793   24.0442 O   0  0  0  0  0  0  0  0  0  0  0  0
   12.6088  -16.3288   22.0775 N   0  0  0  0  0  0  0  0  0  0  0  0
   13.7187  -17.2008   22.3966 C   0  0  0  0  0  0  0  0  0  0  0  0
   14.7356  -17.1379   21.3381 C   0  0  0  0  0  0  0  0  0  0  0  0
   14.5951  -17.8277   20.2940 O   0  0  0  0  0  0  0  0  0  0  0  0
   15.8693  -16.3427   21.4250 O   0  0  0  0  0  0  0  0  0  0  0  0
  1  5  1  0
  2  3  1  0
  2  1  1  0
  3  4  1  0
  4  5  1  0
  5  6  1  1
  6  7  2  0
  8  9  1  0
  8  6  1  0
  9 16  1  0
  9 10  1  6
 11 10  1  0
 11 15  1  0
 12 13  1  0
 12 11  2  0
 13 14  1  0
 14 15  2  0
 16 17  2  0
 18 16  1  0
 18 19  1  0
 19 20  1  0
 20 21  2  0
 20 22  1  0
M  END
$$$$
