PHG.pdb
     RDKit          3D

 22 23  0  0  1  0  0  0  0  0999 V2000
    9.9777  -13.9251   18.2203 N   0  0  0  0  0  0  0  0  0  0  0  0
    9.2649  -13.5978   17.0027 C   0  0  0  0  0  0  0  0  0  0  0  0
    8.0210  -12.8743   17.3968 C   0  0  0  0  0  0  0  0  0  0  0  0
    8.0321  -12.9017   18.8863 C   0  0  0  0  0  0  0  0  0  0  0  0
    9.4978  -13.0489   19.2431 C   0  0  1  0  0  0  0  0  0  0  0  0
    9.5539  -13.6834   20.5834 C   0  0  0  0  0  0  0  0  0  0  0  0
    8.9923  -13.1407   21.5374 O   0  0  0  0  0  0  0  0  0  0  0  0
   10.2358  -14.9138   20.8393 N   0  0  0  0  0  0  0  0  0  0  0  0
   10.3285  -15.5313   22.1065 C   0  0  1  0  0  0  0  0  0  0  0  0
    9.5995  -16.7714   22.3842 C   0  0  0  0  0  0  0  0  0  0  0  0
    8.2035  -16.8608   21.9273 C   0  0  0  0  0  0  0  0  0  0  0  0
    6.9962  -16.6669   22.5348 C   0  0  0  0  0  0  0  0  0  0  0  0
    6.0152  -16.8771   21.6033 N   0  0  0  0  0  0  0  0  0  0  0  0
    6.5998  -17.1941   20.4430 C   0  0  0  0  0  0  0  0  0  0  0  0
    7.9020  -17.1860   20.6296 N   0  0  0  0  0  0  0  0  0  0  0  0
   11.7939  -15.7867   22.3782 C   0  0  0  0  0  0  0  0  0  0  0  0
   12.1671  -16.3945   23.4097 O   0  0  0  0  0  0  0  0  0  0  0  0
   12.8058  -15.3480   21.4768 N   0  0  0  0  0  0  0  0  0  0  0  0
   14.2054  -15.6535   21.6811 C   0  0  0  0  0  0  0  0  0  0  0  0
   14.9961  -15.2143   20.5234 C   0  0  0  0  0  0  0  0  0  0  0  0
   14.4181  -14.6991   19.5303 O   0  0  0  0  0  0  0  0  0  0  0  0
   16.3767  -15.3375   20.4600 O   0  0  0  0  0  0  0  0  0  0  0  0
  1  5  1  0
  2  3  1  0
  2  1  1  0
  3  4  1  0
  4  5  1  0
  5  6  1  1
  6  7  2  0
  8  9  1  0
  8  6  1  0
  9 16  1  0
  9 10  1  6
 11 10  1  0
 11 15  1  0
 12 13  1  0
 12 11  2  0
 13 14  1  0
 14 15  2  0
 16 17  2  0
 18 16  1  0
 18 19  1  0
 19 20  1  0
 20 21  2  0
 20 22  1  0
M  END
$$$$
