PHG.pdb
     RDKit          3D

 22 23  0  0  1  0  0  0  0  0999 V2000
    8.1252  -14.0929   19.5396 N   0  0  0  0  0  0  0  0  0  0  0  0
    7.3101  -12.9887   19.0765 C   0  0  0  0  0  0  0  0  0  0  0  0
    7.8661  -12.5456   17.7648 C   0  0  0  0  0  0  0  0  0  0  0  0
    9.0785  -13.3895   17.5717 C   0  0  0  0  0  0  0  0  0  0  0  0
    8.8034  -14.6282   18.4005 C   0  0  1  0  0  0  0  0  0  0  0  0
   10.1212  -15.2052   18.7646 C   0  0  0  0  0  0  0  0  0  0  0  0
   10.7509  -15.8584   17.9300 O   0  0  0  0  0  0  0  0  0  0  0  0
   10.7169  -15.0446   20.0546 N   0  0  0  0  0  0  0  0  0  0  0  0
   12.0431  -15.4092   20.3770 C   0  0  1  0  0  0  0  0  0  0  0  0
   13.1567  -14.5070   20.0732 C   0  0  0  0  0  0  0  0  0  0  0  0
   13.8550  -14.6903   18.7909 C   0  0  0  0  0  0  0  0  0  0  0  0
   13.7157  -15.5708   17.7566 C   0  0  0  0  0  0  0  0  0  0  0  0
   14.6445  -15.2528   16.8025 N   0  0  0  0  0  0  0  0  0  0  0  0
   15.3449  -14.1984   17.2339 C   0  0  0  0  0  0  0  0  0  0  0  0
   14.8795  -13.8592   18.4167 N   0  0  0  0  0  0  0  0  0  0  0  0
   12.0818  -15.7074   21.8588 C   0  0  0  0  0  0  0  0  0  0  0  0
   11.3191  -15.1172   22.6605 O   0  0  0  0  0  0  0  0  0  0  0  0
   12.9837  -16.6668   22.4019 N   0  0  0  0  0  0  0  0  0  0  0  0
   12.9971  -17.0020   23.8096 C   0  0  0  0  0  0  0  0  0  0  0  0
   14.0555  -17.9819   24.0890 C   0  0  0  0  0  0  0  0  0  0  0  0
   14.7080  -18.4863   23.1374 O   0  0  0  0  0  0  0  0  0  0  0  0
   14.3853  -18.3934   25.3724 O   0  0  0  0  0  0  0  0  0  0  0  0
  1  5  1  0
  2  3  1  0
  2  1  1  0
  3  4  1  0
  4  5  1  0
  5  6  1  1
  6  7  2  0
  8  9  1  0
  8  6  1  0
  9 16  1  0
  9 10  1  1
 11 10  1  0
 11 15  1  0
 12 13  1  0
 12 11  2  0
 13 14  1  0
 14 15  2  0
 16 17  2  0
 18 16  1  0
 18 19  1  0
 19 20  1  0
 20 21  2  0
 20 22  1  0
M  END
$$$$
