PHG.pdb
     RDKit          3D

 22 23  0  0  1  0  0  0  0  0999 V2000
    7.3787  -19.0231   19.9261 N   0  0  0  0  0  0  0  0  0  0  0  0
    6.3206  -19.6591   19.1685 C   0  0  0  0  0  0  0  0  0  0  0  0
    6.5171  -19.2916   17.7360 C   0  0  0  0  0  0  0  0  0  0  0  0
    7.6710  -18.3493   17.7496 C   0  0  0  0  0  0  0  0  0  0  0  0
    8.4311  -18.7130   19.0094 C   0  0  1  0  0  0  0  0  0  0  0  0
    9.1839  -17.5030   19.4235 C   0  0  0  0  0  0  0  0  0  0  0  0
   10.1949  -17.1724   18.8001 O   0  0  0  0  0  0  0  0  0  0  0  0
    8.7975  -16.6798   20.5270 N   0  0  0  0  0  0  0  0  0  0  0  0
    9.3753  -15.4281   20.8353 C   0  0  1  0  0  0  0  0  0  0  0  0
    8.6258  -14.1889   20.6143 C   0  0  0  0  0  0  0  0  0  0  0  0
    8.0307  -13.9775   19.2850 C   0  0  0  0  0  0  0  0  0  0  0  0
    6.8197  -13.5168   18.8543 C   0  0  0  0  0  0  0  0  0  0  0  0
    6.8284  -13.5199   17.4854 N   0  0  0  0  0  0  0  0  0  0  0  0
    8.0181  -13.9720   17.0746 C   0  0  0  0  0  0  0  0  0  0  0  0
    8.7379  -14.2459   18.1412 N   0  0  0  0  0  0  0  0  0  0  0  0
    9.7853  -15.4662   22.2902 C   0  0  0  0  0  0  0  0  0  0  0  0
    8.9533  -15.2590   23.2053 O   0  0  0  0  0  0  0  0  0  0  0  0
   11.1287  -15.7371   22.6783 N   0  0  0  0  0  0  0  0  0  0  0  0
   11.5070  -15.9335   24.0612 C   0  0  0  0  0  0  0  0  0  0  0  0
   12.9189  -16.3299   24.1509 C   0  0  0  0  0  0  0  0  0  0  0  0
   13.5976  -16.4686   23.0993 O   0  0  0  0  0  0  0  0  0  0  0  0
   13.5628  -16.5658   25.3571 O   0  0  0  0  0  0  0  0  0  0  0  0
  1  5  1  0
  2  3  1  0
  2  1  1  0
  3  4  1  0
  4  5  1  0
  5  6  1  1
  6  7  2  0
  8  9  1  0
  8  6  1  0
  9 16  1  0
  9 10  1  1
 11 10  1  0
 11 15  1  0
 12 13  1  0
 12 11  2  0
 13 14  1  0
 14 15  2  0
 16 17  2  0
 18 16  1  0
 18 19  1  0
 19 20  1  0
 20 21  2  0
 20 22  1  0
M  END
$$$$
