PHG.pdb
     RDKit          3D

 22 23  0  0  1  0  0  0  0  0999 V2000
    7.5071  -15.1194   20.8764 N   0  0  0  0  0  0  0  0  0  0  0  0
    7.0443  -14.3759   19.7227 C   0  0  0  0  0  0  0  0  0  0  0  0
    7.4697  -12.9580   19.9080 C   0  0  0  0  0  0  0  0  0  0  0  0
    8.1022  -12.9336   21.2567 C   0  0  0  0  0  0  0  0  0  0  0  0
    8.5604  -14.3615   21.4766 C   0  0  1  0  0  0  0  0  0  0  0  0
    8.6244  -14.5729   22.9440 C   0  0  0  0  0  0  0  0  0  0  0  0
    9.5212  -14.0357   23.5975 O   0  0  0  0  0  0  0  0  0  0  0  0
    7.6869  -15.3806   23.6604 N   0  0  0  0  0  0  0  0  0  0  0  0
    7.6921  -15.5649   25.0610 C   0  0  1  0  0  0  0  0  0  0  0  0
    6.6499  -14.9599   25.8941 C   0  0  0  0  0  0  0  0  0  0  0  0
    6.6469  -13.4944   26.0286 C   0  0  0  0  0  0  0  0  0  0  0  0
    7.6306  -12.5509   26.1084 C   0  0  0  0  0  0  0  0  0  0  0  0
    7.0325  -11.3235   26.2079 N   0  0  0  0  0  0  0  0  0  0  0  0
    5.7070  -11.5003   26.1900 C   0  0  0  0  0  0  0  0  0  0  0  0
    5.4715  -12.7902   26.0834 N   0  0  0  0  0  0  0  0  0  0  0  0
    7.6835  -17.0545   25.3205 C   0  0  0  0  0  0  0  0  0  0  0  0
    6.6489  -17.7396   25.1391 O   0  0  0  0  0  0  0  0  0  0  0  0
    8.8461  -17.7368   25.7807 N   0  0  0  0  0  0  0  0  0  0  0  0
    8.8655  -19.1675   25.9966 C   0  0  0  0  0  0  0  0  0  0  0  0
   10.2071  -19.6015   26.4092 C   0  0  0  0  0  0  0  0  0  0  0  0
   11.1882  -18.8257   26.2623 O   0  0  0  0  0  0  0  0  0  0  0  0
   10.4613  -20.8472   26.9648 O   0  0  0  0  0  0  0  0  0  0  0  0
  1  5  1  0
  2  3  1  0
  2  1  1  0
  3  4  1  0
  4  5  1  0
  5  6  1  1
  6  7  2  0
  8  9  1  0
  8  6  1  0
  9 16  1  0
  9 10  1  1
 11 10  1  0
 11 15  1  0
 12 13  1  0
 12 11  2  0
 13 14  1  0
 14 15  2  0
 16 17  2  0
 18 16  1  0
 18 19  1  0
 19 20  1  0
 20 21  2  0
 20 22  1  0
M  END
$$$$
