PHG.pdb
     RDKit          3D

 22 23  0  0  1  0  0  0  0  0999 V2000
    7.7157  -12.8818   26.5915 N   0  0  0  0  0  0  0  0  0  0  0  0
    7.2219  -11.5843   27.0044 C   0  0  0  0  0  0  0  0  0  0  0  0
    6.0244  -11.2781   26.1688 C   0  0  0  0  0  0  0  0  0  0  0  0
    5.9371  -12.4182   25.2138 C   0  0  0  0  0  0  0  0  0  0  0  0
    6.6427  -13.5540   25.9275 C   0  0  1  0  0  0  0  0  0  0  0  0
    7.1375  -14.4809   24.8796 C   0  0  0  0  0  0  0  0  0  0  0  0
    6.3426  -15.2238   24.2998 O   0  0  0  0  0  0  0  0  0  0  0  0
    8.5118  -14.5651   24.4941 N   0  0  0  0  0  0  0  0  0  0  0  0
    9.0408  -15.5371   23.6161 C   0  0  1  0  0  0  0  0  0  0  0  0
    9.3594  -15.1907   22.2287 C   0  0  0  0  0  0  0  0  0  0  0  0
    8.3656  -14.4117   21.4729 C   0  0  0  0  0  0  0  0  0  0  0  0
    7.1271  -13.9190   21.7694 C   0  0  0  0  0  0  0  0  0  0  0  0
    6.6647  -13.2474   20.6698 N   0  0  0  0  0  0  0  0  0  0  0  0
    7.5949  -13.3207   19.7118 C   0  0  0  0  0  0  0  0  0  0  0  0
    8.6095  -14.0123   20.1839 N   0  0  0  0  0  0  0  0  0  0  0  0
   10.2965  -16.0866   24.2544 C   0  0  0  0  0  0  0  0  0  0  0  0
   11.3875  -15.4733   24.1753 O   0  0  0  0  0  0  0  0  0  0  0  0
   10.2908  -17.3193   24.9681 N   0  0  0  0  0  0  0  0  0  0  0  0
   11.4682  -17.8275   25.6385 C   0  0  0  0  0  0  0  0  0  0  0  0
   11.1740  -19.1190   26.2741 C   0  0  0  0  0  0  0  0  0  0  0  0
   10.0258  -19.6239   26.1624 O   0  0  0  0  0  0  0  0  0  0  0  0
   12.1114  -19.8314   27.0082 O   0  0  0  0  0  0  0  0  0  0  0  0
  1  5  1  0
  2  3  1  0
  2  1  1  0
  3  4  1  0
  4  5  1  0
  5  6  1  6
  6  7  2  0
  8  9  1  0
  8  6  1  0
  9 16  1  0
  9 10  1  6
 11 10  1  0
 11 15  1  0
 12 13  1  0
 12 11  2  0
 13 14  1  0
 14 15  2  0
 16 17  2  0
 18 16  1  0
 18 19  1  0
 19 20  1  0
 20 21  2  0
 20 22  1  0
M  END
$$$$
