PHG.pdb
     RDKit          3D

 22 23  0  0  1  0  0  0  0  0999 V2000
    9.6730  -15.0945   17.8092 N   0  0  0  0  0  0  0  0  0  0  0  0
    8.7521  -14.6330   16.7909 C   0  0  0  0  0  0  0  0  0  0  0  0
    8.5306  -13.1754   17.0197 C   0  0  0  0  0  0  0  0  0  0  0  0
    9.2931  -12.8752   18.2639 C   0  0  0  0  0  0  0  0  0  0  0  0
   10.3636  -13.9471   18.3100 C   0  0  1  0  0  0  0  0  0  0  0  0
   10.7472  -14.1128   19.7339 C   0  0  0  0  0  0  0  0  0  0  0  0
   11.3505  -13.2057   20.3110 O   0  0  0  0  0  0  0  0  0  0  0  0
   10.4520  -15.2882   20.4927 N   0  0  0  0  0  0  0  0  0  0  0  0
   10.7303  -15.4459   21.8687 C   0  0  1  0  0  0  0  0  0  0  0  0
    9.6719  -15.8442   22.8002 C   0  0  0  0  0  0  0  0  0  0  0  0
    8.3169  -15.3232   22.5588 C   0  0  0  0  0  0  0  0  0  0  0  0
    7.7848  -14.0673   22.4956 C   0  0  0  0  0  0  0  0  0  0  0  0
    6.4490  -14.1872   22.2211 N   0  0  0  0  0  0  0  0  0  0  0  0
    6.1576  -15.4882   22.1158 C   0  0  0  0  0  0  0  0  0  0  0  0
    7.2653  -16.1691   22.3157 N   0  0  0  0  0  0  0  0  0  0  0  0
   11.8538  -16.4504   21.9900 C   0  0  0  0  0  0  0  0  0  0  0  0
   11.6465  -17.6782   21.8411 O   0  0  0  0  0  0  0  0  0  0  0  0
   13.1882  -16.0439   22.2782 N   0  0  0  0  0  0  0  0  0  0  0  0
   14.1903  -16.9714   22.7574 C   0  0  0  0  0  0  0  0  0  0  0  0
   15.5009  -16.3115   22.8299 C   0  0  0  0  0  0  0  0  0  0  0  0
   15.6713  -15.3439   23.6177 O   0  0  0  0  0  0  0  0  0  0  0  0
   16.5880  -16.7027   22.0616 O   0  0  0  0  0  0  0  0  0  0  0  0
  1  5  1  0
  2  3  1  0
  2  1  1  0
  3  4  1  0
  4  5  1  0
  5  6  1  1
  6  7  2  0
  8  9  1  0
  8  6  1  0
  9 16  1  0
  9 10  1  1
 11 10  1  0
 11 15  1  0
 12 13  1  0
 12 11  2  0
 13 14  1  0
 14 15  2  0
 16 17  2  0
 18 16  1  0
 18 19  1  0
 19 20  1  0
 20 21  2  0
 20 22  1  0
M  END
$$$$
