PHG.pdb
     RDKit          3D

 22 23  0  0  1  0  0  0  0  0999 V2000
    7.7398  -15.7773   20.9111 N   0  0  0  0  0  0  0  0  0  0  0  0
    6.9493  -15.1766   19.8565 C   0  0  0  0  0  0  0  0  0  0  0  0
    7.2642  -13.7184   19.8408 C   0  0  0  0  0  0  0  0  0  0  0  0
    8.1887  -13.5260   20.9931 C   0  0  0  0  0  0  0  0  0  0  0  0
    8.8241  -14.8880   21.1894 C   0  0  1  0  0  0  0  0  0  0  0  0
    9.2496  -14.9649   22.6089 C   0  0  0  0  0  0  0  0  0  0  0  0
   10.1313  -14.2085   23.0217 O   0  0  0  0  0  0  0  0  0  0  0  0
    8.6850  -15.8848   23.5469 N   0  0  0  0  0  0  0  0  0  0  0  0
    8.9943  -15.9168   24.9249 C   0  0  1  0  0  0  0  0  0  0  0  0
    7.9884  -15.5405   25.9214 C   0  0  0  0  0  0  0  0  0  0  0  0
    7.4303  -14.1807   25.8498 C   0  0  0  0  0  0  0  0  0  0  0  0
    7.9381  -12.9694   25.4768 C   0  0  0  0  0  0  0  0  0  0  0  0
    6.9423  -12.0378   25.5982 N   0  0  0  0  0  0  0  0  0  0  0  0
    5.8406  -12.6563   26.0364 C   0  0  0  0  0  0  0  0  0  0  0  0
    6.1248  -13.9318   26.1879 N   0  0  0  0  0  0  0  0  0  0  0  0
    9.4645  -17.3167   25.2497 C   0  0  0  0  0  0  0  0  0  0  0  0
    8.7454  -18.3157   25.0098 O   0  0  0  0  0  0  0  0  0  0  0  0
   10.7385  -17.5560   25.8401 N   0  0  0  0  0  0  0  0  0  0  0  0
   11.2733  -18.8905   26.0052 C   0  0  0  0  0  0  0  0  0  0  0  0
   11.0337  -19.3687   27.3735 C   0  0  0  0  0  0  0  0  0  0  0  0
   10.3766  -18.6575   28.1786 O   0  0  0  0  0  0  0  0  0  0  0  0
   11.5012  -20.5886   27.8408 O   0  0  0  0  0  0  0  0  0  0  0  0
  1  5  1  0
  2  3  1  0
  2  1  1  0
  3  4  1  0
  4  5  1  0
  5  6  1  1
  6  7  2  0
  8  9  1  0
  8  6  1  0
  9 16  1  0
  9 10  1  1
 11 10  1  0
 11 15  1  0
 12 13  1  0
 12 11  2  0
 13 14  1  0
 14 15  2  0
 16 17  2  0
 18 16  1  0
 18 19  1  0
 19 20  1  0
 20 21  2  0
 20 22  1  0
M  END
$$$$
