PHG.pdb
     RDKit          3D

 22 23  0  0  1  0  0  0  0  0999 V2000
    8.9574  -18.8379   18.9954 N   0  0  0  0  0  0  0  0  0  0  0  0
    8.4075  -19.5098   17.8359 C   0  0  0  0  0  0  0  0  0  0  0  0
    8.8925  -18.7804   16.6282 C   0  0  0  0  0  0  0  0  0  0  0  0
    9.6539  -17.6224   17.1750 C   0  0  0  0  0  0  0  0  0  0  0  0
   10.0870  -18.0815   18.5530 C   0  0  1  0  0  0  0  0  0  0  0  0
   10.2871  -16.8600   19.3716 C   0  0  0  0  0  0  0  0  0  0  0  0
   11.2363  -16.1123   19.1268 O   0  0  0  0  0  0  0  0  0  0  0  0
    9.4252  -16.4910   20.4511 N   0  0  0  0  0  0  0  0  0  0  0  0
    9.5916  -15.3401   21.2534 C   0  0  1  0  0  0  0  0  0  0  0  0
    8.5877  -14.2733   21.2399 C   0  0  0  0  0  0  0  0  0  0  0  0
    8.1889  -13.7260   19.9334 C   0  0  0  0  0  0  0  0  0  0  0  0
    8.4057  -12.5349   19.3018 C   0  0  0  0  0  0  0  0  0  0  0  0
    7.8005  -12.5902   18.0752 N   0  0  0  0  0  0  0  0  0  0  0  0
    7.2209  -13.7886   17.9471 C   0  0  0  0  0  0  0  0  0  0  0  0
    7.4488  -14.4690   19.0498 N   0  0  0  0  0  0  0  0  0  0  0  0
    9.7513  -15.8056   22.6831 C   0  0  0  0  0  0  0  0  0  0  0  0
    8.7532  -16.0420   23.4047 O   0  0  0  0  0  0  0  0  0  0  0  0
   11.0374  -15.9927   23.2660 N   0  0  0  0  0  0  0  0  0  0  0  0
   11.2083  -16.5084   24.6072 C   0  0  0  0  0  0  0  0  0  0  0  0
   12.6292  -16.4940   24.9804 C   0  0  0  0  0  0  0  0  0  0  0  0
   13.4848  -16.0532   24.1683 O   0  0  0  0  0  0  0  0  0  0  0  0
   13.0937  -16.9491   26.2061 O   0  0  0  0  0  0  0  0  0  0  0  0
  1  5  1  0
  2  3  1  0
  2  1  1  0
  3  4  1  0
  4  5  1  0
  5  6  1  1
  6  7  2  0
  8  9  1  0
  8  6  1  0
  9 16  1  0
  9 10  1  1
 11 10  1  0
 11 15  1  0
 12 13  1  0
 12 11  2  0
 13 14  1  0
 14 15  2  0
 16 17  2  0
 18 16  1  0
 18 19  1  0
 19 20  1  0
 20 21  2  0
 20 22  1  0
M  END
$$$$
