MYY.pdb
     RDKit          3D

 33 34  0  0  1  0  0  0  0  0999 V2000
   29.3299  -23.7737  -21.3563 C   0  0  0  0  0  0  0  0  0  0  0  0
   29.9370  -22.0745  -21.5296 S   0  0  0  0  0  0  0  0  0  0  0  0
   30.1842  -21.3031  -19.8921 C   0  0  0  0  0  0  0  0  0  0  0  0
   29.2400  -21.9051  -18.8880 C   0  0  0  0  0  0  0  0  0  0  0  0
   28.2431  -20.9387  -18.3837 C   0  0  2  0  0  0  0  0  0  0  0  0
   28.9754  -19.6379  -18.3267 N   0  0  0  0  0  0  0  0  0  0  0  0
   27.6893  -21.1407  -17.0575 C   0  0  0  0  0  0  0  0  0  0  0  0
   26.9795  -22.1755  -16.8359 O   0  0  0  0  0  0  0  0  0  0  0  0
   24.9558  -20.5342   -8.6691 O   0  0  0  0  0  0  0  0  0  0  0  0
   25.6681  -20.3903   -9.8498 C   0  0  0  0  0  0  0  0  0  0  0  0
   26.5884  -21.3395  -10.2220 C   0  0  0  0  0  0  0  0  0  0  0  0
   27.3075  -21.2164  -11.3914 C   0  0  0  0  0  0  0  0  0  0  0  0
   27.1473  -20.1399  -12.2526 C   0  0  0  0  0  0  0  0  0  0  0  0
   27.8851  -19.9582  -13.5095 C   0  0  0  0  0  0  0  0  0  0  0  0
   27.1175  -20.5200  -14.6857 C   0  0  2  0  0  0  0  0  0  0  0  0
   27.8460  -20.3007  -15.9259 N   0  0  0  0  0  0  0  0  0  0  0  0
   25.7162  -20.0945  -14.7268 C   0  0  0  0  0  0  0  0  0  0  0  0
   25.4859  -18.8908  -15.0579 O   0  0  0  0  0  0  0  0  0  0  0  0
   26.2075  -19.1833  -11.8597 C   0  0  0  0  0  0  0  0  0  0  0  0
   25.4890  -19.3069  -10.6906 C   0  0  0  0  0  0  0  0  0  0  0  0
   17.6779  -17.7381  -16.4006 O   0  0  0  0  0  0  0  0  0  0  0  0
   18.9656  -18.2384  -16.2652 C   0  0  0  0  0  0  0  0  0  0  0  0
   20.0647  -17.4492  -16.0052 C   0  0  0  0  0  0  0  0  0  0  0  0
   21.3320  -17.9741  -15.8754 C   0  0  0  0  0  0  0  0  0  0  0  0
   21.5564  -19.3414  -16.0034 C   0  0  0  0  0  0  0  0  0  0  0  0
   22.9020  -19.9002  -15.8798 C   0  0  0  0  0  0  0  0  0  0  0  0
   23.2463  -20.3062  -14.4713 C   0  0  2  0  0  0  0  0  0  0  0  0
   24.5910  -20.8793  -14.4383 N   0  0  0  0  0  0  0  0  0  0  0  0
   22.2732  -21.2628  -13.9454 C   0  0  0  0  0  0  0  0  0  0  0  0
   21.2662  -20.8189  -13.2942 O   0  0  0  0  0  0  0  0  0  0  0  0
   20.4510  -20.1381  -16.2655 C   0  0  0  0  0  0  0  0  0  0  0  0
   19.2009  -19.6022  -16.3913 C   0  0  0  0  0  0  0  0  0  0  0  0
   22.3566  -22.6367  -14.1015 O   0  0  0  0  0  0  0  0  0  0  0  0
  2  1  1  0
  3  2  1  0
  4  3  1  0
  5  4  1  0
  5  6  1  1
  7  8  2  0
  7  5  1  0
  9 10  1  0
 10 20  2  0
 11 12  2  0
 11 10  1  0
 12 13  1  0
 13 14  1  0
 13 19  2  0
 15 14  1  1
 15 16  1  0
 16  7  1  0
 17 15  1  0
 18 17  2  0
 20 19  1  0
 22 21  1  0
 22 23  2  0
 24 23  1  0
 25 24  2  0
 27 26  1  6
 26 25  1  0
 27 28  1  0
 28 17  1  0
 29 33  1  0
 29 27  1  0
 30 29  2  0
 31 32  2  0
 31 25  1  0
 32 22  1  0
M  END
$$$$
