MYY.pdb
     RDKit          3D

 33 34  0  0  1  0  0  0  0  0999 V2000
   30.9161  -17.3076  -17.6835 C   0  0  0  0  0  0  0  0  0  0  0  0
   29.1174  -17.0872  -17.7281 S   0  0  0  0  0  0  0  0  0  0  0  0
   28.6767  -15.3185  -17.6053 C   0  0  0  0  0  0  0  0  0  0  0  0
   27.1845  -15.1627  -17.4998 C   0  0  0  0  0  0  0  0  0  0  0  0
   26.4522  -15.9135  -18.5400 C   0  0  2  0  0  0  0  0  0  0  0  0
   26.6349  -15.1078  -19.7845 N   0  0  0  0  0  0  0  0  0  0  0  0
   25.0198  -16.0916  -18.3892 C   0  0  0  0  0  0  0  0  0  0  0  0
   24.2672  -15.0633  -18.3816 O   0  0  0  0  0  0  0  0  0  0  0  0
   16.6075  -18.5918  -18.2909 O   0  0  0  0  0  0  0  0  0  0  0  0
   17.9631  -18.4199  -18.5252 C   0  0  0  0  0  0  0  0  0  0  0  0
   18.4521  -17.1868  -18.8815 C   0  0  0  0  0  0  0  0  0  0  0  0
   19.7960  -16.9935  -19.1191 C   0  0  0  0  0  0  0  0  0  0  0  0
   20.7245  -18.0197  -19.0140 C   0  0  0  0  0  0  0  0  0  0  0  0
   22.1656  -17.8706  -19.2549 C   0  0  0  0  0  0  0  0  0  0  0  0
   22.8820  -17.3690  -18.0206 C   0  0  2  0  0  0  0  0  0  0  0  0
   24.3183  -17.3156  -18.2470 N   0  0  0  0  0  0  0  0  0  0  0  0
   22.4911  -18.0668  -16.7931 C   0  0  0  0  0  0  0  0  0  0  0  0
   23.0230  -19.1988  -16.5760 O   0  0  0  0  0  0  0  0  0  0  0  0
   20.2111  -19.2675  -18.6508 C   0  0  0  0  0  0  0  0  0  0  0  0
   18.8676  -19.4601  -18.4134 C   0  0  0  0  0  0  0  0  0  0  0  0
   19.3522  -20.5149   -8.9006 O   0  0  0  0  0  0  0  0  0  0  0  0
   19.6686  -19.7922  -10.0427 C   0  0  0  0  0  0  0  0  0  0  0  0
   18.7521  -19.4789  -11.0226 C   0  0  0  0  0  0  0  0  0  0  0  0
   19.0950  -18.7592  -12.1463 C   0  0  0  0  0  0  0  0  0  0  0  0
   20.3989  -18.3133  -12.3399 C   0  0  0  0  0  0  0  0  0  0  0  0
   20.7693  -17.5611  -13.5377 C   0  0  0  0  0  0  0  0  0  0  0  0
   21.2603  -18.4388  -14.6584 C   0  0  2  0  0  0  0  0  0  0  0  0
   21.5854  -17.6162  -15.8226 N   0  0  0  0  0  0  0  0  0  0  0  0
   20.2638  -19.4490  -15.0124 C   0  0  0  0  0  0  0  0  0  0  0  0
   19.2181  -19.0824  -15.6506 O   0  0  0  0  0  0  0  0  0  0  0  0
   21.3236  -18.6280  -11.3543 C   0  0  0  0  0  0  0  0  0  0  0  0
   20.9677  -19.3424  -10.2459 C   0  0  0  0  0  0  0  0  0  0  0  0
   20.3659  -20.7963  -14.7070 O   0  0  0  0  0  0  0  0  0  0  0  0
  2  1  1  0
  3  2  1  0
  4  3  1  0
  5  4  1  0
  5  6  1  6
  7  8  2  0
  7  5  1  0
  9 10  1  0
 10 20  2  0
 11 12  2  0
 11 10  1  0
 12 13  1  0
 13 14  1  0
 13 19  2  0
 15 14  1  6
 15 16  1  0
 16  7  1  0
 17 15  1  0
 18 17  2  0
 20 19  1  0
 22 21  1  0
 22 23  2  0
 24 23  1  0
 25 24  2  0
 27 26  1  1
 26 25  1  0
 27 28  1  0
 28 17  1  0
 29 33  1  0
 29 27  1  0
 30 29  2  0
 31 32  2  0
 31 25  1  0
 32 22  1  0
M  END
$$$$
