MYY.pdb
     RDKit          3D

 33 34  0  0  1  0  0  0  0  0999 V2000
   28.6059  -18.3662   -4.4797 C   0  0  0  0  0  0  0  0  0  0  0  0
   28.3623  -20.1606   -4.5607 S   0  0  0  0  0  0  0  0  0  0  0  0
   28.5109  -20.7591   -6.2804 C   0  0  0  0  0  0  0  0  0  0  0  0
   27.6173  -19.9578   -7.1868 C   0  0  0  0  0  0  0  0  0  0  0  0
   26.6540  -20.7940   -7.9317 C   0  0  2  0  0  0  0  0  0  0  0  0
   27.4970  -21.5922   -8.8718 N   0  0  0  0  0  0  0  0  0  0  0  0
   25.6552  -20.1371   -8.7546 C   0  0  0  0  0  0  0  0  0  0  0  0
   25.5395  -18.8696   -8.6912 O   0  0  0  0  0  0  0  0  0  0  0  0
   26.8008  -19.5180  -17.1019 O   0  0  0  0  0  0  0  0  0  0  0  0
   26.6758  -19.8017  -15.7506 C   0  0  0  0  0  0  0  0  0  0  0  0
   26.4850  -21.0954  -15.3307 C   0  0  0  0  0  0  0  0  0  0  0  0
   26.3582  -21.4000  -13.9924 C   0  0  0  0  0  0  0  0  0  0  0  0
   26.4149  -20.4305  -13.0009 C   0  0  0  0  0  0  0  0  0  0  0  0
   26.2865  -20.6979  -11.5625 C   0  0  0  0  0  0  0  0  0  0  0  0
   24.8519  -20.5621  -11.1023 C   0  0  2  0  0  0  0  0  0  0  0  0
   24.7548  -20.7496   -9.6627 N   0  0  0  0  0  0  0  0  0  0  0  0
   23.9091  -21.3700  -11.8800 C   0  0  0  0  0  0  0  0  0  0  0  0
   24.3848  -22.3545  -12.5251 O   0  0  0  0  0  0  0  0  0  0  0  0
   26.6094  -19.1198  -13.4445 C   0  0  0  0  0  0  0  0  0  0  0  0
   26.7361  -18.8160  -14.7824 C   0  0  0  0  0  0  0  0  0  0  0  0
   20.7810  -16.5994  -18.1173 O   0  0  0  0  0  0  0  0  0  0  0  0
   21.2233  -17.2629  -16.9811 C   0  0  0  0  0  0  0  0  0  0  0  0
   20.3766  -17.8006  -16.0364 C   0  0  0  0  0  0  0  0  0  0  0  0
   20.8445  -18.4546  -14.9177 C   0  0  0  0  0  0  0  0  0  0  0  0
   22.2100  -18.6008  -14.6933 C   0  0  0  0  0  0  0  0  0  0  0  0
   22.7102  -19.2823  -13.5003 C   0  0  0  0  0  0  0  0  0  0  0  0
   21.9484  -20.5396  -13.1749 C   0  0  2  0  0  0  0  0  0  0  0  0
   22.5255  -21.1730  -11.9902 N   0  0  0  0  0  0  0  0  0  0  0  0
   21.9581  -21.4693  -14.3037 C   0  0  0  0  0  0  0  0  0  0  0  0
   20.8646  -21.6857  -14.9302 O   0  0  0  0  0  0  0  0  0  0  0  0
   23.0646  -18.0597  -15.6433 C   0  0  0  0  0  0  0  0  0  0  0  0
   22.5848  -17.4142  -16.7473 C   0  0  0  0  0  0  0  0  0  0  0  0
   23.0792  -22.1449  -14.7573 O   0  0  0  0  0  0  0  0  0  0  0  0
  2  1  1  0
  3  2  1  0
  4  3  1  0
  5  4  1  0
  5  6  1  6
  7  8  2  0
  7  5  1  0
  9 10  1  0
 10 20  2  0
 11 12  2  0
 11 10  1  0
 12 13  1  0
 13 14  1  0
 13 19  2  0
 15 14  1  6
 15 16  1  0
 16  7  1  0
 17 15  1  0
 18 17  2  0
 20 19  1  0
 22 21  1  0
 22 23  2  0
 24 23  1  0
 25 24  2  0
 27 26  1  6
 26 25  1  0
 27 28  1  0
 28 17  1  0
 29 33  1  0
 29 27  1  0
 30 29  2  0
 31 32  2  0
 31 25  1  0
 32 22  1  0
M  END
$$$$
