MYY.pdb
     RDKit          3D

 33 34  0  0  1  0  0  0  0  0999 V2000
   20.6385  -16.1766  -15.7103 C   0  0  0  0  0  0  0  0  0  0  0  0
   21.8899  -16.9376  -16.7783 S   0  0  0  0  0  0  0  0  0  0  0  0
   22.2515  -15.8711  -18.2168 C   0  0  0  0  0  0  0  0  0  0  0  0
   22.3484  -14.4337  -17.7846 C   0  0  0  0  0  0  0  0  0  0  0  0
   22.5795  -13.5078  -18.9121 C   0  0  2  0  0  0  0  0  0  0  0  0
   23.9876  -13.7732  -19.3343 N   0  0  0  0  0  0  0  0  0  0  0  0
   22.5017  -12.0798  -18.6651 C   0  0  0  0  0  0  0  0  0  0  0  0
   23.5771  -11.3963  -18.6506 O   0  0  0  0  0  0  0  0  0  0  0  0
   23.1187   -9.1983  -24.3738 O   0  0  0  0  0  0  0  0  0  0  0  0
   22.4883   -9.1913  -23.1390 C   0  0  0  0  0  0  0  0  0  0  0  0
   21.6347  -10.2102  -22.7929 C   0  0  0  0  0  0  0  0  0  0  0  0
   20.9975  -10.2233  -21.5708 C   0  0  0  0  0  0  0  0  0  0  0  0
   21.1774   -9.2207  -20.6281 C   0  0  0  0  0  0  0  0  0  0  0  0
   20.5254   -9.1841  -19.3125 C   0  0  0  0  0  0  0  0  0  0  0  0
   21.3692   -9.8683  -18.2598 C   0  0  2  0  0  0  0  0  0  0  0  0
   21.3323  -11.3126  -18.4315 N   0  0  0  0  0  0  0  0  0  0  0  0
   21.0830   -9.4162  -16.8959 C   0  0  0  0  0  0  0  0  0  0  0  0
   20.1724  -10.0320  -16.2608 O   0  0  0  0  0  0  0  0  0  0  0  0
   22.0485   -8.1918  -20.9955 C   0  0  0  0  0  0  0  0  0  0  0  0
   22.6852   -8.1793  -22.2173 C   0  0  0  0  0  0  0  0  0  0  0  0
   25.5259   -3.3926  -16.2044 O   0  0  0  0  0  0  0  0  0  0  0  0
   24.8502   -4.4933  -15.6959 C   0  0  0  0  0  0  0  0  0  0  0  0
   25.0809   -5.7863  -16.1122 C   0  0  0  0  0  0  0  0  0  0  0  0
   24.3947   -6.8603  -15.5887 C   0  0  0  0  0  0  0  0  0  0  0  0
   23.4275   -6.6802  -14.6046 C   0  0  0  0  0  0  0  0  0  0  0  0
   22.6876   -7.8162  -14.0567 C   0  0  0  0  0  0  0  0  0  0  0  0
   21.4117   -8.1054  -14.8021 C   0  0  2  0  0  0  0  0  0  0  0  0
   21.7114   -8.3683  -16.2088 N   0  0  0  0  0  0  0  0  0  0  0  0
   20.4678   -6.9948  -14.6826 C   0  0  0  0  0  0  0  0  0  0  0  0
   20.1432   -6.3489  -15.7374 O   0  0  0  0  0  0  0  0  0  0  0  0
   23.1933   -5.3788  -14.1841 C   0  0  0  0  0  0  0  0  0  0  0  0
   23.8823   -4.3247  -14.7130 C   0  0  0  0  0  0  0  0  0  0  0  0
   19.8856   -6.5808  -13.4957 O   0  0  0  0  0  0  0  0  0  0  0  0
  2  1  1  0
  3  2  1  0
  4  3  1  0
  5  4  1  0
  5  6  1  1
  7  8  2  0
  7  5  1  0
  9 10  1  0
 10 20  2  0
 11 12  2  0
 11 10  1  0
 12 13  1  0
 13 14  1  0
 13 19  2  0
 15 14  1  6
 15 16  1  0
 16  7  1  0
 17 15  1  0
 18 17  2  0
 20 19  1  0
 22 21  1  0
 22 23  2  0
 24 23  1  0
 25 24  2  0
 27 26  1  1
 26 25  1  0
 27 28  1  0
 28 17  1  0
 29 33  1  0
 29 27  1  0
 30 29  2  0
 31 32  2  0
 31 25  1  0
 32 22  1  0
M  END
$$$$
