MYY.pdb
     RDKit          3D

 33 34  0  0  1  0  0  0  0  0999 V2000
   24.0618  -17.5217  -21.7325 C   0  0  0  0  0  0  0  0  0  0  0  0
   25.5311  -16.7657  -20.9872 S   0  0  0  0  0  0  0  0  0  0  0  0
   26.8631  -17.9992  -20.7826 C   0  0  0  0  0  0  0  0  0  0  0  0
   26.3721  -19.1607  -19.9629 C   0  0  0  0  0  0  0  0  0  0  0  0
   25.9917  -18.7755  -18.5885 C   0  0  2  0  0  0  0  0  0  0  0  0
   27.2502  -18.2433  -17.9850 N   0  0  0  0  0  0  0  0  0  0  0  0
   25.5227  -19.8078  -17.6826 C   0  0  0  0  0  0  0  0  0  0  0  0
   24.8356  -20.7738  -18.1500 O   0  0  0  0  0  0  0  0  0  0  0  0
   30.1586  -24.1257  -17.9848 O   0  0  0  0  0  0  0  0  0  0  0  0
   29.2190  -23.5098  -17.1724 C   0  0  0  0  0  0  0  0  0  0  0  0
   28.1366  -24.2169  -16.7086 C   0  0  0  0  0  0  0  0  0  0  0  0
   27.1906  -23.6246  -15.8999 C   0  0  0  0  0  0  0  0  0  0  0  0
   27.2733  -22.2952  -15.5101 C   0  0  0  0  0  0  0  0  0  0  0  0
   26.2961  -21.6139  -14.6511 C   0  0  0  0  0  0  0  0  0  0  0  0
   25.2025  -20.9629  -15.4688 C   0  0  2  0  0  0  0  0  0  0  0  0
   25.7433  -19.8859  -16.2840 N   0  0  0  0  0  0  0  0  0  0  0  0
   24.0260  -20.5889  -14.6799 C   0  0  0  0  0  0  0  0  0  0  0  0
   24.1222  -19.5534  -13.9518 O   0  0  0  0  0  0  0  0  0  0  0  0
   28.3801  -21.5899  -15.9902 C   0  0  0  0  0  0  0  0  0  0  0  0
   29.3253  -22.1826  -16.7986 C   0  0  0  0  0  0  0  0  0  0  0  0
   16.6856  -17.0709  -12.1147 O   0  0  0  0  0  0  0  0  0  0  0  0
   17.8250  -17.6160  -12.6903 C   0  0  0  0  0  0  0  0  0  0  0  0
   17.8490  -18.1705  -13.9514 C   0  0  0  0  0  0  0  0  0  0  0  0
   18.9958  -18.7044  -14.4975 C   0  0  0  0  0  0  0  0  0  0  0  0
   20.1928  -18.7051  -13.7880 C   0  0  0  0  0  0  0  0  0  0  0  0
   21.4084  -19.2831  -14.3591 C   0  0  0  0  0  0  0  0  0  0  0  0
   21.6593  -20.6972  -13.9069 C   0  0  2  0  0  0  0  0  0  0  0  0
   22.7935  -21.2557  -14.6414 N   0  0  0  0  0  0  0  0  0  0  0  0
   20.4719  -21.5298  -14.0960 C   0  0  0  0  0  0  0  0  0  0  0  0
   20.3111  -22.1242  -15.2166 O   0  0  0  0  0  0  0  0  0  0  0  0
   20.1708  -18.1474  -12.5176 C   0  0  0  0  0  0  0  0  0  0  0  0
   19.0255  -17.6221  -11.9903 C   0  0  0  0  0  0  0  0  0  0  0  0
   19.4908  -21.7305  -13.1388 O   0  0  0  0  0  0  0  0  0  0  0  0
  2  1  1  0
  3  2  1  0
  4  3  1  0
  5  4  1  0
  5  6  1  1
  7  8  2  0
  7  5  1  0
  9 10  1  0
 10 20  2  0
 11 12  2  0
 11 10  1  0
 12 13  1  0
 13 14  1  0
 13 19  2  0
 15 14  1  1
 15 16  1  0
 16  7  1  0
 17 15  1  0
 18 17  2  0
 20 19  1  0
 22 21  1  0
 22 23  2  0
 24 23  1  0
 25 24  2  0
 27 26  1  6
 26 25  1  0
 27 28  1  0
 28 17  1  0
 29 33  1  0
 29 27  1  0
 30 29  2  0
 31 32  2  0
 31 25  1  0
 32 22  1  0
M  END
$$$$
