MYY.pdb
     RDKit          3D

 33 34  0  0  1  0  0  0  0  0999 V2000
   28.3331  -16.7547  -19.5209 C   0  0  0  0  0  0  0  0  0  0  0  0
   26.6999  -17.3917  -19.0595 S   0  0  0  0  0  0  0  0  0  0  0  0
   25.9648  -18.3484  -20.4313 C   0  0  0  0  0  0  0  0  0  0  0  0
   24.5675  -18.7755  -20.0745 C   0  0  0  0  0  0  0  0  0  0  0  0
   24.4924  -19.4697  -18.7728 C   0  0  2  0  0  0  0  0  0  0  0  0
   25.3007  -20.7117  -18.9616 N   0  0  0  0  0  0  0  0  0  0  0  0
   23.1948  -19.9097  -18.2943 C   0  0  0  0  0  0  0  0  0  0  0  0
   22.2596  -19.0531  -18.1702 O   0  0  0  0  0  0  0  0  0  0  0  0
   19.5114  -21.9463  -23.4594 O   0  0  0  0  0  0  0  0  0  0  0  0
   19.8656  -22.1555  -22.1355 C   0  0  0  0  0  0  0  0  0  0  0  0
   18.9773  -21.8669  -21.1284 C   0  0  0  0  0  0  0  0  0  0  0  0
   19.3086  -22.0671  -19.8055 C   0  0  0  0  0  0  0  0  0  0  0  0
   20.5438  -22.5659  -19.4159 C   0  0  0  0  0  0  0  0  0  0  0  0
   20.9494  -22.7990  -18.0238 C   0  0  0  0  0  0  0  0  0  0  0  0
   21.5020  -21.5403  -17.3924 C   0  0  2  0  0  0  0  0  0  0  0  0
   22.8154  -21.2279  -17.9350 N   0  0  0  0  0  0  0  0  0  0  0  0
   21.4404  -21.5444  -15.9286 C   0  0  0  0  0  0  0  0  0  0  0  0
   22.1062  -22.4400  -15.3234 O   0  0  0  0  0  0  0  0  0  0  0  0
   21.4358  -22.8543  -20.4522 C   0  0  0  0  0  0  0  0  0  0  0  0
   21.1040  -22.6540  -21.7743 C   0  0  0  0  0  0  0  0  0  0  0  0
   18.3413  -14.8120  -14.0831 O   0  0  0  0  0  0  0  0  0  0  0  0
   19.1256  -15.9411  -13.8914 C   0  0  0  0  0  0  0  0  0  0  0  0
   19.7854  -16.5909  -14.9116 C   0  0  0  0  0  0  0  0  0  0  0  0
   20.5579  -17.7103  -14.6913 C   0  0  0  0  0  0  0  0  0  0  0  0
   20.7051  -18.2374  -13.4118 C   0  0  0  0  0  0  0  0  0  0  0  0
   21.5129  -19.4332  -13.1765 C   0  0  0  0  0  0  0  0  0  0  0  0
   20.8525  -20.6971  -13.6599 C   0  0  2  0  0  0  0  0  0  0  0  0
   20.7200  -20.6583  -15.1155 N   0  0  0  0  0  0  0  0  0  0  0  0
   19.5430  -20.8801  -13.0352 C   0  0  0  0  0  0  0  0  0  0  0  0
   18.4947  -20.7312  -13.7521 O   0  0  0  0  0  0  0  0  0  0  0  0
   20.0411  -17.5847  -12.3829 C   0  0  0  0  0  0  0  0  0  0  0  0
   19.2791  -16.4758  -12.6179 C   0  0  0  0  0  0  0  0  0  0  0  0
   19.3450  -21.2098  -11.7044 O   0  0  0  0  0  0  0  0  0  0  0  0
  2  1  1  0
  3  2  1  0
  4  3  1  0
  5  4  1  0
  5  6  1  6
  7  8  2  0
  7  5  1  0
  9 10  1  0
 10 20  2  0
 11 12  2  0
 11 10  1  0
 12 13  1  0
 13 14  1  0
 13 19  2  0
 15 14  1  1
 15 16  1  0
 16  7  1  0
 17 15  1  0
 18 17  2  0
 20 19  1  0
 22 21  1  0
 22 23  2  0
 24 23  1  0
 25 24  2  0
 27 26  1  1
 26 25  1  0
 27 28  1  0
 28 17  1  0
 29 33  1  0
 29 27  1  0
 30 29  2  0
 31 32  2  0
 31 25  1  0
 32 22  1  0
M  END
$$$$
