MYY.pdb
     RDKit          3D

 33 34  0  0  1  0  0  0  0  0999 V2000
   23.8311  -16.0797  -23.4484 C   0  0  0  0  0  0  0  0  0  0  0  0
   22.9455  -16.6887  -21.9888 S   0  0  0  0  0  0  0  0  0  0  0  0
   21.6706  -17.9078  -22.4645 C   0  0  0  0  0  0  0  0  0  0  0  0
   20.8802  -18.3290  -21.2562 C   0  0  0  0  0  0  0  0  0  0  0  0
   21.7322  -18.8126  -20.1507 C   0  0  2  0  0  0  0  0  0  0  0  0
   22.2141  -20.1515  -20.6052 N   0  0  0  0  0  0  0  0  0  0  0  0
   21.1257  -19.0295  -18.8503 C   0  0  0  0  0  0  0  0  0  0  0  0
   20.2977  -19.9876  -18.7073 O   0  0  0  0  0  0  0  0  0  0  0  0
   18.4033  -18.9388  -10.4611 O   0  0  0  0  0  0  0  0  0  0  0  0
   19.1033  -18.6856  -11.6307 C   0  0  0  0  0  0  0  0  0  0  0  0
   19.0492  -17.4429  -12.2133 C   0  0  0  0  0  0  0  0  0  0  0  0
   19.7371  -17.1693  -13.3759 C   0  0  0  0  0  0  0  0  0  0  0  0
   20.5161  -18.1204  -14.0200 C   0  0  0  0  0  0  0  0  0  0  0  0
   21.2693  -17.8842  -15.2585 C   0  0  0  0  0  0  0  0  0  0  0  0
   20.5712  -18.4953  -16.4534 C   0  0  2  0  0  0  0  0  0  0  0  0
   21.3479  -18.2831  -17.6653 N   0  0  0  0  0  0  0  0  0  0  0  0
   19.1616  -18.1124  -16.5665 C   0  0  0  0  0  0  0  0  0  0  0  0
   18.9121  -16.9285  -16.9511 O   0  0  0  0  0  0  0  0  0  0  0  0
   20.5606  -19.3791  -13.4147 C   0  0  0  0  0  0  0  0  0  0  0  0
   19.8727  -19.6520  -12.2525 C   0  0  0  0  0  0  0  0  0  0  0  0
   14.1312  -23.6942  -13.8823 O   0  0  0  0  0  0  0  0  0  0  0  0
   14.5447  -22.6537  -14.7027 C   0  0  0  0  0  0  0  0  0  0  0  0
   13.8780  -21.4519  -14.8012 C   0  0  0  0  0  0  0  0  0  0  0  0
   14.3123  -20.4361  -15.6244 C   0  0  0  0  0  0  0  0  0  0  0  0
   15.4577  -20.5846  -16.4005 C   0  0  0  0  0  0  0  0  0  0  0  0
   15.9138  -19.5137  -17.2855 C   0  0  0  0  0  0  0  0  0  0  0  0
   16.6917  -18.4437  -16.5663 C   0  0  2  0  0  0  0  0  0  0  0  0
   18.0475  -18.9186  -16.2943 N   0  0  0  0  0  0  0  0  0  0  0  0
   16.0294  -18.0571  -15.3211 C   0  0  0  0  0  0  0  0  0  0  0  0
   16.5645  -18.3961  -14.2103 O   0  0  0  0  0  0  0  0  0  0  0  0
   16.1305  -21.7942  -16.3031 C   0  0  0  0  0  0  0  0  0  0  0  0
   15.6870  -22.7916  -15.4820 C   0  0  0  0  0  0  0  0  0  0  0  0
   14.8476  -17.3380  -15.2485 O   0  0  0  0  0  0  0  0  0  0  0  0
  2  1  1  0
  3  2  1  0
  4  3  1  0
  5  4  1  0
  5  6  1  6
  7  8  2  0
  7  5  1  0
  9 10  1  0
 10 20  2  0
 11 12  2  0
 11 10  1  0
 12 13  1  0
 13 14  1  0
 13 19  2  0
 15 14  1  1
 15 16  1  0
 16  7  1  0
 17 15  1  0
 18 17  2  0
 20 19  1  0
 22 21  1  0
 22 23  2  0
 24 23  1  0
 25 24  2  0
 27 26  1  1
 26 25  1  0
 27 28  1  0
 28 17  1  0
 29 33  1  0
 29 27  1  0
 30 29  2  0
 31 32  2  0
 31 25  1  0
 32 22  1  0
M  END
$$$$
