MYY.pdb
     RDKit          3D

 33 34  0  0  1  0  0  0  0  0999 V2000
   30.0019  -17.0903  -21.1959 C   0  0  0  0  0  0  0  0  0  0  0  0
   29.3220  -18.1912  -19.9265 S   0  0  0  0  0  0  0  0  0  0  0  0
   27.9443  -19.1849  -20.5990 C   0  0  0  0  0  0  0  0  0  0  0  0
   27.3733  -20.0714  -19.5264 C   0  0  0  0  0  0  0  0  0  0  0  0
   28.2451  -20.1721  -18.3382 C   0  0  2  0  0  0  0  0  0  0  0  0
   29.2344  -21.2357  -18.6865 N   0  0  0  0  0  0  0  0  0  0  0  0
   27.6545  -20.5775  -17.0760 C   0  0  0  0  0  0  0  0  0  0  0  0
   27.3415  -21.8009  -16.9055 O   0  0  0  0  0  0  0  0  0  0  0  0
   23.8519  -21.0232   -9.0896 O   0  0  0  0  0  0  0  0  0  0  0  0
   24.6134  -20.6357  -10.1814 C   0  0  0  0  0  0  0  0  0  0  0  0
   24.0802  -19.8043  -11.1360 C   0  0  0  0  0  0  0  0  0  0  0  0
   24.8193  -19.4066  -12.2293 C   0  0  0  0  0  0  0  0  0  0  0  0
   26.1300  -19.8167  -12.4294 C   0  0  0  0  0  0  0  0  0  0  0  0
   26.9629  -19.4245  -13.5737 C   0  0  0  0  0  0  0  0  0  0  0  0
   26.6204  -20.2308  -14.8070 C   0  0  2  0  0  0  0  0  0  0  0  0
   27.3720  -19.7529  -15.9576 N   0  0  0  0  0  0  0  0  0  0  0  0
   25.1798  -20.3602  -15.0400 C   0  0  0  0  0  0  0  0  0  0  0  0
   24.5855  -19.3660  -15.5595 O   0  0  0  0  0  0  0  0  0  0  0  0
   26.6575  -20.6620  -11.4496 C   0  0  0  0  0  0  0  0  0  0  0  0
   25.9181  -21.0592  -10.3570 C   0  0  0  0  0  0  0  0  0  0  0  0
   18.7575  -16.6204  -14.9165 O   0  0  0  0  0  0  0  0  0  0  0  0
   19.7132  -17.5667  -15.2597 C   0  0  0  0  0  0  0  0  0  0  0  0
   20.0410  -17.8791  -16.5610 C   0  0  0  0  0  0  0  0  0  0  0  0
   20.9949  -18.8234  -16.8720 C   0  0  0  0  0  0  0  0  0  0  0  0
   21.6754  -19.5094  -15.8706 C   0  0  0  0  0  0  0  0  0  0  0  0
   22.6784  -20.5220  -16.1970 C   0  0  0  0  0  0  0  0  0  0  0  0
   22.9499  -21.4726  -15.0613 C   0  0  2  0  0  0  0  0  0  0  0  0
   24.3784  -21.4732  -14.7497 N   0  0  0  0  0  0  0  0  0  0  0  0
   22.5004  -22.8255  -15.3871 C   0  0  0  0  0  0  0  0  0  0  0  0
   21.2746  -23.0056  -15.7035 O   0  0  0  0  0  0  0  0  0  0  0  0
   21.3465  -19.1966  -14.5593 C   0  0  0  0  0  0  0  0  0  0  0  0
   20.3984  -18.2576  -14.2676 C   0  0  0  0  0  0  0  0  0  0  0  0
   23.3128  -23.9476  -15.3816 O   0  0  0  0  0  0  0  0  0  0  0  0
  2  1  1  0
  3  2  1  0
  4  3  1  0
  5  4  1  0
  5  6  1  6
  7  8  2  0
  7  5  1  0
  9 10  1  0
 10 20  2  0
 11 12  2  0
 11 10  1  0
 12 13  1  0
 13 14  1  0
 13 19  2  0
 15 14  1  1
 15 16  1  0
 16  7  1  0
 17 15  1  0
 18 17  2  0
 20 19  1  0
 22 21  1  0
 22 23  2  0
 24 23  1  0
 25 24  2  0
 27 26  1  6
 26 25  1  0
 27 28  1  0
 28 17  1  0
 29 33  1  0
 29 27  1  0
 30 29  2  0
 31 32  2  0
 31 25  1  0
 32 22  1  0
M  END
$$$$
