MYY.pdb
     RDKit          3D

 33 34  0  0  1  0  0  0  0  0999 V2000
   22.2987  -12.7437  -21.7082 C   0  0  0  0  0  0  0  0  0  0  0  0
   21.3248  -11.5463  -20.7575 S   0  0  0  0  0  0  0  0  0  0  0  0
   21.2634  -12.0146  -18.9926 C   0  0  0  0  0  0  0  0  0  0  0  0
   20.3974  -11.0495  -18.2305 C   0  0  0  0  0  0  0  0  0  0  0  0
   20.3440  -11.3427  -16.7838 C   0  0  2  0  0  0  0  0  0  0  0  0
   19.4769  -12.5544  -16.6773 N   0  0  0  0  0  0  0  0  0  0  0  0
   19.7571  -10.3556  -15.8964 C   0  0  0  0  0  0  0  0  0  0  0  0
   18.6035  -10.5774  -15.4028 O   0  0  0  0  0  0  0  0  0  0  0  0
   16.8280   -5.0839   -9.7809 O   0  0  0  0  0  0  0  0  0  0  0  0
   17.3840   -6.0000  -10.6605 C   0  0  0  0  0  0  0  0  0  0  0  0
   16.7142   -6.3519  -11.8069 C   0  0  0  0  0  0  0  0  0  0  0  0
   17.2484   -7.2605  -12.6951 C   0  0  0  0  0  0  0  0  0  0  0  0
   18.4794   -7.8670  -12.4877 C   0  0  0  0  0  0  0  0  0  0  0  0
   19.0956   -8.8400  -13.3990 C   0  0  0  0  0  0  0  0  0  0  0  0
   19.6101   -8.1708  -14.6543 C   0  0  2  0  0  0  0  0  0  0  0  0
   20.3281   -9.1240  -15.4866 N   0  0  0  0  0  0  0  0  0  0  0  0
   20.3395   -6.9265  -14.3969 C   0  0  0  0  0  0  0  0  0  0  0  0
   21.5208   -7.0307  -13.9436 O   0  0  0  0  0  0  0  0  0  0  0  0
   19.1478   -7.4984  -11.3172 C   0  0  0  0  0  0  0  0  0  0  0  0
   18.6133   -6.5901  -10.4297 C   0  0  0  0  0  0  0  0  0  0  0  0
   18.9910   -3.3131  -20.4368 O   0  0  0  0  0  0  0  0  0  0  0  0
   19.6589   -3.5858  -19.2509 C   0  0  0  0  0  0  0  0  0  0  0  0
   20.2492   -4.7992  -18.9723 C   0  0  0  0  0  0  0  0  0  0  0  0
   20.9064   -5.0414  -17.7858 C   0  0  0  0  0  0  0  0  0  0  0  0
   21.0019   -4.0568  -16.8072 C   0  0  0  0  0  0  0  0  0  0  0  0
   21.6867   -4.3148  -15.5413 C   0  0  0  0  0  0  0  0  0  0  0  0
   20.7420   -4.4672  -14.3787 C   0  0  2  0  0  0  0  0  0  0  0  0
   19.8711   -5.6208  -14.5993 N   0  0  0  0  0  0  0  0  0  0  0  0
   19.9435   -3.2573  -14.1859 C   0  0  0  0  0  0  0  0  0  0  0  0
   20.5438   -2.1641  -13.9037 O   0  0  0  0  0  0  0  0  0  0  0  0
   20.4079   -2.8340  -17.0856 C   0  0  0  0  0  0  0  0  0  0  0  0
   19.7600   -2.6098  -18.2669 C   0  0  0  0  0  0  0  0  0  0  0  0
   18.5631   -3.2006  -14.2883 O   0  0  0  0  0  0  0  0  0  0  0  0
  2  1  1  0
  3  2  1  0
  4  3  1  0
  5  4  1  0
  5  6  1  6
  7  8  2  0
  7  5  1  0
  9 10  1  0
 10 20  2  0
 11 12  2  0
 11 10  1  0
 12 13  1  0
 13 14  1  0
 13 19  2  0
 15 14  1  1
 15 16  1  0
 16  7  1  0
 17 15  1  0
 18 17  2  0
 20 19  1  0
 22 21  1  0
 22 23  2  0
 24 23  1  0
 25 24  2  0
 27 26  1  6
 26 25  1  0
 27 28  1  0
 28 17  1  0
 29 33  1  0
 29 27  1  0
 30 29  2  0
 31 32  2  0
 31 25  1  0
 32 22  1  0
M  END
$$$$
