MYY.pdb
     RDKit          3D

 33 34  0  0  1  0  0  0  0  0999 V2000
   27.3894   -8.6334  -21.2696 C   0  0  0  0  0  0  0  0  0  0  0  0
   27.0441  -10.2557  -22.0009 S   0  0  0  0  0  0  0  0  0  0  0  0
   25.9682  -11.2460  -20.9057 C   0  0  0  0  0  0  0  0  0  0  0  0
   24.8426  -10.3979  -20.3805 C   0  0  0  0  0  0  0  0  0  0  0  0
   24.0897  -11.0511  -19.2903 C   0  0  2  0  0  0  0  0  0  0  0  0
   23.3411  -12.1567  -19.9600 N   0  0  0  0  0  0  0  0  0  0  0  0
   23.0947  -10.2762  -18.5723 C   0  0  0  0  0  0  0  0  0  0  0  0
   22.0425   -9.9022  -19.1861 O   0  0  0  0  0  0  0  0  0  0  0  0
   18.0574  -13.7693  -18.1978 O   0  0  0  0  0  0  0  0  0  0  0  0
   18.8483  -12.8228  -17.5649 C   0  0  0  0  0  0  0  0  0  0  0  0
   20.0677  -13.1786  -17.0424 C   0  0  0  0  0  0  0  0  0  0  0  0
   20.8701  -12.2539  -16.4092 C   0  0  0  0  0  0  0  0  0  0  0  0
   20.4994  -10.9244  -16.2632 C   0  0  0  0  0  0  0  0  0  0  0  0
   21.3134   -9.8981  -15.5992 C   0  0  0  0  0  0  0  0  0  0  0  0
   22.0874   -9.0731  -16.6035 C   0  0  2  0  0  0  0  0  0  0  0  0
   23.1422   -9.8668  -17.2155 N   0  0  0  0  0  0  0  0  0  0  0  0
   22.5338   -7.7801  -16.0787 C   0  0  0  0  0  0  0  0  0  0  0  0
   23.4166   -7.7988  -15.1666 O   0  0  0  0  0  0  0  0  0  0  0  0
   19.2564  -10.5787  -16.8000 C   0  0  0  0  0  0  0  0  0  0  0  0
   18.4548  -11.5035  -17.4328 C   0  0  0  0  0  0  0  0  0  0  0  0
   17.7954   -2.6061  -19.1130 O   0  0  0  0  0  0  0  0  0  0  0  0
   19.0162   -2.9893  -18.5749 C   0  0  0  0  0  0  0  0  0  0  0  0
   19.5865   -2.3844  -17.4761 C   0  0  0  0  0  0  0  0  0  0  0  0
   20.8004   -2.7867  -16.9633 C   0  0  0  0  0  0  0  0  0  0  0  0
   21.5096   -3.8346  -17.5423 C   0  0  0  0  0  0  0  0  0  0  0  0
   22.8045   -4.2551  -17.0091 C   0  0  0  0  0  0  0  0  0  0  0  0
   22.6885   -5.2974  -15.9287 C   0  0  2  0  0  0  0  0  0  0  0  0
   22.0886   -6.5123  -16.4781 N   0  0  0  0  0  0  0  0  0  0  0  0
   21.8963   -4.8040  -14.8028 C   0  0  0  0  0  0  0  0  0  0  0  0
   22.3231   -3.7912  -14.1490 O   0  0  0  0  0  0  0  0  0  0  0  0
   20.9373   -4.4451  -18.6492 C   0  0  0  0  0  0  0  0  0  0  0  0
   19.7328   -4.0345  -19.1454 C   0  0  0  0  0  0  0  0  0  0  0  0
   20.6975   -5.3560  -14.3820 O   0  0  0  0  0  0  0  0  0  0  0  0
  2  1  1  0
  3  2  1  0
  4  3  1  0
  5  4  1  0
  5  6  1  6
  7  8  2  0
  7  5  1  0
  9 10  1  0
 10 20  2  0
 11 12  2  0
 11 10  1  0
 12 13  1  0
 13 14  1  0
 13 19  2  0
 15 14  1  1
 15 16  1  0
 16  7  1  0
 17 15  1  0
 18 17  2  0
 20 19  1  0
 22 21  1  0
 22 23  2  0
 24 23  1  0
 25 24  2  0
 27 26  1  6
 26 25  1  0
 27 28  1  0
 28 17  1  0
 29 33  1  0
 29 27  1  0
 30 29  2  0
 31 32  2  0
 31 25  1  0
 32 22  1  0
M  END
$$$$
