MYY.pdb
     RDKit          3D

 33 34  0  0  1  0  0  0  0  0999 V2000
   25.3705  -10.2512  -22.8695 C   0  0  0  0  0  0  0  0  0  0  0  0
   24.5262  -11.8526  -22.7760 S   0  0  0  0  0  0  0  0  0  0  0  0
   25.0233  -12.7619  -21.2714 C   0  0  0  0  0  0  0  0  0  0  0  0
   24.2109  -14.0202  -21.1345 C   0  0  0  0  0  0  0  0  0  0  0  0
   23.4759  -14.0948  -19.8554 C   0  0  2  0  0  0  0  0  0  0  0  0
   22.8617  -15.4564  -19.8532 N   0  0  0  0  0  0  0  0  0  0  0  0
   22.3840  -13.1665  -19.6268 C   0  0  0  0  0  0  0  0  0  0  0  0
   21.2842  -13.3425  -20.2458 O   0  0  0  0  0  0  0  0  0  0  0  0
   15.6453  -10.4800  -15.1019 O   0  0  0  0  0  0  0  0  0  0  0  0
   16.7963  -10.9895  -15.6829 C   0  0  0  0  0  0  0  0  0  0  0  0
   16.8672  -11.1578  -17.0443 C   0  0  0  0  0  0  0  0  0  0  0  0
   18.0015  -11.6627  -17.6428 C   0  0  0  0  0  0  0  0  0  0  0  0
   19.1263  -12.0268  -16.9157 C   0  0  0  0  0  0  0  0  0  0  0  0
   20.3598  -12.5686  -17.5003 C   0  0  0  0  0  0  0  0  0  0  0  0
   21.1559  -11.4917  -18.2038 C   0  0  2  0  0  0  0  0  0  0  0  0
   22.3813  -12.0420  -18.7629 N   0  0  0  0  0  0  0  0  0  0  0  0
   21.3511  -10.2858  -17.3951 C   0  0  0  0  0  0  0  0  0  0  0  0
   22.0972  -10.3883  -16.3731 O   0  0  0  0  0  0  0  0  0  0  0  0
   19.0380  -11.8495  -15.5324 C   0  0  0  0  0  0  0  0  0  0  0  0
   17.9038  -11.3448  -14.9347 C   0  0  0  0  0  0  0  0  0  0  0  0
   21.6965   -2.1870  -13.8869 O   0  0  0  0  0  0  0  0  0  0  0  0
   21.6381   -3.3000  -14.7143 C   0  0  0  0  0  0  0  0  0  0  0  0
   22.4428   -4.4074  -14.5574 C   0  0  0  0  0  0  0  0  0  0  0  0
   22.3623   -5.4987  -15.3945 C   0  0  0  0  0  0  0  0  0  0  0  0
   21.4524   -5.5273  -16.4470 C   0  0  0  0  0  0  0  0  0  0  0  0
   21.3738   -6.6780  -17.3456 C   0  0  0  0  0  0  0  0  0  0  0  0
   20.9446   -7.9427  -16.6502 C   0  0  2  0  0  0  0  0  0  0  0  0
   20.7991   -9.0187  -17.6294 N   0  0  0  0  0  0  0  0  0  0  0  0
   19.6916   -7.7451  -15.9224 C   0  0  0  0  0  0  0  0  0  0  0  0
   19.7439   -7.4390  -14.6820 O   0  0  0  0  0  0  0  0  0  0  0  0
   20.6412   -4.4129  -16.6070 C   0  0  0  0  0  0  0  0  0  0  0  0
   20.7333   -3.3388  -15.7683 C   0  0  0  0  0  0  0  0  0  0  0  0
   18.4296   -7.8639  -16.4812 O   0  0  0  0  0  0  0  0  0  0  0  0
  2  1  1  0
  3  2  1  0
  4  3  1  0
  5  4  1  0
  5  6  1  6
  7  8  2  0
  7  5  1  0
  9 10  1  0
 10 20  2  0
 11 12  2  0
 11 10  1  0
 12 13  1  0
 13 14  1  0
 13 19  2  0
 15 14  1  1
 15 16  1  0
 16  7  1  0
 17 15  1  0
 18 17  2  0
 20 19  1  0
 22 21  1  0
 22 23  2  0
 24 23  1  0
 25 24  2  0
 27 26  1  6
 26 25  1  0
 27 28  1  0
 28 17  1  0
 29 33  1  0
 29 27  1  0
 30 29  2  0
 31 32  2  0
 31 25  1  0
 32 22  1  0
M  END
$$$$
