MYY.pdb
     RDKit          3D

 33 34  0  0  1  0  0  0  0  0999 V2000
   15.4425  -24.8671    3.3477 C   0  0  0  0  0  0  0  0  0  0  0  0
   16.6531  -23.5179    3.3502 S   0  0  0  0  0  0  0  0  0  0  0  0
   15.8159  -21.8942    3.3253 C   0  0  0  0  0  0  0  0  0  0  0  0
   16.8011  -20.7988    3.6284 C   0  0  0  0  0  0  0  0  0  0  0  0
   16.1622  -19.4756    3.7798 C   0  0  2  0  0  0  0  0  0  0  0  0
   15.7014  -19.1206    2.4040 N   0  0  0  0  0  0  0  0  0  0  0  0
   16.9748  -18.3593    4.2266 C   0  0  0  0  0  0  0  0  0  0  0  0
   18.2309  -18.5251    4.3619 O   0  0  0  0  0  0  0  0  0  0  0  0
   20.4105  -10.5906    6.6237 O   0  0  0  0  0  0  0  0  0  0  0  0
   19.5536  -11.5789    6.1642 C   0  0  0  0  0  0  0  0  0  0  0  0
   18.5026  -11.9992    6.9423 C   0  0  0  0  0  0  0  0  0  0  0  0
   17.6387  -12.9802    6.5053 C   0  0  0  0  0  0  0  0  0  0  0  0
   17.7765  -13.5949    5.2686 C   0  0  0  0  0  0  0  0  0  0  0  0
   16.8869  -14.6435    4.7528 C   0  0  0  0  0  0  0  0  0  0  0  0
   17.4331  -16.0233    5.0459 C   0  0  2  0  0  0  0  0  0  0  0  0
   16.5328  -17.0493    4.5420 N   0  0  0  0  0  0  0  0  0  0  0  0
   17.8362  -16.2085    6.4422 C   0  0  0  0  0  0  0  0  0  0  0  0
   16.9419  -16.5930    7.2571 O   0  0  0  0  0  0  0  0  0  0  0  0
   18.8504  -13.1562    4.4894 C   0  0  0  0  0  0  0  0  0  0  0  0
   19.7136  -12.1755    4.9268 C   0  0  0  0  0  0  0  0  0  0  0  0
   23.0853  -11.4489   10.5748 O   0  0  0  0  0  0  0  0  0  0  0  0
   22.5455  -12.6262   10.0755 C   0  0  0  0  0  0  0  0  0  0  0  0
   22.3956  -12.8836    8.7302 C   0  0  0  0  0  0  0  0  0  0  0  0
   21.8563  -14.0623    8.2633 C   0  0  0  0  0  0  0  0  0  0  0  0
   21.4354  -15.0545    9.1435 C   0  0  0  0  0  0  0  0  0  0  0  0
   20.8501  -16.3010    8.6518 C   0  0  0  0  0  0  0  0  0  0  0  0
   19.3675  -16.2019    8.4083 C   0  0  2  0  0  0  0  0  0  0  0  0
   19.1142  -16.0063    6.9817 N   0  0  0  0  0  0  0  0  0  0  0  0
   18.7775  -15.1111    9.1834 C   0  0  0  0  0  0  0  0  0  0  0  0
   18.5948  -15.2783   10.4379 O   0  0  0  0  0  0  0  0  0  0  0  0
   21.5852  -14.7973   10.4988 C   0  0  0  0  0  0  0  0  0  0  0  0
   22.1218  -13.6235   10.9457 C   0  0  0  0  0  0  0  0  0  0  0  0
   18.3956  -13.8881    8.6566 O   0  0  0  0  0  0  0  0  0  0  0  0
  2  1  1  0
  3  2  1  0
  4  3  1  0
  5  4  1  0
  5  6  1  6
  7  8  2  0
  7  5  1  0
  9 10  1  0
 10 20  2  0
 11 12  2  0
 11 10  1  0
 12 13  1  0
 13 14  1  0
 13 19  2  0
 15 14  1  1
 15 16  1  0
 16  7  1  0
 17 15  1  0
 18 17  2  0
 20 19  1  0
 22 21  1  0
 22 23  2  0
 24 23  1  0
 25 24  2  0
 27 26  1  6
 26 25  1  0
 27 28  1  0
 28 17  1  0
 29 33  1  0
 29 27  1  0
 30 29  2  0
 31 32  2  0
 31 25  1  0
 32 22  1  0
M  END
$$$$
