MYY.pdb
     RDKit          3D

 33 34  0  0  1  0  0  0  0  0999 V2000
   29.7700  -25.9569  -15.4456 C   0  0  0  0  0  0  0  0  0  0  0  0
   28.9249  -27.2066  -16.4505 S   0  0  0  0  0  0  0  0  0  0  0  0
   29.8909  -28.7562  -16.5072 C   0  0  0  0  0  0  0  0  0  0  0  0
   29.1527  -29.7980  -17.3021 C   0  0  0  0  0  0  0  0  0  0  0  0
   27.9712  -30.3320  -16.5944 C   0  0  2  0  0  0  0  0  0  0  0  0
   28.5303  -31.3107  -15.6141 N   0  0  0  0  0  0  0  0  0  0  0  0
   26.9749  -31.0603  -17.3580 C   0  0  0  0  0  0  0  0  0  0  0  0
   27.1297  -32.3121  -17.5394 O   0  0  0  0  0  0  0  0  0  0  0  0
   21.5677  -33.1376  -13.6573 O   0  0  0  0  0  0  0  0  0  0  0  0
   22.0340  -32.6091  -14.8512 C   0  0  0  0  0  0  0  0  0  0  0  0
   22.0563  -33.3811  -15.9870 C   0  0  0  0  0  0  0  0  0  0  0  0
   22.5158  -32.8760  -17.1843 C   0  0  0  0  0  0  0  0  0  0  0  0
   22.9777  -31.5736  -17.3132 C   0  0  0  0  0  0  0  0  0  0  0  0
   23.4774  -30.9840  -18.5621 C   0  0  0  0  0  0  0  0  0  0  0  0
   24.9287  -31.3397  -18.7978 C   0  0  2  0  0  0  0  0  0  0  0  0
   25.7978  -30.5370  -17.9508 N   0  0  0  0  0  0  0  0  0  0  0  0
   25.3067  -31.3475  -20.2132 C   0  0  0  0  0  0  0  0  0  0  0  0
   26.1899  -30.5133  -20.5815 O   0  0  0  0  0  0  0  0  0  0  0  0
   22.9485  -30.8015  -16.1488 C   0  0  0  0  0  0  0  0  0  0  0  0
   22.4891  -31.3070  -14.9523 C   0  0  0  0  0  0  0  0  0  0  0  0
   28.9802  -32.6070  -27.8195 O   0  0  0  0  0  0  0  0  0  0  0  0
   28.4217  -32.5758  -26.5491 C   0  0  0  0  0  0  0  0  0  0  0  0
   27.2539  -33.2265  -26.2157 C   0  0  0  0  0  0  0  0  0  0  0  0
   26.7228  -33.1781  -24.9452 C   0  0  0  0  0  0  0  0  0  0  0  0
   27.3531  -32.4604  -23.9334 C   0  0  0  0  0  0  0  0  0  0  0  0
   26.7851  -32.3956  -22.5876 C   0  0  0  0  0  0  0  0  0  0  0  0
   25.3053  -32.1174  -22.5834 C   0  0  2  0  0  0  0  0  0  0  0  0
   24.7951  -32.1843  -21.2149 N   0  0  0  0  0  0  0  0  0  0  0  0
   24.5887  -33.0619  -23.4396 C   0  0  0  0  0  0  0  0  0  0  0  0
   24.8714  -33.0967  -24.6862 O   0  0  0  0  0  0  0  0  0  0  0  0
   28.5293  -31.8041  -24.2671 C   0  0  0  0  0  0  0  0  0  0  0  0
   29.0428  -31.8619  -25.5314 C   0  0  0  0  0  0  0  0  0  0  0  0
   23.6114  -33.9390  -22.9985 O   0  0  0  0  0  0  0  0  0  0  0  0
  2  1  1  0
  3  2  1  0
  4  3  1  0
  5  4  1  0
  5  6  1  1
  7  8  2  0
  7  5  1  0
  9 10  1  0
 10 20  2  0
 11 12  2  0
 11 10  1  0
 12 13  1  0
 13 14  1  0
 13 19  2  0
 15 14  1  6
 15 16  1  0
 16  7  1  0
 17 15  1  0
 18 17  2  0
 20 19  1  0
 22 21  1  0
 22 23  2  0
 24 23  1  0
 25 24  2  0
 27 26  1  1
 26 25  1  0
 27 28  1  0
 28 17  1  0
 29 33  1  0
 29 27  1  0
 30 29  2  0
 31 32  2  0
 31 25  1  0
 32 22  1  0
M  END
$$$$
