MYY.pdb
     RDKit          3D

 33 34  0  0  1  0  0  0  0  0999 V2000
   30.2974  -20.9602   -7.4228 C   0  0  0  0  0  0  0  0  0  0  0  0
   30.1069  -20.3512   -9.1195 S   0  0  0  0  0  0  0  0  0  0  0  0
   30.0060  -21.7412  -10.3009 C   0  0  0  0  0  0  0  0  0  0  0  0
   29.4612  -21.2625  -11.6185 C   0  0  0  0  0  0  0  0  0  0  0  0
   27.9918  -21.1110  -11.6131 C   0  0  2  0  0  0  0  0  0  0  0  0
   27.5088  -22.1605  -10.6661 N   0  0  0  0  0  0  0  0  0  0  0  0
   27.2666  -21.3295  -12.8511 C   0  0  0  0  0  0  0  0  0  0  0  0
   27.6568  -20.7347  -13.9084 O   0  0  0  0  0  0  0  0  0  0  0  0
   22.6400  -23.8222  -19.8379 O   0  0  0  0  0  0  0  0  0  0  0  0
   23.3840  -23.7384  -18.6711 C   0  0  0  0  0  0  0  0  0  0  0  0
   22.8789  -24.2304  -17.4924 C   0  0  0  0  0  0  0  0  0  0  0  0
   23.6013  -24.1576  -16.3208 C   0  0  0  0  0  0  0  0  0  0  0  0
   24.8665  -23.5900  -16.2618 C   0  0  0  0  0  0  0  0  0  0  0  0
   25.6797  -23.4862  -15.0433 C   0  0  0  0  0  0  0  0  0  0  0  0
   25.4017  -22.1965  -14.3030 C   0  0  2  0  0  0  0  0  0  0  0  0
   26.1329  -22.1587  -13.0457 N   0  0  0  0  0  0  0  0  0  0  0  0
   23.9746  -21.8888  -14.1796 C   0  0  0  0  0  0  0  0  0  0  0  0
   23.2937  -22.6078  -13.3851 O   0  0  0  0  0  0  0  0  0  0  0  0
   25.3659  -23.0942  -17.4691 C   0  0  0  0  0  0  0  0  0  0  0  0
   24.6432  -23.1674  -18.6399 C   0  0  0  0  0  0  0  0  0  0  0  0
   23.6571  -20.6098   -8.3688 O   0  0  0  0  0  0  0  0  0  0  0  0
   23.1733  -20.3223   -9.6376 C   0  0  0  0  0  0  0  0  0  0  0  0
   21.8547  -20.4836  -10.0034 C   0  0  0  0  0  0  0  0  0  0  0  0
   21.4027  -20.1895  -11.2712 C   0  0  0  0  0  0  0  0  0  0  0  0
   22.2714  -19.7109  -12.2473 C   0  0  0  0  0  0  0  0  0  0  0  0
   21.7978  -19.4108  -13.5977 C   0  0  0  0  0  0  0  0  0  0  0  0
   21.8747  -20.5928  -14.5273 C   0  0  2  0  0  0  0  0  0  0  0  0
   23.2724  -20.8769  -14.8489 N   0  0  0  0  0  0  0  0  0  0  0  0
   21.1105  -20.3522  -15.7507 C   0  0  0  0  0  0  0  0  0  0  0  0
   19.8414  -20.2211  -15.6660 O   0  0  0  0  0  0  0  0  0  0  0  0
   23.5999  -19.5480  -11.8812 C   0  0  0  0  0  0  0  0  0  0  0  0
   24.0323  -19.8441  -10.6198 C   0  0  0  0  0  0  0  0  0  0  0  0
   21.6633  -20.2514  -17.0169 O   0  0  0  0  0  0  0  0  0  0  0  0
  2  1  1  0
  3  2  1  0
  4  3  1  0
  5  4  1  0
  5  6  1  1
  7  8  2  0
  7  5  1  0
  9 10  1  0
 10 20  2  0
 11 12  2  0
 11 10  1  0
 12 13  1  0
 13 14  1  0
 13 19  2  0
 15 14  1  1
 15 16  1  0
 16  7  1  0
 17 15  1  0
 18 17  2  0
 20 19  1  0
 22 21  1  0
 22 23  2  0
 24 23  1  0
 25 24  2  0
 27 26  1  1
 26 25  1  0
 27 28  1  0
 28 17  1  0
 29 33  1  0
 29 27  1  0
 30 29  2  0
 31 32  2  0
 31 25  1  0
 32 22  1  0
M  END
$$$$
