MYY.pdb
     RDKit          3D

 33 34  0  0  1  0  0  0  0  0999 V2000
   19.2148  -19.0332  -14.1703 C   0  0  0  0  0  0  0  0  0  0  0  0
   19.0016  -17.8067  -15.4879 S   0  0  0  0  0  0  0  0  0  0  0  0
   20.4689  -17.7601  -16.5753 C   0  0  0  0  0  0  0  0  0  0  0  0
   21.6078  -18.5104  -15.9410 C   0  0  0  0  0  0  0  0  0  0  0  0
   22.8827  -18.3440  -16.6682 C   0  0  2  0  0  0  0  0  0  0  0  0
   22.7214  -19.1676  -17.9039 N   0  0  0  0  0  0  0  0  0  0  0  0
   24.1062  -18.8069  -16.0396 C   0  0  0  0  0  0  0  0  0  0  0  0
   24.4937  -20.0027  -16.2492 O   0  0  0  0  0  0  0  0  0  0  0  0
   29.3568  -18.6760  -20.0068 O   0  0  0  0  0  0  0  0  0  0  0  0
   28.8674  -18.4780  -18.7248 C   0  0  0  0  0  0  0  0  0  0  0  0
   29.2352  -19.3230  -17.7063 C   0  0  0  0  0  0  0  0  0  0  0  0
   28.7606  -19.1446  -16.4246 C   0  0  0  0  0  0  0  0  0  0  0  0
   27.8938  -18.1137  -16.0897 C   0  0  0  0  0  0  0  0  0  0  0  0
   27.3581  -17.8767  -14.7429 C   0  0  0  0  0  0  0  0  0  0  0  0
   26.0960  -18.6754  -14.5030 C   0  0  2  0  0  0  0  0  0  0  0  0
   24.9658  -18.0672  -15.1884 N   0  0  0  0  0  0  0  0  0  0  0  0
   25.8531  -18.9752  -13.0897 C   0  0  0  0  0  0  0  0  0  0  0  0
   25.5246  -18.0048  -12.3399 O   0  0  0  0  0  0  0  0  0  0  0  0
   27.5294  -17.2632  -17.1369 C   0  0  0  0  0  0  0  0  0  0  0  0
   28.0040  -17.4421  -18.4179 C   0  0  0  0  0  0  0  0  0  0  0  0
   19.5912  -19.0284  -12.1074 O   0  0  0  0  0  0  0  0  0  0  0  0
   20.8169  -19.5693  -11.7447 C   0  0  0  0  0  0  0  0  0  0  0  0
   21.4423  -19.3006  -10.5467 C   0  0  0  0  0  0  0  0  0  0  0  0
   22.6598  -19.8528  -10.2133 C   0  0  0  0  0  0  0  0  0  0  0  0
   23.3163  -20.7163  -11.0849 C   0  0  0  0  0  0  0  0  0  0  0  0
   24.6148  -21.2933  -10.7401 C   0  0  0  0  0  0  0  0  0  0  0  0
   25.7673  -20.3669  -11.0243 C   0  0  2  0  0  0  0  0  0  0  0  0
   25.9441  -20.2289  -12.4690 N   0  0  0  0  0  0  0  0  0  0  0  0
   26.9999  -20.8536  -10.4057 C   0  0  0  0  0  0  0  0  0  0  0  0
   27.0541  -20.9412   -9.1312 O   0  0  0  0  0  0  0  0  0  0  0  0
   22.6884  -20.9882  -12.2921 C   0  0  0  0  0  0  0  0  0  0  0  0
   21.4811  -20.4326  -12.6077 C   0  0  0  0  0  0  0  0  0  0  0  0
   28.1335  -21.2357  -11.1044 O   0  0  0  0  0  0  0  0  0  0  0  0
  2  1  1  0
  3  2  1  0
  4  3  1  0
  5  4  1  0
  5  6  1  6
  7  8  2  0
  7  5  1  0
  9 10  1  0
 10 20  2  0
 11 12  2  0
 11 10  1  0
 12 13  1  0
 13 14  1  0
 13 19  2  0
 15 14  1  1
 15 16  1  0
 16  7  1  0
 17 15  1  0
 18 17  2  0
 20 19  1  0
 22 21  1  0
 22 23  2  0
 24 23  1  0
 25 24  2  0
 27 26  1  6
 26 25  1  0
 27 28  1  0
 28 17  1  0
 29 33  1  0
 29 27  1  0
 30 29  2  0
 31 32  2  0
 31 25  1  0
 32 22  1  0
M  END
$$$$
