MYY.pdb
     RDKit          3D

 33 34  0  0  1  0  0  0  0  0999 V2000
   30.0383  -22.3428  -22.1068 C   0  0  0  0  0  0  0  0  0  0  0  0
   28.7116  -21.5541  -21.1562 S   0  0  0  0  0  0  0  0  0  0  0  0
   29.3281  -20.0682  -20.2904 C   0  0  0  0  0  0  0  0  0  0  0  0
   28.2112  -19.4147  -19.5237 C   0  0  0  0  0  0  0  0  0  0  0  0
   26.9189  -19.4605  -20.2378 C   0  0  2  0  0  0  0  0  0  0  0  0
   26.9472  -18.2728  -21.1433 N   0  0  0  0  0  0  0  0  0  0  0  0
   25.6950  -19.3427  -19.4668 C   0  0  0  0  0  0  0  0  0  0  0  0
   25.4041  -18.2204  -18.9379 O   0  0  0  0  0  0  0  0  0  0  0  0
   17.9082  -19.9802  -15.4455 O   0  0  0  0  0  0  0  0  0  0  0  0
   18.9869  -20.1472  -16.3003 C   0  0  0  0  0  0  0  0  0  0  0  0
   19.5343  -21.3930  -16.4873 C   0  0  0  0  0  0  0  0  0  0  0  0
   20.6067  -21.5817  -17.3324 C   0  0  0  0  0  0  0  0  0  0  0  0
   21.1909  -20.5380  -18.0364 C   0  0  0  0  0  0  0  0  0  0  0  0
   22.3328  -20.6814  -18.9488 C   0  0  0  0  0  0  0  0  0  0  0  0
   23.6079  -20.1621  -18.3221 C   0  0  2  0  0  0  0  0  0  0  0  0
   24.7371  -20.3583  -19.2185 N   0  0  0  0  0  0  0  0  0  0  0  0
   23.8298  -20.6489  -16.9582 C   0  0  0  0  0  0  0  0  0  0  0  0
   24.0980  -21.8820  -16.8197 O   0  0  0  0  0  0  0  0  0  0  0  0
   20.6225  -19.2774  -17.8351 C   0  0  0  0  0  0  0  0  0  0  0  0
   19.5505  -19.0894  -16.9903 C   0  0  0  0  0  0  0  0  0  0  0  0
   25.4390  -21.5311   -8.2925 O   0  0  0  0  0  0  0  0  0  0  0  0
   25.2963  -21.0670   -9.5929 C   0  0  0  0  0  0  0  0  0  0  0  0
   26.2384  -21.2648  -10.5786 C   0  0  0  0  0  0  0  0  0  0  0  0
   26.0694  -20.7926  -11.8619 C   0  0  0  0  0  0  0  0  0  0  0  0
   24.9246  -20.0869  -12.2194 C   0  0  0  0  0  0  0  0  0  0  0  0
   24.7482  -19.5724  -13.5767 C   0  0  0  0  0  0  0  0  0  0  0  0
   23.9986  -20.5201  -14.4751 C   0  0  2  0  0  0  0  0  0  0  0  0
   23.7785  -19.8940  -15.7780 N   0  0  0  0  0  0  0  0  0  0  0  0
   22.7228  -20.9143  -13.8788 C   0  0  0  0  0  0  0  0  0  0  0  0
   22.6222  -22.0776  -13.3576 O   0  0  0  0  0  0  0  0  0  0  0  0
   23.9746  -19.8863  -11.2281 C   0  0  0  0  0  0  0  0  0  0  0  0
   24.1571  -20.3611   -9.9605 C   0  0  0  0  0  0  0  0  0  0  0  0
   21.5948  -20.1117  -13.8315 O   0  0  0  0  0  0  0  0  0  0  0  0
  2  1  1  0
  3  2  1  0
  4  3  1  0
  5  4  1  0
  5  6  1  6
  7  8  2  0
  7  5  1  0
  9 10  1  0
 10 20  2  0
 11 12  2  0
 11 10  1  0
 12 13  1  0
 13 14  1  0
 13 19  2  0
 15 14  1  6
 15 16  1  0
 16  7  1  0
 17 15  1  0
 18 17  2  0
 20 19  1  0
 22 21  1  0
 22 23  2  0
 24 23  1  0
 25 24  2  0
 27 26  1  1
 26 25  1  0
 27 28  1  0
 28 17  1  0
 29 33  1  0
 29 27  1  0
 30 29  2  0
 31 32  2  0
 31 25  1  0
 32 22  1  0
M  END
$$$$
