WQC.pdb
     RDKit          3D

 30 31  0  0  1  0  0  0  0  0999 V2000
   27.8988  -20.6243   -9.8415 N   0  0  0  0  0  0  0  0  0  0  0  0
   26.6287  -21.0639   -9.3592 C   0  0  1  0  0  0  0  0  0  0  0  0
   26.2547  -20.5347   -7.9966 C   0  0  0  0  0  0  0  0  0  0  0  0
   27.3256  -19.8071   -7.3106 C   0  0  0  0  0  0  0  0  0  0  0  0
   28.0488  -18.7653   -7.8193 C   0  0  0  0  0  0  0  0  0  0  0  0
   28.9211  -18.3679   -6.8585 N   0  0  0  0  0  0  0  0  0  0  0  0
   28.7744  -19.1230   -5.7598 C   0  0  0  0  0  0  0  0  0  0  0  0
   29.4173  -19.1144   -4.5440 C   0  0  0  0  0  0  0  0  0  0  0  0
   29.0700  -20.0265   -3.5615 C   0  0  0  0  0  0  0  0  0  0  0  0
   28.0722  -20.9452   -3.8134 C   0  0  0  0  0  0  0  0  0  0  0  0
   27.4376  -20.9404   -5.0374 C   0  0  0  0  0  0  0  0  0  0  0  0
   27.7673  -20.0389   -6.0325 C   0  0  0  0  0  0  0  0  0  0  0  0
   25.5190  -20.7224  -10.2910 C   0  0  0  0  0  0  0  0  0  0  0  0
   24.8835  -19.6224  -10.1367 O   0  0  0  0  0  0  0  0  0  0  0  0
   27.4409  -20.9416  -15.2400 N   0  0  0  0  0  0  0  0  0  0  0  0
   26.1448  -20.8606  -15.8112 C   0  0  0  0  0  0  0  0  0  0  0  0
   26.0911  -20.3455  -16.9800 O   0  0  0  0  0  0  0  0  0  0  0  0
   24.9096  -21.3383  -15.1144 C   0  0  0  0  0  0  0  0  0  0  0  0
   25.3165  -21.8729  -13.7814 C   0  0  0  0  0  0  0  0  0  0  0  0
   24.6886  -21.1674  -12.6210 C   0  0  2  0  0  0  0  0  0  0  0  0
   25.1776  -21.6134  -11.3365 N   0  0  0  0  0  0  0  0  0  0  0  0
   23.2148  -21.1716  -12.6509 C   0  0  0  0  0  0  0  0  0  0  0  0
   22.6282  -22.2317  -12.3127 O   0  0  0  0  0  0  0  0  0  0  0  0
   22.4207  -20.0718  -13.0313 N   0  0  0  0  0  0  0  0  0  0  0  0
   20.9812  -20.1938  -12.9844 C   0  0  1  0  0  0  0  0  0  0  0  0
   20.4084  -18.8415  -12.6023 C   0  0  0  0  0  0  0  0  0  0  0  0
   20.7689  -18.6263  -10.8200 S   0  0  0  0  0  0  0  0  0  0  0  0
   20.3999  -20.7035  -14.2423 C   0  0  0  0  0  0  0  0  0  0  0  0
   19.1436  -21.2566  -14.2389 O   0  0  0  0  0  0  0  0  0  0  0  0
   21.0428  -20.6341  -15.3061 O   0  0  0  0  0  0  0  0  0  0  0  0
  2  1  1  6
  2  3  1  0
  3  4  1  0
  4  5  2  0
  5  6  1  0
  7  6  1  0
  8  7  2  0
  9  8  1  0
 10 11  1  0
 10  9  2  0
 11 12  2  0
 12  4  1  0
 12  7  1  0
 13  2  1  0
 13 21  1  0
 14 13  2  0
 16 17  2  0
 16 15  1  0
 18 16  1  0
 20 19  1  6
 19 18  1  0
 21 20  1  0
 22 20  1  0
 23 22  2  0
 24 22  1  0
 25 28  1  0
 25 24  1  0
 25 26  1  6
 27 26  1  0
 28 29  1  0
 30 28  2  0
M  END
$$$$
