WQC.pdb
     RDKit          3D

 30 31  0  0  1  0  0  0  0  0999 V2000
   14.3243  -14.9531    5.6500 N   0  0  0  0  0  0  0  0  0  0  0  0
   15.4481  -15.7104    5.1997 C   0  0  1  0  0  0  0  0  0  0  0  0
   16.7429  -15.3985    5.9088 C   0  0  0  0  0  0  0  0  0  0  0  0
   17.4319  -14.2011    5.4204 C   0  0  0  0  0  0  0  0  0  0  0  0
   17.5383  -13.0066    6.0756 C   0  0  0  0  0  0  0  0  0  0  0  0
   18.2684  -12.1751    5.2898 N   0  0  0  0  0  0  0  0  0  0  0  0
   18.6271  -12.8029    4.1601 C   0  0  0  0  0  0  0  0  0  0  0  0
   19.3547  -12.3899    3.0685 C   0  0  0  0  0  0  0  0  0  0  0  0
   19.5801  -13.2535    2.0096 C   0  0  0  0  0  0  0  0  0  0  0  0
   19.0676  -14.5332    2.0594 C   0  0  0  0  0  0  0  0  0  0  0  0
   18.3404  -14.9315    3.1610 C   0  0  0  0  0  0  0  0  0  0  0  0
   18.1035  -14.0868    4.2296 C   0  0  0  0  0  0  0  0  0  0  0  0
   15.2225  -17.1780    5.3068 C   0  0  0  0  0  0  0  0  0  0  0  0
   14.6583  -17.6535    6.3524 O   0  0  0  0  0  0  0  0  0  0  0  0
   15.9606  -21.3145    0.5295 N   0  0  0  0  0  0  0  0  0  0  0  0
   15.5735  -22.1342    1.6208 C   0  0  0  0  0  0  0  0  0  0  0  0
   15.4044  -23.3711    1.3456 O   0  0  0  0  0  0  0  0  0  0  0  0
   15.3706  -21.6114    3.0082 C   0  0  0  0  0  0  0  0  0  0  0  0
   15.5549  -20.1306    2.9686 C   0  0  0  0  0  0  0  0  0  0  0  0
   15.4894  -19.4691    4.3089 C   0  0  2  0  0  0  0  0  0  0  0  0
   15.6316  -18.0322    4.2549 N   0  0  0  0  0  0  0  0  0  0  0  0
   16.4101  -20.0500    5.3029 C   0  0  0  0  0  0  0  0  0  0  0  0
   17.6188  -19.7061    5.2482 O   0  0  0  0  0  0  0  0  0  0  0  0
   16.0292  -20.9615    6.3073 N   0  0  0  0  0  0  0  0  0  0  0  0
   17.0449  -21.5259    7.1670 C   0  0  1  0  0  0  0  0  0  0  0  0
   16.4284  -21.7520    8.5350 C   0  0  0  0  0  0  0  0  0  0  0  0
   17.7911  -22.3295    9.6132 S   0  0  0  0  0  0  0  0  0  0  0  0
   17.6472  -22.7592    6.6228 C   0  0  0  0  0  0  0  0  0  0  0  0
   16.8444  -23.7218    6.0633 O   0  0  0  0  0  0  0  0  0  0  0  0
   18.8794  -22.9308    6.6685 O   0  0  0  0  0  0  0  0  0  0  0  0
  2  1  1  1
  2  3  1  0
  3  4  1  0
  4  5  2  0
  5  6  1  0
  7  6  1  0
  8  7  2  0
  9  8  1  0
 10 11  1  0
 10  9  2  0
 11 12  2  0
 12  4  1  0
 12  7  1  0
 13  2  1  0
 13 21  1  0
 14 13  2  0
 16 17  2  0
 16 15  1  0
 18 16  1  0
 20 19  1  6
 19 18  1  0
 21 20  1  0
 22 20  1  0
 23 22  2  0
 24 22  1  0
 25 28  1  0
 25 24  1  0
 25 26  1  1
 27 26  1  0
 28 29  1  0
 30 28  2  0
M  END
$$$$
