WQC.pdb
     RDKit          3D

 30 31  0  0  1  0  0  0  0  0999 V2000
   16.5407  -11.0670    8.4698 N   0  0  0  0  0  0  0  0  0  0  0  0
   17.6486  -10.7363    9.3079 C   0  0  1  0  0  0  0  0  0  0  0  0
   17.3346  -10.7032   10.7833 C   0  0  0  0  0  0  0  0  0  0  0  0
   16.5331   -9.5531   11.2099 C   0  0  0  0  0  0  0  0  0  0  0  0
   15.1943   -9.3788   10.9992 C   0  0  0  0  0  0  0  0  0  0  0  0
   14.8432   -8.1977   11.5682 N   0  0  0  0  0  0  0  0  0  0  0  0
   15.9143   -7.6192   12.1313 C   0  0  0  0  0  0  0  0  0  0  0  0
   16.0692   -6.4346   12.8128 C   0  0  0  0  0  0  0  0  0  0  0  0
   17.3125   -6.0619   13.2958 C   0  0  0  0  0  0  0  0  0  0  0  0
   18.3955   -6.8903   13.0870 C   0  0  0  0  0  0  0  0  0  0  0  0
   18.2232   -8.0744   12.4020 C   0  0  0  0  0  0  0  0  0  0  0  0
   16.9916   -8.4669   11.9115 C   0  0  0  0  0  0  0  0  0  0  0  0
   18.7998  -11.6608    9.1169 C   0  0  0  0  0  0  0  0  0  0  0  0
   18.6077  -12.8000    8.5665 O   0  0  0  0  0  0  0  0  0  0  0  0
   24.4188   -9.8045    7.5673 N   0  0  0  0  0  0  0  0  0  0  0  0
   23.6364  -10.6154    6.7053 C   0  0  0  0  0  0  0  0  0  0  0  0
   23.9903  -10.6116    5.4769 O   0  0  0  0  0  0  0  0  0  0  0  0
   22.4719  -11.4286    7.1767 C   0  0  0  0  0  0  0  0  0  0  0  0
   22.3915  -11.2913    8.6609 C   0  0  0  0  0  0  0  0  0  0  0  0
   21.2745  -12.0644    9.2879 C   0  0  2  0  0  0  0  0  0  0  0  0
   20.0927  -11.2733    9.5435 N   0  0  0  0  0  0  0  0  0  0  0  0
   21.6745  -12.8135   10.4929 C   0  0  0  0  0  0  0  0  0  0  0  0
   21.5884  -12.2239   11.6007 O   0  0  0  0  0  0  0  0  0  0  0  0
   22.1452  -14.1413   10.4880 N   0  0  0  0  0  0  0  0  0  0  0  0
   22.4871  -14.7711   11.7433 C   0  0  1  0  0  0  0  0  0  0  0  0
   21.8263  -16.1367   11.7780 C   0  0  0  0  0  0  0  0  0  0  0  0
   20.0230  -15.8264   11.7096 S   0  0  0  0  0  0  0  0  0  0  0  0
   23.9431  -14.8570   11.9728 C   0  0  0  0  0  0  0  0  0  0  0  0
   24.4200  -15.4303   13.1253 O   0  0  0  0  0  0  0  0  0  0  0  0
   24.7408  -14.4125   11.1266 O   0  0  0  0  0  0  0  0  0  0  0  0
  2  1  1  6
  2  3  1  0
  3  4  1  0
  4  5  2  0
  5  6  1  0
  7  6  1  0
  8  7  2  0
  9  8  1  0
 10 11  1  0
 10  9  2  0
 11 12  2  0
 12  4  1  0
 12  7  1  0
 13  2  1  0
 13 21  1  0
 14 13  2  0
 16 17  2  0
 16 15  1  0
 18 16  1  0
 20 19  1  1
 19 18  1  0
 21 20  1  0
 22 20  1  0
 23 22  2  0
 24 22  1  0
 25 28  1  0
 25 24  1  0
 25 26  1  6
 27 26  1  0
 28 29  1  0
 30 28  2  0
M  END
$$$$
