WQC.pdb
     RDKit          3D

 30 31  0  0  1  0  0  0  0  0999 V2000
   25.9089  -18.6947   -9.1484 N   0  0  0  0  0  0  0  0  0  0  0  0
   26.3132  -19.9492   -9.6979 C   0  0  1  0  0  0  0  0  0  0  0  0
   26.0336  -21.1421   -8.8173 C   0  0  0  0  0  0  0  0  0  0  0  0
   26.2803  -20.9174   -7.3906 C   0  0  0  0  0  0  0  0  0  0  0  0
   25.3384  -20.9002   -6.4009 C   0  0  0  0  0  0  0  0  0  0  0  0
   25.9848  -20.6814   -5.2277 N   0  0  0  0  0  0  0  0  0  0  0  0
   27.3031  -20.5594   -5.4419 C   0  0  0  0  0  0  0  0  0  0  0  0
   28.3572  -20.3299   -4.5887 C   0  0  0  0  0  0  0  0  0  0  0  0
   29.6490  -20.2399   -5.0798 C   0  0  0  0  0  0  0  0  0  0  0  0
   29.8694  -20.3825   -6.4340 C   0  0  0  0  0  0  0  0  0  0  0  0
   28.8018  -20.6122   -7.2757 C   0  0  0  0  0  0  0  0  0  0  0  0
   27.5043  -20.7065   -6.8077 C   0  0  0  0  0  0  0  0  0  0  0  0
   25.6885  -20.2157  -11.0227 C   0  0  0  0  0  0  0  0  0  0  0  0
   24.4858  -19.8357  -11.2394 O   0  0  0  0  0  0  0  0  0  0  0  0
   29.3349  -20.9301  -16.1048 N   0  0  0  0  0  0  0  0  0  0  0  0
   28.8787  -19.6660  -15.6504 C   0  0  0  0  0  0  0  0  0  0  0  0
   29.5256  -18.6567  -16.0944 O   0  0  0  0  0  0  0  0  0  0  0  0
   27.7222  -19.4984  -14.7156 C   0  0  0  0  0  0  0  0  0  0  0  0
   27.2248  -20.8596  -14.3579 C   0  0  0  0  0  0  0  0  0  0  0  0
   26.0556  -20.8587  -13.4243 C   0  0  2  0  0  0  0  0  0  0  0  0
   26.4272  -20.8840  -12.0282 N   0  0  0  0  0  0  0  0  0  0  0  0
   25.0590  -21.9038  -13.7205 C   0  0  0  0  0  0  0  0  0  0  0  0
   25.1647  -22.9991  -13.1109 O   0  0  0  0  0  0  0  0  0  0  0  0
   23.9990  -21.7597  -14.6371 N   0  0  0  0  0  0  0  0  0  0  0  0
   22.7225  -22.3682  -14.3380 C   0  0  1  0  0  0  0  0  0  0  0  0
   22.2769  -21.8763  -12.9734 C   0  0  0  0  0  0  0  0  0  0  0  0
   21.0220  -23.0753  -12.3899 S   0  0  0  0  0  0  0  0  0  0  0  0
   21.7019  -22.1174  -15.3750 C   0  0  0  0  0  0  0  0  0  0  0  0
   20.6279  -22.9639  -15.4948 O   0  0  0  0  0  0  0  0  0  0  0  0
   21.8099  -21.1422  -16.1413 O   0  0  0  0  0  0  0  0  0  0  0  0
  2  1  1  1
  2  3  1  0
  3  4  1  0
  4  5  2  0
  5  6  1  0
  7  6  1  0
  8  7  2  0
  9  8  1  0
 10 11  1  0
 10  9  2  0
 11 12  2  0
 12  4  1  0
 12  7  1  0
 13  2  1  0
 13 21  1  0
 14 13  2  0
 16 17  2  0
 16 15  1  0
 18 16  1  0
 20 19  1  6
 19 18  1  0
 21 20  1  0
 22 20  1  0
 23 22  2  0
 24 22  1  0
 25 28  1  0
 25 24  1  0
 25 26  1  1
 27 26  1  0
 28 29  1  0
 30 28  2  0
M  END
$$$$
