WQC.pdb
     RDKit          3D

 30 31  0  0  1  0  0  0  0  0999 V2000
   18.0106  -16.3955    7.5799 N   0  0  0  0  0  0  0  0  0  0  0  0
   19.1512  -16.0835    8.3805 C   0  0  1  0  0  0  0  0  0  0  0  0
   19.1033  -14.7296    9.0447 C   0  0  0  0  0  0  0  0  0  0  0  0
   19.3663  -13.6013    8.1476 C   0  0  0  0  0  0  0  0  0  0  0  0
   18.4778  -13.0392    7.2748 C   0  0  0  0  0  0  0  0  0  0  0  0
   19.1121  -12.0128    6.6532 N   0  0  0  0  0  0  0  0  0  0  0  0
   20.3712  -11.9069    7.1030 C   0  0  0  0  0  0  0  0  0  0  0  0
   21.3933  -11.0436    6.7842 C   0  0  0  0  0  0  0  0  0  0  0  0
   22.6255  -11.1571    7.4060 C   0  0  0  0  0  0  0  0  0  0  0  0
   22.8190  -12.1450    8.3491 C   0  0  0  0  0  0  0  0  0  0  0  0
   21.7841  -13.0023    8.6572 C   0  0  0  0  0  0  0  0  0  0  0  0
   20.5457  -12.9072    8.0498 C   0  0  0  0  0  0  0  0  0  0  0  0
   19.3901  -17.0956    9.4458 C   0  0  0  0  0  0  0  0  0  0  0  0
   18.4030  -17.7626    9.9132 O   0  0  0  0  0  0  0  0  0  0  0  0
   22.1045  -22.1004   11.2441 N   0  0  0  0  0  0  0  0  0  0  0  0
   21.1414  -21.8035   10.2457 C   0  0  0  0  0  0  0  0  0  0  0  0
   20.5648  -22.8163    9.7204 O   0  0  0  0  0  0  0  0  0  0  0  0
   20.8051  -20.4091    9.8189 C   0  0  0  0  0  0  0  0  0  0  0  0
   21.6800  -19.4743   10.5862 C   0  0  0  0  0  0  0  0  0  0  0  0
   20.9991  -18.2144   11.0192 C   0  0  2  0  0  0  0  0  0  0  0  0
   20.7022  -17.3113    9.9310 N   0  0  0  0  0  0  0  0  0  0  0  0
   21.6947  -17.5089   12.1108 C   0  0  0  0  0  0  0  0  0  0  0  0
   22.5858  -16.6797   11.7937 O   0  0  0  0  0  0  0  0  0  0  0  0
   21.4298  -17.6998   13.4812 N   0  0  0  0  0  0  0  0  0  0  0  0
   22.2173  -16.9804   14.4568 C   0  0  1  0  0  0  0  0  0  0  0  0
   21.2995  -16.5795   15.5967 C   0  0  0  0  0  0  0  0  0  0  0  0
   19.6002  -16.6250   14.9160 S   0  0  0  0  0  0  0  0  0  0  0  0
   23.3887  -17.7422   14.9338 C   0  0  0  0  0  0  0  0  0  0  0  0
   24.2875  -17.1500   15.7858 O   0  0  0  0  0  0  0  0  0  0  0  0
   23.5658  -18.9188   14.5677 O   0  0  0  0  0  0  0  0  0  0  0  0
  2  1  1  1
  2  3  1  0
  3  4  1  0
  4  5  2  0
  5  6  1  0
  7  6  1  0
  8  7  2  0
  9  8  1  0
 10 11  1  0
 10  9  2  0
 11 12  2  0
 12  4  1  0
 12  7  1  0
 13  2  1  0
 13 21  1  0
 14 13  2  0
 16 17  2  0
 16 15  1  0
 18 16  1  0
 20 19  1  6
 19 18  1  0
 21 20  1  0
 22 20  1  0
 23 22  2  0
 24 22  1  0
 25 28  1  0
 25 24  1  0
 25 26  1  1
 27 26  1  0
 28 29  1  0
 30 28  2  0
M  END
$$$$
