WQC.pdb
     RDKit          3D

 30 31  0  0  1  0  0  0  0  0999 V2000
   27.4383  -22.0811  -13.1751 N   0  0  0  0  0  0  0  0  0  0  0  0
   26.2684  -21.8223  -12.3982 C   0  0  1  0  0  0  0  0  0  0  0  0
   26.3960  -20.6706  -11.4319 C   0  0  0  0  0  0  0  0  0  0  0  0
   27.4908  -20.8032  -10.4671 C   0  0  0  0  0  0  0  0  0  0  0  0
   28.7700  -21.1946  -10.7457 C   0  0  0  0  0  0  0  0  0  0  0  0
   29.4674  -21.1647   -9.5817 N   0  0  0  0  0  0  0  0  0  0  0  0
   28.6728  -20.7680   -8.5767 C   0  0  0  0  0  0  0  0  0  0  0  0
   28.9077  -20.5869   -7.2337 C   0  0  0  0  0  0  0  0  0  0  0  0
   27.8889  -20.1671   -6.3948 C   0  0  0  0  0  0  0  0  0  0  0  0
   26.6347  -19.9320   -6.9188 C   0  0  0  0  0  0  0  0  0  0  0  0
   26.4158  -20.1181   -8.2673 C   0  0  0  0  0  0  0  0  0  0  0  0
   27.4178  -20.5360   -9.1234 C   0  0  0  0  0  0  0  0  0  0  0  0
   25.0711  -21.5647  -13.2447 C   0  0  0  0  0  0  0  0  0  0  0  0
   25.0460  -20.5339  -14.0026 O   0  0  0  0  0  0  0  0  0  0  0  0
   24.2454  -25.3149  -13.9419 N   0  0  0  0  0  0  0  0  0  0  0  0
   23.8865  -25.0994  -15.2973 C   0  0  0  0  0  0  0  0  0  0  0  0
   24.5311  -25.7963  -16.1535 O   0  0  0  0  0  0  0  0  0  0  0  0
   22.8294  -24.1290  -15.7220 C   0  0  0  0  0  0  0  0  0  0  0  0
   22.1954  -23.5774  -14.4883 C   0  0  0  0  0  0  0  0  0  0  0  0
   22.7917  -22.2887  -14.0169 C   0  0  2  0  0  0  0  0  0  0  0  0
   23.9747  -22.4590  -13.2048 N   0  0  0  0  0  0  0  0  0  0  0  0
   21.8250  -21.3949  -13.3539 C   0  0  0  0  0  0  0  0  0  0  0  0
   22.1752  -20.8584  -12.2713 O   0  0  0  0  0  0  0  0  0  0  0  0
   20.5391  -21.1015  -13.8489 N   0  0  0  0  0  0  0  0  0  0  0  0
   19.9406  -19.8229  -13.5385 C   0  0  1  0  0  0  0  0  0  0  0  0
   20.8973  -18.7353  -13.9907 C   0  0  0  0  0  0  0  0  0  0  0  0
   20.1549  -17.1523  -13.4470 S   0  0  0  0  0  0  0  0  0  0  0  0
   18.5960  -19.6531  -14.1243 C   0  0  0  0  0  0  0  0  0  0  0  0
   17.5319  -19.3452  -13.3136 O   0  0  0  0  0  0  0  0  0  0  0  0
   18.4220  -19.7875  -15.3497 O   0  0  0  0  0  0  0  0  0  0  0  0
  2  1  1  6
  2  3  1  0
  3  4  1  0
  4  5  2  0
  5  6  1  0
  7  6  1  0
  8  7  2  0
  9  8  1  0
 10 11  1  0
 10  9  2  0
 11 12  2  0
 12  4  1  0
 12  7  1  0
 13  2  1  0
 13 21  1  0
 14 13  2  0
 16 17  2  0
 16 15  1  0
 18 16  1  0
 20 19  1  1
 19 18  1  0
 21 20  1  0
 22 20  1  0
 23 22  2  0
 24 22  1  0
 25 28  1  0
 25 24  1  0
 25 26  1  6
 27 26  1  0
 28 29  1  0
 30 28  2  0
M  END
$$$$
