WQC.pdb
     RDKit          3D

 30 31  0  0  1  0  0  0  0  0999 V2000
   27.6656  -22.3007   -9.5891 N   0  0  0  0  0  0  0  0  0  0  0  0
   26.7322  -21.2203   -9.5597 C   0  0  1  0  0  0  0  0  0  0  0  0
   27.3561  -19.8521   -9.4351 C   0  0  0  0  0  0  0  0  0  0  0  0
   28.2729  -19.7014   -8.3022 C   0  0  0  0  0  0  0  0  0  0  0  0
   29.5940  -19.3593   -8.3722 C   0  0  0  0  0  0  0  0  0  0  0  0
   30.0693  -19.3097   -7.1019 N   0  0  0  0  0  0  0  0  0  0  0  0
   29.0940  -19.6089   -6.2312 C   0  0  0  0  0  0  0  0  0  0  0  0
   29.0796  -19.6951   -4.8586 C   0  0  0  0  0  0  0  0  0  0  0  0
   27.9157  -20.0367   -4.1904 C   0  0  0  0  0  0  0  0  0  0  0  0
   26.7694  -20.2903   -4.9147 C   0  0  0  0  0  0  0  0  0  0  0  0
   26.8006  -20.1994   -6.2901 C   0  0  0  0  0  0  0  0  0  0  0  0
   27.9508  -19.8595   -6.9780 C   0  0  0  0  0  0  0  0  0  0  0  0
   25.8490  -21.2012  -10.7580 C   0  0  0  0  0  0  0  0  0  0  0  0
   26.1569  -21.9097  -11.7782 O   0  0  0  0  0  0  0  0  0  0  0  0
   19.8399  -19.0675  -10.7941 N   0  0  0  0  0  0  0  0  0  0  0  0
   19.9947  -20.4397  -11.1194 C   0  0  0  0  0  0  0  0  0  0  0  0
   18.9226  -21.1353  -11.0899 O   0  0  0  0  0  0  0  0  0  0  0  0
   21.3114  -21.0550  -11.4761 C   0  0  0  0  0  0  0  0  0  0  0  0
   22.3462  -19.9805  -11.4208 C   0  0  0  0  0  0  0  0  0  0  0  0
   23.7139  -20.4255  -11.8329 C   0  0  2  0  0  0  0  0  0  0  0  0
   24.6801  -20.4030  -10.7588 N   0  0  0  0  0  0  0  0  0  0  0  0
   24.2336  -19.7234  -13.0203 C   0  0  0  0  0  0  0  0  0  0  0  0
   24.6251  -18.5373  -12.8709 O   0  0  0  0  0  0  0  0  0  0  0  0
   24.3217  -20.2890  -14.3076 N   0  0  0  0  0  0  0  0  0  0  0  0
   24.8162  -19.4805  -15.3989 C   0  0  1  0  0  0  0  0  0  0  0  0
   25.9837  -20.2132  -16.0336 C   0  0  0  0  0  0  0  0  0  0  0  0
   26.5100  -19.1873  -17.4560 S   0  0  0  0  0  0  0  0  0  0  0  0
   23.7747  -19.1405  -16.3887 C   0  0  0  0  0  0  0  0  0  0  0  0
   23.9027  -18.0072  -17.1526 O   0  0  0  0  0  0  0  0  0  0  0  0
   22.7810  -19.8762  -16.5344 O   0  0  0  0  0  0  0  0  0  0  0  0
  2  1  1  6
  2  3  1  0
  3  4  1  0
  4  5  2  0
  5  6  1  0
  7  6  1  0
  8  7  2  0
  9  8  1  0
 10 11  1  0
 10  9  2  0
 11 12  2  0
 12  4  1  0
 12  7  1  0
 13  2  1  0
 13 21  1  0
 14 13  2  0
 16 17  2  0
 16 15  1  0
 18 16  1  0
 20 19  1  1
 19 18  1  0
 21 20  1  0
 22 20  1  0
 23 22  2  0
 24 22  1  0
 25 28  1  0
 25 24  1  0
 25 26  1  6
 27 26  1  0
 28 29  1  0
 30 28  2  0
M  END
$$$$
