WQC.pdb
     RDKit          3D

 30 31  0  0  1  0  0  0  0  0999 V2000
   17.0779  -25.2173  -10.6630 N   0  0  0  0  0  0  0  0  0  0  0  0
   17.9794  -25.1023   -9.5615 C   0  0  1  0  0  0  0  0  0  0  0  0
   18.6821  -23.7711   -9.4589 C   0  0  0  0  0  0  0  0  0  0  0  0
   19.4484  -23.3932  -10.6492 C   0  0  0  0  0  0  0  0  0  0  0  0
   20.0534  -24.2493  -11.5258 C   0  0  0  0  0  0  0  0  0  0  0  0
   20.6355  -23.4965  -12.4935 N   0  0  0  0  0  0  0  0  0  0  0  0
   20.4194  -22.1938  -12.2587 C   0  0  0  0  0  0  0  0  0  0  0  0
   20.8021  -21.0601  -12.9369 C   0  0  0  0  0  0  0  0  0  0  0  0
   20.4438  -19.8079  -12.4662 C   0  0  0  0  0  0  0  0  0  0  0  0
   19.6989  -19.7076  -11.3095 C   0  0  0  0  0  0  0  0  0  0  0  0
   19.3233  -20.8539  -10.6417 C   0  0  0  0  0  0  0  0  0  0  0  0
   19.6690  -22.1140  -11.0934 C   0  0  0  0  0  0  0  0  0  0  0  0
   17.3136  -25.3580   -8.2548 C   0  0  0  0  0  0  0  0  0  0  0  0
   16.0855  -25.0332   -8.0998 O   0  0  0  0  0  0  0  0  0  0  0  0
   18.0104  -29.7564   -4.7320 N   0  0  0  0  0  0  0  0  0  0  0  0
   17.6273  -28.9119   -3.6584 C   0  0  0  0  0  0  0  0  0  0  0  0
   17.1667  -29.5098   -2.6267 O   0  0  0  0  0  0  0  0  0  0  0  0
   17.7444  -27.4207   -3.7055 C   0  0  0  0  0  0  0  0  0  0  0  0
   18.3567  -27.0530   -5.0162 C   0  0  0  0  0  0  0  0  0  0  0  0
   17.4491  -26.2808   -5.9211 C   0  0  2  0  0  0  0  0  0  0  0  0
   18.0414  -25.9565   -7.1985 N   0  0  0  0  0  0  0  0  0  0  0  0
   16.8663  -25.0809   -5.2938 C   0  0  0  0  0  0  0  0  0  0  0  0
   17.6416  -24.1255   -5.0321 O   0  0  0  0  0  0  0  0  0  0  0  0
   15.5038  -24.9317   -4.9685 N   0  0  0  0  0  0  0  0  0  0  0  0
   15.0615  -23.7103   -4.3346 C   0  0  1  0  0  0  0  0  0  0  0  0
   13.7215  -23.3288   -4.9358 C   0  0  0  0  0  0  0  0  0  0  0  0
   14.0843  -22.6920   -6.6138 S   0  0  0  0  0  0  0  0  0  0  0  0
   14.9974  -23.8096   -2.8629 C   0  0  0  0  0  0  0  0  0  0  0  0
   15.2930  -24.9994   -2.2453 O   0  0  0  0  0  0  0  0  0  0  0  0
   14.6770  -22.8200   -2.1788 O   0  0  0  0  0  0  0  0  0  0  0  0
  2  1  1  6
  2  3  1  0
  3  4  1  0
  4  5  2  0
  5  6  1  0
  7  6  1  0
  8  7  2  0
  9  8  1  0
 10 11  1  0
 10  9  2  0
 11 12  2  0
 12  4  1  0
 12  7  1  0
 13  2  1  0
 13 21  1  0
 14 13  2  0
 16 17  2  0
 16 15  1  0
 18 16  1  0
 20 19  1  1
 19 18  1  0
 21 20  1  0
 22 20  1  0
 23 22  2  0
 24 22  1  0
 25 28  1  0
 25 24  1  0
 25 26  1  6
 27 26  1  0
 28 29  1  0
 30 28  2  0
M  END
$$$$
