WQC.pdb
     RDKit          3D

 30 31  0  0  1  0  0  0  0  0999 V2000
   28.3946  -20.5639  -10.7304 N   0  0  0  0  0  0  0  0  0  0  0  0
   27.1818  -21.0500  -10.1540 C   0  0  1  0  0  0  0  0  0  0  0  0
   26.9041  -20.5516   -8.7572 C   0  0  0  0  0  0  0  0  0  0  0  0
   28.0954  -20.3918   -7.9192 C   0  0  0  0  0  0  0  0  0  0  0  0
   29.3916  -20.3809   -8.3516 C   0  0  0  0  0  0  0  0  0  0  0  0
   30.1815  -20.1895   -7.2646 N   0  0  0  0  0  0  0  0  0  0  0  0
   29.4291  -20.0793   -6.1598 C   0  0  0  0  0  0  0  0  0  0  0  0
   29.7568  -19.8855   -4.8382 C   0  0  0  0  0  0  0  0  0  0  0  0
   28.7652  -19.8129   -3.8741 C   0  0  0  0  0  0  0  0  0  0  0  0
   27.4443  -19.9372   -4.2515 C   0  0  0  0  0  0  0  0  0  0  0  0
   27.1327  -20.1310   -5.5806 C   0  0  0  0  0  0  0  0  0  0  0  0
   28.1057  -20.2059   -6.5599 C   0  0  0  0  0  0  0  0  0  0  0  0
   25.9902  -20.7309  -10.9874 C   0  0  0  0  0  0  0  0  0  0  0  0
   25.8111  -19.5317  -11.3966 O   0  0  0  0  0  0  0  0  0  0  0  0
   24.2285  -25.4672  -14.5207 N   0  0  0  0  0  0  0  0  0  0  0  0
   23.5019  -24.3972  -15.1035 C   0  0  0  0  0  0  0  0  0  0  0  0
   22.8991  -24.6737  -16.1964 O   0  0  0  0  0  0  0  0  0  0  0  0
   23.4302  -23.0295  -14.5003 C   0  0  0  0  0  0  0  0  0  0  0  0
   24.2159  -23.0496  -13.2312 C   0  0  0  0  0  0  0  0  0  0  0  0
   24.2727  -21.7317  -12.5252 C   0  0  2  0  0  0  0  0  0  0  0  0
   25.0688  -21.7528  -11.3195 N   0  0  0  0  0  0  0  0  0  0  0  0
   22.9479  -21.1385  -12.2682 C   0  0  0  0  0  0  0  0  0  0  0  0
   22.4168  -21.3613  -11.1499 O   0  0  0  0  0  0  0  0  0  0  0  0
   22.2382  -20.3411  -13.1875 N   0  0  0  0  0  0  0  0  0  0  0  0
   20.9458  -19.8145  -12.8110 C   0  0  1  0  0  0  0  0  0  0  0  0
   20.8826  -18.3650  -13.2554 C   0  0  0  0  0  0  0  0  0  0  0  0
   19.2656  -17.7299  -12.6765 S   0  0  0  0  0  0  0  0  0  0  0  0
   19.8185  -20.6047  -13.3448 C   0  0  0  0  0  0  0  0  0  0  0  0
   18.6754  -20.7533  -12.5994 O   0  0  0  0  0  0  0  0  0  0  0  0
   19.8989  -21.1367  -14.4675 O   0  0  0  0  0  0  0  0  0  0  0  0
  2  1  1  6
  2  3  1  0
  3  4  1  0
  4  5  2  0
  5  6  1  0
  7  6  1  0
  8  7  2  0
  9  8  1  0
 10 11  1  0
 10  9  2  0
 11 12  2  0
 12  4  1  0
 12  7  1  0
 13  2  1  0
 13 21  1  0
 14 13  2  0
 16 17  2  0
 16 15  1  0
 18 16  1  0
 20 19  1  1
 19 18  1  0
 21 20  1  0
 22 20  1  0
 23 22  2  0
 24 22  1  0
 25 28  1  0
 25 24  1  0
 25 26  1  6
 27 26  1  0
 28 29  1  0
 30 28  2  0
M  END
$$$$
