WQC.pdb
     RDKit          3D

 30 31  0  0  1  0  0  0  0  0999 V2000
   26.7967  -22.0386  -12.9916 N   0  0  0  0  0  0  0  0  0  0  0  0
   25.8162  -21.5599  -12.0703 C   0  0  1  0  0  0  0  0  0  0  0  0
   26.2941  -20.4568  -11.1585 C   0  0  0  0  0  0  0  0  0  0  0  0
   27.4731  -20.7963  -10.3575 C   0  0  0  0  0  0  0  0  0  0  0  0
   28.6163  -21.3897  -10.8139 C   0  0  0  0  0  0  0  0  0  0  0  0
   29.4626  -21.5075   -9.7595 N   0  0  0  0  0  0  0  0  0  0  0  0
   28.8935  -21.0091   -8.6519 C   0  0  0  0  0  0  0  0  0  0  0  0
   29.3391  -20.9050   -7.3549 C   0  0  0  0  0  0  0  0  0  0  0  0
   28.5323  -20.3419   -6.3802 C   0  0  0  0  0  0  0  0  0  0  0  0
   27.2761  -19.8860   -6.7222 C   0  0  0  0  0  0  0  0  0  0  0  0
   26.8446  -19.9978   -8.0269 C   0  0  0  0  0  0  0  0  0  0  0  0
   27.6330  -20.5556   -9.0163 C   0  0  0  0  0  0  0  0  0  0  0  0
   24.5861  -21.0735  -12.7533 C   0  0  0  0  0  0  0  0  0  0  0  0
   24.6808  -20.1630  -13.6475 O   0  0  0  0  0  0  0  0  0  0  0  0
   22.6359  -21.8285  -17.3332 N   0  0  0  0  0  0  0  0  0  0  0  0
   21.3714  -21.3831  -16.8695 C   0  0  0  0  0  0  0  0  0  0  0  0
   20.4956  -21.1755  -17.7773 O   0  0  0  0  0  0  0  0  0  0  0  0
   21.0587  -21.1635  -15.4226 C   0  0  0  0  0  0  0  0  0  0  0  0
   22.2778  -21.5129  -14.6350 C   0  0  0  0  0  0  0  0  0  0  0  0
   22.1205  -21.3461  -13.1566 C   0  0  2  0  0  0  0  0  0  0  0  0
   23.3266  -21.6205  -12.4097 N   0  0  0  0  0  0  0  0  0  0  0  0
   20.9760  -22.0859  -12.5944 C   0  0  0  0  0  0  0  0  0  0  0  0
   21.0444  -23.3418  -12.5803 O   0  0  0  0  0  0  0  0  0  0  0  0
   19.8141  -21.4834  -12.0730 N   0  0  0  0  0  0  0  0  0  0  0  0
   18.7936  -22.3187  -11.4812 C   0  0  1  0  0  0  0  0  0  0  0  0
   17.8621  -21.4259  -10.6825 C   0  0  0  0  0  0  0  0  0  0  0  0
   16.6337  -22.5420   -9.9092 S   0  0  0  0  0  0  0  0  0  0  0  0
   18.0621  -23.1327  -12.4723 C   0  0  0  0  0  0  0  0  0  0  0  0
   17.6833  -22.5749  -13.6680 O   0  0  0  0  0  0  0  0  0  0  0  0
   17.7871  -24.3224  -12.2296 O   0  0  0  0  0  0  0  0  0  0  0  0
  2  1  1  6
  2  3  1  0
  3  4  1  0
  4  5  2  0
  5  6  1  0
  7  6  1  0
  8  7  2  0
  9  8  1  0
 10 11  1  0
 10  9  2  0
 11 12  2  0
 12  4  1  0
 12  7  1  0
 13  2  1  0
 13 21  1  0
 14 13  2  0
 16 17  2  0
 16 15  1  0
 18 16  1  0
 20 19  1  6
 19 18  1  0
 21 20  1  0
 22 20  1  0
 23 22  2  0
 24 22  1  0
 25 28  1  0
 25 24  1  0
 25 26  1  6
 27 26  1  0
 28 29  1  0
 30 28  2  0
M  END
$$$$
