WQC.pdb
     RDKit          3D

 30 31  0  0  1  0  0  0  0  0999 V2000
   26.8120  -22.6814  -14.5419 N   0  0  0  0  0  0  0  0  0  0  0  0
   25.7640  -21.8464  -14.0484 C   0  0  1  0  0  0  0  0  0  0  0  0
   26.2155  -20.4941  -13.5547 C   0  0  0  0  0  0  0  0  0  0  0  0
   27.0846  -20.5349  -12.3757 C   0  0  0  0  0  0  0  0  0  0  0  0
   28.4502  -20.4874  -12.3768 C   0  0  0  0  0  0  0  0  0  0  0  0
   28.8598  -20.5301  -11.0836 N   0  0  0  0  0  0  0  0  0  0  0  0
   27.8000  -20.6033  -10.2649 C   0  0  0  0  0  0  0  0  0  0  0  0
   27.6976  -20.6718   -8.8951 C   0  0  0  0  0  0  0  0  0  0  0  0
   26.4548  -20.7474   -8.2885 C   0  0  0  0  0  0  0  0  0  0  0  0
   25.3191  -20.7536   -9.0715 C   0  0  0  0  0  0  0  0  0  0  0  0
   25.4391  -20.6843  -10.4433 C   0  0  0  0  0  0  0  0  0  0  0  0
   26.6690  -20.6075  -11.0702 C   0  0  0  0  0  0  0  0  0  0  0  0
   24.6961  -21.6188  -15.0605 C   0  0  0  0  0  0  0  0  0  0  0  0
   25.0180  -21.4432  -16.2866 O   0  0  0  0  0  0  0  0  0  0  0  0
   20.5327  -25.1919  -14.4093 N   0  0  0  0  0  0  0  0  0  0  0  0
   21.3132  -24.9702  -15.5731 C   0  0  0  0  0  0  0  0  0  0  0  0
   20.9978  -25.6792  -16.5890 O   0  0  0  0  0  0  0  0  0  0  0  0
   22.4339  -23.9804  -15.6331 C   0  0  0  0  0  0  0  0  0  0  0  0
   21.9218  -22.7529  -16.3109 C   0  0  0  0  0  0  0  0  0  0  0  0
   22.2447  -21.4787  -15.5964 C   0  0  2  0  0  0  0  0  0  0  0  0
   23.3386  -21.5992  -14.6600 N   0  0  0  0  0  0  0  0  0  0  0  0
   21.0770  -20.8433  -14.9593 C   0  0  0  0  0  0  0  0  0  0  0  0
   21.1222  -20.6549  -13.7164 O   0  0  0  0  0  0  0  0  0  0  0  0
   19.9172  -20.4336  -15.6460 N   0  0  0  0  0  0  0  0  0  0  0  0
   19.4024  -19.1012  -15.4248 C   0  0  1  0  0  0  0  0  0  0  0  0
   20.4763  -18.1099  -15.8329 C   0  0  0  0  0  0  0  0  0  0  0  0
   19.7987  -16.4501  -15.4603 S   0  0  0  0  0  0  0  0  0  0  0  0
   18.1253  -18.8486  -16.1214 C   0  0  0  0  0  0  0  0  0  0  0  0
   17.0908  -18.2431  -15.4524 O   0  0  0  0  0  0  0  0  0  0  0  0
   17.9815  -19.1816  -17.3123 O   0  0  0  0  0  0  0  0  0  0  0  0
  2  1  1  6
  2  3  1  0
  3  4  1  0
  4  5  2  0
  5  6  1  0
  7  6  1  0
  8  7  2  0
  9  8  1  0
 10 11  1  0
 10  9  2  0
 11 12  2  0
 12  4  1  0
 12  7  1  0
 13  2  1  0
 13 21  1  0
 14 13  2  0
 16 17  2  0
 16 15  1  0
 18 16  1  0
 20 19  1  1
 19 18  1  0
 21 20  1  0
 22 20  1  0
 23 22  2  0
 24 22  1  0
 25 28  1  0
 25 24  1  0
 25 26  1  6
 27 26  1  0
 28 29  1  0
 30 28  2  0
M  END
$$$$
