WQC.pdb
     RDKit          3D

 30 31  0  0  1  0  0  0  0  0999 V2000
   24.3090  -19.7202   -9.2907 N   0  0  0  0  0  0  0  0  0  0  0  0
   25.6255  -19.9514   -9.7934 C   0  0  1  0  0  0  0  0  0  0  0  0
   26.3778  -21.0616   -9.1020 C   0  0  0  0  0  0  0  0  0  0  0  0
   26.5087  -20.8978   -7.6519 C   0  0  0  0  0  0  0  0  0  0  0  0
   25.5901  -21.2689   -6.7108 C   0  0  0  0  0  0  0  0  0  0  0  0
   26.1067  -20.9612   -5.4942 N   0  0  0  0  0  0  0  0  0  0  0  0
   27.3206  -20.4080   -5.6337 C   0  0  0  0  0  0  0  0  0  0  0  0
   28.2267  -19.9321   -4.7150 C   0  0  0  0  0  0  0  0  0  0  0  0
   29.4316  -19.3929   -5.1341 C   0  0  0  0  0  0  0  0  0  0  0  0
   29.7150  -19.3371   -6.4829 C   0  0  0  0  0  0  0  0  0  0  0  0
   28.7959  -19.8185   -7.3909 C   0  0  0  0  0  0  0  0  0  0  0  0
   27.5875  -20.3615   -6.9954 C   0  0  0  0  0  0  0  0  0  0  0  0
   25.6314  -20.2487  -11.2521 C   0  0  0  0  0  0  0  0  0  0  0  0
   24.6212  -20.8307  -11.7800 O   0  0  0  0  0  0  0  0  0  0  0  0
   29.8635  -18.0921  -16.6790 N   0  0  0  0  0  0  0  0  0  0  0  0
   28.6714  -17.7608  -15.9850 C   0  0  0  0  0  0  0  0  0  0  0  0
   28.5065  -16.5171  -15.7394 O   0  0  0  0  0  0  0  0  0  0  0  0
   27.6603  -18.7784  -15.5587 C   0  0  0  0  0  0  0  0  0  0  0  0
   27.7031  -18.8667  -14.0692 C   0  0  0  0  0  0  0  0  0  0  0  0
   26.7041  -19.8137  -13.4828 C   0  0  2  0  0  0  0  0  0  0  0  0
   26.7497  -19.8861  -12.0404 N   0  0  0  0  0  0  0  0  0  0  0  0
   26.7450  -21.1622  -14.0769 C   0  0  0  0  0  0  0  0  0  0  0  0
   27.7318  -21.8914  -13.7993 O   0  0  0  0  0  0  0  0  0  0  0  0
   25.7568  -21.6885  -14.9319 N   0  0  0  0  0  0  0  0  0  0  0  0
   25.9403  -23.0089  -15.4906 C   0  0  1  0  0  0  0  0  0  0  0  0
   24.6492  -23.7826  -15.2990 C   0  0  0  0  0  0  0  0  0  0  0  0
   24.5160  -24.1047  -13.5013 S   0  0  0  0  0  0  0  0  0  0  0  0
   26.3660  -22.9877  -16.9042 C   0  0  0  0  0  0  0  0  0  0  0  0
   26.6648  -24.1643  -17.5450 O   0  0  0  0  0  0  0  0  0  0  0  0
   26.4552  -21.9085  -17.5184 O   0  0  0  0  0  0  0  0  0  0  0  0
  2  1  1  1
  2  3  1  0
  3  4  1  0
  4  5  2  0
  5  6  1  0
  7  6  1  0
  8  7  2  0
  9  8  1  0
 10 11  1  0
 10  9  2  0
 11 12  2  0
 12  4  1  0
 12  7  1  0
 13  2  1  0
 13 21  1  0
 14 13  2  0
 16 17  2  0
 16 15  1  0
 18 16  1  0
 20 19  1  6
 19 18  1  0
 21 20  1  0
 22 20  1  0
 23 22  2  0
 24 22  1  0
 25 28  1  0
 25 24  1  0
 25 26  1  6
 27 26  1  0
 28 29  1  0
 30 28  2  0
M  END
$$$$
