WQC.pdb
     RDKit          3D

 30 31  0  0  1  0  0  0  0  0999 V2000
   26.6889  -18.5349   -8.9090 N   0  0  0  0  0  0  0  0  0  0  0  0
   26.7525  -19.8963   -9.3351 C   0  0  1  0  0  0  0  0  0  0  0  0
   26.5190  -20.9100   -8.2422 C   0  0  0  0  0  0  0  0  0  0  0  0
   27.0458  -20.5240   -6.9305 C   0  0  0  0  0  0  0  0  0  0  0  0
   26.3254  -20.0057   -5.8914 C   0  0  0  0  0  0  0  0  0  0  0  0
   27.1845  -19.8077   -4.8595 N   0  0  0  0  0  0  0  0  0  0  0  0
   28.4233  -20.1829   -5.2107 C   0  0  0  0  0  0  0  0  0  0  0  0
   29.6170  -20.1725   -4.5275 C   0  0  0  0  0  0  0  0  0  0  0  0
   30.7772  -20.6191   -5.1378 C   0  0  0  0  0  0  0  0  0  0  0  0
   30.7251  -21.0748   -6.4387 C   0  0  0  0  0  0  0  0  0  0  0  0
   29.5205  -21.0787   -7.1096 C   0  0  0  0  0  0  0  0  0  0  0  0
   28.3500  -20.6383   -6.5202 C   0  0  0  0  0  0  0  0  0  0  0  0
   25.7908  -20.1927  -10.4322 C   0  0  0  0  0  0  0  0  0  0  0  0
   24.5486  -19.9331  -10.2676 O   0  0  0  0  0  0  0  0  0  0  0  0
   28.8922  -21.2107  -15.3535 N   0  0  0  0  0  0  0  0  0  0  0  0
   27.9263  -22.2479  -15.2921 C   0  0  0  0  0  0  0  0  0  0  0  0
   28.2542  -23.3387  -15.8726 O   0  0  0  0  0  0  0  0  0  0  0  0
   26.6069  -22.1006  -14.6015 C   0  0  0  0  0  0  0  0  0  0  0  0
   26.5129  -20.7005  -14.0926 C   0  0  0  0  0  0  0  0  0  0  0  0
   25.6049  -20.5365  -12.9148 C   0  0  2  0  0  0  0  0  0  0  0  0
   26.2566  -20.7565  -11.6441 N   0  0  0  0  0  0  0  0  0  0  0  0
   24.3620  -21.3234  -13.0097 C   0  0  0  0  0  0  0  0  0  0  0  0
   24.4401  -22.5624  -12.8069 O   0  0  0  0  0  0  0  0  0  0  0  0
   23.0961  -20.7836  -13.3109 N   0  0  0  0  0  0  0  0  0  0  0  0
   21.9533  -21.6659  -13.3798 C   0  0  1  0  0  0  0  0  0  0  0  0
   20.7240  -20.8732  -12.9763 C   0  0  0  0  0  0  0  0  0  0  0  0
   19.6841  -22.0187  -11.9967 S   0  0  0  0  0  0  0  0  0  0  0  0
   21.7895  -22.3026  -14.7019 C   0  0  0  0  0  0  0  0  0  0  0  0
   21.0941  -23.4811  -14.8108 O   0  0  0  0  0  0  0  0  0  0  0  0
   22.2786  -21.7762  -15.7186 O   0  0  0  0  0  0  0  0  0  0  0  0
  2  1  1  1
  2  3  1  0
  3  4  1  0
  4  5  2  0
  5  6  1  0
  7  6  1  0
  8  7  2  0
  9  8  1  0
 10 11  1  0
 10  9  2  0
 11 12  2  0
 12  4  1  0
 12  7  1  0
 13  2  1  0
 13 21  1  0
 14 13  2  0
 16 17  2  0
 16 15  1  0
 18 16  1  0
 20 19  1  6
 19 18  1  0
 21 20  1  0
 22 20  1  0
 23 22  2  0
 24 22  1  0
 25 28  1  0
 25 24  1  0
 25 26  1  6
 27 26  1  0
 28 29  1  0
 30 28  2  0
M  END
$$$$
