WQC.pdb
     RDKit          3D

 30 31  0  0  1  0  0  0  0  0999 V2000
   20.8445  -15.1832  -17.4004 N   0  0  0  0  0  0  0  0  0  0  0  0
   21.3049  -16.5339  -17.3487 C   0  0  1  0  0  0  0  0  0  0  0  0
   22.7589  -16.6900  -16.9771 C   0  0  0  0  0  0  0  0  0  0  0  0
   23.7010  -16.3455  -18.0451 C   0  0  0  0  0  0  0  0  0  0  0  0
   23.9534  -15.0917  -18.5263 C   0  0  0  0  0  0  0  0  0  0  0  0
   24.9005  -15.2091  -19.4912 N   0  0  0  0  0  0  0  0  0  0  0  0
   25.2554  -16.4943  -19.6369 C   0  0  0  0  0  0  0  0  0  0  0  0
   26.1561  -17.1118  -20.4731 C   0  0  0  0  0  0  0  0  0  0  0  0
   26.3305  -18.4847  -20.4234 C   0  0  0  0  0  0  0  0  0  0  0  0
   25.5918  -19.2286  -19.5269 C   0  0  0  0  0  0  0  0  0  0  0  0
   24.6932  -18.5942  -18.6956 C   0  0  0  0  0  0  0  0  0  0  0  0
   24.5031  -17.2251  -18.7273 C   0  0  0  0  0  0  0  0  0  0  0  0
   20.5107  -17.3679  -16.4053 C   0  0  0  0  0  0  0  0  0  0  0  0
   20.0043  -16.8284  -15.3612 O   0  0  0  0  0  0  0  0  0  0  0  0
   17.2466  -22.2395  -18.2453 N   0  0  0  0  0  0  0  0  0  0  0  0
   17.0685  -22.3212  -16.8403 C   0  0  0  0  0  0  0  0  0  0  0  0
   16.1262  -23.0920  -16.4502 O   0  0  0  0  0  0  0  0  0  0  0  0
   17.9122  -21.5671  -15.8610 C   0  0  0  0  0  0  0  0  0  0  0  0
   18.8887  -20.7474  -16.6373 C   0  0  0  0  0  0  0  0  0  0  0  0
   19.4513  -19.5857  -15.8807 C   0  0  2  0  0  0  0  0  0  0  0  0
   20.3224  -18.7456  -16.6702 N   0  0  0  0  0  0  0  0  0  0  0  0
   20.0965  -19.9618  -14.6097 C   0  0  0  0  0  0  0  0  0  0  0  0
   21.3051  -20.3080  -14.6500 O   0  0  0  0  0  0  0  0  0  0  0  0
   19.4531  -19.9596  -13.3564 N   0  0  0  0  0  0  0  0  0  0  0  0
   20.1769  -20.4208  -12.1933 C   0  0  1  0  0  0  0  0  0  0  0  0
   19.8845  -19.4665  -11.0504 C   0  0  0  0  0  0  0  0  0  0  0  0
   20.3547  -17.8016  -11.6504 S   0  0  0  0  0  0  0  0  0  0  0  0
   19.8707  -21.8202  -11.8355 C   0  0  0  0  0  0  0  0  0  0  0  0
   20.4864  -22.3987  -10.7535 O   0  0  0  0  0  0  0  0  0  0  0  0
   19.0568  -22.4783  -12.5095 O   0  0  0  0  0  0  0  0  0  0  0  0
  2  1  1  1
  2  3  1  0
  3  4  1  0
  4  5  2  0
  5  6  1  0
  7  6  1  0
  8  7  2  0
  9  8  1  0
 10 11  1  0
 10  9  2  0
 11 12  2  0
 12  4  1  0
 12  7  1  0
 13  2  1  0
 13 21  1  0
 14 13  2  0
 16 17  2  0
 16 15  1  0
 18 16  1  0
 20 19  1  6
 19 18  1  0
 21 20  1  0
 22 20  1  0
 23 22  2  0
 24 22  1  0
 25 28  1  0
 25 24  1  0
 25 26  1  1
 27 26  1  0
 28 29  1  0
 30 28  2  0
M  END
$$$$
