WQC.pdb
     RDKit          3D

 30 31  0  0  1  0  0  0  0  0999 V2000
   25.2444  -16.8361  -18.0195 N   0  0  0  0  0  0  0  0  0  0  0  0
   25.8298  -17.7382  -17.0800 C   0  0  1  0  0  0  0  0  0  0  0  0
   26.1797  -17.1214  -15.7482 C   0  0  0  0  0  0  0  0  0  0  0  0
   27.2043  -16.0759  -15.8114 C   0  0  0  0  0  0  0  0  0  0  0  0
   27.1353  -14.8411  -15.2302 C   0  0  0  0  0  0  0  0  0  0  0  0
   28.2939  -14.1931  -15.5126 N   0  0  0  0  0  0  0  0  0  0  0  0
   29.0930  -14.9759  -16.2527 C   0  0  0  0  0  0  0  0  0  0  0  0
   30.3453  -14.7729  -16.7839 C   0  0  0  0  0  0  0  0  0  0  0  0
   30.9581  -15.7647  -17.5315 C   0  0  0  0  0  0  0  0  0  0  0  0
   30.3004  -16.9593  -17.7391 C   0  0  0  0  0  0  0  0  0  0  0  0
   29.0455  -17.1468  -17.1996 C   0  0  0  0  0  0  0  0  0  0  0  0
   28.4150  -16.1713  -16.4497 C   0  0  0  0  0  0  0  0  0  0  0  0
   24.9632  -18.9187  -16.8117 C   0  0  0  0  0  0  0  0  0  0  0  0
   23.7137  -18.8565  -17.0811 O   0  0  0  0  0  0  0  0  0  0  0  0
   27.1189  -24.8158  -16.1819 N   0  0  0  0  0  0  0  0  0  0  0  0
   25.7676  -24.9398  -15.7684 C   0  0  0  0  0  0  0  0  0  0  0  0
   25.4044  -26.1163  -15.4243 O   0  0  0  0  0  0  0  0  0  0  0  0
   24.8126  -23.7883  -15.7286 C   0  0  0  0  0  0  0  0  0  0  0  0
   25.5821  -22.5475  -16.0394 C   0  0  0  0  0  0  0  0  0  0  0  0
   24.7597  -21.2977  -16.0276 C   0  0  2  0  0  0  0  0  0  0  0  0
   25.5263  -20.0959  -16.2633 N   0  0  0  0  0  0  0  0  0  0  0  0
   23.9156  -21.1542  -14.8276 C   0  0  0  0  0  0  0  0  0  0  0  0
   24.4923  -21.1223  -13.7101 O   0  0  0  0  0  0  0  0  0  0  0  0
   22.5108  -21.0502  -14.8471 N   0  0  0  0  0  0  0  0  0  0  0  0
   21.7962  -20.9376  -13.5958 C   0  0  1  0  0  0  0  0  0  0  0  0
   21.1795  -19.5527  -13.5311 C   0  0  0  0  0  0  0  0  0  0  0  0
   19.9863  -19.4665  -14.9174 S   0  0  0  0  0  0  0  0  0  0  0  0
   20.7884  -21.9996  -13.4045 C   0  0  0  0  0  0  0  0  0  0  0  0
   20.5029  -22.8632  -14.4327 O   0  0  0  0  0  0  0  0  0  0  0  0
   20.1962  -22.1164  -12.3157 O   0  0  0  0  0  0  0  0  0  0  0  0
  2  1  1  6
  2  3  1  0
  3  4  1  0
  4  5  2  0
  5  6  1  0
  7  6  1  0
  8  7  2  0
  9  8  1  0
 10 11  1  0
 10  9  2  0
 11 12  2  0
 12  4  1  0
 12  7  1  0
 13  2  1  0
 13 21  1  0
 14 13  2  0
 16 17  2  0
 16 15  1  0
 18 16  1  0
 20 19  1  1
 19 18  1  0
 21 20  1  0
 22 20  1  0
 23 22  2  0
 24 22  1  0
 25 28  1  0
 25 24  1  0
 25 26  1  6
 27 26  1  0
 28 29  1  0
 30 28  2  0
M  END
$$$$
