VPV.pdb
     RDKit          3D

 22 22  0  0  1  0  0  0  0  0999 V2000
   14.5379  -11.3859  -16.7310 C   0  0  0  0  0  0  0  0  0  0  0  0
   14.8058  -10.6905  -15.4157 C   0  0  2  0  0  0  0  0  0  0  0  0
   14.4859   -9.2247  -15.6140 C   0  0  0  0  0  0  0  0  0  0  0  0
   16.2521  -10.8804  -14.9941 C   0  0  2  0  0  0  0  0  0  0  0  0
   16.6420  -12.2623  -15.0190 N   0  0  0  0  0  0  0  0  0  0  0  0
   16.5730  -10.1522  -13.7640 C   0  0  0  0  0  0  0  0  0  0  0  0
   16.2344  -10.7205  -12.6661 O   0  0  0  0  0  0  0  0  0  0  0  0
   17.2145   -8.8925  -13.6631 N   0  0  0  0  0  0  0  0  0  0  0  0
   17.6657   -7.9565  -14.6663 C   0  0  0  0  0  0  0  0  0  0  0  0
   19.0725   -7.6154  -14.1486 C   0  0  0  0  0  0  0  0  0  0  0  0
   18.8832   -7.5264  -12.6695 C   0  0  0  0  0  0  0  0  0  0  0  0
   17.5900   -8.2126  -12.4048 C   0  0  1  0  0  0  0  0  0  0  0  0
   16.5104   -7.3585  -11.9144 C   0  0  0  0  0  0  0  0  0  0  0  0
   15.7770   -6.7890  -12.7623 O   0  0  0  0  0  0  0  0  0  0  0  0
   13.3603   -6.1091   -8.2825 C   0  0  0  0  0  0  0  0  0  0  0  0
   14.5784   -6.8719   -8.7379 C   0  0  2  0  0  0  0  0  0  0  0  0
   15.6427   -6.7617   -7.6671 C   0  0  0  0  0  0  0  0  0  0  0  0
   15.1193   -6.3671  -10.0516 C   0  0  2  0  0  0  0  0  0  0  0  0
   16.2239   -7.1207  -10.5437 N   0  0  0  0  0  0  0  0  0  0  0  0
   15.3898   -4.9243   -9.9266 C   0  0  0  0  0  0  0  0  0  0  0  0
   14.4323   -3.9493  -10.1468 O   0  0  0  0  0  0  0  0  0  0  0  0
   16.5427   -4.5448   -9.6047 O   0  0  0  0  0  0  0  0  0  0  0  0
  2  1  1  6
  2  4  1  0
  2  3  1  0
  4  6  1  0
  4  5  1  1
  6  8  1  0
  6  7  2  0
  8 12  1  0
  9 10  1  0
  9  8  1  0
 10 11  1  0
 11 12  1  0
 12 13  1  6
 13 14  2  0
 16 18  1  0
 16 15  1  1
 17 16  1  0
 18 20  1  0
 19 13  1  0
 18 19  1  1
 20 21  1  0
 22 20  2  0
M  END
$$$$
