VPV.pdb
     RDKit          3D

 22 22  0  0  1  0  0  0  0  0999 V2000
   26.6777  -15.7066  -17.5300 C   0  0  0  0  0  0  0  0  0  0  0  0
   26.2659  -16.7184  -16.4851 C   0  0  2  0  0  0  0  0  0  0  0  0
   26.6300  -16.1378  -15.1357 C   0  0  0  0  0  0  0  0  0  0  0  0
   26.9700  -18.0438  -16.7159 C   0  0  2  0  0  0  0  0  0  0  0  0
   26.8010  -18.5147  -18.0620 N   0  0  0  0  0  0  0  0  0  0  0  0
   26.6803  -19.0185  -15.6612 C   0  0  0  0  0  0  0  0  0  0  0  0
   25.5741  -19.6569  -15.7699 O   0  0  0  0  0  0  0  0  0  0  0  0
   27.4911  -19.3263  -14.5402 N   0  0  0  0  0  0  0  0  0  0  0  0
   28.6755  -18.6969  -14.0044 C   0  0  0  0  0  0  0  0  0  0  0  0
   29.5786  -19.9164  -13.7574 C   0  0  0  0  0  0  0  0  0  0  0  0
   28.6322  -20.9450  -13.2304 C   0  0  0  0  0  0  0  0  0  0  0  0
   27.2795  -20.4508  -13.6037 C   0  0  1  0  0  0  0  0  0  0  0  0
   26.4179  -20.0646  -12.4884 C   0  0  0  0  0  0  0  0  0  0  0  0
   26.5439  -18.9045  -12.0197 O   0  0  0  0  0  0  0  0  0  0  0  0
   22.7411  -22.1582  -11.4409 C   0  0  0  0  0  0  0  0  0  0  0  0
   23.0908  -20.7102  -11.2086 C   0  0  2  0  0  0  0  0  0  0  0  0
   22.7578  -19.9284  -12.4614 C   0  0  0  0  0  0  0  0  0  0  0  0
   24.5433  -20.5155  -10.8543 C   0  0  2  0  0  0  0  0  0  0  0  0
   25.4424  -20.9049  -11.8889 N   0  0  0  0  0  0  0  0  0  0  0  0
   24.8042  -21.1689   -9.5599 C   0  0  0  0  0  0  0  0  0  0  0  0
   24.1927  -20.7868   -8.3784 O   0  0  0  0  0  0  0  0  0  0  0  0
   25.6202  -22.1221   -9.5106 O   0  0  0  0  0  0  0  0  0  0  0  0
  2  1  1  6
  2  4  1  0
  2  3  1  0
  4  6  1  0
  4  5  1  6
  6  8  1  0
  6  7  2  0
  8 12  1  0
  9 10  1  0
  9  8  1  0
 10 11  1  0
 11 12  1  0
 12 13  1  1
 13 14  2  0
 16 18  1  0
 16 15  1  6
 17 16  1  0
 18 20  1  0
 19 13  1  0
 18 19  1  6
 20 21  1  0
 22 20  2  0
M  END
$$$$
