VPV.pdb
     RDKit          3D

 22 22  0  0  1  0  0  0  0  0999 V2000
   27.1482  -16.1821  -17.2547 C   0  0  0  0  0  0  0  0  0  0  0  0
   26.6766  -17.1913  -16.2328 C   0  0  2  0  0  0  0  0  0  0  0  0
   26.9209  -16.5884  -14.8663 C   0  0  0  0  0  0  0  0  0  0  0  0
   27.4243  -18.5034  -16.3910 C   0  0  2  0  0  0  0  0  0  0  0  0
   27.3337  -19.0154  -17.7297 N   0  0  0  0  0  0  0  0  0  0  0  0
   27.1076  -19.4561  -15.3241 C   0  0  0  0  0  0  0  0  0  0  0  0
   26.0287  -20.1322  -15.4720 O   0  0  0  0  0  0  0  0  0  0  0  0
   27.8656  -19.7057  -14.1529 N   0  0  0  0  0  0  0  0  0  0  0  0
   29.0519  -19.0777  -13.6194 C   0  0  0  0  0  0  0  0  0  0  0  0
   29.9007  -20.3047  -13.2481 C   0  0  0  0  0  0  0  0  0  0  0  0
   28.8992  -21.2586  -12.6837 C   0  0  0  0  0  0  0  0  0  0  0  0
   27.5796  -20.7490  -13.1447 C   0  0  1  0  0  0  0  0  0  0  0  0
   26.6928  -20.2513  -12.0952 C   0  0  0  0  0  0  0  0  0  0  0  0
   26.8002  -19.0457  -11.7545 O   0  0  0  0  0  0  0  0  0  0  0  0
   22.9613  -20.3946  -12.1801 C   0  0  0  0  0  0  0  0  0  0  0  0
   23.3460  -20.8465  -10.7942 C   0  0  2  0  0  0  0  0  0  0  0  0
   22.4317  -20.1682   -9.7964 C   0  0  0  0  0  0  0  0  0  0  0  0
   24.7842  -20.5375  -10.4634 C   0  0  2  0  0  0  0  0  0  0  0  0
   25.7120  -21.0306  -11.4259 N   0  0  0  0  0  0  0  0  0  0  0  0
   25.0578  -20.9857   -9.0869 C   0  0  0  0  0  0  0  0  0  0  0  0
   24.6695  -20.2748   -7.9644 O   0  0  0  0  0  0  0  0  0  0  0  0
   25.6735  -22.0653   -8.9072 O   0  0  0  0  0  0  0  0  0  0  0  0
  2  1  1  6
  2  4  1  0
  2  3  1  0
  4  6  1  0
  4  5  1  6
  6  8  1  0
  6  7  2  0
  8 12  1  0
  9 10  1  0
  9  8  1  0
 10 11  1  0
 11 12  1  0
 12 13  1  1
 13 14  2  0
 16 18  1  0
 16 15  1  6
 17 16  1  0
 18 20  1  0
 19 13  1  0
 18 19  1  6
 20 21  1  0
 22 20  2  0
M  END
$$$$
