VPV.pdb
     RDKit          3D

 22 22  0  0  1  0  0  0  0  0999 V2000
   25.5942  -23.7346  -19.3602 C   0  0  0  0  0  0  0  0  0  0  0  0
   25.7243  -23.3006  -17.9180 C   0  0  2  0  0  0  0  0  0  0  0  0
   24.7662  -22.1474  -17.7122 C   0  0  0  0  0  0  0  0  0  0  0  0
   27.1519  -22.8845  -17.6105 C   0  0  2  0  0  0  0  0  0  0  0  0
   28.0973  -23.9059  -17.9643 N   0  0  0  0  0  0  0  0  0  0  0  0
   27.2913  -22.3300  -16.2617 C   0  0  0  0  0  0  0  0  0  0  0  0
   27.6063  -23.1617  -15.3385 O   0  0  0  0  0  0  0  0  0  0  0  0
   27.1147  -20.9782  -15.8743 N   0  0  0  0  0  0  0  0  0  0  0  0
   26.6759  -19.8139  -16.6079 C   0  0  0  0  0  0  0  0  0  0  0  0
   27.7256  -18.7754  -16.1797 C   0  0  0  0  0  0  0  0  0  0  0  0
   27.9216  -19.0624  -14.7268 C   0  0  0  0  0  0  0  0  0  0  0  0
   27.3632  -20.4266  -14.5251 C   0  0  1  0  0  0  0  0  0  0  0  0
   26.1688  -20.5027  -13.6866 C   0  0  0  0  0  0  0  0  0  0  0  0
   25.0468  -20.4329  -14.2502 O   0  0  0  0  0  0  0  0  0  0  0  0
   25.3808  -19.6092   -9.3909 C   0  0  0  0  0  0  0  0  0  0  0  0
   25.3361  -20.9909   -9.9924 C   0  0  2  0  0  0  0  0  0  0  0  0
   26.6664  -21.6680   -9.7406 C   0  0  0  0  0  0  0  0  0  0  0  0
   25.0445  -20.9687  -11.4716 C   0  0  2  0  0  0  0  0  0  0  0  0
   26.1781  -20.6505  -12.2741 N   0  0  0  0  0  0  0  0  0  0  0  0
   23.8813  -20.0965  -11.7094 C   0  0  0  0  0  0  0  0  0  0  0  0
   22.5856  -20.4485  -11.3729 O   0  0  0  0  0  0  0  0  0  0  0  0
   24.0588  -18.9741  -12.2438 O   0  0  0  0  0  0  0  0  0  0  0  0
  2  1  1  6
  2  4  1  0
  2  3  1  0
  4  6  1  0
  4  5  1  1
  6  8  1  0
  6  7  2  0
  8 12  1  0
  9 10  1  0
  9  8  1  0
 10 11  1  0
 11 12  1  0
 12 13  1  1
 13 14  2  0
 16 18  1  0
 16 15  1  6
 17 16  1  0
 18 20  1  0
 19 13  1  0
 18 19  1  6
 20 21  1  0
 22 20  2  0
M  END
$$$$
