VPV.pdb
     RDKit          3D

 22 22  0  0  1  0  0  0  0  0999 V2000
   26.0206  -17.9854  -14.2053 C   0  0  0  0  0  0  0  0  0  0  0  0
   27.2640  -18.4752  -14.9117 C   0  0  2  0  0  0  0  0  0  0  0  0
   27.3114  -17.7861  -16.2583 C   0  0  0  0  0  0  0  0  0  0  0  0
   27.2292  -19.9847  -15.0730 C   0  0  2  0  0  0  0  0  0  0  0  0
   26.2076  -20.4034  -15.9913 N   0  0  0  0  0  0  0  0  0  0  0  0
   27.2497  -20.6822  -13.7849 C   0  0  0  0  0  0  0  0  0  0  0  0
   26.1935  -21.3426  -13.4829 O   0  0  0  0  0  0  0  0  0  0  0  0
   28.3096  -20.7020  -12.8442 N   0  0  0  0  0  0  0  0  0  0  0  0
   29.6275  -20.1113  -12.8632 C   0  0  0  0  0  0  0  0  0  0  0  0
   30.4928  -21.2912  -12.3911 C   0  0  0  0  0  0  0  0  0  0  0  0
   29.6628  -21.9206  -11.3204 C   0  0  0  0  0  0  0  0  0  0  0  0
   28.2899  -21.3890  -11.5349 C   0  0  1  0  0  0  0  0  0  0  0  0
   27.7780  -20.5171  -10.4798 C   0  0  0  0  0  0  0  0  0  0  0  0
   27.8184  -19.2747  -10.6697 O   0  0  0  0  0  0  0  0  0  0  0  0
   24.4430  -19.8181   -6.9618 C   0  0  0  0  0  0  0  0  0  0  0  0
   25.1825  -20.7136   -7.9231 C   0  0  2  0  0  0  0  0  0  0  0  0
   25.3537  -22.0728   -7.2790 C   0  0  0  0  0  0  0  0  0  0  0  0
   26.5290  -20.1578   -8.3122 C   0  0  2  0  0  0  0  0  0  0  0  0
   27.2346  -20.9685   -9.2477 N   0  0  0  0  0  0  0  0  0  0  0  0
   27.2894  -19.8631   -7.0853 C   0  0  0  0  0  0  0  0  0  0  0  0
   27.0474  -18.7580   -6.2877 O   0  0  0  0  0  0  0  0  0  0  0  0
   28.2065  -20.6451   -6.7326 O   0  0  0  0  0  0  0  0  0  0  0  0
  2  1  1  6
  2  4  1  0
  2  3  1  0
  4  6  1  0
  4  5  1  1
  6  8  1  0
  6  7  2  0
  8 12  1  0
  9 10  1  0
  9  8  1  0
 10 11  1  0
 11 12  1  0
 12 13  1  1
 13 14  2  0
 16 18  1  0
 16 15  1  1
 17 16  1  0
 18 20  1  0
 19 13  1  0
 18 19  1  6
 20 21  1  0
 22 20  2  0
M  END
$$$$
