VPV.pdb
     RDKit          3D

 22 22  0  0  1  0  0  0  0  0999 V2000
   13.4279  -10.3096  -14.2504 C   0  0  0  0  0  0  0  0  0  0  0  0
   14.6327  -10.3443  -15.1629 C   0  0  2  0  0  0  0  0  0  0  0  0
   14.2374  -11.1338  -16.3920 C   0  0  0  0  0  0  0  0  0  0  0  0
   15.8175  -10.9846  -14.4616 C   0  0  2  0  0  0  0  0  0  0  0  0
   15.6263  -12.3938  -14.2618 N   0  0  0  0  0  0  0  0  0  0  0  0
   16.2405  -10.2276  -13.2808 C   0  0  0  0  0  0  0  0  0  0  0  0
   15.9616  -10.7506  -12.1443 O   0  0  0  0  0  0  0  0  0  0  0  0
   16.9215   -8.9847  -13.2651 N   0  0  0  0  0  0  0  0  0  0  0  0
   17.3517   -8.1070  -14.3285 C   0  0  0  0  0  0  0  0  0  0  0  0
   18.7903   -7.7867  -13.8907 C   0  0  0  0  0  0  0  0  0  0  0  0
   18.6727   -7.6283  -12.4100 C   0  0  0  0  0  0  0  0  0  0  0  0
   17.3743   -8.2629  -12.0567 C   0  0  1  0  0  0  0  0  0  0  0  0
   16.3433   -7.3561  -11.5563 C   0  0  0  0  0  0  0  0  0  0  0  0
   15.5923   -6.7961  -12.3951 O   0  0  0  0  0  0  0  0  0  0  0  0
   13.3542   -5.9488   -7.8517 C   0  0  0  0  0  0  0  0  0  0  0  0
   14.5257   -6.7599   -8.3440 C   0  0  2  0  0  0  0  0  0  0  0  0
   15.6272   -6.6913   -7.3078 C   0  0  0  0  0  0  0  0  0  0  0  0
   15.0442   -6.2782   -9.6753 C   0  0  2  0  0  0  0  0  0  0  0  0
   16.1231   -7.0566  -10.1855 N   0  0  0  0  0  0  0  0  0  0  0  0
   15.3434   -4.8394   -9.5717 C   0  0  0  0  0  0  0  0  0  0  0  0
   14.3870   -3.8508   -9.7262 O   0  0  0  0  0  0  0  0  0  0  0  0
   16.5213   -4.4764   -9.3315 O   0  0  0  0  0  0  0  0  0  0  0  0
  2  1  1  1
  2  4  1  0
  2  3  1  0
  4  6  1  0
  4  5  1  1
  6  8  1  0
  6  7  2  0
  8 12  1  0
  9 10  1  0
  9  8  1  0
 10 11  1  0
 11 12  1  0
 12 13  1  6
 13 14  2  0
 16 18  1  0
 16 15  1  1
 17 16  1  0
 18 20  1  0
 19 13  1  0
 18 19  1  1
 20 21  1  0
 22 20  2  0
M  END
$$$$
