VPV.pdb
     RDKit          3D

 22 22  0  0  1  0  0  0  0  0999 V2000
   19.8576  -12.4999  -19.1805 C   0  0  0  0  0  0  0  0  0  0  0  0
   19.3017  -11.4720  -18.2215 C   0  0  2  0  0  0  0  0  0  0  0  0
   19.4907  -10.1152  -18.8647 C   0  0  0  0  0  0  0  0  0  0  0  0
   20.0166  -11.5453  -16.8839 C   0  0  2  0  0  0  0  0  0  0  0  0
   20.0342  -12.8809  -16.3566 N   0  0  0  0  0  0  0  0  0  0  0  0
   19.5702  -10.5024  -15.9568 C   0  0  0  0  0  0  0  0  0  0  0  0
   18.4228  -10.6820  -15.4142 O   0  0  0  0  0  0  0  0  0  0  0  0
   20.2708   -9.3232  -15.6004 N   0  0  0  0  0  0  0  0  0  0  0  0
   21.5329   -8.7793  -16.0450 C   0  0  0  0  0  0  0  0  0  0  0  0
   22.1841   -8.3970  -14.7058 C   0  0  0  0  0  0  0  0  0  0  0  0
   21.0453   -7.8405  -13.9152 C   0  0  0  0  0  0  0  0  0  0  0  0
   19.8218   -8.3157  -14.6157 C   0  0  1  0  0  0  0  0  0  0  0  0
   19.0098   -7.2762  -15.2447 C   0  0  0  0  0  0  0  0  0  0  0  0
   19.3464   -6.8757  -16.3881 O   0  0  0  0  0  0  0  0  0  0  0  0
   14.9000   -6.6346  -14.4129 C   0  0  0  0  0  0  0  0  0  0  0  0
   15.6642   -6.1451  -15.6167 C   0  0  2  0  0  0  0  0  0  0  0  0
   15.7397   -7.2693  -16.6278 C   0  0  0  0  0  0  0  0  0  0  0  0
   17.0540   -5.6757  -15.2681 C   0  0  2  0  0  0  0  0  0  0  0  0
   17.8616   -6.6793  -14.6593 N   0  0  0  0  0  0  0  0  0  0  0  0
   16.9484   -4.4355  -14.4799 C   0  0  0  0  0  0  0  0  0  0  0  0
   16.7394   -3.1900  -15.0465 O   0  0  0  0  0  0  0  0  0  0  0  0
   17.0513   -4.4958  -13.2299 O   0  0  0  0  0  0  0  0  0  0  0  0
  2  1  1  6
  2  4  1  0
  2  3  1  0
  4  6  1  0
  4  5  1  1
  6  8  1  0
  6  7  2  0
  8 12  1  0
  9 10  1  0
  9  8  1  0
 10 11  1  0
 11 12  1  0
 12 13  1  6
 13 14  2  0
 16 18  1  0
 16 15  1  1
 17 16  1  0
 18 20  1  0
 19 13  1  0
 18 19  1  1
 20 21  1  0
 22 20  2  0
M  END
$$$$
