VPV.pdb
     RDKit          3D

 22 22  0  0  1  0  0  0  0  0999 V2000
   25.8877  -16.2796  -14.1671 C   0  0  0  0  0  0  0  0  0  0  0  0
   26.5895  -16.7546  -15.4190 C   0  0  2  0  0  0  0  0  0  0  0  0
   26.5735  -15.6039  -16.4019 C   0  0  0  0  0  0  0  0  0  0  0  0
   25.8907  -17.9733  -15.9953 C   0  0  2  0  0  0  0  0  0  0  0  0
   24.6078  -17.6445  -16.5506 N   0  0  0  0  0  0  0  0  0  0  0  0
   25.9110  -19.1130  -15.0750 C   0  0  0  0  0  0  0  0  0  0  0  0
   24.7855  -19.4410  -14.5566 O   0  0  0  0  0  0  0  0  0  0  0  0
   27.0389  -19.8852  -14.7007 N   0  0  0  0  0  0  0  0  0  0  0  0
   28.4455  -19.7448  -14.9972 C   0  0  0  0  0  0  0  0  0  0  0  0
   28.8161  -21.1851  -15.3867 C   0  0  0  0  0  0  0  0  0  0  0  0
   28.0484  -22.0147  -14.4100 C   0  0  0  0  0  0  0  0  0  0  0  0
   27.0132  -21.0997  -13.8577 C   0  0  1  0  0  0  0  0  0  0  0  0
   27.1514  -20.7714  -12.4405 C   0  0  0  0  0  0  0  0  0  0  0  0
   28.1462  -20.0880  -12.0874 O   0  0  0  0  0  0  0  0  0  0  0  0
   26.3982  -18.9326   -8.3718 C   0  0  0  0  0  0  0  0  0  0  0  0
   26.2316  -19.3061   -9.8229 C   0  0  2  0  0  0  0  0  0  0  0  0
   24.8881  -18.7963  -10.2992 C   0  0  0  0  0  0  0  0  0  0  0  0
   26.3256  -20.7934  -10.0520 C   0  0  2  0  0  0  0  0  0  0  0  0
   26.2420  -21.1680  -11.4242 N   0  0  0  0  0  0  0  0  0  0  0  0
   25.3395  -21.4662   -9.1887 C   0  0  0  0  0  0  0  0  0  0  0  0
   25.4722  -21.5621   -7.8142 O   0  0  0  0  0  0  0  0  0  0  0  0
   24.3220  -21.9836   -9.7121 O   0  0  0  0  0  0  0  0  0  0  0  0
  2  1  1  1
  2  4  1  0
  2  3  1  0
  4  6  1  0
  4  5  1  1
  6  8  1  0
  6  7  2  0
  8 12  1  0
  9 10  1  0
  9  8  1  0
 10 11  1  0
 11 12  1  0
 12 13  1  1
 13 14  2  0
 16 18  1  0
 16 15  1  1
 17 16  1  0
 18 20  1  0
 19 13  1  0
 18 19  1  6
 20 21  1  0
 22 20  2  0
M  END
$$$$
