VPV.pdb
     RDKit          3D

 22 22  0  0  1  0  0  0  0  0999 V2000
   40.3704  -11.5502   -8.4663 C   0  0  0  0  0  0  0  0  0  0  0  0
   41.8333  -11.2128   -8.6429 C   0  0  2  0  0  0  0  0  0  0  0  0
   42.5531  -12.5058   -8.9598 C   0  0  0  0  0  0  0  0  0  0  0  0
   42.3914  -10.5730   -7.3840 C   0  0  2  0  0  0  0  0  0  0  0  0
   42.3937  -11.4840   -6.2739 N   0  0  0  0  0  0  0  0  0  0  0  0
   41.8056   -9.2557   -7.1230 C   0  0  0  0  0  0  0  0  0  0  0  0
   40.9869   -9.1861   -6.1392 O   0  0  0  0  0  0  0  0  0  0  0  0
   42.0486   -8.0584   -7.8413 N   0  0  0  0  0  0  0  0  0  0  0  0
   42.8360   -7.7838   -9.0206 C   0  0  0  0  0  0  0  0  0  0  0  0
   43.5985   -6.5215   -8.5860 C   0  0  0  0  0  0  0  0  0  0  0  0
   42.5726   -5.7425   -7.8295 C   0  0  0  0  0  0  0  0  0  0  0  0
   41.5028   -6.7252   -7.5082 C   0  0  1  0  0  0  0  0  0  0  0  0
   40.2160   -6.4944   -8.1612 C   0  0  0  0  0  0  0  0  0  0  0  0
   40.0521   -6.9528   -9.3206 O   0  0  0  0  0  0  0  0  0  0  0  0
   36.6950   -5.0935   -6.0258 C   0  0  0  0  0  0  0  0  0  0  0  0
   36.6941   -5.9161   -7.2892 C   0  0  2  0  0  0  0  0  0  0  0  0
   36.7335   -7.3808   -6.9092 C   0  0  0  0  0  0  0  0  0  0  0  0
   37.8562   -5.5899   -8.1927 C   0  0  2  0  0  0  0  0  0  0  0  0
   39.1288   -5.7868   -7.5828 N   0  0  0  0  0  0  0  0  0  0  0  0
   37.6608   -4.2369   -8.7419 C   0  0  0  0  0  0  0  0  0  0  0  0
   38.5087   -3.1767   -8.4715 O   0  0  0  0  0  0  0  0  0  0  0  0
   36.6798   -4.0194   -9.4950 O   0  0  0  0  0  0  0  0  0  0  0  0
  2  1  1  1
  2  4  1  0
  2  3  1  0
  4  6  1  0
  4  5  1  1
  6  8  1  0
  6  7  2  0
  8 12  1  0
  9 10  1  0
  9  8  1  0
 10 11  1  0
 11 12  1  0
 12 13  1  6
 13 14  2  0
 16 18  1  0
 16 15  1  1
 17 16  1  0
 18 20  1  0
 19 13  1  0
 18 19  1  1
 20 21  1  0
 22 20  2  0
M  END
$$$$
