VPV.pdb
     RDKit          3D

 22 22  0  0  1  0  0  0  0  0999 V2000
   22.8175  -14.2674  -18.4801 C   0  0  0  0  0  0  0  0  0  0  0  0
   24.3276  -14.2894  -18.5456 C   0  0  2  0  0  0  0  0  0  0  0  0
   24.7209  -15.5190  -19.3354 C   0  0  0  0  0  0  0  0  0  0  0  0
   24.9239  -14.3248  -17.1496 C   0  0  2  0  0  0  0  0  0  0  0  0
   24.7264  -15.5968  -16.5130 N   0  0  0  0  0  0  0  0  0  0  0  0
   24.5495  -13.1522  -16.3550 C   0  0  0  0  0  0  0  0  0  0  0  0
   23.5402  -13.2950  -15.5779 O   0  0  0  0  0  0  0  0  0  0  0  0
   25.1835  -11.8847  -16.3570 N   0  0  0  0  0  0  0  0  0  0  0  0
   26.2516  -11.3415  -17.1633 C   0  0  0  0  0  0  0  0  0  0  0  0
   27.1387  -10.6913  -16.0891 C   0  0  0  0  0  0  0  0  0  0  0  0
   26.1506  -10.0852  -15.1468 C   0  0  0  0  0  0  0  0  0  0  0  0
   24.8596  -10.7554  -15.4591 C   0  0  1  0  0  0  0  0  0  0  0  0
   23.8239   -9.8969  -16.0298 C   0  0  0  0  0  0  0  0  0  0  0  0
   23.8972   -9.6177  -17.2537 O   0  0  0  0  0  0  0  0  0  0  0  0
   19.9133   -9.4815  -14.3453 C   0  0  0  0  0  0  0  0  0  0  0  0
   20.3264   -9.2011  -15.7678 C   0  0  2  0  0  0  0  0  0  0  0  0
   20.3218  -10.5057  -16.5357 C   0  0  0  0  0  0  0  0  0  0  0  0
   21.6871   -8.5580  -15.8590 C   0  0  2  0  0  0  0  0  0  0  0  0
   22.7332   -9.3497  -15.3030 N   0  0  0  0  0  0  0  0  0  0  0  0
   21.6044   -7.1988  -15.2969 C   0  0  0  0  0  0  0  0  0  0  0  0
   22.1913   -6.8350  -14.0972 O   0  0  0  0  0  0  0  0  0  0  0  0
   20.9728   -6.3149  -15.9267 O   0  0  0  0  0  0  0  0  0  0  0  0
  2  1  1  1
  2  4  1  0
  2  3  1  0
  4  6  1  0
  4  5  1  1
  6  8  1  0
  6  7  2  0
  8 12  1  0
  9 10  1  0
  9  8  1  0
 10 11  1  0
 11 12  1  0
 12 13  1  6
 13 14  2  0
 16 18  1  0
 16 15  1  1
 17 16  1  0
 18 20  1  0
 19 13  1  0
 18 19  1  1
 20 21  1  0
 22 20  2  0
M  END
$$$$
