VPV.pdb
     RDKit          3D

 22 22  0  0  1  0  0  0  0  0999 V2000
   24.3816  -19.6663  -11.4565 C   0  0  0  0  0  0  0  0  0  0  0  0
   25.3950  -19.9751  -12.5349 C   0  0  2  0  0  0  0  0  0  0  0  0
   24.7223  -19.7145  -13.8653 C   0  0  0  0  0  0  0  0  0  0  0  0
   25.8627  -21.4161  -12.4338 C   0  0  2  0  0  0  0  0  0  0  0  0
   24.8157  -22.3447  -12.7563 N   0  0  0  0  0  0  0  0  0  0  0  0
   26.5837  -21.6805  -11.1862 C   0  0  0  0  0  0  0  0  0  0  0  0
   25.9603  -22.3782  -10.3100 O   0  0  0  0  0  0  0  0  0  0  0  0
   27.8906  -21.2473  -10.8498 N   0  0  0  0  0  0  0  0  0  0  0  0
   28.8541  -20.4431  -11.5646 C   0  0  0  0  0  0  0  0  0  0  0  0
   30.1371  -21.2678  -11.3709 C   0  0  0  0  0  0  0  0  0  0  0  0
   30.0354  -21.7362   -9.9560 C   0  0  0  0  0  0  0  0  0  0  0  0
   28.6047  -21.5523   -9.5915 C   0  0  1  0  0  0  0  0  0  0  0  0
   28.3383  -20.5455   -8.5664 C   0  0  0  0  0  0  0  0  0  0  0  0
   27.9662  -19.4047   -8.9425 O   0  0  0  0  0  0  0  0  0  0  0  0
   27.9737  -21.4323   -4.2485 C   0  0  0  0  0  0  0  0  0  0  0  0
   27.2659  -20.3779   -5.0609 C   0  0  2  0  0  0  0  0  0  0  0  0
   26.0169  -20.9896   -5.6587 C   0  0  0  0  0  0  0  0  0  0  0  0
   28.1339  -19.8122   -6.1564 C   0  0  2  0  0  0  0  0  0  0  0  0
   28.4683  -20.7582   -7.1682 N   0  0  0  0  0  0  0  0  0  0  0  0
   29.3020  -19.1581   -5.5416 C   0  0  0  0  0  0  0  0  0  0  0  0
   29.2107  -18.0257   -4.7508 O   0  0  0  0  0  0  0  0  0  0  0  0
   30.4448  -19.6410   -5.7359 O   0  0  0  0  0  0  0  0  0  0  0  0
  2  1  1  1
  2  4  1  0
  2  3  1  0
  4  6  1  0
  4  5  1  1
  6  8  1  0
  6  7  2  0
  8 12  1  0
  9 10  1  0
  9  8  1  0
 10 11  1  0
 11 12  1  0
 12 13  1  1
 13 14  2  0
 16 18  1  0
 16 15  1  6
 17 16  1  0
 18 20  1  0
 19 13  1  0
 18 19  1  6
 20 21  1  0
 22 20  2  0
M  END
$$$$
