VPV.pdb
     RDKit          3D

 22 22  0  0  1  0  0  0  0  0999 V2000
   23.5108  -20.6517  -10.6701 C   0  0  0  0  0  0  0  0  0  0  0  0
   24.3243  -20.2597  -11.8824 C   0  0  2  0  0  0  0  0  0  0  0  0
   23.3449  -19.9370  -12.9901 C   0  0  0  0  0  0  0  0  0  0  0  0
   25.2558  -21.3875  -12.2901 C   0  0  2  0  0  0  0  0  0  0  0  0
   24.5394  -22.5032  -12.8417 N   0  0  0  0  0  0  0  0  0  0  0  0
   26.2277  -21.7119  -11.2430 C   0  0  0  0  0  0  0  0  0  0  0  0
   25.9300  -22.6994  -10.4819 O   0  0  0  0  0  0  0  0  0  0  0  0
   27.4549  -21.0511  -10.9860 N   0  0  0  0  0  0  0  0  0  0  0  0
   28.1046  -19.9363  -11.6350 C   0  0  0  0  0  0  0  0  0  0  0  0
   29.5434  -20.4618  -11.7668 C   0  0  0  0  0  0  0  0  0  0  0  0
   29.7701  -21.1739  -10.4734 C   0  0  0  0  0  0  0  0  0  0  0  0
   28.4103  -21.3912   -9.9100 C   0  0  1  0  0  0  0  0  0  0  0  0
   28.1127  -20.6623   -8.6789 C   0  0  0  0  0  0  0  0  0  0  0  0
   27.2871  -19.7157   -8.7385 O   0  0  0  0  0  0  0  0  0  0  0  0
   28.3845  -20.4847   -3.6671 C   0  0  0  0  0  0  0  0  0  0  0  0
   28.9635  -20.9718   -4.9711 C   0  0  2  0  0  0  0  0  0  0  0  0
   30.4319  -20.6059   -5.0115 C   0  0  0  0  0  0  0  0  0  0  0  0
   28.2578  -20.3910   -6.1703 C   0  0  2  0  0  0  0  0  0  0  0  0
   28.6886  -20.9430   -7.4113 N   0  0  0  0  0  0  0  0  0  0  0  0
   28.3511  -18.9222   -6.1062 C   0  0  0  0  0  0  0  0  0  0  0  0
   27.5138  -18.1403   -5.3293 O   0  0  0  0  0  0  0  0  0  0  0  0
   29.2298  -18.3359   -6.7852 O   0  0  0  0  0  0  0  0  0  0  0  0
  2  1  1  1
  2  4  1  0
  2  3  1  0
  4  6  1  0
  4  5  1  1
  6  8  1  0
  6  7  2  0
  8 12  1  0
  9 10  1  0
  9  8  1  0
 10 11  1  0
 11 12  1  0
 12 13  1  1
 13 14  2  0
 16 18  1  0
 16 15  1  1
 17 16  1  0
 18 20  1  0
 19 13  1  0
 18 19  1  6
 20 21  1  0
 22 20  2  0
M  END
$$$$
