VPV.pdb
     RDKit          3D

 22 22  0  0  1  0  0  0  0  0999 V2000
   24.8114  -25.4620  -20.6902 C   0  0  0  0  0  0  0  0  0  0  0  0
   25.6068  -24.8701  -19.5490 C   0  0  2  0  0  0  0  0  0  0  0  0
   25.5783  -23.3666  -19.7195 C   0  0  0  0  0  0  0  0  0  0  0  0
   27.0323  -25.3931  -19.5617 C   0  0  2  0  0  0  0  0  0  0  0  0
   27.7828  -24.8802  -20.6734 N   0  0  0  0  0  0  0  0  0  0  0  0
   27.0941  -26.8441  -19.3692 C   0  0  0  0  0  0  0  0  0  0  0  0
   27.2861  -27.5465  -20.4241 O   0  0  0  0  0  0  0  0  0  0  0  0
   26.9641  -27.5470  -18.1454 N   0  0  0  0  0  0  0  0  0  0  0  0
   26.6850  -27.0993  -16.8008 C   0  0  0  0  0  0  0  0  0  0  0  0
   27.7464  -27.8717  -16.0004 C   0  0  0  0  0  0  0  0  0  0  0  0
   27.7626  -29.2142  -16.6552 C   0  0  0  0  0  0  0  0  0  0  0  0
   27.0980  -29.0091  -17.9705 C   0  0  1  0  0  0  0  0  0  0  0  0
   25.8163  -29.6893  -18.1436 C   0  0  0  0  0  0  0  0  0  0  0  0
   24.7734  -29.0812  -17.7918 O   0  0  0  0  0  0  0  0  0  0  0  0
   25.3493  -33.0722  -20.7857 C   0  0  0  0  0  0  0  0  0  0  0  0
   24.2789  -32.0838  -20.3979 C   0  0  2  0  0  0  0  0  0  0  0  0
   24.3595  -30.8964  -21.3335 C   0  0  0  0  0  0  0  0  0  0  0  0
   24.4099  -31.6201  -18.9693 C   0  0  2  0  0  0  0  0  0  0  0  0
   25.6572  -30.9937  -18.6825 N   0  0  0  0  0  0  0  0  0  0  0  0
   24.0893  -32.7474  -18.0767 C   0  0  0  0  0  0  0  0  0  0  0  0
   22.7954  -33.1519  -17.7973 O   0  0  0  0  0  0  0  0  0  0  0  0
   25.0270  -33.3831  -17.5348 O   0  0  0  0  0  0  0  0  0  0  0  0
  2  1  1  6
  2  4  1  0
  2  3  1  0
  4  6  1  0
  4  5  1  6
  6  8  1  0
  6  7  2  0
  8 12  1  0
  9 10  1  0
  9  8  1  0
 10 11  1  0
 11 12  1  0
 12 13  1  1
 13 14  2  0
 16 18  1  0
 16 15  1  6
 17 16  1  0
 18 20  1  0
 19 13  1  0
 18 19  1  1
 20 21  1  0
 22 20  2  0
M  END
$$$$
