AFC.pdb
     RDKit          3D

 23 23  0  0  1  0  0  0  0  0999 V2000
   22.3989  -21.8452  -15.1331 C   0  0  0  0  0  0  0  0  0  0  0  0
   22.9431  -21.6163  -13.7448 C   0  0  2  0  0  0  0  0  0  0  0  0
   21.8931  -21.0274  -12.9532 N   0  0  0  0  0  0  0  0  0  0  0  0
   24.1450  -20.7457  -13.7423 C   0  0  0  0  0  0  0  0  0  0  0  0
   24.0111  -19.5013  -13.7225 O   0  0  0  0  0  0  0  0  0  0  0  0
   25.4699  -21.2500  -13.7614 N   0  0  0  0  0  0  0  0  0  0  0  0
   26.6622  -20.4424  -13.7429 C   0  0  1  0  0  0  0  0  0  0  0  0
   27.4929  -20.5741  -12.5378 C   0  0  0  0  0  0  0  0  0  0  0  0
   26.8896  -20.3707  -11.2480 C   0  0  0  0  0  0  0  0  0  0  0  0
   26.6723  -19.1435  -10.6703 C   0  0  0  0  0  0  0  0  0  0  0  0
   26.0851  -19.0567   -9.4220 C   0  0  0  0  0  0  0  0  0  0  0  0
   25.6996  -20.1815   -8.7170 C   0  0  0  0  0  0  0  0  0  0  0  0
   25.9145  -21.4301   -9.2917 C   0  0  0  0  0  0  0  0  0  0  0  0
   26.5005  -21.5159  -10.5373 C   0  0  0  0  0  0  0  0  0  0  0  0
   27.3642  -20.5925  -15.0398 C   0  0  0  0  0  0  0  0  0  0  0  0
   27.6102  -21.7487  -15.5154 O   0  0  0  0  0  0  0  0  0  0  0  0
   27.8122  -19.5118  -15.8481 N   0  0  0  0  0  0  0  0  0  0  0  0
   27.6449  -19.4782  -17.2884 C   0  0  1  0  0  0  0  0  0  0  0  0
   26.2094  -19.7734  -17.6827 C   0  0  0  0  0  0  0  0  0  0  0  0
   26.1627  -21.5154  -18.2152 S   0  0  0  0  0  0  0  0  0  0  0  0
   28.1621  -18.2616  -17.9160 C   0  0  0  0  0  0  0  0  0  0  0  0
   28.0384  -17.0239  -17.2789 O   0  0  0  0  0  0  0  0  0  0  0  0
   28.7370  -18.2290  -19.0339 O   0  0  0  0  0  0  0  0  0  0  0  0
  2  1  1  6
  2  3  1  0
  4  2  1  0
  4  5  2  0
  6  4  1  0
  7  6  1  0
  7  8  1  1
  9  8  1  0
  9 14  2  0
 10  9  1  0
 11 10  2  0
 11 12  1  0
 12 13  2  0
 13 14  1  0
 15  7  1  0
 16 15  2  0
 17 15  1  0
 18 17  1  0
 18 21  1  0
 19 20  1  0
 18 19  1  1
 21 22  1  0
 23 21  2  0
M  END
$$$$
