AFC.pdb
     RDKit          3D

 23 23  0  0  1  0  0  0  0  0999 V2000
   33.1065  -31.5414  -22.2713 C   0  0  0  0  0  0  0  0  0  0  0  0
   34.0589  -30.4513  -21.8463 C   0  0  2  0  0  0  0  0  0  0  0  0
   35.3853  -31.0134  -21.8186 N   0  0  0  0  0  0  0  0  0  0  0  0
   33.7110  -29.8774  -20.5227 C   0  0  0  0  0  0  0  0  0  0  0  0
   34.2105  -30.3646  -19.4833 O   0  0  0  0  0  0  0  0  0  0  0  0
   32.8248  -28.7830  -20.3587 N   0  0  0  0  0  0  0  0  0  0  0  0
   32.4230  -28.2271  -19.0924 C   0  0  1  0  0  0  0  0  0  0  0  0
   32.6555  -26.7845  -18.9363 C   0  0  0  0  0  0  0  0  0  0  0  0
   32.2032  -26.1297  -17.7381 C   0  0  0  0  0  0  0  0  0  0  0  0
   32.8868  -26.1181  -16.5466 C   0  0  0  0  0  0  0  0  0  0  0  0
   32.3629  -25.4589  -15.4506 C   0  0  0  0  0  0  0  0  0  0  0  0
   31.1511  -24.7962  -15.5080 C   0  0  0  0  0  0  0  0  0  0  0  0
   30.4493  -24.8008  -16.7094 C   0  0  0  0  0  0  0  0  0  0  0  0
   30.9728  -25.4589  -17.8026 C   0  0  0  0  0  0  0  0  0  0  0  0
   31.0589  -28.7078  -18.7680 C   0  0  0  0  0  0  0  0  0  0  0  0
   30.1542  -28.7487  -19.6643 O   0  0  0  0  0  0  0  0  0  0  0  0
   30.6410  -29.1528  -17.4837 N   0  0  0  0  0  0  0  0  0  0  0  0
   29.3060  -29.6513  -17.2143 C   0  0  1  0  0  0  0  0  0  0  0  0
   28.2586  -28.5817  -17.4631 C   0  0  0  0  0  0  0  0  0  0  0  0
   28.1359  -27.6054  -15.9295 S   0  0  0  0  0  0  0  0  0  0  0  0
   28.9965  -30.9106  -17.8925 C   0  0  0  0  0  0  0  0  0  0  0  0
   27.6765  -31.2432  -18.2089 O   0  0  0  0  0  0  0  0  0  0  0  0
   29.8558  -31.7631  -18.2330 O   0  0  0  0  0  0  0  0  0  0  0  0
  2  1  1  1
  2  3  1  0
  4  2  1  0
  4  5  2  0
  6  4  1  0
  7  6  1  0
  7  8  1  6
  9  8  1  0
  9 14  2  0
 10  9  1  0
 11 10  2  0
 11 12  1  0
 12 13  2  0
 13 14  1  0
 15  7  1  0
 16 15  2  0
 17 15  1  0
 18 17  1  0
 18 21  1  0
 19 20  1  0
 18 19  1  6
 21 22  1  0
 23 21  2  0
M  END
$$$$
