AFC.pdb
     RDKit          3D

 23 23  0  0  1  0  0  0  0  0999 V2000
   20.0745  -33.7671   -8.0678 C   0  0  0  0  0  0  0  0  0  0  0  0
   21.3858  -34.0072   -8.7742 C   0  0  2  0  0  0  0  0  0  0  0  0
   21.1965  -35.1024   -9.6911 N   0  0  0  0  0  0  0  0  0  0  0  0
   22.4924  -34.3055   -7.8314 C   0  0  0  0  0  0  0  0  0  0  0  0
   22.7041  -35.4867   -7.4751 O   0  0  0  0  0  0  0  0  0  0  0  0
   23.3468  -33.3089   -7.2956 N   0  0  0  0  0  0  0  0  0  0  0  0
   24.4220  -33.5528   -6.3691 C   0  0  1  0  0  0  0  0  0  0  0  0
   25.4002  -32.4637   -6.2396 C   0  0  0  0  0  0  0  0  0  0  0  0
   26.5169  -32.6302   -5.3484 C   0  0  0  0  0  0  0  0  0  0  0  0
   26.5252  -32.2583   -4.0260 C   0  0  0  0  0  0  0  0  0  0  0  0
   27.6534  -32.4611   -3.2537 C   0  0  0  0  0  0  0  0  0  0  0  0
   28.7988  -33.0362   -3.7716 C   0  0  0  0  0  0  0  0  0  0  0  0
   28.8026  -33.4171   -5.1097 C   0  0  0  0  0  0  0  0  0  0  0  0
   27.6764  -33.2144   -5.8797 C   0  0  0  0  0  0  0  0  0  0  0  0
   23.8558  -34.0762   -5.1031 C   0  0  0  0  0  0  0  0  0  0  0  0
   22.6491  -33.8266   -4.7790 O   0  0  0  0  0  0  0  0  0  0  0  0
   24.5681  -34.8740   -4.1661 N   0  0  0  0  0  0  0  0  0  0  0  0
   23.9523  -35.4467   -2.9844 C   0  0  1  0  0  0  0  0  0  0  0  0
   22.9928  -36.5641   -3.3505 C   0  0  0  0  0  0  0  0  0  0  0  0
   21.3134  -35.8657   -3.2419 S   0  0  0  0  0  0  0  0  0  0  0  0
   24.9098  -35.8429   -1.9511 C   0  0  0  0  0  0  0  0  0  0  0  0
   24.4714  -36.1966   -0.6722 O   0  0  0  0  0  0  0  0  0  0  0  0
   26.1547  -35.8962   -2.1201 O   0  0  0  0  0  0  0  0  0  0  0  0
  2  1  1  1
  2  3  1  0
  4  2  1  0
  4  5  2  0
  6  4  1  0
  7  6  1  0
  7  8  1  1
  9  8  1  0
  9 14  2  0
 10  9  1  0
 11 10  2  0
 11 12  1  0
 12 13  2  0
 13 14  1  0
 15  7  1  0
 16 15  2  0
 17 15  1  0
 18 17  1  0
 18 21  1  0
 19 20  1  0
 18 19  1  6
 21 22  1  0
 23 21  2  0
M  END
$$$$
