AFC.pdb
     RDKit          3D

 23 23  0  0  1  0  0  0  0  0999 V2000
   27.7305  -18.7365  -15.0576 C   0  0  0  0  0  0  0  0  0  0  0  0
   28.2497  -19.7548  -14.0728 C   0  0  2  0  0  0  0  0  0  0  0  0
   29.1318  -20.6441  -14.7849 N   0  0  0  0  0  0  0  0  0  0  0  0
   27.1591  -20.5199  -13.4189 C   0  0  0  0  0  0  0  0  0  0  0  0
   26.7680  -21.5977  -13.9214 O   0  0  0  0  0  0  0  0  0  0  0  0
   26.5161  -20.0940  -12.2292 N   0  0  0  0  0  0  0  0  0  0  0  0
   25.5004  -20.8357  -11.5275 C   0  0  1  0  0  0  0  0  0  0  0  0
   25.3642  -20.5194  -10.0988 C   0  0  0  0  0  0  0  0  0  0  0  0
   26.5244  -20.5989   -9.2522 C   0  0  0  0  0  0  0  0  0  0  0  0
   26.6706  -19.9320   -8.0602 C   0  0  0  0  0  0  0  0  0  0  0  0
   27.8294  -20.0757   -7.3206 C   0  0  0  0  0  0  0  0  0  0  0  0
   28.8697  -20.8820   -7.7431 C   0  0  0  0  0  0  0  0  0  0  0  0
   28.7333  -21.5626   -8.9489 C   0  0  0  0  0  0  0  0  0  0  0  0
   27.5767  -21.4187   -9.6863 C   0  0  0  0  0  0  0  0  0  0  0  0
   24.2506  -20.8104  -12.3242 C   0  0  0  0  0  0  0  0  0  0  0  0
   23.8750  -19.7430  -12.9100 O   0  0  0  0  0  0  0  0  0  0  0  0
   23.3848  -21.9233  -12.5082 N   0  0  0  0  0  0  0  0  0  0  0  0
   22.1314  -21.8397  -13.2331 C   0  0  1  0  0  0  0  0  0  0  0  0
   21.7453  -23.1842  -13.8215 C   0  0  0  0  0  0  0  0  0  0  0  0
   20.1967  -22.9234  -14.7457 S   0  0  0  0  0  0  0  0  0  0  0  0
   21.0448  -21.2274  -12.4676 C   0  0  0  0  0  0  0  0  0  0  0  0
   20.0970  -20.4177  -13.0994 O   0  0  0  0  0  0  0  0  0  0  0  0
   20.8796  -21.3722  -11.2295 O   0  0  0  0  0  0  0  0  0  0  0  0
  2  1  1  6
  2  3  1  0
  4  2  1  0
  4  5  2  0
  6  4  1  0
  7  6  1  0
  7  8  1  1
  9  8  1  0
  9 14  2  0
 10  9  1  0
 11 10  2  0
 11 12  1  0
 12 13  2  0
 13 14  1  0
 15  7  1  0
 16 15  2  0
 17 15  1  0
 18 17  1  0
 18 21  1  0
 19 20  1  0
 18 19  1  1
 21 22  1  0
 23 21  2  0
M  END
$$$$
