AFC.pdb
     RDKit          3D

 23 23  0  0  1  0  0  0  0  0999 V2000
   26.9463  -16.9599  -15.4546 C   0  0  0  0  0  0  0  0  0  0  0  0
   27.7804  -18.1494  -15.0478 C   0  0  2  0  0  0  0  0  0  0  0  0
   28.4846  -18.6121  -16.2166 N   0  0  0  0  0  0  0  0  0  0  0  0
   26.9636  -19.2439  -14.4672 C   0  0  0  0  0  0  0  0  0  0  0  0
   26.5724  -20.1822  -15.1976 O   0  0  0  0  0  0  0  0  0  0  0  0
   26.5894  -19.2934  -13.1005 N   0  0  0  0  0  0  0  0  0  0  0  0
   25.9195  -20.3994  -12.4664 C   0  0  1  0  0  0  0  0  0  0  0  0
   26.2053  -20.5713  -11.0352 C   0  0  0  0  0  0  0  0  0  0  0  0
   27.5441  -20.9003  -10.6248 C   0  0  0  0  0  0  0  0  0  0  0  0
   28.0020  -20.8451   -9.3309 C   0  0  0  0  0  0  0  0  0  0  0  0
   29.3111  -21.1815   -9.0416 C   0  0  0  0  0  0  0  0  0  0  0  0
   30.1967  -21.5801  -10.0253 C   0  0  0  0  0  0  0  0  0  0  0  0
   29.7446  -21.6400  -11.3397 C   0  0  0  0  0  0  0  0  0  0  0  0
   28.4382  -21.3042  -11.6276 C   0  0  0  0  0  0  0  0  0  0  0  0
   24.4874  -20.3764  -12.8484 C   0  0  0  0  0  0  0  0  0  0  0  0
   23.8035  -19.3067  -12.7410 O   0  0  0  0  0  0  0  0  0  0  0  0
   23.7654  -21.4933  -13.3515 N   0  0  0  0  0  0  0  0  0  0  0  0
   22.3617  -21.4316  -13.7111 C   0  0  1  0  0  0  0  0  0  0  0  0
   21.9846  -22.5605  -14.6527 C   0  0  0  0  0  0  0  0  0  0  0  0
   22.3159  -24.1151  -13.7617 S   0  0  0  0  0  0  0  0  0  0  0  0
   21.4604  -21.3320  -12.5625 C   0  0  0  0  0  0  0  0  0  0  0  0
   20.0955  -21.0951  -12.7469 O   0  0  0  0  0  0  0  0  0  0  0  0
   21.8230  -21.4463  -11.3639 O   0  0  0  0  0  0  0  0  0  0  0  0
  2  1  1  6
  2  3  1  0
  4  2  1  0
  4  5  2  0
  6  4  1  0
  7  6  1  0
  7  8  1  1
  9  8  1  0
  9 14  2  0
 10  9  1  0
 11 10  2  0
 11 12  1  0
 12 13  2  0
 13 14  1  0
 15  7  1  0
 16 15  2  0
 17 15  1  0
 18 17  1  0
 18 21  1  0
 19 20  1  0
 18 19  1  1
 21 22  1  0
 23 21  2  0
M  END
$$$$
