AFC.pdb
     RDKit          3D

 23 23  0  0  1  0  0  0  0  0999 V2000
   17.6169   -7.9670  -15.1975 C   0  0  0  0  0  0  0  0  0  0  0  0
   18.3202   -7.8928  -13.8647 C   0  0  2  0  0  0  0  0  0  0  0  0
   19.2959   -8.9522  -13.8236 N   0  0  0  0  0  0  0  0  0  0  0  0
   17.3821   -8.0070  -12.7205 C   0  0  0  0  0  0  0  0  0  0  0  0
   16.8349   -9.1052  -12.4725 O   0  0  0  0  0  0  0  0  0  0  0  0
   17.0591   -6.9205  -11.8689 N   0  0  0  0  0  0  0  0  0  0  0  0
   16.1270   -6.9781  -10.7726 C   0  0  1  0  0  0  0  0  0  0  0  0
   16.5919   -6.3690   -9.5186 C   0  0  0  0  0  0  0  0  0  0  0  0
   15.6608   -6.2047   -8.4346 C   0  0  0  0  0  0  0  0  0  0  0  0
   14.9414   -5.0610   -8.1872 C   0  0  0  0  0  0  0  0  0  0  0  0
   14.0712   -5.0052   -7.1147 C   0  0  0  0  0  0  0  0  0  0  0  0
   13.8929   -6.0790   -6.2628 C   0  0  0  0  0  0  0  0  0  0  0  0
   14.6160   -7.2431   -6.5031 C   0  0  0  0  0  0  0  0  0  0  0  0
   15.4842   -7.2980   -7.5734 C   0  0  0  0  0  0  0  0  0  0  0  0
   14.7929   -6.5462  -11.2533 C   0  0  0  0  0  0  0  0  0  0  0  0
   14.6507   -5.4388  -11.8672 O   0  0  0  0  0  0  0  0  0  0  0  0
   13.5924   -7.2900  -11.0871 N   0  0  0  0  0  0  0  0  0  0  0  0
   12.2853   -6.7733  -11.4447 C   0  0  1  0  0  0  0  0  0  0  0  0
   11.4000   -7.8646  -12.0177 C   0  0  0  0  0  0  0  0  0  0  0  0
   12.4172   -8.7849  -13.2172 S   0  0  0  0  0  0  0  0  0  0  0  0
   11.6313   -6.0237  -10.3713 C   0  0  0  0  0  0  0  0  0  0  0  0
   10.3846   -5.4266  -10.5771 O   0  0  0  0  0  0  0  0  0  0  0  0
   12.1157   -5.8608   -9.2224 O   0  0  0  0  0  0  0  0  0  0  0  0
  2  1  1  6
  2  3  1  0
  4  2  1  0
  4  5  2  0
  6  4  1  0
  7  6  1  0
  7  8  1  1
  9  8  1  0
  9 14  2  0
 10  9  1  0
 11 10  2  0
 11 12  1  0
 12 13  2  0
 13 14  1  0
 15  7  1  0
 16 15  2  0
 17 15  1  0
 18 17  1  0
 18 21  1  0
 19 20  1  0
 18 19  1  1
 21 22  1  0
 23 21  2  0
M  END
$$$$
