AFC.pdb
     RDKit          3D

 23 23  0  0  1  0  0  0  0  0999 V2000
   27.7989  -19.1396  -15.0660 C   0  0  0  0  0  0  0  0  0  0  0  0
   28.1880  -20.0037  -13.8921 C   0  0  2  0  0  0  0  0  0  0  0  0
   29.0767  -21.0289  -14.3770 N   0  0  0  0  0  0  0  0  0  0  0  0
   27.0128  -20.6115  -13.2200 C   0  0  0  0  0  0  0  0  0  0  0  0
   26.6966  -21.7963  -13.4718 O   0  0  0  0  0  0  0  0  0  0  0  0
   26.2052  -19.9147  -12.2860 N   0  0  0  0  0  0  0  0  0  0  0  0
   25.0299  -20.4496  -11.6483 C   0  0  1  0  0  0  0  0  0  0  0  0
   24.6886  -19.8480  -10.3517 C   0  0  0  0  0  0  0  0  0  0  0  0
   25.6027  -19.9957   -9.2509 C   0  0  0  0  0  0  0  0  0  0  0  0
   26.1830  -18.9532   -8.5702 C   0  0  0  0  0  0  0  0  0  0  0  0
   27.0518  -19.2034   -7.5246 C   0  0  0  0  0  0  0  0  0  0  0  0
   27.3662  -20.4899   -7.1287 C   0  0  0  0  0  0  0  0  0  0  0  0
   26.7846  -21.5541   -7.8105 C   0  0  0  0  0  0  0  0  0  0  0  0
   25.9178  -21.3037   -8.8537 C   0  0  0  0  0  0  0  0  0  0  0  0
   23.9339  -20.5214  -12.6438 C   0  0  0  0  0  0  0  0  0  0  0  0
   23.7254  -19.5580  -13.4513 O   0  0  0  0  0  0  0  0  0  0  0  0
   23.0461  -21.6221  -12.7929 N   0  0  0  0  0  0  0  0  0  0  0  0
   22.0355  -21.6889  -13.8311 C   0  0  1  0  0  0  0  0  0  0  0  0
   21.9840  -23.0687  -14.4609 C   0  0  0  0  0  0  0  0  0  0  0  0
   21.2363  -24.1787  -13.2243 S   0  0  0  0  0  0  0  0  0  0  0  0
   20.7180  -21.2148  -13.4058 C   0  0  0  0  0  0  0  0  0  0  0  0
   19.6772  -21.0816  -14.3289 O   0  0  0  0  0  0  0  0  0  0  0  0
   20.4241  -20.9008  -12.2242 O   0  0  0  0  0  0  0  0  0  0  0  0
  2  1  1  6
  2  3  1  0
  4  2  1  0
  4  5  2  0
  6  4  1  0
  7  6  1  0
  7  8  1  1
  9  8  1  0
  9 14  2  0
 10  9  1  0
 11 10  2  0
 11 12  1  0
 12 13  2  0
 13 14  1  0
 15  7  1  0
 16 15  2  0
 17 15  1  0
 18 17  1  0
 18 21  1  0
 19 20  1  0
 18 19  1  1
 21 22  1  0
 23 21  2  0
M  END
$$$$
