AFC.pdb
     RDKit          3D

 23 23  0  0  1  0  0  0  0  0999 V2000
   22.2522  -18.1958  -16.8289 C   0  0  0  0  0  0  0  0  0  0  0  0
   23.7070  -18.0593  -17.2044 C   0  0  2  0  0  0  0  0  0  0  0  0
   23.8459  -18.4676  -18.5791 N   0  0  0  0  0  0  0  0  0  0  0  0
   24.5968  -18.8649  -16.3316 C   0  0  0  0  0  0  0  0  0  0  0  0
   24.5075  -20.1135  -16.3362 O   0  0  0  0  0  0  0  0  0  0  0  0
   25.5669  -18.2924  -15.4706 N   0  0  0  0  0  0  0  0  0  0  0  0
   26.5051  -19.0372  -14.6712 C   0  0  1  0  0  0  0  0  0  0  0  0
   27.9218  -18.7345  -14.9182 C   0  0  0  0  0  0  0  0  0  0  0  0
   28.5058  -19.1057  -16.1793 C   0  0  0  0  0  0  0  0  0  0  0  0
   29.0645  -20.3305  -16.4528 C   0  0  0  0  0  0  0  0  0  0  0  0
   29.6020  -20.5866  -17.7002 C   0  0  0  0  0  0  0  0  0  0  0  0
   29.5992  -19.6374  -18.7051 C   0  0  0  0  0  0  0  0  0  0  0  0
   29.0361  -18.3930  -18.4401 C   0  0  0  0  0  0  0  0  0  0  0  0
   28.5000  -18.1383  -17.1951 C   0  0  0  0  0  0  0  0  0  0  0  0
   26.0663  -18.9997  -13.2559 C   0  0  0  0  0  0  0  0  0  0  0  0
   25.3752  -18.0239  -12.8156 O   0  0  0  0  0  0  0  0  0  0  0  0
   26.3571  -20.0027  -12.2909 N   0  0  0  0  0  0  0  0  0  0  0  0
   25.5750  -20.1906  -11.0840 C   0  0  1  0  0  0  0  0  0  0  0  0
   24.0951  -20.3060  -11.3997 C   0  0  0  0  0  0  0  0  0  0  0  0
   23.2378  -20.5251   -9.8068 S   0  0  0  0  0  0  0  0  0  0  0  0
   26.0551  -21.2784  -10.2310 C   0  0  0  0  0  0  0  0  0  0  0  0
   26.4021  -21.0384   -8.8987 O   0  0  0  0  0  0  0  0  0  0  0  0
   26.1900  -22.4701  -10.6091 O   0  0  0  0  0  0  0  0  0  0  0  0
  2  1  1  1
  2  3  1  0
  4  2  1  0
  4  5  2  0
  6  4  1  0
  7  6  1  0
  7  8  1  1
  9  8  1  0
  9 14  2  0
 10  9  1  0
 11 10  2  0
 11 12  1  0
 12 13  2  0
 13 14  1  0
 15  7  1  0
 16 15  2  0
 17 15  1  0
 18 17  1  0
 18 21  1  0
 19 20  1  0
 18 19  1  6
 21 22  1  0
 23 21  2  0
M  END
$$$$
