AFC.pdb
     RDKit          3D

 23 23  0  0  1  0  0  0  0  0999 V2000
   26.5834  -19.8475  -13.4405 C   0  0  0  0  0  0  0  0  0  0  0  0
   27.4678  -20.9397  -12.8920 C   0  0  2  0  0  0  0  0  0  0  0  0
   27.2206  -22.1327  -13.6612 N   0  0  0  0  0  0  0  0  0  0  0  0
   27.2283  -21.1937  -11.4496 C   0  0  0  0  0  0  0  0  0  0  0  0
   26.3499  -22.0143  -11.1004 O   0  0  0  0  0  0  0  0  0  0  0  0
   27.9521  -20.5472  -10.4160 N   0  0  0  0  0  0  0  0  0  0  0  0
   27.6260  -20.6098   -9.0146 C   0  0  1  0  0  0  0  0  0  0  0  0
   28.6486  -20.0728   -8.1060 C   0  0  0  0  0  0  0  0  0  0  0  0
   28.3287  -19.9083   -6.7133 C   0  0  0  0  0  0  0  0  0  0  0  0
   28.0079  -18.7116   -6.1200 C   0  0  0  0  0  0  0  0  0  0  0  0
   27.7171  -18.6608   -4.7697 C   0  0  0  0  0  0  0  0  0  0  0  0
   27.7368  -19.7922   -3.9758 C   0  0  0  0  0  0  0  0  0  0  0  0
   28.0602  -21.0102   -4.5653 C   0  0  0  0  0  0  0  0  0  0  0  0
   28.3503  -21.0601   -5.9128 C   0  0  0  0  0  0  0  0  0  0  0  0
   26.2471  -20.1023   -8.8191 C   0  0  0  0  0  0  0  0  0  0  0  0
   25.9325  -18.9210   -9.1786 O   0  0  0  0  0  0  0  0  0  0  0  0
   25.1843  -20.8478   -8.2390 N   0  0  0  0  0  0  0  0  0  0  0  0
   23.8308  -20.3393   -8.1248 C   0  0  1  0  0  0  0  0  0  0  0  0
   23.3087  -19.8585   -9.4662 C   0  0  0  0  0  0  0  0  0  0  0  0
   23.5319  -21.2367  -10.6370 S   0  0  0  0  0  0  0  0  0  0  0  0
   22.9076  -21.2584   -7.4582 C   0  0  0  0  0  0  0  0  0  0  0  0
   23.3598  -22.4813   -6.9550 O   0  0  0  0  0  0  0  0  0  0  0  0
   21.6818  -21.0345   -7.2892 O   0  0  0  0  0  0  0  0  0  0  0  0
  2  1  1  6
  2  3  1  0
  4  2  1  0
  4  5  2  0
  6  4  1  0
  7  6  1  0
  7  8  1  1
  9  8  1  0
  9 14  2  0
 10  9  1  0
 11 10  2  0
 11 12  1  0
 12 13  2  0
 13 14  1  0
 15  7  1  0
 16 15  2  0
 17 15  1  0
 18 17  1  0
 18 21  1  0
 19 20  1  0
 18 19  1  6
 21 22  1  0
 23 21  2  0
M  END
$$$$
