ADV.pdb
     RDKit          3D

 21 20  0  0  1  0  0  0  0  0999 V2000
    7.8991  -12.1375   19.7809 C   0  0  0  0  0  0  0  0  0  0  0  0
    8.1085  -13.6073   19.4978 C   0  0  2  0  0  0  0  0  0  0  0  0
    7.0905  -14.0204   18.5501 N   0  0  0  0  0  0  0  0  0  0  0  0
    7.9840  -14.4368   20.7090 C   0  0  0  0  0  0  0  0  0  0  0  0
    6.8489  -14.8506   21.1155 O   0  0  0  0  0  0  0  0  0  0  0  0
    9.0971  -14.8344   21.5053 N   0  0  0  0  0  0  0  0  0  0  0  0
    8.9694  -15.6512   22.6851 C   0  0  1  0  0  0  0  0  0  0  0  0
    9.9496  -16.7806   22.6046 C   0  0  0  0  0  0  0  0  0  0  0  0
    9.9275  -17.6952   23.7479 C   0  0  0  0  0  0  0  0  0  0  0  0
    8.9331  -18.1019   24.3680 O   0  0  0  0  0  0  0  0  0  0  0  0
    9.1825  -14.8799   23.9342 C   0  0  0  0  0  0  0  0  0  0  0  0
   10.3040  -14.3402   24.0970 O   0  0  0  0  0  0  0  0  0  0  0  0
   11.1744  -18.1656   24.1931 O   0  0  0  0  0  0  0  0  0  0  0  0
    7.1430  -11.9549   25.4781 C   0  0  0  0  0  0  0  0  0  0  0  0
    7.2565  -13.0660   26.4993 C   0  0  1  0  0  0  0  0  0  0  0  0
    5.9863  -13.8847   26.4026 C   0  0  0  0  0  0  0  0  0  0  0  0
    8.4586  -13.9608   26.1688 C   0  0  2  0  0  0  0  0  0  0  0  0
    8.2115  -14.7098   24.9540 N   0  0  0  0  0  0  0  0  0  0  0  0
    8.7016  -14.9392   27.2500 C   0  0  0  0  0  0  0  0  0  0  0  0
    8.5375  -16.2984   27.0790 O   0  0  0  0  0  0  0  0  0  0  0  0
    9.0721  -14.5243   28.3711 O   0  0  0  0  0  0  0  0  0  0  0  0
  2  1  1  1
  2  3  1  0
  4  2  1  0
  5  4  2  0
  6  4  1  0
  7 11  1  0
  7  6  1  0
  7  8  1  6
  9  8  1  0
 10  9  2  0
 11 18  1  0
 12 11  2  0
 13  9  1  0
 15 16  1  6
 15 14  1  0
 17 19  1  0
 17 18  1  6
 17 15  1  0
 19 20  1  0
 21 19  2  0
M  END
$$$$
