ADV.pdb
     RDKit          3D

 21 20  0  0  1  0  0  0  0  0999 V2000
    8.1737  -12.1658   19.9123 C   0  0  0  0  0  0  0  0  0  0  0  0
    8.1773  -13.6511   19.6329 C   0  0  2  0  0  0  0  0  0  0  0  0
    7.0806  -13.9287   18.7244 N   0  0  0  0  0  0  0  0  0  0  0  0
    7.9878  -14.4537   20.8537 C   0  0  0  0  0  0  0  0  0  0  0  0
    6.8241  -14.6943   21.3151 O   0  0  0  0  0  0  0  0  0  0  0  0
    9.0655  -15.0130   21.5999 N   0  0  0  0  0  0  0  0  0  0  0  0
    8.8787  -15.7329   22.8337 C   0  0  1  0  0  0  0  0  0  0  0  0
    9.7481  -16.9524   22.8231 C   0  0  0  0  0  0  0  0  0  0  0  0
    9.3418  -17.9875   21.8705 C   0  0  0  0  0  0  0  0  0  0  0  0
   10.0493  -18.5470   21.0188 O   0  0  0  0  0  0  0  0  0  0  0  0
    9.1805  -14.9027   24.0256 C   0  0  0  0  0  0  0  0  0  0  0  0
   10.3450  -14.4470   24.1337 O   0  0  0  0  0  0  0  0  0  0  0  0
    7.9978  -18.3932   21.9275 O   0  0  0  0  0  0  0  0  0  0  0  0
    7.3616  -11.7867   25.4123 C   0  0  0  0  0  0  0  0  0  0  0  0
    7.4723  -12.8000   26.5309 C   0  0  1  0  0  0  0  0  0  0  0  0
    6.1480  -13.5314   26.5954 C   0  0  0  0  0  0  0  0  0  0  0  0
    8.5882  -13.8058   26.2183 C   0  0  2  0  0  0  0  0  0  0  0  0
    8.2490  -14.5888   25.0480 N   0  0  0  0  0  0  0  0  0  0  0  0
    8.7791  -14.7484   27.3410 C   0  0  0  0  0  0  0  0  0  0  0  0
    9.3655  -14.3804   28.5345 O   0  0  0  0  0  0  0  0  0  0  0  0
    8.3949  -15.9323   27.2106 O   0  0  0  0  0  0  0  0  0  0  0  0
  2  1  1  1
  2  3  1  0
  4  2  1  0
  5  4  2  0
  6  4  1  0
  7 11  1  0
  7  6  1  0
  7  8  1  6
  9  8  1  0
 10  9  2  0
 11 18  1  0
 12 11  2  0
 13  9  1  0
 15 16  1  6
 15 14  1  0
 17 19  1  0
 17 18  1  6
 17 15  1  0
 19 20  1  0
 21 19  2  0
M  END
$$$$
