ADV.pdb
     RDKit          3D

 21 20  0  0  1  0  0  0  0  0999 V2000
    8.1415  -12.3793   19.3409 C   0  0  0  0  0  0  0  0  0  0  0  0
    8.2029  -13.8800   19.1724 C   0  0  2  0  0  0  0  0  0  0  0  0
    7.1473  -14.2611   18.2528 N   0  0  0  0  0  0  0  0  0  0  0  0
    7.9981  -14.5976   20.4426 C   0  0  0  0  0  0  0  0  0  0  0  0
    6.8387  -14.9822   20.8075 O   0  0  0  0  0  0  0  0  0  0  0  0
    9.0552  -14.9124   21.3451 N   0  0  0  0  0  0  0  0  0  0  0  0
    8.8531  -15.6423   22.5706 C   0  0  1  0  0  0  0  0  0  0  0  0
    9.8051  -16.7976   22.6127 C   0  0  0  0  0  0  0  0  0  0  0  0
    9.7867  -17.5629   23.8609 C   0  0  0  0  0  0  0  0  0  0  0  0
    8.7919  -17.9690   24.4809 O   0  0  0  0  0  0  0  0  0  0  0  0
    9.0312  -14.7915   23.7728 C   0  0  0  0  0  0  0  0  0  0  0  0
   10.1645  -14.2857   23.9612 O   0  0  0  0  0  0  0  0  0  0  0  0
   11.0380  -17.8725   24.4200 O   0  0  0  0  0  0  0  0  0  0  0  0
    5.7781  -13.3209   26.2672 C   0  0  0  0  0  0  0  0  0  0  0  0
    7.0935  -12.6267   25.9880 C   0  0  1  0  0  0  0  0  0  0  0  0
    7.3698  -11.7161   27.1659 C   0  0  0  0  0  0  0  0  0  0  0  0
    8.2198  -13.6629   25.8775 C   0  0  2  0  0  0  0  0  0  0  0  0
    8.0146  -14.5103   24.7210 N   0  0  0  0  0  0  0  0  0  0  0  0
    8.2499  -14.5389   27.0680 C   0  0  0  0  0  0  0  0  0  0  0  0
    8.8042  -14.1484   28.2697 O   0  0  0  0  0  0  0  0  0  0  0  0
    7.7534  -15.6851   26.9900 O   0  0  0  0  0  0  0  0  0  0  0  0
  2  1  1  1
  2  3  1  0
  4  2  1  0
  5  4  2  0
  6  4  1  0
  7 11  1  0
  7  6  1  0
  7  8  1  1
  9  8  1  0
 10  9  2  0
 11 18  1  0
 12 11  2  0
 13  9  1  0
 15 16  1  1
 15 14  1  0
 17 19  1  0
 17 18  1  6
 17 15  1  0
 19 20  1  0
 21 19  2  0
M  END
$$$$
