ADV.pdb
     RDKit          3D

 21 20  0  0  1  0  0  0  0  0999 V2000
    7.2093  -13.0612   19.0888 C   0  0  0  0  0  0  0  0  0  0  0  0
    8.4537  -13.3472   19.8974 C   0  0  2  0  0  0  0  0  0  0  0  0
    9.2632  -14.2830   19.1396 N   0  0  0  0  0  0  0  0  0  0  0  0
    8.1478  -13.9478   21.2075 C   0  0  0  0  0  0  0  0  0  0  0  0
    7.2343  -13.4714   21.9583 O   0  0  0  0  0  0  0  0  0  0  0  0
    8.8326  -15.0837   21.7289 N   0  0  0  0  0  0  0  0  0  0  0  0
    8.4933  -15.6988   22.9866 C   0  0  1  0  0  0  0  0  0  0  0  0
    9.1656  -17.0342   23.0734 C   0  0  0  0  0  0  0  0  0  0  0  0
    8.7710  -17.9887   22.0354 C   0  0  0  0  0  0  0  0  0  0  0  0
    7.7131  -18.6329   21.9674 O   0  0  0  0  0  0  0  0  0  0  0  0
    8.8751  -14.8599   24.1490 C   0  0  0  0  0  0  0  0  0  0  0  0
   10.0889  -14.5668   24.2775 O   0  0  0  0  0  0  0  0  0  0  0  0
    9.6958  -18.1987   20.9986 O   0  0  0  0  0  0  0  0  0  0  0  0
    6.9269  -11.6425   25.4577 C   0  0  0  0  0  0  0  0  0  0  0  0
    7.2371  -12.5675   26.6146 C   0  0  1  0  0  0  0  0  0  0  0  0
    5.9813  -13.3685   26.8872 C   0  0  0  0  0  0  0  0  0  0  0  0
    8.3720  -13.5258   26.2297 C   0  0  2  0  0  0  0  0  0  0  0  0
    7.9684  -14.3673   25.1221 N   0  0  0  0  0  0  0  0  0  0  0  0
    8.7172  -14.4158   27.3585 C   0  0  0  0  0  0  0  0  0  0  0  0
    8.5064  -15.7790   27.3271 O   0  0  0  0  0  0  0  0  0  0  0  0
    9.2226  -13.9187   28.3898 O   0  0  0  0  0  0  0  0  0  0  0  0
  2  1  1  6
  2  3  1  0
  4  2  1  0
  5  4  2  0
  6  4  1  0
  7 11  1  0
  7  6  1  0
  7  8  1  1
  9  8  1  0
 10  9  2  0
 11 18  1  0
 12 11  2  0
 13  9  1  0
 15 16  1  6
 15 14  1  0
 17 19  1  0
 17 18  1  6
 17 15  1  0
 19 20  1  0
 21 19  2  0
M  END
$$$$
