ADV.pdb
     RDKit          3D

 21 20  0  0  1  0  0  0  0  0999 V2000
    7.0684  -12.8784   19.0941 C   0  0  0  0  0  0  0  0  0  0  0  0
    8.3435  -13.1188   19.8691 C   0  0  2  0  0  0  0  0  0  0  0  0
    9.2121  -13.9345   19.0412 N   0  0  0  0  0  0  0  0  0  0  0  0
    8.1054  -13.8284   21.1380 C   0  0  0  0  0  0  0  0  0  0  0  0
    7.2782  -13.3850   22.0006 O   0  0  0  0  0  0  0  0  0  0  0  0
    8.7656  -15.0399   21.4951 N   0  0  0  0  0  0  0  0  0  0  0  0
    8.4884  -15.7582   22.7127 C   0  0  1  0  0  0  0  0  0  0  0  0
    9.1698  -17.0907   22.6586 C   0  0  0  0  0  0  0  0  0  0  0  0
    9.0032  -17.9145   23.8577 C   0  0  0  0  0  0  0  0  0  0  0  0
    7.9716  -18.0667   24.5297 O   0  0  0  0  0  0  0  0  0  0  0  0
    8.9208  -15.0138   23.9209 C   0  0  0  0  0  0  0  0  0  0  0  0
   10.1456  -14.7667   24.0410 O   0  0  0  0  0  0  0  0  0  0  0  0
   10.1411  -18.6119   24.2971 O   0  0  0  0  0  0  0  0  0  0  0  0
    7.2361  -11.7538   25.3066 C   0  0  0  0  0  0  0  0  0  0  0  0
    7.4304  -12.7290   26.4474 C   0  0  1  0  0  0  0  0  0  0  0  0
    6.1048  -13.4296   26.6587 C   0  0  0  0  0  0  0  0  0  0  0  0
    8.4952  -13.7685   26.0726 C   0  0  2  0  0  0  0  0  0  0  0  0
    8.0506  -14.5630   24.9462 N   0  0  0  0  0  0  0  0  0  0  0  0
    8.7463  -14.6957   27.1963 C   0  0  0  0  0  0  0  0  0  0  0  0
    9.3901  -14.3100   28.3541 O   0  0  0  0  0  0  0  0  0  0  0  0
    8.3614  -15.8827   27.1004 O   0  0  0  0  0  0  0  0  0  0  0  0
  2  1  1  6
  2  3  1  0
  4  2  1  0
  5  4  2  0
  6  4  1  0
  7 11  1  0
  7  6  1  0
  7  8  1  6
  9  8  1  0
 10  9  2  0
 11 18  1  0
 12 11  2  0
 13  9  1  0
 15 16  1  6
 15 14  1  0
 17 19  1  0
 17 18  1  6
 17 15  1  0
 19 20  1  0
 21 19  2  0
M  END
$$$$
