ADV.pdb
     RDKit          3D

 21 20  0  0  1  0  0  0  0  0999 V2000
    7.2411  -12.8296   19.0001 C   0  0  0  0  0  0  0  0  0  0  0  0
    8.3992  -13.2967   19.8515 C   0  0  2  0  0  0  0  0  0  0  0  0
    9.1102  -14.3161   19.1028 N   0  0  0  0  0  0  0  0  0  0  0  0
    7.9581  -13.8786   21.1310 C   0  0  0  0  0  0  0  0  0  0  0  0
    7.2400  -13.2148   21.9489 O   0  0  0  0  0  0  0  0  0  0  0  0
    8.2910  -15.2001   21.5480 N   0  0  0  0  0  0  0  0  0  0  0  0
    7.8639  -15.7603   22.8047 C   0  0  1  0  0  0  0  0  0  0  0  0
    8.2787  -17.1981   22.8637 C   0  0  0  0  0  0  0  0  0  0  0  0
    7.7953  -17.9287   24.0370 C   0  0  0  0  0  0  0  0  0  0  0  0
    6.9968  -17.5280   24.8976 O   0  0  0  0  0  0  0  0  0  0  0  0
    8.4130  -15.0235   23.9694 C   0  0  0  0  0  0  0  0  0  0  0  0
    9.6597  -14.8953   24.0377 O   0  0  0  0  0  0  0  0  0  0  0  0
    8.2924  -19.2318   24.2074 O   0  0  0  0  0  0  0  0  0  0  0  0
    7.1854  -11.5313   25.2522 C   0  0  0  0  0  0  0  0  0  0  0  0
    7.2607  -12.4895   26.4212 C   0  0  1  0  0  0  0  0  0  0  0  0
    5.8602  -13.0185   26.6482 C   0  0  0  0  0  0  0  0  0  0  0  0
    8.1921  -13.6602   26.0800 C   0  0  2  0  0  0  0  0  0  0  0  0
    7.6310  -14.4558   25.0076 N   0  0  0  0  0  0  0  0  0  0  0  0
    8.3686  -14.5516   27.2461 C   0  0  0  0  0  0  0  0  0  0  0  0
    7.9769  -15.8746   27.2418 O   0  0  0  0  0  0  0  0  0  0  0  0
    8.8951  -14.0937   28.2850 O   0  0  0  0  0  0  0  0  0  0  0  0
  2  1  1  6
  2  3  1  0
  4  2  1  0
  5  4  2  0
  6  4  1  0
  7 11  1  0
  7  6  1  0
  7  8  1  1
  9  8  1  0
 10  9  2  0
 11 18  1  0
 12 11  2  0
 13  9  1  0
 15 16  1  6
 15 14  1  0
 17 19  1  0
 17 18  1  6
 17 15  1  0
 19 20  1  0
 21 19  2  0
M  END
$$$$
