ADV.pdb
     RDKit          3D

 21 20  0  0  1  0  0  0  0  0999 V2000
    7.3332  -12.7566   18.9570 C   0  0  0  0  0  0  0  0  0  0  0  0
    8.4332  -13.3169   19.8290 C   0  0  2  0  0  0  0  0  0  0  0  0
    9.0617  -14.4016   19.0986 N   0  0  0  0  0  0  0  0  0  0  0  0
    7.9243  -13.8463   21.1061 C   0  0  0  0  0  0  0  0  0  0  0  0
    7.2280  -13.1242   21.8929 O   0  0  0  0  0  0  0  0  0  0  0  0
    8.1639  -15.1776   21.5547 N   0  0  0  0  0  0  0  0  0  0  0  0
    7.6846  -15.6817   22.8162 C   0  0  1  0  0  0  0  0  0  0  0  0
    7.9000  -17.1630   22.8630 C   0  0  0  0  0  0  0  0  0  0  0  0
    7.5060  -17.8011   24.1207 C   0  0  0  0  0  0  0  0  0  0  0  0
    6.4033  -17.7362   24.6852 O   0  0  0  0  0  0  0  0  0  0  0  0
    8.3479  -15.0337   23.9742 C   0  0  0  0  0  0  0  0  0  0  0  0
    9.6029  -15.0343   23.9972 O   0  0  0  0  0  0  0  0  0  0  0  0
    8.4887  -18.5749   24.7608 O   0  0  0  0  0  0  0  0  0  0  0  0
    7.4122  -11.5190   25.6959 C   0  0  0  0  0  0  0  0  0  0  0  0
    7.5057  -12.6282   26.7212 C   0  0  1  0  0  0  0  0  0  0  0  0
    6.0943  -13.1157   26.9727 C   0  0  0  0  0  0  0  0  0  0  0  0
    8.3466  -13.7855   26.1660 C   0  0  2  0  0  0  0  0  0  0  0  0
    7.6661  -14.4157   25.0536 N   0  0  0  0  0  0  0  0  0  0  0  0
    8.5633  -14.8226   27.1970 C   0  0  0  0  0  0  0  0  0  0  0  0
    9.3785  -14.6282   28.2931 O   0  0  0  0  0  0  0  0  0  0  0  0
    7.9860  -15.9265   27.0771 O   0  0  0  0  0  0  0  0  0  0  0  0
  2  1  1  6
  2  3  1  0
  4  2  1  0
  5  4  2  0
  6  4  1  0
  7 11  1  0
  7  6  1  0
  7  8  1  6
  9  8  1  0
 10  9  2  0
 11 18  1  0
 12 11  2  0
 13  9  1  0
 15 16  1  6
 15 14  1  0
 17 19  1  0
 17 18  1  6
 17 15  1  0
 19 20  1  0
 21 19  2  0
M  END
$$$$
