ADV.pdb
     RDKit          3D

 21 20  0  0  1  0  0  0  0  0999 V2000
   -1.6702  -28.2048   30.0747 C   0  0  0  0  0  0  0  0  0  0  0  0
   -1.7590  -26.6963   30.0524 C   0  0  2  0  0  0  0  0  0  0  0  0
   -1.0300  -26.1974   31.2034 N   0  0  0  0  0  0  0  0  0  0  0  0
   -3.1485  -26.2132   30.1337 C   0  0  0  0  0  0  0  0  0  0  0  0
   -3.8324  -25.9813   29.0832 O   0  0  0  0  0  0  0  0  0  0  0  0
   -3.8243  -25.9717   31.3650 N   0  0  0  0  0  0  0  0  0  0  0  0
   -5.2181  -25.6158   31.4414 C   0  0  1  0  0  0  0  0  0  0  0  0
   -5.7907  -26.1578   32.7147 C   0  0  0  0  0  0  0  0  0  0  0  0
   -6.1687  -27.5716   32.6649 C   0  0  0  0  0  0  0  0  0  0  0  0
   -6.8783  -28.1321   31.8157 O   0  0  0  0  0  0  0  0  0  0  0  0
   -5.4334  -24.1497   31.3697 C   0  0  0  0  0  0  0  0  0  0  0  0
   -4.9620  -23.4494   32.2987 O   0  0  0  0  0  0  0  0  0  0  0  0
   -5.6711  -28.3859   33.6962 O   0  0  0  0  0  0  0  0  0  0  0  0
   -4.3664  -21.7005   28.7074 C   0  0  0  0  0  0  0  0  0  0  0  0
   -5.8583  -21.5228   28.8892 C   0  0  1  0  0  0  0  0  0  0  0  0
   -6.5343  -22.3465   27.8133 C   0  0  0  0  0  0  0  0  0  0  0  0
   -6.2845  -22.0470   30.2669 C   0  0  2  0  0  0  0  0  0  0  0  0
   -6.1320  -23.4859   30.3290 N   0  0  0  0  0  0  0  0  0  0  0  0
   -7.7064  -21.7411   30.5314 C   0  0  0  0  0  0  0  0  0  0  0  0
   -8.1547  -20.4709   30.8306 O   0  0  0  0  0  0  0  0  0  0  0  0
   -8.5451  -22.6688   30.4837 O   0  0  0  0  0  0  0  0  0  0  0  0
  2  1  1  1
  2  3  1  0
  4  2  1  0
  5  4  2  0
  6  4  1  0
  7 11  1  0
  7  6  1  0
  7  8  1  1
  9  8  1  0
 10  9  2  0
 11 18  1  0
 12 11  2  0
 13  9  1  0
 15 16  1  6
 15 14  1  0
 17 19  1  0
 17 18  1  6
 17 15  1  0
 19 20  1  0
 21 19  2  0
M  END
$$$$
