ADV.pdb
     RDKit          3D

 21 20  0  0  1  0  0  0  0  0999 V2000
    8.2656  -12.1115   19.5136 C   0  0  0  0  0  0  0  0  0  0  0  0
    8.3227  -13.6142   19.3621 C   0  0  2  0  0  0  0  0  0  0  0  0
    7.3756  -13.9866   18.3279 N   0  0  0  0  0  0  0  0  0  0  0  0
    7.9602  -14.3191   20.6039 C   0  0  0  0  0  0  0  0  0  0  0  0
    6.7551  -14.6560   20.8476 O   0  0  0  0  0  0  0  0  0  0  0  0
    8.9057  -14.6729   21.6098 N   0  0  0  0  0  0  0  0  0  0  0  0
    8.5579  -15.4268   22.7871 C   0  0  1  0  0  0  0  0  0  0  0  0
    9.2470  -16.7556   22.7363 C   0  0  0  0  0  0  0  0  0  0  0  0
    9.0254  -17.6069   23.9069 C   0  0  0  0  0  0  0  0  0  0  0  0
    7.9372  -17.9514   24.3927 O   0  0  0  0  0  0  0  0  0  0  0  0
    8.9129  -14.7166   24.0402 C   0  0  0  0  0  0  0  0  0  0  0  0
   10.1274  -14.4729   24.2433 O   0  0  0  0  0  0  0  0  0  0  0  0
   10.1763  -18.0885   24.5533 O   0  0  0  0  0  0  0  0  0  0  0  0
    6.9765  -11.6120   25.6946 C   0  0  0  0  0  0  0  0  0  0  0  0
    7.2309  -12.6958   26.7198 C   0  0  1  0  0  0  0  0  0  0  0  0
    5.9536  -13.5007   26.8362 C   0  0  0  0  0  0  0  0  0  0  0  0
    8.3631  -13.6144   26.2413 C   0  0  2  0  0  0  0  0  0  0  0  0
    7.9798  -14.2949   25.0217 N   0  0  0  0  0  0  0  0  0  0  0  0
    8.6636  -14.6517   27.2509 C   0  0  0  0  0  0  0  0  0  0  0  0
    9.3342  -14.3794   28.4256 O   0  0  0  0  0  0  0  0  0  0  0  0
    8.2972  -15.8292   27.0378 O   0  0  0  0  0  0  0  0  0  0  0  0
  2  1  1  1
  2  3  1  0
  4  2  1  0
  5  4  2  0
  6  4  1  0
  7 11  1  0
  7  6  1  0
  7  8  1  6
  9  8  1  0
 10  9  2  0
 11 18  1  0
 12 11  2  0
 13  9  1  0
 15 16  1  6
 15 14  1  0
 17 19  1  0
 17 18  1  6
 17 15  1  0
 19 20  1  0
 21 19  2  0
M  END
$$$$
