ADV.pdb
     RDKit          3D

 21 20  0  0  1  0  0  0  0  0999 V2000
    7.2178  -13.0491   18.7619 C   0  0  0  0  0  0  0  0  0  0  0  0
    8.3765  -13.1368   19.7283 C   0  0  2  0  0  0  0  0  0  0  0  0
    9.4424  -13.8681   19.0691 N   0  0  0  0  0  0  0  0  0  0  0  0
    8.0213  -13.8460   20.9698 C   0  0  0  0  0  0  0  0  0  0  0  0
    7.0330  -13.4762   21.6851 O   0  0  0  0  0  0  0  0  0  0  0  0
    8.7374  -14.9765   21.4599 N   0  0  0  0  0  0  0  0  0  0  0  0
    8.3573  -15.6939   22.6499 C   0  0  1  0  0  0  0  0  0  0  0  0
    8.9703  -17.0598   22.6125 C   0  0  0  0  0  0  0  0  0  0  0  0
    8.6931  -17.8894   23.7868 C   0  0  0  0  0  0  0  0  0  0  0  0
    7.6154  -18.0047   24.3902 O   0  0  0  0  0  0  0  0  0  0  0  0
    8.7614  -14.9881   23.8906 C   0  0  0  0  0  0  0  0  0  0  0  0
    9.9888  -14.8029   24.0774 O   0  0  0  0  0  0  0  0  0  0  0  0
    9.7703  -18.6402   24.2871 O   0  0  0  0  0  0  0  0  0  0  0  0
    7.0553  -11.7006   25.5057 C   0  0  0  0  0  0  0  0  0  0  0  0
    7.2023  -12.8150   26.5189 C   0  0  1  0  0  0  0  0  0  0  0  0
    5.8725  -13.5370   26.5758 C   0  0  0  0  0  0  0  0  0  0  0  0
    8.2896  -13.7973   26.0635 C   0  0  2  0  0  0  0  0  0  0  0  0
    7.8617  -14.5094   24.8770 N   0  0  0  0  0  0  0  0  0  0  0  0
    8.5624  -14.8053   27.1099 C   0  0  0  0  0  0  0  0  0  0  0  0
    9.2114  -14.5016   28.2892 O   0  0  0  0  0  0  0  0  0  0  0  0
    8.1920  -15.9863   26.9254 O   0  0  0  0  0  0  0  0  0  0  0  0
  2  1  1  6
  2  3  1  0
  4  2  1  0
  5  4  2  0
  6  4  1  0
  7 11  1  0
  7  6  1  0
  7  8  1  6
  9  8  1  0
 10  9  2  0
 11 18  1  0
 12 11  2  0
 13  9  1  0
 15 16  1  6
 15 14  1  0
 17 19  1  0
 17 18  1  6
 17 15  1  0
 19 20  1  0
 21 19  2  0
M  END
$$$$
