ADV.pdb
     RDKit          3D

 21 20  0  0  1  0  0  0  0  0999 V2000
    7.3916  -13.1089   18.5570 C   0  0  0  0  0  0  0  0  0  0  0  0
    8.5120  -13.2762   19.5574 C   0  0  2  0  0  0  0  0  0  0  0  0
    9.5312  -14.1036   18.9395 N   0  0  0  0  0  0  0  0  0  0  0  0
    8.0650  -13.9334   20.7980 C   0  0  0  0  0  0  0  0  0  0  0  0
    7.0947  -13.4689   21.4819 O   0  0  0  0  0  0  0  0  0  0  0  0
    8.6676  -15.1141   21.3213 N   0  0  0  0  0  0  0  0  0  0  0  0
    8.2117  -15.7644   22.5232 C   0  0  1  0  0  0  0  0  0  0  0  0
    8.7767  -17.1505   22.5720 C   0  0  0  0  0  0  0  0  0  0  0  0
    8.3721  -18.0176   21.4636 C   0  0  0  0  0  0  0  0  0  0  0  0
    7.2884  -18.6047   21.3233 O   0  0  0  0  0  0  0  0  0  0  0  0
    8.5875  -15.0178   23.7489 C   0  0  0  0  0  0  0  0  0  0  0  0
    9.7963  -14.7114   23.8922 O   0  0  0  0  0  0  0  0  0  0  0  0
    9.3192  -18.2061   20.4429 O   0  0  0  0  0  0  0  0  0  0  0  0
    7.3111  -12.2062   27.6401 C   0  0  0  0  0  0  0  0  0  0  0  0
    6.8716  -13.0787   26.4843 C   0  0  1  0  0  0  0  0  0  0  0  0
    6.3363  -12.1530   25.4122 C   0  0  0  0  0  0  0  0  0  0  0  0
    8.0728  -13.8537   25.9265 C   0  0  2  0  0  0  0  0  0  0  0  0
    7.6802  -14.6272   24.7667 N   0  0  0  0  0  0  0  0  0  0  0  0
    8.6029  -14.8003   26.9307 C   0  0  0  0  0  0  0  0  0  0  0  0
    9.5049  -14.4278   27.9062 O   0  0  0  0  0  0  0  0  0  0  0  0
    8.2219  -15.9920   26.9009 O   0  0  0  0  0  0  0  0  0  0  0  0
  2  1  1  6
  2  3  1  0
  4  2  1  0
  5  4  2  0
  6  4  1  0
  7 11  1  0
  7  6  1  0
  7  8  1  1
  9  8  1  0
 10  9  2  0
 11 18  1  0
 12 11  2  0
 13  9  1  0
 15 16  1  6
 15 14  1  0
 17 19  1  0
 17 18  1  6
 17 15  1  0
 19 20  1  0
 21 19  2  0
M  END
$$$$
