ADV.pdb
     RDKit          3D

 21 20  0  0  1  0  0  0  0  0999 V2000
    8.3422  -12.3385   19.4975 C   0  0  0  0  0  0  0  0  0  0  0  0
    8.3768  -13.8409   19.3372 C   0  0  2  0  0  0  0  0  0  0  0  0
    7.3258  -14.2065   18.4061 N   0  0  0  0  0  0  0  0  0  0  0  0
    8.1422  -14.5479   20.6083 C   0  0  0  0  0  0  0  0  0  0  0  0
    6.9618  -14.7937   21.0223 O   0  0  0  0  0  0  0  0  0  0  0  0
    9.1918  -15.0035   21.4579 N   0  0  0  0  0  0  0  0  0  0  0  0
    8.9580  -15.7567   22.6635 C   0  0  1  0  0  0  0  0  0  0  0  0
    9.9187  -16.9044   22.7153 C   0  0  0  0  0  0  0  0  0  0  0  0
    9.5276  -18.0687   21.9180 C   0  0  0  0  0  0  0  0  0  0  0  0
    8.3942  -18.3481   21.4985 O   0  0  0  0  0  0  0  0  0  0  0  0
    9.0906  -14.9259   23.8854 C   0  0  0  0  0  0  0  0  0  0  0  0
   10.2248  -14.4548   24.1447 O   0  0  0  0  0  0  0  0  0  0  0  0
   10.5529  -18.9721   21.5910 O   0  0  0  0  0  0  0  0  0  0  0  0
    7.0695  -12.1040   27.4162 C   0  0  0  0  0  0  0  0  0  0  0  0
    6.8666  -13.0694   26.2686 C   0  0  1  0  0  0  0  0  0  0  0  0
    6.4375  -12.2471   25.0717 C   0  0  0  0  0  0  0  0  0  0  0  0
    8.1864  -13.7814   25.9432 C   0  0  2  0  0  0  0  0  0  0  0  0
    8.0297  -14.6276   24.7782 N   0  0  0  0  0  0  0  0  0  0  0  0
    8.6099  -14.6467   27.0645 C   0  0  0  0  0  0  0  0  0  0  0  0
    9.2644  -14.1607   28.1778 O   0  0  0  0  0  0  0  0  0  0  0  0
    8.3679  -15.8733   27.0088 O   0  0  0  0  0  0  0  0  0  0  0  0
  2  1  1  1
  2  3  1  0
  4  2  1  0
  5  4  2  0
  6  4  1  0
  7 11  1  0
  7  6  1  0
  7  8  1  1
  9  8  1  0
 10  9  2  0
 11 18  1  0
 12 11  2  0
 13  9  1  0
 15 16  1  6
 15 14  1  0
 17 19  1  0
 17 18  1  6
 17 15  1  0
 19 20  1  0
 21 19  2  0
M  END
$$$$
