ADV.pdb
     RDKit          3D

 21 20  0  0  1  0  0  0  0  0999 V2000
    8.2768  -12.4585   19.5935 C   0  0  0  0  0  0  0  0  0  0  0  0
    8.3641  -13.9645   19.5012 C   0  0  2  0  0  0  0  0  0  0  0  0
    7.3499  -14.4055   18.5620 N   0  0  0  0  0  0  0  0  0  0  0  0
    8.1198  -14.6227   20.7964 C   0  0  0  0  0  0  0  0  0  0  0  0
    6.9379  -14.7819   21.2468 O   0  0  0  0  0  0  0  0  0  0  0  0
    9.1612  -15.1229   21.6309 N   0  0  0  0  0  0  0  0  0  0  0  0
    8.9144  -15.7878   22.8849 C   0  0  1  0  0  0  0  0  0  0  0  0
    9.9070  -16.8966   23.0524 C   0  0  0  0  0  0  0  0  0  0  0  0
    9.7640  -17.9979   22.0980 C   0  0  0  0  0  0  0  0  0  0  0  0
    8.8134  -18.7885   21.9970 O   0  0  0  0  0  0  0  0  0  0  0  0
    8.9858  -14.8613   24.0413 C   0  0  0  0  0  0  0  0  0  0  0  0
   10.0428  -14.2007   24.1893 O   0  0  0  0  0  0  0  0  0  0  0  0
   10.8241  -18.1798   21.1939 O   0  0  0  0  0  0  0  0  0  0  0  0
    6.7239  -12.1387   27.5092 C   0  0  0  0  0  0  0  0  0  0  0  0
    6.6266  -13.1776   26.4130 C   0  0  1  0  0  0  0  0  0  0  0  0
    6.0448  -12.4840   25.1992 C   0  0  0  0  0  0  0  0  0  0  0  0
    8.0246  -13.7079   26.0680 C   0  0  2  0  0  0  0  0  0  0  0  0
    7.9473  -14.6700   24.9882 N   0  0  0  0  0  0  0  0  0  0  0  0
    8.6303  -14.3939   27.2290 C   0  0  0  0  0  0  0  0  0  0  0  0
    8.7991  -15.7622   27.2843 O   0  0  0  0  0  0  0  0  0  0  0  0
    9.0086  -13.7110   28.2072 O   0  0  0  0  0  0  0  0  0  0  0  0
  2  1  1  1
  2  3  1  0
  4  2  1  0
  5  4  2  0
  6  4  1  0
  7 11  1  0
  7  6  1  0
  7  8  1  1
  9  8  1  0
 10  9  2  0
 11 18  1  0
 12 11  2  0
 13  9  1  0
 15 16  1  6
 15 14  1  0
 17 19  1  0
 17 18  1  6
 17 15  1  0
 19 20  1  0
 21 19  2  0
M  END
$$$$
