ADV.pdb
     RDKit          3D

 21 20  0  0  1  0  0  0  0  0999 V2000
    7.2449  -13.0390   18.8645 C   0  0  0  0  0  0  0  0  0  0  0  0
    8.4171  -13.1978   19.8052 C   0  0  2  0  0  0  0  0  0  0  0  0
    9.4364  -13.9614   19.1101 N   0  0  0  0  0  0  0  0  0  0  0  0
    8.0549  -13.9162   21.0394 C   0  0  0  0  0  0  0  0  0  0  0  0
    7.1137  -13.5047   21.7943 O   0  0  0  0  0  0  0  0  0  0  0  0
    8.7124  -15.1019   21.4785 N   0  0  0  0  0  0  0  0  0  0  0  0
    8.3897  -15.7698   22.7136 C   0  0  1  0  0  0  0  0  0  0  0  0
    9.0332  -17.1221   22.7192 C   0  0  0  0  0  0  0  0  0  0  0  0
   10.4837  -17.1107   22.9191 C   0  0  0  0  0  0  0  0  0  0  0  0
   11.3572  -16.8335   22.0830 O   0  0  0  0  0  0  0  0  0  0  0  0
    8.8187  -14.9966   23.9048 C   0  0  0  0  0  0  0  0  0  0  0  0
    9.9924  -14.5516   23.9140 O   0  0  0  0  0  0  0  0  0  0  0  0
   10.9379  -17.4528   24.2040 O   0  0  0  0  0  0  0  0  0  0  0  0
    7.1432  -11.9243   25.3793 C   0  0  0  0  0  0  0  0  0  0  0  0
    7.3500  -12.8944   26.5222 C   0  0  1  0  0  0  0  0  0  0  0  0
    6.0349  -13.6150   26.7319 C   0  0  0  0  0  0  0  0  0  0  0  0
    8.4315  -13.9180   26.1517 C   0  0  2  0  0  0  0  0  0  0  0  0
    7.9990  -14.7258   25.0301 N   0  0  0  0  0  0  0  0  0  0  0  0
    8.6994  -14.8349   27.2799 C   0  0  0  0  0  0  0  0  0  0  0  0
    8.4384  -16.1885   27.2212 O   0  0  0  0  0  0  0  0  0  0  0  0
    9.1834  -14.3708   28.3366 O   0  0  0  0  0  0  0  0  0  0  0  0
  2  1  1  6
  2  3  1  0
  4  2  1  0
  5  4  2  0
  6  4  1  0
  7 11  1  0
  7  6  1  0
  7  8  1  6
  9  8  1  0
 10  9  2  0
 11 18  1  0
 12 11  2  0
 13  9  1  0
 15 16  1  6
 15 14  1  0
 17 19  1  0
 17 18  1  6
 17 15  1  0
 19 20  1  0
 21 19  2  0
M  END
$$$$
