ADV.pdb
     RDKit          3D

 21 20  0  0  1  0  0  0  0  0999 V2000
    6.3661  -15.0052   19.3976 C   0  0  0  0  0  0  0  0  0  0  0  0
    7.5238  -14.4207   20.1737 C   0  0  2  0  0  0  0  0  0  0  0  0
    8.7441  -14.7743   19.4729 N   0  0  0  0  0  0  0  0  0  0  0  0
    7.6038  -14.9479   21.5471 C   0  0  0  0  0  0  0  0  0  0  0  0
    6.6247  -14.8412   22.3564 O   0  0  0  0  0  0  0  0  0  0  0  0
    8.7558  -15.6044   22.0695 N   0  0  0  0  0  0  0  0  0  0  0  0
    8.8336  -16.1036   23.4186 C   0  0  1  0  0  0  0  0  0  0  0  0
    9.8966  -17.1562   23.4886 C   0  0  0  0  0  0  0  0  0  0  0  0
    9.4448  -18.5081   23.1537 C   0  0  0  0  0  0  0  0  0  0  0  0
    9.7848  -19.1963   22.1792 O   0  0  0  0  0  0  0  0  0  0  0  0
    9.1133  -15.0309   24.4045 C   0  0  0  0  0  0  0  0  0  0  0  0
   10.2294  -14.4604   24.3380 O   0  0  0  0  0  0  0  0  0  0  0  0
    8.5210  -19.0924   24.0366 O   0  0  0  0  0  0  0  0  0  0  0  0
    7.0734  -11.8735   25.2981 C   0  0  0  0  0  0  0  0  0  0  0  0
    7.3411  -12.6345   26.5785 C   0  0  1  0  0  0  0  0  0  0  0  0
    6.1003  -13.4507   26.8735 C   0  0  0  0  0  0  0  0  0  0  0  0
    8.5328  -13.5818   26.3857 C   0  0  2  0  0  0  0  0  0  0  0  0
    8.2115  -14.6061   25.4134 N   0  0  0  0  0  0  0  0  0  0  0  0
    8.8743  -14.2650   27.6514 C   0  0  0  0  0  0  0  0  0  0  0  0
    9.4574  -13.6135   28.7188 O   0  0  0  0  0  0  0  0  0  0  0  0
    8.6270  -15.4864   27.7669 O   0  0  0  0  0  0  0  0  0  0  0  0
  2  1  1  6
  2  3  1  0
  4  2  1  0
  5  4  2  0
  6  4  1  0
  7 11  1  0
  7  6  1  0
  7  8  1  6
  9  8  1  0
 10  9  2  0
 11 18  1  0
 12 11  2  0
 13  9  1  0
 15 16  1  6
 15 14  1  0
 17 19  1  0
 17 18  1  6
 17 15  1  0
 19 20  1  0
 21 19  2  0
M  END
$$$$
