ADV.pdb
     RDKit          3D

 21 20  0  0  1  0  0  0  0  0999 V2000
    7.9674  -12.1234   19.8963 C   0  0  0  0  0  0  0  0  0  0  0  0
    8.0966  -13.5993   19.5972 C   0  0  2  0  0  0  0  0  0  0  0  0
    7.0486  -13.9491   18.6567 N   0  0  0  0  0  0  0  0  0  0  0  0
    7.9413  -14.4331   20.8018 C   0  0  0  0  0  0  0  0  0  0  0  0
    6.7960  -14.8475   21.1783 O   0  0  0  0  0  0  0  0  0  0  0  0
    9.0338  -14.8345   21.6243 N   0  0  0  0  0  0  0  0  0  0  0  0
    8.8782  -15.6700   22.7875 C   0  0  1  0  0  0  0  0  0  0  0  0
    9.8118  -16.8360   22.6788 C   0  0  0  0  0  0  0  0  0  0  0  0
    9.6706  -17.8362   23.7388 C   0  0  0  0  0  0  0  0  0  0  0  0
   10.4561  -18.7553   24.0167 O   0  0  0  0  0  0  0  0  0  0  0  0
    9.1276  -14.9340   24.0513 C   0  0  0  0  0  0  0  0  0  0  0  0
   10.3152  -14.6270   24.3176 O   0  0  0  0  0  0  0  0  0  0  0  0
    8.5140  -17.7446   24.5313 O   0  0  0  0  0  0  0  0  0  0  0  0
    7.2984  -11.7320   25.5125 C   0  0  0  0  0  0  0  0  0  0  0  0
    7.2874  -12.8529   26.5292 C   0  0  1  0  0  0  0  0  0  0  0  0
    5.9468  -13.5461   26.4062 C   0  0  0  0  0  0  0  0  0  0  0  0
    8.4042  -13.8570   26.2143 C   0  0  2  0  0  0  0  0  0  0  0  0
    8.1220  -14.5543   24.9766 N   0  0  0  0  0  0  0  0  0  0  0  0
    8.5147  -14.8753   27.2803 C   0  0  0  0  0  0  0  0  0  0  0  0
    9.0586  -14.6046   28.5191 O   0  0  0  0  0  0  0  0  0  0  0  0
    8.0992  -16.0344   27.0569 O   0  0  0  0  0  0  0  0  0  0  0  0
  2  1  1  1
  2  3  1  0
  4  2  1  0
  5  4  2  0
  6  4  1  0
  7 11  1  0
  7  6  1  0
  7  8  1  6
  9  8  1  0
 10  9  2  0
 11 18  1  0
 12 11  2  0
 13  9  1  0
 15 16  1  6
 15 14  1  0
 17 19  1  0
 17 18  1  6
 17 15  1  0
 19 20  1  0
 21 19  2  0
M  END
$$$$
