RRI.pdb
     RDKit          3D

 31 30  0  0  1  0  0  0  0  0999 V2000
   27.6644  -17.9622  -19.8244 N   0  0  0  0  0  0  0  0  0  0  0  0
   26.5311  -17.9075  -20.7198 C   0  0  0  0  0  0  0  0  0  0  0  0
   26.5260  -18.6011  -21.7985 N   0  0  0  0  0  0  0  0  0  0  0  0
   25.4486  -17.0803  -20.3767 N   0  0  0  0  0  0  0  0  0  0  0  0
   24.8989  -17.1244  -19.0393 C   0  0  0  0  0  0  0  0  0  0  0  0
   23.5134  -17.6568  -19.1332 C   0  0  0  0  0  0  0  0  0  0  0  0
   23.2663  -18.9950  -18.5459 C   0  0  0  0  0  0  0  0  0  0  0  0
   24.3848  -19.6167  -17.7893 C   0  0  2  0  0  0  0  0  0  0  0  0
   25.0283  -20.6613  -18.5120 N   0  0  0  0  0  0  0  0  0  0  0  0
   23.7672  -20.2106  -16.5408 C   0  0  0  0  0  0  0  0  0  0  0  0
   22.9389  -21.1296  -16.6971 O   0  0  0  0  0  0  0  0  0  0  0  0
   25.7862  -18.5655  -22.4980 N   0  0  0  0  0  0  0  0  0  0  0  0
   25.3434  -21.9040   -8.2625 C   0  0  0  0  0  0  0  0  0  0  0  0
   26.0362  -21.5002   -9.4562 N   0  0  0  0  0  0  0  0  0  0  0  0
   26.9086  -22.2750  -10.0037 N   0  0  0  0  0  0  0  0  0  0  0  0
   25.7845  -20.2464  -10.0664 C   0  0  0  0  0  0  0  0  0  0  0  0
   24.4885  -19.6842  -10.2943 C   0  0  0  0  0  0  0  0  0  0  0  0
   23.7998  -20.2369  -11.5395 C   0  0  0  0  0  0  0  0  0  0  0  0
   24.3263  -19.6401  -12.7975 C   0  0  2  0  0  0  0  0  0  0  0  0
   23.5759  -20.1943  -14.0184 N   0  0  0  0  0  0  0  0  0  0  0  0
   24.1260  -19.7327  -15.2571 C   0  0  0  0  0  0  0  0  0  0  0  0
   22.1288  -19.8207  -13.8999 O   0  0  0  0  0  0  0  0  0  0  0  0
   21.7735  -18.6124  -14.0719 C   0  0  0  0  0  0  0  0  0  0  0  0
   27.1274  -23.1734   -9.5408 C   0  0  0  0  0  0  0  0  0  0  0  0
   18.4709  -21.5205  -16.9775 C   0  0  2  0  0  0  0  0  0  0  0  0
   19.1889  -20.7650  -15.8749 C   0  0  0  0  0  0  0  0  0  0  0  0
   18.9864  -21.3593  -14.5338 C   0  0  2  0  0  0  0  0  0  0  0  0
   17.4857  -21.3150  -14.2088 N   0  0  0  0  0  0  0  0  0  0  0  0
   19.7718  -20.6783  -13.4335 C   0  0  0  0  0  0  0  0  0  0  0  0
   21.1953  -20.8125  -13.6027 O   0  0  0  0  0  0  0  0  0  0  0  0
   19.3200  -21.2071  -12.1371 O   0  0  0  0  0  0  0  0  0  0  0  0
  2  1  1  0
  3  2  2  0
  4  2  1  0
  5  4  1  0
  6  7  1  0
  6  5  1  0
  8  9  1  6
  8 10  1  0
  8  7  1  0
 10 11  2  0
 13 12  1  0
 14 13  2  0
 15 13  1  0
 16 15  1  0
 17 16  1  0
 18 17  1  0
 19 18  1  6
 19 21  1  0
 20 10  1  0
 20 19  1  0
 21 22  2  0
 21 28  1  0
 24 25  1  0
 24 23  1  0
 25 27  1  0
 25 26  1  6
 27 29  1  0
 27 28  1  1
 29 31  2  0
 29 30  1  0
M  END
$$$$
