RRI.pdb
     RDKit          3D

 31 30  0  0  1  0  0  0  0  0999 V2000
   29.4291  -15.9773  -19.1844 N   0  0  0  0  0  0  0  0  0  0  0  0
   28.7314  -16.5978  -20.2877 C   0  0  0  0  0  0  0  0  0  0  0  0
   29.3542  -16.8686  -21.3755 N   0  0  0  0  0  0  0  0  0  0  0  0
   27.3660  -16.8907  -20.1339 N   0  0  0  0  0  0  0  0  0  0  0  0
   26.7068  -16.6297  -18.8729 C   0  0  0  0  0  0  0  0  0  0  0  0
   25.2628  -16.9445  -19.0395 C   0  0  0  0  0  0  0  0  0  0  0  0
   24.6915  -17.9751  -18.1405 C   0  0  0  0  0  0  0  0  0  0  0  0
   25.3838  -19.2899  -18.0955 C   0  0  2  0  0  0  0  0  0  0  0  0
   25.1462  -20.0802  -19.2559 N   0  0  0  0  0  0  0  0  0  0  0  0
   24.8178  -20.0209  -16.8963 C   0  0  0  0  0  0  0  0  0  0  0  0
   23.7212  -20.5955  -17.0453 O   0  0  0  0  0  0  0  0  0  0  0  0
   28.9268  -17.3212  -22.1820 N   0  0  0  0  0  0  0  0  0  0  0  0
   26.1021  -19.2401   -8.6909 C   0  0  0  0  0  0  0  0  0  0  0  0
   25.5785  -20.5794   -8.6804 N   0  0  0  0  0  0  0  0  0  0  0  0
   24.7427  -20.9511   -7.7725 N   0  0  0  0  0  0  0  0  0  0  0  0
   25.9609  -21.5282   -9.6608 C   0  0  0  0  0  0  0  0  0  0  0  0
   26.5303  -21.2149  -10.9356 C   0  0  0  0  0  0  0  0  0  0  0  0
   25.4929  -21.0988  -12.0494 C   0  0  0  0  0  0  0  0  0  0  0  0
   26.0748  -20.5952  -13.3236 C   0  0  1  0  0  0  0  0  0  0  0  0
   25.0209  -20.5983  -14.4418 N   0  0  0  0  0  0  0  0  0  0  0  0
   25.5164  -20.0428  -15.6649 C   0  0  0  0  0  0  0  0  0  0  0  0
   23.8130  -19.8510  -13.9619 O   0  0  0  0  0  0  0  0  0  0  0  0
   23.9169  -18.6264  -13.6377 C   0  0  0  0  0  0  0  0  0  0  0  0
   24.4102  -21.9301   -7.7817 C   0  0  0  0  0  0  0  0  0  0  0  0
   18.2312  -18.8526  -15.5335 C   0  0  1  0  0  0  0  0  0  0  0  0
   19.0953  -19.1458  -14.3214 C   0  0  0  0  0  0  0  0  0  0  0  0
   20.3635  -19.8306  -14.6617 C   0  0  2  0  0  0  0  0  0  0  0  0
   20.0242  -21.2073  -15.2525 N   0  0  0  0  0  0  0  0  0  0  0  0
   21.3096  -19.9916  -13.4911 C   0  0  0  0  0  0  0  0  0  0  0  0
   22.5916  -20.5180  -13.8816 O   0  0  0  0  0  0  0  0  0  0  0  0
   20.6584  -20.8296  -12.4723 O   0  0  0  0  0  0  0  0  0  0  0  0
  2  1  1  0
  3  2  2  0
  4  2  1  0
  5  4  1  0
  6  7  1  0
  6  5  1  0
  8  9  1  6
  8 10  1  0
  8  7  1  0
 10 11  2  0
 13 12  1  0
 14 13  2  0
 15 13  1  0
 16 15  1  0
 17 16  1  0
 18 17  1  0
 19 18  1  6
 19 21  1  0
 20 10  1  0
 20 19  1  0
 21 22  2  0
 21 28  1  0
 24 25  1  0
 24 23  1  0
 25 27  1  0
 25 26  1  6
 27 29  1  0
 27 28  1  1
 29 31  2  0
 29 30  1  0
M  END
$$$$
