RRI.pdb
     RDKit          3D

 31 30  0  0  1  0  0  0  0  0999 V2000
   33.1023  -25.0956  -15.1273 N   0  0  0  0  0  0  0  0  0  0  0  0
   33.2560  -24.7541  -16.5233 C   0  0  0  0  0  0  0  0  0  0  0  0
   34.2605  -25.1930  -17.1889 N   0  0  0  0  0  0  0  0  0  0  0  0
   32.2833  -23.9355  -17.1214 N   0  0  0  0  0  0  0  0  0  0  0  0
   31.0097  -23.7282  -16.4673 C   0  0  0  0  0  0  0  0  0  0  0  0
   30.2128  -22.7942  -17.3067 C   0  0  0  0  0  0  0  0  0  0  0  0
   28.8429  -22.4736  -16.8405 C   0  0  0  0  0  0  0  0  0  0  0  0
   28.0572  -23.5841  -16.2410 C   0  0  2  0  0  0  0  0  0  0  0  0
   27.6640  -24.5630  -17.1975 N   0  0  0  0  0  0  0  0  0  0  0  0
   26.8079  -22.9507  -15.6656 C   0  0  0  0  0  0  0  0  0  0  0  0
   25.7947  -22.9278  -16.3922 O   0  0  0  0  0  0  0  0  0  0  0  0
   34.4534  -24.9511  -18.1596 N   0  0  0  0  0  0  0  0  0  0  0  0
   22.0976  -21.4207  -11.0086 C   0  0  0  0  0  0  0  0  0  0  0  0
   22.3575  -20.6106   -9.8492 N   0  0  0  0  0  0  0  0  0  0  0  0
   21.3870  -20.0848   -9.1839 N   0  0  0  0  0  0  0  0  0  0  0  0
   23.6796  -20.3654   -9.4024 C   0  0  0  0  0  0  0  0  0  0  0  0
   24.8697  -20.8120  -10.0596 C   0  0  0  0  0  0  0  0  0  0  0  0
   24.6686  -21.0995  -11.5453 C   0  0  0  0  0  0  0  0  0  0  0  0
   25.8916  -21.6479  -12.1930 C   0  0  2  0  0  0  0  0  0  0  0  0
   25.6736  -21.8273  -13.7034 N   0  0  0  0  0  0  0  0  0  0  0  0
   26.8057  -22.4125  -14.3559 C   0  0  0  0  0  0  0  0  0  0  0  0
   25.3393  -20.4929  -14.2996 O   0  0  0  0  0  0  0  0  0  0  0  0
   26.1231  -19.5083  -14.1211 C   0  0  0  0  0  0  0  0  0  0  0  0
   21.6038  -19.6076   -8.2925 C   0  0  0  0  0  0  0  0  0  0  0  0
   24.6596  -19.6788  -19.3379 C   0  0  2  0  0  0  0  0  0  0  0  0
   24.7947  -19.5661  -17.8309 C   0  0  0  0  0  0  0  0  0  0  0  0
   23.5121  -19.2737  -17.1510 C   0  0  2  0  0  0  0  0  0  0  0  0
   22.9494  -17.9652  -17.7261 N   0  0  0  0  0  0  0  0  0  0  0  0
   23.6235  -19.1684  -15.6451 C   0  0  0  0  0  0  0  0  0  0  0  0
   24.1684  -20.3578  -15.0440 O   0  0  0  0  0  0  0  0  0  0  0  0
   22.2996  -18.8330  -15.0981 O   0  0  0  0  0  0  0  0  0  0  0  0
  2  1  1  0
  3  2  2  0
  4  2  1  0
  5  4  1  0
  6  7  1  0
  6  5  1  0
  8  9  1  6
  8 10  1  0
  8  7  1  0
 10 11  2  0
 13 12  1  0
 14 13  2  0
 15 13  1  0
 16 15  1  0
 17 16  1  0
 18 17  1  0
 19 18  1  1
 19 21  1  0
 20 10  1  0
 20 19  1  0
 21 22  2  0
 21 28  1  0
 24 25  1  0
 24 23  1  0
 25 27  1  0
 25 26  1  1
 27 29  1  0
 27 28  1  6
 29 31  2  0
 29 30  1  0
M  END
$$$$
