RRI.pdb
     RDKit          3D

 31 30  0  0  1  0  0  0  0  0999 V2000
   19.2901  -13.7127  -22.8439 N   0  0  0  0  0  0  0  0  0  0  0  0
   19.5323  -14.8784  -22.0243 C   0  0  0  0  0  0  0  0  0  0  0  0
   18.9859  -16.0005  -22.3196 N   0  0  0  0  0  0  0  0  0  0  0  0
   20.3737  -14.7458  -20.9071 N   0  0  0  0  0  0  0  0  0  0  0  0
   20.3133  -13.5517  -20.0926 C   0  0  0  0  0  0  0  0  0  0  0  0
   21.3593  -12.6137  -20.5804 C   0  0  0  0  0  0  0  0  0  0  0  0
   21.4841  -11.3183  -19.8713 C   0  0  0  0  0  0  0  0  0  0  0  0
   21.9926  -11.3598  -18.4750 C   0  0  2  0  0  0  0  0  0  0  0  0
   21.5465  -12.5061  -17.7576 N   0  0  0  0  0  0  0  0  0  0  0  0
   21.4427  -10.1255  -17.7917 C   0  0  0  0  0  0  0  0  0  0  0  0
   21.6844   -9.0243  -18.3247 O   0  0  0  0  0  0  0  0  0  0  0  0
   19.1064  -16.8553  -21.7785 N   0  0  0  0  0  0  0  0  0  0  0  0
   14.3765  -11.9069  -13.3473 C   0  0  0  0  0  0  0  0  0  0  0  0
   14.3533  -11.5206  -14.7324 N   0  0  0  0  0  0  0  0  0  0  0  0
   13.3150  -11.7489  -15.4610 N   0  0  0  0  0  0  0  0  0  0  0  0
   15.4628  -10.8804  -15.3379 C   0  0  0  0  0  0  0  0  0  0  0  0
   16.6974  -10.5728  -14.6830 C   0  0  0  0  0  0  0  0  0  0  0  0
   17.7433   -9.9688  -15.6167 C   0  0  0  0  0  0  0  0  0  0  0  0
   19.0007   -9.6041  -14.9083 C   0  0  2  0  0  0  0  0  0  0  0  0
   20.0729   -9.1409  -15.9067 N   0  0  0  0  0  0  0  0  0  0  0  0
   20.6871  -10.2332  -16.5991 C   0  0  0  0  0  0  0  0  0  0  0  0
   21.0945   -8.3294  -15.1681 O   0  0  0  0  0  0  0  0  0  0  0  0
   22.0082   -8.9161  -14.5074 C   0  0  0  0  0  0  0  0  0  0  0  0
   13.3450  -11.4775  -16.4583 C   0  0  0  0  0  0  0  0  0  0  0  0
   24.6984   -3.9761  -16.7481 C   0  0  1  0  0  0  0  0  0  0  0  0
   23.8727   -4.4733  -15.5763 C   0  0  0  0  0  0  0  0  0  0  0  0
   22.8374   -5.4567  -15.9685 C   0  0  2  0  0  0  0  0  0  0  0  0
   21.9210   -4.8011  -17.0124 N   0  0  0  0  0  0  0  0  0  0  0  0
   22.0110   -5.9754  -14.8112 C   0  0  0  0  0  0  0  0  0  0  0  0
   21.0226   -6.9382  -15.2222 O   0  0  0  0  0  0  0  0  0  0  0  0
   21.4060   -4.8294  -14.1149 O   0  0  0  0  0  0  0  0  0  0  0  0
  2  1  1  0
  3  2  2  0
  4  2  1  0
  5  4  1  0
  6  7  1  0
  6  5  1  0
  8  9  1  1
  8 10  1  0
  8  7  1  0
 10 11  2  0
 13 12  1  0
 14 13  2  0
 15 13  1  0
 16 15  1  0
 17 16  1  0
 18 17  1  0
 19 18  1  6
 19 21  1  0
 20 10  1  0
 20 19  1  0
 21 22  2  0
 21 28  1  0
 24 25  1  0
 24 23  1  0
 25 27  1  0
 25 26  1  6
 27 29  1  0
 27 28  1  6
 29 31  2  0
 29 30  1  0
M  END
$$$$
