RRI.pdb
     RDKit          3D

 31 30  0  0  1  0  0  0  0  0999 V2000
   27.9823  -22.0683  -18.5772 N   0  0  0  0  0  0  0  0  0  0  0  0
   28.9728  -23.0106  -18.1081 C   0  0  0  0  0  0  0  0  0  0  0  0
   29.7360  -23.6149  -18.9430 N   0  0  0  0  0  0  0  0  0  0  0  0
   29.0720  -23.2422  -16.7259 N   0  0  0  0  0  0  0  0  0  0  0  0
   28.1333  -22.6197  -15.8181 C   0  0  0  0  0  0  0  0  0  0  0  0
   28.8686  -21.5889  -15.0380 C   0  0  0  0  0  0  0  0  0  0  0  0
   28.0859  -20.8073  -14.0515 C   0  0  0  0  0  0  0  0  0  0  0  0
   26.7717  -20.2773  -14.5007 C   0  0  2  0  0  0  0  0  0  0  0  0
   26.8949  -19.1517  -15.3641 N   0  0  0  0  0  0  0  0  0  0  0  0
   26.0455  -19.8391  -13.2462 C   0  0  0  0  0  0  0  0  0  0  0  0
   26.5730  -18.9340  -12.5698 O   0  0  0  0  0  0  0  0  0  0  0  0
   30.4366  -24.3065  -18.6807 N   0  0  0  0  0  0  0  0  0  0  0  0
   20.1705  -21.7473   -8.3291 C   0  0  0  0  0  0  0  0  0  0  0  0
   19.7724  -22.2297   -9.6240 N   0  0  0  0  0  0  0  0  0  0  0  0
   19.2963  -23.4191   -9.7644 N   0  0  0  0  0  0  0  0  0  0  0  0
   19.8889  -21.4193  -10.7805 C   0  0  0  0  0  0  0  0  0  0  0  0
   20.3155  -20.0534  -10.7923 C   0  0  0  0  0  0  0  0  0  0  0  0
   21.8269  -19.8906  -10.6520 C   0  0  0  0  0  0  0  0  0  0  0  0
   22.5644  -20.3170  -11.8727 C   0  0  2  0  0  0  0  0  0  0  0  0
   24.0788  -20.1382  -11.6837 N   0  0  0  0  0  0  0  0  0  0  0  0
   24.8198  -20.4404  -12.8709 C   0  0  0  0  0  0  0  0  0  0  0  0
   24.5222  -20.9989  -10.5390 O   0  0  0  0  0  0  0  0  0  0  0  0
   24.6809  -22.2479  -10.7137 C   0  0  0  0  0  0  0  0  0  0  0  0
   19.1159  -23.7665  -10.7215 C   0  0  0  0  0  0  0  0  0  0  0  0
   28.4226  -19.1997   -7.1998 C   0  0  2  0  0  0  0  0  0  0  0  0
   27.4543  -20.0893   -7.9568 C   0  0  0  0  0  0  0  0  0  0  0  0
   26.1464  -20.2373   -7.2781 C   0  0  2  0  0  0  0  0  0  0  0  0
   26.3856  -20.8896   -5.9082 N   0  0  0  0  0  0  0  0  0  0  0  0
   25.1335  -21.0435   -8.0625 C   0  0  0  0  0  0  0  0  0  0  0  0
   24.7546  -20.4083   -9.2978 O   0  0  0  0  0  0  0  0  0  0  0  0
   23.9710  -21.3049   -7.1996 O   0  0  0  0  0  0  0  0  0  0  0  0
  2  1  1  0
  3  2  2  0
  4  2  1  0
  5  4  1  0
  6  7  1  0
  6  5  1  0
  8  9  1  6
  8 10  1  0
  8  7  1  0
 10 11  2  0
 13 12  1  0
 14 13  2  0
 15 13  1  0
 16 15  1  0
 17 16  1  0
 18 17  1  0
 19 18  1  6
 19 21  1  0
 20 10  1  0
 20 19  1  0
 21 22  2  0
 21 28  1  0
 24 25  1  0
 24 23  1  0
 25 27  1  0
 25 26  1  1
 27 29  1  0
 27 28  1  1
 29 31  2  0
 29 30  1  0
M  END
$$$$
