RRI.pdb
     RDKit          3D

 31 30  0  0  1  0  0  0  0  0999 V2000
   30.7944  -23.4414  -16.8616 N   0  0  0  0  0  0  0  0  0  0  0  0
   31.0046  -22.5831  -18.0054 C   0  0  0  0  0  0  0  0  0  0  0  0
   32.1166  -22.6178  -18.6433 N   0  0  0  0  0  0  0  0  0  0  0  0
   29.9661  -21.7194  -18.3918 N   0  0  0  0  0  0  0  0  0  0  0  0
   28.6924  -21.7667  -17.7074 C   0  0  0  0  0  0  0  0  0  0  0  0
   28.6226  -20.5960  -16.7928 C   0  0  0  0  0  0  0  0  0  0  0  0
   28.6248  -20.8786  -15.3379 C   0  0  0  0  0  0  0  0  0  0  0  0
   27.5280  -21.7353  -14.8154 C   0  0  2  0  0  0  0  0  0  0  0  0
   26.4511  -21.8781  -15.7360 N   0  0  0  0  0  0  0  0  0  0  0  0
   27.0067  -21.0392  -13.5758 C   0  0  0  0  0  0  0  0  0  0  0  0
   27.8231  -20.3682  -12.9137 O   0  0  0  0  0  0  0  0  0  0  0  0
   32.3821  -21.9514  -19.3668 N   0  0  0  0  0  0  0  0  0  0  0  0
   21.9091  -19.3521  -16.0261 C   0  0  0  0  0  0  0  0  0  0  0  0
   21.1614  -20.4678  -15.5122 N   0  0  0  0  0  0  0  0  0  0  0  0
   20.7308  -21.3904  -16.3025 N   0  0  0  0  0  0  0  0  0  0  0  0
   20.8754  -20.5897  -14.1297 C   0  0  0  0  0  0  0  0  0  0  0  0
   21.4150  -19.7575  -13.0983 C   0  0  0  0  0  0  0  0  0  0  0  0
   22.9412  -19.7284  -13.0811 C   0  0  0  0  0  0  0  0  0  0  0  0
   23.5197  -20.6380  -12.0546 C   0  0  2  0  0  0  0  0  0  0  0  0
   25.0533  -20.5440  -12.0465 N   0  0  0  0  0  0  0  0  0  0  0  0
   25.6469  -21.1541  -13.1978 C   0  0  0  0  0  0  0  0  0  0  0  0
   25.5637  -21.1691  -10.7830 O   0  0  0  0  0  0  0  0  0  0  0  0
   25.7356  -22.4273  -10.7268 C   0  0  0  0  0  0  0  0  0  0  0  0
   20.2317  -22.1969  -15.8907 C   0  0  0  0  0  0  0  0  0  0  0  0
   28.5345  -19.2820   -5.6693 C   0  0  1  0  0  0  0  0  0  0  0  0
   27.6130  -20.2732   -6.3552 C   0  0  0  0  0  0  0  0  0  0  0  0
   27.0662  -19.7705   -7.6363 C   0  0  2  0  0  0  0  0  0  0  0  0
   26.3275  -18.4522   -7.3605 N   0  0  0  0  0  0  0  0  0  0  0  0
   26.1402  -20.7432   -8.3345 C   0  0  0  0  0  0  0  0  0  0  0  0
   25.8427  -20.3527   -9.6880 O   0  0  0  0  0  0  0  0  0  0  0  0
   24.9209  -20.8947   -7.5254 O   0  0  0  0  0  0  0  0  0  0  0  0
  2  1  1  0
  3  2  2  0
  4  2  1  0
  5  4  1  0
  6  7  1  0
  6  5  1  0
  8  9  1  6
  8 10  1  0
  8  7  1  0
 10 11  2  0
 13 12  1  0
 14 13  2  0
 15 13  1  0
 16 15  1  0
 17 16  1  0
 18 17  1  0
 19 18  1  6
 19 21  1  0
 20 10  1  0
 20 19  1  0
 21 22  2  0
 21 28  1  0
 24 25  1  0
 24 23  1  0
 25 27  1  0
 25 26  1  1
 27 29  1  0
 27 28  1  1
 29 31  2  0
 29 30  1  0
M  END
$$$$
