RRI.pdb
     RDKit          3D

 31 30  0  0  1  0  0  0  0  0999 V2000
   18.7862  -21.7868  -13.7578 N   0  0  0  0  0  0  0  0  0  0  0  0
   18.8971  -20.4045  -14.1654 C   0  0  0  0  0  0  0  0  0  0  0  0
   17.8432  -19.6915  -14.3253 N   0  0  0  0  0  0  0  0  0  0  0  0
   20.1798  -19.8726  -14.3795 N   0  0  0  0  0  0  0  0  0  0  0  0
   21.3489  -20.6007  -13.9369 C   0  0  0  0  0  0  0  0  0  0  0  0
   21.4361  -20.4676  -12.4582 C   0  0  0  0  0  0  0  0  0  0  0  0
   22.7926  -20.3511  -11.8726 C   0  0  0  0  0  0  0  0  0  0  0  0
   23.9068  -20.9932  -12.6184 C   0  0  2  0  0  0  0  0  0  0  0  0
   23.5190  -22.2056  -13.2566 N   0  0  0  0  0  0  0  0  0  0  0  0
   24.9698  -21.3147  -11.5891 C   0  0  0  0  0  0  0  0  0  0  0  0
   24.6173  -21.9807  -10.5954 O   0  0  0  0  0  0  0  0  0  0  0  0
   17.8523  -18.7114  -14.6033 N   0  0  0  0  0  0  0  0  0  0  0  0
   32.6177  -22.9631  -11.7739 C   0  0  0  0  0  0  0  0  0  0  0  0
   32.4185  -22.8744  -10.3525 N   0  0  0  0  0  0  0  0  0  0  0  0
   33.4221  -22.9107   -9.5447 N   0  0  0  0  0  0  0  0  0  0  0  0
   31.1217  -22.7445   -9.7964 C   0  0  0  0  0  0  0  0  0  0  0  0
   29.9662  -22.2733  -10.4967 C   0  0  0  0  0  0  0  0  0  0  0  0
   29.7848  -20.7597  -10.4149 C   0  0  0  0  0  0  0  0  0  0  0  0
   28.6413  -20.2750  -11.2353 C   0  0  2  0  0  0  0  0  0  0  0  0
   27.3234  -20.9044  -10.7576 N   0  0  0  0  0  0  0  0  0  0  0  0
   26.3036  -20.8718  -11.7620 C   0  0  0  0  0  0  0  0  0  0  0  0
   26.8777  -20.1942   -9.5148 O   0  0  0  0  0  0  0  0  0  0  0  0
   26.1056  -19.1885   -9.6059 C   0  0  0  0  0  0  0  0  0  0  0  0
   33.2414  -22.8110   -8.5315 C   0  0  0  0  0  0  0  0  0  0  0  0
   28.4270  -20.9323   -3.4525 C   0  0  1  0  0  0  0  0  0  0  0  0
   27.6127  -20.2373   -4.5277 C   0  0  0  0  0  0  0  0  0  0  0  0
   27.7735  -20.8485   -5.8669 C   0  0  2  0  0  0  0  0  0  0  0  0
   29.2613  -21.1692   -6.0747 N   0  0  0  0  0  0  0  0  0  0  0  0
   27.2696  -19.9840   -7.0027 C   0  0  0  0  0  0  0  0  0  0  0  0
   27.3204  -20.6546   -8.2758 O   0  0  0  0  0  0  0  0  0  0  0  0
   28.0347  -18.7275   -7.0122 O   0  0  0  0  0  0  0  0  0  0  0  0
  2  1  1  0
  3  2  2  0
  4  2  1  0
  5  4  1  0
  6  7  1  0
  6  5  1  0
  8  9  1  1
  8 10  1  0
  8  7  1  0
 10 11  2  0
 13 12  1  0
 14 13  2  0
 15 13  1  0
 16 15  1  0
 17 16  1  0
 18 17  1  0
 19 18  1  6
 19 21  1  0
 20 10  1  0
 20 19  1  0
 21 22  2  0
 21 28  1  0
 24 25  1  0
 24 23  1  0
 25 27  1  0
 25 26  1  1
 27 29  1  0
 27 28  1  6
 29 31  2  0
 29 30  1  0
M  END
$$$$
