RRI.pdb
     RDKit          3D

 31 30  0  0  1  0  0  0  0  0999 V2000
   29.4064  -19.7905  -20.2506 N   0  0  0  0  0  0  0  0  0  0  0  0
   28.3045  -18.9164  -20.5833 C   0  0  0  0  0  0  0  0  0  0  0  0
   28.3040  -18.2705  -21.6913 N   0  0  0  0  0  0  0  0  0  0  0  0
   27.2469  -18.7967  -19.6662 N   0  0  0  0  0  0  0  0  0  0  0  0
   27.2271  -19.6143  -18.4729 C   0  0  0  0  0  0  0  0  0  0  0  0
   28.1814  -19.0218  -17.4983 C   0  0  0  0  0  0  0  0  0  0  0  0
   27.7005  -18.8480  -16.1072 C   0  0  0  0  0  0  0  0  0  0  0  0
   28.0499  -19.9163  -15.1342 C   0  0  2  0  0  0  0  0  0  0  0  0
   27.6090  -21.2059  -15.5465 N   0  0  0  0  0  0  0  0  0  0  0  0
   27.3394  -19.5585  -13.8458 C   0  0  0  0  0  0  0  0  0  0  0  0
   27.5255  -18.4117  -13.3925 O   0  0  0  0  0  0  0  0  0  0  0  0
   27.5713  -17.6220  -21.9751 N   0  0  0  0  0  0  0  0  0  0  0  0
   19.8285  -22.1678  -12.6464 C   0  0  0  0  0  0  0  0  0  0  0  0
   20.4681  -21.2988  -13.5971 N   0  0  0  0  0  0  0  0  0  0  0  0
   19.7988  -20.3753  -14.1973 N   0  0  0  0  0  0  0  0  0  0  0  0
   21.8455  -21.4275  -13.9033 C   0  0  0  0  0  0  0  0  0  0  0  0
   22.7097  -22.4541  -13.4063 C   0  0  0  0  0  0  0  0  0  0  0  0
   24.1249  -21.9633  -13.1116 C   0  0  0  0  0  0  0  0  0  0  0  0
   24.1433  -20.6186  -12.4736 C   0  0  1  0  0  0  0  0  0  0  0  0
   25.5820  -20.1938  -12.1408 N   0  0  0  0  0  0  0  0  0  0  0  0
   26.5018  -20.4967  -13.1954 C   0  0  0  0  0  0  0  0  0  0  0  0
   25.9925  -20.8586  -10.8613 O   0  0  0  0  0  0  0  0  0  0  0  0
   26.2383  -22.1057  -10.8494 C   0  0  0  0  0  0  0  0  0  0  0  0
   20.2915  -19.7771  -14.8819 C   0  0  0  0  0  0  0  0  0  0  0  0
   29.0935  -20.2076   -7.7636 C   0  0  1  0  0  0  0  0  0  0  0  0
   28.0901  -19.0695   -7.7577 C   0  0  0  0  0  0  0  0  0  0  0  0
   26.7203  -19.5020   -7.3979 C   0  0  2  0  0  0  0  0  0  0  0  0
   26.7498  -20.0519   -5.9639 N   0  0  0  0  0  0  0  0  0  0  0  0
   26.1356  -20.5374   -8.3345 C   0  0  0  0  0  0  0  0  0  0  0  0
   26.0986  -20.0907   -9.7027 O   0  0  0  0  0  0  0  0  0  0  0  0
   24.8014  -20.9154   -7.8433 O   0  0  0  0  0  0  0  0  0  0  0  0
  2  1  1  0
  3  2  2  0
  4  2  1  0
  5  4  1  0
  6  7  1  0
  6  5  1  0
  8  9  1  6
  8 10  1  0
  8  7  1  0
 10 11  2  0
 13 12  1  0
 14 13  2  0
 15 13  1  0
 16 15  1  0
 17 16  1  0
 18 17  1  0
 19 18  1  6
 19 21  1  0
 20 10  1  0
 20 19  1  0
 21 22  2  0
 21 28  1  0
 24 25  1  0
 24 23  1  0
 25 27  1  0
 25 26  1  1
 27 29  1  0
 27 28  1  1
 29 31  2  0
 29 30  1  0
M  END
$$$$
