RRI.pdb
     RDKit          3D

 31 30  0  0  1  0  0  0  0  0999 V2000
   18.3927  -25.6332   -8.2883 N   0  0  0  0  0  0  0  0  0  0  0  0
   18.2129  -27.0444   -8.5440 C   0  0  0  0  0  0  0  0  0  0  0  0
   19.0279  -27.6709   -9.3108 N   0  0  0  0  0  0  0  0  0  0  0  0
   17.1303  -27.7006   -7.9347 N   0  0  0  0  0  0  0  0  0  0  0  0
   16.2198  -26.9620   -7.0871 C   0  0  0  0  0  0  0  0  0  0  0  0
   16.7128  -27.0668   -5.6879 C   0  0  0  0  0  0  0  0  0  0  0  0
   15.9220  -26.3745   -4.6430 C   0  0  0  0  0  0  0  0  0  0  0  0
   15.9156  -24.8883   -4.6756 C   0  0  2  0  0  0  0  0  0  0  0  0
   16.9409  -24.3487   -5.5033 N   0  0  0  0  0  0  0  0  0  0  0  0
   16.1646  -24.4366   -3.2519 C   0  0  0  0  0  0  0  0  0  0  0  0
   17.3525  -24.3066   -2.8954 O   0  0  0  0  0  0  0  0  0  0  0  0
   18.9973  -28.6752   -9.4795 N   0  0  0  0  0  0  0  0  0  0  0  0
   11.8873  -22.8282    3.8445 C   0  0  0  0  0  0  0  0  0  0  0  0
   12.5559  -21.5561    3.7923 N   0  0  0  0  0  0  0  0  0  0  0  0
   12.7261  -20.8586    4.8626 N   0  0  0  0  0  0  0  0  0  0  0  0
   13.0468  -21.0308    2.5713 C   0  0  0  0  0  0  0  0  0  0  0  0
   12.8701  -21.6301    1.2840 C   0  0  0  0  0  0  0  0  0  0  0  0
   14.1229  -22.3326    0.7667 C   0  0  0  0  0  0  0  0  0  0  0  0
   13.9340  -22.9143   -0.5904 C   0  0  2  0  0  0  0  0  0  0  0  0
   15.2028  -23.6500   -1.0484 N   0  0  0  0  0  0  0  0  0  0  0  0
   15.0840  -24.1759   -2.3748 C   0  0  0  0  0  0  0  0  0  0  0  0
   15.5058  -24.7387   -0.0632 O   0  0  0  0  0  0  0  0  0  0  0  0
   14.8724  -25.8390   -0.1248 C   0  0  0  0  0  0  0  0  0  0  0  0
   13.2193  -19.9531    4.7860 C   0  0  0  0  0  0  0  0  0  0  0  0
   20.6598  -25.7314    1.2525 C   0  0  2  0  0  0  0  0  0  0  0  0
   19.1615  -25.8640    1.0536 C   0  0  0  0  0  0  0  0  0  0  0  0
   18.3752  -25.3900    2.2155 C   0  0  2  0  0  0  0  0  0  0  0  0
   18.7178  -26.2758    3.4228 N   0  0  0  0  0  0  0  0  0  0  0  0
   16.8789  -25.3878    1.9867 C   0  0  0  0  0  0  0  0  0  0  0  0
   16.4835  -24.5218    0.9065 O   0  0  0  0  0  0  0  0  0  0  0  0
   16.2109  -25.0330    3.2485 O   0  0  0  0  0  0  0  0  0  0  0  0
  2  1  1  0
  3  2  2  0
  4  2  1  0
  5  4  1  0
  6  7  1  0
  6  5  1  0
  8  9  1  6
  8 10  1  0
  8  7  1  0
 10 11  2  0
 13 12  1  0
 14 13  2  0
 15 13  1  0
 16 15  1  0
 17 16  1  0
 18 17  1  0
 19 18  1  6
 19 21  1  0
 20 10  1  0
 20 19  1  0
 21 22  2  0
 21 28  1  0
 24 25  1  0
 24 23  1  0
 25 27  1  0
 25 26  1  6
 27 29  1  0
 27 28  1  1
 29 31  2  0
 29 30  1  0
M  END
$$$$
