RRI.pdb
     RDKit          3D

 31 30  0  0  1  0  0  0  0  0999 V2000
   30.5699  -23.0672  -17.6032 N   0  0  0  0  0  0  0  0  0  0  0  0
   30.5413  -24.1081  -16.6008 C   0  0  0  0  0  0  0  0  0  0  0  0
   31.5294  -24.2584  -15.7972 N   0  0  0  0  0  0  0  0  0  0  0  0
   29.4117  -24.9409  -16.5352 N   0  0  0  0  0  0  0  0  0  0  0  0
   28.1119  -24.4292  -16.9113 C   0  0  0  0  0  0  0  0  0  0  0  0
   27.7547  -23.3459  -15.9570 C   0  0  0  0  0  0  0  0  0  0  0  0
   26.3839  -22.7907  -16.0526 C   0  0  0  0  0  0  0  0  0  0  0  0
   25.2634  -23.6913  -15.6739 C   0  0  2  0  0  0  0  0  0  0  0  0
   25.0863  -24.7687  -16.5880 N   0  0  0  0  0  0  0  0  0  0  0  0
   24.0133  -22.8370  -15.6955 C   0  0  0  0  0  0  0  0  0  0  0  0
   23.5449  -22.5415  -16.8128 O   0  0  0  0  0  0  0  0  0  0  0  0
   31.6018  -25.0106  -15.1139 N   0  0  0  0  0  0  0  0  0  0  0  0
   16.6359  -22.9759  -11.8841 C   0  0  0  0  0  0  0  0  0  0  0  0
   16.7385  -21.5426  -11.9411 N   0  0  0  0  0  0  0  0  0  0  0  0
   15.6823  -20.8118  -12.0481 N   0  0  0  0  0  0  0  0  0  0  0  0
   17.9951  -20.8905  -11.8817 C   0  0  0  0  0  0  0  0  0  0  0  0
   19.2668  -21.5465  -11.8798 C   0  0  0  0  0  0  0  0  0  0  0  0
   20.1286  -21.1989  -13.0909 C   0  0  0  0  0  0  0  0  0  0  0  0
   21.4196  -21.9397  -13.1065 C   0  0  2  0  0  0  0  0  0  0  0  0
   22.2021  -21.6422  -14.3950 N   0  0  0  0  0  0  0  0  0  0  0  0
   23.4128  -22.4008  -14.4897 C   0  0  0  0  0  0  0  0  0  0  0  0
   22.4831  -20.1708  -14.4544 O   0  0  0  0  0  0  0  0  0  0  0  0
   23.1518  -19.6185  -13.5251 C   0  0  0  0  0  0  0  0  0  0  0  0
   15.7873  -19.7848  -11.9906 C   0  0  0  0  0  0  0  0  0  0  0  0
   23.3263  -15.9607  -18.8231 C   0  0  1  0  0  0  0  0  0  0  0  0
   22.8116  -16.2557  -17.4266 C   0  0  0  0  0  0  0  0  0  0  0  0
   22.6358  -17.7024  -17.1638 C   0  0  2  0  0  0  0  0  0  0  0  0
   21.6735  -18.2701  -18.2179 N   0  0  0  0  0  0  0  0  0  0  0  0
   22.1227  -18.0180  -15.7751 C   0  0  0  0  0  0  0  0  0  0  0  0
   22.0035  -19.4327  -15.5354 O   0  0  0  0  0  0  0  0  0  0  0  0
   20.8448  -17.3170  -15.5756 O   0  0  0  0  0  0  0  0  0  0  0  0
  2  1  1  0
  3  2  2  0
  4  2  1  0
  5  4  1  0
  6  7  1  0
  6  5  1  0
  8  9  1  6
  8 10  1  0
  8  7  1  0
 10 11  2  0
 13 12  1  0
 14 13  2  0
 15 13  1  0
 16 15  1  0
 17 16  1  0
 18 17  1  0
 19 18  1  6
 19 21  1  0
 20 10  1  0
 20 19  1  0
 21 22  2  0
 21 28  1  0
 24 25  1  0
 24 23  1  0
 25 27  1  0
 25 26  1  6
 27 29  1  0
 27 28  1  6
 29 31  2  0
 29 30  1  0
M  END
$$$$
