RRI.pdb
     RDKit          3D

 31 30  0  0  1  0  0  0  0  0999 V2000
   16.2347  -18.3903  -17.5619 N   0  0  0  0  0  0  0  0  0  0  0  0
   16.3448  -17.0512  -17.0291 C   0  0  0  0  0  0  0  0  0  0  0  0
   15.5325  -16.1352  -17.4108 N   0  0  0  0  0  0  0  0  0  0  0  0
   17.3576  -16.7869  -16.0919 N   0  0  0  0  0  0  0  0  0  0  0  0
   18.7453  -16.9822  -16.4508 C   0  0  0  0  0  0  0  0  0  0  0  0
   19.0729  -18.4176  -16.2407 C   0  0  0  0  0  0  0  0  0  0  0  0
   20.1286  -18.7278  -15.2478 C   0  0  0  0  0  0  0  0  0  0  0  0
   21.5206  -18.3432  -15.6006 C   0  0  2  0  0  0  0  0  0  0  0  0
   21.7665  -18.3809  -17.0027 N   0  0  0  0  0  0  0  0  0  0  0  0
   22.4193  -19.3615  -14.9311 C   0  0  0  0  0  0  0  0  0  0  0  0
   21.9985  -19.8905  -13.8831 O   0  0  0  0  0  0  0  0  0  0  0  0
   15.5635  -15.1706  -17.0844 N   0  0  0  0  0  0  0  0  0  0  0  0
   29.5132  -23.3919  -18.4757 C   0  0  0  0  0  0  0  0  0  0  0  0
   28.0844  -23.5468  -18.5273 N   0  0  0  0  0  0  0  0  0  0  0  0
   27.5233  -24.1398  -19.5245 N   0  0  0  0  0  0  0  0  0  0  0  0
   27.2518  -23.0567  -17.4908 C   0  0  0  0  0  0  0  0  0  0  0  0
   27.7117  -22.5049  -16.2532 C   0  0  0  0  0  0  0  0  0  0  0  0
   26.5788  -22.0879  -15.3187 C   0  0  0  0  0  0  0  0  0  0  0  0
   25.6983  -21.0466  -15.9156 C   0  0  2  0  0  0  0  0  0  0  0  0
   24.6242  -20.6013  -14.9111 N   0  0  0  0  0  0  0  0  0  0  0  0
   23.6809  -19.6893  -15.4841 C   0  0  0  0  0  0  0  0  0  0  0  0
   25.3051  -19.9942  -13.7213 O   0  0  0  0  0  0  0  0  0  0  0  0
   25.7942  -18.8239  -13.8039 C   0  0  0  0  0  0  0  0  0  0  0  0
   26.4921  -24.2158  -19.5344 C   0  0  0  0  0  0  0  0  0  0  0  0
   23.1598  -20.9525   -8.8238 C   0  0  2  0  0  0  0  0  0  0  0  0
   23.9166  -20.3864  -10.0108 C   0  0  0  0  0  0  0  0  0  0  0  0
   25.3192  -20.8557  -10.0853 C   0  0  2  0  0  0  0  0  0  0  0  0
   26.0521  -20.3861   -8.8196 N   0  0  0  0  0  0  0  0  0  0  0  0
   26.0622  -20.3823  -11.3162 C   0  0  0  0  0  0  0  0  0  0  0  0
   25.3877  -20.7295  -12.5398 O   0  0  0  0  0  0  0  0  0  0  0  0
   27.4321  -20.9168  -11.2727 O   0  0  0  0  0  0  0  0  0  0  0  0
  2  1  1  0
  3  2  2  0
  4  2  1  0
  5  4  1  0
  6  7  1  0
  6  5  1  0
  8  9  1  6
  8 10  1  0
  8  7  1  0
 10 11  2  0
 13 12  1  0
 14 13  2  0
 15 13  1  0
 16 15  1  0
 17 16  1  0
 18 17  1  0
 19 18  1  6
 19 21  1  0
 20 10  1  0
 20 19  1  0
 21 22  2  0
 21 28  1  0
 24 25  1  0
 24 23  1  0
 25 27  1  0
 25 26  1  6
 27 29  1  0
 27 28  1  1
 29 31  2  0
 29 30  1  0
M  END
$$$$
