RRI.pdb
     RDKit          3D

 31 30  0  0  1  0  0  0  0  0999 V2000
   18.7547  -25.8039   -7.5683 N   0  0  0  0  0  0  0  0  0  0  0  0
   17.5769  -25.5619   -8.3705 C   0  0  0  0  0  0  0  0  0  0  0  0
   16.6310  -24.8211   -7.9221 N   0  0  0  0  0  0  0  0  0  0  0  0
   17.5008  -26.1568   -9.6410 N   0  0  0  0  0  0  0  0  0  0  0  0
   18.5664  -27.0200  -10.1015 C   0  0  0  0  0  0  0  0  0  0  0  0
   19.5102  -26.1931  -10.8999 C   0  0  0  0  0  0  0  0  0  0  0  0
   19.5370  -26.4273  -12.3631 C   0  0  0  0  0  0  0  0  0  0  0  0
   20.6044  -27.3215  -12.8837 C   0  0  2  0  0  0  0  0  0  0  0  0
   20.8620  -28.4312  -12.0294 N   0  0  0  0  0  0  0  0  0  0  0  0
   21.8588  -26.4768  -12.9597 C   0  0  0  0  0  0  0  0  0  0  0  0
   22.6121  -26.4854  -11.9659 O   0  0  0  0  0  0  0  0  0  0  0  0
   15.7469  -24.6676   -8.4046 N   0  0  0  0  0  0  0  0  0  0  0  0
   26.3330  -22.4084  -18.1856 C   0  0  0  0  0  0  0  0  0  0  0  0
   27.3186  -23.2953  -17.6289 N   0  0  0  0  0  0  0  0  0  0  0  0
   28.5762  -23.0446  -17.7582 N   0  0  0  0  0  0  0  0  0  0  0  0
   26.9430  -24.4659  -16.9244 C   0  0  0  0  0  0  0  0  0  0  0  0
   25.5976  -24.8683  -16.6492 C   0  0  0  0  0  0  0  0  0  0  0  0
   24.8040  -23.8280  -15.8628 C   0  0  0  0  0  0  0  0  0  0  0  0
   23.3855  -24.2279  -15.6540 C   0  0  2  0  0  0  0  0  0  0  0  0
   23.1617  -24.7058  -14.2109 N   0  0  0  0  0  0  0  0  0  0  0  0
   22.1509  -25.7155  -14.1173 C   0  0  0  0  0  0  0  0  0  0  0  0
   22.8166  -23.5188  -13.3626 O   0  0  0  0  0  0  0  0  0  0  0  0
   21.6213  -23.0872  -13.3385 C   0  0  0  0  0  0  0  0  0  0  0  0
   29.2546  -23.7142  -17.3576 C   0  0  0  0  0  0  0  0  0  0  0  0
   26.0283  -20.2178   -9.0806 C   0  0  1  0  0  0  0  0  0  0  0  0
   24.8198  -20.3801   -9.9835 C   0  0  0  0  0  0  0  0  0  0  0  0
   24.9439  -21.5167  -10.9246 C   0  0  2  0  0  0  0  0  0  0  0  0
   26.2033  -21.3009  -11.7771 N   0  0  0  0  0  0  0  0  0  0  0  0
   23.7404  -21.7065  -11.8229 C   0  0  0  0  0  0  0  0  0  0  0  0
   23.8198  -22.9088  -12.6109 O   0  0  0  0  0  0  0  0  0  0  0  0
   23.5867  -20.5081  -12.6622 O   0  0  0  0  0  0  0  0  0  0  0  0
  2  1  1  0
  3  2  2  0
  4  2  1  0
  5  4  1  0
  6  7  1  0
  6  5  1  0
  8  9  1  1
  8 10  1  0
  8  7  1  0
 10 11  2  0
 13 12  1  0
 14 13  2  0
 15 13  1  0
 16 15  1  0
 17 16  1  0
 18 17  1  0
 19 18  1  6
 19 21  1  0
 20 10  1  0
 20 19  1  0
 21 22  2  0
 21 28  1  0
 24 25  1  0
 24 23  1  0
 25 27  1  0
 25 26  1  1
 27 29  1  0
 27 28  1  6
 29 31  2  0
 29 30  1  0
M  END
$$$$
