RRI.pdb
     RDKit          3D

 31 30  0  0  1  0  0  0  0  0999 V2000
   24.7714  -16.2071  -21.9624 N   0  0  0  0  0  0  0  0  0  0  0  0
   24.9038  -17.4744  -21.2801 C   0  0  0  0  0  0  0  0  0  0  0  0
   24.3017  -18.5148  -21.7271 N   0  0  0  0  0  0  0  0  0  0  0  0
   25.7021  -17.5306  -20.1253 N   0  0  0  0  0  0  0  0  0  0  0  0
   26.0991  -18.8108  -19.5809 C   0  0  0  0  0  0  0  0  0  0  0  0
   24.9222  -19.3947  -18.8840 C   0  0  0  0  0  0  0  0  0  0  0  0
   24.9875  -19.4738  -17.4054 C   0  0  0  0  0  0  0  0  0  0  0  0
   26.2580  -19.0465  -16.7625 C   0  0  2  0  0  0  0  0  0  0  0  0
   27.3919  -19.2257  -17.6049 N   0  0  0  0  0  0  0  0  0  0  0  0
   26.4267  -19.9265  -15.5418 C   0  0  0  0  0  0  0  0  0  0  0  0
   25.4423  -20.6059  -15.1893 O   0  0  0  0  0  0  0  0  0  0  0  0
   24.3675  -19.4395  -21.3046 N   0  0  0  0  0  0  0  0  0  0  0  0
   33.0447  -22.7701   -9.9791 C   0  0  0  0  0  0  0  0  0  0  0  0
   32.8000  -22.7785  -11.3961 N   0  0  0  0  0  0  0  0  0  0  0  0
   33.4177  -23.6084  -12.1648 N   0  0  0  0  0  0  0  0  0  0  0  0
   31.8780  -21.8817  -11.9905 C   0  0  0  0  0  0  0  0  0  0  0  0
   30.9410  -21.0680  -11.2780 C   0  0  0  0  0  0  0  0  0  0  0  0
   29.5123  -21.1909  -11.8016 C   0  0  0  0  0  0  0  0  0  0  0  0
   29.3492  -20.6094  -13.1622 C   0  0  1  0  0  0  0  0  0  0  0  0
   27.8704  -20.6079  -13.5796 N   0  0  0  0  0  0  0  0  0  0  0  0
   27.6567  -19.9663  -14.8415 C   0  0  0  0  0  0  0  0  0  0  0  0
   27.0693  -19.9478  -12.4978 O   0  0  0  0  0  0  0  0  0  0  0  0
   27.1834  -18.6970  -12.3028 C   0  0  0  0  0  0  0  0  0  0  0  0
   33.2068  -23.5914  -13.1769 C   0  0  0  0  0  0  0  0  0  0  0  0
   21.4635  -19.9488  -10.4998 C   0  0  1  0  0  0  0  0  0  0  0  0
   22.9152  -19.8708  -10.0655 C   0  0  0  0  0  0  0  0  0  0  0  0
   23.8591  -20.3602  -11.0962 C   0  0  2  0  0  0  0  0  0  0  0  0
   23.4805  -21.8067  -11.4482 N   0  0  0  0  0  0  0  0  0  0  0  0
   25.3130  -20.2951  -10.6803 C   0  0  0  0  0  0  0  0  0  0  0  0
   26.2086  -20.7238  -11.7230 O   0  0  0  0  0  0  0  0  0  0  0  0
   25.4855  -21.0822   -9.4494 O   0  0  0  0  0  0  0  0  0  0  0  0
  2  1  1  0
  3  2  2  0
  4  2  1  0
  5  4  1  0
  6  7  1  0
  6  5  1  0
  8  9  1  6
  8 10  1  0
  8  7  1  0
 10 11  2  0
 13 12  1  0
 14 13  2  0
 15 13  1  0
 16 15  1  0
 17 16  1  0
 18 17  1  0
 19 18  1  6
 19 21  1  0
 20 10  1  0
 20 19  1  0
 21 22  2  0
 21 28  1  0
 24 25  1  0
 24 23  1  0
 25 27  1  0
 25 26  1  6
 27 29  1  0
 27 28  1  1
 29 31  2  0
 29 30  1  0
M  END
$$$$
