WLP.pdb
     RDKit          3D

 30 32  0  0  1  0  0  0  0  0999 V2000
    6.5990  -19.9638   26.5657 N   0  0  0  0  0  0  0  0  0  0  0  0
    7.3278  -18.7366   26.9114 C   0  0  1  0  0  0  0  0  0  0  0  0
    8.7315  -19.0207   27.2873 C   0  0  0  0  0  0  0  0  0  0  0  0
    9.3343  -18.1058   28.2655 C   0  0  0  0  0  0  0  0  0  0  0  0
    9.5006  -18.4033   29.6266 C   0  0  0  0  0  0  0  0  0  0  0  0
   10.0906  -17.3692   30.2324 N   0  0  0  0  0  0  0  0  0  0  0  0
   10.3287  -16.3820   29.3269 C   0  0  0  0  0  0  0  0  0  0  0  0
   10.9076  -15.1440   29.4953 C   0  0  0  0  0  0  0  0  0  0  0  0
   11.0317  -14.3125   28.4133 C   0  0  0  0  0  0  0  0  0  0  0  0
   10.5671  -14.7586   27.1971 C   0  0  0  0  0  0  0  0  0  0  0  0
    9.9938  -15.9875   27.0347 C   0  0  0  0  0  0  0  0  0  0  0  0
    9.8527  -16.8579   28.1145 C   0  0  0  0  0  0  0  0  0  0  0  0
    7.0792  -17.7208   25.8845 C   0  0  0  0  0  0  0  0  0  0  0  0
    6.9629  -18.0731   24.6802 O   0  0  0  0  0  0  0  0  0  0  0  0
    5.3087  -11.9602   25.8590 C   0  0  0  0  0  0  0  0  0  0  0  0
    6.3484  -12.7911   25.0237 C   0  0  1  0  0  0  0  0  0  0  0  0
    7.5398  -11.8490   24.9651 C   0  0  0  0  0  0  0  0  0  0  0  0
    6.5511  -14.0062   25.8238 C   0  0  0  0  0  0  0  0  0  0  0  0
    6.8070  -15.3270   25.1368 C   0  0  2  0  0  0  0  0  0  0  0  0
    6.9526  -16.3230   26.1938 N   0  0  0  0  0  0  0  0  0  0  0  0
    7.8511  -15.2205   24.1627 C   0  0  0  0  0  0  0  0  0  0  0  0
    9.0459  -15.3428   24.6671 O   0  0  0  0  0  0  0  0  0  0  0  0
    7.8169  -15.0102   22.7690 N   0  0  0  0  0  0  0  0  0  0  0  0
    6.6703  -14.5766   21.9944 C   0  0  0  0  0  0  0  0  0  0  0  0
    7.0658  -14.6814   20.5222 C   0  0  0  0  0  0  0  0  0  0  0  0
    8.5483  -14.5416   20.5556 C   0  0  0  0  0  0  0  0  0  0  0  0
    8.9290  -15.1936   21.8723 C   0  0  1  0  0  0  0  0  0  0  0  0
   10.2274  -14.7142   22.3453 C   0  0  0  0  0  0  0  0  0  0  0  0
   10.4459  -14.0381   23.3704 O   0  0  0  0  0  0  0  0  0  0  0  0
   11.3396  -15.0475   21.5693 O   0  0  0  0  0  0  0  0  0  0  0  0
  2  1  1  6
  2 13  1  0
  2  3  1  0
  4  3  1  0
  4  5  2  0
  6  5  1  0
  7  6  1  0
  8  7  2  0
  9  8  1  0
 10  9  2  0
 10 11  1  0
 11 12  2  0
 12  7  1  0
 12  4  1  0
 13 14  2  0
 16 15  1  1
 16 18  1  0
 17 16  1  0
 19 18  1  1
 20 19  1  0
 20 13  1  0
 21 22  2  0
 21 19  1  0
 23 21  1  0
 24 23  1  0
 25 24  1  0
 26 25  1  0
 26 27  1  0
 27 28  1  1
 27 23  1  0
 28 30  1  0
 29 28  2  0
M  END
$$$$
