WLP.pdb
     RDKit          3D

 30 32  0  0  1  0  0  0  0  0999 V2000
    6.5499  -19.3857   26.5351 N   0  0  0  0  0  0  0  0  0  0  0  0
    7.3676  -18.1793   26.7161 C   0  0  1  0  0  0  0  0  0  0  0  0
    8.7682  -18.5136   27.0611 C   0  0  0  0  0  0  0  0  0  0  0  0
    9.3444  -17.7815   28.1965 C   0  0  0  0  0  0  0  0  0  0  0  0
    9.6315  -18.3574   29.4433 C   0  0  0  0  0  0  0  0  0  0  0  0
   10.1579  -17.4275   30.2449 N   0  0  0  0  0  0  0  0  0  0  0  0
   10.2362  -16.2418   29.5824 C   0  0  0  0  0  0  0  0  0  0  0  0
   10.7018  -15.0173   30.0065 C   0  0  0  0  0  0  0  0  0  0  0  0
   10.6700  -13.9550   29.1414 C   0  0  0  0  0  0  0  0  0  0  0  0
   10.1691  -14.1645   27.8768 C   0  0  0  0  0  0  0  0  0  0  0  0
    9.7086  -15.3809   27.4604 C   0  0  0  0  0  0  0  0  0  0  0  0
    9.7271  -16.4822   28.3151 C   0  0  0  0  0  0  0  0  0  0  0  0
    7.1312  -17.2624   25.5974 C   0  0  0  0  0  0  0  0  0  0  0  0
    6.6183  -17.7023   24.5337 O   0  0  0  0  0  0  0  0  0  0  0  0
    7.5334  -11.5927   26.2632 C   0  0  0  0  0  0  0  0  0  0  0  0
    6.9525  -13.0478   26.1441 C   0  0  1  0  0  0  0  0  0  0  0  0
    5.4632  -12.7874   25.9872 C   0  0  0  0  0  0  0  0  0  0  0  0
    7.6197  -13.5964   24.9560 C   0  0  0  0  0  0  0  0  0  0  0  0
    7.3043  -14.9999   24.4951 C   0  0  2  0  0  0  0  0  0  0  0  0
    7.4550  -15.8636   25.6621 N   0  0  0  0  0  0  0  0  0  0  0  0
    8.0284  -15.3395   23.3073 C   0  0  0  0  0  0  0  0  0  0  0  0
    9.1435  -15.9707   23.5418 O   0  0  0  0  0  0  0  0  0  0  0  0
    7.7519  -15.1158   21.9429 N   0  0  0  0  0  0  0  0  0  0  0  0
    6.5373  -14.5424   21.3962 C   0  0  0  0  0  0  0  0  0  0  0  0
    6.6270  -14.6821   19.8773 C   0  0  0  0  0  0  0  0  0  0  0  0
    8.0942  -14.7205   19.6234 C   0  0  0  0  0  0  0  0  0  0  0  0
    8.6410  -15.4235   20.8525 C   0  0  1  0  0  0  0  0  0  0  0  0
   10.0536  -15.1062   21.0601 C   0  0  0  0  0  0  0  0  0  0  0  0
   10.5416  -14.4529   22.0039 O   0  0  0  0  0  0  0  0  0  0  0  0
   10.9510  -15.5838   20.1025 O   0  0  0  0  0  0  0  0  0  0  0  0
  2  1  1  6
  2 13  1  0
  2  3  1  0
  4  3  1  0
  4  5  2  0
  6  5  1  0
  7  6  1  0
  8  7  2  0
  9  8  1  0
 10  9  2  0
 10 11  1  0
 11 12  2  0
 12  7  1  0
 12  4  1  0
 13 14  2  0
 16 15  1  6
 16 18  1  0
 17 16  1  0
 19 18  1  1
 20 19  1  0
 20 13  1  0
 21 22  2  0
 21 19  1  0
 23 21  1  0
 24 23  1  0
 25 24  1  0
 26 25  1  0
 26 27  1  0
 27 28  1  1
 27 23  1  0
 28 30  1  0
 29 28  2  0
M  END
$$$$
