WLP.pdb
     RDKit          3D

 30 32  0  0  1  0  0  0  0  0999 V2000
    6.1845  -18.7090   25.0891 N   0  0  0  0  0  0  0  0  0  0  0  0
    6.6872  -17.3290   25.0840 C   0  0  1  0  0  0  0  0  0  0  0  0
    7.4206  -17.0086   26.3297 C   0  0  0  0  0  0  0  0  0  0  0  0
    7.3580  -15.6097   26.7726 C   0  0  0  0  0  0  0  0  0  0  0  0
    6.2027  -14.8153   26.7178 C   0  0  0  0  0  0  0  0  0  0  0  0
    6.4800  -13.6041   27.2082 N   0  0  0  0  0  0  0  0  0  0  0  0
    7.7840  -13.5523   27.5926 C   0  0  0  0  0  0  0  0  0  0  0  0
    8.5066  -12.5174   28.1429 C   0  0  0  0  0  0  0  0  0  0  0  0
    9.8295  -12.7122   28.4423 C   0  0  0  0  0  0  0  0  0  0  0  0
   10.3789  -13.9457   28.1760 C   0  0  0  0  0  0  0  0  0  0  0  0
    9.6583  -14.9694   27.6303 C   0  0  0  0  0  0  0  0  0  0  0  0
    8.3105  -14.8047   27.3143 C   0  0  0  0  0  0  0  0  0  0  0  0
    7.3481  -17.0598   23.8039 C   0  0  0  0  0  0  0  0  0  0  0  0
    7.8247  -18.0184   23.1391 O   0  0  0  0  0  0  0  0  0  0  0  0
    7.0696  -13.6563   19.5053 C   0  0  0  0  0  0  0  0  0  0  0  0
    8.3673  -13.4859   20.3749 C   0  0  1  0  0  0  0  0  0  0  0  0
    8.5875  -11.9825   20.3323 C   0  0  0  0  0  0  0  0  0  0  0  0
    7.9844  -14.0246   21.6867 C   0  0  0  0  0  0  0  0  0  0  0  0
    8.0474  -15.5127   21.9380 C   0  0  2  0  0  0  0  0  0  0  0  0
    7.4723  -15.7348   23.2611 N   0  0  0  0  0  0  0  0  0  0  0  0
    9.3537  -16.0366   21.6745 C   0  0  0  0  0  0  0  0  0  0  0  0
   10.2451  -15.6742   22.5525 O   0  0  0  0  0  0  0  0  0  0  0  0
    9.8420  -16.8673   20.6452 N   0  0  0  0  0  0  0  0  0  0  0  0
    9.0703  -17.4180   19.5479 C   0  0  0  0  0  0  0  0  0  0  0  0
    9.9829  -18.3995   18.8140 C   0  0  0  0  0  0  0  0  0  0  0  0
   11.3486  -17.8856   19.1132 C   0  0  0  0  0  0  0  0  0  0  0  0
   11.2053  -17.3120   20.5111 C   0  0  1  0  0  0  0  0  0  0  0  0
   12.2408  -16.3157   20.7840 C   0  0  0  0  0  0  0  0  0  0  0  0
   12.1408  -15.0793   20.6533 O   0  0  0  0  0  0  0  0  0  0  0  0
   13.4703  -16.7974   21.2384 O   0  0  0  0  0  0  0  0  0  0  0  0
  2  1  1  1
  2 13  1  0
  2  3  1  0
  4  3  1  0
  4  5  2  0
  6  5  1  0
  7  6  1  0
  8  7  2  0
  9  8  1  0
 10  9  2  0
 10 11  1  0
 11 12  2  0
 12  7  1  0
 12  4  1  0
 13 14  2  0
 16 15  1  6
 16 18  1  0
 17 16  1  0
 19 18  1  1
 20 19  1  0
 20 13  1  0
 21 22  2  0
 21 19  1  0
 23 21  1  0
 24 23  1  0
 25 24  1  0
 26 25  1  0
 26 27  1  0
 27 28  1  6
 27 23  1  0
 28 30  1  0
 29 28  2  0
M  END
$$$$
