WLP.pdb
     RDKit          3D

 30 32  0  0  1  0  0  0  0  0999 V2000
    6.4342  -18.1749   26.1164 N   0  0  0  0  0  0  0  0  0  0  0  0
    7.3266  -17.0881   25.6930 C   0  0  1  0  0  0  0  0  0  0  0  0
    8.6716  -17.2162   26.2989 C   0  0  0  0  0  0  0  0  0  0  0  0
    8.9943  -16.2539   27.3605 C   0  0  0  0  0  0  0  0  0  0  0  0
    9.3553  -16.6125   28.6680 C   0  0  0  0  0  0  0  0  0  0  0  0
    9.5968  -15.5054   29.3754 N   0  0  0  0  0  0  0  0  0  0  0  0
    9.4111  -14.4098   28.5904 C   0  0  0  0  0  0  0  0  0  0  0  0
    9.5389  -13.0718   28.8894 C   0  0  0  0  0  0  0  0  0  0  0  0
    9.2867  -12.1429   27.9141 C   0  0  0  0  0  0  0  0  0  0  0  0
    8.9137  -12.5960   26.6692 C   0  0  0  0  0  0  0  0  0  0  0  0
    8.7884  -13.9241   26.3771 C   0  0  0  0  0  0  0  0  0  0  0  0
    9.0380  -14.8950   27.3460 C   0  0  0  0  0  0  0  0  0  0  0  0
    7.2359  -16.9264   24.2392 C   0  0  0  0  0  0  0  0  0  0  0  0
    6.9367  -17.9191   23.5230 O   0  0  0  0  0  0  0  0  0  0  0  0
    6.6008  -13.9542   19.7231 C   0  0  0  0  0  0  0  0  0  0  0  0
    8.0035  -13.7321   20.3956 C   0  0  1  0  0  0  0  0  0  0  0  0
    8.2311  -12.2447   20.1803 C   0  0  0  0  0  0  0  0  0  0  0  0
    7.7918  -14.1364   21.7918 C   0  0  0  0  0  0  0  0  0  0  0  0
    7.7453  -15.6023   22.1533 C   0  0  2  0  0  0  0  0  0  0  0  0
    7.4683  -15.6680   23.5849 N   0  0  0  0  0  0  0  0  0  0  0  0
    8.8898  -16.3041   21.6554 C   0  0  0  0  0  0  0  0  0  0  0  0
    9.9872  -16.0327   22.3028 O   0  0  0  0  0  0  0  0  0  0  0  0
    9.0392  -17.2280   20.6009 N   0  0  0  0  0  0  0  0  0  0  0  0
    7.9715  -17.8010   19.8043 C   0  0  0  0  0  0  0  0  0  0  0  0
    8.6040  -18.8817   18.9286 C   0  0  0  0  0  0  0  0  0  0  0  0
   10.0187  -18.4334   18.8005 C   0  0  0  0  0  0  0  0  0  0  0  0
   10.2925  -17.7626   20.1342 C   0  0  1  0  0  0  0  0  0  0  0  0
   11.4024  -16.8154   20.0332 C   0  0  0  0  0  0  0  0  0  0  0  0
   11.3326  -15.5722   20.1060 O   0  0  0  0  0  0  0  0  0  0  0  0
   12.6738  -17.3580   19.8345 O   0  0  0  0  0  0  0  0  0  0  0  0
  2  1  1  6
  2 13  1  0
  2  3  1  0
  4  3  1  0
  4  5  2  0
  6  5  1  0
  7  6  1  0
  8  7  2  0
  9  8  1  0
 10  9  2  0
 10 11  1  0
 11 12  2  0
 12  7  1  0
 12  4  1  0
 13 14  2  0
 16 15  1  6
 16 18  1  0
 17 16  1  0
 19 18  1  1
 20 19  1  0
 20 13  1  0
 21 22  2  0
 21 19  1  0
 23 21  1  0
 24 23  1  0
 25 24  1  0
 26 25  1  0
 26 27  1  0
 27 28  1  6
 27 23  1  0
 28 30  1  0
 29 28  2  0
M  END
$$$$
