WLP.pdb
     RDKit          3D

 30 32  0  0  1  0  0  0  0  0999 V2000
   11.0886  -16.9970   21.6672 N   0  0  0  0  0  0  0  0  0  0  0  0
    9.8810  -16.1833   21.8576 C   0  0  1  0  0  0  0  0  0  0  0  0
    8.6753  -16.8600   21.3278 C   0  0  0  0  0  0  0  0  0  0  0  0
    7.9969  -16.1877   20.2120 C   0  0  0  0  0  0  0  0  0  0  0  0
    7.1769  -16.8396   19.2787 C   0  0  0  0  0  0  0  0  0  0  0  0
    6.7059  -15.9431   18.4076 N   0  0  0  0  0  0  0  0  0  0  0  0
    7.1799  -14.7067   18.7201 C   0  0  0  0  0  0  0  0  0  0  0  0
    6.9673  -13.4931   18.1052 C   0  0  0  0  0  0  0  0  0  0  0  0
    7.5709  -12.3728   18.6131 C   0  0  0  0  0  0  0  0  0  0  0  0
    8.3693  -12.5150   19.7250 C   0  0  0  0  0  0  0  0  0  0  0  0
    8.5772  -13.7207   20.3318 C   0  0  0  0  0  0  0  0  0  0  0  0
    7.9779  -14.8798   19.8410 C   0  0  0  0  0  0  0  0  0  0  0  0
    9.8452  -15.6859   23.2358 C   0  0  0  0  0  0  0  0  0  0  0  0
   10.8912  -15.7292   23.9372 O   0  0  0  0  0  0  0  0  0  0  0  0
    7.5506  -11.8723   26.5440 C   0  0  0  0  0  0  0  0  0  0  0  0
    6.9976  -13.3355   26.6942 C   0  0  1  0  0  0  0  0  0  0  0  0
    5.5193  -13.0952   26.9538 C   0  0  0  0  0  0  0  0  0  0  0  0
    7.3117  -13.9640   25.4043 C   0  0  0  0  0  0  0  0  0  0  0  0
    8.6844  -14.5470   25.1642 C   0  0  2  0  0  0  0  0  0  0  0  0
    8.6571  -15.1364   23.8292 N   0  0  0  0  0  0  0  0  0  0  0  0
    9.1047  -15.3718   26.2566 C   0  0  0  0  0  0  0  0  0  0  0  0
    8.6324  -16.5846   26.2030 O   0  0  0  0  0  0  0  0  0  0  0  0
    9.9313  -15.1084   27.3681 N   0  0  0  0  0  0  0  0  0  0  0  0
   10.4349  -13.8107   27.7747 C   0  0  0  0  0  0  0  0  0  0  0  0
   11.4319  -14.0578   28.9059 C   0  0  0  0  0  0  0  0  0  0  0  0
   10.9696  -15.3459   29.4939 C   0  0  0  0  0  0  0  0  0  0  0  0
   10.4186  -16.0968   28.2955 C   0  0  1  0  0  0  0  0  0  0  0  0
    9.4627  -17.1243   28.7075 C   0  0  0  0  0  0  0  0  0  0  0  0
    8.2198  -17.0661   28.6212 O   0  0  0  0  0  0  0  0  0  0  0  0
    9.9957  -18.2934   29.2547 O   0  0  0  0  0  0  0  0  0  0  0  0
  2  1  1  1
  2 13  1  0
  2  3  1  0
  4  3  1  0
  4  5  2  0
  6  5  1  0
  7  6  1  0
  8  7  2  0
  9  8  1  0
 10  9  2  0
 10 11  1  0
 11 12  2  0
 12  7  1  0
 12  4  1  0
 13 14  2  0
 16 15  1  6
 16 18  1  0
 17 16  1  0
 19 18  1  1
 20 19  1  0
 20 13  1  0
 21 22  2  0
 21 19  1  0
 23 21  1  0
 24 23  1  0
 25 24  1  0
 26 25  1  0
 26 27  1  0
 27 28  1  1
 27 23  1  0
 28 30  1  0
 29 28  2  0
M  END
$$$$
