WLP.pdb
     RDKit          3D

 30 32  0  0  1  0  0  0  0  0999 V2000
    6.1807  -18.5328   24.9009 N   0  0  0  0  0  0  0  0  0  0  0  0
    6.5514  -17.1241   24.7140 C   0  0  1  0  0  0  0  0  0  0  0  0
    7.1987  -16.5631   25.9218 C   0  0  0  0  0  0  0  0  0  0  0  0
    6.7726  -15.2131   26.3130 C   0  0  0  0  0  0  0  0  0  0  0  0
    5.4409  -14.8458   26.5586 C   0  0  0  0  0  0  0  0  0  0  0  0
    5.3987  -13.5567   26.9059 N   0  0  0  0  0  0  0  0  0  0  0  0
    6.6571  -13.0394   26.9032 C   0  0  0  0  0  0  0  0  0  0  0  0
    7.0934  -11.7648   27.1881 C   0  0  0  0  0  0  0  0  0  0  0  0
    8.4322  -11.4840   27.1075 C   0  0  0  0  0  0  0  0  0  0  0  0
    9.2860  -12.4995   26.7417 C   0  0  0  0  0  0  0  0  0  0  0  0
    8.8488  -13.7623   26.4602 C   0  0  0  0  0  0  0  0  0  0  0  0
    7.4937  -14.0817   26.5330 C   0  0  0  0  0  0  0  0  0  0  0  0
    7.2373  -16.9711   23.4278 C   0  0  0  0  0  0  0  0  0  0  0  0
    7.8073  -17.9672   22.9074 O   0  0  0  0  0  0  0  0  0  0  0  0
    7.2728  -14.1495   18.7578 C   0  0  0  0  0  0  0  0  0  0  0  0
    8.4170  -13.7131   19.7425 C   0  0  1  0  0  0  0  0  0  0  0  0
    8.4677  -12.2090   19.5297 C   0  0  0  0  0  0  0  0  0  0  0  0
    7.9292  -14.1420   21.0601 C   0  0  0  0  0  0  0  0  0  0  0  0
    7.9899  -15.6005   21.4482 C   0  0  2  0  0  0  0  0  0  0  0  0
    7.2833  -15.7212   22.7196 N   0  0  0  0  0  0  0  0  0  0  0  0
    9.3249  -16.1119   21.3679 C   0  0  0  0  0  0  0  0  0  0  0  0
   10.1193  -15.6350   22.2835 O   0  0  0  0  0  0  0  0  0  0  0  0
    9.9267  -17.0312   20.4842 N   0  0  0  0  0  0  0  0  0  0  0  0
    9.2493  -17.8163   19.4705 C   0  0  0  0  0  0  0  0  0  0  0  0
   10.2788  -18.7957   18.9085 C   0  0  0  0  0  0  0  0  0  0  0  0
   11.5758  -18.1038   19.1488 C   0  0  0  0  0  0  0  0  0  0  0  0
   11.3313  -17.3467   20.4413 C   0  0  1  0  0  0  0  0  0  0  0  0
   12.2523  -16.2186   20.5771 C   0  0  0  0  0  0  0  0  0  0  0  0
   11.9764  -15.0091   20.4477 O   0  0  0  0  0  0  0  0  0  0  0  0
   13.5796  -16.5260   20.8839 O   0  0  0  0  0  0  0  0  0  0  0  0
  2  1  1  1
  2 13  1  0
  2  3  1  0
  4  3  1  0
  4  5  2  0
  6  5  1  0
  7  6  1  0
  8  7  2  0
  9  8  1  0
 10  9  2  0
 10 11  1  0
 11 12  2  0
 12  7  1  0
 12  4  1  0
 13 14  2  0
 16 15  1  6
 16 18  1  0
 17 16  1  0
 19 18  1  1
 20 19  1  0
 20 13  1  0
 21 22  2  0
 21 19  1  0
 23 21  1  0
 24 23  1  0
 25 24  1  0
 26 25  1  0
 26 27  1  0
 27 28  1  6
 27 23  1  0
 28 30  1  0
 29 28  2  0
M  END
$$$$
