WLP.pdb
     RDKit          3D

 30 32  0  0  1  0  0  0  0  0999 V2000
    5.3599  -17.8858   24.5148 N   0  0  0  0  0  0  0  0  0  0  0  0
    6.3150  -16.7708   24.5556 C   0  0  1  0  0  0  0  0  0  0  0  0
    6.9453  -16.6381   25.8889 C   0  0  0  0  0  0  0  0  0  0  0  0
    6.9926  -15.2803   26.4468 C   0  0  0  0  0  0  0  0  0  0  0  0
    5.8888  -14.4172   26.5183 C   0  0  0  0  0  0  0  0  0  0  0  0
    6.2654  -13.2703   27.0901 N   0  0  0  0  0  0  0  0  0  0  0  0
    7.5871  -13.3283   27.4076 C   0  0  0  0  0  0  0  0  0  0  0  0
    8.3994  -12.3881   28.0011 C   0  0  0  0  0  0  0  0  0  0  0  0
    9.7202  -12.6854   28.2129 C   0  0  0  0  0  0  0  0  0  0  0  0
   10.1769  -13.9222   27.8183 C   0  0  0  0  0  0  0  0  0  0  0  0
    9.3675  -14.8518   27.2303 C   0  0  0  0  0  0  0  0  0  0  0  0
    8.0192  -14.5817   27.0008 C   0  0  0  0  0  0  0  0  0  0  0  0
    7.1893  -16.8396   23.3814 C   0  0  0  0  0  0  0  0  0  0  0  0
    7.5003  -17.9643   22.9057 O   0  0  0  0  0  0  0  0  0  0  0  0
    8.0394  -12.2796   20.0647 C   0  0  0  0  0  0  0  0  0  0  0  0
    7.5180  -13.7096   20.4549 C   0  0  1  0  0  0  0  0  0  0  0  0
    7.0231  -14.2460   19.1215 C   0  0  0  0  0  0  0  0  0  0  0  0
    8.7067  -14.3814   20.9966 C   0  0  0  0  0  0  0  0  0  0  0  0
    8.5889  -15.7721   21.5744 C   0  0  2  0  0  0  0  0  0  0  0  0
    7.7090  -15.6663   22.7342 N   0  0  0  0  0  0  0  0  0  0  0  0
    9.8737  -16.3775   21.7561 C   0  0  0  0  0  0  0  0  0  0  0  0
   10.4746  -16.0018   22.8491 O   0  0  0  0  0  0  0  0  0  0  0  0
   10.5966  -17.2995   20.9716 N   0  0  0  0  0  0  0  0  0  0  0  0
   10.0947  -18.0272   19.8221 C   0  0  0  0  0  0  0  0  0  0  0  0
   11.1736  -19.0366   19.4322 C   0  0  0  0  0  0  0  0  0  0  0  0
   12.4269  -18.4095   19.9366 C   0  0  0  0  0  0  0  0  0  0  0  0
   11.9703  -17.6760   21.1845 C   0  0  1  0  0  0  0  0  0  0  0  0
   12.8917  -16.5939   21.5302 C   0  0  0  0  0  0  0  0  0  0  0  0
   12.6715  -15.3692   21.4444 O   0  0  0  0  0  0  0  0  0  0  0  0
   14.1496  -16.9694   22.0064 O   0  0  0  0  0  0  0  0  0  0  0  0
  2  1  1  1
  2 13  1  0
  2  3  1  0
  4  3  1  0
  4  5  2  0
  6  5  1  0
  7  6  1  0
  8  7  2  0
  9  8  1  0
 10  9  2  0
 10 11  1  0
 11 12  2  0
 12  7  1  0
 12  4  1  0
 13 14  2  0
 16 15  1  6
 16 18  1  0
 17 16  1  0
 19 18  1  1
 20 19  1  0
 20 13  1  0
 21 22  2  0
 21 19  1  0
 23 21  1  0
 24 23  1  0
 25 24  1  0
 26 25  1  0
 26 27  1  0
 27 28  1  6
 27 23  1  0
 28 30  1  0
 29 28  2  0
M  END
$$$$
