WLP.pdb
     RDKit          3D

 30 32  0  0  1  0  0  0  0  0999 V2000
    6.3054  -18.2859   25.9455 N   0  0  0  0  0  0  0  0  0  0  0  0
    7.3775  -17.3374   25.6170 C   0  0  1  0  0  0  0  0  0  0  0  0
    8.6596  -17.7184   26.2522 C   0  0  0  0  0  0  0  0  0  0  0  0
    9.1370  -16.8325   27.3220 C   0  0  0  0  0  0  0  0  0  0  0  0
    9.5546  -17.2753   28.5861 C   0  0  0  0  0  0  0  0  0  0  0  0
    9.9394  -16.2234   29.3139 N   0  0  0  0  0  0  0  0  0  0  0  0
    9.7959  -15.0838   28.5847 C   0  0  0  0  0  0  0  0  0  0  0  0
   10.0596  -13.7751   28.9221 C   0  0  0  0  0  0  0  0  0  0  0  0
    9.8225  -12.7878   28.0019 C   0  0  0  0  0  0  0  0  0  0  0  0
    9.3268  -13.1548   26.7716 C   0  0  0  0  0  0  0  0  0  0  0  0
    9.0669  -14.4541   26.4412 C   0  0  0  0  0  0  0  0  0  0  0  0
    9.2973  -15.4827   27.3537 C   0  0  0  0  0  0  0  0  0  0  0  0
    7.3705  -17.0801   24.1742 C   0  0  0  0  0  0  0  0  0  0  0  0
    7.1128  -18.0225   23.3782 O   0  0  0  0  0  0  0  0  0  0  0  0
    6.9335  -12.2352   20.6329 C   0  0  0  0  0  0  0  0  0  0  0  0
    7.7107  -13.5982   20.5481 C   0  0  1  0  0  0  0  0  0  0  0  0
    9.0811  -13.1569   20.0606 C   0  0  0  0  0  0  0  0  0  0  0  0
    7.6719  -14.1111   21.9240 C   0  0  0  0  0  0  0  0  0  0  0  0
    7.7917  -15.5951   22.1789 C   0  0  2  0  0  0  0  0  0  0  0  0
    7.6401  -15.7824   23.6185 N   0  0  0  0  0  0  0  0  0  0  0  0
    8.9519  -16.1463   21.5461 C   0  0  0  0  0  0  0  0  0  0  0  0
   10.0693  -15.8017   22.1203 O   0  0  0  0  0  0  0  0  0  0  0  0
    9.0991  -16.9879   20.4245 N   0  0  0  0  0  0  0  0  0  0  0  0
    8.0278  -17.5233   19.6069 C   0  0  0  0  0  0  0  0  0  0  0  0
    8.6644  -18.5243   18.6438 C   0  0  0  0  0  0  0  0  0  0  0  0
   10.0675  -18.0390   18.5242 C   0  0  0  0  0  0  0  0  0  0  0  0
   10.3534  -17.4614   19.8984 C   0  0  1  0  0  0  0  0  0  0  0  0
   11.4429  -16.4868   19.8475 C   0  0  0  0  0  0  0  0  0  0  0  0
   11.3668  -15.2674   20.0986 O   0  0  0  0  0  0  0  0  0  0  0  0
   12.7003  -16.9704   19.4797 O   0  0  0  0  0  0  0  0  0  0  0  0
  2  1  1  6
  2 13  1  0
  2  3  1  0
  4  3  1  0
  4  5  2  0
  6  5  1  0
  7  6  1  0
  8  7  2  0
  9  8  1  0
 10  9  2  0
 10 11  1  0
 11 12  2  0
 12  7  1  0
 12  4  1  0
 13 14  2  0
 16 15  1  1
 16 18  1  0
 17 16  1  0
 19 18  1  1
 20 19  1  0
 20 13  1  0
 21 22  2  0
 21 19  1  0
 23 21  1  0
 24 23  1  0
 25 24  1  0
 26 25  1  0
 26 27  1  0
 27 28  1  6
 27 23  1  0
 28 30  1  0
 29 28  2  0
M  END
$$$$
