WLP.pdb
     RDKit          3D

 30 32  0  0  1  0  0  0  0  0999 V2000
    6.2845  -19.3816   26.4495 N   0  0  0  0  0  0  0  0  0  0  0  0
    7.1099  -18.1885   26.6774 C   0  0  1  0  0  0  0  0  0  0  0  0
    8.5030  -18.5453   27.0300 C   0  0  0  0  0  0  0  0  0  0  0  0
    9.1159  -17.7599   28.1092 C   0  0  0  0  0  0  0  0  0  0  0  0
    9.2887  -18.2230   29.4223 C   0  0  0  0  0  0  0  0  0  0  0  0
    9.8871  -17.2736   30.1467 N   0  0  0  0  0  0  0  0  0  0  0  0
   10.1246  -16.1836   29.3679 C   0  0  0  0  0  0  0  0  0  0  0  0
   10.7103  -14.9780   29.6834 C   0  0  0  0  0  0  0  0  0  0  0  0
   10.8320  -14.0203   28.7108 C   0  0  0  0  0  0  0  0  0  0  0  0
   10.3582  -14.3118   27.4520 C   0  0  0  0  0  0  0  0  0  0  0  0
    9.7782  -15.5091   27.1436 C   0  0  0  0  0  0  0  0  0  0  0  0
    9.6392  -16.5051   28.1092 C   0  0  0  0  0  0  0  0  0  0  0  0
    6.8958  -17.2362   25.5841 C   0  0  0  0  0  0  0  0  0  0  0  0
    6.3330  -17.6246   24.5256 O   0  0  0  0  0  0  0  0  0  0  0  0
    7.2278  -11.5900   26.3277 C   0  0  0  0  0  0  0  0  0  0  0  0
    6.6688  -13.0446   26.1251 C   0  0  1  0  0  0  0  0  0  0  0  0
    5.2061  -12.7848   25.8035 C   0  0  0  0  0  0  0  0  0  0  0  0
    7.4683  -13.5767   25.0136 C   0  0  0  0  0  0  0  0  0  0  0  0
    7.2171  -14.9775   24.5075 C   0  0  2  0  0  0  0  0  0  0  0  0
    7.2971  -15.8587   25.6684 N   0  0  0  0  0  0  0  0  0  0  0  0
    8.0354  -15.2822   23.3726 C   0  0  0  0  0  0  0  0  0  0  0  0
    9.1549  -15.8714   23.6830 O   0  0  0  0  0  0  0  0  0  0  0  0
    7.8468  -15.0615   21.9928 N   0  0  0  0  0  0  0  0  0  0  0  0
    6.6390  -14.5682   21.3598 C   0  0  0  0  0  0  0  0  0  0  0  0
    6.8520  -14.6823   19.8511 C   0  0  0  0  0  0  0  0  0  0  0  0
    8.3332  -14.6142   19.7087 C   0  0  0  0  0  0  0  0  0  0  0  0
    8.8348  -15.2922   20.9706 C   0  0  1  0  0  0  0  0  0  0  0  0
   10.2018  -14.8789   21.2868 C   0  0  0  0  0  0  0  0  0  0  0  0
   10.5570  -14.1119   22.2040 O   0  0  0  0  0  0  0  0  0  0  0  0
   11.2162  -15.3961   20.4784 O   0  0  0  0  0  0  0  0  0  0  0  0
  2  1  1  6
  2 13  1  0
  2  3  1  0
  4  3  1  0
  4  5  2  0
  6  5  1  0
  7  6  1  0
  8  7  2  0
  9  8  1  0
 10  9  2  0
 10 11  1  0
 11 12  2  0
 12  7  1  0
 12  4  1  0
 13 14  2  0
 16 15  1  6
 16 18  1  0
 17 16  1  0
 19 18  1  1
 20 19  1  0
 20 13  1  0
 21 22  2  0
 21 19  1  0
 23 21  1  0
 24 23  1  0
 25 24  1  0
 26 25  1  0
 26 27  1  0
 27 28  1  1
 27 23  1  0
 28 30  1  0
 29 28  2  0
M  END
$$$$
