WRG.pdb
     RDKit          3D

 30 31  0  0  1  0  0  0  0  0999 V2000
   27.1925  -20.7932  -11.0868 N   0  0  0  0  0  0  0  0  0  0  0  0
   26.0721  -21.0280  -10.2376 C   0  0  1  0  0  0  0  0  0  0  0  0
   26.2439  -20.5088   -8.8497 C   0  0  0  0  0  0  0  0  0  0  0  0
   27.6021  -20.6322   -8.2972 C   0  0  0  0  0  0  0  0  0  0  0  0
   28.6711  -21.2323   -8.9244 C   0  0  0  0  0  0  0  0  0  0  0  0
   29.7281  -21.1312   -8.1214 N   0  0  0  0  0  0  0  0  0  0  0  0
   29.4140  -20.4951   -6.9942 C   0  0  0  0  0  0  0  0  0  0  0  0
   30.1479  -20.1575   -5.8785 C   0  0  0  0  0  0  0  0  0  0  0  0
   29.5749  -19.4884   -4.8176 C   0  0  0  0  0  0  0  0  0  0  0  0
   28.2395  -19.1673   -4.9097 C   0  0  0  0  0  0  0  0  0  0  0  0
   27.5117  -19.5056   -6.0238 C   0  0  0  0  0  0  0  0  0  0  0  0
   28.0611  -20.1695   -7.0888 C   0  0  0  0  0  0  0  0  0  0  0  0
   24.8294  -20.3787  -10.7828 C   0  0  0  0  0  0  0  0  0  0  0  0
   24.7378  -19.1418  -10.7353 O   0  0  0  0  0  0  0  0  0  0  0  0
   26.4219  -23.6580  -13.9496 N   0  0  0  0  0  0  0  0  0  0  0  0
   25.1802  -23.7353  -14.6383 C   0  0  0  0  0  0  0  0  0  0  0  0
   24.7307  -24.9140  -14.9405 N   0  0  0  0  0  0  0  0  0  0  0  0
   24.4531  -22.5724  -14.9860 N   0  0  0  0  0  0  0  0  0  0  0  0
   24.7531  -21.3432  -14.3356 C   0  0  0  0  0  0  0  0  0  0  0  0
   23.5812  -20.3838  -14.3119 C   0  0  0  0  0  0  0  0  0  0  0  0
   22.5319  -21.0018  -13.4199 C   0  0  0  0  0  0  0  0  0  0  0  0
   22.6158  -20.5039  -11.9985 C   0  0  2  0  0  0  0  0  0  0  0  0
   23.7651  -21.1271  -11.3461 N   0  0  0  0  0  0  0  0  0  0  0  0
   21.4024  -20.9802  -11.2837 C   0  0  0  0  0  0  0  0  0  0  0  0
   21.3307  -22.1497  -10.7723 O   0  0  0  0  0  0  0  0  0  0  0  0
   23.8779  -25.0369  -15.5493 N   0  0  0  0  0  0  0  0  0  0  0  0
   20.2388  -20.1779  -11.1154 C   0  0  0  0  0  0  0  0  0  0  0  0
   19.1694  -20.5766  -10.1892 C   0  0  0  0  0  0  0  0  0  0  0  0
   18.1952  -21.4159  -10.8946 O   0  0  0  0  0  0  0  0  0  0  0  0
   18.4055  -21.7687  -12.0781 O   0  0  0  0  0  0  0  0  0  0  0  0
  2  1  1  6
  2  3  1  0
  3  4  1  0
  4  5  2  0
  5  6  1  0
  7  8  2  0
  7  6  1  0
  9  8  1  0
 10  9  2  0
 11 10  1  0
 11 12  2  0
 12  4  1  0
 12  7  1  0
 13  2  1  0
 14 13  2  0
 16 15  1  0
 16 18  1  0
 17 16  2  0
 19 18  1  0
 20 21  1  0
 20 19  1  0
 22 23  1  0
 22 21  1  6
 23 13  1  0
 24 22  1  0
 25 24  2  0
 26 24  1  0
 27 26  1  0
 28 27  1  0
 28 30  1  0
 29 28  2  0
M  END
$$$$
