WRG.pdb
     RDKit          3D

 30 31  0  0  1  0  0  0  0  0999 V2000
   28.1717  -21.6470  -10.8164 N   0  0  0  0  0  0  0  0  0  0  0  0
   26.9702  -21.1850  -10.2044 C   0  0  1  0  0  0  0  0  0  0  0  0
   27.1759  -20.0827   -9.2206 C   0  0  0  0  0  0  0  0  0  0  0  0
   28.2233  -20.3255   -8.2159 C   0  0  0  0  0  0  0  0  0  0  0  0
   29.4826  -20.8189   -8.4742 C   0  0  0  0  0  0  0  0  0  0  0  0
   30.1438  -20.8816   -7.3203 N   0  0  0  0  0  0  0  0  0  0  0  0
   29.3866  -20.4553   -6.3109 C   0  0  0  0  0  0  0  0  0  0  0  0
   29.6167  -20.3370   -4.9580 C   0  0  0  0  0  0  0  0  0  0  0  0
   28.6445  -19.8623   -4.1031 C   0  0  0  0  0  0  0  0  0  0  0  0
   27.4307  -19.5087   -4.6477 C   0  0  0  0  0  0  0  0  0  0  0  0
   27.2056  -19.6281   -5.9969 C   0  0  0  0  0  0  0  0  0  0  0  0
   28.1574  -20.0967   -6.8638 C   0  0  0  0  0  0  0  0  0  0  0  0
   26.0017  -20.6630  -11.2303 C   0  0  0  0  0  0  0  0  0  0  0  0
   26.3300  -19.6748  -11.9060 O   0  0  0  0  0  0  0  0  0  0  0  0
   28.1579  -21.7108  -14.2216 N   0  0  0  0  0  0  0  0  0  0  0  0
   27.5963  -22.1452  -15.4538 C   0  0  0  0  0  0  0  0  0  0  0  0
   28.3130  -22.9273  -16.2005 N   0  0  0  0  0  0  0  0  0  0  0  0
   26.3019  -21.7436  -15.8596 N   0  0  0  0  0  0  0  0  0  0  0  0
   25.3603  -21.3314  -14.8759 C   0  0  0  0  0  0  0  0  0  0  0  0
   24.7662  -22.4899  -14.1018 C   0  0  0  0  0  0  0  0  0  0  0  0
   23.5257  -21.9659  -13.4197 C   0  0  0  0  0  0  0  0  0  0  0  0
   23.8185  -20.8087  -12.4976 C   0  0  2  0  0  0  0  0  0  0  0  0
   24.7337  -21.2577  -11.4509 N   0  0  0  0  0  0  0  0  0  0  0  0
   22.5451  -20.4356  -11.8273 C   0  0  0  0  0  0  0  0  0  0  0  0
   22.1836  -20.9573  -10.7174 O   0  0  0  0  0  0  0  0  0  0  0  0
   27.9745  -23.2430  -17.1485 N   0  0  0  0  0  0  0  0  0  0  0  0
   21.6396  -19.4779  -12.3647 C   0  0  0  0  0  0  0  0  0  0  0  0
   20.4765  -19.0166  -11.5933 C   0  0  0  0  0  0  0  0  0  0  0  0
   19.3434  -19.9186  -11.8249 O   0  0  0  0  0  0  0  0  0  0  0  0
   19.4643  -20.8994  -12.5947 O   0  0  0  0  0  0  0  0  0  0  0  0
  2  1  1  6
  2  3  1  0
  3  4  1  0
  4  5  2  0
  5  6  1  0
  7  8  2  0
  7  6  1  0
  9  8  1  0
 10  9  2  0
 11 10  1  0
 11 12  2  0
 12  4  1  0
 12  7  1  0
 13  2  1  0
 14 13  2  0
 16 15  1  0
 16 18  1  0
 17 16  2  0
 19 18  1  0
 20 21  1  0
 20 19  1  0
 22 23  1  0
 22 21  1  6
 23 13  1  0
 24 22  1  0
 25 24  2  0
 26 24  1  0
 27 26  1  0
 28 27  1  0
 28 30  1  0
 29 28  2  0
M  END
$$$$
