WRG.pdb
     RDKit          3D

 30 31  0  0  1  0  0  0  0  0999 V2000
   21.0905  -24.6901  -17.1238 N   0  0  0  0  0  0  0  0  0  0  0  0
   20.4259  -23.9177  -16.1271 C   0  0  1  0  0  0  0  0  0  0  0  0
   19.6776  -22.7457  -16.6673 C   0  0  0  0  0  0  0  0  0  0  0  0
   20.5140  -21.6370  -17.1535 C   0  0  0  0  0  0  0  0  0  0  0  0
   21.0590  -21.5374  -18.4141 C   0  0  0  0  0  0  0  0  0  0  0  0
   21.7332  -20.3914  -18.4808 N   0  0  0  0  0  0  0  0  0  0  0  0
   21.6629  -19.7269  -17.3286 C   0  0  0  0  0  0  0  0  0  0  0  0
   22.1880  -18.5232  -16.9129 C   0  0  0  0  0  0  0  0  0  0  0  0
   21.9698  -18.0468  -15.6374 C   0  0  0  0  0  0  0  0  0  0  0  0
   21.2066  -18.8165  -14.7888 C   0  0  0  0  0  0  0  0  0  0  0  0
   20.6849  -20.0156  -15.2073 C   0  0  0  0  0  0  0  0  0  0  0  0
   20.8890  -20.5071  -16.4698 C   0  0  0  0  0  0  0  0  0  0  0  0
   19.4251  -24.7485  -15.3712 C   0  0  0  0  0  0  0  0  0  0  0  0
   18.6713  -25.4970  -16.0131 O   0  0  0  0  0  0  0  0  0  0  0  0
   20.8343  -28.9498   -9.8894 N   0  0  0  0  0  0  0  0  0  0  0  0
   21.2696  -29.4398  -11.1514 C   0  0  0  0  0  0  0  0  0  0  0  0
   21.6706  -30.6720  -11.2141 N   0  0  0  0  0  0  0  0  0  0  0  0
   21.2689  -28.6195  -12.3041 N   0  0  0  0  0  0  0  0  0  0  0  0
   20.7516  -27.2970  -12.2174 C   0  0  0  0  0  0  0  0  0  0  0  0
   19.3068  -27.2542  -11.7645 C   0  0  0  0  0  0  0  0  0  0  0  0
   18.8644  -25.8141  -11.8590 C   0  0  0  0  0  0  0  0  0  0  0  0
   18.3105  -25.4679  -13.2187 C   0  0  2  0  0  0  0  0  0  0  0  0
   19.3141  -24.7062  -13.9584 N   0  0  0  0  0  0  0  0  0  0  0  0
   17.1476  -24.5648  -13.0129 C   0  0  0  0  0  0  0  0  0  0  0  0
   17.2914  -23.3252  -12.7349 O   0  0  0  0  0  0  0  0  0  0  0  0
   22.0563  -31.0790  -12.1077 N   0  0  0  0  0  0  0  0  0  0  0  0
   15.7981  -25.0070  -13.1089 C   0  0  0  0  0  0  0  0  0  0  0  0
   14.6788  -24.0914  -12.8456 C   0  0  0  0  0  0  0  0  0  0  0  0
   14.2942  -23.4145  -14.0886 O   0  0  0  0  0  0  0  0  0  0  0  0
   15.0212  -23.5000  -15.1051 O   0  0  0  0  0  0  0  0  0  0  0  0
  2  1  1  6
  2  3  1  0
  3  4  1  0
  4  5  2  0
  5  6  1  0
  7  8  2  0
  7  6  1  0
  9  8  1  0
 10  9  2  0
 11 10  1  0
 11 12  2  0
 12  4  1  0
 12  7  1  0
 13  2  1  0
 14 13  2  0
 16 15  1  0
 16 18  1  0
 17 16  2  0
 19 18  1  0
 20 21  1  0
 20 19  1  0
 22 23  1  0
 22 21  1  1
 23 13  1  0
 24 22  1  0
 25 24  2  0
 26 24  1  0
 27 26  1  0
 28 27  1  0
 28 30  1  0
 29 28  2  0
M  END
$$$$
