WRG.pdb
     RDKit          3D

 30 31  0  0  1  0  0  0  0  0999 V2000
   24.3500  -20.8504   -8.3465 N   0  0  0  0  0  0  0  0  0  0  0  0
   25.4673  -20.2213   -8.9691 C   0  0  1  0  0  0  0  0  0  0  0  0
   26.7886  -20.6905   -8.4599 C   0  0  0  0  0  0  0  0  0  0  0  0
   27.3177  -19.9445   -7.3071 C   0  0  0  0  0  0  0  0  0  0  0  0
   26.7490  -18.8210   -6.7501 C   0  0  0  0  0  0  0  0  0  0  0  0
   27.5040  -18.4463   -5.7196 N   0  0  0  0  0  0  0  0  0  0  0  0
   28.5440  -19.2640   -5.5657 C   0  0  0  0  0  0  0  0  0  0  0  0
   29.5856  -19.2885   -4.6646 C   0  0  0  0  0  0  0  0  0  0  0  0
   30.5621  -20.2603   -4.7222 C   0  0  0  0  0  0  0  0  0  0  0  0
   30.4622  -21.2099   -5.7138 C   0  0  0  0  0  0  0  0  0  0  0  0
   29.4221  -21.1819   -6.6098 C   0  0  0  0  0  0  0  0  0  0  0  0
   28.4415  -20.2260   -6.5703 C   0  0  0  0  0  0  0  0  0  0  0  0
   25.4733  -20.4660  -10.4534 C   0  0  0  0  0  0  0  0  0  0  0  0
   24.8969  -21.4750  -10.8897 O   0  0  0  0  0  0  0  0  0  0  0  0
   29.0197  -20.8412  -16.8363 N   0  0  0  0  0  0  0  0  0  0  0  0
   28.6928  -19.6451  -17.5325 C   0  0  0  0  0  0  0  0  0  0  0  0
   28.5179  -19.7231  -18.8156 N   0  0  0  0  0  0  0  0  0  0  0  0
   28.5607  -18.4086  -16.8579 N   0  0  0  0  0  0  0  0  0  0  0  0
   28.4340  -18.3985  -15.4409 C   0  0  0  0  0  0  0  0  0  0  0  0
   27.2456  -19.1968  -14.9463 C   0  0  0  0  0  0  0  0  0  0  0  0
   27.1913  -19.0126  -13.4491 C   0  0  0  0  0  0  0  0  0  0  0  0
   26.0521  -19.7708  -12.8145 C   0  0  2  0  0  0  0  0  0  0  0  0
   26.1112  -19.5884  -11.3661 N   0  0  0  0  0  0  0  0  0  0  0  0
   26.2740  -21.2171  -13.0774 C   0  0  0  0  0  0  0  0  0  0  0  0
   27.1453  -21.8981  -12.4358 O   0  0  0  0  0  0  0  0  0  0  0  0
   28.2919  -18.8687  -19.3917 N   0  0  0  0  0  0  0  0  0  0  0  0
   25.5401  -21.9474  -14.0542 C   0  0  0  0  0  0  0  0  0  0  0  0
   25.7915  -23.3780  -14.2795 C   0  0  0  0  0  0  0  0  0  0  0  0
   24.7477  -23.9297  -15.1497 O   0  0  0  0  0  0  0  0  0  0  0  0
   23.7939  -23.2102  -15.5260 O   0  0  0  0  0  0  0  0  0  0  0  0
  2  1  1  1
  2  3  1  0
  3  4  1  0
  4  5  2  0
  5  6  1  0
  7  8  2  0
  7  6  1  0
  9  8  1  0
 10  9  2  0
 11 10  1  0
 11 12  2  0
 12  4  1  0
 12  7  1  0
 13  2  1  0
 14 13  2  0
 16 15  1  0
 16 18  1  0
 17 16  2  0
 19 18  1  0
 20 21  1  0
 20 19  1  0
 22 23  1  0
 22 21  1  6
 23 13  1  0
 24 22  1  0
 25 24  2  0
 26 24  1  0
 27 26  1  0
 28 27  1  0
 28 30  1  0
 29 28  2  0
M  END
$$$$
