WRG.pdb
     RDKit          3D

 30 31  0  0  1  0  0  0  0  0999 V2000
   21.3743  -19.7489  -18.4378 N   0  0  0  0  0  0  0  0  0  0  0  0
   21.9177  -19.0340  -17.3308 C   0  0  1  0  0  0  0  0  0  0  0  0
   20.8889  -18.4634  -16.4136 C   0  0  0  0  0  0  0  0  0  0  0  0
   20.0353  -17.4184  -17.0007 C   0  0  0  0  0  0  0  0  0  0  0  0
   20.3115  -16.0694  -17.0101 C   0  0  0  0  0  0  0  0  0  0  0  0
   19.3173  -15.4509  -17.6436 N   0  0  0  0  0  0  0  0  0  0  0  0
   18.3964  -16.3212  -18.0541 C   0  0  0  0  0  0  0  0  0  0  0  0
   17.2083  -16.1701  -18.7345 C   0  0  0  0  0  0  0  0  0  0  0  0
   16.4139  -17.2544  -19.0419 C   0  0  0  0  0  0  0  0  0  0  0  0
   16.8484  -18.4989  -18.6450 C   0  0  0  0  0  0  0  0  0  0  0  0
   18.0335  -18.6451  -17.9672 C   0  0  0  0  0  0  0  0  0  0  0  0
   18.8378  -17.5817  -17.6522 C   0  0  0  0  0  0  0  0  0  0  0  0
   22.7938  -19.9195  -16.4873 C   0  0  0  0  0  0  0  0  0  0  0  0
   22.3206  -20.9823  -16.0549 O   0  0  0  0  0  0  0  0  0  0  0  0
   29.7954  -21.1644  -13.8915 N   0  0  0  0  0  0  0  0  0  0  0  0
   30.2217  -22.1148  -14.8596 C   0  0  0  0  0  0  0  0  0  0  0  0
   31.0942  -23.0013  -14.4908 N   0  0  0  0  0  0  0  0  0  0  0  0
   29.7174  -22.1020  -16.1814 N   0  0  0  0  0  0  0  0  0  0  0  0
   28.6848  -21.1852  -16.5238 C   0  0  0  0  0  0  0  0  0  0  0  0
   27.4168  -21.3942  -15.7220 C   0  0  0  0  0  0  0  0  0  0  0  0
   26.4116  -20.3886  -16.2291 C   0  0  0  0  0  0  0  0  0  0  0  0
   25.0664  -20.5293  -15.5614 C   0  0  2  0  0  0  0  0  0  0  0  0
   24.1345  -19.5835  -16.1710 N   0  0  0  0  0  0  0  0  0  0  0  0
   25.2261  -20.1235  -14.1401 C   0  0  0  0  0  0  0  0  0  0  0  0
   25.3712  -18.9009  -13.7952 O   0  0  0  0  0  0  0  0  0  0  0  0
   31.4717  -23.7154  -15.1694 N   0  0  0  0  0  0  0  0  0  0  0  0
   25.2295  -21.0561  -13.0649 C   0  0  0  0  0  0  0  0  0  0  0  0
   25.4826  -20.6213  -11.6838 C   0  0  0  0  0  0  0  0  0  0  0  0
   25.4670  -21.7850  -10.7912 O   0  0  0  0  0  0  0  0  0  0  0  0
   25.1613  -22.9163  -11.2338 O   0  0  0  0  0  0  0  0  0  0  0  0
  2  1  1  6
  2  3  1  0
  3  4  1  0
  4  5  2  0
  5  6  1  0
  7  8  2  0
  7  6  1  0
  9  8  1  0
 10  9  2  0
 11 10  1  0
 11 12  2  0
 12  4  1  0
 12  7  1  0
 13  2  1  0
 14 13  2  0
 16 15  1  0
 16 18  1  0
 17 16  2  0
 19 18  1  0
 20 21  1  0
 20 19  1  0
 22 23  1  0
 22 21  1  6
 23 13  1  0
 24 22  1  0
 25 24  2  0
 26 24  1  0
 27 26  1  0
 28 27  1  0
 28 30  1  0
 29 28  2  0
M  END
$$$$
