WRG.pdb
     RDKit          3D

 30 31  0  0  1  0  0  0  0  0999 V2000
   24.3802  -14.3010  -18.1866 N   0  0  0  0  0  0  0  0  0  0  0  0
   24.7214  -14.4945  -16.8163 C   0  0  1  0  0  0  0  0  0  0  0  0
   23.7562  -13.8807  -15.8587 C   0  0  0  0  0  0  0  0  0  0  0  0
   23.8508  -12.4185  -15.7231 C   0  0  0  0  0  0  0  0  0  0  0  0
   22.7867  -11.5447  -15.7054 C   0  0  0  0  0  0  0  0  0  0  0  0
   23.2687  -10.3135  -15.5504 N   0  0  0  0  0  0  0  0  0  0  0  0
   24.5977  -10.3269  -15.4648 C   0  0  0  0  0  0  0  0  0  0  0  0
   25.5321   -9.3271  -15.3076 C   0  0  0  0  0  0  0  0  0  0  0  0
   26.8811   -9.6072  -15.2526 C   0  0  0  0  0  0  0  0  0  0  0  0
   27.2660  -10.9245  -15.3604 C   0  0  0  0  0  0  0  0  0  0  0  0
   26.3313  -11.9180  -15.5168 C   0  0  0  0  0  0  0  0  0  0  0  0
   24.9866  -11.6619  -15.5734 C   0  0  0  0  0  0  0  0  0  0  0  0
   24.7879  -15.9575  -16.4725 C   0  0  0  0  0  0  0  0  0  0  0  0
   24.0535  -16.7451  -17.0898 O   0  0  0  0  0  0  0  0  0  0  0  0
   27.3873  -20.9718  -11.5763 N   0  0  0  0  0  0  0  0  0  0  0  0
   26.5783  -21.8704  -12.3249 C   0  0  0  0  0  0  0  0  0  0  0  0
   25.9484  -22.7993  -11.6743 N   0  0  0  0  0  0  0  0  0  0  0  0
   26.4585  -21.7628  -13.7304 N   0  0  0  0  0  0  0  0  0  0  0  0
   26.7220  -20.5135  -14.3582 C   0  0  0  0  0  0  0  0  0  0  0  0
   26.7558  -19.3554  -13.3826 C   0  0  0  0  0  0  0  0  0  0  0  0
   26.9055  -18.0987  -14.2053 C   0  0  0  0  0  0  0  0  0  0  0  0
   25.7510  -17.8874  -15.1528 C   0  0  2  0  0  0  0  0  0  0  0  0
   25.6561  -16.4650  -15.4730 N   0  0  0  0  0  0  0  0  0  0  0  0
   24.5043  -18.2517  -14.4295 C   0  0  0  0  0  0  0  0  0  0  0  0
   24.1832  -17.7124  -13.3156 O   0  0  0  0  0  0  0  0  0  0  0  0
   25.3955  -23.5435  -12.1777 N   0  0  0  0  0  0  0  0  0  0  0  0
   23.5815  -19.2194  -14.9173 C   0  0  0  0  0  0  0  0  0  0  0  0
   22.2903  -19.4405  -14.2506 C   0  0  0  0  0  0  0  0  0  0  0  0
   22.2886  -20.7581  -13.6063 O   0  0  0  0  0  0  0  0  0  0  0  0
   23.3005  -21.4938  -13.6709 O   0  0  0  0  0  0  0  0  0  0  0  0
  2  1  1  6
  2  3  1  0
  3  4  1  0
  4  5  2  0
  5  6  1  0
  7  8  2  0
  7  6  1  0
  9  8  1  0
 10  9  2  0
 11 10  1  0
 11 12  2  0
 12  4  1  0
 12  7  1  0
 13  2  1  0
 14 13  2  0
 16 15  1  0
 16 18  1  0
 17 16  2  0
 19 18  1  0
 20 21  1  0
 20 19  1  0
 22 23  1  0
 22 21  1  1
 23 13  1  0
 24 22  1  0
 25 24  2  0
 26 24  1  0
 27 26  1  0
 28 27  1  0
 28 30  1  0
 29 28  2  0
M  END
$$$$
