WRG.pdb
     RDKit          3D

 30 31  0  0  1  0  0  0  0  0999 V2000
   22.5824  -24.7899  -15.4206 N   0  0  0  0  0  0  0  0  0  0  0  0
   21.4437  -25.6341  -15.2704 C   0  0  1  0  0  0  0  0  0  0  0  0
   21.6589  -27.0322  -15.7440 C   0  0  0  0  0  0  0  0  0  0  0  0
   21.8890  -27.1765  -17.1902 C   0  0  0  0  0  0  0  0  0  0  0  0
   23.0703  -26.9072  -17.8446 C   0  0  0  0  0  0  0  0  0  0  0  0
   22.8940  -27.1738  -19.1369 N   0  0  0  0  0  0  0  0  0  0  0  0
   21.6562  -27.6056  -19.3722 C   0  0  0  0  0  0  0  0  0  0  0  0
   21.0074  -27.9948  -20.5233 C   0  0  0  0  0  0  0  0  0  0  0  0
   19.6909  -28.4043  -20.5020 C   0  0  0  0  0  0  0  0  0  0  0  0
   19.0426  -28.4117  -19.2877 C   0  0  0  0  0  0  0  0  0  0  0  0
   19.6931  -28.0231  -18.1427 C   0  0  0  0  0  0  0  0  0  0  0  0
   21.0004  -27.6134  -18.1413 C   0  0  0  0  0  0  0  0  0  0  0  0
   21.0257  -25.7340  -13.8288 C   0  0  0  0  0  0  0  0  0  0  0  0
   21.9033  -25.9061  -12.9681 O   0  0  0  0  0  0  0  0  0  0  0  0
   21.5273  -21.3728  -14.0169 N   0  0  0  0  0  0  0  0  0  0  0  0
   20.7522  -20.7197  -13.0195 C   0  0  0  0  0  0  0  0  0  0  0  0
   20.7283  -19.4227  -13.0277 N   0  0  0  0  0  0  0  0  0  0  0  0
   20.0290  -21.4507  -12.0478 N   0  0  0  0  0  0  0  0  0  0  0  0
   19.5087  -22.7313  -12.3845 C   0  0  0  0  0  0  0  0  0  0  0  0
   18.7231  -23.3673  -11.2564 C   0  0  0  0  0  0  0  0  0  0  0  0
   18.1774  -24.6705  -11.7880 C   0  0  0  0  0  0  0  0  0  0  0  0
   19.2578  -25.6969  -12.0214 C   0  0  2  0  0  0  0  0  0  0  0  0
   19.6709  -25.6387  -13.4216 N   0  0  0  0  0  0  0  0  0  0  0  0
   18.6564  -27.0390  -11.8037 C   0  0  0  0  0  0  0  0  0  0  0  0
   17.8913  -27.5886  -12.6680 O   0  0  0  0  0  0  0  0  0  0  0  0
   20.2315  -18.8780  -12.2732 N   0  0  0  0  0  0  0  0  0  0  0  0
   18.8846  -27.8074  -10.6275 C   0  0  0  0  0  0  0  0  0  0  0  0
   18.3047  -29.1493  -10.4732 C   0  0  0  0  0  0  0  0  0  0  0  0
   18.6104  -29.6663   -9.1351 O   0  0  0  0  0  0  0  0  0  0  0  0
   18.0894  -30.7333   -8.7362 O   0  0  0  0  0  0  0  0  0  0  0  0
  2  1  1  1
  2  3  1  0
  3  4  1  0
  4  5  2  0
  5  6  1  0
  7  8  2  0
  7  6  1  0
  9  8  1  0
 10  9  2  0
 11 10  1  0
 11 12  2  0
 12  4  1  0
 12  7  1  0
 13  2  1  0
 14 13  2  0
 16 15  1  0
 16 18  1  0
 17 16  2  0
 19 18  1  0
 20 21  1  0
 20 19  1  0
 22 23  1  0
 22 21  1  6
 23 13  1  0
 24 22  1  0
 25 24  2  0
 26 24  1  0
 27 26  1  0
 28 27  1  0
 28 30  1  0
 29 28  2  0
M  END
$$$$
