WRG.pdb
     RDKit          3D

 30 31  0  0  1  0  0  0  0  0999 V2000
   27.3728  -22.4119  -12.9895 N   0  0  0  0  0  0  0  0  0  0  0  0
   26.3888  -21.5310  -12.4532 C   0  0  1  0  0  0  0  0  0  0  0  0
   26.9482  -20.2678  -11.8905 C   0  0  0  0  0  0  0  0  0  0  0  0
   27.8616  -20.4393  -10.7496 C   0  0  0  0  0  0  0  0  0  0  0  0
   29.2043  -20.7324  -10.8350 C   0  0  0  0  0  0  0  0  0  0  0  0
   29.6914  -20.7909   -9.5974 N   0  0  0  0  0  0  0  0  0  0  0  0
   28.7399  -20.5519   -8.6966 C   0  0  0  0  0  0  0  0  0  0  0  0
   28.7495  -20.5065   -7.3199 C   0  0  0  0  0  0  0  0  0  0  0  0
   27.6031  -20.2376   -6.6024 C   0  0  0  0  0  0  0  0  0  0  0  0
   26.4432  -20.0150   -7.3094 C   0  0  0  0  0  0  0  0  0  0  0  0
   26.4381  -20.0610   -8.6817 C   0  0  0  0  0  0  0  0  0  0  0  0
   27.5654  -20.3257   -9.4138 C   0  0  0  0  0  0  0  0  0  0  0  0
   25.3922  -21.1230  -13.5036 C   0  0  0  0  0  0  0  0  0  0  0  0
   25.7831  -20.4228  -14.4509 O   0  0  0  0  0  0  0  0  0  0  0  0
   26.2106  -25.3970  -16.0956 N   0  0  0  0  0  0  0  0  0  0  0  0
   24.8180  -25.6837  -16.1192 C   0  0  0  0  0  0  0  0  0  0  0  0
   24.4237  -26.8021  -15.5932 N   0  0  0  0  0  0  0  0  0  0  0  0
   23.8873  -24.7865  -16.6940 N   0  0  0  0  0  0  0  0  0  0  0  0
   24.3416  -23.5294  -17.1813 C   0  0  0  0  0  0  0  0  0  0  0  0
   24.4775  -22.4855  -16.0922 C   0  0  0  0  0  0  0  0  0  0  0  0
   23.0898  -22.2383  -15.5520 C   0  0  0  0  0  0  0  0  0  0  0  0
   23.0652  -21.1654  -14.4919 C   0  0  2  0  0  0  0  0  0  0  0  0
   24.0289  -21.5088  -13.4489 N   0  0  0  0  0  0  0  0  0  0  0  0
   21.7192  -21.1885  -13.8612 C   0  0  0  0  0  0  0  0  0  0  0  0
   21.4664  -21.8949  -12.8259 O   0  0  0  0  0  0  0  0  0  0  0  0
   23.3992  -27.0427  -15.5190 N   0  0  0  0  0  0  0  0  0  0  0  0
   20.6194  -20.4330  -14.3568 C   0  0  0  0  0  0  0  0  0  0  0  0
   20.1733  -19.2075  -13.6787 C   0  0  0  0  0  0  0  0  0  0  0  0
   19.1132  -19.5344  -12.7193 O   0  0  0  0  0  0  0  0  0  0  0  0
   18.1297  -20.2236  -13.0755 O   0  0  0  0  0  0  0  0  0  0  0  0
  2  1  1  6
  2  3  1  0
  3  4  1  0
  4  5  2  0
  5  6  1  0
  7  8  2  0
  7  6  1  0
  9  8  1  0
 10  9  2  0
 11 10  1  0
 11 12  2  0
 12  4  1  0
 12  7  1  0
 13  2  1  0
 14 13  2  0
 16 15  1  0
 16 18  1  0
 17 16  2  0
 19 18  1  0
 20 21  1  0
 20 19  1  0
 22 23  1  0
 22 21  1  6
 23 13  1  0
 24 22  1  0
 25 24  2  0
 26 24  1  0
 27 26  1  0
 28 27  1  0
 28 30  1  0
 29 28  2  0
M  END
$$$$
