WRG.pdb
     RDKit          3D

 30 31  0  0  1  0  0  0  0  0999 V2000
   24.2764  -19.8128  -20.8775 N   0  0  0  0  0  0  0  0  0  0  0  0
   24.3962  -19.0208  -19.6985 C   0  0  1  0  0  0  0  0  0  0  0  0
   23.1155  -18.3993  -19.2528 C   0  0  0  0  0  0  0  0  0  0  0  0
   22.6786  -17.2322  -20.0354 C   0  0  0  0  0  0  0  0  0  0  0  0
   22.3264  -17.2462  -21.3666 C   0  0  0  0  0  0  0  0  0  0  0  0
   21.9737  -16.0096  -21.7111 N   0  0  0  0  0  0  0  0  0  0  0  0
   22.0745  -15.1771  -20.6764 C   0  0  0  0  0  0  0  0  0  0  0  0
   21.8317  -13.8283  -20.5377 C   0  0  0  0  0  0  0  0  0  0  0  0
   22.0230  -13.1844  -19.3334 C   0  0  0  0  0  0  0  0  0  0  0  0
   22.4667  -13.9364  -18.2692 C   0  0  0  0  0  0  0  0  0  0  0  0
   22.7073  -15.2806  -18.4118 C   0  0  0  0  0  0  0  0  0  0  0  0
   22.5233  -15.9399  -19.5985 C   0  0  0  0  0  0  0  0  0  0  0  0
   24.8961  -19.8401  -18.5400 C   0  0  0  0  0  0  0  0  0  0  0  0
   24.4764  -21.0010  -18.4108 O   0  0  0  0  0  0  0  0  0  0  0  0
   30.4199  -23.7721  -17.0447 N   0  0  0  0  0  0  0  0  0  0  0  0
   30.0261  -23.8186  -15.6791 C   0  0  0  0  0  0  0  0  0  0  0  0
   30.7576  -24.5139  -14.8640 N   0  0  0  0  0  0  0  0  0  0  0  0
   28.8781  -23.1336  -15.2162 N   0  0  0  0  0  0  0  0  0  0  0  0
   28.3638  -22.0450  -15.9742 C   0  0  0  0  0  0  0  0  0  0  0  0
   28.3441  -20.7420  -15.2021 C   0  0  0  0  0  0  0  0  0  0  0  0
   27.6742  -19.7212  -16.0897 C   0  0  0  0  0  0  0  0  0  0  0  0
   26.2483  -20.0880  -16.4179 C   0  0  2  0  0  0  0  0  0  0  0  0
   25.8252  -19.3345  -17.5959 N   0  0  0  0  0  0  0  0  0  0  0  0
   25.3966  -19.6354  -15.2865 C   0  0  0  0  0  0  0  0  0  0  0  0
   25.4047  -18.4260  -14.8720 O   0  0  0  0  0  0  0  0  0  0  0  0
   30.5443  -24.5524  -13.8316 N   0  0  0  0  0  0  0  0  0  0  0  0
   24.5154  -20.5057  -14.5851 C   0  0  0  0  0  0  0  0  0  0  0  0
   23.7568  -20.0371  -13.4165 C   0  0  0  0  0  0  0  0  0  0  0  0
   22.9240  -21.1286  -12.9008 O   0  0  0  0  0  0  0  0  0  0  0  0
   22.8522  -22.2150  -13.5203 O   0  0  0  0  0  0  0  0  0  0  0  0
  2  1  1  6
  2  3  1  0
  3  4  1  0
  4  5  2  0
  5  6  1  0
  7  8  2  0
  7  6  1  0
  9  8  1  0
 10  9  2  0
 11 10  1  0
 11 12  2  0
 12  4  1  0
 12  7  1  0
 13  2  1  0
 14 13  2  0
 16 15  1  0
 16 18  1  0
 17 16  2  0
 19 18  1  0
 20 21  1  0
 20 19  1  0
 22 23  1  0
 22 21  1  1
 23 13  1  0
 24 22  1  0
 25 24  2  0
 26 24  1  0
 27 26  1  0
 28 27  1  0
 28 30  1  0
 29 28  2  0
M  END
$$$$
