WRG.pdb
     RDKit          3D

 30 31  0  0  1  0  0  0  0  0999 V2000
   27.8301  -20.2399  -10.0464 N   0  0  0  0  0  0  0  0  0  0  0  0
   26.5448  -20.7315   -9.6750 C   0  0  1  0  0  0  0  0  0  0  0  0
   26.0124  -20.1431   -8.4118 C   0  0  0  0  0  0  0  0  0  0  0  0
   27.0312  -19.6589   -7.4669 C   0  0  0  0  0  0  0  0  0  0  0  0
   27.6631  -18.4369   -7.5263 C   0  0  0  0  0  0  0  0  0  0  0  0
   28.5008  -18.3571   -6.4947 N   0  0  0  0  0  0  0  0  0  0  0  0
   28.4565  -19.4639   -5.7552 C   0  0  0  0  0  0  0  0  0  0  0  0
   29.1253  -19.8508   -4.6149 C   0  0  0  0  0  0  0  0  0  0  0  0
   28.8996  -21.0800   -4.0322 C   0  0  0  0  0  0  0  0  0  0  0  0
   27.9800  -21.9121   -4.6297 C   0  0  0  0  0  0  0  0  0  0  0  0
   27.3155  -21.5224   -5.7663 C   0  0  0  0  0  0  0  0  0  0  0  0
   27.5242  -20.3060   -6.3609 C   0  0  0  0  0  0  0  0  0  0  0  0
   25.5227  -20.4442  -10.7408 C   0  0  0  0  0  0  0  0  0  0  0  0
   25.2694  -19.2605  -11.0150 O   0  0  0  0  0  0  0  0  0  0  0  0
   26.2929  -24.0791  -17.6905 N   0  0  0  0  0  0  0  0  0  0  0  0
   25.9126  -24.5771  -16.4140 C   0  0  0  0  0  0  0  0  0  0  0  0
   25.7872  -25.8614  -16.2807 N   0  0  0  0  0  0  0  0  0  0  0  0
   25.6770  -23.7097  -15.3213 N   0  0  0  0  0  0  0  0  0  0  0  0
   25.9336  -22.3182  -15.4690 C   0  0  0  0  0  0  0  0  0  0  0  0
   25.6529  -21.5267  -14.2084 C   0  0  0  0  0  0  0  0  0  0  0  0
   24.2734  -21.9256  -13.7432 C   0  0  0  0  0  0  0  0  0  0  0  0
   23.8575  -21.2058  -12.4845 C   0  0  2  0  0  0  0  0  0  0  0  0
   24.8423  -21.4737  -11.4391 N   0  0  0  0  0  0  0  0  0  0  0  0
   22.5729  -21.8009  -12.0308 C   0  0  0  0  0  0  0  0  0  0  0  0
   22.3586  -23.0609  -12.0649 O   0  0  0  0  0  0  0  0  0  0  0  0
   25.5456  -26.2958  -15.3502 N   0  0  0  0  0  0  0  0  0  0  0  0
   21.4936  -21.0208  -11.5283 C   0  0  0  0  0  0  0  0  0  0  0  0
   20.9320  -19.9097  -12.3097 C   0  0  0  0  0  0  0  0  0  0  0  0
   19.6632  -20.3267  -12.9159 O   0  0  0  0  0  0  0  0  0  0  0  0
   18.6481  -19.5991  -12.8193 O   0  0  0  0  0  0  0  0  0  0  0  0
  2  1  1  6
  2  3  1  0
  3  4  1  0
  4  5  2  0
  5  6  1  0
  7  8  2  0
  7  6  1  0
  9  8  1  0
 10  9  2  0
 11 10  1  0
 11 12  2  0
 12  4  1  0
 12  7  1  0
 13  2  1  0
 14 13  2  0
 16 15  1  0
 16 18  1  0
 17 16  2  0
 19 18  1  0
 20 21  1  0
 20 19  1  0
 22 23  1  0
 22 21  1  6
 23 13  1  0
 24 22  1  0
 25 24  2  0
 26 24  1  0
 27 26  1  0
 28 27  1  0
 28 30  1  0
 29 28  2  0
M  END
$$$$
