WRG.pdb
     RDKit          3D

 30 31  0  0  1  0  0  0  0  0999 V2000
   28.7600  -21.5345  -17.2994 N   0  0  0  0  0  0  0  0  0  0  0  0
   28.0527  -20.5578  -16.5395 C   0  0  1  0  0  0  0  0  0  0  0  0
   26.9466  -19.8923  -17.2872 C   0  0  0  0  0  0  0  0  0  0  0  0
   27.1598  -18.4675  -17.5865 C   0  0  0  0  0  0  0  0  0  0  0  0
   27.5391  -17.9528  -18.8061 C   0  0  0  0  0  0  0  0  0  0  0  0
   27.6109  -16.6286  -18.6887 N   0  0  0  0  0  0  0  0  0  0  0  0
   27.2989  -16.2399  -17.4537 C   0  0  0  0  0  0  0  0  0  0  0  0
   27.2347  -15.0013  -16.8542 C   0  0  0  0  0  0  0  0  0  0  0  0
   26.8830  -14.8628  -15.5282 C   0  0  0  0  0  0  0  0  0  0  0  0
   26.5969  -16.0075  -14.8191 C   0  0  0  0  0  0  0  0  0  0  0  0
   26.6620  -17.2401  -15.4206 C   0  0  0  0  0  0  0  0  0  0  0  0
   27.0085  -17.4002  -16.7363 C   0  0  0  0  0  0  0  0  0  0  0  0
   27.4295  -21.1675  -15.3135 C   0  0  0  0  0  0  0  0  0  0  0  0
   26.8170  -22.2406  -15.4317 O   0  0  0  0  0  0  0  0  0  0  0  0
   26.7413  -20.7751   -7.1754 N   0  0  0  0  0  0  0  0  0  0  0  0
   25.4310  -21.2171   -7.5069 C   0  0  0  0  0  0  0  0  0  0  0  0
   24.5879  -21.3860   -6.5355 N   0  0  0  0  0  0  0  0  0  0  0  0
   25.0508  -21.4665   -8.8467 N   0  0  0  0  0  0  0  0  0  0  0  0
   26.0338  -21.4007   -9.8731 C   0  0  0  0  0  0  0  0  0  0  0  0
   25.9994  -20.0974  -10.6441 C   0  0  0  0  0  0  0  0  0  0  0  0
   27.0866  -20.1815  -11.6880 C   0  0  0  0  0  0  0  0  0  0  0  0
   26.6471  -20.9315  -12.9207 C   0  0  2  0  0  0  0  0  0  0  0  0
   27.5173  -20.5619  -14.0346 N   0  0  0  0  0  0  0  0  0  0  0  0
   25.2793  -20.4633  -13.2672 C   0  0  0  0  0  0  0  0  0  0  0  0
   25.0184  -19.2310  -13.4857 O   0  0  0  0  0  0  0  0  0  0  0  0
   23.5978  -21.7020   -6.7166 N   0  0  0  0  0  0  0  0  0  0  0  0
   24.1662  -21.3431  -13.3811 C   0  0  0  0  0  0  0  0  0  0  0  0
   22.8477  -20.8483  -13.8024 C   0  0  0  0  0  0  0  0  0  0  0  0
   22.0265  -20.5685  -12.6198 O   0  0  0  0  0  0  0  0  0  0  0  0
   22.5203  -20.6597  -11.4722 O   0  0  0  0  0  0  0  0  0  0  0  0
  2  1  1  6
  2  3  1  0
  3  4  1  0
  4  5  2  0
  5  6  1  0
  7  8  2  0
  7  6  1  0
  9  8  1  0
 10  9  2  0
 11 10  1  0
 11 12  2  0
 12  4  1  0
 12  7  1  0
 13  2  1  0
 14 13  2  0
 16 15  1  0
 16 18  1  0
 17 16  2  0
 19 18  1  0
 20 21  1  0
 20 19  1  0
 22 23  1  0
 22 21  1  1
 23 13  1  0
 24 22  1  0
 25 24  2  0
 26 24  1  0
 27 26  1  0
 28 27  1  0
 28 30  1  0
 29 28  2  0
M  END
$$$$
