WRG.pdb
     RDKit          3D

 30 31  0  0  1  0  0  0  0  0999 V2000
   28.3289  -21.5554  -10.3240 N   0  0  0  0  0  0  0  0  0  0  0  0
   27.0526  -21.0994   -9.8826 C   0  0  1  0  0  0  0  0  0  0  0  0
   27.1165  -20.0191   -8.8559 C   0  0  0  0  0  0  0  0  0  0  0  0
   28.1929  -20.1604   -7.8626 C   0  0  0  0  0  0  0  0  0  0  0  0
   29.4013  -20.7858   -8.0737 C   0  0  0  0  0  0  0  0  0  0  0  0
   30.1125  -20.6946   -6.9520 N   0  0  0  0  0  0  0  0  0  0  0  0
   29.4369  -20.0409   -6.0085 C   0  0  0  0  0  0  0  0  0  0  0  0
   29.7408  -19.7043   -4.7078 C   0  0  0  0  0  0  0  0  0  0  0  0
   28.8465  -19.0139   -3.9172 C   0  0  0  0  0  0  0  0  0  0  0  0
   27.6345  -18.6704   -4.4721 C   0  0  0  0  0  0  0  0  0  0  0  0
   27.3357  -19.0079   -5.7690 C   0  0  0  0  0  0  0  0  0  0  0  0
   28.2094  -19.6928   -6.5718 C   0  0  0  0  0  0  0  0  0  0  0  0
   26.2445  -20.5505  -11.0266 C   0  0  0  0  0  0  0  0  0  0  0  0
   26.7475  -19.6647  -11.7358 O   0  0  0  0  0  0  0  0  0  0  0  0
   26.5325  -26.2462  -16.8562 N   0  0  0  0  0  0  0  0  0  0  0  0
   26.1903  -24.8951  -17.1384 C   0  0  0  0  0  0  0  0  0  0  0  0
   25.8760  -24.5955  -18.3608 N   0  0  0  0  0  0  0  0  0  0  0  0
   26.1898  -23.9051  -16.1277 N   0  0  0  0  0  0  0  0  0  0  0  0
   25.1369  -23.8870  -15.1711 C   0  0  0  0  0  0  0  0  0  0  0  0
   24.7075  -22.4858  -14.7886 C   0  0  0  0  0  0  0  0  0  0  0  0
   25.1820  -22.2570  -13.3740 C   0  0  0  0  0  0  0  0  0  0  0  0
   24.4310  -21.1447  -12.6854 C   0  0  2  0  0  0  0  0  0  0  0  0
   24.9351  -21.0076  -11.3210 N   0  0  0  0  0  0  0  0  0  0  0  0
   23.0079  -21.5617  -12.5806 C   0  0  0  0  0  0  0  0  0  0  0  0
   22.6231  -22.4626  -11.7591 O   0  0  0  0  0  0  0  0  0  0  0  0
   25.6508  -23.6042  -18.6426 N   0  0  0  0  0  0  0  0  0  0  0  0
   21.9749  -20.9951  -13.3791 C   0  0  0  0  0  0  0  0  0  0  0  0
   21.0072  -20.0475  -12.8077 C   0  0  0  0  0  0  0  0  0  0  0  0
   19.9394  -20.7863  -12.1258 O   0  0  0  0  0  0  0  0  0  0  0  0
   19.9753  -22.0370  -12.0663 O   0  0  0  0  0  0  0  0  0  0  0  0
  2  1  1  6
  2  3  1  0
  3  4  1  0
  4  5  2  0
  5  6  1  0
  7  8  2  0
  7  6  1  0
  9  8  1  0
 10  9  2  0
 11 10  1  0
 11 12  2  0
 12  4  1  0
 12  7  1  0
 13  2  1  0
 14 13  2  0
 16 15  1  0
 16 18  1  0
 17 16  2  0
 19 18  1  0
 20 21  1  0
 20 19  1  0
 22 23  1  0
 22 21  1  6
 23 13  1  0
 24 22  1  0
 25 24  2  0
 26 24  1  0
 27 26  1  0
 28 27  1  0
 28 30  1  0
 29 28  2  0
M  END
$$$$
