WRG.pdb
     RDKit          3D

 30 31  0  0  1  0  0  0  0  0999 V2000
   23.6550  -20.0562  -11.7622 N   0  0  0  0  0  0  0  0  0  0  0  0
   25.0627  -20.1561  -11.9625 C   0  0  1  0  0  0  0  0  0  0  0  0
   25.7030  -21.2787  -11.2174 C   0  0  0  0  0  0  0  0  0  0  0  0
   26.1017  -20.9679   -9.8354 C   0  0  0  0  0  0  0  0  0  0  0  0
   25.2423  -20.7845   -8.7753 C   0  0  0  0  0  0  0  0  0  0  0  0
   25.9744  -20.5393   -7.6907 N   0  0  0  0  0  0  0  0  0  0  0  0
   27.2748  -20.5504   -7.9783 C   0  0  0  0  0  0  0  0  0  0  0  0
   28.4012  -20.3505   -7.2110 C   0  0  0  0  0  0  0  0  0  0  0  0
   29.6643  -20.4106   -7.7607 C   0  0  0  0  0  0  0  0  0  0  0  0
   29.7641  -20.6780   -9.1074 C   0  0  0  0  0  0  0  0  0  0  0  0
   28.6387  -20.8767   -9.8685 C   0  0  0  0  0  0  0  0  0  0  0  0
   27.3748  -20.8220   -9.3427 C   0  0  0  0  0  0  0  0  0  0  0  0
   25.3928  -20.3679  -13.4148 C   0  0  0  0  0  0  0  0  0  0  0  0
   24.5489  -20.9178  -14.1400 O   0  0  0  0  0  0  0  0  0  0  0  0
   28.9039  -15.8226  -18.7455 N   0  0  0  0  0  0  0  0  0  0  0  0
   28.0601  -16.7343  -19.4376 C   0  0  0  0  0  0  0  0  0  0  0  0
   28.4158  -17.0980  -20.6309 N   0  0  0  0  0  0  0  0  0  0  0  0
   26.8721  -17.2329  -18.8530 N   0  0  0  0  0  0  0  0  0  0  0  0
   26.8452  -17.5088  -17.4576 C   0  0  0  0  0  0  0  0  0  0  0  0
   28.1094  -18.1796  -16.9616 C   0  0  0  0  0  0  0  0  0  0  0  0
   27.8585  -18.5714  -15.5255 C   0  0  0  0  0  0  0  0  0  0  0  0
   26.7780  -19.6155  -15.3918 C   0  0  2  0  0  0  0  0  0  0  0  0
   26.6282  -19.9631  -13.9807 N   0  0  0  0  0  0  0  0  0  0  0  0
   27.2485  -20.8402  -16.0910 C   0  0  0  0  0  0  0  0  0  0  0  0
   27.3385  -20.9028  -17.3648 O   0  0  0  0  0  0  0  0  0  0  0  0
   27.8213  -17.7536  -21.2051 N   0  0  0  0  0  0  0  0  0  0  0  0
   27.6312  -22.0255  -15.4021 C   0  0  0  0  0  0  0  0  0  0  0  0
   28.0839  -23.2167  -16.1348 C   0  0  0  0  0  0  0  0  0  0  0  0
   29.4972  -23.0641  -16.4962 O   0  0  0  0  0  0  0  0  0  0  0  0
   30.0814  -21.9713  -16.3129 O   0  0  0  0  0  0  0  0  0  0  0  0
  2  1  1  6
  2  3  1  0
  3  4  1  0
  4  5  2  0
  5  6  1  0
  7  8  2  0
  7  6  1  0
  9  8  1  0
 10  9  2  0
 11 10  1  0
 11 12  2  0
 12  4  1  0
 12  7  1  0
 13  2  1  0
 14 13  2  0
 16 15  1  0
 16 18  1  0
 17 16  2  0
 19 18  1  0
 20 21  1  0
 20 19  1  0
 22 23  1  0
 22 21  1  1
 23 13  1  0
 24 22  1  0
 25 24  2  0
 26 24  1  0
 27 26  1  0
 28 27  1  0
 28 30  1  0
 29 28  2  0
M  END
$$$$
