WRG.pdb
     RDKit          3D

 30 31  0  0  1  0  0  0  0  0999 V2000
   28.8336  -21.8389  -10.0437 N   0  0  0  0  0  0  0  0  0  0  0  0
   27.6412  -21.1026   -9.7835 C   0  0  1  0  0  0  0  0  0  0  0  0
   27.8806  -19.7233   -9.2683 C   0  0  0  0  0  0  0  0  0  0  0  0
   28.5388  -19.6496   -7.9543 C   0  0  0  0  0  0  0  0  0  0  0  0
   29.8912  -19.5011   -7.7425 C   0  0  0  0  0  0  0  0  0  0  0  0
   30.0990  -19.4586   -6.4282 N   0  0  0  0  0  0  0  0  0  0  0  0
   28.9533  -19.5718   -5.7585 C   0  0  0  0  0  0  0  0  0  0  0  0
   28.6572  -19.5874   -4.4133 C   0  0  0  0  0  0  0  0  0  0  0  0
   27.3605  -19.7254   -3.9651 C   0  0  0  0  0  0  0  0  0  0  0  0
   26.3667  -19.8477   -4.9096 C   0  0  0  0  0  0  0  0  0  0  0  0
   26.6662  -19.8314   -6.2495 C   0  0  0  0  0  0  0  0  0  0  0  0
   27.9470  -19.6949   -6.7162 C   0  0  0  0  0  0  0  0  0  0  0  0
   26.8107  -20.9524  -11.0288 C   0  0  0  0  0  0  0  0  0  0  0  0
   27.3720  -20.5906  -12.0750 O   0  0  0  0  0  0  0  0  0  0  0  0
   25.7843  -23.3973  -15.9121 N   0  0  0  0  0  0  0  0  0  0  0  0
   25.1927  -24.6904  -15.9219 C   0  0  0  0  0  0  0  0  0  0  0  0
   25.1381  -25.3199  -17.0549 N   0  0  0  0  0  0  0  0  0  0  0  0
   24.6789  -25.2782  -14.7420 N   0  0  0  0  0  0  0  0  0  0  0  0
   24.7158  -24.5429  -13.5246 C   0  0  0  0  0  0  0  0  0  0  0  0
   23.7056  -23.4151  -13.4825 C   0  0  0  0  0  0  0  0  0  0  0  0
   23.8889  -22.7170  -12.1567 C   0  0  0  0  0  0  0  0  0  0  0  0
   24.6684  -21.4318  -12.2834 C   0  0  2  0  0  0  0  0  0  0  0  0
   25.4163  -21.2086  -11.0484 N   0  0  0  0  0  0  0  0  0  0  0  0
   23.6869  -20.3214  -12.4010 C   0  0  0  0  0  0  0  0  0  0  0  0
   23.2252  -19.7118  -11.3764 O   0  0  0  0  0  0  0  0  0  0  0  0
   24.7950  -26.3157  -17.1137 N   0  0  0  0  0  0  0  0  0  0  0  0
   23.1911  -19.8562  -13.6515 C   0  0  0  0  0  0  0  0  0  0  0  0
   22.2012  -18.7718  -13.7195 C   0  0  0  0  0  0  0  0  0  0  0  0
   22.6635  -17.7418  -14.6558 O   0  0  0  0  0  0  0  0  0  0  0  0
   23.7728  -17.8588  -15.2259 O   0  0  0  0  0  0  0  0  0  0  0  0
  2  1  1  6
  2  3  1  0
  3  4  1  0
  4  5  2  0
  5  6  1  0
  7  8  2  0
  7  6  1  0
  9  8  1  0
 10  9  2  0
 11 10  1  0
 11 12  2  0
 12  4  1  0
 12  7  1  0
 13  2  1  0
 14 13  2  0
 16 15  1  0
 16 18  1  0
 17 16  2  0
 19 18  1  0
 20 21  1  0
 20 19  1  0
 22 23  1  0
 22 21  1  1
 23 13  1  0
 24 22  1  0
 25 24  2  0
 26 24  1  0
 27 26  1  0
 28 27  1  0
 28 30  1  0
 29 28  2  0
M  END
$$$$
