WRG.pdb
     RDKit          3D

 30 31  0  0  1  0  0  0  0  0999 V2000
   27.4609  -20.6965  -10.2135 N   0  0  0  0  0  0  0  0  0  0  0  0
   26.1728  -20.7090   -9.6033 C   0  0  1  0  0  0  0  0  0  0  0  0
   25.9922  -19.6711   -8.5472 C   0  0  0  0  0  0  0  0  0  0  0  0
   27.1822  -19.3977   -7.7260 C   0  0  0  0  0  0  0  0  0  0  0  0
   28.1379  -18.4429   -7.9926 C   0  0  0  0  0  0  0  0  0  0  0  0
   29.0439  -18.4851   -7.0180 N   0  0  0  0  0  0  0  0  0  0  0  0
   28.7373  -19.4193   -6.1196 C   0  0  0  0  0  0  0  0  0  0  0  0
   29.3542  -19.8367   -4.9608 C   0  0  0  0  0  0  0  0  0  0  0  0
   28.8261  -20.8522   -4.1919 C   0  0  0  0  0  0  0  0  0  0  0  0
   27.6570  -21.4384   -4.6216 C   0  0  0  0  0  0  0  0  0  0  0  0
   27.0453  -21.0191   -5.7771 C   0  0  0  0  0  0  0  0  0  0  0  0
   27.5524  -20.0121   -6.5553 C   0  0  0  0  0  0  0  0  0  0  0  0
   25.0868  -20.4757  -10.6178 C   0  0  0  0  0  0  0  0  0  0  0  0
   24.7526  -19.3072  -10.8697 O   0  0  0  0  0  0  0  0  0  0  0  0
   25.7240  -22.6305  -17.6889 N   0  0  0  0  0  0  0  0  0  0  0  0
   26.6522  -21.7378  -17.0858 C   0  0  0  0  0  0  0  0  0  0  0  0
   27.2959  -20.9221  -17.8625 N   0  0  0  0  0  0  0  0  0  0  0  0
   26.8727  -21.7321  -15.6884 N   0  0  0  0  0  0  0  0  0  0  0  0
   25.9217  -22.3521  -14.8309 C   0  0  0  0  0  0  0  0  0  0  0  0
   24.7039  -21.4889  -14.5737 C   0  0  0  0  0  0  0  0  0  0  0  0
   23.8697  -22.2106  -13.5432 C   0  0  0  0  0  0  0  0  0  0  0  0
   23.4886  -21.3237  -12.3842 C   0  0  2  0  0  0  0  0  0  0  0  0
   24.4354  -21.5391  -11.2925 N   0  0  0  0  0  0  0  0  0  0  0  0
   22.1573  -21.7703  -11.8960 C   0  0  0  0  0  0  0  0  0  0  0  0
   21.9696  -22.9365  -11.4069 O   0  0  0  0  0  0  0  0  0  0  0  0
   27.9957  -20.2335  -17.4763 N   0  0  0  0  0  0  0  0  0  0  0  0
   21.0009  -20.9414  -11.9354 C   0  0  0  0  0  0  0  0  0  0  0  0
   19.8871  -21.2352  -12.8485 C   0  0  0  0  0  0  0  0  0  0  0  0
   18.9401  -22.1432  -12.1929 O   0  0  0  0  0  0  0  0  0  0  0  0
   19.1658  -22.5619  -11.0340 O   0  0  0  0  0  0  0  0  0  0  0  0
  2  1  1  6
  2  3  1  0
  3  4  1  0
  4  5  2  0
  5  6  1  0
  7  8  2  0
  7  6  1  0
  9  8  1  0
 10  9  2  0
 11 10  1  0
 11 12  2  0
 12  4  1  0
 12  7  1  0
 13  2  1  0
 14 13  2  0
 16 15  1  0
 16 18  1  0
 17 16  2  0
 19 18  1  0
 20 21  1  0
 20 19  1  0
 22 23  1  0
 22 21  1  6
 23 13  1  0
 24 22  1  0
 25 24  2  0
 26 24  1  0
 27 26  1  0
 28 27  1  0
 28 30  1  0
 29 28  2  0
M  END
$$$$
