WRG.pdb
     RDKit          3D

 30 31  0  0  1  0  0  0  0  0999 V2000
   27.5019  -18.5107   -9.7061 N   0  0  0  0  0  0  0  0  0  0  0  0
   27.0567  -19.8585   -9.5757 C   0  0  1  0  0  0  0  0  0  0  0  0
   26.4956  -20.1843   -8.2325 C   0  0  0  0  0  0  0  0  0  0  0  0
   27.2363  -19.6253   -7.0905 C   0  0  0  0  0  0  0  0  0  0  0  0
   27.4544  -18.2863   -6.8547 C   0  0  0  0  0  0  0  0  0  0  0  0
   28.1445  -18.1759   -5.7216 N   0  0  0  0  0  0  0  0  0  0  0  0
   28.3949  -19.3733   -5.1949 C   0  0  0  0  0  0  0  0  0  0  0  0
   29.0637  -19.7705   -4.0581 C   0  0  0  0  0  0  0  0  0  0  0  0
   29.1928  -21.1035   -3.7298 C   0  0  0  0  0  0  0  0  0  0  0  0
   28.6293  -22.0291   -4.5788 C   0  0  0  0  0  0  0  0  0  0  0  0
   27.9634  -21.6288   -5.7109 C   0  0  0  0  0  0  0  0  0  0  0  0
   27.8231  -20.3102   -6.0553 C   0  0  0  0  0  0  0  0  0  0  0  0
   25.9775  -20.1750  -10.5747 C   0  0  0  0  0  0  0  0  0  0  0  0
   24.8869  -19.5910  -10.4736 O   0  0  0  0  0  0  0  0  0  0  0  0
   24.0720  -20.7554  -18.0466 N   0  0  0  0  0  0  0  0  0  0  0  0
   25.0947  -19.8629  -17.6228 C   0  0  0  0  0  0  0  0  0  0  0  0
   25.1823  -18.7170  -18.2246 N   0  0  0  0  0  0  0  0  0  0  0  0
   25.9901  -20.2040  -16.5818 N   0  0  0  0  0  0  0  0  0  0  0  0
   26.1699  -21.5729  -16.2386 C   0  0  0  0  0  0  0  0  0  0  0  0
   25.2183  -22.0429  -15.1579 C   0  0  0  0  0  0  0  0  0  0  0  0
   25.9860  -22.0095  -13.8586 C   0  0  0  0  0  0  0  0  0  0  0  0
   25.3240  -21.1402  -12.8186 C   0  0  2  0  0  0  0  0  0  0  0  0
   26.1622  -21.1125  -11.6222 N   0  0  0  0  0  0  0  0  0  0  0  0
   24.0451  -21.7940  -12.4352 C   0  0  0  0  0  0  0  0  0  0  0  0
   24.0034  -22.9850  -11.9720 O   0  0  0  0  0  0  0  0  0  0  0  0
   25.9224  -18.0132  -17.9601 N   0  0  0  0  0  0  0  0  0  0  0  0
   22.7812  -21.1501  -12.5532 C   0  0  0  0  0  0  0  0  0  0  0  0
   21.5454  -21.8188  -12.1215 C   0  0  0  0  0  0  0  0  0  0  0  0
   20.9078  -22.4653  -13.2733 O   0  0  0  0  0  0  0  0  0  0  0  0
   21.5156  -22.5516  -14.3653 O   0  0  0  0  0  0  0  0  0  0  0  0
  2  1  1  1
  2  3  1  0
  3  4  1  0
  4  5  2  0
  5  6  1  0
  7  8  2  0
  7  6  1  0
  9  8  1  0
 10  9  2  0
 11 10  1  0
 11 12  2  0
 12  4  1  0
 12  7  1  0
 13  2  1  0
 14 13  2  0
 16 15  1  0
 16 18  1  0
 17 16  2  0
 19 18  1  0
 20 21  1  0
 20 19  1  0
 22 23  1  0
 22 21  1  6
 23 13  1  0
 24 22  1  0
 25 24  2  0
 26 24  1  0
 27 26  1  0
 28 27  1  0
 28 30  1  0
 29 28  2  0
M  END
$$$$
