QKF.pdb
     RDKit          3D

 30 30  0  0  1  0  0  0  0  0999 V2000
    7.4218  -12.2282   17.9229 N   0  0  0  0  0  0  0  0  0  0  0  0
    7.8069  -13.4193   17.2279 C   0  0  0  0  0  0  0  0  0  0  0  0
    7.9305  -13.3154   15.9818 O   0  0  0  0  0  0  0  0  0  0  0  0
    8.0297  -14.6571   17.9833 C   0  0  0  0  0  0  0  0  0  0  0  0
    7.7627  -14.5558   19.4477 C   0  0  0  0  0  0  0  0  0  0  0  0
    8.7646  -15.2407   20.3202 C   0  0  2  0  0  0  0  0  0  0  0  0
    9.4398  -16.3215   19.6401 N   0  0  0  0  0  0  0  0  0  0  0  0
    8.1350  -15.7360   21.5926 C   0  0  0  0  0  0  0  0  0  0  0  0
    7.2161  -15.0386   22.1151 O   0  0  0  0  0  0  0  0  0  0  0  0
    8.5404  -16.9270   22.1924 N   0  0  0  0  0  0  0  0  0  0  0  0
    7.8378  -17.3973   23.4151 C   0  0  1  0  0  0  0  0  0  0  0  0
    7.8772  -18.8849   23.4162 C   0  0  0  0  0  0  0  0  0  0  0  0
    7.4392  -19.5991   22.1873 C   0  0  0  0  0  0  0  0  0  0  0  0
    6.3698  -20.6490   22.4819 C   0  0  0  0  0  0  0  0  0  0  0  0
    5.9648  -21.2624   21.1549 C   0  0  0  0  0  0  0  0  0  0  0  0
    4.9913  -22.3036   21.4570 N   0  0  0  0  0  0  0  0  0  0  0  0
    8.6002  -16.8870   24.5953 C   0  0  0  0  0  0  0  0  0  0  0  0
    9.8662  -16.7550   24.4766 O   0  0  0  0  0  0  0  0  0  0  0  0
    7.9765  -16.5492   25.8104 N   0  0  0  0  0  0  0  0  0  0  0  0
    8.7107  -16.0807   26.9794 C   0  0  1  0  0  0  0  0  0  0  0  0
    7.9521  -15.0905   27.7753 C   0  0  0  0  0  0  0  0  0  0  0  0
    7.5219  -13.9639   26.9349 C   0  0  0  0  0  0  0  0  0  0  0  0
    6.2097  -13.6460   26.6766 C   0  0  0  0  0  0  0  0  0  0  0  0
    5.8251  -12.5789   25.8824 C   0  0  0  0  0  0  0  0  0  0  0  0
    6.8357  -11.8099   25.3332 C   0  0  0  0  0  0  0  0  0  0  0  0
    8.1587  -12.0830   25.5585 C   0  0  0  0  0  0  0  0  0  0  0  0
    8.4955  -13.1490   26.3511 C   0  0  0  0  0  0  0  0  0  0  0  0
    9.2660  -17.2308   27.6883 C   0  0  0  0  0  0  0  0  0  0  0  0
   10.2965  -17.0686   28.5912 O   0  0  0  0  0  0  0  0  0  0  0  0
    8.8294  -18.3808   27.5021 O   0  0  0  0  0  0  0  0  0  0  0  0
  2  1  1  0
  3  2  2  0
  4  2  1  0
  5  6  1  0
  5  4  1  0
  6  8  1  0
  6  7  1  6
  8  9  2  0
 10 11  1  0
 10  8  1  0
 11 12  1  1
 13 12  1  0
 13 14  1  0
 15 14  1  0
 16 15  1  0
 17 18  2  0
 17 11  1  0
 19 17  1  0
 20 19  1  0
 20 21  1  1
 21 22  1  0
 22 23  2  0
 23 24  1  0
 25 24  2  0
 26 25  1  0
 27 26  2  0
 27 22  1  0
 28 20  1  0
 29 28  1  0
 30 28  2  0
M  END
$$$$
