QKF.pdb
     RDKit          3D

 30 30  0  0  1  0  0  0  0  0999 V2000
    2.1472  -18.6591   21.5364 N   0  0  0  0  0  0  0  0  0  0  0  0
    2.6908  -19.7476   22.2911 C   0  0  0  0  0  0  0  0  0  0  0  0
    1.9519  -20.7564   22.4146 O   0  0  0  0  0  0  0  0  0  0  0  0
    4.0376  -19.6309   22.8609 C   0  0  0  0  0  0  0  0  0  0  0  0
    4.6816  -18.2969   22.6826 C   0  0  0  0  0  0  0  0  0  0  0  0
    5.6083  -18.1950   21.5144 C   0  0  2  0  0  0  0  0  0  0  0  0
    5.9705  -19.4890   20.9842 N   0  0  0  0  0  0  0  0  0  0  0  0
    6.8417  -17.4080   21.8606 C   0  0  0  0  0  0  0  0  0  0  0  0
    7.8943  -18.0469   22.1561 O   0  0  0  0  0  0  0  0  0  0  0  0
    6.8425  -16.0143   21.8607 N   0  0  0  0  0  0  0  0  0  0  0  0
    8.0962  -15.2912   22.2004 C   0  0  1  0  0  0  0  0  0  0  0  0
    8.0309  -13.9478   21.5637 C   0  0  0  0  0  0  0  0  0  0  0  0
    7.5267  -13.8570   20.1674 C   0  0  0  0  0  0  0  0  0  0  0  0
    8.4965  -13.1121   19.2524 C   0  0  0  0  0  0  0  0  0  0  0  0
    7.8314  -12.9934   17.8942 C   0  0  0  0  0  0  0  0  0  0  0  0
    8.7829  -12.3172   17.0221 N   0  0  0  0  0  0  0  0  0  0  0  0
    8.1316  -15.1274   23.6857 C   0  0  0  0  0  0  0  0  0  0  0  0
    7.6357  -14.0579   24.1804 O   0  0  0  0  0  0  0  0  0  0  0  0
    8.6810  -16.0999   24.5413 N   0  0  0  0  0  0  0  0  0  0  0  0
    9.0719  -15.8207   25.9177 C   0  0  1  0  0  0  0  0  0  0  0  0
    7.9128  -15.6786   26.8264 C   0  0  0  0  0  0  0  0  0  0  0  0
    7.3841  -14.3076   26.7884 C   0  0  0  0  0  0  0  0  0  0  0  0
    6.0868  -13.9854   26.4680 C   0  0  0  0  0  0  0  0  0  0  0  0
    5.6080  -12.6865   26.4390 C   0  0  0  0  0  0  0  0  0  0  0  0
    6.5044  -11.6806   26.7533 C   0  0  0  0  0  0  0  0  0  0  0  0
    7.8077  -11.9468   27.0794 C   0  0  0  0  0  0  0  0  0  0  0  0
    8.2404  -13.2469   27.0961 C   0  0  0  0  0  0  0  0  0  0  0  0
   10.1273  -16.7498   26.3133 C   0  0  0  0  0  0  0  0  0  0  0  0
   10.6251  -17.6709   25.4148 O   0  0  0  0  0  0  0  0  0  0  0  0
   10.6059  -16.7378   27.4616 O   0  0  0  0  0  0  0  0  0  0  0  0
  2  1  1  0
  3  2  2  0
  4  2  1  0
  5  6  1  0
  5  4  1  0
  6  8  1  0
  6  7  1  1
  8  9  2  0
 10 11  1  0
 10  8  1  0
 11 12  1  6
 13 12  1  0
 13 14  1  0
 15 14  1  0
 16 15  1  0
 17 18  2  0
 17 11  1  0
 19 17  1  0
 20 19  1  0
 20 21  1  1
 21 22  1  0
 22 23  2  0
 23 24  1  0
 25 24  2  0
 26 25  1  0
 27 26  2  0
 27 22  1  0
 28 20  1  0
 29 28  1  0
 30 28  2  0
M  END
$$$$
