QKF.pdb
     RDKit          3D

 30 30  0  0  1  0  0  0  0  0999 V2000
    6.6626  -14.6484   17.0566 N   0  0  0  0  0  0  0  0  0  0  0  0
    7.5923  -13.5781   16.8567 C   0  0  0  0  0  0  0  0  0  0  0  0
    7.9325  -13.3579   15.6674 O   0  0  0  0  0  0  0  0  0  0  0  0
    8.0816  -12.8200   18.0135 C   0  0  0  0  0  0  0  0  0  0  0  0
    7.5453  -13.2693   19.3314 C   0  0  0  0  0  0  0  0  0  0  0  0
    8.5593  -13.8609   20.2564 C   0  0  2  0  0  0  0  0  0  0  0  0
    9.4898  -14.7281   19.5717 N   0  0  0  0  0  0  0  0  0  0  0  0
    7.9022  -14.5929   21.3935 C   0  0  0  0  0  0  0  0  0  0  0  0
    7.0257  -13.9798   22.0712 O   0  0  0  0  0  0  0  0  0  0  0  0
    8.2376  -15.9093   21.7053 N   0  0  0  0  0  0  0  0  0  0  0  0
    7.4782  -16.6169   22.7695 C   0  0  1  0  0  0  0  0  0  0  0  0
    7.4555  -18.0641   22.4235 C   0  0  0  0  0  0  0  0  0  0  0  0
    6.6282  -18.4956   21.2653 C   0  0  0  0  0  0  0  0  0  0  0  0
    6.7718  -19.9891   20.9798 C   0  0  0  0  0  0  0  0  0  0  0  0
    6.0043  -20.2784   19.7038 C   0  0  0  0  0  0  0  0  0  0  0  0
    6.2774  -21.6675   19.3591 N   0  0  0  0  0  0  0  0  0  0  0  0
    8.2240  -16.4322   24.0517 C   0  0  0  0  0  0  0  0  0  0  0  0
    9.5015  -16.4345   24.0049 O   0  0  0  0  0  0  0  0  0  0  0  0
    7.5734  -16.2546   25.2865 N   0  0  0  0  0  0  0  0  0  0  0  0
    8.2857  -16.1464   26.5538 C   0  0  1  0  0  0  0  0  0  0  0  0
    7.6786  -15.1569   27.4713 C   0  0  0  0  0  0  0  0  0  0  0  0
    7.6493  -13.8226   26.8554 C   0  0  0  0  0  0  0  0  0  0  0  0
    6.4990  -13.1356   26.5479 C   0  0  0  0  0  0  0  0  0  0  0  0
    6.4931  -11.8781   25.9684 C   0  0  0  0  0  0  0  0  0  0  0  0
    7.7237  -11.3075   25.6957 C   0  0  0  0  0  0  0  0  0  0  0  0
    8.8996  -11.9487   25.9819 C   0  0  0  0  0  0  0  0  0  0  0  0
    8.8601  -13.1926   26.5555 C   0  0  0  0  0  0  0  0  0  0  0  0
    8.5348  -17.4866   27.0787 C   0  0  0  0  0  0  0  0  0  0  0  0
    9.4001  -17.6771   28.1362 O   0  0  0  0  0  0  0  0  0  0  0  0
    7.9779  -18.4877   26.5932 O   0  0  0  0  0  0  0  0  0  0  0  0
  2  1  1  0
  3  2  2  0
  4  2  1  0
  5  6  1  0
  5  4  1  0
  6  8  1  0
  6  7  1  6
  8  9  2  0
 10 11  1  0
 10  8  1  0
 11 12  1  6
 13 12  1  0
 13 14  1  0
 15 14  1  0
 16 15  1  0
 17 18  2  0
 17 11  1  0
 19 17  1  0
 20 19  1  0
 20 21  1  1
 21 22  1  0
 22 23  2  0
 23 24  1  0
 25 24  2  0
 26 25  1  0
 27 26  2  0
 27 22  1  0
 28 20  1  0
 29 28  1  0
 30 28  2  0
M  END
$$$$
