QKF.pdb
     RDKit          3D

 30 30  0  0  1  0  0  0  0  0999 V2000
    8.9748  -16.5363   17.6230 N   0  0  0  0  0  0  0  0  0  0  0  0
    9.0553  -17.8968   17.1842 C   0  0  0  0  0  0  0  0  0  0  0  0
    9.6999  -18.0974   16.1245 O   0  0  0  0  0  0  0  0  0  0  0  0
    8.4025  -18.9497   17.9700 C   0  0  0  0  0  0  0  0  0  0  0  0
    7.6009  -18.4621   19.1302 C   0  0  0  0  0  0  0  0  0  0  0  0
    8.3037  -18.5131   20.4483 C   0  0  2  0  0  0  0  0  0  0  0  0
    7.4471  -18.9851   21.5113 N   0  0  0  0  0  0  0  0  0  0  0  0
    8.8937  -17.1773   20.8064 C   0  0  0  0  0  0  0  0  0  0  0  0
   10.0592  -16.9085   20.3907 O   0  0  0  0  0  0  0  0  0  0  0  0
    8.1902  -16.2504   21.5736 N   0  0  0  0  0  0  0  0  0  0  0  0
    8.8251  -14.9448   21.8931 C   0  0  1  0  0  0  0  0  0  0  0  0
    7.8206  -13.8776   21.6353 C   0  0  0  0  0  0  0  0  0  0  0  0
    7.3085  -13.7166   20.2483 C   0  0  0  0  0  0  0  0  0  0  0  0
    8.2343  -12.8584   19.3887 C   0  0  0  0  0  0  0  0  0  0  0  0
    7.5527  -12.6673   18.0471 C   0  0  0  0  0  0  0  0  0  0  0  0
    7.8622  -13.8476   17.2507 N   0  0  0  0  0  0  0  0  0  0  0  0
    9.1651  -14.9552   23.3487 C   0  0  0  0  0  0  0  0  0  0  0  0
    9.9113  -14.0175   23.7942 O   0  0  0  0  0  0  0  0  0  0  0  0
    8.6933  -15.9463   24.2288 N   0  0  0  0  0  0  0  0  0  0  0  0
    9.1042  -16.0331   25.6248 C   0  0  1  0  0  0  0  0  0  0  0  0
    8.0016  -15.7407   26.5673 C   0  0  0  0  0  0  0  0  0  0  0  0
    7.6796  -14.3065   26.5659 C   0  0  0  0  0  0  0  0  0  0  0  0
    6.4297  -13.7928   26.3142 C   0  0  0  0  0  0  0  0  0  0  0  0
    6.1467  -12.4374   26.3187 C   0  0  0  0  0  0  0  0  0  0  0  0
    7.1960  -11.5787   26.5940 C   0  0  0  0  0  0  0  0  0  0  0  0
    8.4603  -12.0379   26.8515 C   0  0  0  0  0  0  0  0  0  0  0  0
    8.6969  -13.3877   26.8370 C   0  0  0  0  0  0  0  0  0  0  0  0
    9.8522  -17.2713   25.8274 C   0  0  0  0  0  0  0  0  0  0  0  0
   10.3361  -17.6031   27.0760 O   0  0  0  0  0  0  0  0  0  0  0  0
   10.0723  -18.0576   24.8887 O   0  0  0  0  0  0  0  0  0  0  0  0
  2  1  1  0
  3  2  2  0
  4  2  1  0
  5  6  1  0
  5  4  1  0
  6  8  1  0
  6  7  1  1
  8  9  2  0
 10 11  1  0
 10  8  1  0
 11 12  1  1
 13 12  1  0
 13 14  1  0
 15 14  1  0
 16 15  1  0
 17 18  2  0
 17 11  1  0
 19 17  1  0
 20 19  1  0
 20 21  1  1
 21 22  1  0
 22 23  2  0
 23 24  1  0
 25 24  2  0
 26 25  1  0
 27 26  2  0
 27 22  1  0
 28 20  1  0
 29 28  1  0
 30 28  2  0
M  END
$$$$
