QKF.pdb
     RDKit          3D

 30 30  0  0  1  0  0  0  0  0999 V2000
    7.6111  -12.2224   17.0537 N   0  0  0  0  0  0  0  0  0  0  0  0
    7.5338  -13.6486   16.9535 C   0  0  0  0  0  0  0  0  0  0  0  0
    6.9227  -14.0989   15.9523 O   0  0  0  0  0  0  0  0  0  0  0  0
    8.1525  -14.4808   17.9913 C   0  0  0  0  0  0  0  0  0  0  0  0
    8.7926  -13.7227   19.1056 C   0  0  0  0  0  0  0  0  0  0  0  0
    9.4670  -14.5677   20.1375 C   0  0  2  0  0  0  0  0  0  0  0  0
   10.1419  -15.7074   19.5610 N   0  0  0  0  0  0  0  0  0  0  0  0
    8.4990  -15.0147   21.1976 C   0  0  0  0  0  0  0  0  0  0  0  0
    7.8033  -14.1322   21.7814 O   0  0  0  0  0  0  0  0  0  0  0  0
    8.3596  -16.3587   21.5393 N   0  0  0  0  0  0  0  0  0  0  0  0
    7.3706  -16.7418   22.5810 C   0  0  1  0  0  0  0  0  0  0  0  0
    6.9685  -18.1518   22.3268 C   0  0  0  0  0  0  0  0  0  0  0  0
    7.3460  -18.7653   21.0255 C   0  0  0  0  0  0  0  0  0  0  0  0
    6.7933  -20.1810   20.8745 C   0  0  0  0  0  0  0  0  0  0  0  0
    7.2804  -20.7136   19.5403 C   0  0  0  0  0  0  0  0  0  0  0  0
    6.7577  -22.0680   19.4164 N   0  0  0  0  0  0  0  0  0  0  0  0
    8.0591  -16.6607   23.9052 C   0  0  0  0  0  0  0  0  0  0  0  0
    9.3252  -16.8356   23.9316 O   0  0  0  0  0  0  0  0  0  0  0  0
    7.3682  -16.3979   25.1024 N   0  0  0  0  0  0  0  0  0  0  0  0
    8.0334  -16.2601   26.3923 C   0  0  1  0  0  0  0  0  0  0  0  0
    7.2977  -15.3797   27.3267 C   0  0  0  0  0  0  0  0  0  0  0  0
    7.1552  -14.0276   26.7679 C   0  0  0  0  0  0  0  0  0  0  0  0
    8.1743  -13.3237   26.1717 C   0  0  0  0  0  0  0  0  0  0  0  0
    8.0189  -12.0505   25.6501 C   0  0  0  0  0  0  0  0  0  0  0  0
    6.7614  -11.4818   25.7483 C   0  0  0  0  0  0  0  0  0  0  0  0
    5.7118  -12.1396   26.3326 C   0  0  0  0  0  0  0  0  0  0  0  0
    5.9092  -13.3987   26.8361 C   0  0  0  0  0  0  0  0  0  0  0  0
    8.4178  -17.5836   26.8762 C   0  0  0  0  0  0  0  0  0  0  0  0
    7.8897  -18.7218   26.3026 O   0  0  0  0  0  0  0  0  0  0  0  0
    9.2270  -17.7232   27.8108 O   0  0  0  0  0  0  0  0  0  0  0  0
  2  1  1  0
  3  2  2  0
  4  2  1  0
  5  6  1  0
  5  4  1  0
  6  8  1  0
  6  7  1  6
  8  9  2  0
 10 11  1  0
 10  8  1  0
 11 12  1  6
 13 12  1  0
 13 14  1  0
 15 14  1  0
 16 15  1  0
 17 18  2  0
 17 11  1  0
 19 17  1  0
 20 19  1  0
 20 21  1  1
 21 22  1  0
 22 23  2  0
 23 24  1  0
 25 24  2  0
 26 25  1  0
 27 26  2  0
 27 22  1  0
 28 20  1  0
 29 28  1  0
 30 28  2  0
M  END
$$$$
