QKF.pdb
     RDKit          3D

 30 30  0  0  1  0  0  0  0  0999 V2000
   13.5519  -20.0015   16.1304 N   0  0  0  0  0  0  0  0  0  0  0  0
   12.5735  -20.2504   17.1457 C   0  0  0  0  0  0  0  0  0  0  0  0
   12.9955  -20.7945   18.1967 O   0  0  0  0  0  0  0  0  0  0  0  0
   11.1763  -19.8689   16.9123 C   0  0  0  0  0  0  0  0  0  0  0  0
   10.7245  -18.6551   17.6532 C   0  0  0  0  0  0  0  0  0  0  0  0
   10.4340  -18.8730   19.1030 C   0  0  2  0  0  0  0  0  0  0  0  0
    9.2797  -19.7157   19.3130 N   0  0  0  0  0  0  0  0  0  0  0  0
   10.2675  -17.5677   19.8305 C   0  0  0  0  0  0  0  0  0  0  0  0
   11.2026  -16.7173   19.7527 O   0  0  0  0  0  0  0  0  0  0  0  0
    9.1223  -17.2868   20.5735 N   0  0  0  0  0  0  0  0  0  0  0  0
    9.0407  -16.0039   21.3203 C   0  0  1  0  0  0  0  0  0  0  0  0
    7.7072  -15.4037   21.0448 C   0  0  0  0  0  0  0  0  0  0  0  0
    7.6604  -14.0373   20.4593 C   0  0  0  0  0  0  0  0  0  0  0  0
    8.0220  -14.0340   18.9755 C   0  0  0  0  0  0  0  0  0  0  0  0
    8.0103  -12.5892   18.5134 C   0  0  0  0  0  0  0  0  0  0  0  0
    8.2746  -12.6079   17.0805 N   0  0  0  0  0  0  0  0  0  0  0  0
    9.1412  -16.3251   22.7767 C   0  0  0  0  0  0  0  0  0  0  0  0
    8.5292  -17.3636   23.2026 O   0  0  0  0  0  0  0  0  0  0  0  0
    9.8798  -15.5349   23.6765 N   0  0  0  0  0  0  0  0  0  0  0  0
    9.2795  -14.8559   24.8184 C   0  0  1  0  0  0  0  0  0  0  0  0
    8.3755  -13.7539   24.4212 C   0  0  0  0  0  0  0  0  0  0  0  0
    7.7016  -13.1820   25.5956 C   0  0  0  0  0  0  0  0  0  0  0  0
    8.3523  -12.5809   26.6467 C   0  0  0  0  0  0  0  0  0  0  0  0
    7.6983  -12.0469   27.7442 C   0  0  0  0  0  0  0  0  0  0  0  0
    6.3177  -12.1373   27.7566 C   0  0  0  0  0  0  0  0  0  0  0  0
    5.6205  -12.7260   26.7353 C   0  0  0  0  0  0  0  0  0  0  0  0
    6.3073  -13.2419   25.6676 C   0  0  0  0  0  0  0  0  0  0  0  0
    8.7562  -15.8540   25.7477 C   0  0  0  0  0  0  0  0  0  0  0  0
    7.9710  -16.8933   25.2930 O   0  0  0  0  0  0  0  0  0  0  0  0
    9.0016  -15.7983   26.9661 O   0  0  0  0  0  0  0  0  0  0  0  0
  2  1  1  0
  3  2  2  0
  4  2  1  0
  5  6  1  0
  5  4  1  0
  6  8  1  0
  6  7  1  6
  8  9  2  0
 10 11  1  0
 10  8  1  0
 11 12  1  1
 13 12  1  0
 13 14  1  0
 15 14  1  0
 16 15  1  0
 17 18  2  0
 17 11  1  0
 19 17  1  0
 20 19  1  0
 20 21  1  6
 21 22  1  0
 22 23  2  0
 23 24  1  0
 25 24  2  0
 26 25  1  0
 27 26  2  0
 27 22  1  0
 28 20  1  0
 29 28  1  0
 30 28  2  0
M  END
$$$$
