QKF.pdb
     RDKit          3D

 30 30  0  0  1  0  0  0  0  0999 V2000
    7.7777  -12.7094   17.7087 N   0  0  0  0  0  0  0  0  0  0  0  0
    8.7295  -13.1295   18.6923 C   0  0  0  0  0  0  0  0  0  0  0  0
    9.2655  -12.2150   19.3671 O   0  0  0  0  0  0  0  0  0  0  0  0
    9.0184  -14.5586   18.8549 C   0  0  0  0  0  0  0  0  0  0  0  0
    8.1793  -15.4678   18.0209 C   0  0  0  0  0  0  0  0  0  0  0  0
    8.4378  -16.9261   18.2224 C   0  0  2  0  0  0  0  0  0  0  0  0
    7.5518  -17.7558   17.4393 N   0  0  0  0  0  0  0  0  0  0  0  0
    8.3563  -17.3010   19.6761 C   0  0  0  0  0  0  0  0  0  0  0  0
    7.2336  -17.2092   20.2546 O   0  0  0  0  0  0  0  0  0  0  0  0
    9.4760  -17.7391   20.3810 N   0  0  0  0  0  0  0  0  0  0  0  0
    9.3246  -18.1366   21.8055 C   0  0  1  0  0  0  0  0  0  0  0  0
   10.5093  -18.9580   22.1748 C   0  0  0  0  0  0  0  0  0  0  0  0
   10.6548  -19.3815   23.5931 C   0  0  0  0  0  0  0  0  0  0  0  0
   10.5411  -20.8957   23.7563 C   0  0  0  0  0  0  0  0  0  0  0  0
   10.6736  -21.1992   25.2367 C   0  0  0  0  0  0  0  0  0  0  0  0
   11.2633  -20.0179   25.8530 N   0  0  0  0  0  0  0  0  0  0  0  0
    9.3229  -16.8853   22.6230 C   0  0  0  0  0  0  0  0  0  0  0  0
   10.1678  -15.9743   22.3220 O   0  0  0  0  0  0  0  0  0  0  0  0
    8.4319  -16.6816   23.6927 N   0  0  0  0  0  0  0  0  0  0  0  0
    8.3901  -15.4497   24.4711 C   0  0  1  0  0  0  0  0  0  0  0  0
    7.0110  -15.0168   24.7875 C   0  0  0  0  0  0  0  0  0  0  0  0
    7.0220  -13.8263   25.6497 C   0  0  0  0  0  0  0  0  0  0  0  0
    7.2511  -13.8525   27.0048 C   0  0  0  0  0  0  0  0  0  0  0  0
    7.2583  -12.7186   27.7995 C   0  0  0  0  0  0  0  0  0  0  0  0
    7.0193  -11.5100   27.1697 C   0  0  0  0  0  0  0  0  0  0  0  0
    6.7853  -11.4281   25.8228 C   0  0  0  0  0  0  0  0  0  0  0  0
    6.7871  -12.5752   25.0732 C   0  0  0  0  0  0  0  0  0  0  0  0
    9.3346  -15.5524   25.5806 C   0  0  0  0  0  0  0  0  0  0  0  0
    9.3492  -16.6701   26.3892 O   0  0  0  0  0  0  0  0  0  0  0  0
   10.1480  -14.6438   25.8269 O   0  0  0  0  0  0  0  0  0  0  0  0
  2  1  1  0
  3  2  2  0
  4  2  1  0
  5  6  1  0
  5  4  1  0
  6  8  1  0
  6  7  1  6
  8  9  2  0
 10 11  1  0
 10  8  1  0
 11 12  1  1
 13 12  1  0
 13 14  1  0
 15 14  1  0
 16 15  1  0
 17 18  2  0
 17 11  1  0
 19 17  1  0
 20 19  1  0
 20 21  1  1
 21 22  1  0
 22 23  2  0
 23 24  1  0
 25 24  2  0
 26 25  1  0
 27 26  2  0
 27 22  1  0
 28 20  1  0
 29 28  1  0
 30 28  2  0
M  END
$$$$
