QKF.pdb
     RDKit          3D

 30 30  0  0  1  0  0  0  0  0999 V2000
    8.1347  -12.3684   17.3695 N   0  0  0  0  0  0  0  0  0  0  0  0
    7.8970  -13.6906   16.8741 C   0  0  0  0  0  0  0  0  0  0  0  0
    7.7215  -13.7918   15.6341 O   0  0  0  0  0  0  0  0  0  0  0  0
    7.8724  -14.8198   17.8104 C   0  0  0  0  0  0  0  0  0  0  0  0
    9.2115  -15.2579   18.3015 C   0  0  0  0  0  0  0  0  0  0  0  0
    9.1897  -16.4226   19.2379 C   0  0  2  0  0  0  0  0  0  0  0  0
    8.7153  -17.6305   18.6036 N   0  0  0  0  0  0  0  0  0  0  0  0
    8.3759  -16.1228   20.4661 C   0  0  0  0  0  0  0  0  0  0  0  0
    8.4779  -14.9716   20.9838 O   0  0  0  0  0  0  0  0  0  0  0  0
    7.5285  -17.0745   21.0308 N   0  0  0  0  0  0  0  0  0  0  0  0
    6.6696  -16.6873   22.1807 C   0  0  1  0  0  0  0  0  0  0  0  0
    5.6368  -17.7451   22.3507 C   0  0  0  0  0  0  0  0  0  0  0  0
    4.4965  -17.7722   21.3962 C   0  0  0  0  0  0  0  0  0  0  0  0
    3.5762  -18.9679   21.6324 C   0  0  0  0  0  0  0  0  0  0  0  0
    2.4755  -18.9003   20.5909 C   0  0  0  0  0  0  0  0  0  0  0  0
    2.3617  -20.2350   20.0177 N   0  0  0  0  0  0  0  0  0  0  0  0
    7.5374  -16.6509   23.3972 C   0  0  0  0  0  0  0  0  0  0  0  0
    8.5560  -17.4229   23.4272 O   0  0  0  0  0  0  0  0  0  0  0  0
    7.2740  -15.8041   24.4894 N   0  0  0  0  0  0  0  0  0  0  0  0
    8.1373  -15.7237   25.6614 C   0  0  1  0  0  0  0  0  0  0  0  0
    7.9964  -14.4446   26.3919 C   0  0  0  0  0  0  0  0  0  0  0  0
    8.8841  -14.4113   27.5630 C   0  0  0  0  0  0  0  0  0  0  0  0
    8.5518  -14.9052   28.8021 C   0  0  0  0  0  0  0  0  0  0  0  0
    9.4036  -14.8650   29.8930 C   0  0  0  0  0  0  0  0  0  0  0  0
   10.6476  -14.2922   29.6965 C   0  0  0  0  0  0  0  0  0  0  0  0
   11.0288  -13.7853   28.4826 C   0  0  0  0  0  0  0  0  0  0  0  0
   10.1547  -13.8454   27.4290 C   0  0  0  0  0  0  0  0  0  0  0  0
    8.0119  -16.9572   26.4337 C   0  0  0  0  0  0  0  0  0  0  0  0
    9.1342  -17.6185   26.8879 O   0  0  0  0  0  0  0  0  0  0  0  0
    6.8991  -17.4435   26.7039 O   0  0  0  0  0  0  0  0  0  0  0  0
  2  1  1  0
  3  2  2  0
  4  2  1  0
  5  6  1  0
  5  4  1  0
  6  8  1  0
  6  7  1  6
  8  9  2  0
 10 11  1  0
 10  8  1  0
 11 12  1  1
 13 12  1  0
 13 14  1  0
 15 14  1  0
 16 15  1  0
 17 18  2  0
 17 11  1  0
 19 17  1  0
 20 19  1  0
 20 21  1  1
 21 22  1  0
 22 23  2  0
 23 24  1  0
 25 24  2  0
 26 25  1  0
 27 26  2  0
 27 22  1  0
 28 20  1  0
 29 28  1  0
 30 28  2  0
M  END
$$$$
