QKF.pdb
     RDKit          3D

 30 30  0  0  1  0  0  0  0  0999 V2000
    9.8486  -12.2972   18.3626 N   0  0  0  0  0  0  0  0  0  0  0  0
    8.4978  -12.6942   18.6230 C   0  0  0  0  0  0  0  0  0  0  0  0
    7.6522  -11.7668   18.6834 O   0  0  0  0  0  0  0  0  0  0  0  0
    8.1834  -14.1163   18.7993 C   0  0  0  0  0  0  0  0  0  0  0  0
    9.3563  -15.0344   18.7116 C   0  0  0  0  0  0  0  0  0  0  0  0
    9.0253  -16.4897   18.7909 C   0  0  2  0  0  0  0  0  0  0  0  0
    8.0722  -16.8935   17.7834 N   0  0  0  0  0  0  0  0  0  0  0  0
    8.5293  -16.8648   20.1599 C   0  0  0  0  0  0  0  0  0  0  0  0
    7.3011  -17.1417   20.2949 O   0  0  0  0  0  0  0  0  0  0  0  0
    9.3849  -16.9111   21.2591 N   0  0  0  0  0  0  0  0  0  0  0  0
    8.8518  -17.3579   22.5729 C   0  0  1  0  0  0  0  0  0  0  0  0
    9.0876  -18.8231   22.6826 C   0  0  0  0  0  0  0  0  0  0  0  0
   10.4891  -19.3155   22.6095 C   0  0  0  0  0  0  0  0  0  0  0  0
   10.5699  -20.8380   22.6998 C   0  0  0  0  0  0  0  0  0  0  0  0
   12.0384  -21.2141   22.6444 C   0  0  0  0  0  0  0  0  0  0  0  0
   12.1071  -22.6558   22.8438 N   0  0  0  0  0  0  0  0  0  0  0  0
    9.6327  -16.6558   23.6366 C   0  0  0  0  0  0  0  0  0  0  0  0
   10.8817  -16.4705   23.4363 O   0  0  0  0  0  0  0  0  0  0  0  0
    9.0439  -16.1968   24.8292 N   0  0  0  0  0  0  0  0  0  0  0  0
    9.7999  -15.5438   25.8910 C   0  0  1  0  0  0  0  0  0  0  0  0
    9.7316  -14.0674   25.8201 C   0  0  0  0  0  0  0  0  0  0  0  0
    8.3534  -13.5979   26.0217 C   0  0  0  0  0  0  0  0  0  0  0  0
    7.2600  -14.0923   25.3513 C   0  0  0  0  0  0  0  0  0  0  0  0
    5.9687  -13.6366   25.5568 C   0  0  0  0  0  0  0  0  0  0  0  0
    5.8001  -12.6306   26.4916 C   0  0  0  0  0  0  0  0  0  0  0  0
    6.8552  -12.1029   27.1871 C   0  0  0  0  0  0  0  0  0  0  0  0
    8.1172  -12.5830   26.9529 C   0  0  0  0  0  0  0  0  0  0  0  0
    9.4716  -16.1722   27.1681 C   0  0  0  0  0  0  0  0  0  0  0  0
   10.1335  -15.8057   28.3217 O   0  0  0  0  0  0  0  0  0  0  0  0
    8.5922  -17.0480   27.2536 O   0  0  0  0  0  0  0  0  0  0  0  0
  2  1  1  0
  3  2  2  0
  4  2  1  0
  5  6  1  0
  5  4  1  0
  6  8  1  0
  6  7  1  6
  8  9  2  0
 10 11  1  0
 10  8  1  0
 11 12  1  1
 13 12  1  0
 13 14  1  0
 15 14  1  0
 16 15  1  0
 17 18  2  0
 17 11  1  0
 19 17  1  0
 20 19  1  0
 20 21  1  1
 21 22  1  0
 22 23  2  0
 23 24  1  0
 25 24  2  0
 26 25  1  0
 27 26  2  0
 27 22  1  0
 28 20  1  0
 29 28  1  0
 30 28  2  0
M  END
$$$$
