QKF.pdb
     RDKit          3D

 30 30  0  0  1  0  0  0  0  0999 V2000
    7.9308  -12.7300   18.6500 N   0  0  0  0  0  0  0  0  0  0  0  0
    8.3557  -13.6328   17.6232 C   0  0  0  0  0  0  0  0  0  0  0  0
    8.7999  -13.1044   16.5732 O   0  0  0  0  0  0  0  0  0  0  0  0
    8.2537  -15.0795   17.8448 C   0  0  0  0  0  0  0  0  0  0  0  0
    7.6932  -15.4739   19.1701 C   0  0  0  0  0  0  0  0  0  0  0  0
    7.5860  -16.9474   19.3962 C   0  0  2  0  0  0  0  0  0  0  0  0
    6.8169  -17.6081   18.3673 N   0  0  0  0  0  0  0  0  0  0  0  0
    7.0152  -17.2532   20.7531 C   0  0  0  0  0  0  0  0  0  0  0  0
    5.8616  -16.8099   21.0294 O   0  0  0  0  0  0  0  0  0  0  0  0
    7.7232  -18.0022   21.6913 N   0  0  0  0  0  0  0  0  0  0  0  0
    7.0922  -18.3020   23.0035 C   0  0  1  0  0  0  0  0  0  0  0  0
    7.3832  -19.7240   23.3317 C   0  0  0  0  0  0  0  0  0  0  0  0
    6.9335  -20.2459   24.6498 C   0  0  0  0  0  0  0  0  0  0  0  0
    7.2861  -21.7202   24.8359 C   0  0  0  0  0  0  0  0  0  0  0  0
    6.7747  -22.1354   26.2023 C   0  0  0  0  0  0  0  0  0  0  0  0
    7.2138  -23.5089   26.4119 N   0  0  0  0  0  0  0  0  0  0  0  0
    7.7390  -17.4221   24.0242 C   0  0  0  0  0  0  0  0  0  0  0  0
    8.9820  -17.1583   23.8834 O   0  0  0  0  0  0  0  0  0  0  0  0
    7.0322  -16.8814   25.1140 N   0  0  0  0  0  0  0  0  0  0  0  0
    7.6372  -15.9811   26.0881 C   0  0  1  0  0  0  0  0  0  0  0  0
    6.6385  -15.1667   26.8152 C   0  0  0  0  0  0  0  0  0  0  0  0
    6.7469  -13.7496   26.4398 C   0  0  0  0  0  0  0  0  0  0  0  0
    6.3414  -12.7039   27.2345 C   0  0  0  0  0  0  0  0  0  0  0  0
    6.4534  -11.3748   26.8625 C   0  0  0  0  0  0  0  0  0  0  0  0
    7.0058  -11.1156   25.6208 C   0  0  0  0  0  0  0  0  0  0  0  0
    7.4258  -12.1202   24.7901 C   0  0  0  0  0  0  0  0  0  0  0  0
    7.2966  -13.4222   25.1975 C   0  0  0  0  0  0  0  0  0  0  0  0
    8.6100  -16.7233   26.8860 C   0  0  0  0  0  0  0  0  0  0  0  0
    8.4356  -18.0695   27.1321 O   0  0  0  0  0  0  0  0  0  0  0  0
    9.6168  -16.1691   27.3623 O   0  0  0  0  0  0  0  0  0  0  0  0
  2  1  1  0
  3  2  2  0
  4  2  1  0
  5  6  1  0
  5  4  1  0
  6  8  1  0
  6  7  1  6
  8  9  2  0
 10 11  1  0
 10  8  1  0
 11 12  1  1
 13 12  1  0
 13 14  1  0
 15 14  1  0
 16 15  1  0
 17 18  2  0
 17 11  1  0
 19 17  1  0
 20 19  1  0
 20 21  1  1
 21 22  1  0
 22 23  2  0
 23 24  1  0
 25 24  2  0
 26 25  1  0
 27 26  2  0
 27 22  1  0
 28 20  1  0
 29 28  1  0
 30 28  2  0
M  END
$$$$
