QKF.pdb
     RDKit          3D

 30 30  0  0  1  0  0  0  0  0999 V2000
    8.7629  -19.9991   16.3200 N   0  0  0  0  0  0  0  0  0  0  0  0
    9.7285  -19.8331   17.3641 C   0  0  0  0  0  0  0  0  0  0  0  0
   10.9015  -20.1928   17.0930 O   0  0  0  0  0  0  0  0  0  0  0  0
    9.3103  -19.2698   18.6526 C   0  0  0  0  0  0  0  0  0  0  0  0
   10.4012  -19.1304   19.6609 C   0  0  0  0  0  0  0  0  0  0  0  0
    9.9385  -18.8875   21.0611 C   0  0  2  0  0  0  0  0  0  0  0  0
    8.5290  -19.1546   21.2296 N   0  0  0  0  0  0  0  0  0  0  0  0
   10.2630  -17.4898   21.5104 C   0  0  0  0  0  0  0  0  0  0  0  0
   11.4543  -17.0813   21.3777 O   0  0  0  0  0  0  0  0  0  0  0  0
    9.2912  -16.6552   22.0595 N   0  0  0  0  0  0  0  0  0  0  0  0
    9.6743  -15.2860   22.4935 C   0  0  1  0  0  0  0  0  0  0  0  0
    8.7062  -14.3315   21.8883 C   0  0  0  0  0  0  0  0  0  0  0  0
    8.6440  -14.2415   20.4050 C   0  0  0  0  0  0  0  0  0  0  0  0
    7.6133  -13.2181   19.9331 C   0  0  0  0  0  0  0  0  0  0  0  0
    7.5844  -13.2756   18.4175 C   0  0  0  0  0  0  0  0  0  0  0  0
    6.6254  -12.2693   17.9806 N   0  0  0  0  0  0  0  0  0  0  0  0
    9.5464  -15.2345   23.9819 C   0  0  0  0  0  0  0  0  0  0  0  0
    9.9644  -14.1855   24.5812 O   0  0  0  0  0  0  0  0  0  0  0  0
    8.9854  -16.2860   24.7299 N   0  0  0  0  0  0  0  0  0  0  0  0
    9.0122  -16.3298   26.1868 C   0  0  1  0  0  0  0  0  0  0  0  0
    7.7323  -15.9077   26.7977 C   0  0  0  0  0  0  0  0  0  0  0  0
    7.6227  -14.4421   26.8209 C   0  0  0  0  0  0  0  0  0  0  0  0
    8.5716  -13.6020   27.3534 C   0  0  0  0  0  0  0  0  0  0  0  0
    8.4497  -12.2228   27.3644 C   0  0  0  0  0  0  0  0  0  0  0  0
    7.3027  -11.6902   26.8034 C   0  0  0  0  0  0  0  0  0  0  0  0
    6.3265  -12.4820   26.2595 C   0  0  0  0  0  0  0  0  0  0  0  0
    6.4872  -13.8428   26.2694 C   0  0  0  0  0  0  0  0  0  0  0  0
    9.5740  -17.6077   26.6168 C   0  0  0  0  0  0  0  0  0  0  0  0
   10.0297  -18.5221   25.6897 O   0  0  0  0  0  0  0  0  0  0  0  0
    9.6592  -17.9069   27.8214 O   0  0  0  0  0  0  0  0  0  0  0  0
  2  1  1  0
  3  2  2  0
  4  2  1  0
  5  6  1  0
  5  4  1  0
  6  8  1  0
  6  7  1  6
  8  9  2  0
 10 11  1  0
 10  8  1  0
 11 12  1  6
 13 12  1  0
 13 14  1  0
 15 14  1  0
 16 15  1  0
 17 18  2  0
 17 11  1  0
 19 17  1  0
 20 19  1  0
 20 21  1  1
 21 22  1  0
 22 23  2  0
 23 24  1  0
 25 24  2  0
 26 25  1  0
 27 26  2  0
 27 22  1  0
 28 20  1  0
 29 28  1  0
 30 28  2  0
M  END
$$$$
