VND.pdb
     RDKit          3D

 24 23  0  0  1  0  0  0  0  0999 V2000
    9.1950  -12.5108   19.3119 C   0  0  0  0  0  0  0  0  0  0  0  0
    8.0997  -13.5549   19.4967 C   0  0  2  0  0  0  0  0  0  0  0  0
    7.0657  -13.1135   20.4743 C   0  0  0  0  0  0  0  0  0  0  0  0
    8.6970  -14.9010   19.7494 C   0  0  2  0  0  0  0  0  0  0  0  0
    7.7702  -15.9688   19.5170 N   0  0  0  0  0  0  0  0  0  0  0  0
    9.3373  -15.0478   21.0713 C   0  0  0  0  0  0  0  0  0  0  0  0
   10.3305  -14.3693   21.4371 O   0  0  0  0  0  0  0  0  0  0  0  0
    7.1645  -14.5658   24.7392 N   0  0  0  0  0  0  0  0  0  0  0  0
    7.1566  -15.8854   24.2786 C   0  0  0  0  0  0  0  0  0  0  0  0
    6.0754  -16.3945   23.8171 O   0  0  0  0  0  0  0  0  0  0  0  0
    8.3845  -16.7014   24.3166 C   0  0  0  0  0  0  0  0  0  0  0  0
    9.4004  -16.2284   23.2889 C   0  0  2  0  0  0  0  0  0  0  0  0
    8.8211  -15.9962   21.9873 N   0  0  0  0  0  0  0  0  0  0  0  0
   10.5286  -17.2186   23.1950 C   0  0  0  0  0  0  0  0  0  0  0  0
   10.6588  -17.9390   22.1676 O   0  0  0  0  0  0  0  0  0  0  0  0
   11.4680  -17.3689   24.2460 N   0  0  0  0  0  0  0  0  0  0  0  0
   12.8556  -17.7934   23.9960 C   0  0  1  0  0  0  0  0  0  0  0  0
   13.4644  -16.7262   23.1133 C   0  0  0  0  0  0  0  0  0  0  0  0
   14.7228  -17.1202   22.4734 C   0  0  0  0  0  0  0  0  0  0  0  0
   14.7575  -18.1125   21.7038 O   0  0  0  0  0  0  0  0  0  0  0  0
   13.5898  -17.8765   25.2904 C   0  0  0  0  0  0  0  0  0  0  0  0
   13.5143  -16.8124   26.2097 O   0  0  0  0  0  0  0  0  0  0  0  0
   15.9443  -16.4519   22.6582 O   0  0  0  0  0  0  0  0  0  0  0  0
   14.2827  -18.8682   25.6016 O   0  0  0  0  0  0  0  0  0  0  0  0
  2  1  1  1
  2  3  1  0
  4  2  1  0
  4  6  1  0
  4  5  1  1
  6 13  1  0
  6  7  2  0
  9  8  1  0
  9 11  1  0
 10  9  2  0
 12 11  1  1
 12 14  1  0
 13 12  1  0
 14 16  1  0
 14 15  2  0
 16 17  1  0
 17 21  1  0
 17 18  1  6
 18 19  1  0
 19 23  1  0
 20 19  2  0
 21 22  1  0
 24 21  2  0
M  END
$$$$
