VND.pdb
     RDKit          3D

 24 23  0  0  1  0  0  0  0  0999 V2000
    9.7029  -20.3076   16.8708 C   0  0  0  0  0  0  0  0  0  0  0  0
   10.1586  -19.3005   17.9206 C   0  0  2  0  0  0  0  0  0  0  0  0
   10.5850  -19.9644   19.1843 C   0  0  0  0  0  0  0  0  0  0  0  0
    9.1498  -18.2086   18.0712 C   0  0  2  0  0  0  0  0  0  0  0  0
    8.7941  -17.6091   16.8193 N   0  0  0  0  0  0  0  0  0  0  0  0
    9.5121  -17.1729   19.0586 C   0  0  0  0  0  0  0  0  0  0  0  0
   10.4192  -16.3236   18.8677 O   0  0  0  0  0  0  0  0  0  0  0  0
    5.8569  -15.2000   21.1474 N   0  0  0  0  0  0  0  0  0  0  0  0
    7.1226  -14.8479   21.6246 C   0  0  0  0  0  0  0  0  0  0  0  0
    7.5314  -13.6384   21.5189 O   0  0  0  0  0  0  0  0  0  0  0  0
    7.9959  -15.8568   22.2526 C   0  0  0  0  0  0  0  0  0  0  0  0
    9.1711  -16.2128   21.3559 C   0  0  2  0  0  0  0  0  0  0  0  0
    8.8140  -17.1177   20.2893 N   0  0  0  0  0  0  0  0  0  0  0  0
   10.2874  -16.7879   22.1837 C   0  0  0  0  0  0  0  0  0  0  0  0
   10.1623  -17.9232   22.7194 O   0  0  0  0  0  0  0  0  0  0  0  0
   11.4988  -16.0792   22.3833 N   0  0  0  0  0  0  0  0  0  0  0  0
   12.5962  -16.6260   23.1988 C   0  0  1  0  0  0  0  0  0  0  0  0
   13.7080  -15.6017   23.1402 C   0  0  0  0  0  0  0  0  0  0  0  0
   15.0535  -16.1651   23.2843 C   0  0  0  0  0  0  0  0  0  0  0  0
   15.2041  -17.3865   23.5365 O   0  0  0  0  0  0  0  0  0  0  0  0
   12.1294  -16.8047   24.6029 C   0  0  0  0  0  0  0  0  0  0  0  0
   11.0820  -16.0064   25.1013 O   0  0  0  0  0  0  0  0  0  0  0  0
   16.2377  -15.4203   23.1589 O   0  0  0  0  0  0  0  0  0  0  0  0
   12.6367  -17.6483   25.3719 O   0  0  0  0  0  0  0  0  0  0  0  0
  2  1  1  6
  2  3  1  0
  4  2  1  0
  4  6  1  0
  4  5  1  6
  6 13  1  0
  6  7  2  0
  9  8  1  0
  9 11  1  0
 10  9  2  0
 12 11  1  1
 12 14  1  0
 13 12  1  0
 14 16  1  0
 14 15  2  0
 16 17  1  0
 17 21  1  0
 17 18  1  1
 18 19  1  0
 19 23  1  0
 20 19  2  0
 21 22  1  0
 24 21  2  0
M  END
$$$$
