VND.pdb
     RDKit          3D

 24 23  0  0  1  0  0  0  0  0999 V2000
    7.0740  -13.3629   20.5645 C   0  0  0  0  0  0  0  0  0  0  0  0
    8.3693  -13.0618   19.8190 C   0  0  2  0  0  0  0  0  0  0  0  0
    8.1328  -12.2482   18.5936 C   0  0  0  0  0  0  0  0  0  0  0  0
    9.1631  -14.3124   19.6228 C   0  0  2  0  0  0  0  0  0  0  0  0
    8.6727  -15.1136   18.5409 N   0  0  0  0  0  0  0  0  0  0  0  0
    9.3279  -15.1297   20.8409 C   0  0  0  0  0  0  0  0  0  0  0  0
    9.6502  -14.6491   21.9570 O   0  0  0  0  0  0  0  0  0  0  0  0
    6.4522  -18.6672   20.1918 N   0  0  0  0  0  0  0  0  0  0  0  0
    6.9730  -18.3113   21.4392 C   0  0  0  0  0  0  0  0  0  0  0  0
    6.2384  -17.6889   22.2841 O   0  0  0  0  0  0  0  0  0  0  0  0
    8.3641  -18.6472   21.7956 C   0  0  0  0  0  0  0  0  0  0  0  0
    9.2262  -17.4003   21.9132 C   0  0  2  0  0  0  0  0  0  0  0  0
    9.1172  -16.5280   20.7682 N   0  0  0  0  0  0  0  0  0  0  0  0
   10.6600  -17.7923   22.1430 C   0  0  0  0  0  0  0  0  0  0  0  0
   11.3074  -18.3928   21.2420 O   0  0  0  0  0  0  0  0  0  0  0  0
   11.3180  -17.5012   23.3643 N   0  0  0  0  0  0  0  0  0  0  0  0
   12.7722  -17.6682   23.5250 C   0  0  1  0  0  0  0  0  0  0  0  0
   13.4117  -16.6559   22.6004 C   0  0  0  0  0  0  0  0  0  0  0  0
   14.8720  -16.5840   22.7045 C   0  0  0  0  0  0  0  0  0  0  0  0
   15.5796  -17.5634   22.3607 O   0  0  0  0  0  0  0  0  0  0  0  0
   13.1502  -17.3897   24.9396 C   0  0  0  0  0  0  0  0  0  0  0  0
   12.1704  -16.9642   25.8571 O   0  0  0  0  0  0  0  0  0  0  0  0
   15.5744  -15.4634   23.1774 O   0  0  0  0  0  0  0  0  0  0  0  0
   14.3211  -17.5197   25.3549 O   0  0  0  0  0  0  0  0  0  0  0  0
  2  1  1  6
  2  3  1  0
  4  2  1  0
  4  6  1  0
  4  5  1  6
  6 13  1  0
  6  7  2  0
  9  8  1  0
  9 11  1  0
 10  9  2  0
 12 11  1  6
 12 14  1  0
 13 12  1  0
 14 16  1  0
 14 15  2  0
 16 17  1  0
 17 21  1  0
 17 18  1  6
 18 19  1  0
 19 23  1  0
 20 19  2  0
 21 22  1  0
 24 21  2  0
M  END
$$$$
