VND.pdb
     RDKit          3D

 24 23  0  0  1  0  0  0  0  0999 V2000
    6.6342  -12.9516   20.0726 C   0  0  0  0  0  0  0  0  0  0  0  0
    7.7272  -12.7528   19.0285 C   0  0  2  0  0  0  0  0  0  0  0  0
    7.3787  -13.3874   17.7265 C   0  0  0  0  0  0  0  0  0  0  0  0
    9.0617  -13.1201   19.5913 C   0  0  2  0  0  0  0  0  0  0  0  0
   10.1483  -12.6826   18.7661 N   0  0  0  0  0  0  0  0  0  0  0  0
    9.2102  -14.5489   19.9308 C   0  0  0  0  0  0  0  0  0  0  0  0
    8.5367  -15.1200   20.8258 O   0  0  0  0  0  0  0  0  0  0  0  0
    9.5758  -19.8405   17.8295 N   0  0  0  0  0  0  0  0  0  0  0  0
   10.5469  -18.9715   18.3349 C   0  0  0  0  0  0  0  0  0  0  0  0
   11.5358  -19.4375   19.0027 O   0  0  0  0  0  0  0  0  0  0  0  0
   10.4465  -17.5181   18.1056 C   0  0  0  0  0  0  0  0  0  0  0  0
   10.2932  -16.7567   19.4127 C   0  0  2  0  0  0  0  0  0  0  0  0
   10.1544  -15.3323   19.2239 N   0  0  0  0  0  0  0  0  0  0  0  0
   11.4568  -17.0578   20.3170 C   0  0  0  0  0  0  0  0  0  0  0  0
   11.7079  -18.2467   20.6559 O   0  0  0  0  0  0  0  0  0  0  0  0
   12.2958  -16.0263   20.8085 N   0  0  0  0  0  0  0  0  0  0  0  0
   13.4337  -16.3058   21.7002 C   0  0  1  0  0  0  0  0  0  0  0  0
   14.3905  -15.1465   21.5293 C   0  0  0  0  0  0  0  0  0  0  0  0
   14.9540  -15.0250   20.1816 C   0  0  0  0  0  0  0  0  0  0  0  0
   15.2096  -13.8921   19.7026 O   0  0  0  0  0  0  0  0  0  0  0  0
   12.9536  -16.3783   23.1093 C   0  0  0  0  0  0  0  0  0  0  0  0
   13.8425  -16.7523   24.1354 O   0  0  0  0  0  0  0  0  0  0  0  0
   15.2432  -16.1168   19.3467 O   0  0  0  0  0  0  0  0  0  0  0  0
   11.7739  -16.1164   23.4261 O   0  0  0  0  0  0  0  0  0  0  0  0
  2  1  1  1
  2  3  1  0
  4  2  1  0
  4  6  1  0
  4  5  1  6
  6 13  1  0
  6  7  2  0
  9  8  1  0
  9 11  1  0
 10  9  2  0
 12 11  1  6
 12 14  1  0
 13 12  1  0
 14 16  1  0
 14 15  2  0
 16 17  1  0
 17 21  1  0
 17 18  1  1
 18 19  1  0
 19 23  1  0
 20 19  2  0
 21 22  1  0
 24 21  2  0
M  END
$$$$
