VND.pdb
     RDKit          3D

 24 23  0  0  1  0  0  0  0  0999 V2000
    7.1187  -12.6549   20.6159 C   0  0  0  0  0  0  0  0  0  0  0  0
    8.2577  -13.0292   19.6743 C   0  0  2  0  0  0  0  0  0  0  0  0
    7.9004  -12.8009   18.2461 C   0  0  0  0  0  0  0  0  0  0  0  0
    8.7814  -14.3899   20.0013 C   0  0  2  0  0  0  0  0  0  0  0  0
    7.9777  -15.4387   19.4471 N   0  0  0  0  0  0  0  0  0  0  0  0
    9.0213  -14.6239   21.4389 C   0  0  0  0  0  0  0  0  0  0  0  0
    9.7160  -13.8606   22.1566 O   0  0  0  0  0  0  0  0  0  0  0  0
    8.6155  -16.3833   26.2018 N   0  0  0  0  0  0  0  0  0  0  0  0
    7.4517  -16.7884   25.5420 C   0  0  0  0  0  0  0  0  0  0  0  0
    6.5008  -17.3365   26.2027 O   0  0  0  0  0  0  0  0  0  0  0  0
    7.3050  -16.5899   24.0881 C   0  0  0  0  0  0  0  0  0  0  0  0
    8.5791  -16.0371   23.4693 C   0  0  2  0  0  0  0  0  0  0  0  0
    8.4484  -15.7609   22.0585 N   0  0  0  0  0  0  0  0  0  0  0  0
    9.7191  -16.9865   23.7174 C   0  0  0  0  0  0  0  0  0  0  0  0
    9.6374  -18.1894   23.3460 O   0  0  0  0  0  0  0  0  0  0  0  0
   10.9049  -16.5619   24.3677 N   0  0  0  0  0  0  0  0  0  0  0  0
   12.0647  -17.4539   24.5338 C   0  0  1  0  0  0  0  0  0  0  0  0
   13.2779  -16.5519   24.5923 C   0  0  0  0  0  0  0  0  0  0  0  0
   14.3741  -16.9599   23.7089 C   0  0  0  0  0  0  0  0  0  0  0  0
   15.4132  -16.2589   23.6251 O   0  0  0  0  0  0  0  0  0  0  0  0
   11.9249  -18.2179   25.8059 C   0  0  0  0  0  0  0  0  0  0  0  0
   12.7408  -19.3406   26.0436 O   0  0  0  0  0  0  0  0  0  0  0  0
   14.3574  -18.1184   22.9149 O   0  0  0  0  0  0  0  0  0  0  0  0
   11.0994  -17.8994   26.6876 O   0  0  0  0  0  0  0  0  0  0  0  0
  2  1  1  1
  2  3  1  0
  4  2  1  0
  4  6  1  0
  4  5  1  1
  6 13  1  0
  6  7  2  0
  9  8  1  0
  9 11  1  0
 10  9  2  0
 12 11  1  6
 12 14  1  0
 13 12  1  0
 14 16  1  0
 14 15  2  0
 16 17  1  0
 17 21  1  0
 17 18  1  1
 18 19  1  0
 19 23  1  0
 20 19  2  0
 21 22  1  0
 24 21  2  0
M  END
$$$$
