VND.pdb
     RDKit          3D

 24 23  0  0  1  0  0  0  0  0999 V2000
-9370.013717147.0820-13886.9775 C   0  0  0  0  0  0  0  0  0  0  0  0
-9369.746117148.0176-13885.7871 C   0  0  2  0  0  0  0  0  0  0  0  0
-9370.289117147.4590-13884.5156 C   0  0  0  0  0  0  0  0  0  0  0  0
-9370.159217149.4180-13886.1094 C   0  0  2  0  0  0  0  0  0  0  0  0
-9370.169917150.2637-13884.9629 N   0  0  0  0  0  0  0  0  0  0  0  0
-9371.428717149.5234-13886.8564 C   0  0  0  0  0  0  0  0  0  0  0  0
-9372.476617148.9062-13886.5312 O   0  0  0  0  0  0  0  0  0  0  0  0
-9372.780317147.3770-13889.8047 N   0  0  0  0  0  0  0  0  0  0  0  0
-9371.765617147.9922-13890.5557 C   0  0  0  0  0  0  0  0  0  0  0  0
-9371.179717147.3438-13891.4863 O   0  0  0  0  0  0  0  0  0  0  0  0
-9371.362317149.3809-13890.2715 C   0  0  0  0  0  0  0  0  0  0  0  0
-9372.236317150.0117-13889.1875 C   0  0  2  0  0  0  0  0  0  0  0  0
-9371.486317150.3535-13887.9990 N   0  0  0  0  0  0  0  0  0  0  0  0
-9373.368217149.0859-13888.8525 C   0  0  0  0  0  0  0  0  0  0  0  0
-9373.481417147.9805-13889.4453 O   0  0  0  0  0  0  0  0  0  0  0  0
-9374.332017149.4160-13887.8633 N   0  0  0  0  0  0  0  0  0  0  0  0
-9375.652317149.9512-13888.2217 C   0  0  1  0  0  0  0  0  0  0  0  0
-9376.100617150.7734-13887.0371 C   0  0  0  0  0  0  0  0  0  0  0  0
-9376.717817149.9883-13885.9561 C   0  0  0  0  0  0  0  0  0  0  0  0
-9377.040017148.7949-13886.1494 O   0  0  0  0  0  0  0  0  0  0  0  0
-9375.537117150.8105-13889.4307 C   0  0  0  0  0  0  0  0  0  0  0  0
-9376.165017152.0664-13889.4688 O   0  0  0  0  0  0  0  0  0  0  0  0
-9376.971717150.4941-13884.6689 O   0  0  0  0  0  0  0  0  0  0  0  0
-9374.887717150.4609-13890.4336 O   0  0  0  0  0  0  0  0  0  0  0  0
  2  1  1  6
  2  3  1  0
  4  2  1  0
  4  6  1  0
  4  5  1  1
  6 13  1  0
  6  7  2  0
  9  8  1  0
  9 11  1  0
 10  9  2  0
 12 11  1  6
 12 14  1  0
 13 12  1  0
 14 16  1  0
 14 15  2  0
 16 17  1  0
 17 21  1  0
 17 18  1  1
 18 19  1  0
 19 23  1  0
 20 19  2  0
 21 22  1  0
 24 21  2  0
M  END
$$$$
