VND.pdb
     RDKit          3D

 24 23  0  0  1  0  0  0  0  0999 V2000
    6.7156  -12.8547   20.8008 C   0  0  0  0  0  0  0  0  0  0  0  0
    8.0144  -12.9460   20.0078 C   0  0  2  0  0  0  0  0  0  0  0  0
    7.8317  -12.5371   18.5869 C   0  0  0  0  0  0  0  0  0  0  0  0
    8.6657  -14.2737   20.2210 C   0  0  2  0  0  0  0  0  0  0  0  0
    8.0812  -15.3100   19.4226 N   0  0  0  0  0  0  0  0  0  0  0  0
    8.7520  -14.6929   21.6338 C   0  0  0  0  0  0  0  0  0  0  0  0
    9.2866  -13.9927   22.5308 O   0  0  0  0  0  0  0  0  0  0  0  0
    6.7604  -16.9484   26.2052 N   0  0  0  0  0  0  0  0  0  0  0  0
    7.2030  -17.7616   25.1581 C   0  0  0  0  0  0  0  0  0  0  0  0
    7.6987  -18.9154   25.4111 O   0  0  0  0  0  0  0  0  0  0  0  0
    7.1038  -17.3051   23.7593 C   0  0  0  0  0  0  0  0  0  0  0  0
    8.3054  -16.4629   23.3610 C   0  0  2  0  0  0  0  0  0  0  0  0
    8.2113  -15.9441   22.0172 N   0  0  0  0  0  0  0  0  0  0  0  0
    9.5672  -17.2638   23.5299 C   0  0  0  0  0  0  0  0  0  0  0  0
   10.0892  -17.8448   22.5392 O   0  0  0  0  0  0  0  0  0  0  0  0
   10.1995  -17.3873   24.7926 N   0  0  0  0  0  0  0  0  0  0  0  0
   11.6175  -17.7633   24.9206 C   0  0  1  0  0  0  0  0  0  0  0  0
   12.4016  -16.6696   24.2294 C   0  0  0  0  0  0  0  0  0  0  0  0
   13.7786  -17.0394   23.8894 C   0  0  0  0  0  0  0  0  0  0  0  0
   14.0039  -18.0376   23.1606 O   0  0  0  0  0  0  0  0  0  0  0  0
   11.9843  -17.8315   26.3635 C   0  0  0  0  0  0  0  0  0  0  0  0
   11.0027  -17.6100   27.3485 O   0  0  0  0  0  0  0  0  0  0  0  0
   14.9144  -16.3405   24.3302 O   0  0  0  0  0  0  0  0  0  0  0  0
   13.1473  -18.0815   26.7448 O   0  0  0  0  0  0  0  0  0  0  0  0
  2  1  1  6
  2  3  1  0
  4  2  1  0
  4  6  1  0
  4  5  1  6
  6 13  1  0
  6  7  2  0
  9  8  1  0
  9 11  1  0
 10  9  2  0
 12 11  1  6
 12 14  1  0
 13 12  1  0
 14 16  1  0
 14 15  2  0
 16 17  1  0
 17 21  1  0
 17 18  1  6
 18 19  1  0
 19 23  1  0
 20 19  2  0
 21 22  1  0
 24 21  2  0
M  END
$$$$
