VND.pdb
     RDKit          3D

 24 23  0  0  1  0  0  0  0  0999 V2000
    8.1731  -12.2208   20.4434 C   0  0  0  0  0  0  0  0  0  0  0  0
    8.7904  -12.6840   19.1287 C   0  0  2  0  0  0  0  0  0  0  0  0
    7.8813  -12.4511   17.9716 C   0  0  0  0  0  0  0  0  0  0  0  0
    9.3259  -14.0725   19.2623 C   0  0  2  0  0  0  0  0  0  0  0  0
    8.2975  -15.0687   19.2062 N   0  0  0  0  0  0  0  0  0  0  0  0
   10.1901  -14.2841   20.4401 C   0  0  0  0  0  0  0  0  0  0  0  0
   11.2485  -13.6375   20.6456 O   0  0  0  0  0  0  0  0  0  0  0  0
    9.4149  -17.9417   21.8896 N   0  0  0  0  0  0  0  0  0  0  0  0
    9.2490  -17.5136   23.2098 C   0  0  0  0  0  0  0  0  0  0  0  0
    8.5782  -18.2292   24.0338 O   0  0  0  0  0  0  0  0  0  0  0  0
    9.8412  -16.2428   23.6672 C   0  0  0  0  0  0  0  0  0  0  0  0
   10.6290  -15.5637   22.5581 C   0  0  2  0  0  0  0  0  0  0  0  0
    9.8251  -15.2612   21.3979 N   0  0  0  0  0  0  0  0  0  0  0  0
   11.8077  -16.4159   22.1753 C   0  0  0  0  0  0  0  0  0  0  0  0
   11.6717  -17.3514   21.3400 O   0  0  0  0  0  0  0  0  0  0  0  0
   13.0911  -16.1948   22.7353 N   0  0  0  0  0  0  0  0  0  0  0  0
   14.2279  -17.0878   22.4550 C   0  0  1  0  0  0  0  0  0  0  0  0
   14.8270  -16.6024   21.1534 C   0  0  0  0  0  0  0  0  0  0  0  0
   15.5601  -15.3379   21.2630 C   0  0  0  0  0  0  0  0  0  0  0  0
   15.6109  -14.7293   22.3608 O   0  0  0  0  0  0  0  0  0  0  0  0
   15.2260  -16.9810   23.5567 C   0  0  0  0  0  0  0  0  0  0  0  0
   14.9592  -16.1587   24.6682 O   0  0  0  0  0  0  0  0  0  0  0  0
   16.2386  -14.7250   20.1968 O   0  0  0  0  0  0  0  0  0  0  0  0
   16.3101  -17.6013   23.5368 O   0  0  0  0  0  0  0  0  0  0  0  0
  2  1  1  1
  2  3  1  0
  4  2  1  0
  4  6  1  0
  4  5  1  1
  6 13  1  0
  6  7  2  0
  9  8  1  0
  9 11  1  0
 10  9  2  0
 12 11  1  1
 12 14  1  0
 13 12  1  0
 14 16  1  0
 14 15  2  0
 16 17  1  0
 17 21  1  0
 17 18  1  6
 18 19  1  0
 19 23  1  0
 20 19  2  0
 21 22  1  0
 24 21  2  0
M  END
$$$$
