VND.pdb
     RDKit          3D

 24 23  0  0  1  0  0  0  0  0999 V2000
    8.1451  -12.6199   17.9106 C   0  0  0  0  0  0  0  0  0  0  0  0
    7.8735  -12.9951   19.3631 C   0  0  2  0  0  0  0  0  0  0  0  0
    8.7026  -12.1986   20.3106 C   0  0  0  0  0  0  0  0  0  0  0  0
    7.9313  -14.4776   19.5404 C   0  0  2  0  0  0  0  0  0  0  0  0
    7.3665  -14.9072   20.7852 N   0  0  0  0  0  0  0  0  0  0  0  0
    9.2720  -15.0648   19.3483 C   0  0  0  0  0  0  0  0  0  0  0  0
    9.5065  -16.0038   18.5460 O   0  0  0  0  0  0  0  0  0  0  0  0
   14.2207  -16.0463   19.4312 N   0  0  0  0  0  0  0  0  0  0  0  0
   13.9598  -14.7393   19.0100 C   0  0  0  0  0  0  0  0  0  0  0  0
   14.8671  -14.0718   18.3998 O   0  0  0  0  0  0  0  0  0  0  0  0
   12.6459  -14.1180   19.2598 C   0  0  0  0  0  0  0  0  0  0  0  0
   11.7050  -15.0727   19.9775 C   0  0  2  0  0  0  0  0  0  0  0  0
   10.3616  -14.5583   20.0975 N   0  0  0  0  0  0  0  0  0  0  0  0
   12.2619  -15.4141   21.3324 C   0  0  0  0  0  0  0  0  0  0  0  0
   12.5448  -14.4985   22.1529 O   0  0  0  0  0  0  0  0  0  0  0  0
   12.4821  -16.7590   21.7223 N   0  0  0  0  0  0  0  0  0  0  0  0
   12.9363  -17.1131   23.0775 C   0  0  1  0  0  0  0  0  0  0  0  0
   12.1941  -18.3784   23.4475 C   0  0  0  0  0  0  0  0  0  0  0  0
   12.3428  -19.4684   22.4788 C   0  0  0  0  0  0  0  0  0  0  0  0
   13.0331  -19.3036   21.4423 O   0  0  0  0  0  0  0  0  0  0  0  0
   14.4059  -17.3607   23.0593 C   0  0  0  0  0  0  0  0  0  0  0  0
   15.1137  -17.2951   21.8438 O   0  0  0  0  0  0  0  0  0  0  0  0
   11.7518  -20.7347   22.6200 O   0  0  0  0  0  0  0  0  0  0  0  0
   15.0498  -17.6289   24.0956 O   0  0  0  0  0  0  0  0  0  0  0  0
  2  1  1  6
  2  3  1  0
  4  2  1  0
  4  6  1  0
  4  5  1  1
  6 13  1  0
  6  7  2  0
  9  8  1  0
  9 11  1  0
 10  9  2  0
 12 11  1  1
 12 14  1  0
 13 12  1  0
 14 16  1  0
 14 15  2  0
 16 17  1  0
 17 21  1  0
 17 18  1  6
 18 19  1  0
 19 23  1  0
 20 19  2  0
 21 22  1  0
 24 21  2  0
M  END
$$$$
