VND.pdb
     RDKit          3D

 24 23  0  0  1  0  0  0  0  0999 V2000
    7.6072  -13.5671   20.6331 C   0  0  0  0  0  0  0  0  0  0  0  0
    8.4741  -12.9865   19.5216 C   0  0  2  0  0  0  0  0  0  0  0  0
    7.7077  -12.0620   18.6400 C   0  0  0  0  0  0  0  0  0  0  0  0
    9.2264  -14.0723   18.8233 C   0  0  2  0  0  0  0  0  0  0  0  0
    8.4673  -14.6820   17.7720 N   0  0  0  0  0  0  0  0  0  0  0  0
    9.7900  -15.1004   19.7201 C   0  0  0  0  0  0  0  0  0  0  0  0
   10.6716  -14.8567   20.5826 O   0  0  0  0  0  0  0  0  0  0  0  0
    8.1108  -18.3885   17.7585 N   0  0  0  0  0  0  0  0  0  0  0  0
    9.3354  -18.1928   17.1137 C   0  0  0  0  0  0  0  0  0  0  0  0
    9.4418  -18.4297   15.8593 O   0  0  0  0  0  0  0  0  0  0  0  0
   10.5110  -17.7132   17.8640 C   0  0  0  0  0  0  0  0  0  0  0  0
   10.2001  -17.5510   19.3435 C   0  0  2  0  0  0  0  0  0  0  0  0
    9.3271  -16.4347   19.6183 N   0  0  0  0  0  0  0  0  0  0  0  0
   11.4807  -17.4231   20.1220 C   0  0  0  0  0  0  0  0  0  0  0  0
   12.1394  -18.4521   20.4363 O   0  0  0  0  0  0  0  0  0  0  0  0
   11.9790  -16.1572   20.5200 N   0  0  0  0  0  0  0  0  0  0  0  0
   13.2806  -16.0084   21.1924 C   0  0  1  0  0  0  0  0  0  0  0  0
   13.8675  -14.7116   20.6800 C   0  0  0  0  0  0  0  0  0  0  0  0
   14.6727  -14.8547   19.4636 C   0  0  0  0  0  0  0  0  0  0  0  0
   15.2852  -15.9270   19.2330 O   0  0  0  0  0  0  0  0  0  0  0  0
   13.0720  -15.9364   22.6664 C   0  0  0  0  0  0  0  0  0  0  0  0
   14.1824  -15.8825   23.5306 O   0  0  0  0  0  0  0  0  0  0  0  0
   14.8224  -13.8492   18.4944 O   0  0  0  0  0  0  0  0  0  0  0  0
   11.9328  -15.9214   23.1787 O   0  0  0  0  0  0  0  0  0  0  0  0
  2  1  1  1
  2  3  1  0
  4  2  1  0
  4  6  1  0
  4  5  1  6
  6 13  1  0
  6  7  2  0
  9  8  1  0
  9 11  1  0
 10  9  2  0
 12 11  1  6
 12 14  1  0
 13 12  1  0
 14 16  1  0
 14 15  2  0
 16 17  1  0
 17 21  1  0
 17 18  1  6
 18 19  1  0
 19 23  1  0
 20 19  2  0
 21 22  1  0
 24 21  2  0
M  END
$$$$
