VND.pdb
     RDKit          3D

 24 23  0  0  1  0  0  0  0  0999 V2000
    9.9043  -12.4514   18.9848 C   0  0  0  0  0  0  0  0  0  0  0  0
    8.4289  -12.8255   19.0696 C   0  0  2  0  0  0  0  0  0  0  0  0
    7.8057  -12.3582   20.3395 C   0  0  0  0  0  0  0  0  0  0  0  0
    8.2363  -14.2718   18.7476 C   0  0  2  0  0  0  0  0  0  0  0  0
    6.8598  -14.6134   18.5431 N   0  0  0  0  0  0  0  0  0  0  0  0
    8.8648  -15.2011   19.7070 C   0  0  0  0  0  0  0  0  0  0  0  0
    8.5074  -15.3002   20.9082 O   0  0  0  0  0  0  0  0  0  0  0  0
    8.3012  -19.1213   18.3173 N   0  0  0  0  0  0  0  0  0  0  0  0
    8.9706  -18.8892   19.5222 C   0  0  0  0  0  0  0  0  0  0  0  0
    8.3603  -19.0612   20.6354 O   0  0  0  0  0  0  0  0  0  0  0  0
   10.3778  -18.4481   19.5266 C   0  0  0  0  0  0  0  0  0  0  0  0
   10.5217  -17.0486   20.1032 C   0  0  2  0  0  0  0  0  0  0  0  0
    9.9262  -16.0306   19.2708 N   0  0  0  0  0  0  0  0  0  0  0  0
   11.9745  -16.7458   20.3486 C   0  0  0  0  0  0  0  0  0  0  0  0
   12.5035  -15.7169   19.8456 O   0  0  0  0  0  0  0  0  0  0  0  0
   12.7818  -17.5978   21.1434 N   0  0  0  0  0  0  0  0  0  0  0  0
   14.2079  -17.3198   21.3825 C   0  0  1  0  0  0  0  0  0  0  0  0
   14.2575  -15.9890   22.1005 C   0  0  0  0  0  0  0  0  0  0  0  0
   15.6077  -15.5551   22.4709 C   0  0  0  0  0  0  0  0  0  0  0  0
   16.6045  -16.2522   22.1571 O   0  0  0  0  0  0  0  0  0  0  0  0
   14.7856  -18.3933   22.2400 C   0  0  0  0  0  0  0  0  0  0  0  0
   16.0649  -18.9076   21.9542 O   0  0  0  0  0  0  0  0  0  0  0  0
   15.8902  -14.3748   23.1779 O   0  0  0  0  0  0  0  0  0  0  0  0
   14.1726  -18.8659   23.2204 O   0  0  0  0  0  0  0  0  0  0  0  0
  2  1  1  1
  2  3  1  0
  4  2  1  0
  4  6  1  0
  4  5  1  1
  6 13  1  0
  6  7  2  0
  9  8  1  0
  9 11  1  0
 10  9  2  0
 12 11  1  6
 12 14  1  0
 13 12  1  0
 14 16  1  0
 14 15  2  0
 16 17  1  0
 17 21  1  0
 17 18  1  1
 18 19  1  0
 19 23  1  0
 20 19  2  0
 21 22  1  0
 24 21  2  0
M  END
$$$$
