VND.pdb
     RDKit          3D

 24 23  0  0  1  0  0  0  0  0999 V2000
    8.3705  -11.9433   20.1114 C   0  0  0  0  0  0  0  0  0  0  0  0
    7.8197  -13.2538   19.5606 C   0  0  2  0  0  0  0  0  0  0  0  0
    6.4149  -13.4958   19.9938 C   0  0  0  0  0  0  0  0  0  0  0  0
    8.7775  -14.3721   19.8148 C   0  0  2  0  0  0  0  0  0  0  0  0
    8.4957  -15.5315   19.0213 N   0  0  0  0  0  0  0  0  0  0  0  0
    8.9254  -14.7396   21.2368 C   0  0  0  0  0  0  0  0  0  0  0  0
    9.2810  -13.9264   22.1271 O   0  0  0  0  0  0  0  0  0  0  0  0
    6.6701  -17.2195   25.8766 N   0  0  0  0  0  0  0  0  0  0  0  0
    7.6620  -17.5570   24.9515 C   0  0  0  0  0  0  0  0  0  0  0  0
    8.7025  -18.1980   25.3358 O   0  0  0  0  0  0  0  0  0  0  0  0
    7.5229  -17.1834   23.5316 C   0  0  0  0  0  0  0  0  0  0  0  0
    8.7859  -16.5221   23.0028 C   0  0  2  0  0  0  0  0  0  0  0  0
    8.6582  -16.0712   21.6374 N   0  0  0  0  0  0  0  0  0  0  0  0
    9.9500  -17.4646   23.1401 C   0  0  0  0  0  0  0  0  0  0  0  0
   10.2034  -18.2995   22.2289 O   0  0  0  0  0  0  0  0  0  0  0  0
   10.7868  -17.4420   24.2841 N   0  0  0  0  0  0  0  0  0  0  0  0
   12.2416  -17.6491   24.1895 C   0  0  1  0  0  0  0  0  0  0  0  0
   12.7700  -16.5094   23.3464 C   0  0  0  0  0  0  0  0  0  0  0  0
   14.1736  -16.6548   22.9498 C   0  0  0  0  0  0  0  0  0  0  0  0
   14.8512  -17.6270   23.3665 O   0  0  0  0  0  0  0  0  0  0  0  0
   12.8388  -17.6045   25.5544 C   0  0  0  0  0  0  0  0  0  0  0  0
   14.0355  -18.2975   25.8199 O   0  0  0  0  0  0  0  0  0  0  0  0
   14.8516  -15.7586   22.1072 O   0  0  0  0  0  0  0  0  0  0  0  0
   12.3138  -16.9666   26.4913 O   0  0  0  0  0  0  0  0  0  0  0  0
  2  1  1  1
  2  3  1  0
  4  2  1  0
  4  6  1  0
  4  5  1  6
  6 13  1  0
  6  7  2  0
  9  8  1  0
  9 11  1  0
 10  9  2  0
 12 11  1  6
 12 14  1  0
 13 12  1  0
 14 16  1  0
 14 15  2  0
 16 17  1  0
 17 21  1  0
 17 18  1  6
 18 19  1  0
 19 23  1  0
 20 19  2  0
 21 22  1  0
 24 21  2  0
M  END
$$$$
