VND.pdb
     RDKit          3D

 24 23  0  0  1  0  0  0  0  0999 V2000
    7.6164  -12.1290   19.1834 C   0  0  0  0  0  0  0  0  0  0  0  0
    8.4677  -13.3035   19.6523 C   0  0  2  0  0  0  0  0  0  0  0  0
    9.7385  -12.8546   20.2872 C   0  0  0  0  0  0  0  0  0  0  0  0
    8.6107  -14.3147   18.5616 C   0  0  2  0  0  0  0  0  0  0  0  0
    7.3480  -14.8037   18.0930 N   0  0  0  0  0  0  0  0  0  0  0  0
    9.5154  -15.4362   18.8820 C   0  0  0  0  0  0  0  0  0  0  0  0
    9.1466  -16.4658   19.5021 O   0  0  0  0  0  0  0  0  0  0  0  0
   12.8670  -16.4498   15.3916 N   0  0  0  0  0  0  0  0  0  0  0  0
   12.5586  -17.0596   16.6109 C   0  0  0  0  0  0  0  0  0  0  0  0
   11.8827  -18.1477   16.6281 O   0  0  0  0  0  0  0  0  0  0  0  0
   13.0059  -16.4629   17.8833 C   0  0  0  0  0  0  0  0  0  0  0  0
   11.8599  -16.3410   18.8752 C   0  0  2  0  0  0  0  0  0  0  0  0
   10.8710  -15.3668   18.4790 N   0  0  0  0  0  0  0  0  0  0  0  0
   12.4008  -16.0179   20.2410 C   0  0  0  0  0  0  0  0  0  0  0  0
   12.8061  -14.8528   20.5053 O   0  0  0  0  0  0  0  0  0  0  0  0
   12.4697  -17.0017   21.2592 N   0  0  0  0  0  0  0  0  0  0  0  0
   12.8804  -16.6724   22.6344 C   0  0  1  0  0  0  0  0  0  0  0  0
   11.6862  -16.9817   23.5103 C   0  0  0  0  0  0  0  0  0  0  0  0
   11.9165  -16.7621   24.9411 C   0  0  0  0  0  0  0  0  0  0  0  0
   12.9947  -16.2535   25.3375 O   0  0  0  0  0  0  0  0  0  0  0  0
   14.0417  -17.5224   23.0222 C   0  0  0  0  0  0  0  0  0  0  0  0
   15.0402  -17.0028   23.8683 O   0  0  0  0  0  0  0  0  0  0  0  0
   10.9923  -17.0876   25.9474 O   0  0  0  0  0  0  0  0  0  0  0  0
   14.1705  -18.6985   22.6217 O   0  0  0  0  0  0  0  0  0  0  0  0
  2  1  1  6
  2  3  1  0
  4  2  1  0
  4  6  1  0
  4  5  1  1
  6 13  1  0
  6  7  2  0
  9  8  1  0
  9 11  1  0
 10  9  2  0
 12 11  1  6
 12 14  1  0
 13 12  1  0
 14 16  1  0
 14 15  2  0
 16 17  1  0
 17 21  1  0
 17 18  1  1
 18 19  1  0
 19 23  1  0
 20 19  2  0
 21 22  1  0
 24 21  2  0
M  END
$$$$
