TCR.pdb
     RDKit          3D

 25 24  0  0  1  0  0  0  0  0999 V2000
   20.6537  -23.1598  -12.5886 C   0  0  0  0  0  0  0  0  0  0  0  0
   21.9088  -22.3356  -12.5173 C   0  0  1  0  0  0  0  0  0  0  0  0
   22.3243  -22.0427  -13.8253 O   0  0  0  0  0  0  0  0  0  0  0  0
   21.7039  -21.0172  -11.7871 C   0  0  2  0  0  0  0  0  0  0  0  0
   20.7777  -20.1645  -12.4709 N   0  0  0  0  0  0  0  0  0  0  0  0
   23.0635  -20.3864  -11.7062 C   0  0  0  0  0  0  0  0  0  0  0  0
   23.3309  -19.3320  -12.3363 O   0  0  0  0  0  0  0  0  0  0  0  0
   24.1183  -20.9458  -10.9155 N   0  0  0  0  0  0  0  0  0  0  0  0
   25.4198  -20.3487  -10.9343 C   0  0  1  0  0  0  0  0  0  0  0  0
   26.0706  -20.3349   -9.5840 C   0  0  0  0  0  0  0  0  0  0  0  0
   24.9917  -19.4300   -8.4280 S   0  0  0  0  0  0  0  0  0  0  0  0
   26.3076  -20.9793  -11.9705 C   0  0  0  0  0  0  0  0  0  0  0  0
   26.7906  -22.1240  -11.7491 O   0  0  0  0  0  0  0  0  0  0  0  0
   23.6257  -25.9320  -17.1463 N   0  0  0  0  0  0  0  0  0  0  0  0
   25.0181  -25.9693  -17.4758 C   0  0  0  0  0  0  0  0  0  0  0  0
   25.3912  -26.7564  -18.4499 N   0  0  0  0  0  0  0  0  0  0  0  0
   25.9521  -25.1899  -16.7771 N   0  0  0  0  0  0  0  0  0  0  0  0
   25.4858  -24.3603  -15.6510 C   0  0  0  0  0  0  0  0  0  0  0  0
   26.4585  -23.2524  -15.5273 C   0  0  0  0  0  0  0  0  0  0  0  0
   26.3264  -22.2100  -14.5289 C   0  0  0  0  0  0  0  0  0  0  0  0
   27.2612  -21.0947  -14.3260 C   0  0  2  0  0  0  0  0  0  0  0  0
   26.6222  -20.3511  -13.1721 N   0  0  0  0  0  0  0  0  0  0  0  0
   27.5090  -20.1329  -15.3882 C   0  0  0  0  0  0  0  0  0  0  0  0
   26.8480  -19.1148  -15.6539 O   0  0  0  0  0  0  0  0  0  0  0  0
   28.6208  -20.3491  -16.2332 O   0  0  0  0  0  0  0  0  0  0  0  0
  2  3  1  0
  2  1  1  6
  4  2  1  0
  4  5  1  6
  6  4  1  0
  7  6  2  0
  8  6  1  0
  9 12  1  0
  9  8  1  0
  9 10  1  1
 11 10  1  0
 12 22  1  0
 13 12  2  0
 15 14  1  0
 15 16  2  0
 17 15  1  0
 18 17  1  0
 19 18  1  0
 20 19  1  0
 21 20  1  6
 22 21  1  0
 23 25  1  0
 23 21  1  0
 24 23  2  0
M  END
$$$$
