TCR.pdb
     RDKit          3D

 25 24  0  0  1  0  0  0  0  0999 V2000
   24.9608  -15.7420  -18.6550 C   0  0  0  0  0  0  0  0  0  0  0  0
   24.9614  -14.4028  -17.9721 C   0  0  1  0  0  0  0  0  0  0  0  0
   23.7260  -14.2300  -17.3292 O   0  0  0  0  0  0  0  0  0  0  0  0
   26.0545  -14.2807  -16.9216 C   0  0  2  0  0  0  0  0  0  0  0  0
   25.9074  -15.2532  -15.8799 N   0  0  0  0  0  0  0  0  0  0  0  0
   25.9389  -12.8853  -16.3808 C   0  0  0  0  0  0  0  0  0  0  0  0
   25.3387  -12.6528  -15.3009 O   0  0  0  0  0  0  0  0  0  0  0  0
   26.5000  -11.7555  -17.0586 N   0  0  0  0  0  0  0  0  0  0  0  0
   26.3537  -10.4436  -16.5034 C   0  0  1  0  0  0  0  0  0  0  0  0
   27.5258   -9.5562  -16.7967 C   0  0  0  0  0  0  0  0  0  0  0  0
   29.0245  -10.3242  -16.1013 S   0  0  0  0  0  0  0  0  0  0  0  0
   25.0579   -9.8042  -16.9175 C   0  0  0  0  0  0  0  0  0  0  0  0
   24.5741  -10.0777  -18.0505 O   0  0  0  0  0  0  0  0  0  0  0  0
   18.0613  -13.0653  -16.7468 N   0  0  0  0  0  0  0  0  0  0  0  0
   17.6725  -11.7015  -16.9406 C   0  0  0  0  0  0  0  0  0  0  0  0
   16.4086  -11.4559  -17.1643 N   0  0  0  0  0  0  0  0  0  0  0  0
   18.6142  -10.6628  -16.8942 N   0  0  0  0  0  0  0  0  0  0  0  0
   20.0262  -10.9943  -16.6289 C   0  0  0  0  0  0  0  0  0  0  0  0
   20.7535   -9.7061  -16.6101 C   0  0  0  0  0  0  0  0  0  0  0  0
   22.1990   -9.6306  -16.5362 C   0  0  0  0  0  0  0  0  0  0  0  0
   22.9897   -8.3943  -16.4634 C   0  0  2  0  0  0  0  0  0  0  0  0
   24.3635   -8.9173  -16.0998 N   0  0  0  0  0  0  0  0  0  0  0  0
   22.6477   -7.3511  -15.5098 C   0  0  0  0  0  0  0  0  0  0  0  0
   23.1377   -7.1685  -14.3826 O   0  0  0  0  0  0  0  0  0  0  0  0
   21.6486   -6.4205  -15.8742 O   0  0  0  0  0  0  0  0  0  0  0  0
  2  3  1  0
  2  1  1  1
  4  2  1  0
  4  5  1  1
  6  4  1  0
  7  6  2  0
  8  6  1  0
  9 12  1  0
  9  8  1  0
  9 10  1  6
 11 10  1  0
 12 22  1  0
 13 12  2  0
 15 14  1  0
 15 16  2  0
 17 15  1  0
 18 17  1  0
 19 18  1  0
 20 19  1  0
 21 20  1  1
 22 21  1  0
 23 25  1  0
 23 21  1  0
 24 23  2  0
M  END
$$$$
