TCR.pdb
     RDKit          3D

 25 24  0  0  1  0  0  0  0  0999 V2000
   19.8435  -17.6695  -12.1708 C   0  0  0  0  0  0  0  0  0  0  0  0
   19.0859  -16.9684  -13.2636 C   0  0  1  0  0  0  0  0  0  0  0  0
   19.0405  -15.5978  -12.9656 O   0  0  0  0  0  0  0  0  0  0  0  0
   19.7414  -17.1274  -14.6268 C   0  0  2  0  0  0  0  0  0  0  0  0
   19.0740  -16.3589  -15.6351 N   0  0  0  0  0  0  0  0  0  0  0  0
   19.6796  -18.5953  -14.9343 C   0  0  0  0  0  0  0  0  0  0  0  0
   18.5868  -19.1618  -15.1897 O   0  0  0  0  0  0  0  0  0  0  0  0
   20.8495  -19.4208  -14.9530 N   0  0  0  0  0  0  0  0  0  0  0  0
   20.7491  -20.7946  -15.3448 C   0  0  1  0  0  0  0  0  0  0  0  0
   21.8526  -21.2162  -16.2675 C   0  0  0  0  0  0  0  0  0  0  0  0
   23.4483  -20.7941  -15.4961 S   0  0  0  0  0  0  0  0  0  0  0  0
   20.6428  -21.7073  -14.1552 C   0  0  0  0  0  0  0  0  0  0  0  0
   20.9684  -21.2708  -13.0168 O   0  0  0  0  0  0  0  0  0  0  0  0
   18.7045  -25.1306   -8.3351 N   0  0  0  0  0  0  0  0  0  0  0  0
   18.0874  -23.8915   -7.9712 C   0  0  0  0  0  0  0  0  0  0  0  0
   17.4902  -23.8278   -6.8106 N   0  0  0  0  0  0  0  0  0  0  0  0
   18.1199  -22.7827   -8.8300 N   0  0  0  0  0  0  0  0  0  0  0  0
   17.5807  -22.9243  -10.1950 C   0  0  0  0  0  0  0  0  0  0  0  0
   18.5890  -23.6940  -10.9566 C   0  0  0  0  0  0  0  0  0  0  0  0
   19.2100  -23.1819  -12.1619 C   0  0  0  0  0  0  0  0  0  0  0  0
   20.1054  -23.9350  -13.0507 C   0  0  2  0  0  0  0  0  0  0  0  0
   20.1977  -23.0224  -14.2555 N   0  0  0  0  0  0  0  0  0  0  0  0
   19.7358  -25.2585  -13.5265 C   0  0  0  0  0  0  0  0  0  0  0  0
   20.0096  -26.3522  -13.0041 O   0  0  0  0  0  0  0  0  0  0  0  0
   18.9774  -25.3485  -14.7155 O   0  0  0  0  0  0  0  0  0  0  0  0
  2  3  1  0
  2  1  1  1
  4  2  1  0
  4  5  1  6
  6  4  1  0
  7  6  2  0
  8  6  1  0
  9 12  1  0
  9  8  1  0
  9 10  1  1
 11 10  1  0
 12 22  1  0
 13 12  2  0
 15 14  1  0
 15 16  2  0
 17 15  1  0
 18 17  1  0
 19 18  1  0
 20 19  1  0
 21 20  1  1
 22 21  1  0
 23 25  1  0
 23 21  1  0
 24 23  2  0
M  END
$$$$
