TCR.pdb
     RDKit          3D

 25 24  0  0  1  0  0  0  0  0999 V2000
   17.2055  -11.1045  -17.3249 C   0  0  0  0  0  0  0  0  0  0  0  0
   17.2815  -12.0795  -16.1833 C   0  0  1  0  0  0  0  0  0  0  0  0
   16.3362  -13.0938  -16.4002 O   0  0  0  0  0  0  0  0  0  0  0  0
   18.6487  -12.7349  -16.0619 C   0  0  2  0  0  0  0  0  0  0  0  0
   18.6432  -13.8150  -15.1207 N   0  0  0  0  0  0  0  0  0  0  0  0
   19.5816  -11.6421  -15.6276 C   0  0  0  0  0  0  0  0  0  0  0  0
   19.4687  -11.0994  -14.4992 O   0  0  0  0  0  0  0  0  0  0  0  0
   20.6392  -11.1638  -16.4661 N   0  0  0  0  0  0  0  0  0  0  0  0
   21.4887  -10.1043  -16.0115 C   0  0  1  0  0  0  0  0  0  0  0  0
   22.9179  -10.2899  -16.4239 C   0  0  0  0  0  0  0  0  0  0  0  0
   23.6700  -11.5616  -15.3579 S   0  0  0  0  0  0  0  0  0  0  0  0
   20.9651   -8.7557  -16.4198 C   0  0  0  0  0  0  0  0  0  0  0  0
   20.2501   -8.6639  -17.4555 O   0  0  0  0  0  0  0  0  0  0  0  0
   14.8479   -3.8486  -14.8512 N   0  0  0  0  0  0  0  0  0  0  0  0
   14.6871   -5.1991  -15.2971 C   0  0  0  0  0  0  0  0  0  0  0  0
   13.4692   -5.6491  -15.4455 N   0  0  0  0  0  0  0  0  0  0  0  0
   15.7972   -6.0141  -15.5644 N   0  0  0  0  0  0  0  0  0  0  0  0
   16.8935   -5.4745  -16.3896 C   0  0  0  0  0  0  0  0  0  0  0  0
   18.1249   -5.6219  -15.5830 C   0  0  0  0  0  0  0  0  0  0  0  0
   19.1659   -6.5724  -15.9204 C   0  0  0  0  0  0  0  0  0  0  0  0
   20.5977   -6.2667  -16.0440 C   0  0  2  0  0  0  0  0  0  0  0  0
   21.2367   -7.5958  -15.6999 N   0  0  0  0  0  0  0  0  0  0  0  0
   21.2135   -5.2504  -15.2058 C   0  0  0  0  0  0  0  0  0  0  0  0
   21.7963   -5.4180  -14.1212 O   0  0  0  0  0  0  0  0  0  0  0  0
   21.1630   -3.9082  -15.6447 O   0  0  0  0  0  0  0  0  0  0  0  0
  2  3  1  0
  2  1  1  6
  4  2  1  0
  4  5  1  1
  6  4  1  0
  7  6  2  0
  8  6  1  0
  9 12  1  0
  9  8  1  0
  9 10  1  6
 11 10  1  0
 12 22  1  0
 13 12  2  0
 15 14  1  0
 15 16  2  0
 17 15  1  0
 18 17  1  0
 19 18  1  0
 20 19  1  0
 21 20  1  1
 22 21  1  0
 23 25  1  0
 23 21  1  0
 24 23  2  0
M  END
$$$$
