TCR.pdb
     RDKit          3D

 25 24  0  0  1  0  0  0  0  0999 V2000
   26.3771  -16.5227  -14.5062 C   0  0  0  0  0  0  0  0  0  0  0  0
   25.3595  -15.5293  -14.9934 C   0  0  1  0  0  0  0  0  0  0  0  0
   26.0284  -14.5136  -15.6937 O   0  0  0  0  0  0  0  0  0  0  0  0
   24.3382  -16.1495  -15.9344 C   0  0  2  0  0  0  0  0  0  0  0  0
   24.9375  -16.5946  -17.1573 N   0  0  0  0  0  0  0  0  0  0  0  0
   23.3209  -15.0755  -16.1887 C   0  0  0  0  0  0  0  0  0  0  0  0
   23.4042  -14.3240  -17.1930 O   0  0  0  0  0  0  0  0  0  0  0  0
   22.2124  -14.8513  -15.3103 N   0  0  0  0  0  0  0  0  0  0  0  0
   21.2484  -13.8386  -15.6198 C   0  0  1  0  0  0  0  0  0  0  0  0
   19.8764  -14.1709  -15.1153 C   0  0  0  0  0  0  0  0  0  0  0  0
   18.7871  -12.7403  -15.4083 S   0  0  0  0  0  0  0  0  0  0  0  0
   21.6960  -12.4815  -15.1535 C   0  0  0  0  0  0  0  0  0  0  0  0
   22.2307  -12.3699  -14.0159 O   0  0  0  0  0  0  0  0  0  0  0  0
   23.9162   -5.7202  -20.4344 N   0  0  0  0  0  0  0  0  0  0  0  0
   24.0544   -5.2479  -19.0903 C   0  0  0  0  0  0  0  0  0  0  0  0
   24.5379   -4.0465  -18.9151 N   0  0  0  0  0  0  0  0  0  0  0  0
   23.6859   -6.0461  -17.9972 N   0  0  0  0  0  0  0  0  0  0  0  0
   23.1981   -7.4146  -18.2482 C   0  0  0  0  0  0  0  0  0  0  0  0
   22.9164   -8.0000  -16.9189 C   0  0  0  0  0  0  0  0  0  0  0  0
   22.4366   -9.3576  -16.7533 C   0  0  0  0  0  0  0  0  0  0  0  0
   22.0662   -9.9856  -15.4777 C   0  0  2  0  0  0  0  0  0  0  0  0
   21.5454  -11.3345  -15.9276 N   0  0  0  0  0  0  0  0  0  0  0  0
   21.0553   -9.3850  -14.6220 C   0  0  0  0  0  0  0  0  0  0  0  0
   19.8245   -9.5446  -14.6812 O   0  0  0  0  0  0  0  0  0  0  0  0
   21.4867   -8.5161  -13.5946 O   0  0  0  0  0  0  0  0  0  0  0  0
  2  3  1  0
  2  1  1  6
  4  2  1  0
  4  5  1  6
  6  4  1  0
  7  6  2  0
  8  6  1  0
  9 12  1  0
  9  8  1  0
  9 10  1  1
 11 10  1  0
 12 22  1  0
 13 12  2  0
 15 14  1  0
 15 16  2  0
 17 15  1  0
 18 17  1  0
 19 18  1  0
 20 19  1  0
 21 20  1  6
 22 21  1  0
 23 25  1  0
 23 21  1  0
 24 23  2  0
M  END
$$$$
