TCR.pdb
     RDKit          3D

 25 24  0  0  1  0  0  0  0  0999 V2000
   28.2822  -17.7543  -15.7336 C   0  0  0  0  0  0  0  0  0  0  0  0
   27.3119  -18.6183  -14.9774 C   0  0  1  0  0  0  0  0  0  0  0  0
   26.1405  -18.7449  -15.7397 O   0  0  0  0  0  0  0  0  0  0  0  0
   27.8515  -20.0162  -14.7165 C   0  0  2  0  0  0  0  0  0  0  0  0
   27.9997  -20.7678  -15.9271 N   0  0  0  0  0  0  0  0  0  0  0  0
   26.8607  -20.6643  -13.7938 C   0  0  0  0  0  0  0  0  0  0  0  0
   26.0029  -21.4758  -14.2253 O   0  0  0  0  0  0  0  0  0  0  0  0
   26.8391  -20.3960  -12.3874 N   0  0  0  0  0  0  0  0  0  0  0  0
   25.7517  -20.8707  -11.5855 C   0  0  1  0  0  0  0  0  0  0  0  0
   25.9314  -20.5690  -10.1282 C   0  0  0  0  0  0  0  0  0  0  0  0
   24.3108  -20.6928   -9.3049 S   0  0  0  0  0  0  0  0  0  0  0  0
   24.4264  -20.3761  -12.0941 C   0  0  0  0  0  0  0  0  0  0  0  0
   24.1845  -19.1378  -12.0707 O   0  0  0  0  0  0  0  0  0  0  0  0
   24.2035  -18.1809  -18.4924 N   0  0  0  0  0  0  0  0  0  0  0  0
   22.8639  -17.7818  -18.1841 C   0  0  0  0  0  0  0  0  0  0  0  0
   22.3491  -16.7981  -18.8733 N   0  0  0  0  0  0  0  0  0  0  0  0
   22.1278  -18.4221  -17.1761 N   0  0  0  0  0  0  0  0  0  0  0  0
   22.8112  -19.3972  -16.3066 C   0  0  0  0  0  0  0  0  0  0  0  0
   21.7607  -19.9895  -15.4496 C   0  0  0  0  0  0  0  0  0  0  0  0
   22.0542  -20.9783  -14.4313 C   0  0  0  0  0  0  0  0  0  0  0  0
   22.0700  -20.7369  -12.9821 C   0  0  2  0  0  0  0  0  0  0  0  0
   23.4477  -21.2308  -12.5932 N   0  0  0  0  0  0  0  0  0  0  0  0
   21.1050  -21.3893  -12.1116 C   0  0  0  0  0  0  0  0  0  0  0  0
   21.2103  -22.5013  -11.5673 O   0  0  0  0  0  0  0  0  0  0  0  0
   19.8988  -20.7090  -11.8303 O   0  0  0  0  0  0  0  0  0  0  0  0
  2  3  1  0
  2  1  1  6
  4  2  1  0
  4  5  1  6
  6  4  1  0
  7  6  2  0
  8  6  1  0
  9 12  1  0
  9  8  1  0
  9 10  1  1
 11 10  1  0
 12 22  1  0
 13 12  2  0
 15 14  1  0
 15 16  2  0
 17 15  1  0
 18 17  1  0
 19 18  1  0
 20 19  1  0
 21 20  1  6
 22 21  1  0
 23 25  1  0
 23 21  1  0
 24 23  2  0
M  END
$$$$
