TCR.pdb
     RDKit          3D

 25 24  0  0  1  0  0  0  0  0999 V2000
   24.1099  -25.3019  -14.7252 C   0  0  0  0  0  0  0  0  0  0  0  0
   23.9956  -24.4129  -15.9319 C   0  0  1  0  0  0  0  0  0  0  0  0
   22.6491  -24.3657  -16.3246 O   0  0  0  0  0  0  0  0  0  0  0  0
   24.4507  -22.9881  -15.6558 C   0  0  2  0  0  0  0  0  0  0  0  0
   25.8438  -22.9248  -15.3277 N   0  0  0  0  0  0  0  0  0  0  0  0
   23.6025  -22.5088  -14.5140 C   0  0  0  0  0  0  0  0  0  0  0  0
   24.0021  -22.5941  -13.3251 O   0  0  0  0  0  0  0  0  0  0  0  0
   22.3061  -21.9348  -14.7150 N   0  0  0  0  0  0  0  0  0  0  0  0
   21.5819  -21.3970  -13.6027 C   0  0  1  0  0  0  0  0  0  0  0  0
   21.1581  -19.9756  -13.8198 C   0  0  0  0  0  0  0  0  0  0  0  0
   22.6500  -18.9400  -13.9641 S   0  0  0  0  0  0  0  0  0  0  0  0
   20.4190  -22.2693  -13.2202 C   0  0  0  0  0  0  0  0  0  0  0  0
   19.8272  -22.9300  -14.1179 O   0  0  0  0  0  0  0  0  0  0  0  0
   16.4430  -25.4345   -5.9715 N   0  0  0  0  0  0  0  0  0  0  0  0
   17.8387  -25.7373   -6.0665 C   0  0  0  0  0  0  0  0  0  0  0  0
   18.3248  -26.6276   -5.2427 N   0  0  0  0  0  0  0  0  0  0  0  0
   18.6588  -25.1002   -7.0097 N   0  0  0  0  0  0  0  0  0  0  0  0
   18.0676  -24.0754   -7.8895 C   0  0  0  0  0  0  0  0  0  0  0  0
   18.3702  -24.4994   -9.2742 C   0  0  0  0  0  0  0  0  0  0  0  0
   19.1876  -23.7048  -10.1693 C   0  0  0  0  0  0  0  0  0  0  0  0
   18.8173  -23.2950  -11.5309 C   0  0  2  0  0  0  0  0  0  0  0  0
   19.9634  -22.3806  -11.9097 N   0  0  0  0  0  0  0  0  0  0  0  0
   17.5780  -22.5751  -11.7768 C   0  0  0  0  0  0  0  0  0  0  0  0
   17.3970  -21.3465  -11.7316 O   0  0  0  0  0  0  0  0  0  0  0  0
   16.4284  -23.3268  -12.1087 O   0  0  0  0  0  0  0  0  0  0  0  0
  2  3  1  0
  2  1  1  1
  4  2  1  0
  4  5  1  1
  6  4  1  0
  7  6  2  0
  8  6  1  0
  9 12  1  0
  9  8  1  0
  9 10  1  6
 11 10  1  0
 12 22  1  0
 13 12  2  0
 15 14  1  0
 15 16  2  0
 17 15  1  0
 18 17  1  0
 19 18  1  0
 20 19  1  0
 21 20  1  1
 22 21  1  0
 23 25  1  0
 23 21  1  0
 24 23  2  0
M  END
$$$$
