TCR.pdb
     RDKit          3D

 25 24  0  0  1  0  0  0  0  0999 V2000
   23.4860  -14.7849  -20.6361 C   0  0  0  0  0  0  0  0  0  0  0  0
   23.6033  -13.8697  -19.4494 C   0  0  1  0  0  0  0  0  0  0  0  0
   22.3168  -13.6304  -18.9425 O   0  0  0  0  0  0  0  0  0  0  0  0
   24.4420  -14.4662  -18.3295 C   0  0  2  0  0  0  0  0  0  0  0  0
   23.8724  -15.6785  -17.8211 N   0  0  0  0  0  0  0  0  0  0  0  0
   24.5041  -13.4087  -17.2661 C   0  0  0  0  0  0  0  0  0  0  0  0
   23.8534  -13.5215  -16.1964 O   0  0  0  0  0  0  0  0  0  0  0  0
   25.2993  -12.2266  -17.4112 N   0  0  0  0  0  0  0  0  0  0  0  0
   25.3444  -11.2611  -16.3546 C   0  0  1  0  0  0  0  0  0  0  0  0
   26.7344  -10.7763  -16.0715 C   0  0  0  0  0  0  0  0  0  0  0  0
   26.6489   -9.4803  -14.7939 S   0  0  0  0  0  0  0  0  0  0  0  0
   24.3992  -10.1188  -16.6024 C   0  0  0  0  0  0  0  0  0  0  0  0
   24.4296   -9.5292  -17.7177 O   0  0  0  0  0  0  0  0  0  0  0  0
   15.9212   -9.9078  -16.0832 N   0  0  0  0  0  0  0  0  0  0  0  0
   16.3033   -8.5510  -16.3319 C   0  0  0  0  0  0  0  0  0  0  0  0
   15.3613   -7.7028  -16.6494 N   0  0  0  0  0  0  0  0  0  0  0  0
   17.6427   -8.1439  -16.2402 N   0  0  0  0  0  0  0  0  0  0  0  0
   18.6752   -9.1554  -15.9492 C   0  0  0  0  0  0  0  0  0  0  0  0
   19.9745   -8.4541  -16.0431 C   0  0  0  0  0  0  0  0  0  0  0  0
   21.2387   -9.1266  -15.8187 C   0  0  0  0  0  0  0  0  0  0  0  0
   22.5666   -8.5023  -15.8956 C   0  0  2  0  0  0  0  0  0  0  0  0
   23.4856   -9.6801  -15.6483 N   0  0  0  0  0  0  0  0  0  0  0  0
   22.9435   -7.4460  -14.9700 C   0  0  0  0  0  0  0  0  0  0  0  0
   23.8277   -7.4865  -14.0978 O   0  0  0  0  0  0  0  0  0  0  0  0
   22.2460   -6.2192  -15.0433 O   0  0  0  0  0  0  0  0  0  0  0  0
  2  3  1  0
  2  1  1  6
  4  2  1  0
  4  5  1  1
  6  4  1  0
  7  6  2  0
  8  6  1  0
  9 12  1  0
  9  8  1  0
  9 10  1  6
 11 10  1  0
 12 22  1  0
 13 12  2  0
 15 14  1  0
 15 16  2  0
 17 15  1  0
 18 17  1  0
 19 18  1  0
 20 19  1  0
 21 20  1  1
 22 21  1  0
 23 25  1  0
 23 21  1  0
 24 23  2  0
M  END
$$$$
