TCR.pdb
     RDKit          3D

 25 24  0  0  1  0  0  0  0  0999 V2000
   16.6998  -14.8032  -12.4428 C   0  0  0  0  0  0  0  0  0  0  0  0
   16.4737  -13.3227  -12.3138 C   0  0  1  0  0  0  0  0  0  0  0  0
   17.4093  -12.6573  -13.1209 O   0  0  0  0  0  0  0  0  0  0  0  0
   15.0843  -12.9000  -12.7657 C   0  0  2  0  0  0  0  0  0  0  0  0
   14.8954  -13.0969  -14.1721 N   0  0  0  0  0  0  0  0  0  0  0  0
   14.9665  -11.4488  -12.4007 C   0  0  0  0  0  0  0  0  0  0  0  0
   15.0740  -10.5476  -13.2706 O   0  0  0  0  0  0  0  0  0  0  0  0
   14.7280  -11.0171  -11.0564 N   0  0  0  0  0  0  0  0  0  0  0  0
   14.4071   -9.6468  -10.7917 C   0  0  1  0  0  0  0  0  0  0  0  0
   13.0912   -9.4844  -10.0923 C   0  0  0  0  0  0  0  0  0  0  0  0
   11.8293  -10.4342  -11.0004 S   0  0  0  0  0  0  0  0  0  0  0  0
   15.5154   -8.9467  -10.0559 C   0  0  0  0  0  0  0  0  0  0  0  0
   15.9621   -9.4567   -8.9915 O   0  0  0  0  0  0  0  0  0  0  0  0
   21.5916   -6.9316  -14.9556 N   0  0  0  0  0  0  0  0  0  0  0  0
   21.2836   -8.2148  -14.4013 C   0  0  0  0  0  0  0  0  0  0  0  0
   21.8592   -9.2605  -14.9331 N   0  0  0  0  0  0  0  0  0  0  0  0
   20.3934   -8.3478  -13.3253 N   0  0  0  0  0  0  0  0  0  0  0  0
   19.7741   -7.1349  -12.7604 C   0  0  0  0  0  0  0  0  0  0  0  0
   18.8359   -7.6016  -11.7161 C   0  0  0  0  0  0  0  0  0  0  0  0
   18.1029   -6.6862  -10.8643 C   0  0  0  0  0  0  0  0  0  0  0  0
   17.2078   -7.0701   -9.7642 C   0  0  2  0  0  0  0  0  0  0  0  0
   16.0741   -7.7521  -10.5009 N   0  0  0  0  0  0  0  0  0  0  0  0
   16.6254   -6.0595   -8.8957 C   0  0  0  0  0  0  0  0  0  0  0  0
   15.4920   -5.5568   -8.9768 O   0  0  0  0  0  0  0  0  0  0  0  0
   17.4097   -5.5716   -7.8263 O   0  0  0  0  0  0  0  0  0  0  0  0
  2  3  1  0
  2  1  1  6
  4  2  1  0
  4  5  1  6
  6  4  1  0
  7  6  2  0
  8  6  1  0
  9 12  1  0
  9  8  1  0
  9 10  1  1
 11 10  1  0
 12 22  1  0
 13 12  2  0
 15 14  1  0
 15 16  2  0
 17 15  1  0
 18 17  1  0
 19 18  1  0
 20 19  1  0
 21 20  1  6
 22 21  1  0
 23 25  1  0
 23 21  1  0
 24 23  2  0
M  END
$$$$
