TCR.pdb
     RDKit          3D

 25 24  0  0  1  0  0  0  0  0999 V2000
   19.4045  -30.9070  -11.8054 C   0  0  0  0  0  0  0  0  0  0  0  0
   19.2871  -29.6026  -11.0675 C   0  0  1  0  0  0  0  0  0  0  0  0
   19.2962  -29.8681   -9.6895 O   0  0  0  0  0  0  0  0  0  0  0  0
   20.4375  -28.6538  -11.3669 C   0  0  2  0  0  0  0  0  0  0  0  0
   21.7099  -29.2489  -11.0851 N   0  0  0  0  0  0  0  0  0  0  0  0
   20.1998  -27.4484  -10.5046 C   0  0  0  0  0  0  0  0  0  0  0  0
   21.1395  -26.9066   -9.8690 O   0  0  0  0  0  0  0  0  0  0  0  0
   18.9037  -26.8568  -10.3609 N   0  0  0  0  0  0  0  0  0  0  0  0
   18.7792  -25.5197   -9.8634 C   0  0  1  0  0  0  0  0  0  0  0  0
   19.5310  -24.5211  -10.6909 C   0  0  0  0  0  0  0  0  0  0  0  0
   19.1375  -22.8492  -10.0834 S   0  0  0  0  0  0  0  0  0  0  0  0
   17.3403  -25.1220   -9.6875 C   0  0  0  0  0  0  0  0  0  0  0  0
   16.6486  -24.8568  -10.7091 O   0  0  0  0  0  0  0  0  0  0  0  0
   17.1491  -27.7478   -3.3420 N   0  0  0  0  0  0  0  0  0  0  0  0
   17.7052  -26.4372   -3.1947 C   0  0  0  0  0  0  0  0  0  0  0  0
   18.8482  -26.3287   -2.5706 N   0  0  0  0  0  0  0  0  0  0  0  0
   17.0468  -25.3064   -3.7004 N   0  0  0  0  0  0  0  0  0  0  0  0
   15.7865  -25.4901   -4.4433 C   0  0  0  0  0  0  0  0  0  0  0  0
   16.0744  -25.1027   -5.8418 C   0  0  0  0  0  0  0  0  0  0  0  0
   15.0394  -25.0139   -6.8526 C   0  0  0  0  0  0  0  0  0  0  0  0
   15.2567  -24.7386   -8.2794 C   0  0  2  0  0  0  0  0  0  0  0  0
   16.7336  -25.0329   -8.4379 N   0  0  0  0  0  0  0  0  0  0  0  0
   15.0095  -23.4132   -8.8243 C   0  0  0  0  0  0  0  0  0  0  0  0
   15.8382  -22.5054   -9.0067 O   0  0  0  0  0  0  0  0  0  0  0  0
   13.6873  -23.0866   -9.2012 O   0  0  0  0  0  0  0  0  0  0  0  0
  2  3  1  0
  2  1  1  6
  4  2  1  0
  4  5  1  1
  6  4  1  0
  7  6  2  0
  8  6  1  0
  9 12  1  0
  9  8  1  0
  9 10  1  6
 11 10  1  0
 12 22  1  0
 13 12  2  0
 15 14  1  0
 15 16  2  0
 17 15  1  0
 18 17  1  0
 19 18  1  0
 20 19  1  0
 21 20  1  1
 22 21  1  0
 23 25  1  0
 23 21  1  0
 24 23  2  0
M  END
$$$$
