TAC.pdb
     RDKit          3D

 19 18  0  0  1  0  0  0  0  0999 V2000
    8.6244  -12.9128   18.7511 C   0  0  0  0  0  0  0  0  0  0  0  0
    7.9112  -13.5219   17.5607 C   0  0  1  0  0  0  0  0  0  0  0  0
    8.1735  -12.6777   16.4715 O   0  0  0  0  0  0  0  0  0  0  0  0
    8.4976  -14.8960   17.3441 C   0  0  2  0  0  0  0  0  0  0  0  0
    7.9293  -15.4828   16.1598 N   0  0  0  0  0  0  0  0  0  0  0  0
    8.2920  -15.7958   18.4909 C   0  0  0  0  0  0  0  0  0  0  0  0
    7.1273  -16.1545   18.8226 O   0  0  0  0  0  0  0  0  0  0  0  0
    9.9789  -18.3061   20.4488 C   0  0  0  0  0  0  0  0  0  0  0  0
    9.1630  -17.0162   20.5259 C   0  0  2  0  0  0  0  0  0  0  0  0
    9.3540  -16.3137   19.2876 N   0  0  0  0  0  0  0  0  0  0  0  0
    9.6566  -16.2117   21.6976 C   0  0  0  0  0  0  0  0  0  0  0  0
   10.6730  -15.4828   21.5769 O   0  0  0  0  0  0  0  0  0  0  0  0
    9.0141  -16.2413   22.9512 N   0  0  0  0  0  0  0  0  0  0  0  0
    9.4257  -15.5261   24.1165 C   0  0  1  0  0  0  0  0  0  0  0  0
    8.3348  -14.6688   24.7112 C   0  0  0  0  0  0  0  0  0  0  0  0
    6.9170  -15.7614   25.0657 S   0  0  0  0  0  0  0  0  0  0  0  0
   10.0623  -16.3931   25.1355 C   0  0  0  0  0  0  0  0  0  0  0  0
    9.9433  -17.6385   25.0790 O   0  0  0  0  0  0  0  0  0  0  0  0
   10.7999  -15.8460   26.1685 O   0  0  0  0  0  0  0  0  0  0  0  0
  2  1  1  1
  2  3  1  0
  4  6  1  0
  4  2  1  0
  4  5  1  6
  6 10  1  0
  7  6  2  0
  9  8  1  6
 10  9  1  0
 11  9  1  0
 12 11  2  0
 13 11  1  0
 14 13  1  0
 14 17  1  0
 14 15  1  1
 16 15  1  0
 17 19  1  0
 18 17  2  0
M  END
$$$$
