TAC.pdb
     RDKit          3D

 19 18  0  0  1  0  0  0  0  0999 V2000
    9.8255  -12.6810   20.4963 C   0  0  0  0  0  0  0  0  0  0  0  0
    8.8449  -12.9721   19.3781 C   0  0  1  0  0  0  0  0  0  0  0  0
    9.4936  -12.6202   18.1851 O   0  0  0  0  0  0  0  0  0  0  0  0
    8.5422  -14.4503   19.4232 C   0  0  2  0  0  0  0  0  0  0  0  0
    7.6953  -14.8043   18.3154 N   0  0  0  0  0  0  0  0  0  0  0  0
    7.9093  -14.8691   20.6846 C   0  0  0  0  0  0  0  0  0  0  0  0
    6.6759  -14.6766   20.8769 O   0  0  0  0  0  0  0  0  0  0  0  0
    8.4512  -17.3148   23.2967 C   0  0  0  0  0  0  0  0  0  0  0  0
    8.0157  -15.8807   22.9987 C   0  0  2  0  0  0  0  0  0  0  0  0
    8.6144  -15.5019   21.7490 N   0  0  0  0  0  0  0  0  0  0  0  0
    8.4845  -14.9987   24.1239 C   0  0  0  0  0  0  0  0  0  0  0  0
    9.6933  -14.6642   24.1994 O   0  0  0  0  0  0  0  0  0  0  0  0
    7.6072  -14.5216   25.1178 N   0  0  0  0  0  0  0  0  0  0  0  0
    7.9757  -13.7211   26.2413 C   0  0  1  0  0  0  0  0  0  0  0  0
    6.8083  -13.0068   26.8782 C   0  0  0  0  0  0  0  0  0  0  0  0
    5.9205  -12.1247   25.5503 S   0  0  0  0  0  0  0  0  0  0  0  0
    8.7819  -14.4596   27.2413 C   0  0  0  0  0  0  0  0  0  0  0  0
    8.9371  -15.6988   27.1474 O   0  0  0  0  0  0  0  0  0  0  0  0
    9.3787  -13.7972   28.2973 O   0  0  0  0  0  0  0  0  0  0  0  0
  2  1  1  1
  2  3  1  0
  4  6  1  0
  4  2  1  0
  4  5  1  6
  6 10  1  0
  7  6  2  0
  9  8  1  1
 10  9  1  0
 11  9  1  0
 12 11  2  0
 13 11  1  0
 14 13  1  0
 14 17  1  0
 14 15  1  1
 16 15  1  0
 17 19  1  0
 18 17  2  0
M  END
$$$$
