TAC.pdb
     RDKit          3D

 19 18  0  0  1  0  0  0  0  0999 V2000
    8.4094  -13.1379   17.6607 C   0  0  0  0  0  0  0  0  0  0  0  0
    7.8067  -13.8913   18.8293 C   0  0  1  0  0  0  0  0  0  0  0  0
    7.8675  -15.2519   18.4929 O   0  0  0  0  0  0  0  0  0  0  0  0
    8.6536  -13.5869   20.0413 C   0  0  2  0  0  0  0  0  0  0  0  0
    9.9997  -14.0427   19.8172 N   0  0  0  0  0  0  0  0  0  0  0  0
    8.1258  -14.1885   21.2769 C   0  0  0  0  0  0  0  0  0  0  0  0
    6.9855  -13.8626   21.7114 O   0  0  0  0  0  0  0  0  0  0  0  0
    8.8575  -17.1570   23.3495 C   0  0  0  0  0  0  0  0  0  0  0  0
    8.3460  -15.7188   23.2767 C   0  0  2  0  0  0  0  0  0  0  0  0
    8.8358  -15.1513   22.0513 N   0  0  0  0  0  0  0  0  0  0  0  0
    8.8619  -14.9702   24.4754 C   0  0  0  0  0  0  0  0  0  0  0  0
   10.0867  -14.7072   24.5737 O   0  0  0  0  0  0  0  0  0  0  0  0
    8.0123  -14.5423   25.5148 N   0  0  0  0  0  0  0  0  0  0  0  0
    8.4044  -13.7635   26.6455 C   0  0  1  0  0  0  0  0  0  0  0  0
    7.4811  -12.6022   26.9237 C   0  0  0  0  0  0  0  0  0  0  0  0
    5.7718  -13.2012   26.7019 S   0  0  0  0  0  0  0  0  0  0  0  0
    8.6438  -14.5800   27.8584 C   0  0  0  0  0  0  0  0  0  0  0  0
    8.3205  -15.7895   27.8883 O   0  0  0  0  0  0  0  0  0  0  0  0
    9.2283  -14.0245   28.9810 O   0  0  0  0  0  0  0  0  0  0  0  0
  2  1  1  6
  2  3  1  0
  4  6  1  0
  4  2  1  0
  4  5  1  6
  6 10  1  0
  7  6  2  0
  9  8  1  1
 10  9  1  0
 11  9  1  0
 12 11  2  0
 13 11  1  0
 14 13  1  0
 14 17  1  0
 14 15  1  1
 16 15  1  0
 17 19  1  0
 18 17  2  0
M  END
$$$$
