TAC.pdb
     RDKit          3D

 19 18  0  0  1  0  0  0  0  0999 V2000
    9.0937  -18.9262   21.7820 C   0  0  0  0  0  0  0  0  0  0  0  0
   10.3106  -18.4702   21.0023 C   0  0  1  0  0  0  0  0  0  0  0  0
   10.6865  -19.5524   20.1926 O   0  0  0  0  0  0  0  0  0  0  0  0
    9.8890  -17.2828   20.1710 C   0  0  2  0  0  0  0  0  0  0  0  0
   10.9229  -16.9656   19.2221 N   0  0  0  0  0  0  0  0  0  0  0  0
    9.5792  -16.0942   20.9823 C   0  0  0  0  0  0  0  0  0  0  0  0
   10.4976  -15.4786   21.5930 O   0  0  0  0  0  0  0  0  0  0  0  0
    6.4804  -14.0782   21.6961 C   0  0  0  0  0  0  0  0  0  0  0  0
    7.9460  -14.4266   21.9525 C   0  0  2  0  0  0  0  0  0  0  0  0
    8.2652  -15.5647   21.1362 N   0  0  0  0  0  0  0  0  0  0  0  0
    8.1118  -14.7343   23.4159 C   0  0  0  0  0  0  0  0  0  0  0  0
    8.7765  -15.7379   23.7764 O   0  0  0  0  0  0  0  0  0  0  0  0
    7.5413  -13.9282   24.4208 N   0  0  0  0  0  0  0  0  0  0  0  0
    7.5511  -14.2086   25.8209 C   0  0  1  0  0  0  0  0  0  0  0  0
    6.9951  -13.0851   26.6619 C   0  0  0  0  0  0  0  0  0  0  0  0
    7.9607  -11.5862   26.2738 S   0  0  0  0  0  0  0  0  0  0  0  0
    6.9269  -15.5096   26.1571 C   0  0  0  0  0  0  0  0  0  0  0  0
    6.0718  -16.0225   25.3995 O   0  0  0  0  0  0  0  0  0  0  0  0
    7.2751  -16.1835   27.3125 O   0  0  0  0  0  0  0  0  0  0  0  0
  2  1  1  1
  2  3  1  0
  4  6  1  0
  4  2  1  0
  4  5  1  6
  6 10  1  0
  7  6  2  0
  9  8  1  1
 10  9  1  0
 11  9  1  0
 12 11  2  0
 13 11  1  0
 14 13  1  0
 14 17  1  0
 14 15  1  1
 16 15  1  0
 17 19  1  0
 18 17  2  0
M  END
$$$$
