TAC.pdb
     RDKit          3D

 19 18  0  0  1  0  0  0  0  0999 V2000
    8.9894  -12.8050   20.4269 C   0  0  0  0  0  0  0  0  0  0  0  0
    7.9509  -13.5247   19.5901 C   0  0  1  0  0  0  0  0  0  0  0  0
    8.3331  -13.3476   18.2520 O   0  0  0  0  0  0  0  0  0  0  0  0
    7.9911  -14.9814   19.9844 C   0  0  2  0  0  0  0  0  0  0  0  0
    7.1409  -15.7428   19.1085 N   0  0  0  0  0  0  0  0  0  0  0  0
    7.5929  -15.2092   21.3832 C   0  0  0  0  0  0  0  0  0  0  0  0
    6.4267  -14.9196   21.7723 O   0  0  0  0  0  0  0  0  0  0  0  0
    8.5345  -17.4381   24.0662 C   0  0  0  0  0  0  0  0  0  0  0  0
    8.0719  -16.0213   23.7285 C   0  0  2  0  0  0  0  0  0  0  0  0
    8.4620  -15.7550   22.3719 N   0  0  0  0  0  0  0  0  0  0  0  0
    8.7282  -15.0663   24.6881 C   0  0  0  0  0  0  0  0  0  0  0  0
    9.9326  -14.7444   24.5305 O   0  0  0  0  0  0  0  0  0  0  0  0
    8.0354  -14.5053   25.7792 N   0  0  0  0  0  0  0  0  0  0  0  0
    8.5950  -13.6381   26.7659 C   0  0  1  0  0  0  0  0  0  0  0  0
    7.6853  -12.4950   27.1458 C   0  0  0  0  0  0  0  0  0  0  0  0
    6.0109  -12.9123   26.5523 S   0  0  0  0  0  0  0  0  0  0  0  0
    9.0978  -14.3615   27.9571 C   0  0  0  0  0  0  0  0  0  0  0  0
    8.8365  -15.5747   28.1252 O   0  0  0  0  0  0  0  0  0  0  0  0
    9.8650  -13.7133   28.9066 O   0  0  0  0  0  0  0  0  0  0  0  0
  2  1  1  1
  2  3  1  0
  4  6  1  0
  4  2  1  0
  4  5  1  6
  6 10  1  0
  7  6  2  0
  9  8  1  1
 10  9  1  0
 11  9  1  0
 12 11  2  0
 13 11  1  0
 14 13  1  0
 14 17  1  0
 14 15  1  1
 16 15  1  0
 17 19  1  0
 18 17  2  0
M  END
$$$$
