TAC.pdb
     RDKit          3D

 19 18  0  0  1  0  0  0  0  0999 V2000
   11.7802  -15.6288   22.3489 C   0  0  0  0  0  0  0  0  0  0  0  0
   10.6068  -15.8518   21.4162 C   0  0  1  0  0  0  0  0  0  0  0  0
   11.0688  -15.5542   20.1255 O   0  0  0  0  0  0  0  0  0  0  0  0
   10.2105  -17.3035   21.5364 C   0  0  2  0  0  0  0  0  0  0  0  0
    9.2934  -17.6431   20.4812 N   0  0  0  0  0  0  0  0  0  0  0  0
    9.6089  -17.6289   22.8399 C   0  0  0  0  0  0  0  0  0  0  0  0
    8.3740  -17.4516   23.0374 O   0  0  0  0  0  0  0  0  0  0  0  0
   10.6426  -19.7196   25.7191 C   0  0  0  0  0  0  0  0  0  0  0  0
    9.7516  -18.6081   25.1659 C   0  0  2  0  0  0  0  0  0  0  0  0
   10.3473  -18.1508   23.9413 N   0  0  0  0  0  0  0  0  0  0  0  0
    9.6777  -17.5062   26.1877 C   0  0  0  0  0  0  0  0  0  0  0  0
    9.0987  -17.7038   27.2853 O   0  0  0  0  0  0  0  0  0  0  0  0
   10.2420  -16.2351   25.9618 N   0  0  0  0  0  0  0  0  0  0  0  0
   10.2196  -15.1381   26.8755 C   0  0  1  0  0  0  0  0  0  0  0  0
    8.8771  -14.4528   26.9577 C   0  0  0  0  0  0  0  0  0  0  0  0
    9.0667  -13.0169   28.0676 S   0  0  0  0  0  0  0  0  0  0  0  0
   10.7425  -15.4885   28.2167 C   0  0  0  0  0  0  0  0  0  0  0  0
   10.7774  -16.6811   28.5972 O   0  0  0  0  0  0  0  0  0  0  0  0
   11.2022  -14.5075   29.0750 O   0  0  0  0  0  0  0  0  0  0  0  0
  2  1  1  1
  2  3  1  0
  4  6  1  0
  4  2  1  0
  4  5  1  6
  6 10  1  0
  7  6  2  0
  9  8  1  1
 10  9  1  0
 11  9  1  0
 12 11  2  0
 13 11  1  0
 14 13  1  0
 14 17  1  0
 14 15  1  1
 16 15  1  0
 17 19  1  0
 18 17  2  0
M  END
$$$$
