TAC.pdb
     RDKit          3D

 19 18  0  0  1  0  0  0  0  0999 V2000
    7.7470  -19.3223   18.8857 C   0  0  0  0  0  0  0  0  0  0  0  0
    6.5484  -18.5493   18.3733 C   0  0  1  0  0  0  0  0  0  0  0  0
    5.7203  -18.3272   19.4837 O   0  0  0  0  0  0  0  0  0  0  0  0
    7.0649  -17.2498   17.8048 C   0  0  2  0  0  0  0  0  0  0  0  0
    7.8475  -17.5147   16.6269 N   0  0  0  0  0  0  0  0  0  0  0  0
    7.8663  -16.4788   18.7693 C   0  0  0  0  0  0  0  0  0  0  0  0
    8.9986  -16.8977   19.1407 O   0  0  0  0  0  0  0  0  0  0  0  0
    7.4081  -13.2368   20.6352 C   0  0  0  0  0  0  0  0  0  0  0  0
    8.1705  -14.5301   20.3503 C   0  0  2  0  0  0  0  0  0  0  0  0
    7.4416  -15.2435   19.3387 N   0  0  0  0  0  0  0  0  0  0  0  0
    8.2578  -15.3208   21.6274 C   0  0  0  0  0  0  0  0  0  0  0  0
    7.2854  -16.0245   21.9994 O   0  0  0  0  0  0  0  0  0  0  0  0
    9.4076  -15.3058   22.4415 N   0  0  0  0  0  0  0  0  0  0  0  0
    9.8573  -16.3783   23.2700 C   0  0  1  0  0  0  0  0  0  0  0  0
    9.9707  -17.6943   22.5393 C   0  0  0  0  0  0  0  0  0  0  0  0
   10.4591  -18.9558   23.7639 S   0  0  0  0  0  0  0  0  0  0  0  0
   11.0945  -16.0550   24.0182 C   0  0  0  0  0  0  0  0  0  0  0  0
   12.0951  -15.5884   23.4269 O   0  0  0  0  0  0  0  0  0  0  0  0
   11.1702  -16.2613   25.3827 O   0  0  0  0  0  0  0  0  0  0  0  0
  2  1  1  1
  2  3  1  0
  4  6  1  0
  4  2  1  0
  4  5  1  6
  6 10  1  0
  7  6  2  0
  9  8  1  1
 10  9  1  0
 11  9  1  0
 12 11  2  0
 13 11  1  0
 14 13  1  0
 14 17  1  0
 14 15  1  6
 16 15  1  0
 17 19  1  0
 18 17  2  0
M  END
$$$$
