TAC.pdb
     RDKit          3D

 19 18  0  0  1  0  0  0  0  0999 V2000
    7.6855  -12.5838   19.7360 C   0  0  0  0  0  0  0  0  0  0  0  0
    7.7046  -14.0691   19.4359 C   0  0  1  0  0  0  0  0  0  0  0  0
    8.1650  -14.1975   18.1170 O   0  0  0  0  0  0  0  0  0  0  0  0
    8.6578  -14.7103   20.4152 C   0  0  2  0  0  0  0  0  0  0  0  0
    9.0057  -16.0293   19.9579 N   0  0  0  0  0  0  0  0  0  0  0  0
    8.1135  -14.7866   21.7808 C   0  0  0  0  0  0  0  0  0  0  0  0
    7.6830  -13.7486   22.3575 O   0  0  0  0  0  0  0  0  0  0  0  0
    7.5257  -17.5579   24.2664 C   0  0  0  0  0  0  0  0  0  0  0  0
    7.4629  -16.0898   23.8468 C   0  0  2  0  0  0  0  0  0  0  0  0
    8.0330  -15.9952   22.5316 N   0  0  0  0  0  0  0  0  0  0  0  0
    8.2421  -15.2771   24.8448 C   0  0  0  0  0  0  0  0  0  0  0  0
    9.4916  -15.1879   24.7451 O   0  0  0  0  0  0  0  0  0  0  0  0
    7.6176  -14.5973   25.9091 N   0  0  0  0  0  0  0  0  0  0  0  0
    8.2722  -13.7605   26.8631 C   0  0  1  0  0  0  0  0  0  0  0  0
    7.3791  -12.6834   27.4296 C   0  0  0  0  0  0  0  0  0  0  0  0
    6.1449  -12.2719   26.1501 S   0  0  0  0  0  0  0  0  0  0  0  0
    8.9597  -14.5241   27.9305 C   0  0  0  0  0  0  0  0  0  0  0  0
    8.8220  -15.7658   28.0177 O   0  0  0  0  0  0  0  0  0  0  0  0
    9.7666  -13.8827   28.8514 O   0  0  0  0  0  0  0  0  0  0  0  0
  2  1  1  1
  2  3  1  0
  4  6  1  0
  4  2  1  0
  4  5  1  6
  6 10  1  0
  7  6  2  0
  9  8  1  1
 10  9  1  0
 11  9  1  0
 12 11  2  0
 13 11  1  0
 14 13  1  0
 14 17  1  0
 14 15  1  1
 16 15  1  0
 17 19  1  0
 18 17  2  0
M  END
$$$$
