TAC.pdb
     RDKit          3D

 19 18  0  0  1  0  0  0  0  0999 V2000
    9.0119  -13.6336   18.7012 C   0  0  0  0  0  0  0  0  0  0  0  0
    8.7541  -13.7913   20.1862 C   0  0  1  0  0  0  0  0  0  0  0  0
    8.3898  -12.5218   20.6588 O   0  0  0  0  0  0  0  0  0  0  0  0
    7.6238  -14.7800   20.3406 C   0  0  2  0  0  0  0  0  0  0  0  0
    6.4534  -14.2852   19.6660 N   0  0  0  0  0  0  0  0  0  0  0  0
    7.3005  -15.0680   21.7475 C   0  0  0  0  0  0  0  0  0  0  0  0
    6.4756  -14.3467   22.3756 O   0  0  0  0  0  0  0  0  0  0  0  0
    8.2780  -17.7220   24.2329 C   0  0  0  0  0  0  0  0  0  0  0  0
    7.6414  -16.3776   23.8825 C   0  0  2  0  0  0  0  0  0  0  0  0
    7.8730  -16.1453   22.4840 N   0  0  0  0  0  0  0  0  0  0  0  0
    8.2822  -15.3134   24.7313 C   0  0  0  0  0  0  0  0  0  0  0  0
    9.4022  -14.8425   24.4106 O   0  0  0  0  0  0  0  0  0  0  0  0
    7.6672  -14.8115   25.8953 N   0  0  0  0  0  0  0  0  0  0  0  0
    8.2038  -13.8054   26.7548 C   0  0  1  0  0  0  0  0  0  0  0  0
    7.1480  -12.9357   27.3932 C   0  0  0  0  0  0  0  0  0  0  0  0
    5.8332  -12.6786   26.1542 S   0  0  0  0  0  0  0  0  0  0  0  0
    9.1540  -14.3433   27.7562 C   0  0  0  0  0  0  0  0  0  0  0  0
    9.2935  -15.5789   27.9053 O   0  0  0  0  0  0  0  0  0  0  0  0
    9.9056  -13.4936   28.5458 O   0  0  0  0  0  0  0  0  0  0  0  0
  2  1  1  6
  2  3  1  0
  4  6  1  0
  4  2  1  0
  4  5  1  1
  6 10  1  0
  7  6  2  0
  9  8  1  1
 10  9  1  0
 11  9  1  0
 12 11  2  0
 13 11  1  0
 14 13  1  0
 14 17  1  0
 14 15  1  1
 16 15  1  0
 17 19  1  0
 18 17  2  0
M  END
$$$$
