VQH.pdb
     RDKit          3D

 27 27  0  0  1  0  0  0  0  0999 V2000
    8.9545  -12.6734   20.9126 C   0  0  0  0  0  0  0  0  0  0  0  0
    7.9888  -13.3093   19.9410 C   0  0  1  0  0  0  0  0  0  0  0  0
    7.4919  -12.3114   18.9364 C   0  0  0  0  0  0  0  0  0  0  0  0
    8.4520  -14.6033   19.3796 C   0  0  2  0  0  0  0  0  0  0  0  0
    7.3740  -15.1186   18.5328 N   0  0  0  0  0  0  0  0  0  0  0  0
    8.7785  -15.6595   20.3469 C   0  0  0  0  0  0  0  0  0  0  0  0
    7.8453  -16.3022   20.9473 O   0  0  0  0  0  0  0  0  0  0  0  0
   11.4339  -20.1144   20.4528 N   0  0  0  0  0  0  0  0  0  0  0  0
   11.9197  -20.0607   21.7913 C   0  0  0  0  0  0  0  0  0  0  0  0
   12.1851  -21.1367   22.3622 O   0  0  0  0  0  0  0  0  0  0  0  0
   12.0921  -18.7217   22.4575 C   0  0  0  0  0  0  0  0  0  0  0  0
   11.6400  -17.6969   21.4722 C   0  0  0  0  0  0  0  0  0  0  0  0
   10.3195  -17.0497   21.7814 C   0  0  2  0  0  0  0  0  0  0  0  0
   10.0835  -16.0803   20.7181 N   0  0  0  0  0  0  0  0  0  0  0  0
   10.3533  -16.4604   23.1189 C   0  0  0  0  0  0  0  0  0  0  0  0
   10.9901  -15.4274   23.4270 O   0  0  0  0  0  0  0  0  0  0  0  0
    9.6218  -17.0769   24.1734 N   0  0  0  0  0  0  0  0  0  0  0  0
    9.5721  -16.5230   25.5117 C   0  0  1  0  0  0  0  0  0  0  0  0
    8.1093  -16.4727   25.9058 C   0  0  0  0  0  0  0  0  0  0  0  0
    7.4370  -15.2489   25.3692 C   0  0  0  0  0  0  0  0  0  0  0  0
    8.0072  -14.2359   24.6378 C   0  0  0  0  0  0  0  0  0  0  0  0
    7.0448  -13.3442   24.3672 N   0  0  0  0  0  0  0  0  0  0  0  0
    5.8974  -13.7794   24.9115 C   0  0  0  0  0  0  0  0  0  0  0  0
    6.1429  -14.9401   25.5204 N   0  0  0  0  0  0  0  0  0  0  0  0
   10.3706  -17.3546   26.4180 C   0  0  0  0  0  0  0  0  0  0  0  0
   10.8668  -18.4318   26.0124 O   0  0  0  0  0  0  0  0  0  0  0  0
   10.6038  -16.9895   27.7336 O   0  0  0  0  0  0  0  0  0  0  0  0
  2  4  1  0
  2  1  1  6
  3  2  1  0
  4  5  1  6
  6  4  1  0
  6  7  2  0
  9  8  1  0
  9 10  2  0
 11 12  1  0
 11  9  1  0
 13 12  1  6
 13 15  1  0
 13 14  1  0
 14  6  1  0
 15 17  1  0
 16 15  2  0
 17 18  1  0
 18 25  1  0
 18 19  1  1
 20 19  1  0
 21 20  2  0
 22 23  1  0
 22 21  1  0
 23 24  2  0
 24 20  1  0
 25 26  2  0
 25 27  1  0
M  END
$$$$
