VQH.pdb
     RDKit          3D

 27 27  0  0  1  0  0  0  0  0999 V2000
    8.6352  -12.6575   20.9838 C   0  0  0  0  0  0  0  0  0  0  0  0
    7.9649  -13.2762   19.7800 C   0  0  1  0  0  0  0  0  0  0  0  0
    7.6454  -12.2397   18.7429 C   0  0  0  0  0  0  0  0  0  0  0  0
    8.6326  -14.5014   19.2729 C   0  0  2  0  0  0  0  0  0  0  0  0
    7.7897  -15.0434   18.2050 N   0  0  0  0  0  0  0  0  0  0  0  0
    8.8429  -15.5840   20.2432 C   0  0  0  0  0  0  0  0  0  0  0  0
    7.8927  -16.3974   20.5260 O   0  0  0  0  0  0  0  0  0  0  0  0
   12.2136  -19.7216   20.1718 N   0  0  0  0  0  0  0  0  0  0  0  0
   12.1191  -19.9697   21.5718 C   0  0  0  0  0  0  0  0  0  0  0  0
   12.4197  -21.1060   21.9873 O   0  0  0  0  0  0  0  0  0  0  0  0
   11.6650  -18.8628   22.4856 C   0  0  0  0  0  0  0  0  0  0  0  0
   11.3982  -17.6793   21.6174 C   0  0  0  0  0  0  0  0  0  0  0  0
   10.1475  -16.9135   21.9450 C   0  0  2  0  0  0  0  0  0  0  0  0
   10.0465  -15.8548   20.9475 N   0  0  0  0  0  0  0  0  0  0  0  0
   10.2085  -16.4226   23.3208 C   0  0  0  0  0  0  0  0  0  0  0  0
   10.9895  -15.5320   23.7261 O   0  0  0  0  0  0  0  0  0  0  0  0
    9.3322  -16.9727   24.2990 N   0  0  0  0  0  0  0  0  0  0  0  0
    9.2912  -16.4895   25.6647 C   0  0  1  0  0  0  0  0  0  0  0  0
    7.8270  -16.3575   26.0338 C   0  0  0  0  0  0  0  0  0  0  0  0
    7.2700  -15.0356   25.6099 C   0  0  0  0  0  0  0  0  0  0  0  0
    7.9508  -13.9851   25.0450 C   0  0  0  0  0  0  0  0  0  0  0  0
    7.0660  -13.0035   24.8258 N   0  0  0  0  0  0  0  0  0  0  0  0
    5.8588  -13.4197   25.2399 C   0  0  0  0  0  0  0  0  0  0  0  0
    5.9896  -14.6583   25.7165 N   0  0  0  0  0  0  0  0  0  0  0  0
   10.0098  -17.4227   26.5383 C   0  0  0  0  0  0  0  0  0  0  0  0
   10.1047  -17.1903   27.7664 O   0  0  0  0  0  0  0  0  0  0  0  0
   10.6009  -18.5763   26.0504 O   0  0  0  0  0  0  0  0  0  0  0  0
  2  4  1  0
  2  1  1  1
  3  2  1  0
  4  5  1  6
  6  4  1  0
  6  7  2  0
  9  8  1  0
  9 10  2  0
 11 12  1  0
 11  9  1  0
 13 12  1  6
 13 15  1  0
 13 14  1  0
 14  6  1  0
 15 17  1  0
 16 15  2  0
 17 18  1  0
 18 25  1  0
 18 19  1  1
 20 19  1  0
 21 20  2  0
 22 23  1  0
 22 21  1  0
 23 24  2  0
 24 20  1  0
 25 26  2  0
 25 27  1  0
M  END
$$$$
