VQH.pdb
     RDKit          3D

 27 27  0  0  1  0  0  0  0  0999 V2000
    7.2518  -12.3464   19.2605 C   0  0  0  0  0  0  0  0  0  0  0  0
    8.4998  -13.1442   19.5553 C   0  0  1  0  0  0  0  0  0  0  0  0
    8.3076  -14.0331   20.7490 C   0  0  0  0  0  0  0  0  0  0  0  0
    9.1025  -13.7957   18.3651 C   0  0  2  0  0  0  0  0  0  0  0  0
    8.0828  -14.6757   17.7904 N   0  0  0  0  0  0  0  0  0  0  0  0
   10.2953  -14.6199   18.6013 C   0  0  0  0  0  0  0  0  0  0  0  0
   10.2009  -15.8972   18.6637 O   0  0  0  0  0  0  0  0  0  0  0  0
   15.9429  -13.1956   17.2195 N   0  0  0  0  0  0  0  0  0  0  0  0
   16.3134  -14.3120   18.0236 C   0  0  0  0  0  0  0  0  0  0  0  0
   17.5257  -14.5838   18.1265 O   0  0  0  0  0  0  0  0  0  0  0  0
   15.2389  -15.1119   18.7107 C   0  0  0  0  0  0  0  0  0  0  0  0
   13.9536  -14.3965   18.4621 C   0  0  0  0  0  0  0  0  0  0  0  0
   12.7385  -15.0294   19.0793 C   0  0  2  0  0  0  0  0  0  0  0  0
   11.6213  -14.1421   18.7782 N   0  0  0  0  0  0  0  0  0  0  0  0
   12.9561  -15.2379   20.5098 C   0  0  0  0  0  0  0  0  0  0  0  0
   12.9470  -14.3303   21.3722 O   0  0  0  0  0  0  0  0  0  0  0  0
   13.1992  -16.5541   20.9956 N   0  0  0  0  0  0  0  0  0  0  0  0
   13.3409  -16.8470   22.4078 C   0  0  1  0  0  0  0  0  0  0  0  0
   13.3481  -18.3572   22.5385 C   0  0  0  0  0  0  0  0  0  0  0  0
   12.4629  -18.8169   23.6531 C   0  0  0  0  0  0  0  0  0  0  0  0
   11.7456  -18.0360   24.5260 C   0  0  0  0  0  0  0  0  0  0  0  0
   11.0940  -18.8582   25.3592 N   0  0  0  0  0  0  0  0  0  0  0  0
   11.3898  -20.1240   25.0241 C   0  0  0  0  0  0  0  0  0  0  0  0
   12.2240  -20.0922   23.9842 N   0  0  0  0  0  0  0  0  0  0  0  0
   14.5714  -16.2325   22.9165 C   0  0  0  0  0  0  0  0  0  0  0  0
   15.5296  -16.0050   22.1410 O   0  0  0  0  0  0  0  0  0  0  0  0
   14.7209  -15.8856   24.2490 O   0  0  0  0  0  0  0  0  0  0  0  0
  2  4  1  0
  2  1  1  6
  3  2  1  0
  4  5  1  1
  6  4  1  0
  6  7  2  0
  9  8  1  0
  9 10  2  0
 11 12  1  0
 11  9  1  0
 13 12  1  1
 13 15  1  0
 13 14  1  0
 14  6  1  0
 15 17  1  0
 16 15  2  0
 17 18  1  0
 18 25  1  0
 18 19  1  6
 20 19  1  0
 21 20  2  0
 22 23  1  0
 22 21  1  0
 23 24  2  0
 24 20  1  0
 25 26  2  0
 25 27  1  0
M  END
$$$$
