VQH.pdb
     RDKit          3D

 27 27  0  0  1  0  0  0  0  0999 V2000
    6.8487  -13.3508   20.2167 C   0  0  0  0  0  0  0  0  0  0  0  0
    7.9966  -13.6593   19.2850 C   0  0  1  0  0  0  0  0  0  0  0  0
    7.9907  -12.7465   18.0939 C   0  0  0  0  0  0  0  0  0  0  0  0
    9.3080  -13.8143   19.9636 C   0  0  2  0  0  0  0  0  0  0  0  0
   10.2707  -14.2520   18.9505 N   0  0  0  0  0  0  0  0  0  0  0  0
    9.3684  -14.7891   21.0608 C   0  0  0  0  0  0  0  0  0  0  0  0
    8.6798  -14.6105   22.1277 O   0  0  0  0  0  0  0  0  0  0  0  0
   11.6893  -20.4944   21.1275 N   0  0  0  0  0  0  0  0  0  0  0  0
   11.1248  -20.1012   22.3753 C   0  0  0  0  0  0  0  0  0  0  0  0
   10.2553  -20.8364   22.8830 O   0  0  0  0  0  0  0  0  0  0  0  0
   11.5944  -18.8274   23.0258 C   0  0  0  0  0  0  0  0  0  0  0  0
   11.4153  -17.7446   22.0152 C   0  0  0  0  0  0  0  0  0  0  0  0
   10.2642  -16.8133   22.2715 C   0  0  2  0  0  0  0  0  0  0  0  0
   10.1444  -15.9788   21.0818 N   0  0  0  0  0  0  0  0  0  0  0  0
   10.4979  -16.0569   23.5005 C   0  0  0  0  0  0  0  0  0  0  0  0
   10.9700  -14.8981   23.5457 O   0  0  0  0  0  0  0  0  0  0  0  0
   10.1781  -16.6468   24.7562 N   0  0  0  0  0  0  0  0  0  0  0  0
    9.5512  -15.8998   25.8283 C   0  0  1  0  0  0  0  0  0  0  0  0
    8.2177  -15.4140   25.2959 C   0  0  0  0  0  0  0  0  0  0  0  0
    7.8244  -14.1070   25.9079 C   0  0  0  0  0  0  0  0  0  0  0  0
    8.5354  -13.3637   26.8180 C   0  0  0  0  0  0  0  0  0  0  0  0
    7.8140  -12.2694   27.0949 N   0  0  0  0  0  0  0  0  0  0  0  0
    6.6782  -12.3176   26.3808 C   0  0  0  0  0  0  0  0  0  0  0  0
    6.6905  -13.4394   25.6599 N   0  0  0  0  0  0  0  0  0  0  0  0
    9.4067  -16.7594   27.0076 C   0  0  0  0  0  0  0  0  0  0  0  0
    9.1441  -17.9775   26.8713 O   0  0  0  0  0  0  0  0  0  0  0  0
    9.5518  -16.2688   28.2946 O   0  0  0  0  0  0  0  0  0  0  0  0
  2  4  1  0
  2  1  1  1
  3  2  1  0
  4  5  1  6
  6  4  1  0
  6  7  2  0
  9  8  1  0
  9 10  2  0
 11 12  1  0
 11  9  1  0
 13 12  1  6
 13 15  1  0
 13 14  1  0
 14  6  1  0
 15 17  1  0
 16 15  2  0
 17 18  1  0
 18 25  1  0
 18 19  1  6
 20 19  1  0
 21 20  2  0
 22 23  1  0
 22 21  1  0
 23 24  2  0
 24 20  1  0
 25 26  2  0
 25 27  1  0
M  END
$$$$
