VQH.pdb
     RDKit          3D

 27 27  0  0  1  0  0  0  0  0999 V2000
    7.6547  -12.3129   20.9979 C   0  0  0  0  0  0  0  0  0  0  0  0
    7.4110  -13.5537   20.1721 C   0  0  1  0  0  0  0  0  0  0  0  0
    7.3557  -13.2302   18.7078 C   0  0  0  0  0  0  0  0  0  0  0  0
    8.2695  -14.7083   20.5384 C   0  0  2  0  0  0  0  0  0  0  0  0
    7.8826  -15.8265   19.6757 N   0  0  0  0  0  0  0  0  0  0  0  0
    8.1734  -15.1842   21.9248 C   0  0  0  0  0  0  0  0  0  0  0  0
    8.5176  -14.4240   22.8985 O   0  0  0  0  0  0  0  0  0  0  0  0
    5.6758  -19.9351   25.0116 N   0  0  0  0  0  0  0  0  0  0  0  0
    5.7047  -19.9176   23.5871 C   0  0  0  0  0  0  0  0  0  0  0  0
    5.3607  -20.9514   22.9811 O   0  0  0  0  0  0  0  0  0  0  0  0
    6.1447  -18.6657   22.8761 C   0  0  0  0  0  0  0  0  0  0  0  0
    6.4368  -17.6571   23.9358 C   0  0  0  0  0  0  0  0  0  0  0  0
    7.7028  -16.8713   23.7407 C   0  0  2  0  0  0  0  0  0  0  0  0
    7.7157  -16.4629   22.3411 N   0  0  0  0  0  0  0  0  0  0  0  0
    8.8572  -17.6799   24.1291 C   0  0  0  0  0  0  0  0  0  0  0  0
    9.5972  -18.2967   23.3294 O   0  0  0  0  0  0  0  0  0  0  0  0
    9.1961  -17.7986   25.5069 N   0  0  0  0  0  0  0  0  0  0  0  0
   10.5691  -17.8615   25.9665 C   0  0  1  0  0  0  0  0  0  0  0  0
   11.2236  -16.5572   25.5561 C   0  0  0  0  0  0  0  0  0  0  0  0
   11.9808  -16.7014   24.2742 C   0  0  0  0  0  0  0  0  0  0  0  0
   12.1399  -17.8394   23.5219 C   0  0  0  0  0  0  0  0  0  0  0  0
   12.8879  -17.5172   22.4583 N   0  0  0  0  0  0  0  0  0  0  0  0
   13.1943  -16.2124   22.5341 C   0  0  0  0  0  0  0  0  0  0  0  0
   12.6389  -15.7211   23.6425 N   0  0  0  0  0  0  0  0  0  0  0  0
   10.5929  -18.0706   27.4177 C   0  0  0  0  0  0  0  0  0  0  0  0
    9.6613  -17.6327   28.1330 O   0  0  0  0  0  0  0  0  0  0  0  0
   11.6263  -18.7475   28.0439 O   0  0  0  0  0  0  0  0  0  0  0  0
  2  4  1  0
  2  1  1  1
  3  2  1  0
  4  5  1  6
  6  4  1  0
  6  7  2  0
  9  8  1  0
  9 10  2  0
 11 12  1  0
 11  9  1  0
 13 12  1  6
 13 15  1  0
 13 14  1  0
 14  6  1  0
 15 17  1  0
 16 15  2  0
 17 18  1  0
 18 25  1  0
 18 19  1  1
 20 19  1  0
 21 20  2  0
 22 23  1  0
 22 21  1  0
 23 24  2  0
 24 20  1  0
 25 26  2  0
 25 27  1  0
M  END
$$$$
