VQH.pdb
     RDKit          3D

 27 27  0  0  1  0  0  0  0  0999 V2000
    7.7349  -12.3735   19.4185 C   0  0  0  0  0  0  0  0  0  0  0  0
    8.2684  -13.3617   20.4284 C   0  0  1  0  0  0  0  0  0  0  0  0
    7.5555  -13.2344   21.7427 C   0  0  0  0  0  0  0  0  0  0  0  0
    8.4102  -14.7460   19.9108 C   0  0  2  0  0  0  0  0  0  0  0  0
    7.0926  -15.1650   19.4284 N   0  0  0  0  0  0  0  0  0  0  0  0
    8.8577  -15.7634   20.8713 C   0  0  0  0  0  0  0  0  0  0  0  0
    8.0035  -16.4353   21.5519 O   0  0  0  0  0  0  0  0  0  0  0  0
   13.8769  -18.9578   20.5408 N   0  0  0  0  0  0  0  0  0  0  0  0
   13.5033  -19.4760   21.8145 C   0  0  0  0  0  0  0  0  0  0  0  0
   14.1839  -20.4051   22.2919 O   0  0  0  0  0  0  0  0  0  0  0  0
   12.3145  -18.8886   22.5272 C   0  0  0  0  0  0  0  0  0  0  0  0
   11.7816  -17.8104   21.6446 C   0  0  0  0  0  0  0  0  0  0  0  0
   10.5616  -17.1026   22.1631 C   0  0  2  0  0  0  0  0  0  0  0  0
   10.2054  -16.1140   21.1523 N   0  0  0  0  0  0  0  0  0  0  0  0
   10.8393  -16.5270   23.4779 C   0  0  0  0  0  0  0  0  0  0  0  0
   11.0319  -15.3094   23.6970 O   0  0  0  0  0  0  0  0  0  0  0  0
   10.9032  -17.3807   24.6157 N   0  0  0  0  0  0  0  0  0  0  0  0
   10.7201  -16.8893   25.9667 C   0  0  1  0  0  0  0  0  0  0  0  0
    9.4270  -16.0983   25.9686 C   0  0  0  0  0  0  0  0  0  0  0  0
    9.5231  -14.8894   26.8442 C   0  0  0  0  0  0  0  0  0  0  0  0
   10.5640  -14.5352   27.6672 C   0  0  0  0  0  0  0  0  0  0  0  0
   10.2309  -13.3832   28.2642 N   0  0  0  0  0  0  0  0  0  0  0  0
    9.0137  -13.0174   27.8320 C   0  0  0  0  0  0  0  0  0  0  0  0
    8.5879  -13.9390   26.9672 N   0  0  0  0  0  0  0  0  0  0  0  0
   10.6896  -18.0192   26.9010 C   0  0  0  0  0  0  0  0  0  0  0  0
   10.6657  -17.8143   28.1374 O   0  0  0  0  0  0  0  0  0  0  0  0
   10.6861  -19.3330   26.4626 O   0  0  0  0  0  0  0  0  0  0  0  0
  2  4  1  0
  2  1  1  6
  3  2  1  0
  4  5  1  1
  6  4  1  0
  6  7  2  0
  9  8  1  0
  9 10  2  0
 11 12  1  0
 11  9  1  0
 13 12  1  6
 13 15  1  0
 13 14  1  0
 14  6  1  0
 15 17  1  0
 16 15  2  0
 17 18  1  0
 18 25  1  0
 18 19  1  6
 20 19  1  0
 21 20  2  0
 22 23  1  0
 22 21  1  0
 23 24  2  0
 24 20  1  0
 25 26  2  0
 25 27  1  0
M  END
$$$$
