VQH.pdb
     RDKit          3D

 27 27  0  0  1  0  0  0  0  0999 V2000
    8.1254  -12.2550   26.2686 C   0  0  0  0  0  0  0  0  0  0  0  0
    6.9462  -13.0889   26.7101 C   0  0  1  0  0  0  0  0  0  0  0  0
    6.0364  -12.3089   27.6133 C   0  0  0  0  0  0  0  0  0  0  0  0
    6.2746  -13.8260   25.6101 C   0  0  2  0  0  0  0  0  0  0  0  0
    5.2453  -14.6704   26.2200 N   0  0  0  0  0  0  0  0  0  0  0  0
    7.1231  -14.7062   24.7958 C   0  0  0  0  0  0  0  0  0  0  0  0
    7.0916  -15.9771   24.9640 O   0  0  0  0  0  0  0  0  0  0  0  0
    9.8025  -14.0180   19.1522 N   0  0  0  0  0  0  0  0  0  0  0  0
    8.4704  -13.6083   19.4490 C   0  0  0  0  0  0  0  0  0  0  0  0
    7.7767  -13.1517   18.5192 O   0  0  0  0  0  0  0  0  0  0  0  0
    7.9572  -13.7409   20.8580 C   0  0  0  0  0  0  0  0  0  0  0  0
    9.0472  -14.3851   21.6470 C   0  0  0  0  0  0  0  0  0  0  0  0
    8.5888  -15.2219   22.8080 C   0  0  2  0  0  0  0  0  0  0  0  0
    8.0281  -14.2928   23.7819 N   0  0  0  0  0  0  0  0  0  0  0  0
    9.7041  -16.0139   23.3239 C   0  0  0  0  0  0  0  0  0  0  0  0
   10.5594  -16.5888   22.6128 O   0  0  0  0  0  0  0  0  0  0  0  0
    9.8625  -16.1654   24.7308 N   0  0  0  0  0  0  0  0  0  0  0  0
   10.8347  -17.0707   25.3100 C   0  0  1  0  0  0  0  0  0  0  0  0
   10.6806  -16.9672   26.8145 C   0  0  0  0  0  0  0  0  0  0  0  0
   10.7402  -15.5459   27.2769 C   0  0  0  0  0  0  0  0  0  0  0  0
   11.2067  -14.4594   26.5782 C   0  0  0  0  0  0  0  0  0  0  0  0
   11.0751  -13.3860   27.3687 N   0  0  0  0  0  0  0  0  0  0  0  0
   10.5405  -13.7806   28.5351 C   0  0  0  0  0  0  0  0  0  0  0  0
   10.3387  -15.0973   28.4730 N   0  0  0  0  0  0  0  0  0  0  0  0
   10.5986  -18.4298   24.8125 C   0  0  0  0  0  0  0  0  0  0  0  0
    9.6344  -18.6619   24.0460 O   0  0  0  0  0  0  0  0  0  0  0  0
   11.4164  -19.4912   25.1633 O   0  0  0  0  0  0  0  0  0  0  0  0
  2  4  1  0
  2  1  1  6
  3  2  1  0
  4  5  1  1
  6  4  1  0
  6  7  2  0
  9  8  1  0
  9 10  2  0
 11 12  1  0
 11  9  1  0
 13 12  1  6
 13 15  1  0
 13 14  1  0
 14  6  1  0
 15 17  1  0
 16 15  2  0
 17 18  1  0
 18 25  1  0
 18 19  1  1
 20 19  1  0
 21 20  2  0
 22 23  1  0
 22 21  1  0
 23 24  2  0
 24 20  1  0
 25 26  2  0
 25 27  1  0
M  END
$$$$
