VQH.pdb
     RDKit          3D

 27 27  0  0  1  0  0  0  0  0999 V2000
-7148.625017981.8711-5633.5366 C   0  0  0  0  0  0  0  0  0  0  0  0
-7147.737817983.0137-5633.9629 C   0  0  1  0  0  0  0  0  0  0  0  0
-7146.492217982.5195-5634.6377 C   0  0  0  0  0  0  0  0  0  0  0  0
-7148.450217984.1055-5634.6689 C   0  0  2  0  0  0  0  0  0  0  0  0
-7147.612317985.2969-5634.5688 N   0  0  0  0  0  0  0  0  0  0  0  0
-7149.775417984.4707-5634.1470 C   0  0  0  0  0  0  0  0  0  0  0  0
-7150.294917983.8203-5633.1709 O   0  0  0  0  0  0  0  0  0  0  0  0
-7153.580617984.7227-5633.0723 N   0  0  0  0  0  0  0  0  0  0  0  0
-7154.589817985.4199-5633.7876 C   0  0  0  0  0  0  0  0  0  0  0  0
-7155.773917985.0723-5633.6196 O   0  0  0  0  0  0  0  0  0  0  0  0
-7154.188017986.5430-5634.7061 C   0  0  0  0  0  0  0  0  0  0  0  0
-7152.696817986.6152-5634.6592 C   0  0  0  0  0  0  0  0  0  0  0  0
-7151.984917985.3398-5634.9956 C   0  0  2  0  0  0  0  0  0  0  0  0
-7150.591817985.5391-5634.6172 N   0  0  0  0  0  0  0  0  0  0  0  0
-7152.176317985.0215-5636.4121 C   0  0  0  0  0  0  0  0  0  0  0  0
-7151.374017984.3574-5637.1060 O   0  0  0  0  0  0  0  0  0  0  0  0
-7153.337417985.4941-5637.0825 N   0  0  0  0  0  0  0  0  0  0  0  0
-7154.651417985.4805-5636.4624 C   0  0  1  0  0  0  0  0  0  0  0  0
-7155.490717984.4883-5637.2500 C   0  0  0  0  0  0  0  0  0  0  0  0
-7155.056617984.4180-5638.6738 C   0  0  0  0  0  0  0  0  0  0  0  0
-7153.992717985.0684-5639.2646 C   0  0  0  0  0  0  0  0  0  0  0  0
-7153.955117984.6934-5640.5527 N   0  0  0  0  0  0  0  0  0  0  0  0
-7154.961917983.8438-5640.7788 C   0  0  0  0  0  0  0  0  0  0  0  0
-7155.624017983.6719-5639.6328 N   0  0  0  0  0  0  0  0  0  0  0  0
-7154.526917985.1094-5635.0479 C   0  0  0  0  0  0  0  0  0  0  0  0
-7154.784217983.9375-5634.6758 O   0  0  0  0  0  0  0  0  0  0  0  0
-7154.122117986.0156-5634.0874 O   0  0  0  0  0  0  0  0  0  0  0  0
  2  4  1  0
  2  1  1  6
  3  2  1  0
  4  5  1  1
  6  4  1  0
  6  7  2  0
  9  8  1  0
  9 10  2  0
 11 12  1  0
 11  9  1  0
 13 12  1  6
 13 15  1  0
 13 14  1  0
 14  6  1  0
 15 17  1  0
 16 15  2  0
 17 18  1  0
 18 25  1  0
 18 19  1  6
 20 19  1  0
 21 20  2  0
 22 23  1  0
 22 21  1  0
 23 24  2  0
 24 20  1  0
 25 26  2  0
 25 27  1  0
M  END
$$$$
