VQH.pdb
     RDKit          3D

 27 27  0  0  1  0  0  0  0  0999 V2000
    8.8077  -12.5166   21.0064 C   0  0  0  0  0  0  0  0  0  0  0  0
    7.9601  -13.2865   20.0217 C   0  0  1  0  0  0  0  0  0  0  0  0
    7.6135  -12.4454   18.8282 C   0  0  0  0  0  0  0  0  0  0  0  0
    8.4652  -14.6490   19.7169 C   0  0  2  0  0  0  0  0  0  0  0  0
    7.5103  -15.2688   18.7957 N   0  0  0  0  0  0  0  0  0  0  0  0
    8.6157  -15.5635   20.8566 C   0  0  0  0  0  0  0  0  0  0  0  0
    7.5908  -16.1429   21.3650 O   0  0  0  0  0  0  0  0  0  0  0  0
   13.7337  -19.5791   23.4590 N   0  0  0  0  0  0  0  0  0  0  0  0
   12.5362  -19.6338   22.6888 C   0  0  0  0  0  0  0  0  0  0  0  0
   12.5516  -20.2868   21.6269 O   0  0  0  0  0  0  0  0  0  0  0  0
   11.3119  -18.9092   23.1809 C   0  0  0  0  0  0  0  0  0  0  0  0
   11.0930  -17.7655   22.2485 C   0  0  0  0  0  0  0  0  0  0  0  0
    9.9057  -16.9000   22.5639 C   0  0  2  0  0  0  0  0  0  0  0  0
    9.8349  -15.9046   21.5009 N   0  0  0  0  0  0  0  0  0  0  0  0
   10.0478  -16.3253   23.9006 C   0  0  0  0  0  0  0  0  0  0  0  0
   10.8794  -15.4429   24.2127 O   0  0  0  0  0  0  0  0  0  0  0  0
    9.1970  -16.7759   24.9496 N   0  0  0  0  0  0  0  0  0  0  0  0
    9.3285  -16.3037   26.3135 C   0  0  1  0  0  0  0  0  0  0  0  0
    7.9311  -15.9590   26.7893 C   0  0  0  0  0  0  0  0  0  0  0  0
    7.5427  -14.5696   26.3943 C   0  0  0  0  0  0  0  0  0  0  0  0
    8.3240  -13.6311   25.7656 C   0  0  0  0  0  0  0  0  0  0  0  0
    7.5785  -12.5299   25.6043 N   0  0  0  0  0  0  0  0  0  0  0  0
    6.3596  -12.7635   26.1159 C   0  0  0  0  0  0  0  0  0  0  0  0
    6.3441  -14.0077   26.5956 N   0  0  0  0  0  0  0  0  0  0  0  0
    9.9624  -17.3407   27.1340 C   0  0  0  0  0  0  0  0  0  0  0  0
   10.1725  -18.4808   26.6573 O   0  0  0  0  0  0  0  0  0  0  0  0
   10.3468  -17.1060   28.4437 O   0  0  0  0  0  0  0  0  0  0  0  0
  2  4  1  0
  2  1  1  6
  3  2  1  0
  4  5  1  6
  6  4  1  0
  6  7  2  0
  9  8  1  0
  9 10  2  0
 11 12  1  0
 11  9  1  0
 13 12  1  6
 13 15  1  0
 13 14  1  0
 14  6  1  0
 15 17  1  0
 16 15  2  0
 17 18  1  0
 18 25  1  0
 18 19  1  1
 20 19  1  0
 21 20  2  0
 22 23  1  0
 22 21  1  0
 23 24  2  0
 24 20  1  0
 25 26  2  0
 25 27  1  0
M  END
$$$$
