VQH.pdb
     RDKit          3D

 27 27  0  0  1  0  0  0  0  0999 V2000
    8.8949  -12.3781   18.7137 C   0  0  0  0  0  0  0  0  0  0  0  0
    8.9548  -13.1990   19.9800 C   0  0  1  0  0  0  0  0  0  0  0  0
    8.1741  -12.5509   21.0856 C   0  0  0  0  0  0  0  0  0  0  0  0
    8.6965  -14.6473   19.7805 C   0  0  2  0  0  0  0  0  0  0  0  0
    7.3508  -14.7736   19.2169 N   0  0  0  0  0  0  0  0  0  0  0  0
    8.7388  -15.4932   20.9808 C   0  0  0  0  0  0  0  0  0  0  0  0
    7.6528  -15.8945   21.5320 O   0  0  0  0  0  0  0  0  0  0  0  0
    8.6568  -20.5751   21.4504 N   0  0  0  0  0  0  0  0  0  0  0  0
    7.6065  -19.6124   21.4702 C   0  0  0  0  0  0  0  0  0  0  0  0
    6.4735  -19.9733   21.0957 O   0  0  0  0  0  0  0  0  0  0  0  0
    7.9016  -18.2120   21.9373 C   0  0  0  0  0  0  0  0  0  0  0  0
    9.3592  -18.1688   22.2522 C   0  0  0  0  0  0  0  0  0  0  0  0
    9.8610  -16.8557   22.7834 C   0  0  2  0  0  0  0  0  0  0  0  0
    9.9102  -15.9484   21.6431 N   0  0  0  0  0  0  0  0  0  0  0  0
   11.1524  -17.0443   23.4423 C   0  0  0  0  0  0  0  0  0  0  0  0
   11.7706  -18.1315   23.5015 O   0  0  0  0  0  0  0  0  0  0  0  0
   11.7841  -15.9353   24.0733 N   0  0  0  0  0  0  0  0  0  0  0  0
   11.7887  -15.7590   25.5117 C   0  0  1  0  0  0  0  0  0  0  0  0
   10.4204  -15.2256   25.8873 C   0  0  0  0  0  0  0  0  0  0  0  0
   10.2967  -15.0193   27.3636 C   0  0  0  0  0  0  0  0  0  0  0  0
   11.2489  -15.2620   28.3232 C   0  0  0  0  0  0  0  0  0  0  0  0
   10.7165  -14.9384   29.5091 N   0  0  0  0  0  0  0  0  0  0  0  0
    9.4628  -14.5031   29.3072 C   0  0  0  0  0  0  0  0  0  0  0  0
    9.2130  -14.5548   27.9983 N   0  0  0  0  0  0  0  0  0  0  0  0
   12.0922  -17.0374   26.1629 C   0  0  0  0  0  0  0  0  0  0  0  0
   11.4015  -18.0526   25.9112 O   0  0  0  0  0  0  0  0  0  0  0  0
   13.1346  -17.1712   27.0650 O   0  0  0  0  0  0  0  0  0  0  0  0
  2  4  1  0
  2  1  1  6
  3  2  1  0
  4  5  1  1
  6  4  1  0
  6  7  2  0
  9  8  1  0
  9 10  2  0
 11 12  1  0
 11  9  1  0
 13 12  1  6
 13 15  1  0
 13 14  1  0
 14  6  1  0
 15 17  1  0
 16 15  2  0
 17 18  1  0
 18 25  1  0
 18 19  1  1
 20 19  1  0
 21 20  2  0
 22 23  1  0
 22 21  1  0
 23 24  2  0
 24 20  1  0
 25 26  2  0
 25 27  1  0
M  END
$$$$
