VQH.pdb
     RDKit          3D

 27 27  0  0  1  0  0  0  0  0999 V2000
    8.9854  -12.5109   20.3313 C   0  0  0  0  0  0  0  0  0  0  0  0
    8.2261  -13.3034   19.2939 C   0  0  1  0  0  0  0  0  0  0  0  0
    6.9904  -12.5761   18.8511 C   0  0  0  0  0  0  0  0  0  0  0  0
    9.0724  -13.8468   18.2018 C   0  0  2  0  0  0  0  0  0  0  0  0
    8.1958  -14.6171   17.3171 N   0  0  0  0  0  0  0  0  0  0  0  0
   10.1678  -14.7399   18.6024 C   0  0  0  0  0  0  0  0  0  0  0  0
    9.9384  -15.9749   18.8604 O   0  0  0  0  0  0  0  0  0  0  0  0
   16.2200  -14.8575   17.1116 N   0  0  0  0  0  0  0  0  0  0  0  0
   16.2373  -15.0376   18.5249 C   0  0  0  0  0  0  0  0  0  0  0  0
   17.2605  -14.6915   19.1475 O   0  0  0  0  0  0  0  0  0  0  0  0
   15.0331  -15.6323   19.2050 C   0  0  0  0  0  0  0  0  0  0  0  0
   13.8488  -14.8713   18.7112 C   0  0  0  0  0  0  0  0  0  0  0  0
   12.5300  -15.2857   19.3005 C   0  0  2  0  0  0  0  0  0  0  0  0
   11.5338  -14.3771   18.7454 N   0  0  0  0  0  0  0  0  0  0  0  0
   12.6045  -15.2575   20.7603 C   0  0  0  0  0  0  0  0  0  0  0  0
   12.9607  -14.2662   21.4371 O   0  0  0  0  0  0  0  0  0  0  0  0
   12.2546  -16.4221   21.5010 N   0  0  0  0  0  0  0  0  0  0  0  0
   12.1465  -16.4202   22.9462 C   0  0  1  0  0  0  0  0  0  0  0  0
   11.1089  -17.4655   23.3044 C   0  0  0  0  0  0  0  0  0  0  0  0
    9.7366  -17.0456   22.8825 C   0  0  0  0  0  0  0  0  0  0  0  0
    9.3609  -15.8383   22.3463 C   0  0  0  0  0  0  0  0  0  0  0  0
    8.0421  -15.8928   22.1172 N   0  0  0  0  0  0  0  0  0  0  0  0
    7.5946  -17.1000   22.4972 C   0  0  0  0  0  0  0  0  0  0  0  0
    8.6316  -17.7976   22.9625 N   0  0  0  0  0  0  0  0  0  0  0  0
   13.4580  -16.7034   23.5379 C   0  0  0  0  0  0  0  0  0  0  0  0
   14.4022  -17.1019   22.8162 O   0  0  0  0  0  0  0  0  0  0  0  0
   13.7008  -16.5449   24.8922 O   0  0  0  0  0  0  0  0  0  0  0  0
  2  4  1  0
  2  1  1  6
  3  2  1  0
  4  5  1  6
  6  4  1  0
  6  7  2  0
  9  8  1  0
  9 10  2  0
 11 12  1  0
 11  9  1  0
 13 12  1  6
 13 15  1  0
 13 14  1  0
 14  6  1  0
 15 17  1  0
 16 15  2  0
 17 18  1  0
 18 25  1  0
 18 19  1  6
 20 19  1  0
 21 20  2  0
 22 23  1  0
 22 21  1  0
 23 24  2  0
 24 20  1  0
 25 26  2  0
 25 27  1  0
M  END
$$$$
