VQH.pdb
     RDKit          3D

 27 27  0  0  1  0  0  0  0  0999 V2000
    9.1628  -12.3721   20.1299 C   0  0  0  0  0  0  0  0  0  0  0  0
    8.4479  -13.2094   19.0960 C   0  0  1  0  0  0  0  0  0  0  0  0
    7.3468  -12.4335   18.4346 C   0  0  0  0  0  0  0  0  0  0  0  0
    9.3517  -13.9450   18.1760 C   0  0  2  0  0  0  0  0  0  0  0  0
    8.5068  -14.7461   17.2878 N   0  0  0  0  0  0  0  0  0  0  0  0
   10.3134  -14.8654   18.7971 C   0  0  0  0  0  0  0  0  0  0  0  0
    9.9396  -16.0266   19.1925 O   0  0  0  0  0  0  0  0  0  0  0  0
   16.6508  -15.7557   18.0548 N   0  0  0  0  0  0  0  0  0  0  0  0
   15.6915  -14.7786   17.6607 C   0  0  0  0  0  0  0  0  0  0  0  0
   16.1101  -13.7009   17.1942 O   0  0  0  0  0  0  0  0  0  0  0  0
   14.2255  -15.0812   17.8209 C   0  0  0  0  0  0  0  0  0  0  0  0
   13.9723  -15.1862   19.2874 C   0  0  0  0  0  0  0  0  0  0  0  0
   12.5719  -15.5749   19.6694 C   0  0  2  0  0  0  0  0  0  0  0  0
   11.6917  -14.6078   19.0244 N   0  0  0  0  0  0  0  0  0  0  0  0
   12.4428  -15.6096   21.1252 C   0  0  0  0  0  0  0  0  0  0  0  0
   12.5822  -14.6182   21.8772 O   0  0  0  0  0  0  0  0  0  0  0  0
   12.1373  -16.8412   21.7711 N   0  0  0  0  0  0  0  0  0  0  0  0
   11.8997  -16.9321   23.1978 C   0  0  1  0  0  0  0  0  0  0  0  0
   10.5701  -17.6390   23.3715 C   0  0  0  0  0  0  0  0  0  0  0  0
    9.4214  -16.7366   23.0496 C   0  0  0  0  0  0  0  0  0  0  0  0
    9.4744  -15.4083   22.7044 C   0  0  0  0  0  0  0  0  0  0  0  0
    8.2163  -14.9945   22.5029 N   0  0  0  0  0  0  0  0  0  0  0  0
    7.3894  -16.0307   22.7144 C   0  0  0  0  0  0  0  0  0  0  0  0
    8.1296  -17.0890   23.0471 N   0  0  0  0  0  0  0  0  0  0  0  0
   13.0069  -17.6515   23.8359 C   0  0  0  0  0  0  0  0  0  0  0  0
   13.9076  -18.1709   23.1359 O   0  0  0  0  0  0  0  0  0  0  0  0
   13.0995  -17.7832   25.2115 O   0  0  0  0  0  0  0  0  0  0  0  0
  2  4  1  0
  2  1  1  6
  3  2  1  0
  4  5  1  6
  6  4  1  0
  6  7  2  0
  9  8  1  0
  9 10  2  0
 11 12  1  0
 11  9  1  0
 13 12  1  1
 13 15  1  0
 13 14  1  0
 14  6  1  0
 15 17  1  0
 16 15  2  0
 17 18  1  0
 18 25  1  0
 18 19  1  6
 20 19  1  0
 21 20  2  0
 22 23  1  0
 22 21  1  0
 23 24  2  0
 24 20  1  0
 25 26  2  0
 25 27  1  0
M  END
$$$$
