VQH.pdb
     RDKit          3D

 27 27  0  0  1  0  0  0  0  0999 V2000
    7.3055  -11.9701   18.5572 C   0  0  0  0  0  0  0  0  0  0  0  0
    8.0641  -12.8101   19.5571 C   0  0  1  0  0  0  0  0  0  0  0  0
    7.3170  -12.9186   20.8541 C   0  0  0  0  0  0  0  0  0  0  0  0
    8.5823  -14.0895   19.0103 C   0  0  2  0  0  0  0  0  0  0  0  0
    7.4336  -14.8361   18.4930 N   0  0  0  0  0  0  0  0  0  0  0  0
    9.2771  -14.9738   19.9553 C   0  0  0  0  0  0  0  0  0  0  0  0
    8.6258  -15.8580   20.6173 O   0  0  0  0  0  0  0  0  0  0  0  0
   15.3247  -15.1659   18.8727 N   0  0  0  0  0  0  0  0  0  0  0  0
   14.8709  -15.4596   20.1911 C   0  0  0  0  0  0  0  0  0  0  0  0
   15.6011  -16.1593   20.9201 O   0  0  0  0  0  0  0  0  0  0  0  0
   13.5420  -14.9199   20.6484 C   0  0  0  0  0  0  0  0  0  0  0  0
   12.6539  -16.1005   20.8558 C   0  0  0  0  0  0  0  0  0  0  0  0
   11.2546  -15.7792   21.2994 C   0  0  2  0  0  0  0  0  0  0  0  0
   10.6690  -14.9670   20.2395 N   0  0  0  0  0  0  0  0  0  0  0  0
   11.2834  -15.1161   22.6019 C   0  0  0  0  0  0  0  0  0  0  0  0
   11.5908  -13.9163   22.7846 O   0  0  0  0  0  0  0  0  0  0  0  0
   10.9436  -15.8552   23.7705 N   0  0  0  0  0  0  0  0  0  0  0  0
   10.1562  -15.2879   24.8469 C   0  0  1  0  0  0  0  0  0  0  0  0
    8.8123  -14.9172   24.2518 C   0  0  0  0  0  0  0  0  0  0  0  0
    7.9212  -14.2719   25.2652 C   0  0  0  0  0  0  0  0  0  0  0  0
    8.2345  -13.9373   26.5599 C   0  0  0  0  0  0  0  0  0  0  0  0
    7.1444  -13.3833   27.1072 N   0  0  0  0  0  0  0  0  0  0  0  0
    6.1682  -13.3671   26.1859 C   0  0  0  0  0  0  0  0  0  0  0  0
    6.6476  -13.9097   25.0660 N   0  0  0  0  0  0  0  0  0  0  0  0
   10.0394  -16.2618   25.9370 C   0  0  0  0  0  0  0  0  0  0  0  0
    9.8745  -15.8710   27.1164 O   0  0  0  0  0  0  0  0  0  0  0  0
   10.1054  -17.6267   25.7107 O   0  0  0  0  0  0  0  0  0  0  0  0
  2  4  1  0
  2  1  1  6
  3  2  1  0
  4  5  1  1
  6  4  1  0
  6  7  2  0
  9  8  1  0
  9 10  2  0
 11 12  1  0
 11  9  1  0
 13 12  1  6
 13 15  1  0
 13 14  1  0
 14  6  1  0
 15 17  1  0
 16 15  2  0
 17 18  1  0
 18 25  1  0
 18 19  1  6
 20 19  1  0
 21 20  2  0
 22 23  1  0
 22 21  1  0
 23 24  2  0
 24 20  1  0
 25 26  2  0
 25 27  1  0
M  END
$$$$
