EIQ.pdb
     RDKit          3D

 27 26  0  0  1  0  0  0  0  0999 V2000
    8.3435  -18.0480   17.2316 N   0  0  0  0  0  0  0  0  0  0  0  0
    9.7682  -17.7944   17.4407 C   0  0  1  0  0  0  0  0  0  0  0  0
   10.3585  -17.2233   16.1800 C   0  0  0  0  0  0  0  0  0  0  0  0
   11.2147  -18.1828   15.4033 C   0  0  0  0  0  0  0  0  0  0  0  0
   11.8390  -17.6217   14.2012 C   0  0  0  0  0  0  0  0  0  0  0  0
   12.8170  -16.8461   14.2466 O   0  0  0  0  0  0  0  0  0  0  0  0
    9.9714  -16.8470   18.5576 C   0  0  0  0  0  0  0  0  0  0  0  0
   11.0836  -16.5016   19.0233 O   0  0  0  0  0  0  0  0  0  0  0  0
   11.3386  -17.9515   12.9270 O   0  0  0  0  0  0  0  0  0  0  0  0
    6.7760  -12.3546   19.4785 C   0  0  0  0  0  0  0  0  0  0  0  0
    7.8887  -13.3680   19.3121 C   0  0  0  0  0  0  0  0  0  0  0  0
    8.0200  -14.2626   20.5240 C   0  0  2  0  0  0  0  0  0  0  0  0
    8.2000  -13.4864   21.7941 C   0  0  0  0  0  0  0  0  0  0  0  0
    8.9877  -15.3760   20.3575 C   0  0  2  0  0  0  0  0  0  0  0  0
    8.8800  -16.2131   19.2358 N   0  0  0  0  0  0  0  0  0  0  0  0
    9.0471  -16.1823   21.6196 C   0  0  0  0  0  0  0  0  0  0  0  0
    8.3483  -17.2182   21.7879 O   0  0  0  0  0  0  0  0  0  0  0  0
   12.3490  -19.7043   21.0803 N   0  0  0  0  0  0  0  0  0  0  0  0
   11.5029  -20.2172   22.0786 C   0  0  0  0  0  0  0  0  0  0  0  0
   11.2940  -21.4354   22.2554 O   0  0  0  0  0  0  0  0  0  0  0  0
   10.8172  -19.2180   22.9781 C   0  0  0  0  0  0  0  0  0  0  0  0
   11.2825  -17.8337   22.6525 C   0  0  0  0  0  0  0  0  0  0  0  0
   10.6145  -16.8240   23.5109 C   0  0  2  0  0  0  0  0  0  0  0  0
    9.8992  -15.8228   22.7037 N   0  0  0  0  0  0  0  0  0  0  0  0
   11.4578  -16.1636   24.5222 C   0  0  0  0  0  0  0  0  0  0  0  0
   12.0073  -16.8223   25.4711 O   0  0  0  0  0  0  0  0  0  0  0  0
   11.7212  -14.8059   24.5274 O   0  0  0  0  0  0  0  0  0  0  0  0
  2  1  1  6
  2  3  1  0
  4  3  1  0
  4  5  1  0
  5  9  1  0
  6  5  2  0
  7 15  1  0
  7  2  1  0
  8  7  2  0
 11 10  1  0
 12 11  1  0
 12 13  1  1
 14 15  1  6
 14 12  1  0
 16 14  1  0
 17 16  2  0
 19 20  2  0
 19 18  1  0
 21 19  1  0
 22 21  1  0
 23 22  1  6
 23 24  1  0
 24 16  1  0
 25 23  1  0
 26 25  2  0
 27 25  1  0
M  END
$$$$
