EIQ.pdb
     RDKit          3D

 27 26  0  0  1  0  0  0  0  0999 V2000
    9.1079  -15.6707   20.3361 N   0  0  0  0  0  0  0  0  0  0  0  0
    8.5117  -16.2827   21.5225 C   0  0  1  0  0  0  0  0  0  0  0  0
    8.8455  -17.7497   21.5422 C   0  0  0  0  0  0  0  0  0  0  0  0
    8.4421  -18.4965   20.3024 C   0  0  0  0  0  0  0  0  0  0  0  0
    8.7610  -19.9276   20.3107 C   0  0  0  0  0  0  0  0  0  0  0  0
    9.5796  -20.4423   19.5201 O   0  0  0  0  0  0  0  0  0  0  0  0
    9.0215  -15.6410   22.7532 C   0  0  0  0  0  0  0  0  0  0  0  0
   10.2316  -15.5153   23.0584 O   0  0  0  0  0  0  0  0  0  0  0  0
    8.1354  -20.7844   21.2365 O   0  0  0  0  0  0  0  0  0  0  0  0
    7.4548  -11.5698   27.2185 C   0  0  0  0  0  0  0  0  0  0  0  0
    8.3521  -12.6659   26.6834 C   0  0  0  0  0  0  0  0  0  0  0  0
    7.7059  -13.4121   25.5379 C   0  0  2  0  0  0  0  0  0  0  0  0
    6.3139  -13.8660   25.8608 C   0  0  0  0  0  0  0  0  0  0  0  0
    8.5599  -14.4694   24.9407 C   0  0  2  0  0  0  0  0  0  0  0  0
    8.1520  -15.0837   23.7462 N   0  0  0  0  0  0  0  0  0  0  0  0
    8.8891  -15.4962   25.9819 C   0  0  0  0  0  0  0  0  0  0  0  0
    8.0306  -16.3113   26.4159 O   0  0  0  0  0  0  0  0  0  0  0  0
   14.0230  -18.6437   26.0919 N   0  0  0  0  0  0  0  0  0  0  0  0
   13.4991  -19.1511   27.2934 C   0  0  0  0  0  0  0  0  0  0  0  0
   14.0134  -20.0909   27.9348 O   0  0  0  0  0  0  0  0  0  0  0  0
   12.2403  -18.5067   27.8204 C   0  0  0  0  0  0  0  0  0  0  0  0
   11.8049  -17.4091   26.9015 C   0  0  0  0  0  0  0  0  0  0  0  0
   10.5863  -16.7314   27.4098 C   0  0  2  0  0  0  0  0  0  0  0  0
   10.1947  -15.6097   26.5415 N   0  0  0  0  0  0  0  0  0  0  0  0
   10.6136  -16.3062   28.8199 C   0  0  0  0  0  0  0  0  0  0  0  0
   10.6345  -15.0698   29.1473 O   0  0  0  0  0  0  0  0  0  0  0  0
   10.6164  -17.1902   29.8836 O   0  0  0  0  0  0  0  0  0  0  0  0
  2  1  1  6
  2  3  1  0
  4  3  1  0
  4  5  1  0
  5  9  1  0
  6  5  2  0
  7 15  1  0
  7  2  1  0
  8  7  2  0
 11 10  1  0
 12 11  1  0
 12 13  1  1
 14 15  1  6
 14 12  1  0
 16 14  1  0
 17 16  2  0
 19 20  2  0
 19 18  1  0
 21 19  1  0
 22 21  1  0
 23 22  1  6
 23 24  1  0
 24 16  1  0
 25 23  1  0
 26 25  2  0
 27 25  1  0
M  END
$$$$
