EIQ.pdb
     RDKit          3D

 27 26  0  0  1  0  0  0  0  0999 V2000
    8.0415  -13.8996   19.9616 N   0  0  0  0  0  0  0  0  0  0  0  0
    7.3853  -14.6554   21.0274 C   0  0  1  0  0  0  0  0  0  0  0  0
    7.4225  -16.1209   20.6886 C   0  0  0  0  0  0  0  0  0  0  0  0
    6.7080  -16.4843   19.4178 C   0  0  0  0  0  0  0  0  0  0  0  0
    6.6101  -17.9229   19.1526 C   0  0  0  0  0  0  0  0  0  0  0  0
    5.8050  -18.6674   19.7508 O   0  0  0  0  0  0  0  0  0  0  0  0
    8.0627  -14.4278   22.3219 C   0  0  0  0  0  0  0  0  0  0  0  0
    9.3038  -14.4361   22.5031 O   0  0  0  0  0  0  0  0  0  0  0  0
    7.4446  -18.5210   18.1890 O   0  0  0  0  0  0  0  0  0  0  0  0
    5.8403  -11.2527   26.4382 C   0  0  0  0  0  0  0  0  0  0  0  0
    6.6876  -11.9366   25.3860 C   0  0  0  0  0  0  0  0  0  0  0  0
    7.1874  -13.2843   25.8555 C   0  0  2  0  0  0  0  0  0  0  0  0
    7.9187  -13.2023   27.1618 C   0  0  0  0  0  0  0  0  0  0  0  0
    7.9013  -14.0658   24.8147 C   0  0  2  0  0  0  0  0  0  0  0  0
    7.3406  -14.1676   23.5318 N   0  0  0  0  0  0  0  0  0  0  0  0
    8.2469  -15.4211   25.3536 C   0  0  0  0  0  0  0  0  0  0  0  0
    7.3749  -16.3132   25.5362 O   0  0  0  0  0  0  0  0  0  0  0  0
   13.2137  -19.2307   23.9712 N   0  0  0  0  0  0  0  0  0  0  0  0
   12.9283  -17.8581   23.8699 C   0  0  0  0  0  0  0  0  0  0  0  0
   13.2753  -17.1445   22.9059 O   0  0  0  0  0  0  0  0  0  0  0  0
   12.1559  -17.2314   25.0049 C   0  0  0  0  0  0  0  0  0  0  0  0
   10.7797  -17.8151   25.0702 C   0  0  0  0  0  0  0  0  0  0  0  0
    9.9563  -17.1413   26.1048 C   0  0  2  0  0  0  0  0  0  0  0  0
    9.5844  -15.7790   25.6909 N   0  0  0  0  0  0  0  0  0  0  0  0
   10.5021  -17.1331   27.4730 C   0  0  0  0  0  0  0  0  0  0  0  0
   10.8196  -18.2163   28.0749 O   0  0  0  0  0  0  0  0  0  0  0  0
   10.7141  -15.9778   28.2031 O   0  0  0  0  0  0  0  0  0  0  0  0
  2  1  1  6
  2  3  1  0
  4  3  1  0
  4  5  1  0
  5  9  1  0
  6  5  2  0
  7 15  1  0
  7  2  1  0
  8  7  2  0
 11 10  1  0
 12 11  1  0
 12 13  1  1
 14 15  1  6
 14 12  1  0
 16 14  1  0
 17 16  2  0
 19 20  2  0
 19 18  1  0
 21 19  1  0
 22 21  1  0
 23 22  1  6
 23 24  1  0
 24 16  1  0
 25 23  1  0
 26 25  2  0
 27 25  1  0
M  END
$$$$
