EIQ.pdb
     RDKit          3D

 27 26  0  0  1  0  0  0  0  0999 V2000
    8.7129  -15.3627   20.1909 N   0  0  0  0  0  0  0  0  0  0  0  0
    7.9163  -15.7840   21.3423 C   0  0  1  0  0  0  0  0  0  0  0  0
    7.9356  -17.2857   21.4335 C   0  0  0  0  0  0  0  0  0  0  0  0
    8.2784  -17.9830   20.1475 C   0  0  0  0  0  0  0  0  0  0  0  0
    8.2182  -19.4469   20.2022 C   0  0  0  0  0  0  0  0  0  0  0  0
    7.3881  -20.1141   19.5495 O   0  0  0  0  0  0  0  0  0  0  0  0
    8.4559  -15.2039   22.5908 C   0  0  0  0  0  0  0  0  0  0  0  0
    9.6675  -15.1772   22.9145 O   0  0  0  0  0  0  0  0  0  0  0  0
    9.1200  -20.1602   21.0150 O   0  0  0  0  0  0  0  0  0  0  0  0
    6.8536  -11.3342   27.2791 C   0  0  0  0  0  0  0  0  0  0  0  0
    7.8071  -12.3123   26.6259 C   0  0  0  0  0  0  0  0  0  0  0  0
    7.1549  -13.0533   25.4805 C   0  0  2  0  0  0  0  0  0  0  0  0
    5.8345  -13.6526   25.8620 C   0  0  0  0  0  0  0  0  0  0  0  0
    8.0582  -13.9922   24.7691 C   0  0  2  0  0  0  0  0  0  0  0  0
    7.6173  -14.5972   23.5816 N   0  0  0  0  0  0  0  0  0  0  0  0
    8.5723  -15.0202   25.7312 C   0  0  0  0  0  0  0  0  0  0  0  0
    7.8453  -15.9528   26.1688 O   0  0  0  0  0  0  0  0  0  0  0  0
   14.3816  -16.7546   25.8932 N   0  0  0  0  0  0  0  0  0  0  0  0
   13.4815  -16.5782   24.8282 C   0  0  0  0  0  0  0  0  0  0  0  0
   13.8159  -16.5892   23.6253 O   0  0  0  0  0  0  0  0  0  0  0  0
   12.0304  -16.3644   25.1834 C   0  0  0  0  0  0  0  0  0  0  0  0
   11.8558  -16.4093   26.6688 C   0  0  0  0  0  0  0  0  0  0  0  0
   10.4654  -16.0678   27.0593 C   0  0  2  0  0  0  0  0  0  0  0  0
    9.9153  -15.0017   26.2069 N   0  0  0  0  0  0  0  0  0  0  0  0
   10.2426  -15.7566   28.4818 C   0  0  0  0  0  0  0  0  0  0  0  0
   10.5222  -16.5976   29.4042 O   0  0  0  0  0  0  0  0  0  0  0  0
    9.7259  -14.5537   28.9280 O   0  0  0  0  0  0  0  0  0  0  0  0
  2  1  1  6
  2  3  1  0
  4  3  1  0
  4  5  1  0
  5  9  1  0
  6  5  2  0
  7 15  1  0
  7  2  1  0
  8  7  2  0
 11 10  1  0
 12 11  1  0
 12 13  1  1
 14 15  1  6
 14 12  1  0
 16 14  1  0
 17 16  2  0
 19 20  2  0
 19 18  1  0
 21 19  1  0
 22 21  1  0
 23 22  1  1
 23 24  1  0
 24 16  1  0
 25 23  1  0
 26 25  2  0
 27 25  1  0
M  END
$$$$
