EIQ.pdb
     RDKit          3D

 27 26  0  0  1  0  0  0  0  0999 V2000
    6.5773  -16.3866   21.5191 N   0  0  0  0  0  0  0  0  0  0  0  0
    8.0370  -16.4259   21.5940 C   0  0  1  0  0  0  0  0  0  0  0  0
    8.6095  -16.1294   20.2345 C   0  0  0  0  0  0  0  0  0  0  0  0
    7.7912  -16.6506   19.0874 C   0  0  0  0  0  0  0  0  0  0  0  0
    8.3453  -16.3779   17.7576 C   0  0  0  0  0  0  0  0  0  0  0  0
    9.4515  -15.8236   17.5869 O   0  0  0  0  0  0  0  0  0  0  0  0
    8.5365  -15.4340   22.5702 C   0  0  0  0  0  0  0  0  0  0  0  0
    9.6806  -14.9199   22.5619 O   0  0  0  0  0  0  0  0  0  0  0  0
    7.6248  -16.7438   16.6045 O   0  0  0  0  0  0  0  0  0  0  0  0
    5.7712  -11.5691   25.5591 C   0  0  0  0  0  0  0  0  0  0  0  0
    6.7307  -12.4285   24.7632 C   0  0  0  0  0  0  0  0  0  0  0  0
    7.4035  -13.4696   25.6291 C   0  0  2  0  0  0  0  0  0  0  0  0
    8.1139  -12.8673   26.8041 C   0  0  0  0  0  0  0  0  0  0  0  0
    8.2177  -14.4556   24.8750 C   0  0  2  0  0  0  0  0  0  0  0  0
    7.7336  -14.9504   23.6538 N   0  0  0  0  0  0  0  0  0  0  0  0
    8.6148  -15.5789   25.7845 C   0  0  0  0  0  0  0  0  0  0  0  0
    7.7845  -16.4322   26.1994 O   0  0  0  0  0  0  0  0  0  0  0  0
   13.4071  -18.5467   23.4308 N   0  0  0  0  0  0  0  0  0  0  0  0
   13.1479  -17.7110   24.5307 C   0  0  0  0  0  0  0  0  0  0  0  0
   14.0157  -17.0104   25.0921 O   0  0  0  0  0  0  0  0  0  0  0  0
   11.7301  -17.6742   25.0466 C   0  0  0  0  0  0  0  0  0  0  0  0
   11.7285  -17.4019   26.5179 C   0  0  0  0  0  0  0  0  0  0  0  0
   10.3971  -16.9361   26.9790 C   0  0  2  0  0  0  0  0  0  0  0  0
    9.9570  -15.7464   26.2329 N   0  0  0  0  0  0  0  0  0  0  0  0
   10.2447  -16.7209   28.4284 C   0  0  0  0  0  0  0  0  0  0  0  0
   10.0069  -15.5611   28.9128 O   0  0  0  0  0  0  0  0  0  0  0  0
   10.3416  -17.7342   29.3647 O   0  0  0  0  0  0  0  0  0  0  0  0
  2  1  1  6
  2  3  1  0
  4  3  1  0
  4  5  1  0
  5  9  1  0
  6  5  2  0
  7 15  1  0
  7  2  1  0
  8  7  2  0
 11 10  1  0
 12 11  1  0
 12 13  1  1
 14 15  1  6
 14 12  1  0
 16 14  1  0
 17 16  2  0
 19 20  2  0
 19 18  1  0
 21 19  1  0
 22 21  1  0
 23 22  1  1
 23 24  1  0
 24 16  1  0
 25 23  1  0
 26 25  2  0
 27 25  1  0
M  END
$$$$
