EIQ.pdb
     RDKit          3D

 27 26  0  0  1  0  0  0  0  0999 V2000
    6.8157  -15.1942   19.8393 N   0  0  0  0  0  0  0  0  0  0  0  0
    6.4726  -15.6981   21.1683 C   0  0  1  0  0  0  0  0  0  0  0  0
    6.5775  -17.1990   21.1697 C   0  0  0  0  0  0  0  0  0  0  0  0
    7.8483  -17.7347   20.5735 C   0  0  0  0  0  0  0  0  0  0  0  0
    7.9400  -19.1972   20.5235 C   0  0  0  0  0  0  0  0  0  0  0  0
    8.9463  -19.7970   20.0902 O   0  0  0  0  0  0  0  0  0  0  0  0
    7.3812  -15.1360   22.1904 C   0  0  0  0  0  0  0  0  0  0  0  0
    8.5959  -14.8752   22.0172 O   0  0  0  0  0  0  0  0  0  0  0  0
    6.8657  -19.9873   20.9753 O   0  0  0  0  0  0  0  0  0  0  0  0
    7.2738  -11.6739   27.3782 C   0  0  0  0  0  0  0  0  0  0  0  0
    8.0083  -12.5659   26.3998 C   0  0  0  0  0  0  0  0  0  0  0  0
    7.0545  -13.3130   25.4950 C   0  0  2  0  0  0  0  0  0  0  0  0
    5.9392  -13.9690   26.2527 C   0  0  0  0  0  0  0  0  0  0  0  0
    7.7194  -14.2047   24.5119 C   0  0  2  0  0  0  0  0  0  0  0  0
    6.9450  -14.8258   23.5194 N   0  0  0  0  0  0  0  0  0  0  0  0
    8.5624  -15.2104   25.2363 C   0  0  0  0  0  0  0  0  0  0  0  0
    8.0820  -16.2807   25.6983 O   0  0  0  0  0  0  0  0  0  0  0  0
   14.5166  -15.8952   23.8625 N   0  0  0  0  0  0  0  0  0  0  0  0
   14.4159  -16.9451   24.7915 C   0  0  0  0  0  0  0  0  0  0  0  0
   15.3319  -17.7623   25.0200 O   0  0  0  0  0  0  0  0  0  0  0  0
   13.1149  -17.0729   25.5456 C   0  0  0  0  0  0  0  0  0  0  0  0
   12.1896  -15.9620   25.1602 C   0  0  0  0  0  0  0  0  0  0  0  0
   10.8645  -16.1130   25.8113 C   0  0  2  0  0  0  0  0  0  0  0  0
    9.9582  -15.0131   25.4444 N   0  0  0  0  0  0  0  0  0  0  0  0
   10.8711  -16.3100   27.2711 C   0  0  0  0  0  0  0  0  0  0  0  0
   11.0423  -15.3330   28.0790 O   0  0  0  0  0  0  0  0  0  0  0  0
   10.6939  -17.5411   27.8758 O   0  0  0  0  0  0  0  0  0  0  0  0
  2  1  1  6
  2  3  1  0
  4  3  1  0
  4  5  1  0
  5  9  1  0
  6  5  2  0
  7 15  1  0
  7  2  1  0
  8  7  2  0
 11 10  1  0
 12 11  1  0
 12 13  1  1
 14 15  1  1
 14 12  1  0
 16 14  1  0
 17 16  2  0
 19 20  2  0
 19 18  1  0
 21 19  1  0
 22 21  1  0
 23 22  1  1
 23 24  1  0
 24 16  1  0
 25 23  1  0
 26 25  2  0
 27 25  1  0
M  END
$$$$
