EIQ.pdb
     RDKit          3D

 27 26  0  0  1  0  0  0  0  0999 V2000
   11.1217  -17.3084   16.1278 N   0  0  0  0  0  0  0  0  0  0  0  0
    9.8423  -17.1313   16.8131 C   0  0  1  0  0  0  0  0  0  0  0  0
    9.1847  -18.4734   16.9862 C   0  0  0  0  0  0  0  0  0  0  0  0
   10.1270  -19.5862   17.3485 C   0  0  0  0  0  0  0  0  0  0  0  0
    9.5059  -20.7257   18.0307 C   0  0  0  0  0  0  0  0  0  0  0  0
   10.1448  -21.7479   18.3578 O   0  0  0  0  0  0  0  0  0  0  0  0
   10.0415  -16.5017   18.1361 C   0  0  0  0  0  0  0  0  0  0  0  0
   11.1266  -16.4595   18.7639 O   0  0  0  0  0  0  0  0  0  0  0  0
    8.1335  -20.6975   18.3444 O   0  0  0  0  0  0  0  0  0  0  0  0
    6.6779  -12.2314   19.7538 C   0  0  0  0  0  0  0  0  0  0  0  0
    7.8172  -13.1549   19.3772 C   0  0  0  0  0  0  0  0  0  0  0  0
    8.0941  -14.1755   20.4580 C   0  0  2  0  0  0  0  0  0  0  0  0
    8.3404  -13.5433   21.7951 C   0  0  0  0  0  0  0  0  0  0  0  0
    9.0993  -15.2018   20.0838 C   0  0  2  0  0  0  0  0  0  0  0  0
    8.9780  -15.8591   18.8494 N   0  0  0  0  0  0  0  0  0  0  0  0
    9.2471  -16.1903   21.2009 C   0  0  0  0  0  0  0  0  0  0  0  0
    8.5963  -17.2698   21.2324 O   0  0  0  0  0  0  0  0  0  0  0  0
   13.8779  -18.6400   20.2552 N   0  0  0  0  0  0  0  0  0  0  0  0
   13.0315  -19.5855   20.8596 C   0  0  0  0  0  0  0  0  0  0  0  0
   13.1795  -20.8207   20.7530 O   0  0  0  0  0  0  0  0  0  0  0  0
   11.8826  -19.0533   21.6810 C   0  0  0  0  0  0  0  0  0  0  0  0
   11.8516  -17.5592   21.6085 C   0  0  0  0  0  0  0  0  0  0  0  0
   11.0987  -16.9791   22.7483 C   0  0  2  0  0  0  0  0  0  0  0  0
   10.1339  -15.9653   22.2934 N   0  0  0  0  0  0  0  0  0  0  0  0
   11.9031  -16.4592   23.8675 C   0  0  0  0  0  0  0  0  0  0  0  0
   12.6259  -17.2297   24.5887 O   0  0  0  0  0  0  0  0  0  0  0  0
   11.9441  -15.1229   24.2217 O   0  0  0  0  0  0  0  0  0  0  0  0
  2  1  1  1
  2  3  1  0
  4  3  1  0
  4  5  1  0
  5  9  1  0
  6  5  2  0
  7 15  1  0
  7  2  1  0
  8  7  2  0
 11 10  1  0
 12 11  1  0
 12 13  1  1
 14 15  1  6
 14 12  1  0
 16 14  1  0
 17 16  2  0
 19 20  2  0
 19 18  1  0
 21 19  1  0
 22 21  1  0
 23 22  1  6
 23 24  1  0
 24 16  1  0
 25 23  1  0
 26 25  2  0
 27 25  1  0
M  END
$$$$
