EIQ.pdb
     RDKit          3D

 27 26  0  0  1  0  0  0  0  0999 V2000
    9.3613  -15.4995   20.4987 N   0  0  0  0  0  0  0  0  0  0  0  0
    8.4187  -15.8335   21.5654 C   0  0  1  0  0  0  0  0  0  0  0  0
    8.3309  -17.3298   21.6963 C   0  0  0  0  0  0  0  0  0  0  0  0
    9.5376  -18.0705   21.1938 C   0  0  0  0  0  0  0  0  0  0  0  0
    9.4499  -19.5312   21.2860 C   0  0  0  0  0  0  0  0  0  0  0  0
    9.0179  -20.2426   20.3546 O   0  0  0  0  0  0  0  0  0  0  0  0
    8.8558  -15.2475   22.8506 C   0  0  0  0  0  0  0  0  0  0  0  0
   10.0449  -15.1537   23.2387 O   0  0  0  0  0  0  0  0  0  0  0  0
    9.8620  -20.1899   22.4602 O   0  0  0  0  0  0  0  0  0  0  0  0
    6.8563  -11.3043   27.2787 C   0  0  0  0  0  0  0  0  0  0  0  0
    7.8729  -12.2878   26.7382 C   0  0  0  0  0  0  0  0  0  0  0  0
    7.2976  -13.1372   25.6272 C   0  0  2  0  0  0  0  0  0  0  0  0
    6.0010  -13.7844   26.0118 C   0  0  0  0  0  0  0  0  0  0  0  0
    8.2725  -14.0674   25.0043 C   0  0  2  0  0  0  0  0  0  0  0  0
    7.9309  -14.7135   23.8058 N   0  0  0  0  0  0  0  0  0  0  0  0
    8.7457  -15.0567   26.0262 C   0  0  0  0  0  0  0  0  0  0  0  0
    8.1035  -16.1094   26.2890 O   0  0  0  0  0  0  0  0  0  0  0  0
   13.8394  -17.6670   25.7216 N   0  0  0  0  0  0  0  0  0  0  0  0
   13.5182  -18.2184   26.9739 C   0  0  0  0  0  0  0  0  0  0  0  0
   14.1534  -19.1520   27.5068 O   0  0  0  0  0  0  0  0  0  0  0  0
   12.3318  -17.6316   27.6991 C   0  0  0  0  0  0  0  0  0  0  0  0
   11.7523  -16.5051   26.9030 C   0  0  0  0  0  0  0  0  0  0  0  0
   10.5605  -15.9279   27.5730 C   0  0  2  0  0  0  0  0  0  0  0  0
    9.9515  -14.8629   26.7603 N   0  0  0  0  0  0  0  0  0  0  0  0
   10.7461  -15.4738   28.9620 C   0  0  0  0  0  0  0  0  0  0  0  0
   11.0641  -16.2871   29.8967 O   0  0  0  0  0  0  0  0  0  0  0  0
   10.5975  -14.1579   29.3610 O   0  0  0  0  0  0  0  0  0  0  0  0
  2  1  1  6
  2  3  1  0
  4  3  1  0
  4  5  1  0
  5  9  1  0
  6  5  2  0
  7 15  1  0
  7  2  1  0
  8  7  2  0
 11 10  1  0
 12 11  1  0
 12 13  1  1
 14 15  1  6
 14 12  1  0
 16 14  1  0
 17 16  2  0
 19 20  2  0
 19 18  1  0
 21 19  1  0
 22 21  1  0
 23 22  1  6
 23 24  1  0
 24 16  1  0
 25 23  1  0
 26 25  2  0
 27 25  1  0
M  END
$$$$
