EIQ.pdb
     RDKit          3D

 27 26  0  0  1  0  0  0  0  0999 V2000
    9.5282  -17.8192   16.1847 N   0  0  0  0  0  0  0  0  0  0  0  0
    8.9795  -18.1650   17.4951 C   0  0  1  0  0  0  0  0  0  0  0  0
    9.4036  -19.5630   17.8549 C   0  0  0  0  0  0  0  0  0  0  0  0
    8.6816  -20.6453   17.1035 C   0  0  0  0  0  0  0  0  0  0  0  0
    9.0784  -22.0125   17.4541 C   0  0  0  0  0  0  0  0  0  0  0  0
    8.2715  -22.8591   17.8929 O   0  0  0  0  0  0  0  0  0  0  0  0
    9.4575  -17.2201   18.5271 C   0  0  0  0  0  0  0  0  0  0  0  0
   10.6582  -17.0263   18.8336 O   0  0  0  0  0  0  0  0  0  0  0  0
   10.4176  -22.4196   17.3014 O   0  0  0  0  0  0  0  0  0  0  0  0
    6.6794  -12.4609   19.9386 C   0  0  0  0  0  0  0  0  0  0  0  0
    7.7380  -13.4769   19.5646 C   0  0  0  0  0  0  0  0  0  0  0  0
    8.0379  -14.4222   20.7061 C   0  0  2  0  0  0  0  0  0  0  0  0
    8.4417  -13.7016   21.9574 C   0  0  0  0  0  0  0  0  0  0  0  0
    8.9348  -15.5486   20.3448 C   0  0  2  0  0  0  0  0  0  0  0  0
    8.5638  -16.4096   19.3000 N   0  0  0  0  0  0  0  0  0  0  0  0
    9.2844  -16.3270   21.5772 C   0  0  0  0  0  0  0  0  0  0  0  0
    8.4488  -17.0674   22.1630 O   0  0  0  0  0  0  0  0  0  0  0  0
   13.2638  -20.6010   22.1892 N   0  0  0  0  0  0  0  0  0  0  0  0
   13.4856  -20.0105   23.4453 C   0  0  0  0  0  0  0  0  0  0  0  0
   14.4774  -20.2546   24.1636 O   0  0  0  0  0  0  0  0  0  0  0  0
   12.4510  -19.0267   23.9344 C   0  0  0  0  0  0  0  0  0  0  0  0
   12.0092  -18.1471   22.8074 C   0  0  0  0  0  0  0  0  0  0  0  0
   10.9945  -17.1621   23.2574 C   0  0  2  0  0  0  0  0  0  0  0  0
   10.5846  -16.2740   22.1579 N   0  0  0  0  0  0  0  0  0  0  0  0
   11.3323  -16.3756   24.4563 C   0  0  0  0  0  0  0  0  0  0  0  0
   11.3053  -16.8916   25.6265 O   0  0  0  0  0  0  0  0  0  0  0  0
   11.7011  -15.0432   24.4160 O   0  0  0  0  0  0  0  0  0  0  0  0
  2  1  1  6
  2  3  1  0
  4  3  1  0
  4  5  1  0
  5  9  1  0
  6  5  2  0
  7 15  1  0
  7  2  1  0
  8  7  2  0
 11 10  1  0
 12 11  1  0
 12 13  1  1
 14 15  1  6
 14 12  1  0
 16 14  1  0
 17 16  2  0
 19 20  2  0
 19 18  1  0
 21 19  1  0
 22 21  1  0
 23 22  1  6
 23 24  1  0
 24 16  1  0
 25 23  1  0
 26 25  2  0
 27 25  1  0
M  END
$$$$
