ENV.pdb
     RDKit          3D

 25 24  0  0  1  0  0  0  0  0999 V2000
   20.6755  -18.2258  -15.6636 N   0  0  0  0  0  0  0  0  0  0  0  0
   20.2624  -18.9917  -14.5307 C   0  0  1  0  0  0  0  0  0  0  0  0
   19.0949  -19.8807  -14.7720 C   0  0  0  0  0  0  0  0  0  0  0  0
   18.6184  -20.0448  -16.1628 C   0  0  0  0  0  0  0  0  0  0  0  0
   17.8067  -18.9308  -16.6328 C   0  0  0  0  0  0  0  0  0  0  0  0
   16.7893  -18.4449  -16.1126 O   0  0  0  0  0  0  0  0  0  0  0  0
   21.4110  -19.9107  -14.1655 C   0  0  0  0  0  0  0  0  0  0  0  0
   21.2820  -20.6305  -13.1679 O   0  0  0  0  0  0  0  0  0  0  0  0
   18.2120  -18.3083  -17.8343 O   0  0  0  0  0  0  0  0  0  0  0  0
   25.8488  -23.0531  -15.3225 N   0  0  0  0  0  0  0  0  0  0  0  0
   25.8823  -21.6423  -15.3786 C   0  0  0  0  0  0  0  0  0  0  0  0
   26.9184  -21.0325  -15.0924 O   0  0  0  0  0  0  0  0  0  0  0  0
   24.6610  -20.9143  -15.7839 C   0  0  0  0  0  0  0  0  0  0  0  0
   23.7173  -20.7223  -14.6443 C   0  0  2  0  0  0  0  0  0  0  0  0
   22.5792  -19.9226  -14.9597 N   0  0  0  0  0  0  0  0  0  0  0  0
   24.4879  -20.2154  -13.4558 C   0  0  0  0  0  0  0  0  0  0  0  0
   24.6109  -18.9868  -13.3291 O   0  0  0  0  0  0  0  0  0  0  0  0
   23.7122  -20.4876  -10.0909 C   0  0  0  0  0  0  0  0  0  0  0  0
   25.1132  -21.0056  -10.0722 C   0  0  2  0  0  0  0  0  0  0  0  0
   25.9365  -20.4999   -8.9182 C   0  0  0  0  0  0  0  0  0  0  0  0
   25.7945  -20.6738  -11.3780 C   0  0  2  0  0  0  0  0  0  0  0  0
   25.0480  -21.1234  -12.5208 N   0  0  0  0  0  0  0  0  0  0  0  0
   27.1429  -21.2885  -11.3962 C   0  0  0  0  0  0  0  0  0  0  0  0
   27.3732  -22.4595  -11.7830 O   0  0  0  0  0  0  0  0  0  0  0  0
   28.2585  -20.5557  -10.9647 O   0  0  0  0  0  0  0  0  0  0  0  0
  2  1  1  6
  2  7  1  0
  3  4  1  0
  3  2  1  0
  5  4  1  0
  6  5  2  0
  7  8  2  0
  9  5  1  0
 11 10  1  0
 11 12  2  0
 14 13  1  6
 13 11  1  0
 15  7  1  0
 15 14  1  0
 16 14  1  0
 16 17  2  0
 19 18  1  6
 19 21  1  0
 20 19  1  0
 21 23  1  0
 21 22  1  6
 22 16  1  0
 23 25  1  0
 24 23  2  0
M  END
$$$$
