ENV.pdb
     RDKit          3D

 25 24  0  0  1  0  0  0  0  0999 V2000
   16.8948  -12.3187  -15.9381 N   0  0  0  0  0  0  0  0  0  0  0  0
   17.0009  -11.2226  -16.8480 C   0  0  1  0  0  0  0  0  0  0  0  0
   15.7029  -10.6148  -17.2451 C   0  0  0  0  0  0  0  0  0  0  0  0
   14.8909  -11.3097  -18.2678 C   0  0  0  0  0  0  0  0  0  0  0  0
   14.8771  -12.7575  -18.1118 C   0  0  0  0  0  0  0  0  0  0  0  0
   15.7777  -13.5700  -18.3774 O   0  0  0  0  0  0  0  0  0  0  0  0
   17.7707  -10.1243  -16.1420 C   0  0  0  0  0  0  0  0  0  0  0  0
   17.4782   -9.8761  -14.9661 O   0  0  0  0  0  0  0  0  0  0  0  0
   13.6957  -13.3322  -17.5927 O   0  0  0  0  0  0  0  0  0  0  0  0
   20.9725   -6.4403  -14.9490 N   0  0  0  0  0  0  0  0  0  0  0  0
   21.7181   -7.3991  -15.6697 C   0  0  0  0  0  0  0  0  0  0  0  0
   22.9499   -7.3154  -15.7265 O   0  0  0  0  0  0  0  0  0  0  0  0
   21.0004   -8.4979  -16.3503 C   0  0  0  0  0  0  0  0  0  0  0  0
   19.5193   -8.3526  -16.2430 C   0  0  2  0  0  0  0  0  0  0  0  0
   18.7853   -9.4243  -16.8320 N   0  0  0  0  0  0  0  0  0  0  0  0
   19.1243   -7.0010  -16.7729 C   0  0  0  0  0  0  0  0  0  0  0  0
   19.2165   -6.8113  -17.9961 O   0  0  0  0  0  0  0  0  0  0  0  0
   15.8265   -5.3599  -16.0806 C   0  0  0  0  0  0  0  0  0  0  0  0
   16.8606   -4.3333  -15.7518 C   0  0  2  0  0  0  0  0  0  0  0  0
   16.4888   -2.9358  -16.1691 C   0  0  0  0  0  0  0  0  0  0  0  0
   18.1797   -4.7246  -16.3731 C   0  0  2  0  0  0  0  0  0  0  0  0
   18.6639   -5.9892  -15.8918 N   0  0  0  0  0  0  0  0  0  0  0  0
   19.1843   -3.6719  -16.0918 C   0  0  0  0  0  0  0  0  0  0  0  0
   19.1968   -2.5488  -16.6508 O   0  0  0  0  0  0  0  0  0  0  0  0
   20.2006   -3.8993  -15.1520 O   0  0  0  0  0  0  0  0  0  0  0  0
  2  1  1  1
  2  7  1  0
  3  4  1  0
  3  2  1  0
  5  4  1  0
  6  5  2  0
  7  8  2  0
  9  5  1  0
 11 10  1  0
 11 12  2  0
 14 13  1  6
 13 11  1  0
 15  7  1  0
 15 14  1  0
 16 14  1  0
 16 17  2  0
 19 18  1  6
 19 21  1  0
 20 19  1  0
 21 23  1  0
 21 22  1  1
 22 16  1  0
 23 25  1  0
 24 23  2  0
M  END
$$$$
