ENV.pdb
     RDKit          3D

 25 24  0  0  1  0  0  0  0  0999 V2000
   21.8616  -12.2303  -16.1759 N   0  0  0  0  0  0  0  0  0  0  0  0
   21.1023  -11.8646  -17.3293 C   0  0  1  0  0  0  0  0  0  0  0  0
   20.0088  -12.8095  -17.6804 C   0  0  0  0  0  0  0  0  0  0  0  0
   19.1233  -13.2862  -16.5956 C   0  0  0  0  0  0  0  0  0  0  0  0
   18.1001  -14.2177  -17.0495 C   0  0  0  0  0  0  0  0  0  0  0  0
   17.4594  -14.2007  -18.1130 O   0  0  0  0  0  0  0  0  0  0  0  0
   20.4229  -10.5452  -17.0213 C   0  0  0  0  0  0  0  0  0  0  0  0
   19.8818   -9.9406  -17.9549 O   0  0  0  0  0  0  0  0  0  0  0  0
   17.7800  -15.2861  -16.1826 O   0  0  0  0  0  0  0  0  0  0  0  0
   17.0163   -7.0629  -14.3900 N   0  0  0  0  0  0  0  0  0  0  0  0
   18.2901   -7.5007  -13.9652 C   0  0  0  0  0  0  0  0  0  0  0  0
   18.9988   -6.7682  -13.2663 O   0  0  0  0  0  0  0  0  0  0  0  0
   18.7558   -8.8440  -14.3708 C   0  0  0  0  0  0  0  0  0  0  0  0
   19.8766   -8.7769  -15.3534 C   0  0  2  0  0  0  0  0  0  0  0  0
   20.4240  -10.0477  -15.6991 N   0  0  0  0  0  0  0  0  0  0  0  0
   20.9073   -7.8041  -14.8488 C   0  0  0  0  0  0  0  0  0  0  0  0
   21.7097   -8.2065  -13.9915 O   0  0  0  0  0  0  0  0  0  0  0  0
   23.0174   -5.8498  -17.2753 C   0  0  0  0  0  0  0  0  0  0  0  0
   22.5460   -4.8579  -16.2628 C   0  0  2  0  0  0  0  0  0  0  0  0
   23.5898   -3.8505  -15.8619 C   0  0  0  0  0  0  0  0  0  0  0  0
   22.0322   -5.5834  -15.0426 C   0  0  2  0  0  0  0  0  0  0  0  0
   20.9477   -6.4762  -15.3461 N   0  0  0  0  0  0  0  0  0  0  0  0
   21.5879   -4.5917  -14.0348 C   0  0  0  0  0  0  0  0  0  0  0  0
   20.4255   -4.1231  -13.9789 O   0  0  0  0  0  0  0  0  0  0  0  0
   22.4855   -4.1199  -13.0655 O   0  0  0  0  0  0  0  0  0  0  0  0
  2  1  1  1
  2  7  1  0
  3  4  1  0
  3  2  1  0
  5  4  1  0
  6  5  2  0
  7  8  2  0
  9  5  1  0
 11 10  1  0
 11 12  2  0
 14 13  1  1
 13 11  1  0
 15  7  1  0
 15 14  1  0
 16 14  1  0
 16 17  2  0
 19 18  1  6
 19 21  1  0
 20 19  1  0
 21 23  1  0
 21 22  1  6
 22 16  1  0
 23 25  1  0
 24 23  2  0
M  END
$$$$
