ENV.pdb
     RDKit          3D

 25 24  0  0  1  0  0  0  0  0999 V2000
   17.5776  -11.6245  -18.6112 N   0  0  0  0  0  0  0  0  0  0  0  0
   17.4275  -11.5759  -17.1914 C   0  0  1  0  0  0  0  0  0  0  0  0
   17.2794  -12.9023  -16.5351 C   0  0  0  0  0  0  0  0  0  0  0  0
   18.3314  -13.9163  -16.7656 C   0  0  0  0  0  0  0  0  0  0  0  0
   18.0778  -15.1796  -16.0870 C   0  0  0  0  0  0  0  0  0  0  0  0
   17.1282  -15.9635  -16.2470 O   0  0  0  0  0  0  0  0  0  0  0  0
   18.6987  -10.9760  -16.6246 C   0  0  0  0  0  0  0  0  0  0  0  0
   18.8193  -10.9308  -15.3944 O   0  0  0  0  0  0  0  0  0  0  0  0
   19.0222  -15.5839  -15.1174 O   0  0  0  0  0  0  0  0  0  0  0  0
   22.1034  -12.2080  -17.6988 N   0  0  0  0  0  0  0  0  0  0  0  0
   22.5831  -11.0577  -18.3631 C   0  0  0  0  0  0  0  0  0  0  0  0
   23.5085  -11.1496  -19.1771 O   0  0  0  0  0  0  0  0  0  0  0  0
   21.9602   -9.7500  -18.0671 C   0  0  0  0  0  0  0  0  0  0  0  0
   20.8876   -9.8594  -17.0357 C   0  0  2  0  0  0  0  0  0  0  0  0
   19.6967  -10.4924  -17.4997 N   0  0  0  0  0  0  0  0  0  0  0  0
   20.6439   -8.4986  -16.4422 C   0  0  0  0  0  0  0  0  0  0  0  0
   19.9260   -7.7114  -17.0792 O   0  0  0  0  0  0  0  0  0  0  0  0
   19.1529   -7.8603  -13.2039 C   0  0  0  0  0  0  0  0  0  0  0  0
   20.4010   -7.0405  -13.1654 C   0  0  2  0  0  0  0  0  0  0  0  0
   20.2257   -5.6900  -12.5244 C   0  0  0  0  0  0  0  0  0  0  0  0
   20.9475   -6.8820  -14.5637 C   0  0  2  0  0  0  0  0  0  0  0  0
   21.2215   -8.1430  -15.1964 N   0  0  0  0  0  0  0  0  0  0  0  0
   22.1890   -6.0741  -14.5151 C   0  0  0  0  0  0  0  0  0  0  0  0
   23.3431   -6.5580  -14.6041 O   0  0  0  0  0  0  0  0  0  0  0  0
   22.1193   -4.6814  -14.3616 O   0  0  0  0  0  0  0  0  0  0  0  0
  2  1  1  6
  2  7  1  0
  3  4  1  0
  3  2  1  0
  5  4  1  0
  6  5  2  0
  7  8  2  0
  9  5  1  0
 11 10  1  0
 11 12  2  0
 14 13  1  6
 13 11  1  0
 15  7  1  0
 15 14  1  0
 16 14  1  0
 16 17  2  0
 19 18  1  6
 19 21  1  0
 20 19  1  0
 21 23  1  0
 21 22  1  1
 22 16  1  0
 23 25  1  0
 24 23  2  0
M  END
$$$$
