ENV.pdb
     RDKit          3D

 25 24  0  0  1  0  0  0  0  0999 V2000
   24.2666  -21.3934  -13.2389 N   0  0  0  0  0  0  0  0  0  0  0  0
   24.2046  -20.6928  -11.9955 C   0  0  1  0  0  0  0  0  0  0  0  0
   22.8642  -20.6848  -11.3512 C   0  0  0  0  0  0  0  0  0  0  0  0
   21.8170  -19.8149  -11.9298 C   0  0  0  0  0  0  0  0  0  0  0  0
   21.5679  -20.0681  -13.3421 C   0  0  0  0  0  0  0  0  0  0  0  0
   21.9837  -21.0055  -14.0422 O   0  0  0  0  0  0  0  0  0  0  0  0
   25.1223  -21.4120  -11.0272 C   0  0  0  0  0  0  0  0  0  0  0  0
   25.4431  -22.5773  -11.2904 O   0  0  0  0  0  0  0  0  0  0  0  0
   20.7497  -19.1389  -14.0223 O   0  0  0  0  0  0  0  0  0  0  0  0
   30.2034  -19.9340   -9.5927 N   0  0  0  0  0  0  0  0  0  0  0  0
   29.3187  -20.9988   -9.8723 C   0  0  0  0  0  0  0  0  0  0  0  0
   29.6710  -22.1676   -9.6796 O   0  0  0  0  0  0  0  0  0  0  0  0
   27.9715  -20.6893  -10.3967 C   0  0  0  0  0  0  0  0  0  0  0  0
   26.9086  -20.8934   -9.3697 C   0  0  2  0  0  0  0  0  0  0  0  0
   25.5808  -20.7456   -9.8692 N   0  0  0  0  0  0  0  0  0  0  0  0
   27.1997  -20.0100   -8.1872 C   0  0  0  0  0  0  0  0  0  0  0  0
   27.0264  -18.7885   -8.3230 O   0  0  0  0  0  0  0  0  0  0  0  0
   29.6613  -21.1609   -4.9108 C   0  0  0  0  0  0  0  0  0  0  0  0
   28.3193  -20.5804   -4.6052 C   0  0  2  0  0  0  0  0  0  0  0  0
   27.2836  -21.6034   -4.2228 C   0  0  0  0  0  0  0  0  0  0  0  0
   27.8359  -19.7713   -5.7845 C   0  0  2  0  0  0  0  0  0  0  0  0
   27.6553  -20.5695   -6.9659 N   0  0  0  0  0  0  0  0  0  0  0  0
   28.8068  -18.6872   -6.0649 C   0  0  0  0  0  0  0  0  0  0  0  0
   29.5354  -18.6467   -7.0854 O   0  0  0  0  0  0  0  0  0  0  0  0
   28.9546  -17.6218   -5.1645 O   0  0  0  0  0  0  0  0  0  0  0  0
  2  1  1  6
  2  7  1  0
  3  4  1  0
  3  2  1  0
  5  4  1  0
  6  5  2  0
  7  8  2  0
  9  5  1  0
 11 10  1  0
 11 12  2  0
 14 13  1  6
 13 11  1  0
 15  7  1  0
 15 14  1  0
 16 14  1  0
 16 17  2  0
 19 18  1  6
 19 21  1  0
 20 19  1  0
 21 23  1  0
 21 22  1  6
 22 16  1  0
 23 25  1  0
 24 23  2  0
M  END
$$$$
