ENV.pdb
     RDKit          3D

 25 24  0  0  1  0  0  0  0  0999 V2000
   23.4486  -20.7018  -15.7637 N   0  0  0  0  0  0  0  0  0  0  0  0
   22.9792  -21.3597  -14.5858 C   0  0  1  0  0  0  0  0  0  0  0  0
   22.3405  -22.6817  -14.8234 C   0  0  0  0  0  0  0  0  0  0  0  0
   21.2023  -22.7475  -15.7658 C   0  0  0  0  0  0  0  0  0  0  0  0
   19.9237  -22.4113  -15.1551 C   0  0  0  0  0  0  0  0  0  0  0  0
   19.0369  -23.1804  -14.7503 O   0  0  0  0  0  0  0  0  0  0  0  0
   24.1871  -21.6371  -13.7134 C   0  0  0  0  0  0  0  0  0  0  0  0
   24.1200  -22.5782  -12.9136 O   0  0  0  0  0  0  0  0  0  0  0  0
   19.6354  -21.0380  -14.9930 O   0  0  0  0  0  0  0  0  0  0  0  0
   29.0667  -21.8157  -11.8332 N   0  0  0  0  0  0  0  0  0  0  0  0
   28.8791  -20.6536  -12.6137 C   0  0  0  0  0  0  0  0  0  0  0  0
   29.6358  -19.6856  -12.4805 O   0  0  0  0  0  0  0  0  0  0  0  0
   27.7666  -20.6186  -13.5868 C   0  0  0  0  0  0  0  0  0  0  0  0
   26.4553  -20.9417  -12.9526 C   0  0  2  0  0  0  0  0  0  0  0  0
   25.3394  -20.8287  -13.8336 N   0  0  0  0  0  0  0  0  0  0  0  0
   26.3072  -20.1228  -11.6992 C   0  0  0  0  0  0  0  0  0  0  0  0
   26.0026  -18.9261  -11.8244 O   0  0  0  0  0  0  0  0  0  0  0  0
   25.2777  -21.7946   -7.9767 C   0  0  0  0  0  0  0  0  0  0  0  0
   25.1344  -20.3768   -8.4246 C   0  0  2  0  0  0  0  0  0  0  0  0
   23.8925  -20.1138   -9.2333 C   0  0  0  0  0  0  0  0  0  0  0  0
   26.3579  -19.9658   -9.2077 C   0  0  2  0  0  0  0  0  0  0  0  0
   26.5115  -20.7132  -10.4257 N   0  0  0  0  0  0  0  0  0  0  0  0
   27.5624  -20.1455   -8.3631 C   0  0  0  0  0  0  0  0  0  0  0  0
   28.4376  -21.0204   -8.5691 O   0  0  0  0  0  0  0  0  0  0  0  0
   27.7794  -19.3109   -7.2567 O   0  0  0  0  0  0  0  0  0  0  0  0
  2  1  1  6
  2  7  1  0
  3  4  1  0
  3  2  1  0
  5  4  1  0
  6  5  2  0
  7  8  2  0
  9  5  1  0
 11 10  1  0
 11 12  2  0
 14 13  1  6
 13 11  1  0
 15  7  1  0
 15 14  1  0
 16 14  1  0
 16 17  2  0
 19 18  1  6
 19 21  1  0
 20 19  1  0
 21 23  1  0
 21 22  1  6
 22 16  1  0
 23 25  1  0
 24 23  2  0
M  END
$$$$
