ENV.pdb
     RDKit          3D

 25 24  0  0  1  0  0  0  0  0999 V2000
   15.9144   -9.9716  -18.0982 N   0  0  0  0  0  0  0  0  0  0  0  0
   15.9651   -9.4306  -16.7770 C   0  0  1  0  0  0  0  0  0  0  0  0
   16.3230  -10.4097  -15.7164 C   0  0  0  0  0  0  0  0  0  0  0  0
   17.0219  -11.6498  -16.1186 C   0  0  0  0  0  0  0  0  0  0  0  0
   17.1915  -12.5996  -15.0278 C   0  0  0  0  0  0  0  0  0  0  0  0
   16.8159  -12.4947  -13.8489 O   0  0  0  0  0  0  0  0  0  0  0  0
   17.0630   -8.3859  -16.7602 C   0  0  0  0  0  0  0  0  0  0  0  0
   18.1080   -8.6341  -17.3735 O   0  0  0  0  0  0  0  0  0  0  0  0
   17.8683  -13.8026  -15.3285 O   0  0  0  0  0  0  0  0  0  0  0  0
   18.9036   -3.2493  -17.1937 N   0  0  0  0  0  0  0  0  0  0  0  0
   18.3117   -3.7161  -15.9993 C   0  0  0  0  0  0  0  0  0  0  0  0
   18.6649   -3.2555  -14.9083 O   0  0  0  0  0  0  0  0  0  0  0  0
   17.2678   -4.7600  -16.0799 C   0  0  0  0  0  0  0  0  0  0  0  0
   17.8440   -6.1354  -16.0304 C   0  0  2  0  0  0  0  0  0  0  0  0
   16.8689   -7.1760  -16.0573 N   0  0  0  0  0  0  0  0  0  0  0  0
   18.7789   -6.2283  -14.8554 C   0  0  0  0  0  0  0  0  0  0  0  0
   18.2815   -6.4358  -13.7372 O   0  0  0  0  0  0  0  0  0  0  0  0
   22.9295   -6.8942  -15.4736 C   0  0  0  0  0  0  0  0  0  0  0  0
   22.1594   -7.3014  -14.2601 C   0  0  2  0  0  0  0  0  0  0  0  0
   21.5248   -8.6620  -14.3670 C   0  0  0  0  0  0  0  0  0  0  0  0
   21.1073   -6.2628  -13.9544 C   0  0  2  0  0  0  0  0  0  0  0  0
   20.1782   -6.0822  -15.0360 N   0  0  0  0  0  0  0  0  0  0  0  0
   21.7683   -4.9715  -13.6507 C   0  0  0  0  0  0  0  0  0  0  0  0
   22.4864   -4.7731  -12.6413 O   0  0  0  0  0  0  0  0  0  0  0  0
   21.6106   -3.8776  -14.5146 O   0  0  0  0  0  0  0  0  0  0  0  0
  2  1  1  6
  2  7  1  0
  3  4  1  0
  3  2  1  0
  5  4  1  0
  6  5  2  0
  7  8  2  0
  9  5  1  0
 11 10  1  0
 11 12  2  0
 14 13  1  1
 13 11  1  0
 15  7  1  0
 15 14  1  0
 16 14  1  0
 16 17  2  0
 19 18  1  6
 19 21  1  0
 20 19  1  0
 21 23  1  0
 21 22  1  6
 22 16  1  0
 23 25  1  0
 24 23  2  0
M  END
$$$$
