ENV.pdb
     RDKit          3D

 25 24  0  0  1  0  0  0  0  0999 V2000
   13.4810   -9.5700  -13.6825 N   0  0  0  0  0  0  0  0  0  0  0  0
   14.6900  -10.0262  -13.0738 C   0  0  1  0  0  0  0  0  0  0  0  0
   15.5301  -10.8999  -13.9356 C   0  0  0  0  0  0  0  0  0  0  0  0
   15.0459  -12.2672  -14.2258 C   0  0  0  0  0  0  0  0  0  0  0  0
   15.1852  -13.1824  -13.1017 C   0  0  0  0  0  0  0  0  0  0  0  0
   15.9088  -13.0676  -12.0992 O   0  0  0  0  0  0  0  0  0  0  0  0
   15.5354   -8.8031  -12.7796 C   0  0  0  0  0  0  0  0  0  0  0  0
   15.5556   -7.8970  -13.6214 O   0  0  0  0  0  0  0  0  0  0  0  0
   14.4047  -14.3593  -13.1366 O   0  0  0  0  0  0  0  0  0  0  0  0
   14.9305   -7.8111   -8.5177 N   0  0  0  0  0  0  0  0  0  0  0  0
   15.6519   -6.8953   -9.3149 C   0  0  0  0  0  0  0  0  0  0  0  0
   15.1480   -5.8112   -9.6282 O   0  0  0  0  0  0  0  0  0  0  0  0
   17.0132   -7.2571   -9.7642 C   0  0  0  0  0  0  0  0  0  0  0  0
   17.0539   -7.5950  -11.2169 C   0  0  2  0  0  0  0  0  0  0  0  0
   16.2658   -8.7294  -11.5727 N   0  0  0  0  0  0  0  0  0  0  0  0
   18.4904   -7.7114  -11.6485 C   0  0  0  0  0  0  0  0  0  0  0  0
   19.1955   -8.5623  -11.0833 O   0  0  0  0  0  0  0  0  0  0  0  0
   21.6922   -8.1255  -14.9607 C   0  0  0  0  0  0  0  0  0  0  0  0
   20.2982   -7.9386  -14.4576 C   0  0  2  0  0  0  0  0  0  0  0  0
   19.3512   -7.3681  -15.4789 C   0  0  0  0  0  0  0  0  0  0  0  0
   20.3159   -7.0668  -13.2253 C   0  0  2  0  0  0  0  0  0  0  0  0
   19.0058   -6.8706  -12.6680 N   0  0  0  0  0  0  0  0  0  0  0  0
   20.9100   -5.7521  -13.5646 C   0  0  0  0  0  0  0  0  0  0  0  0
   22.1273   -5.5769  -13.8123 O   0  0  0  0  0  0  0  0  0  0  0  0
   20.1020   -4.6069  -13.6247 O   0  0  0  0  0  0  0  0  0  0  0  0
  2  1  1  6
  2  7  1  0
  3  4  1  0
  3  2  1  0
  5  4  1  0
  6  5  2  0
  7  8  2  0
  9  5  1  0
 11 10  1  0
 11 12  2  0
 14 13  1  1
 13 11  1  0
 15  7  1  0
 15 14  1  0
 16 14  1  0
 16 17  2  0
 19 18  1  6
 19 21  1  0
 20 19  1  0
 21 23  1  0
 21 22  1  6
 22 16  1  0
 23 25  1  0
 24 23  2  0
M  END
$$$$
