ENV.pdb
     RDKit          3D

 25 24  0  0  1  0  0  0  0  0999 V2000
   20.6573  -11.9521  -18.1058 N   0  0  0  0  0  0  0  0  0  0  0  0
   21.7722  -11.1501  -17.7128 C   0  0  1  0  0  0  0  0  0  0  0  0
   22.7415  -10.8547  -18.8014 C   0  0  0  0  0  0  0  0  0  0  0  0
   23.4745  -11.9867  -19.4093 C   0  0  0  0  0  0  0  0  0  0  0  0
   24.3372  -11.5924  -20.5143 C   0  0  0  0  0  0  0  0  0  0  0  0
   24.5103  -10.4588  -20.9905 O   0  0  0  0  0  0  0  0  0  0  0  0
   21.2270   -9.8066  -17.2715 C   0  0  0  0  0  0  0  0  0  0  0  0
   21.2503   -8.8762  -18.0863 O   0  0  0  0  0  0  0  0  0  0  0  0
   25.0822  -12.6170  -21.1392 O   0  0  0  0  0  0  0  0  0  0  0  0
   17.9003   -9.5584  -16.7096 N   0  0  0  0  0  0  0  0  0  0  0  0
   17.7723   -9.2723  -15.3325 C   0  0  0  0  0  0  0  0  0  0  0  0
   16.7163   -9.5214  -14.7406 O   0  0  0  0  0  0  0  0  0  0  0  0
   18.9192   -8.6727  -14.6178 C   0  0  0  0  0  0  0  0  0  0  0  0
   20.0884   -8.4516  -15.5179 C   0  0  2  0  0  0  0  0  0  0  0  0
   20.7146   -9.6530  -15.9640 N   0  0  0  0  0  0  0  0  0  0  0  0
   21.0417   -7.4980  -14.8505 C   0  0  0  0  0  0  0  0  0  0  0  0
   21.8534   -7.9680  -14.0375 O   0  0  0  0  0  0  0  0  0  0  0  0
   23.1220   -4.7816  -16.6131 C   0  0  0  0  0  0  0  0  0  0  0  0
   22.3961   -4.1230  -15.4858 C   0  0  2  0  0  0  0  0  0  0  0  0
   23.2152   -3.0994  -14.7464 C   0  0  0  0  0  0  0  0  0  0  0  0
   21.8909   -5.1726  -14.5255 C   0  0  2  0  0  0  0  0  0  0  0  0
   21.0017   -6.1124  -15.1513 N   0  0  0  0  0  0  0  0  0  0  0  0
   21.1940   -4.5093  -13.3981 C   0  0  0  0  0  0  0  0  0  0  0  0
   19.9463   -4.4240  -13.2992 O   0  0  0  0  0  0  0  0  0  0  0  0
   21.9319   -3.9279  -12.3563 O   0  0  0  0  0  0  0  0  0  0  0  0
  2  1  1  6
  2  7  1  0
  3  4  1  0
  3  2  1  0
  5  4  1  0
  6  5  2  0
  7  8  2  0
  9  5  1  0
 11 10  1  0
 11 12  2  0
 14 13  1  1
 13 11  1  0
 15  7  1  0
 15 14  1  0
 16 14  1  0
 16 17  2  0
 19 18  1  6
 19 21  1  0
 20 19  1  0
 21 23  1  0
 21 22  1  6
 22 16  1  0
 23 25  1  0
 24 23  2  0
M  END
$$$$
