ENV.pdb
     RDKit          3D

 25 24  0  0  1  0  0  0  0  0999 V2000
   26.2999  -23.8598  -14.8854 N   0  0  0  0  0  0  0  0  0  0  0  0
   25.1118  -23.8296  -15.6780 C   0  0  1  0  0  0  0  0  0  0  0  0
   24.4705  -25.1547  -15.8895 C   0  0  0  0  0  0  0  0  0  0  0  0
   25.3098  -26.2638  -16.3931 C   0  0  0  0  0  0  0  0  0  0  0  0
   25.0502  -26.6013  -17.7857 C   0  0  0  0  0  0  0  0  0  0  0  0
   24.1338  -27.2974  -18.2522 O   0  0  0  0  0  0  0  0  0  0  0  0
   24.0926  -22.9939  -14.9297 C   0  0  0  0  0  0  0  0  0  0  0  0
   22.8942  -23.2276  -15.1281 O   0  0  0  0  0  0  0  0  0  0  0  0
   25.9447  -26.0794  -18.7463 O   0  0  0  0  0  0  0  0  0  0  0  0
   25.8361  -21.9439  -10.9632 N   0  0  0  0  0  0  0  0  0  0  0  0
   24.5228  -21.4354  -11.0700 C   0  0  0  0  0  0  0  0  0  0  0  0
   23.6486  -21.7974  -10.2749 O   0  0  0  0  0  0  0  0  0  0  0  0
   24.2167  -20.4676  -12.1450 C   0  0  0  0  0  0  0  0  0  0  0  0
   23.6259  -21.1292  -13.3447 C   0  0  2  0  0  0  0  0  0  0  0  0
   24.5286  -21.9872  -14.0398 N   0  0  0  0  0  0  0  0  0  0  0  0
   23.0102  -20.0766  -14.2259 C   0  0  0  0  0  0  0  0  0  0  0  0
   23.6693  -19.0473  -14.4422 O   0  0  0  0  0  0  0  0  0  0  0  0
   20.6425  -18.5963  -17.9587 C   0  0  0  0  0  0  0  0  0  0  0  0
   21.2261  -19.6795  -17.1116 C   0  0  2  0  0  0  0  0  0  0  0  0
   20.6088  -21.0331  -17.3393 C   0  0  0  0  0  0  0  0  0  0  0  0
   21.1157  -19.2994  -15.6547 C   0  0  2  0  0  0  0  0  0  0  0  0
   21.7200  -20.2693  -14.7831 N   0  0  0  0  0  0  0  0  0  0  0  0
   19.6862  -19.1382  -15.2981 C   0  0  0  0  0  0  0  0  0  0  0  0
   19.0395  -19.9628  -14.6084 O   0  0  0  0  0  0  0  0  0  0  0  0
   18.9724  -18.0126  -15.7354 O   0  0  0  0  0  0  0  0  0  0  0  0
  2  1  1  1
  2  7  1  0
  3  4  1  0
  3  2  1  0
  5  4  1  0
  6  5  2  0
  7  8  2  0
  9  5  1  0
 11 10  1  0
 11 12  2  0
 14 13  1  1
 13 11  1  0
 15  7  1  0
 15 14  1  0
 16 14  1  0
 16 17  2  0
 19 18  1  6
 19 21  1  0
 20 19  1  0
 21 23  1  0
 21 22  1  1
 22 16  1  0
 23 25  1  0
 24 23  2  0
M  END
$$$$
