ENV.pdb
     RDKit          3D

 25 24  0  0  1  0  0  0  0  0999 V2000
   16.7537  -13.5930  -16.1136 N   0  0  0  0  0  0  0  0  0  0  0  0
   16.5582  -12.3485  -16.7870 C   0  0  1  0  0  0  0  0  0  0  0  0
   15.1372  -12.0032  -17.0577 C   0  0  0  0  0  0  0  0  0  0  0  0
   14.8444  -10.6993  -17.6919 C   0  0  0  0  0  0  0  0  0  0  0  0
   13.4264  -10.4812  -17.9414 C   0  0  0  0  0  0  0  0  0  0  0  0
   12.6904  -11.0556  -18.7601 O   0  0  0  0  0  0  0  0  0  0  0  0
   17.0805  -11.2563  -15.8751 C   0  0  0  0  0  0  0  0  0  0  0  0
   16.5246  -11.1001  -14.7813 O   0  0  0  0  0  0  0  0  0  0  0  0
   12.7859   -9.4926  -17.1617 O   0  0  0  0  0  0  0  0  0  0  0  0
   19.5655   -7.2956  -13.9906 N   0  0  0  0  0  0  0  0  0  0  0  0
   20.5391   -8.2107  -14.4484 C   0  0  0  0  0  0  0  0  0  0  0  0
   21.7281   -8.0559  -14.1491 O   0  0  0  0  0  0  0  0  0  0  0  0
   20.1101   -9.3501  -15.2872 C   0  0  0  0  0  0  0  0  0  0  0  0
   18.6388   -9.3424  -15.5350 C   0  0  2  0  0  0  0  0  0  0  0  0
   18.1701  -10.4583  -16.2895 N   0  0  0  0  0  0  0  0  0  0  0  0
   18.2542   -8.0171  -16.1343 C   0  0  0  0  0  0  0  0  0  0  0  0
   18.6164   -7.7833  -17.2983 O   0  0  0  0  0  0  0  0  0  0  0  0
   14.8850   -6.7321  -16.6072 C   0  0  0  0  0  0  0  0  0  0  0  0
   15.5731   -5.6406  -15.8545 C   0  0  2  0  0  0  0  0  0  0  0  0
   15.1998   -4.2552  -16.3092 C   0  0  0  0  0  0  0  0  0  0  0  0
   17.0686   -5.8281  -15.9426 C   0  0  2  0  0  0  0  0  0  0  0  0
   17.5029   -7.0781  -15.3820 N   0  0  0  0  0  0  0  0  0  0  0  0
   17.7438   -4.7111  -15.2404 C   0  0  0  0  0  0  0  0  0  0  0  0
   17.9991   -4.7087  -14.0121 O   0  0  0  0  0  0  0  0  0  0  0  0
   18.1395   -3.5677  -15.9502 O   0  0  0  0  0  0  0  0  0  0  0  0
  2  1  1  1
  2  7  1  0
  3  4  1  0
  3  2  1  0
  5  4  1  0
  6  5  2  0
  7  8  2  0
  9  5  1  0
 11 10  1  0
 11 12  2  0
 14 13  1  6
 13 11  1  0
 15  7  1  0
 15 14  1  0
 16 14  1  0
 16 17  2  0
 19 18  1  6
 19 21  1  0
 20 19  1  0
 21 23  1  0
 21 22  1  1
 22 16  1  0
 23 25  1  0
 24 23  2  0
M  END
$$$$
