ENV.pdb
     RDKit          3D

 25 24  0  0  1  0  0  0  0  0999 V2000
   17.0260  -14.4466  -14.9522 N   0  0  0  0  0  0  0  0  0  0  0  0
   18.1118  -14.5895  -15.8693 C   0  0  1  0  0  0  0  0  0  0  0  0
   17.7554  -15.2350  -17.1609 C   0  0  0  0  0  0  0  0  0  0  0  0
   17.1032  -16.5621  -17.1212 C   0  0  0  0  0  0  0  0  0  0  0  0
   15.6536  -16.4998  -17.2460 C   0  0  0  0  0  0  0  0  0  0  0  0
   14.9325  -15.4958  -17.3631 O   0  0  0  0  0  0  0  0  0  0  0  0
   18.5881  -13.1950  -16.2239 C   0  0  0  0  0  0  0  0  0  0  0  0
   19.6060  -13.0899  -16.9188 O   0  0  0  0  0  0  0  0  0  0  0  0
   14.9587  -17.7296  -17.2348 O   0  0  0  0  0  0  0  0  0  0  0  0
   16.6502  -11.3330  -18.2369 N   0  0  0  0  0  0  0  0  0  0  0  0
   16.2528  -10.2139  -17.4725 C   0  0  0  0  0  0  0  0  0  0  0  0
   15.2388   -9.5781  -17.7807 O   0  0  0  0  0  0  0  0  0  0  0  0
   17.0687   -9.8207  -16.3040 C   0  0  0  0  0  0  0  0  0  0  0  0
   18.2319  -10.7323  -16.0989 C   0  0  2  0  0  0  0  0  0  0  0  0
   17.8702  -12.0699  -15.7608 N   0  0  0  0  0  0  0  0  0  0  0  0
   19.1730  -10.1034  -15.1079 C   0  0  0  0  0  0  0  0  0  0  0  0
   18.7920  -10.0083  -13.9304 O   0  0  0  0  0  0  0  0  0  0  0  0
   23.2492   -9.1775  -16.1978 C   0  0  0  0  0  0  0  0  0  0  0  0
   22.8018   -9.5858  -14.8323 C   0  0  2  0  0  0  0  0  0  0  0  0
   22.8772  -11.0680  -14.5822 C   0  0  0  0  0  0  0  0  0  0  0  0
   21.3961   -9.0915  -14.5899 C   0  0  2  0  0  0  0  0  0  0  0  0
   20.4488   -9.6407  -15.5207 N   0  0  0  0  0  0  0  0  0  0  0  0
   21.3755   -7.6122  -14.6796 C   0  0  0  0  0  0  0  0  0  0  0  0
   20.9243   -6.9768  -15.6627 O   0  0  0  0  0  0  0  0  0  0  0  0
   21.8796   -6.8343  -13.6268 O   0  0  0  0  0  0  0  0  0  0  0  0
  2  1  1  1
  2  7  1  0
  3  4  1  0
  3  2  1  0
  5  4  1  0
  6  5  2  0
  7  8  2  0
  9  5  1  0
 11 10  1  0
 11 12  2  0
 14 13  1  1
 13 11  1  0
 15  7  1  0
 15 14  1  0
 16 14  1  0
 16 17  2  0
 19 18  1  6
 19 21  1  0
 20 19  1  0
 21 23  1  0
 21 22  1  6
 22 16  1  0
 23 25  1  0
 24 23  2  0
M  END
$$$$
