YYT.pdb
     RDKit          3D

 32 33  0  0  1  0  0  0  0  0999 V2000
    7.5272  -14.5160   13.9874 O   0  0  0  0  0  0  0  0  0  0  0  0
    8.1341  -14.4823   15.2462 C   0  0  0  0  0  0  0  0  0  0  0  0
    7.7259  -13.5967   16.2211 C   0  0  0  0  0  0  0  0  0  0  0  0
    8.3247  -13.5630   17.4639 C   0  0  0  0  0  0  0  0  0  0  0  0
    9.3673  -14.4255   17.7802 C   0  0  0  0  0  0  0  0  0  0  0  0
    9.9891  -14.3734   19.1043 C   0  0  0  0  0  0  0  0  0  0  0  0
    9.6122  -15.5786   19.9440 C   0  0  2  0  0  0  0  0  0  0  0  0
    8.2880  -15.9985   19.5238 N   0  0  0  0  0  0  0  0  0  0  0  0
    9.5665  -15.2469   21.3691 C   0  0  0  0  0  0  0  0  0  0  0  0
   10.6153  -14.9851   22.0232 O   0  0  0  0  0  0  0  0  0  0  0  0
    9.7519  -15.2987   16.7838 C   0  0  0  0  0  0  0  0  0  0  0  0
    9.1658  -15.3462   15.5381 C   0  0  0  0  0  0  0  0  0  0  0  0
    7.0006  -12.3430   29.3063 O   0  0  0  0  0  0  0  0  0  0  0  0
    7.0231  -12.7722   27.9760 C   0  0  0  0  0  0  0  0  0  0  0  0
    6.3578  -13.9219   27.6080 C   0  0  0  0  0  0  0  0  0  0  0  0
    6.3517  -14.3837   26.3105 C   0  0  0  0  0  0  0  0  0  0  0  0
    7.0272  -13.6934   25.3160 C   0  0  0  0  0  0  0  0  0  0  0  0
    7.0801  -14.1004   23.9129 C   0  0  0  0  0  0  0  0  0  0  0  0
    8.3170  -14.8594   23.5301 C   0  0  2  0  0  0  0  0  0  0  0  0
    8.3477  -15.1930   22.1252 N   0  0  0  0  0  0  0  0  0  0  0  0
    8.3787  -16.0703   24.3895 C   0  0  0  0  0  0  0  0  0  0  0  0
    7.4224  -16.8833   24.4221 O   0  0  0  0  0  0  0  0  0  0  0  0
    7.6908  -12.5441   25.6897 C   0  0  0  0  0  0  0  0  0  0  0  0
    7.6982  -12.0764   26.9988 C   0  0  0  0  0  0  0  0  0  0  0  0
   10.1836  -18.9004   24.0967 C   0  0  0  0  0  0  0  0  0  0  0  0
   10.6071  -18.4780   25.4871 C   0  0  1  0  0  0  0  0  0  0  0  0
   11.7920  -17.7546   25.3450 O   0  0  0  0  0  0  0  0  0  0  0  0
    9.5424  -17.5587   26.0407 C   0  0  2  0  0  0  0  0  0  0  0  0
    9.5044  -16.3660   25.2056 N   0  0  0  0  0  0  0  0  0  0  0  0
    9.8167  -17.1625   27.4253 C   0  0  0  0  0  0  0  0  0  0  0  0
   10.0315  -15.9620   27.7260 O   0  0  0  0  0  0  0  0  0  0  0  0
    9.8385  -18.1282   28.4128 O   0  0  0  0  0  0  0  0  0  0  0  0
  2 12  2  0
  2  1  1  0
  3  2  1  0
  4  5  1  0
  4  3  2  0
  5 11  2  0
  6  5  1  0
  7  9  1  0
  7  6  1  0
  7  8  1  6
  9 10  2  0
 11 12  1  0
 14 15  2  0
 14 13  1  0
 16 15  1  0
 17 16  2  0
 19 18  1  6
 18 17  1  0
 20 19  1  0
 20  9  1  0
 21 22  2  0
 21 19  1  0
 23 17  1  0
 23 24  2  0
 24 14  1  0
 26 25  1  6
 26 28  1  0
 27 26  1  0
 28 30  1  0
 28 29  1  6
 29 21  1  0
 30 32  1  0
 31 30  2  0
M  END
$$$$
