YYT.pdb
     RDKit          3D

 32 33  0  0  1  0  0  0  0  0999 V2000
    7.3716  -14.1950   14.5214 O   0  0  0  0  0  0  0  0  0  0  0  0
    7.6618  -14.7124   15.7872 C   0  0  0  0  0  0  0  0  0  0  0  0
    7.6736  -13.9113   16.9093 C   0  0  0  0  0  0  0  0  0  0  0  0
    7.9600  -14.4216   18.1591 C   0  0  0  0  0  0  0  0  0  0  0  0
    8.2488  -15.7697   18.3334 C   0  0  0  0  0  0  0  0  0  0  0  0
    8.5502  -16.2908   19.6676 C   0  0  0  0  0  0  0  0  0  0  0  0
    9.7894  -15.6409   20.2521 C   0  0  2  0  0  0  0  0  0  0  0  0
   10.9145  -16.5038   19.9423 N   0  0  0  0  0  0  0  0  0  0  0  0
    9.6901  -15.5072   21.7064 C   0  0  0  0  0  0  0  0  0  0  0  0
   10.6948  -15.6617   22.4569 O   0  0  0  0  0  0  0  0  0  0  0  0
    8.2288  -16.5438   17.1917 C   0  0  0  0  0  0  0  0  0  0  0  0
    7.9451  -16.0516   15.9367 C   0  0  0  0  0  0  0  0  0  0  0  0
    6.6771  -11.3494   28.9986 O   0  0  0  0  0  0  0  0  0  0  0  0
    6.8299  -11.9018   27.7234 C   0  0  0  0  0  0  0  0  0  0  0  0
    7.8608  -11.4870   26.9081 C   0  0  0  0  0  0  0  0  0  0  0  0
    8.0512  -12.0021   25.6450 C   0  0  0  0  0  0  0  0  0  0  0  0
    7.1955  -12.9718   25.1456 C   0  0  0  0  0  0  0  0  0  0  0  0
    7.3133  -13.5798   23.8213 C   0  0  0  0  0  0  0  0  0  0  0  0
    8.4334  -14.5698   23.6871 C   0  0  2  0  0  0  0  0  0  0  0  0
    8.4648  -15.1951   22.3856 N   0  0  0  0  0  0  0  0  0  0  0  0
    8.2779  -15.5667   24.7783 C   0  0  0  0  0  0  0  0  0  0  0  0
    8.2056  -15.2000   25.9769 O   0  0  0  0  0  0  0  0  0  0  0  0
    6.1661  -13.3829   25.9655 C   0  0  0  0  0  0  0  0  0  0  0  0
    5.9723  -12.8643   27.2406 C   0  0  0  0  0  0  0  0  0  0  0  0
    6.0147  -18.7009   24.3854 C   0  0  0  0  0  0  0  0  0  0  0  0
    7.3193  -19.1393   25.0152 C   0  0  1  0  0  0  0  0  0  0  0  0
    8.1194  -19.6316   23.9832 O   0  0  0  0  0  0  0  0  0  0  0  0
    7.9873  -17.9180   25.6047 C   0  0  2  0  0  0  0  0  0  0  0  0
    8.2042  -16.9636   24.5260 N   0  0  0  0  0  0  0  0  0  0  0  0
    9.2765  -18.2362   26.2260 C   0  0  0  0  0  0  0  0  0  0  0  0
   10.3526  -17.8006   25.7466 O   0  0  0  0  0  0  0  0  0  0  0  0
    9.3041  -19.0285   27.3572 O   0  0  0  0  0  0  0  0  0  0  0  0
  2 12  2  0
  2  1  1  0
  3  2  1  0
  4  5  1  0
  4  3  2  0
  5 11  2  0
  6  5  1  0
  7  9  1  0
  7  6  1  0
  7  8  1  1
  9 10  2  0
 11 12  1  0
 14 15  2  0
 14 13  1  0
 16 15  1  0
 17 16  2  0
 19 18  1  6
 18 17  1  0
 20 19  1  0
 20  9  1  0
 21 22  2  0
 21 19  1  0
 23 17  1  0
 23 24  2  0
 24 14  1  0
 26 25  1  6
 26 28  1  0
 27 26  1  0
 28 30  1  0
 28 29  1  6
 29 21  1  0
 30 32  1  0
 31 30  2  0
M  END
$$$$
