YYT.pdb
     RDKit          3D

 32 33  0  0  1  0  0  0  0  0999 V2000
    6.5885  -14.2528   14.4471 O   0  0  0  0  0  0  0  0  0  0  0  0
    7.3884  -14.3531   15.5890 C   0  0  0  0  0  0  0  0  0  0  0  0
    7.3212  -13.4198   16.6018 C   0  0  0  0  0  0  0  0  0  0  0  0
    8.1107  -13.5183   17.7294 C   0  0  0  0  0  0  0  0  0  0  0  0
    9.0077  -14.5680   17.8862 C   0  0  0  0  0  0  0  0  0  0  0  0
    9.8362  -14.6539   19.0899 C   0  0  0  0  0  0  0  0  0  0  0  0
    9.4613  -15.8530   19.9392 C   0  0  2  0  0  0  0  0  0  0  0  0
    8.0992  -16.2159   19.5936 N   0  0  0  0  0  0  0  0  0  0  0  0
    9.5119  -15.5360   21.3674 C   0  0  0  0  0  0  0  0  0  0  0  0
   10.6045  -15.2982   21.9558 O   0  0  0  0  0  0  0  0  0  0  0  0
    9.0508  -15.4843   16.8559 C   0  0  0  0  0  0  0  0  0  0  0  0
    8.2705  -15.4017   15.7236 C   0  0  0  0  0  0  0  0  0  0  0  0
    7.5154  -12.2693   29.3111 O   0  0  0  0  0  0  0  0  0  0  0  0
    7.4331  -12.7888   28.0158 C   0  0  0  0  0  0  0  0  0  0  0  0
    6.9729  -14.0719   27.8123 C   0  0  0  0  0  0  0  0  0  0  0  0
    6.8743  -14.6263   26.5554 C   0  0  0  0  0  0  0  0  0  0  0  0
    7.2420  -13.8970   25.4352 C   0  0  0  0  0  0  0  0  0  0  0  0
    7.1741  -14.3945   24.0622 C   0  0  0  0  0  0  0  0  0  0  0  0
    8.4053  -15.1171   23.5993 C   0  0  2  0  0  0  0  0  0  0  0  0
    8.3448  -15.4710   22.2003 N   0  0  0  0  0  0  0  0  0  0  0  0
    8.5717  -16.3118   24.4673 C   0  0  0  0  0  0  0  0  0  0  0  0
    7.6645  -17.1759   24.5504 O   0  0  0  0  0  0  0  0  0  0  0  0
    7.7016  -12.6141   25.6447 C   0  0  0  0  0  0  0  0  0  0  0  0
    7.8018  -12.0528   26.9126 C   0  0  0  0  0  0  0  0  0  0  0  0
   10.8099  -18.8888   24.0607 C   0  0  0  0  0  0  0  0  0  0  0  0
   11.1123  -18.4909   25.4893 C   0  0  1  0  0  0  0  0  0  0  0  0
   12.1995  -17.6171   25.4425 O   0  0  0  0  0  0  0  0  0  0  0  0
    9.9143  -17.7441   26.0300 C   0  0  2  0  0  0  0  0  0  0  0  0
    9.7466  -16.5348   25.2357 N   0  0  0  0  0  0  0  0  0  0  0  0
   10.0825  -17.3703   27.4376 C   0  0  0  0  0  0  0  0  0  0  0  0
   10.1417  -16.1650   27.7860 O   0  0  0  0  0  0  0  0  0  0  0  0
   10.1770  -18.3630   28.3936 O   0  0  0  0  0  0  0  0  0  0  0  0
  2 12  2  0
  2  1  1  0
  3  2  1  0
  4  5  1  0
  4  3  2  0
  5 11  2  0
  6  5  1  0
  7  9  1  0
  7  6  1  0
  7  8  1  6
  9 10  2  0
 11 12  1  0
 14 15  2  0
 14 13  1  0
 16 15  1  0
 17 16  2  0
 19 18  1  1
 18 17  1  0
 20 19  1  0
 20  9  1  0
 21 22  2  0
 21 19  1  0
 23 17  1  0
 23 24  2  0
 24 14  1  0
 26 25  1  6
 26 28  1  0
 27 26  1  0
 28 30  1  0
 28 29  1  6
 29 21  1  0
 30 32  1  0
 31 30  2  0
M  END
$$$$
