YYT.pdb
     RDKit          3D

 32 33  0  0  1  0  0  0  0  0999 V2000
    6.3514  -13.2626   15.6339 O   0  0  0  0  0  0  0  0  0  0  0  0
    6.8001  -13.7611   16.8604 C   0  0  0  0  0  0  0  0  0  0  0  0
    7.1998  -12.9213   17.8783 C   0  0  0  0  0  0  0  0  0  0  0  0
    7.6430  -13.4129   19.0893 C   0  0  0  0  0  0  0  0  0  0  0  0
    7.7029  -14.7805   19.3284 C   0  0  0  0  0  0  0  0  0  0  0  0
    8.1762  -15.2814   20.6198 C   0  0  0  0  0  0  0  0  0  0  0  0
    9.3687  -14.4897   21.1206 C   0  0  2  0  0  0  0  0  0  0  0  0
   10.4403  -14.6716   20.1589 N   0  0  0  0  0  0  0  0  0  0  0  0
    9.8247  -14.9735   22.4248 C   0  0  0  0  0  0  0  0  0  0  0  0
   10.6260  -15.9449   22.5288 O   0  0  0  0  0  0  0  0  0  0  0  0
    7.2962  -15.5932   18.2905 C   0  0  0  0  0  0  0  0  0  0  0  0
    6.8513  -15.1201   17.0756 C   0  0  0  0  0  0  0  0  0  0  0  0
   11.1553  -15.7626   31.1913 O   0  0  0  0  0  0  0  0  0  0  0  0
   10.6933  -15.3570   29.9357 C   0  0  0  0  0  0  0  0  0  0  0  0
    9.4749  -15.8017   29.4693 C   0  0  0  0  0  0  0  0  0  0  0  0
    8.9787  -15.4293   28.2397 C   0  0  0  0  0  0  0  0  0  0  0  0
    9.7031  -14.5798   27.4179 C   0  0  0  0  0  0  0  0  0  0  0  0
    9.2637  -14.1271   26.0991 C   0  0  0  0  0  0  0  0  0  0  0  0
    9.8650  -14.8807   24.9489 C   0  0  2  0  0  0  0  0  0  0  0  0
    9.4058  -14.3936   23.6690 N   0  0  0  0  0  0  0  0  0  0  0  0
    9.5432  -16.3185   25.1434 C   0  0  0  0  0  0  0  0  0  0  0  0
    8.3575  -16.7258   25.0733 O   0  0  0  0  0  0  0  0  0  0  0  0
   10.9211  -14.1381   27.8894 C   0  0  0  0  0  0  0  0  0  0  0  0
   11.4236  -14.5128   29.1302 C   0  0  0  0  0  0  0  0  0  0  0  0
   10.0075  -19.2052   23.3070 C   0  0  0  0  0  0  0  0  0  0  0  0
   10.7663  -19.5279   24.5762 C   0  0  1  0  0  0  0  0  0  0  0  0
   12.0923  -19.1505   24.3598 O   0  0  0  0  0  0  0  0  0  0  0  0
   10.1971  -18.6785   25.6897 C   0  0  2  0  0  0  0  0  0  0  0  0
   10.5438  -17.2909   25.4143 N   0  0  0  0  0  0  0  0  0  0  0  0
   10.7331  -19.0523   27.0021 C   0  0  0  0  0  0  0  0  0  0  0  0
   10.5526  -20.2028   27.4727 O   0  0  0  0  0  0  0  0  0  0  0  0
   11.4481  -18.1212   27.7301 O   0  0  0  0  0  0  0  0  0  0  0  0
  2 12  2  0
  2  1  1  0
  3  2  1  0
  4  5  1  0
  4  3  2  0
  5 11  2  0
  6  5  1  0
  7  9  1  0
  7  6  1  0
  7  8  1  6
  9 10  2  0
 11 12  1  0
 14 15  2  0
 14 13  1  0
 16 15  1  0
 17 16  2  0
 19 18  1  1
 18 17  1  0
 20 19  1  0
 20  9  1  0
 21 22  2  0
 21 19  1  0
 23 17  1  0
 23 24  2  0
 24 14  1  0
 26 25  1  6
 26 28  1  0
 27 26  1  0
 28 30  1  0
 28 29  1  6
 29 21  1  0
 30 32  1  0
 31 30  2  0
M  END
$$$$
