YYT.pdb
     RDKit          3D

 32 33  0  0  1  0  0  0  0  0999 V2000
    5.6648  -19.9362   15.4775 O   0  0  0  0  0  0  0  0  0  0  0  0
    6.3417  -19.4747   16.6101 C   0  0  0  0  0  0  0  0  0  0  0  0
    5.6738  -19.1778   17.7793 C   0  0  0  0  0  0  0  0  0  0  0  0
    6.3416  -18.7220   18.8977 C   0  0  0  0  0  0  0  0  0  0  0  0
    7.7198  -18.5446   18.8863 C   0  0  0  0  0  0  0  0  0  0  0  0
    8.4089  -18.0599   20.0833 C   0  0  0  0  0  0  0  0  0  0  0  0
    8.5977  -16.5557   20.0461 C   0  0  2  0  0  0  0  0  0  0  0  0
    9.6342  -16.2762   19.0695 N   0  0  0  0  0  0  0  0  0  0  0  0
    9.0281  -16.0364   21.3453 C   0  0  0  0  0  0  0  0  0  0  0  0
   10.2011  -16.2201   21.7775 O   0  0  0  0  0  0  0  0  0  0  0  0
    8.3580  -18.8503   17.7021 C   0  0  0  0  0  0  0  0  0  0  0  0
    7.7078  -19.3062   16.5765 C   0  0  0  0  0  0  0  0  0  0  0  0
    8.8970  -12.5586   29.5249 O   0  0  0  0  0  0  0  0  0  0  0  0
    8.5668  -12.9144   28.2139 C   0  0  0  0  0  0  0  0  0  0  0  0
    7.4872  -13.7361   27.9704 C   0  0  0  0  0  0  0  0  0  0  0  0
    7.1238  -14.1134   26.6967 C   0  0  0  0  0  0  0  0  0  0  0  0
    7.8463  -13.6700   25.5997 C   0  0  0  0  0  0  0  0  0  0  0  0
    7.5413  -14.0130   24.2117 C   0  0  0  0  0  0  0  0  0  0  0  0
    8.5694  -14.8779   23.5428 C   0  0  2  0  0  0  0  0  0  0  0  0
    8.1674  -15.2897   22.2181 N   0  0  0  0  0  0  0  0  0  0  0  0
    8.8188  -16.0410   24.4338 C   0  0  0  0  0  0  0  0  0  0  0  0
    7.8821  -16.8098   24.7625 O   0  0  0  0  0  0  0  0  0  0  0  0
    8.9250  -12.8484   25.8491 C   0  0  0  0  0  0  0  0  0  0  0  0
    9.2934  -12.4665   27.1340 C   0  0  0  0  0  0  0  0  0  0  0  0
   10.7744  -18.9074   23.8749 C   0  0  0  0  0  0  0  0  0  0  0  0
   11.3660  -18.3711   25.1608 C   0  0  1  0  0  0  0  0  0  0  0  0
   12.4619  -17.5847   24.8028 O   0  0  0  0  0  0  0  0  0  0  0  0
   10.3307  -17.4875   25.8185 C   0  0  2  0  0  0  0  0  0  0  0  0
   10.1088  -16.3385   24.9513 N   0  0  0  0  0  0  0  0  0  0  0  0
   10.7629  -17.0132   27.1367 C   0  0  0  0  0  0  0  0  0  0  0  0
   10.9374  -15.7896   27.3607 O   0  0  0  0  0  0  0  0  0  0  0  0
   10.9808  -17.9302   28.1467 O   0  0  0  0  0  0  0  0  0  0  0  0
  2 12  2  0
  2  1  1  0
  3  2  1  0
  4  5  1  0
  4  3  2  0
  5 11  2  0
  6  5  1  0
  7  9  1  0
  7  6  1  0
  7  8  1  6
  9 10  2  0
 11 12  1  0
 14 15  2  0
 14 13  1  0
 16 15  1  0
 17 16  2  0
 19 18  1  1
 18 17  1  0
 20 19  1  0
 20  9  1  0
 21 22  2  0
 21 19  1  0
 23 17  1  0
 23 24  2  0
 24 14  1  0
 26 25  1  6
 26 28  1  0
 27 26  1  0
 28 30  1  0
 28 29  1  6
 29 21  1  0
 30 32  1  0
 31 30  2  0
M  END
$$$$
