YYT.pdb
     RDKit          3D

 32 33  0  0  1  0  0  0  0  0999 V2000
    6.9402  -13.7544   16.0391 O   0  0  0  0  0  0  0  0  0  0  0  0
    7.3521  -13.7833   17.3746 C   0  0  0  0  0  0  0  0  0  0  0  0
    7.2364  -12.6773   18.1899 C   0  0  0  0  0  0  0  0  0  0  0  0
    7.6429  -12.7053   19.5084 C   0  0  0  0  0  0  0  0  0  0  0  0
    8.1871  -13.8560   20.0658 C   0  0  0  0  0  0  0  0  0  0  0  0
    8.6123  -13.8646   21.4664 C   0  0  0  0  0  0  0  0  0  0  0  0
    8.7884  -15.2785   21.9859 C   0  0  2  0  0  0  0  0  0  0  0  0
    7.4649  -15.7971   22.2787 N   0  0  0  0  0  0  0  0  0  0  0  0
    9.5822  -15.3035   23.2156 C   0  0  0  0  0  0  0  0  0  0  0  0
   10.5216  -14.4826   23.4155 O   0  0  0  0  0  0  0  0  0  0  0  0
    8.2891  -14.9444   19.2244 C   0  0  0  0  0  0  0  0  0  0  0  0
    7.8886  -14.9344   17.9064 C   0  0  0  0  0  0  0  0  0  0  0  0
    5.3949  -12.1222   25.2613 O   0  0  0  0  0  0  0  0  0  0  0  0
    6.5409  -12.8763   25.5308 C   0  0  0  0  0  0  0  0  0  0  0  0
    6.8132  -13.2863   26.8182 C   0  0  0  0  0  0  0  0  0  0  0  0
    7.9291  -14.0302   27.1317 C   0  0  0  0  0  0  0  0  0  0  0  0
    8.8296  -14.3964   26.1434 C   0  0  0  0  0  0  0  0  0  0  0  0
   10.0400  -15.1832   26.3740 C   0  0  0  0  0  0  0  0  0  0  0  0
   10.2237  -16.3356   25.4302 C   0  0  2  0  0  0  0  0  0  0  0  0
    9.3614  -16.2463   24.2750 N   0  0  0  0  0  0  0  0  0  0  0  0
    9.9895  -17.5836   26.2024 C   0  0  0  0  0  0  0  0  0  0  0  0
    9.0647  -17.6501   27.0491 O   0  0  0  0  0  0  0  0  0  0  0  0
    8.5523  -13.9836   24.8575 C   0  0  0  0  0  0  0  0  0  0  0  0
    7.4265  -13.2327   24.5390 C   0  0  0  0  0  0  0  0  0  0  0  0
   10.6919  -21.3748   25.0060 C   0  0  0  0  0  0  0  0  0  0  0  0
   11.4007  -21.0496   26.3032 C   0  0  1  0  0  0  0  0  0  0  0  0
   12.6977  -20.6596   25.9667 O   0  0  0  0  0  0  0  0  0  0  0  0
   10.6927  -19.8762   26.9410 C   0  0  2  0  0  0  0  0  0  0  0  0
   10.7867  -18.7470   26.0257 N   0  0  0  0  0  0  0  0  0  0  0  0
   11.2901  -19.4994   28.2257 C   0  0  0  0  0  0  0  0  0  0  0  0
   11.8297  -18.3764   28.3856 O   0  0  0  0  0  0  0  0  0  0  0  0
   11.2571  -20.3968   29.2754 O   0  0  0  0  0  0  0  0  0  0  0  0
  2 12  2  0
  2  1  1  0
  3  2  1  0
  4  5  1  0
  4  3  2  0
  5 11  2  0
  6  5  1  0
  7  9  1  0
  7  6  1  0
  7  8  1  1
  9 10  2  0
 11 12  1  0
 14 15  2  0
 14 13  1  0
 16 15  1  0
 17 16  2  0
 19 18  1  1
 18 17  1  0
 20 19  1  0
 20  9  1  0
 21 22  2  0
 21 19  1  0
 23 17  1  0
 23 24  2  0
 24 14  1  0
 26 25  1  6
 26 28  1  0
 27 26  1  0
 28 30  1  0
 28 29  1  6
 29 21  1  0
 30 32  1  0
 31 30  2  0
M  END
$$$$
