YYT.pdb
     RDKit          3D

 32 33  0  0  1  0  0  0  0  0999 V2000
    6.7190  -12.9363   15.6386 O   0  0  0  0  0  0  0  0  0  0  0  0
    6.9961  -13.4867   16.8933 C   0  0  0  0  0  0  0  0  0  0  0  0
    7.3576  -12.6969   17.9642 C   0  0  0  0  0  0  0  0  0  0  0  0
    7.6313  -13.2398   19.2031 C   0  0  0  0  0  0  0  0  0  0  0  0
    7.5522  -14.6104   19.4178 C   0  0  0  0  0  0  0  0  0  0  0  0
    7.8468  -15.1661   20.7396 C   0  0  0  0  0  0  0  0  0  0  0  0
    9.2636  -14.8455   21.1750 C   0  0  2  0  0  0  0  0  0  0  0  0
   10.1596  -15.5044   20.2426 N   0  0  0  0  0  0  0  0  0  0  0  0
    9.5383  -15.3492   22.5217 C   0  0  0  0  0  0  0  0  0  0  0  0
   10.0272  -16.4984   22.7131 O   0  0  0  0  0  0  0  0  0  0  0  0
    7.1881  -15.3724   18.3269 C   0  0  0  0  0  0  0  0  0  0  0  0
    6.9114  -14.8477   17.0836 C   0  0  0  0  0  0  0  0  0  0  0  0
   10.6765  -15.6888   31.3704 O   0  0  0  0  0  0  0  0  0  0  0  0
   10.3492  -15.2852   30.0726 C   0  0  0  0  0  0  0  0  0  0  0  0
   11.3458  -14.9946   29.1658 C   0  0  0  0  0  0  0  0  0  0  0  0
   11.0721  -14.5935   27.8770 C   0  0  0  0  0  0  0  0  0  0  0  0
    9.7611  -14.4673   27.4440 C   0  0  0  0  0  0  0  0  0  0  0  0
    9.3681  -14.0500   26.0992 C   0  0  0  0  0  0  0  0  0  0  0  0
    9.6089  -15.0776   25.0322 C   0  0  2  0  0  0  0  0  0  0  0  0
    9.2788  -14.5915   23.7127 N   0  0  0  0  0  0  0  0  0  0  0  0
    8.8204  -16.2847   25.3922 C   0  0  0  0  0  0  0  0  0  0  0  0
    7.5652  -16.2622   25.3673 O   0  0  0  0  0  0  0  0  0  0  0  0
    8.7685  -14.7593   28.3552 C   0  0  0  0  0  0  0  0  0  0  0  0
    9.0427  -15.1643   29.6565 C   0  0  0  0  0  0  0  0  0  0  0  0
    8.1791  -19.4035   23.9463 C   0  0  0  0  0  0  0  0  0  0  0  0
    8.8609  -19.7748   25.2455 C   0  0  1  0  0  0  0  0  0  0  0  0
   10.2256  -19.8729   24.9706 O   0  0  0  0  0  0  0  0  0  0  0  0
    8.6450  -18.6448   26.2262 C   0  0  2  0  0  0  0  0  0  0  0  0
    9.4357  -17.5069   25.7771 N   0  0  0  0  0  0  0  0  0  0  0  0
    9.0570  -19.0043   27.5864 C   0  0  0  0  0  0  0  0  0  0  0  0
    9.9721  -18.3761   28.1744 O   0  0  0  0  0  0  0  0  0  0  0  0
    8.4259  -20.0518   28.2290 O   0  0  0  0  0  0  0  0  0  0  0  0
  2 12  2  0
  2  1  1  0
  3  2  1  0
  4  5  1  0
  4  3  2  0
  5 11  2  0
  6  5  1  0
  7  9  1  0
  7  6  1  0
  7  8  1  6
  9 10  2  0
 11 12  1  0
 14 15  2  0
 14 13  1  0
 16 15  1  0
 17 16  2  0
 19 18  1  1
 18 17  1  0
 20 19  1  0
 20  9  1  0
 21 22  2  0
 21 19  1  0
 23 17  1  0
 23 24  2  0
 24 14  1  0
 26 25  1  6
 26 28  1  0
 27 26  1  0
 28 30  1  0
 28 29  1  6
 29 21  1  0
 30 32  1  0
 31 30  2  0
M  END
$$$$
