YYT.pdb
     RDKit          3D

 32 33  0  0  1  0  0  0  0  0999 V2000
    8.0723  -20.9435   15.2013 O   0  0  0  0  0  0  0  0  0  0  0  0
    8.3340  -20.3219   16.4258 C   0  0  0  0  0  0  0  0  0  0  0  0
    8.1789  -20.9897   17.6221 C   0  0  0  0  0  0  0  0  0  0  0  0
    8.4370  -20.3765   18.8312 C   0  0  0  0  0  0  0  0  0  0  0  0
    8.8652  -19.0557   18.8875 C   0  0  0  0  0  0  0  0  0  0  0  0
    9.1333  -18.4238   20.1803 C   0  0  0  0  0  0  0  0  0  0  0  0
    9.5563  -16.9769   20.0155 C   0  0  2  0  0  0  0  0  0  0  0  0
   10.8864  -16.9811   19.4348 N   0  0  0  0  0  0  0  0  0  0  0  0
    9.6114  -16.2837   21.3036 C   0  0  0  0  0  0  0  0  0  0  0  0
   10.6528  -16.2953   22.0191 O   0  0  0  0  0  0  0  0  0  0  0  0
    9.0104  -18.4160   17.6739 C   0  0  0  0  0  0  0  0  0  0  0  0
    8.7575  -19.0122   16.4581 C   0  0  0  0  0  0  0  0  0  0  0  0
    7.0918  -11.6363   28.5226 O   0  0  0  0  0  0  0  0  0  0  0  0
    7.1794  -12.1969   27.2449 C   0  0  0  0  0  0  0  0  0  0  0  0
    8.3246  -12.0357   26.4951 C   0  0  0  0  0  0  0  0  0  0  0  0
    8.4569  -12.5692   25.2323 C   0  0  0  0  0  0  0  0  0  0  0  0
    7.4229  -13.2985   24.6659 C   0  0  0  0  0  0  0  0  0  0  0  0
    7.4660  -13.9040   23.3360 C   0  0  0  0  0  0  0  0  0  0  0  0
    8.5532  -14.9217   23.1493 C   0  0  2  0  0  0  0  0  0  0  0  0
    8.5062  -15.5478   21.8486 N   0  0  0  0  0  0  0  0  0  0  0  0
    8.4257  -15.9143   24.2479 C   0  0  0  0  0  0  0  0  0  0  0  0
    7.3339  -16.4957   24.4637 O   0  0  0  0  0  0  0  0  0  0  0  0
    6.2798  -13.4565   25.4204 C   0  0  0  0  0  0  0  0  0  0  0  0
    6.1443  -12.9188   26.6951 C   0  0  0  0  0  0  0  0  0  0  0  0
    9.4076  -19.0289   24.4648 C   0  0  0  0  0  0  0  0  0  0  0  0
   10.1040  -18.4978   25.6992 C   0  0  1  0  0  0  0  0  0  0  0  0
   11.3971  -18.1441   25.3115 O   0  0  0  0  0  0  0  0  0  0  0  0
    9.3751  -17.2514   26.1470 C   0  0  2  0  0  0  0  0  0  0  0  0
    9.5145  -16.2515   25.0971 N   0  0  0  0  0  0  0  0  0  0  0  0
    9.9183  -16.7097   27.3963 C   0  0  0  0  0  0  0  0  0  0  0  0
    9.8760  -17.3717   28.4629 O   0  0  0  0  0  0  0  0  0  0  0  0
   10.4854  -15.4500   27.3965 O   0  0  0  0  0  0  0  0  0  0  0  0
  2 12  2  0
  2  1  1  0
  3  2  1  0
  4  5  1  0
  4  3  2  0
  5 11  2  0
  6  5  1  0
  7  9  1  0
  7  6  1  0
  7  8  1  1
  9 10  2  0
 11 12  1  0
 14 15  2  0
 14 13  1  0
 16 15  1  0
 17 16  2  0
 19 18  1  6
 18 17  1  0
 20 19  1  0
 20  9  1  0
 21 22  2  0
 21 19  1  0
 23 17  1  0
 23 24  2  0
 24 14  1  0
 26 25  1  6
 26 28  1  0
 27 26  1  0
 28 30  1  0
 28 29  1  6
 29 21  1  0
 30 32  1  0
 31 30  2  0
M  END
$$$$
