YYT.pdb
     RDKit          3D

 32 33  0  0  1  0  0  0  0  0999 V2000
   11.2692  -21.0426   31.3289 O   0  0  0  0  0  0  0  0  0  0  0  0
   10.6024  -20.6743   30.1568 C   0  0  0  0  0  0  0  0  0  0  0  0
   11.0587  -19.6461   29.3593 C   0  0  0  0  0  0  0  0  0  0  0  0
   10.4007  -19.2820   28.2021 C   0  0  0  0  0  0  0  0  0  0  0  0
    9.2474  -19.9422   27.7960 C   0  0  0  0  0  0  0  0  0  0  0  0
    8.5644  -19.5403   26.5653 C   0  0  0  0  0  0  0  0  0  0  0  0
    7.7039  -18.3106   26.7826 C   0  0  2  0  0  0  0  0  0  0  0  0
    6.4304  -18.7646   27.3102 N   0  0  0  0  0  0  0  0  0  0  0  0
    7.4615  -17.5966   25.5278 C   0  0  0  0  0  0  0  0  0  0  0  0
    6.4808  -17.8787   24.7829 O   0  0  0  0  0  0  0  0  0  0  0  0
    8.8172  -20.9655   28.6153 C   0  0  0  0  0  0  0  0  0  0  0  0
    9.4611  -21.3423   29.7733 C   0  0  0  0  0  0  0  0  0  0  0  0
    5.4775  -11.8043   28.0740 O   0  0  0  0  0  0  0  0  0  0  0  0
    6.1760  -12.4390   27.0425 C   0  0  0  0  0  0  0  0  0  0  0  0
    7.5491  -12.5446   27.0988 C   0  0  0  0  0  0  0  0  0  0  0  0
    8.2797  -13.1607   26.1070 C   0  0  0  0  0  0  0  0  0  0  0  0
    7.6444  -13.7037   25.0009 C   0  0  0  0  0  0  0  0  0  0  0  0
    8.3290  -14.3765   23.8982 C   0  0  0  0  0  0  0  0  0  0  0  0
    8.0602  -15.8500   23.8038 C   0  0  2  0  0  0  0  0  0  0  0  0
    8.3037  -16.5369   25.0508 N   0  0  0  0  0  0  0  0  0  0  0  0
    8.9017  -16.3852   22.7020 C   0  0  0  0  0  0  0  0  0  0  0  0
    9.9865  -16.9677   22.9480 O   0  0  0  0  0  0  0  0  0  0  0  0
    6.2709  -13.5951   24.9498 C   0  0  0  0  0  0  0  0  0  0  0  0
    5.5318  -12.9737   25.9498 C   0  0  0  0  0  0  0  0  0  0  0  0
    7.1230  -17.4224   19.2480 C   0  0  0  0  0  0  0  0  0  0  0  0
    8.4912  -16.8237   19.0020 C   0  0  1  0  0  0  0  0  0  0  0  0
    8.2936  -15.4731   18.7116 O   0  0  0  0  0  0  0  0  0  0  0  0
    9.2858  -16.9318   20.2834 C   0  0  2  0  0  0  0  0  0  0  0  0
    8.5287  -16.2675   21.3354 N   0  0  0  0  0  0  0  0  0  0  0  0
   10.6043  -16.3003   20.1736 C   0  0  0  0  0  0  0  0  0  0  0  0
   10.9172  -15.3221   20.8968 O   0  0  0  0  0  0  0  0  0  0  0  0
   11.5149  -16.7919   19.2584 O   0  0  0  0  0  0  0  0  0  0  0  0
  2 12  2  0
  2  1  1  0
  3  2  1  0
  4  5  1  0
  4  3  2  0
  5 11  2  0
  6  5  1  0
  7  9  1  0
  7  6  1  0
  7  8  1  6
  9 10  2  0
 11 12  1  0
 14 15  2  0
 14 13  1  0
 16 15  1  0
 17 16  2  0
 19 18  1  1
 18 17  1  0
 20 19  1  0
 20  9  1  0
 21 22  2  0
 21 19  1  0
 23 17  1  0
 23 24  2  0
 24 14  1  0
 26 25  1  1
 26 28  1  0
 27 26  1  0
 28 30  1  0
 28 29  1  1
 29 21  1  0
 30 32  1  0
 31 30  2  0
M  END
$$$$
