SGN.pdb
     RDKit          3D

 19 18  0  0  1  0  0  0  0  0999 V2000
    8.5852  -16.0870   13.6857 O   0  0  0  0  0  0  0  0  0  0  0  0
    7.8241  -15.1165   14.3688 C   0  0  0  0  0  0  0  0  0  0  0  0
    8.7468  -14.4391   15.3389 C   0  0  2  0  0  0  0  0  0  0  0  0
    9.7172  -15.3378   15.8740 N   0  0  0  0  0  0  0  0  0  0  0  0
    7.9595  -13.7548   16.4007 C   0  0  0  0  0  0  0  0  0  0  0  0
    6.9854  -12.9895   16.1171 O   0  0  0  0  0  0  0  0  0  0  0  0
    8.2384  -13.9064   17.7908 N   0  0  0  0  0  0  0  0  0  0  0  0
    7.4207  -13.2461   18.7907 C   0  0  0  0  0  0  0  0  0  0  0  0
    7.9576  -13.6184   20.1396 C   0  0  0  0  0  0  0  0  0  0  0  0
    7.3717  -13.3411   21.2140 O   0  0  0  0  0  0  0  0  0  0  0  0
   10.0729  -17.1716   19.6670 N   0  0  0  0  0  0  0  0  0  0  0  0
    8.8753  -17.3457   20.4505 C   0  0  0  0  0  0  0  0  0  0  0  0
    8.2489  -18.4250   20.3247 O   0  0  0  0  0  0  0  0  0  0  0  0
    8.4685  -16.2587   21.3388 C   0  0  0  0  0  0  0  0  0  0  0  0
    9.4644  -15.1058   21.4128 C   0  0  2  0  0  0  0  0  0  0  0  0
    9.1844  -14.3166   20.2042 N   0  0  0  0  0  0  0  0  0  0  0  0
   10.8724  -15.5635   21.3586 C   0  0  0  0  0  0  0  0  0  0  0  0
   11.4102  -16.1323   22.3248 O   0  0  0  0  0  0  0  0  0  0  0  0
   11.6301  -15.3649   20.2150 O   0  0  0  0  0  0  0  0  0  0  0  0
  1  2  1  0
  3  2  1  0
  3  5  1  0
  3  4  1  1
  5  6  2  0
  7  8  1  0
  7  5  1  0
  8  9  1  0
  9 10  2  0
  9 16  1  0
 12 11  1  0
 12 13  2  0
 14 12  1  0
 15 14  1  6
 16 15  1  0
 17 15  1  0
 17 19  1  0
 18 17  2  0
M  END
$$$$
