SGN.pdb
     RDKit          3D

 19 18  0  0  1  0  0  0  0  0999 V2000
    7.7785  -18.2069   19.5570 O   0  0  0  0  0  0  0  0  0  0  0  0
    8.4258  -17.6322   18.4441 C   0  0  0  0  0  0  0  0  0  0  0  0
    9.1096  -16.3879   18.9293 C   0  0  2  0  0  0  0  0  0  0  0  0
   10.1757  -16.6782   19.8319 N   0  0  0  0  0  0  0  0  0  0  0  0
    8.1113  -15.4499   19.5118 C   0  0  0  0  0  0  0  0  0  0  0  0
    7.2255  -14.8908   18.7922 O   0  0  0  0  0  0  0  0  0  0  0  0
    8.0785  -15.1166   20.8978 N   0  0  0  0  0  0  0  0  0  0  0  0
    7.0654  -14.2220   21.4247 C   0  0  0  0  0  0  0  0  0  0  0  0
    7.2839  -14.1031   22.9027 C   0  0  0  0  0  0  0  0  0  0  0  0
    6.5336  -13.4389   23.6580 O   0  0  0  0  0  0  0  0  0  0  0  0
    7.2301  -19.0317   24.9258 N   0  0  0  0  0  0  0  0  0  0  0  0
    6.8264  -17.6712   25.1792 C   0  0  0  0  0  0  0  0  0  0  0  0
    6.2130  -17.4352   26.2475 O   0  0  0  0  0  0  0  0  0  0  0  0
    7.1562  -16.6567   24.1802 C   0  0  0  0  0  0  0  0  0  0  0  0
    8.1516  -15.6059   24.6612 C   0  0  2  0  0  0  0  0  0  0  0  0
    8.3896  -14.7724   23.4736 N   0  0  0  0  0  0  0  0  0  0  0  0
    9.4424  -16.1952   25.0873 C   0  0  0  0  0  0  0  0  0  0  0  0
    9.6321  -16.5712   26.2573 O   0  0  0  0  0  0  0  0  0  0  0  0
   10.4792  -16.3419   24.1792 O   0  0  0  0  0  0  0  0  0  0  0  0
  1  2  1  0
  3  2  1  0
  3  5  1  0
  3  4  1  1
  5  6  2  0
  7  8  1  0
  7  5  1  0
  8  9  1  0
  9 10  2  0
  9 16  1  0
 12 11  1  0
 12 13  2  0
 14 12  1  0
 15 14  1  6
 16 15  1  0
 17 15  1  0
 17 19  1  0
 18 17  2  0
M  END
$$$$
