SGN.pdb
     RDKit          3D

 19 18  0  0  1  0  0  0  0  0999 V2000
    8.8116  -12.4838   18.2334 O   0  0  0  0  0  0  0  0  0  0  0  0
    7.8245  -12.6119   19.2319 C   0  0  0  0  0  0  0  0  0  0  0  0
    8.0669  -13.9220   19.9221 C   0  0  2  0  0  0  0  0  0  0  0  0
    7.8780  -15.0330   19.0470 N   0  0  0  0  0  0  0  0  0  0  0  0
    7.2295  -14.0162   21.1490 C   0  0  0  0  0  0  0  0  0  0  0  0
    6.0099  -13.6591   21.1506 O   0  0  0  0  0  0  0  0  0  0  0  0
    7.7287  -14.5061   22.3916 N   0  0  0  0  0  0  0  0  0  0  0  0
    6.8628  -14.6173   23.5501 C   0  0  0  0  0  0  0  0  0  0  0  0
    7.6555  -15.2474   24.6551 C   0  0  0  0  0  0  0  0  0  0  0  0
    7.1747  -15.5093   25.7842 O   0  0  0  0  0  0  0  0  0  0  0  0
    6.5889  -18.1333   24.0357 N   0  0  0  0  0  0  0  0  0  0  0  0
    7.5567  -18.0230   25.0984 C   0  0  0  0  0  0  0  0  0  0  0  0
    7.1306  -18.0395   26.2780 O   0  0  0  0  0  0  0  0  0  0  0  0
    8.9673  -17.8999   24.7364 C   0  0  0  0  0  0  0  0  0  0  0  0
    9.6296  -16.6174   25.2293 C   0  0  2  0  0  0  0  0  0  0  0  0
    9.0116  -15.5622   24.4131 N   0  0  0  0  0  0  0  0  0  0  0  0
   11.0914  -16.6012   24.9888 C   0  0  0  0  0  0  0  0  0  0  0  0
   11.5691  -16.2205   23.9057 O   0  0  0  0  0  0  0  0  0  0  0  0
   11.9689  -17.0152   25.9786 O   0  0  0  0  0  0  0  0  0  0  0  0
  1  2  1  0
  3  2  1  0
  3  5  1  0
  3  4  1  6
  5  6  2  0
  7  8  1  0
  7  5  1  0
  8  9  1  0
  9 10  2  0
  9 16  1  0
 12 11  1  0
 12 13  2  0
 14 12  1  0
 15 14  1  6
 16 15  1  0
 17 15  1  0
 17 19  1  0
 18 17  2  0
M  END
$$$$
