SGN.pdb
     RDKit          3D

 19 18  0  0  1  0  0  0  0  0999 V2000
    8.0713  -11.9832   18.7067 O   0  0  0  0  0  0  0  0  0  0  0  0
    7.6566  -12.8726   19.7190 C   0  0  0  0  0  0  0  0  0  0  0  0
    8.2992  -14.1971   19.4287 C   0  0  2  0  0  0  0  0  0  0  0  0
    7.8996  -14.7220   18.1637 N   0  0  0  0  0  0  0  0  0  0  0  0
    8.0405  -15.1465   20.5454 C   0  0  0  0  0  0  0  0  0  0  0  0
    7.2074  -16.0991   20.4287 O   0  0  0  0  0  0  0  0  0  0  0  0
    8.6988  -15.0561   21.8070 N   0  0  0  0  0  0  0  0  0  0  0  0
    9.1733  -16.2467   22.4864 C   0  0  0  0  0  0  0  0  0  0  0  0
    9.8164  -15.8157   23.7698 C   0  0  0  0  0  0  0  0  0  0  0  0
   10.9750  -15.3379   23.8323 O   0  0  0  0  0  0  0  0  0  0  0  0
    9.9583  -13.6864   28.4139 N   0  0  0  0  0  0  0  0  0  0  0  0
    8.8185  -13.3500   27.5979 C   0  0  0  0  0  0  0  0  0  0  0  0
    8.1304  -12.3583   27.9390 O   0  0  0  0  0  0  0  0  0  0  0  0
    8.5378  -14.1814   26.4291 C   0  0  0  0  0  0  0  0  0  0  0  0
    9.5808  -15.2627   26.1661 C   0  0  2  0  0  0  0  0  0  0  0  0
    9.0813  -15.9541   24.9685 N   0  0  0  0  0  0  0  0  0  0  0  0
    9.6747  -16.2458   27.2705 C   0  0  0  0  0  0  0  0  0  0  0  0
   10.1597  -15.9412   28.3743 O   0  0  0  0  0  0  0  0  0  0  0  0
    9.2183  -17.5427   27.0947 O   0  0  0  0  0  0  0  0  0  0  0  0
  1  2  1  0
  3  2  1  0
  3  5  1  0
  3  4  1  6
  5  6  2  0
  7  8  1  0
  7  5  1  0
  8  9  1  0
  9 10  2  0
  9 16  1  0
 12 11  1  0
 12 13  2  0
 14 12  1  0
 15 14  1  1
 16 15  1  0
 17 15  1  0
 17 19  1  0
 18 17  2  0
M  END
$$$$
