SGN.pdb
     RDKit          3D

 19 18  0  0  1  0  0  0  0  0999 V2000
    6.7329  -17.6089   17.0595 O   0  0  0  0  0  0  0  0  0  0  0  0
    6.7975  -16.3573   17.7055 C   0  0  0  0  0  0  0  0  0  0  0  0
    7.2813  -15.3645   16.6897 C   0  0  2  0  0  0  0  0  0  0  0  0
    7.8593  -16.0001   15.5506 N   0  0  0  0  0  0  0  0  0  0  0  0
    8.2079  -14.3902   17.3281 C   0  0  0  0  0  0  0  0  0  0  0  0
    9.4522  -14.3882   17.0692 O   0  0  0  0  0  0  0  0  0  0  0  0
    7.7723  -13.4047   18.2621 N   0  0  0  0  0  0  0  0  0  0  0  0
    8.6984  -12.4243   18.7964 C   0  0  0  0  0  0  0  0  0  0  0  0
    9.5511  -13.1107   19.8202 C   0  0  0  0  0  0  0  0  0  0  0  0
   10.7585  -12.8279   20.0116 O   0  0  0  0  0  0  0  0  0  0  0  0
   11.1216  -15.5128   24.0865 N   0  0  0  0  0  0  0  0  0  0  0  0
    9.6866  -15.3930   24.0158 C   0  0  0  0  0  0  0  0  0  0  0  0
    9.0106  -15.9544   24.9108 O   0  0  0  0  0  0  0  0  0  0  0  0
    9.1123  -14.6279   22.9109 C   0  0  0  0  0  0  0  0  0  0  0  0
    9.8235  -14.8269   21.5764 C   0  0  2  0  0  0  0  0  0  0  0  0
    8.9659  -14.1265   20.6091 N   0  0  0  0  0  0  0  0  0  0  0  0
    9.9085  -16.2525   21.1820 C   0  0  0  0  0  0  0  0  0  0  0  0
    8.9105  -16.8792   20.7853 O   0  0  0  0  0  0  0  0  0  0  0  0
   11.1179  -16.9265   21.2475 O   0  0  0  0  0  0  0  0  0  0  0  0
  1  2  1  0
  3  2  1  0
  3  5  1  0
  3  4  1  6
  5  6  2  0
  7  8  1  0
  7  5  1  0
  8  9  1  0
  9 10  2  0
  9 16  1  0
 12 11  1  0
 12 13  2  0
 14 12  1  0
 15 14  1  1
 16 15  1  0
 17 15  1  0
 17 19  1  0
 18 17  2  0
M  END
$$$$
