SGN.pdb
     RDKit          3D

 19 18  0  0  1  0  0  0  0  0999 V2000
    7.2762  -16.8499   17.7122 O   0  0  0  0  0  0  0  0  0  0  0  0
    7.3198  -15.7169   18.5501 C   0  0  0  0  0  0  0  0  0  0  0  0
    8.3740  -15.9779   19.5854 C   0  0  2  0  0  0  0  0  0  0  0  0
    8.2893  -17.2994   20.1166 N   0  0  0  0  0  0  0  0  0  0  0  0
    8.3190  -14.9346   20.6455 C   0  0  0  0  0  0  0  0  0  0  0  0
    8.3591  -13.6963   20.3624 O   0  0  0  0  0  0  0  0  0  0  0  0
    8.2191  -15.2455   22.0336 N   0  0  0  0  0  0  0  0  0  0  0  0
    8.1320  -14.1929   23.0280 C   0  0  0  0  0  0  0  0  0  0  0  0
    7.9716  -14.8425   24.3691 C   0  0  0  0  0  0  0  0  0  0  0  0
    7.4524  -15.9738   24.5281 O   0  0  0  0  0  0  0  0  0  0  0  0
   10.4600  -17.8334   26.4895 N   0  0  0  0  0  0  0  0  0  0  0  0
   10.3443  -16.7990   25.4919 C   0  0  0  0  0  0  0  0  0  0  0  0
   10.2203  -17.1551   24.2956 O   0  0  0  0  0  0  0  0  0  0  0  0
   10.3780  -15.4068   25.9352 C   0  0  0  0  0  0  0  0  0  0  0  0
    9.0809  -14.9228   26.5752 C   0  0  2  0  0  0  0  0  0  0  0  0
    8.4280  -14.1464   25.5109 N   0  0  0  0  0  0  0  0  0  0  0  0
    9.3147  -14.0282   27.7327 C   0  0  0  0  0  0  0  0  0  0  0  0
    9.4433  -14.4752   28.8859 O   0  0  0  0  0  0  0  0  0  0  0  0
    9.3961  -12.6563   27.5525 O   0  0  0  0  0  0  0  0  0  0  0  0
  1  2  1  0
  3  2  1  0
  3  5  1  0
  3  4  1  1
  5  6  2  0
  7  8  1  0
  7  5  1  0
  8  9  1  0
  9 10  2  0
  9 16  1  0
 12 11  1  0
 12 13  2  0
 14 12  1  0
 15 14  1  6
 16 15  1  0
 17 15  1  0
 17 19  1  0
 18 17  2  0
M  END
$$$$
