SGN.pdb
     RDKit          3D

 19 18  0  0  1  0  0  0  0  0999 V2000
    8.8890  -16.5507    9.3778 O   0  0  0  0  0  0  0  0  0  0  0  0
    9.7679  -17.3429   10.1444 C   0  0  0  0  0  0  0  0  0  0  0  0
    9.6607  -16.8681   11.5637 C   0  0  2  0  0  0  0  0  0  0  0  0
    9.0935  -15.5619   11.6516 N   0  0  0  0  0  0  0  0  0  0  0  0
   10.9863  -16.9585   12.2346 C   0  0  0  0  0  0  0  0  0  0  0  0
   12.0075  -17.4137   11.6304 O   0  0  0  0  0  0  0  0  0  0  0  0
   11.2015  -16.5475   13.5829 N   0  0  0  0  0  0  0  0  0  0  0  0
   12.5026  -16.6943   14.2075 C   0  0  0  0  0  0  0  0  0  0  0  0
   12.4423  -16.0332   15.5513 C   0  0  0  0  0  0  0  0  0  0  0  0
   11.4006  -15.9871   16.2494 O   0  0  0  0  0  0  0  0  0  0  0  0
   13.2878  -16.7542   20.6526 N   0  0  0  0  0  0  0  0  0  0  0  0
   12.9715  -15.7204   19.6990 C   0  0  0  0  0  0  0  0  0  0  0  0
   12.6140  -14.6046   20.1469 O   0  0  0  0  0  0  0  0  0  0  0  0
   13.0872  -16.0356   18.2766 C   0  0  0  0  0  0  0  0  0  0  0  0
   13.5741  -14.8740   17.4164 C   0  0  2  0  0  0  0  0  0  0  0  0
   13.6169  -15.4324   16.0569 N   0  0  0  0  0  0  0  0  0  0  0  0
   14.9378  -14.4251   17.7824 C   0  0  0  0  0  0  0  0  0  0  0  0
   15.9514  -14.9746   17.3167 O   0  0  0  0  0  0  0  0  0  0  0  0
   15.1150  -13.3695   18.6631 O   0  0  0  0  0  0  0  0  0  0  0  0
  1  2  1  0
  3  2  1  0
  3  5  1  0
  3  4  1  6
  5  6  2  0
  7  8  1  0
  7  5  1  0
  8  9  1  0
  9 10  2  0
  9 16  1  0
 12 11  1  0
 12 13  2  0
 14 12  1  0
 15 14  1  1
 16 15  1  0
 17 15  1  0
 17 19  1  0
 18 17  2  0
M  END
$$$$
