SGN.pdb
     RDKit          3D

 19 18  0  0  1  0  0  0  0  0999 V2000
    6.8490  -17.8786   17.1467 O   0  0  0  0  0  0  0  0  0  0  0  0
    6.0203  -18.0790   18.2697 C   0  0  0  0  0  0  0  0  0  0  0  0
    6.9074  -18.0504   19.4795 C   0  0  2  0  0  0  0  0  0  0  0  0
    6.9359  -19.3072   20.1543 N   0  0  0  0  0  0  0  0  0  0  0  0
    6.5110  -16.9318   20.3778 C   0  0  0  0  0  0  0  0  0  0  0  0
    5.5882  -17.0674   21.2410 O   0  0  0  0  0  0  0  0  0  0  0  0
    7.1289  -15.6474   20.3343 N   0  0  0  0  0  0  0  0  0  0  0  0
    6.6439  -14.5593   21.1621 C   0  0  0  0  0  0  0  0  0  0  0  0
    7.2856  -14.6890   22.5103 C   0  0  0  0  0  0  0  0  0  0  0  0
    7.1844  -13.8173   23.4073 O   0  0  0  0  0  0  0  0  0  0  0  0
    6.8772  -15.8217   26.1284 N   0  0  0  0  0  0  0  0  0  0  0  0
    7.2992  -17.1436   25.7377 C   0  0  0  0  0  0  0  0  0  0  0  0
    6.7984  -18.1187   26.3474 O   0  0  0  0  0  0  0  0  0  0  0  0
    8.2791  -17.2642   24.6601 C   0  0  0  0  0  0  0  0  0  0  0  0
    8.7361  -15.9304   24.0784 C   0  0  2  0  0  0  0  0  0  0  0  0
    8.0417  -15.8506   22.7848 N   0  0  0  0  0  0  0  0  0  0  0  0
   10.1961  -15.8859   23.8307 C   0  0  0  0  0  0  0  0  0  0  0  0
   10.6966  -16.3657   22.7985 O   0  0  0  0  0  0  0  0  0  0  0  0
   11.0461  -15.3009   24.7562 O   0  0  0  0  0  0  0  0  0  0  0  0
  1  2  1  0
  3  2  1  0
  3  5  1  0
  3  4  1  1
  5  6  2  0
  7  8  1  0
  7  5  1  0
  8  9  1  0
  9 10  2  0
  9 16  1  0
 12 11  1  0
 12 13  2  0
 14 12  1  0
 15 14  1  6
 16 15  1  0
 17 15  1  0
 17 19  1  0
 18 17  2  0
M  END
$$$$
