SGN.pdb
     RDKit          3D

 19 18  0  0  1  0  0  0  0  0999 V2000
    0.6556  -24.1634   23.5861 O   0  0  0  0  0  0  0  0  0  0  0  0
    0.8743  -23.4848   22.3698 C   0  0  0  0  0  0  0  0  0  0  0  0
    2.3598  -23.4001   22.1762 C   0  0  2  0  0  0  0  0  0  0  0  0
    2.9610  -24.6891   22.0639 N   0  0  0  0  0  0  0  0  0  0  0  0
    2.9705  -22.5805   23.2583 C   0  0  0  0  0  0  0  0  0  0  0  0
    2.6703  -21.3556   23.4144 O   0  0  0  0  0  0  0  0  0  0  0  0
    3.9220  -23.1035   24.1827 N   0  0  0  0  0  0  0  0  0  0  0  0
    4.4033  -22.3000   25.2904 C   0  0  0  0  0  0  0  0  0  0  0  0
    5.7751  -22.7871   25.6469 C   0  0  0  0  0  0  0  0  0  0  0  0
    6.2165  -23.9111   25.3057 O   0  0  0  0  0  0  0  0  0  0  0  0
    8.7457  -19.5794   24.6978 N   0  0  0  0  0  0  0  0  0  0  0  0
    9.1184  -20.8902   25.1681 C   0  0  0  0  0  0  0  0  0  0  0  0
    9.6496  -21.6746   24.3460 O   0  0  0  0  0  0  0  0  0  0  0  0
    8.8558  -21.2212   26.5672 C   0  0  0  0  0  0  0  0  0  0  0  0
    7.9502  -22.4326   26.7637 C   0  0  2  0  0  0  0  0  0  0  0  0
    6.6129  -21.9382   26.4046 N   0  0  0  0  0  0  0  0  0  0  0  0
    7.9165  -22.8979   28.1699 C   0  0  0  0  0  0  0  0  0  0  0  0
    7.0619  -22.4838   28.9727 O   0  0  0  0  0  0  0  0  0  0  0  0
    8.8487  -23.8166   28.6264 O   0  0  0  0  0  0  0  0  0  0  0  0
  1  2  1  0
  3  2  1  0
  3  5  1  0
  3  4  1  1
  5  6  2  0
  7  8  1  0
  7  5  1  0
  8  9  1  0
  9 10  2  0
  9 16  1  0
 12 11  1  0
 12 13  2  0
 14 12  1  0
 15 14  1  1
 16 15  1  0
 17 15  1  0
 17 19  1  0
 18 17  2  0
M  END
$$$$
