SGN.pdb
     RDKit          3D

 19 18  0  0  1  0  0  0  0  0999 V2000
    2.7624  -19.6106   21.8539 O   0  0  0  0  0  0  0  0  0  0  0  0
    3.5207  -18.8582   20.9337 C   0  0  0  0  0  0  0  0  0  0  0  0
    4.9594  -19.2271   21.1463 C   0  0  2  0  0  0  0  0  0  0  0  0
    5.3110  -19.2433   22.5290 N   0  0  0  0  0  0  0  0  0  0  0  0
    5.8402  -18.3328   20.3463 C   0  0  0  0  0  0  0  0  0  0  0  0
    5.7284  -18.2459   19.0834 O   0  0  0  0  0  0  0  0  0  0  0  0
    6.8571  -17.5223   20.9312 N   0  0  0  0  0  0  0  0  0  0  0  0
    7.5865  -16.5532   20.1354 C   0  0  0  0  0  0  0  0  0  0  0  0
    8.5056  -15.8060   21.0536 C   0  0  0  0  0  0  0  0  0  0  0  0
    9.2751  -14.8942   20.6647 O   0  0  0  0  0  0  0  0  0  0  0  0
    7.2450  -13.7728   22.9820 N   0  0  0  0  0  0  0  0  0  0  0  0
    7.4538  -14.2748   24.3172 C   0  0  0  0  0  0  0  0  0  0  0  0
    6.6275  -13.9419   25.2002 O   0  0  0  0  0  0  0  0  0  0  0  0
    8.6095  -15.1366   24.5569 C   0  0  0  0  0  0  0  0  0  0  0  0
    9.4379  -15.4324   23.3108 C   0  0  2  0  0  0  0  0  0  0  0  0
    8.5053  -16.1451   22.4253 N   0  0  0  0  0  0  0  0  0  0  0  0
   10.5911  -16.3198   23.5895 C   0  0  0  0  0  0  0  0  0  0  0  0
   10.6226  -17.4943   23.1822 O   0  0  0  0  0  0  0  0  0  0  0  0
   11.6733  -15.8539   24.3196 O   0  0  0  0  0  0  0  0  0  0  0  0
  1  2  1  0
  3  2  1  0
  3  5  1  0
  3  4  1  1
  5  6  2  0
  7  8  1  0
  7  5  1  0
  8  9  1  0
  9 10  2  0
  9 16  1  0
 12 11  1  0
 12 13  2  0
 14 12  1  0
 15 14  1  1
 16 15  1  0
 17 15  1  0
 17 19  1  0
 18 17  2  0
M  END
$$$$
