SGN.pdb
     RDKit          3D

 19 18  0  0  1  0  0  0  0  0999 V2000
    7.0143  -17.8485   17.7452 O   0  0  0  0  0  0  0  0  0  0  0  0
    7.8109  -16.9876   18.5277 C   0  0  0  0  0  0  0  0  0  0  0  0
    7.8313  -15.6577   17.8331 C   0  0  2  0  0  0  0  0  0  0  0  0
    8.7234  -15.6470   16.7198 N   0  0  0  0  0  0  0  0  0  0  0  0
    8.1288  -14.5751   18.8103 C   0  0  0  0  0  0  0  0  0  0  0  0
    9.3229  -14.2544   19.1041 O   0  0  0  0  0  0  0  0  0  0  0  0
    7.1104  -13.8320   19.4767 N   0  0  0  0  0  0  0  0  0  0  0  0
    7.4481  -12.7279   20.3549 C   0  0  0  0  0  0  0  0  0  0  0  0
    7.8217  -13.3016   21.6883 C   0  0  0  0  0  0  0  0  0  0  0  0
    8.1231  -12.5959   22.6811 O   0  0  0  0  0  0  0  0  0  0  0  0
    7.1679  -17.5577   25.5360 N   0  0  0  0  0  0  0  0  0  0  0  0
    6.6526  -16.6014   24.5882 C   0  0  0  0  0  0  0  0  0  0  0  0
    5.6604  -15.9161   24.9334 O   0  0  0  0  0  0  0  0  0  0  0  0
    7.3160  -16.4906   23.2907 C   0  0  0  0  0  0  0  0  0  0  0  0
    8.2044  -15.2594   23.1458 C   0  0  2  0  0  0  0  0  0  0  0  0
    7.8348  -14.7070   21.8343 N   0  0  0  0  0  0  0  0  0  0  0  0
    9.6471  -15.5959   23.1235 C   0  0  0  0  0  0  0  0  0  0  0  0
   10.3673  -15.4426   24.1255 O   0  0  0  0  0  0  0  0  0  0  0  0
   10.2322  -16.0953   21.9705 O   0  0  0  0  0  0  0  0  0  0  0  0
  1  2  1  0
  3  2  1  0
  3  5  1  0
  3  4  1  6
  5  6  2  0
  7  8  1  0
  7  5  1  0
  8  9  1  0
  9 10  2  0
  9 16  1  0
 12 11  1  0
 12 13  2  0
 14 12  1  0
 15 14  1  6
 16 15  1  0
 17 15  1  0
 17 19  1  0
 18 17  2  0
M  END
$$$$
