SGN.pdb
     RDKit          3D

 19 18  0  0  1  0  0  0  0  0999 V2000
    5.8907  -18.5990   22.6248 O   0  0  0  0  0  0  0  0  0  0  0  0
    5.0734  -18.3111   21.5127 C   0  0  0  0  0  0  0  0  0  0  0  0
    5.7468  -18.9023   20.3092 C   0  0  2  0  0  0  0  0  0  0  0  0
    5.7917  -20.3273   20.3649 N   0  0  0  0  0  0  0  0  0  0  0  0
    7.0951  -18.2978   20.1293 C   0  0  0  0  0  0  0  0  0  0  0  0
    8.0223  -18.9119   19.5143 O   0  0  0  0  0  0  0  0  0  0  0  0
    7.4374  -17.0062   20.6271 N   0  0  0  0  0  0  0  0  0  0  0  0
    8.6063  -16.3035   20.1329 C   0  0  0  0  0  0  0  0  0  0  0  0
    9.3852  -15.8205   21.3188 C   0  0  0  0  0  0  0  0  0  0  0  0
   10.4978  -15.2479   21.2246 O   0  0  0  0  0  0  0  0  0  0  0  0
    7.6141  -13.7287   23.2521 N   0  0  0  0  0  0  0  0  0  0  0  0
    7.5246  -14.4171   24.5156 C   0  0  0  0  0  0  0  0  0  0  0  0
    6.5402  -14.1611   25.2496 O   0  0  0  0  0  0  0  0  0  0  0  0
    8.5813  -15.3661   24.8601 C   0  0  0  0  0  0  0  0  0  0  0  0
    9.6235  -15.5661   23.7647 C   0  0  2  0  0  0  0  0  0  0  0  0
    8.8391  -16.0196   22.6067 N   0  0  0  0  0  0  0  0  0  0  0  0
   10.6121  -16.6167   24.1023 C   0  0  0  0  0  0  0  0  0  0  0  0
   11.3784  -16.5016   25.0748 O   0  0  0  0  0  0  0  0  0  0  0  0
   10.7049  -17.7649   23.3315 O   0  0  0  0  0  0  0  0  0  0  0  0
  1  2  1  0
  3  2  1  0
  3  5  1  0
  3  4  1  1
  5  6  2  0
  7  8  1  0
  7  5  1  0
  8  9  1  0
  9 10  2  0
  9 16  1  0
 12 11  1  0
 12 13  2  0
 14 12  1  0
 15 14  1  1
 16 15  1  0
 17 15  1  0
 17 19  1  0
 18 17  2  0
M  END
$$$$
