SGN.pdb
     RDKit          3D

 19 18  0  0  1  0  0  0  0  0999 V2000
    6.4992  -22.1873   21.5983 O   0  0  0  0  0  0  0  0  0  0  0  0
    5.3818  -21.7905   22.3613 C   0  0  0  0  0  0  0  0  0  0  0  0
    4.5684  -20.8691   21.5005 C   0  0  2  0  0  0  0  0  0  0  0  0
    5.1064  -20.7492   20.1845 N   0  0  0  0  0  0  0  0  0  0  0  0
    4.4090  -19.5503   22.1718 C   0  0  0  0  0  0  0  0  0  0  0  0
    4.1488  -19.4629   23.4127 O   0  0  0  0  0  0  0  0  0  0  0  0
    4.5345  -18.3094   21.4807 N   0  0  0  0  0  0  0  0  0  0  0  0
    4.9423  -17.1055   22.1799 C   0  0  0  0  0  0  0  0  0  0  0  0
    6.2463  -16.6555   21.5939 C   0  0  0  0  0  0  0  0  0  0  0  0
    6.5412  -16.7959   20.3823 O   0  0  0  0  0  0  0  0  0  0  0  0
    7.8088  -12.3450   19.4625 N   0  0  0  0  0  0  0  0  0  0  0  0
    8.2715  -13.5941   20.0139 C   0  0  0  0  0  0  0  0  0  0  0  0
    9.1638  -14.2128   19.3859 O   0  0  0  0  0  0  0  0  0  0  0  0
    7.6750  -14.0588   21.2646 C   0  0  0  0  0  0  0  0  0  0  0  0
    8.3135  -15.3234   21.8299 C   0  0  2  0  0  0  0  0  0  0  0  0
    7.1900  -16.0425   22.4483 N   0  0  0  0  0  0  0  0  0  0  0  0
    9.3200  -15.0350   22.8781 C   0  0  0  0  0  0  0  0  0  0  0  0
    8.9858  -14.7542   24.0424 O   0  0  0  0  0  0  0  0  0  0  0  0
   10.6730  -15.0726   22.5794 O   0  0  0  0  0  0  0  0  0  0  0  0
  1  2  1  0
  3  2  1  0
  3  5  1  0
  3  4  1  6
  5  6  2  0
  7  8  1  0
  7  5  1  0
  8  9  1  0
  9 10  2  0
  9 16  1  0
 12 11  1  0
 12 13  2  0
 14 12  1  0
 15 14  1  1
 16 15  1  0
 17 15  1  0
 17 19  1  0
 18 17  2  0
M  END
$$$$
