SGN.pdb
     RDKit          3D

 19 18  0  0  1  0  0  0  0  0999 V2000
    8.2760  -12.0747   17.5555 O   0  0  0  0  0  0  0  0  0  0  0  0
    7.7481  -12.4462   18.8089 C   0  0  0  0  0  0  0  0  0  0  0  0
    8.0690  -13.8986   19.0065 C   0  0  2  0  0  0  0  0  0  0  0  0
    7.4919  -14.7188   17.9916 N   0  0  0  0  0  0  0  0  0  0  0  0
    7.6751  -14.3276   20.3762 C   0  0  0  0  0  0  0  0  0  0  0  0
    6.5749  -14.9248   20.5953 O   0  0  0  0  0  0  0  0  0  0  0  0
    8.4916  -14.1020   21.5232 N   0  0  0  0  0  0  0  0  0  0  0  0
    8.0692  -14.5478   22.8374 C   0  0  0  0  0  0  0  0  0  0  0  0
    9.1855  -15.3552   23.4274 C   0  0  0  0  0  0  0  0  0  0  0  0
   10.2986  -15.5030   22.8672 O   0  0  0  0  0  0  0  0  0  0  0  0
   10.3325  -18.5079   28.3265 N   0  0  0  0  0  0  0  0  0  0  0  0
   10.8012  -17.3563   27.5967 C   0  0  0  0  0  0  0  0  0  0  0  0
   12.0125  -17.0501   27.7076 O   0  0  0  0  0  0  0  0  0  0  0  0
    9.8401  -16.6216   26.7768 C   0  0  0  0  0  0  0  0  0  0  0  0
   10.0959  -16.7180   25.2762 C   0  0  2  0  0  0  0  0  0  0  0  0
    8.9739  -15.9807   24.6767 N   0  0  0  0  0  0  0  0  0  0  0  0
   10.0594  -18.1133   24.7795 C   0  0  0  0  0  0  0  0  0  0  0  0
    8.9858  -18.7200   24.6197 O   0  0  0  0  0  0  0  0  0  0  0  0
   11.2363  -18.7807   24.4783 O   0  0  0  0  0  0  0  0  0  0  0  0
  1  2  1  0
  3  2  1  0
  3  5  1  0
  3  4  1  6
  5  6  2  0
  7  8  1  0
  7  5  1  0
  8  9  1  0
  9 10  2  0
  9 16  1  0
 12 11  1  0
 12 13  2  0
 14 12  1  0
 15 14  1  1
 16 15  1  0
 17 15  1  0
 17 19  1  0
 18 17  2  0
M  END
$$$$
