KRI.pdb
     RDKit          3D

 29 28  0  0  1  0  0  0  0  0999 V2000
    7.4535  -17.4181   18.6842 N   0  0  0  0  0  0  0  0  0  0  0  0
    7.9547  -16.3764   19.5222 C   0  0  1  0  0  0  0  0  0  0  0  0
    7.2986  -15.0825   19.2245 C   0  0  0  0  0  0  0  0  0  0  0  0
    7.6713  -14.4059   17.9634 C   0  0  0  0  0  0  0  0  0  0  0  0
    8.1948  -13.0234   18.0477 C   0  0  0  0  0  0  0  0  0  0  0  0
    8.3653  -12.3960   16.6536 C   0  0  0  0  0  0  0  0  0  0  0  0
    7.8929  -13.3441   15.6862 N   0  0  0  0  0  0  0  0  0  0  0  0
    7.9478  -16.7388   20.9629 C   0  0  0  0  0  0  0  0  0  0  0  0
    6.8848  -17.1389   21.5294 O   0  0  0  0  0  0  0  0  0  0  0  0
   12.6686  -20.6378   21.8633 N   0  0  0  0  0  0  0  0  0  0  0  0
   13.6964  -19.6241   21.9484 C   0  0  0  0  0  0  0  0  0  0  0  0
   14.7379  -19.6813   21.1885 N   0  0  0  0  0  0  0  0  0  0  0  0
   13.5525  -18.5610   22.8762 N   0  0  0  0  0  0  0  0  0  0  0  0
   12.3325  -18.3086   23.6097 C   0  0  0  0  0  0  0  0  0  0  0  0
   11.0944  -18.5169   22.7626 C   0  0  0  0  0  0  0  0  0  0  0  0
    9.8965  -18.2009   23.5850 C   0  0  0  0  0  0  0  0  0  0  0  0
    9.1419  -16.9835   23.1910 C   0  0  2  0  0  0  0  0  0  0  0  0
    9.0951  -16.6677   21.7956 N   0  0  0  0  0  0  0  0  0  0  0  0
    9.3630  -15.8171   24.0581 C   0  0  0  0  0  0  0  0  0  0  0  0
   10.3234  -15.0630   23.8671 O   0  0  0  0  0  0  0  0  0  0  0  0
   15.4218  -18.9155   21.2272 C   0  0  0  0  0  0  0  0  0  0  0  0
    6.8498  -11.1121   26.5696 C   0  0  0  0  0  0  0  0  0  0  0  0
    7.8863  -12.1722   26.8476 C   0  0  2  0  0  0  0  0  0  0  0  0
    7.7409  -13.3451   25.9635 C   0  0  0  0  0  0  0  0  0  0  0  0
    6.3472  -13.9391   26.1653 C   0  0  2  0  0  0  0  0  0  0  0  0
    8.7124  -14.4454   26.0770 N   0  0  0  0  0  0  0  0  0  0  0  0
    8.4919  -15.5418   25.1184 C   0  0  0  0  0  0  0  0  0  0  0  0
    8.9122  -15.0069   27.4379 O   0  0  0  0  0  0  0  0  0  0  0  0
    8.6529  -16.3266   27.7605 O   0  0  0  0  0  0  0  0  0  0  0  0
  2  1  1  6
  2  8  1  0
  3  4  1  0
  3  2  1  0
  5  6  1  0
  5  4  1  0
  7  6  1  0
  8 18  1  0
  8  9  2  0
 11 13  1  0
 11 10  1  0
 12 11  2  0
 14 15  1  0
 14 13  1  0
 17 16  1  6
 16 15  1  0
 17 19  1  0
 18 17  1  0
 19 20  2  0
 21 22  1  0
 22 23  1  0
 23 25  1  0
 23 24  1  6
 25 27  1  0
 25 26  1  1
 26 19  1  0
 27 29  2  0
 27 28  1  0
M  END
$$$$
