KRI.pdb
     RDKit          3D

 29 28  0  0  1  0  0  0  0  0999 V2000
    7.8951  -16.7588   19.4626 N   0  0  0  0  0  0  0  0  0  0  0  0
    8.3006  -15.5213   20.0479 C   0  0  1  0  0  0  0  0  0  0  0  0
    8.0945  -14.3903   19.1142 C   0  0  0  0  0  0  0  0  0  0  0  0
    8.3417  -14.6412   17.6778 C   0  0  0  0  0  0  0  0  0  0  0  0
    8.3790  -13.4741   16.7674 C   0  0  0  0  0  0  0  0  0  0  0  0
    8.4095  -13.9073   15.2917 C   0  0  0  0  0  0  0  0  0  0  0  0
    8.3274  -12.7230   14.4862 N   0  0  0  0  0  0  0  0  0  0  0  0
    7.7209  -15.3020   21.3980 C   0  0  0  0  0  0  0  0  0  0  0  0
    8.0304  -14.2786   22.0820 O   0  0  0  0  0  0  0  0  0  0  0  0
    8.5719  -18.6088   27.0662 N   0  0  0  0  0  0  0  0  0  0  0  0
    7.8718  -19.8592   27.2587 C   0  0  0  0  0  0  0  0  0  0  0  0
    8.2171  -20.6647   28.2062 N   0  0  0  0  0  0  0  0  0  0  0  0
    6.7977  -20.1972   26.3963 N   0  0  0  0  0  0  0  0  0  0  0  0
    6.4556  -19.4318   25.2186 C   0  0  0  0  0  0  0  0  0  0  0  0
    7.6765  -19.0103   24.4276 C   0  0  0  0  0  0  0  0  0  0  0  0
    7.2263  -18.3552   23.1708 C   0  0  0  0  0  0  0  0  0  0  0  0
    7.0043  -16.8884   23.2474 C   0  0  2  0  0  0  0  0  0  0  0  0
    6.8029  -16.1935   22.0123 N   0  0  0  0  0  0  0  0  0  0  0  0
    7.8842  -16.1832   24.1906 C   0  0  0  0  0  0  0  0  0  0  0  0
    9.0925  -16.0666   23.9584 O   0  0  0  0  0  0  0  0  0  0  0  0
    7.7142  -21.5550   28.3072 C   0  0  0  0  0  0  0  0  0  0  0  0
    5.9088  -11.5821   26.1934 C   0  0  0  0  0  0  0  0  0  0  0  0
    6.8171  -12.6373   25.6132 C   0  0  2  0  0  0  0  0  0  0  0  0
    7.3858  -13.5206   26.6500 C   0  0  0  0  0  0  0  0  0  0  0  0
    8.3044  -12.6920   27.5475 C   0  0  2  0  0  0  0  0  0  0  0  0
    8.1356  -14.7165   26.2318 N   0  0  0  0  0  0  0  0  0  0  0  0
    7.3698  -15.6342   25.3708 C   0  0  0  0  0  0  0  0  0  0  0  0
    8.7989  -15.4874   27.3148 O   0  0  0  0  0  0  0  0  0  0  0  0
    9.9937  -15.1047   27.8971 O   0  0  0  0  0  0  0  0  0  0  0  0
  2  1  1  6
  2  8  1  0
  3  4  1  0
  3  2  1  0
  5  6  1  0
  5  4  1  0
  7  6  1  0
  8 18  1  0
  8  9  2  0
 11 13  1  0
 11 10  1  0
 12 11  2  0
 14 15  1  0
 14 13  1  0
 17 16  1  6
 16 15  1  0
 17 19  1  0
 18 17  1  0
 19 20  2  0
 21 22  1  0
 22 23  1  0
 23 25  1  0
 23 24  1  1
 25 27  1  0
 25 26  1  6
 26 19  1  0
 27 29  2  0
 27 28  1  0
M  END
$$$$
