KRI.pdb
     RDKit          3D

 29 28  0  0  1  0  0  0  0  0999 V2000
    9.5889  -15.3059   18.4221 N   0  0  0  0  0  0  0  0  0  0  0  0
    8.7839  -14.3248   19.0761 C   0  0  1  0  0  0  0  0  0  0  0  0
    7.6008  -13.9672   18.2602 C   0  0  0  0  0  0  0  0  0  0  0  0
    7.6203  -14.3485   16.8314 C   0  0  0  0  0  0  0  0  0  0  0  0
    7.6916  -13.2637   15.8261 C   0  0  0  0  0  0  0  0  0  0  0  0
    7.5368  -13.8063   14.3950 C   0  0  0  0  0  0  0  0  0  0  0  0
    7.6458  -12.6966   13.4922 N   0  0  0  0  0  0  0  0  0  0  0  0
    8.4613  -14.6837   20.4812 C   0  0  0  0  0  0  0  0  0  0  0  0
    7.7036  -13.9476   21.1846 O   0  0  0  0  0  0  0  0  0  0  0  0
   11.2729  -19.1296   19.9299 N   0  0  0  0  0  0  0  0  0  0  0  0
   10.7352  -20.4711   19.9758 C   0  0  0  0  0  0  0  0  0  0  0  0
   10.9495  -21.2967   19.0072 N   0  0  0  0  0  0  0  0  0  0  0  0
    9.9673  -20.8768   21.0971 N   0  0  0  0  0  0  0  0  0  0  0  0
    9.5559  -19.9708   22.1459 C   0  0  0  0  0  0  0  0  0  0  0  0
    9.3763  -18.5520   21.6474 C   0  0  0  0  0  0  0  0  0  0  0  0
    8.8449  -17.7205   22.7599 C   0  0  0  0  0  0  0  0  0  0  0  0
    8.6114  -16.2878   22.4445 C   0  0  2  0  0  0  0  0  0  0  0  0
    8.9607  -15.8437   21.1293 N   0  0  0  0  0  0  0  0  0  0  0  0
    9.0001  -15.3536   23.5110 C   0  0  0  0  0  0  0  0  0  0  0  0
   10.1564  -14.9230   23.5811 O   0  0  0  0  0  0  0  0  0  0  0  0
   10.5446  -22.2395   19.0614 C   0  0  0  0  0  0  0  0  0  0  0  0
    5.4549  -11.7964   26.5790 C   0  0  0  0  0  0  0  0  0  0  0  0
    6.1531  -13.0948   26.2599 C   0  0  2  0  0  0  0  0  0  0  0  0
    7.5130  -12.8847   25.7260 C   0  0  0  0  0  0  0  0  0  0  0  0
    7.4017  -12.2240   24.3523 C   0  0  1  0  0  0  0  0  0  0  0  0
    8.4098  -14.0442   25.5889 N   0  0  0  0  0  0  0  0  0  0  0  0
    8.0682  -14.9378   24.4689 C   0  0  0  0  0  0  0  0  0  0  0  0
    8.6343  -14.8491   26.8173 O   0  0  0  0  0  0  0  0  0  0  0  0
    9.2217  -14.3406   27.9616 O   0  0  0  0  0  0  0  0  0  0  0  0
  2  1  1  6
  2  8  1  0
  3  4  1  0
  3  2  1  0
  5  6  1  0
  5  4  1  0
  7  6  1  0
  8 18  1  0
  8  9  2  0
 11 13  1  0
 11 10  1  0
 12 11  2  0
 14 15  1  0
 14 13  1  0
 17 16  1  1
 16 15  1  0
 17 19  1  0
 18 17  1  0
 19 20  2  0
 21 22  1  0
 22 23  1  0
 23 25  1  0
 23 24  1  1
 25 27  1  0
 25 26  1  6
 26 19  1  0
 27 29  2  0
 27 28  1  0
M  END
$$$$
