KRI.pdb
     RDKit          3D

 29 28  0  0  1  0  0  0  0  0999 V2000
    6.3097  -17.7902   19.8352 N   0  0  0  0  0  0  0  0  0  0  0  0
    7.2562  -16.8239   20.2922 C   0  0  1  0  0  0  0  0  0  0  0  0
    6.9728  -15.4837   19.7293 C   0  0  0  0  0  0  0  0  0  0  0  0
    8.0495  -14.4727   19.8066 C   0  0  0  0  0  0  0  0  0  0  0  0
    7.7449  -13.1000   19.3427 C   0  0  0  0  0  0  0  0  0  0  0  0
    8.9703  -12.1773   19.4595 C   0  0  0  0  0  0  0  0  0  0  0  0
    9.4905  -11.9713   18.1385 N   0  0  0  0  0  0  0  0  0  0  0  0
    7.4274  -16.8343   21.7679 C   0  0  0  0  0  0  0  0  0  0  0  0
    6.4344  -16.6682   22.5406 O   0  0  0  0  0  0  0  0  0  0  0  0
   11.4743  -20.6447   21.2176 N   0  0  0  0  0  0  0  0  0  0  0  0
   12.7491  -20.5816   21.8974 C   0  0  0  0  0  0  0  0  0  0  0  0
   13.8382  -20.8916   21.2782 N   0  0  0  0  0  0  0  0  0  0  0  0
   12.7961  -20.1747   23.2553 N   0  0  0  0  0  0  0  0  0  0  0  0
   11.6211  -19.8119   24.0153 C   0  0  0  0  0  0  0  0  0  0  0  0
   10.8347  -18.6923   23.3658 C   0  0  0  0  0  0  0  0  0  0  0  0
    9.7242  -18.3016   24.2743 C   0  0  0  0  0  0  0  0  0  0  0  0
    8.8858  -17.1621   23.8212 C   0  0  2  0  0  0  0  0  0  0  0  0
    8.6782  -17.0245   22.4116 N   0  0  0  0  0  0  0  0  0  0  0  0
    9.1535  -15.8913   24.5102 C   0  0  0  0  0  0  0  0  0  0  0  0
   10.0019  -15.1051   24.0750 O   0  0  0  0  0  0  0  0  0  0  0  0
   14.7233  -20.8857   21.7999 C   0  0  0  0  0  0  0  0  0  0  0  0
    5.6804  -12.2242   26.2272 C   0  0  0  0  0  0  0  0  0  0  0  0
    6.9378  -12.9051   25.7473 C   0  0  2  0  0  0  0  0  0  0  0  0
    7.7040  -13.5131   26.8526 C   0  0  0  0  0  0  0  0  0  0  0  0
    8.2498  -12.3957   27.7412 C   0  0  2  0  0  0  0  0  0  0  0  0
    8.8254  -14.4110   26.5305 N   0  0  0  0  0  0  0  0  0  0  0  0
    8.4547  -15.5506   25.6740 C   0  0  0  0  0  0  0  0  0  0  0  0
    9.6304  -14.8947   27.6817 O   0  0  0  0  0  0  0  0  0  0  0  0
   10.5794  -14.1199   28.3238 O   0  0  0  0  0  0  0  0  0  0  0  0
  2  1  1  1
  2  8  1  0
  3  4  1  0
  3  2  1  0
  5  6  1  0
  5  4  1  0
  7  6  1  0
  8 18  1  0
  8  9  2  0
 11 13  1  0
 11 10  1  0
 12 11  2  0
 14 15  1  0
 14 13  1  0
 17 16  1  6
 16 15  1  0
 17 19  1  0
 18 17  1  0
 19 20  2  0
 21 22  1  0
 22 23  1  0
 23 25  1  0
 23 24  1  1
 25 27  1  0
 25 26  1  6
 26 19  1  0
 27 29  2  0
 27 28  1  0
M  END
$$$$
