KRI.pdb
     RDKit          3D

 29 28  0  0  1  0  0  0  0  0999 V2000
    8.9706  -16.4447   19.0073 N   0  0  0  0  0  0  0  0  0  0  0  0
    8.7813  -15.1818   19.6459 C   0  0  1  0  0  0  0  0  0  0  0  0
    8.0196  -14.2501   18.7828 C   0  0  0  0  0  0  0  0  0  0  0  0
    8.4641  -14.1066   17.3796 C   0  0  0  0  0  0  0  0  0  0  0  0
    7.4630  -13.6775   16.3765 C   0  0  0  0  0  0  0  0  0  0  0  0
    8.0986  -13.4817   14.9894 C   0  0  0  0  0  0  0  0  0  0  0  0
    7.0663  -13.0484   14.0923 N   0  0  0  0  0  0  0  0  0  0  0  0
    8.2408  -15.3054   21.0242 C   0  0  0  0  0  0  0  0  0  0  0  0
    8.0128  -14.2753   21.7298 O   0  0  0  0  0  0  0  0  0  0  0  0
    7.4046  -19.7717   27.9622 N   0  0  0  0  0  0  0  0  0  0  0  0
    8.2722  -20.3523   26.9618 C   0  0  0  0  0  0  0  0  0  0  0  0
    9.4225  -20.8353   27.2922 N   0  0  0  0  0  0  0  0  0  0  0  0
    7.8498  -20.3885   25.6083 N   0  0  0  0  0  0  0  0  0  0  0  0
    6.6349  -19.7603   25.1399 C   0  0  0  0  0  0  0  0  0  0  0  0
    6.8199  -18.2847   24.8530 C   0  0  0  0  0  0  0  0  0  0  0  0
    7.2470  -18.1250   23.4376 C   0  0  0  0  0  0  0  0  0  0  0  0
    7.4689  -16.7291   22.9806 C   0  0  2  0  0  0  0  0  0  0  0  0
    7.9460  -16.5483   21.6432 N   0  0  0  0  0  0  0  0  0  0  0  0
    8.1204  -15.8565   23.9681 C   0  0  0  0  0  0  0  0  0  0  0  0
    9.3526  -15.8099   24.0520 O   0  0  0  0  0  0  0  0  0  0  0  0
   10.0000  -21.2791   26.5675 C   0  0  0  0  0  0  0  0  0  0  0  0
    6.6055  -10.5100   26.5966 C   0  0  0  0  0  0  0  0  0  0  0  0
    7.6072  -11.6357   26.5282 C   0  0  2  0  0  0  0  0  0  0  0  0
    7.0792  -12.8147   25.8144 C   0  0  0  0  0  0  0  0  0  0  0  0
    5.7838  -13.2575   26.4942 C   0  0  2  0  0  0  0  0  0  0  0  0
    7.9357  -14.0039   25.6753 N   0  0  0  0  0  0  0  0  0  0  0  0
    7.3568  -15.0653   24.8339 C   0  0  0  0  0  0  0  0  0  0  0  0
    8.4492  -14.5944   26.9382 O   0  0  0  0  0  0  0  0  0  0  0  0
    9.4034  -13.9817   27.7301 O   0  0  0  0  0  0  0  0  0  0  0  0
  2  1  1  6
  2  8  1  0
  3  4  1  0
  3  2  1  0
  5  6  1  0
  5  4  1  0
  7  6  1  0
  8 18  1  0
  8  9  2  0
 11 13  1  0
 11 10  1  0
 12 11  2  0
 14 15  1  0
 14 13  1  0
 17 16  1  1
 16 15  1  0
 17 19  1  0
 18 17  1  0
 19 20  2  0
 21 22  1  0
 22 23  1  0
 23 25  1  0
 23 24  1  6
 25 27  1  0
 25 26  1  1
 26 19  1  0
 27 29  2  0
 27 28  1  0
M  END
$$$$
