KRI.pdb
     RDKit          3D

 29 28  0  0  1  0  0  0  0  0999 V2000
    7.7083  -21.0407   24.6008 N   0  0  0  0  0  0  0  0  0  0  0  0
    7.1963  -19.7844   25.0456 C   0  0  1  0  0  0  0  0  0  0  0  0
    7.2414  -19.6762   26.5220 C   0  0  0  0  0  0  0  0  0  0  0  0
    8.4511  -20.1850   27.2040 C   0  0  0  0  0  0  0  0  0  0  0  0
    8.4177  -20.2987   28.6799 C   0  0  0  0  0  0  0  0  0  0  0  0
    9.7149  -20.9157   29.2302 C   0  0  0  0  0  0  0  0  0  0  0  0
    9.5778  -21.0249   30.6541 N   0  0  0  0  0  0  0  0  0  0  0  0
    7.8037  -18.6283   24.3374 C   0  0  0  0  0  0  0  0  0  0  0  0
    9.0567  -18.5668   24.1447 O   0  0  0  0  0  0  0  0  0  0  0  0
    8.7559  -12.3328   17.6882 N   0  0  0  0  0  0  0  0  0  0  0  0
    8.1268  -13.4599   18.3400 C   0  0  0  0  0  0  0  0  0  0  0  0
    8.4197  -14.6670   17.9897 N   0  0  0  0  0  0  0  0  0  0  0  0
    7.1815  -13.2302   19.3721 N   0  0  0  0  0  0  0  0  0  0  0  0
    6.6009  -14.2901   20.1657 C   0  0  0  0  0  0  0  0  0  0  0  0
    7.4612  -14.6591   21.3563 C   0  0  0  0  0  0  0  0  0  0  0  0
    6.8117  -15.7825   22.0826 C   0  0  0  0  0  0  0  0  0  0  0  0
    7.5896  -16.3643   23.2064 C   0  0  2  0  0  0  0  0  0  0  0  0
    7.0533  -17.5329   23.8354 N   0  0  0  0  0  0  0  0  0  0  0  0
    8.1358  -15.3781   24.1499 C   0  0  0  0  0  0  0  0  0  0  0  0
    8.1407  -14.1742   23.8705 O   0  0  0  0  0  0  0  0  0  0  0  0
    7.8905  -15.4448   18.4029 C   0  0  0  0  0  0  0  0  0  0  0  0
    6.3885  -12.1615   26.5483 C   0  0  0  0  0  0  0  0  0  0  0  0
    7.4491  -13.0212   25.9070 C   0  0  2  0  0  0  0  0  0  0  0  0
    8.1262  -13.8985   26.8819 C   0  0  0  0  0  0  0  0  0  0  0  0
    8.7727  -13.0261   27.9575 C   0  0  2  0  0  0  0  0  0  0  0  0
    9.1503  -14.8397   26.3997 N   0  0  0  0  0  0  0  0  0  0  0  0
    8.6640  -15.7853   25.3804 C   0  0  0  0  0  0  0  0  0  0  0  0
    9.9062  -15.5786   27.4437 O   0  0  0  0  0  0  0  0  0  0  0  0
   10.8181  -14.9756   28.2910 O   0  0  0  0  0  0  0  0  0  0  0  0
  2  1  1  1
  2  8  1  0
  3  4  1  0
  3  2  1  0
  5  6  1  0
  5  4  1  0
  7  6  1  0
  8 18  1  0
  8  9  2  0
 11 13  1  0
 11 10  1  0
 12 11  2  0
 14 15  1  0
 14 13  1  0
 17 16  1  1
 16 15  1  0
 17 19  1  0
 18 17  1  0
 19 20  2  0
 21 22  1  0
 22 23  1  0
 23 25  1  0
 23 24  1  1
 25 27  1  0
 25 26  1  6
 26 19  1  0
 27 29  2  0
 27 28  1  0
M  END
$$$$
