KRI.pdb
     RDKit          3D

 29 28  0  0  1  0  0  0  0  0999 V2000
    6.5377  -17.4956   19.7736 N   0  0  0  0  0  0  0  0  0  0  0  0
    7.6362  -16.7437   20.2896 C   0  0  1  0  0  0  0  0  0  0  0  0
    7.6205  -15.3512   19.7853 C   0  0  0  0  0  0  0  0  0  0  0  0
    7.8307  -15.1514   18.3351 C   0  0  0  0  0  0  0  0  0  0  0  0
    7.9140  -13.7610   17.8327 C   0  0  0  0  0  0  0  0  0  0  0  0
    8.1265  -13.7206   16.3096 C   0  0  0  0  0  0  0  0  0  0  0  0
    8.2062  -12.3436   15.9153 N   0  0  0  0  0  0  0  0  0  0  0  0
    7.7674  -16.8490   21.7657 C   0  0  0  0  0  0  0  0  0  0  0  0
    6.7767  -16.6227   22.5260 O   0  0  0  0  0  0  0  0  0  0  0  0
   11.9067  -20.7242   28.2737 N   0  0  0  0  0  0  0  0  0  0  0  0
   11.2515  -19.4705   28.5737 C   0  0  0  0  0  0  0  0  0  0  0  0
   11.7996  -18.6195   29.3742 N   0  0  0  0  0  0  0  0  0  0  0  0
    9.9967  -19.1797   27.9798 N   0  0  0  0  0  0  0  0  0  0  0  0
    9.7641  -19.2287   26.5539 C   0  0  0  0  0  0  0  0  0  0  0  0
   10.4715  -18.1127   25.8135 C   0  0  0  0  0  0  0  0  0  0  0  0
   10.1480  -18.2221   24.3662 C   0  0  0  0  0  0  0  0  0  0  0  0
    9.1869  -17.2197   23.8388 C   0  0  2  0  0  0  0  0  0  0  0  0
    8.9754  -17.2001   22.4232 N   0  0  0  0  0  0  0  0  0  0  0  0
    9.3006  -15.8840   24.4422 C   0  0  0  0  0  0  0  0  0  0  0  0
    9.9997  -15.0118   23.9150 O   0  0  0  0  0  0  0  0  0  0  0  0
   11.3290  -17.7213   29.5400 C   0  0  0  0  0  0  0  0  0  0  0  0
    5.7829  -12.0823   25.4312 C   0  0  0  0  0  0  0  0  0  0  0  0
    7.1384  -12.7170   25.2449 C   0  0  2  0  0  0  0  0  0  0  0  0
    7.5622  -13.4933   26.4265 C   0  0  0  0  0  0  0  0  0  0  0  0
    7.7195  -12.5370   27.6085 C   0  0  2  0  0  0  0  0  0  0  0  0
    8.7902  -14.3010   26.3433 N   0  0  0  0  0  0  0  0  0  0  0  0
    8.6218  -15.5770   25.6271 C   0  0  0  0  0  0  0  0  0  0  0  0
    9.5071  -14.5392   27.6226 O   0  0  0  0  0  0  0  0  0  0  0  0
   10.3192  -13.5955   28.2252 O   0  0  0  0  0  0  0  0  0  0  0  0
  2  1  1  1
  2  8  1  0
  3  4  1  0
  3  2  1  0
  5  6  1  0
  5  4  1  0
  7  6  1  0
  8 18  1  0
  8  9  2  0
 11 13  1  0
 11 10  1  0
 12 11  2  0
 14 15  1  0
 14 13  1  0
 17 16  1  6
 16 15  1  0
 17 19  1  0
 18 17  1  0
 19 20  2  0
 21 22  1  0
 22 23  1  0
 23 25  1  0
 23 24  1  1
 25 27  1  0
 25 26  1  6
 26 19  1  0
 27 29  2  0
 27 28  1  0
M  END
$$$$
