KRI.pdb
     RDKit          3D

 29 28  0  0  1  0  0  0  0  0999 V2000
    6.9254  -19.3194   23.7236 N   0  0  0  0  0  0  0  0  0  0  0  0
    7.9883  -19.3528   22.7711 C   0  0  1  0  0  0  0  0  0  0  0  0
    7.5817  -20.0587   21.5342 C   0  0  0  0  0  0  0  0  0  0  0  0
    6.1345  -20.1330   21.2388 C   0  0  0  0  0  0  0  0  0  0  0  0
    5.7040  -20.9618   20.0898 C   0  0  0  0  0  0  0  0  0  0  0  0
    4.1867  -20.8626   19.8564 C   0  0  0  0  0  0  0  0  0  0  0  0
    3.8731  -21.6296   18.6853 N   0  0  0  0  0  0  0  0  0  0  0  0
    8.5937  -18.0174   22.5321 C   0  0  0  0  0  0  0  0  0  0  0  0
    9.8442  -17.8373   22.6531 O   0  0  0  0  0  0  0  0  0  0  0  0
    9.1714  -12.7452   16.5864 N   0  0  0  0  0  0  0  0  0  0  0  0
    8.3976  -13.9141   16.9410 C   0  0  0  0  0  0  0  0  0  0  0  0
    8.2969  -14.9067   16.1222 N   0  0  0  0  0  0  0  0  0  0  0  0
    7.7468  -13.9642   18.2002 N   0  0  0  0  0  0  0  0  0  0  0  0
    7.8810  -12.9322   19.2036 C   0  0  0  0  0  0  0  0  0  0  0  0
    8.4041  -13.4692   20.5196 C   0  0  0  0  0  0  0  0  0  0  0  0
    7.9294  -14.8687   20.6848 C   0  0  0  0  0  0  0  0  0  0  0  0
    8.3720  -15.5620   21.9218 C   0  0  2  0  0  0  0  0  0  0  0  0
    7.8437  -16.8707   22.1611 N   0  0  0  0  0  0  0  0  0  0  0  0
    8.4181  -14.7106   23.1193 C   0  0  0  0  0  0  0  0  0  0  0  0
    8.1875  -13.4990   23.0403 O   0  0  0  0  0  0  0  0  0  0  0  0
    7.7778  -15.7424   16.4186 C   0  0  0  0  0  0  0  0  0  0  0  0
    6.3659  -11.7758   26.9466 C   0  0  0  0  0  0  0  0  0  0  0  0
    7.5047  -12.7625   27.0153 C   0  0  2  0  0  0  0  0  0  0  0  0
    7.5630  -13.6364   25.8273 C   0  0  0  0  0  0  0  0  0  0  0  0
    6.3583  -14.5767   25.8530 C   0  0  2  0  0  0  0  0  0  0  0  0
    8.7636  -14.4599   25.6090 N   0  0  0  0  0  0  0  0  0  0  0  0
    8.7279  -15.2563   24.3704 C   0  0  0  0  0  0  0  0  0  0  0  0
    9.1829  -15.3227   26.7434 O   0  0  0  0  0  0  0  0  0  0  0  0
    9.7286  -14.8266   27.9136 O   0  0  0  0  0  0  0  0  0  0  0  0
  2  1  1  1
  2  8  1  0
  3  4  1  0
  3  2  1  0
  5  6  1  0
  5  4  1  0
  7  6  1  0
  8 18  1  0
  8  9  2  0
 11 13  1  0
 11 10  1  0
 12 11  2  0
 14 15  1  0
 14 13  1  0
 17 16  1  6
 16 15  1  0
 17 19  1  0
 18 17  1  0
 19 20  2  0
 21 22  1  0
 22 23  1  0
 23 25  1  0
 23 24  1  6
 25 27  1  0
 25 26  1  1
 26 19  1  0
 27 29  2  0
 27 28  1  0
M  END
$$$$
