KRI.pdb
     RDKit          3D

 29 28  0  0  1  0  0  0  0  0999 V2000
   10.4331  -21.0277   24.0234 N   0  0  0  0  0  0  0  0  0  0  0  0
    9.2000  -20.5403   24.5529 C   0  0  1  0  0  0  0  0  0  0  0  0
    9.0313  -20.9295   25.9719 C   0  0  0  0  0  0  0  0  0  0  0  0
   10.2517  -21.0143   26.8029 C   0  0  0  0  0  0  0  0  0  0  0  0
   10.0973  -21.4080   28.2219 C   0  0  0  0  0  0  0  0  0  0  0  0
   11.4599  -21.5598   28.9195 C   0  0  0  0  0  0  0  0  0  0  0  0
   11.2146  -21.7767   30.3162 N   0  0  0  0  0  0  0  0  0  0  0  0
    8.9919  -19.0920   24.2960 C   0  0  0  0  0  0  0  0  0  0  0  0
    9.5994  -18.2143   24.9825 O   0  0  0  0  0  0  0  0  0  0  0  0
    7.3126  -12.5128   20.2519 N   0  0  0  0  0  0  0  0  0  0  0  0
    8.2225  -13.1143   19.3026 C   0  0  0  0  0  0  0  0  0  0  0  0
    8.7273  -12.4133   18.3437 N   0  0  0  0  0  0  0  0  0  0  0  0
    8.5591  -14.4861   19.4319 N   0  0  0  0  0  0  0  0  0  0  0  0
    8.6665  -15.1592   20.7068 C   0  0  0  0  0  0  0  0  0  0  0  0
    7.3145  -15.4347   21.3314 C   0  0  0  0  0  0  0  0  0  0  0  0
    7.2526  -16.8691   21.7187 C   0  0  0  0  0  0  0  0  0  0  0  0
    7.8376  -17.2098   23.0409 C   0  0  2  0  0  0  0  0  0  0  0  0
    8.1225  -18.5898   23.2926 N   0  0  0  0  0  0  0  0  0  0  0  0
    7.2264  -16.5107   24.1807 C   0  0  0  0  0  0  0  0  0  0  0  0
    6.3950  -17.0797   24.8966 O   0  0  0  0  0  0  0  0  0  0  0  0
    9.3076  -12.8841   17.6385 C   0  0  0  0  0  0  0  0  0  0  0  0
    8.2678  -11.1075   26.6736 C   0  0  0  0  0  0  0  0  0  0  0  0
    8.2381  -12.2210   25.6564 C   0  0  2  0  0  0  0  0  0  0  0  0
    7.9561  -13.5338   26.2691 C   0  0  0  0  0  0  0  0  0  0  0  0
    9.2737  -14.2920   26.4277 C   0  0  1  0  0  0  0  0  0  0  0  0
    7.0016  -14.4374   25.6060 N   0  0  0  0  0  0  0  0  0  0  0  0
    7.5723  -15.1865   24.4733 C   0  0  0  0  0  0  0  0  0  0  0  0
    5.7027  -13.8392   25.2031 O   0  0  0  0  0  0  0  0  0  0  0  0
    4.7742  -13.3592   26.1090 O   0  0  0  0  0  0  0  0  0  0  0  0
  2  1  1  1
  2  8  1  0
  3  4  1  0
  3  2  1  0
  5  6  1  0
  5  4  1  0
  7  6  1  0
  8 18  1  0
  8  9  2  0
 11 13  1  0
 11 10  1  0
 12 11  2  0
 14 15  1  0
 14 13  1  0
 17 16  1  6
 16 15  1  0
 17 19  1  0
 18 17  1  0
 19 20  2  0
 21 22  1  0
 22 23  1  0
 23 25  1  0
 23 24  1  1
 25 27  1  0
 25 26  1  6
 26 19  1  0
 27 29  2  0
 27 28  1  0
M  END
$$$$
