KRI.pdb
     RDKit          3D

 29 28  0  0  1  0  0  0  0  0999 V2000
    8.0526  -19.7196   22.4869 N   0  0  0  0  0  0  0  0  0  0  0  0
    9.4136  -19.2882   22.4778 C   0  0  1  0  0  0  0  0  0  0  0  0
   10.1954  -19.9926   21.4358 C   0  0  0  0  0  0  0  0  0  0  0  0
    9.8721  -21.4145   21.1887 C   0  0  0  0  0  0  0  0  0  0  0  0
   10.6782  -22.1432   20.1829 C   0  0  0  0  0  0  0  0  0  0  0  0
    9.8091  -23.0913   19.3390 C   0  0  0  0  0  0  0  0  0  0  0  0
   10.6661  -23.7429   18.3908 N   0  0  0  0  0  0  0  0  0  0  0  0
    9.5519  -17.8095   22.4391 C   0  0  0  0  0  0  0  0  0  0  0  0
   10.6861  -17.2570   22.5771 O   0  0  0  0  0  0  0  0  0  0  0  0
    9.1385  -12.2769   18.1261 N   0  0  0  0  0  0  0  0  0  0  0  0
    8.1814  -13.2989   17.7647 C   0  0  0  0  0  0  0  0  0  0  0  0
    8.3172  -13.9657   16.6681 N   0  0  0  0  0  0  0  0  0  0  0  0
    7.0871  -13.5659   18.6267 N   0  0  0  0  0  0  0  0  0  0  0  0
    6.8943  -12.8969   19.8936 C   0  0  0  0  0  0  0  0  0  0  0  0
    7.8559  -13.3841   20.9575 C   0  0  0  0  0  0  0  0  0  0  0  0
    7.6355  -14.8397   21.1675 C   0  0  0  0  0  0  0  0  0  0  0  0
    8.5406  -15.4986   22.1438 C   0  0  2  0  0  0  0  0  0  0  0  0
    8.4589  -16.9237   22.2509 N   0  0  0  0  0  0  0  0  0  0  0  0
    8.6530  -14.8100   23.4378 C   0  0  0  0  0  0  0  0  0  0  0  0
    8.6608  -13.5755   23.4960 O   0  0  0  0  0  0  0  0  0  0  0  0
    7.6509  -14.7200   16.4615 C   0  0  0  0  0  0  0  0  0  0  0  0
    6.1542  -12.1725   25.8540 C   0  0  0  0  0  0  0  0  0  0  0  0
    7.3260  -12.9785   25.3517 C   0  0  2  0  0  0  0  0  0  0  0  0
    7.7229  -14.0409   26.2962 C   0  0  0  0  0  0  0  0  0  0  0  0
    8.0224  -13.4022   27.6522 C   0  0  2  0  0  0  0  0  0  0  0  0
    8.8624  -14.9076   25.9532 N   0  0  0  0  0  0  0  0  0  0  0  0
    8.7573  -15.5403   24.6272 C   0  0  0  0  0  0  0  0  0  0  0  0
    9.2372  -15.9299   26.9640 O   0  0  0  0  0  0  0  0  0  0  0  0
   10.0875  -15.6733   28.0244 O   0  0  0  0  0  0  0  0  0  0  0  0
  2  1  1  6
  2  8  1  0
  3  4  1  0
  3  2  1  0
  5  6  1  0
  5  4  1  0
  7  6  1  0
  8 18  1  0
  8  9  2  0
 11 13  1  0
 11 10  1  0
 12 11  2  0
 14 15  1  0
 14 13  1  0
 17 16  1  1
 16 15  1  0
 17 19  1  0
 18 17  1  0
 19 20  2  0
 21 22  1  0
 22 23  1  0
 23 25  1  0
 23 24  1  1
 25 27  1  0
 25 26  1  6
 26 19  1  0
 27 29  2  0
 27 28  1  0
M  END
$$$$
