KRI.pdb
     RDKit          3D

 29 28  0  0  1  0  0  0  0  0999 V2000
    8.3459  -17.7170   18.5264 N   0  0  0  0  0  0  0  0  0  0  0  0
    9.1406  -16.9012   19.3874 C   0  0  1  0  0  0  0  0  0  0  0  0
    9.3813  -15.5659   18.7938 C   0  0  0  0  0  0  0  0  0  0  0  0
    8.3665  -15.0487   17.8504 C   0  0  0  0  0  0  0  0  0  0  0  0
    8.6173  -13.7347   17.2155 C   0  0  0  0  0  0  0  0  0  0  0  0
    7.4692  -13.3319   16.2741 C   0  0  0  0  0  0  0  0  0  0  0  0
    7.8603  -12.1292   15.5969 N   0  0  0  0  0  0  0  0  0  0  0  0
    8.6268  -16.8581   20.7806 C   0  0  0  0  0  0  0  0  0  0  0  0
    7.3797  -16.8655   21.0160 O   0  0  0  0  0  0  0  0  0  0  0  0
   12.0366  -22.2345   22.6416 N   0  0  0  0  0  0  0  0  0  0  0  0
   12.0343  -20.9848   23.3690 C   0  0  0  0  0  0  0  0  0  0  0  0
   12.9748  -20.1195   23.1885 N   0  0  0  0  0  0  0  0  0  0  0  0
   10.9872  -20.7137   24.2865 N   0  0  0  0  0  0  0  0  0  0  0  0
    9.5916  -20.6840   23.9105 C   0  0  0  0  0  0  0  0  0  0  0  0
    9.2413  -19.4655   23.0820 C   0  0  0  0  0  0  0  0  0  0  0  0
    9.3476  -18.2579   23.9432 C   0  0  0  0  0  0  0  0  0  0  0  0
    9.0429  -16.9621   23.2839 C   0  0  2  0  0  0  0  0  0  0  0  0
    9.4650  -16.8062   21.9250 N   0  0  0  0  0  0  0  0  0  0  0  0
    9.2806  -15.7771   24.1207 C   0  0  0  0  0  0  0  0  0  0  0  0
   10.3027  -15.0977   23.9753 O   0  0  0  0  0  0  0  0  0  0  0  0
   12.9909  -19.2761   23.7751 C   0  0  0  0  0  0  0  0  0  0  0  0
    5.4282  -12.1418   25.4233 C   0  0  0  0  0  0  0  0  0  0  0  0
    6.7258  -12.8209   25.0624 C   0  0  2  0  0  0  0  0  0  0  0  0
    7.3859  -13.4294   26.2339 C   0  0  0  0  0  0  0  0  0  0  0  0
    7.7768  -12.3173   27.2068 C   0  0  2  0  0  0  0  0  0  0  0  0
    8.5748  -14.2714   26.0222 N   0  0  0  0  0  0  0  0  0  0  0  0
    8.3551  -15.3990   25.1003 C   0  0  0  0  0  0  0  0  0  0  0  0
    9.2621  -14.7564   27.2467 O   0  0  0  0  0  0  0  0  0  0  0  0
    9.2623  -16.0816   27.6431 O   0  0  0  0  0  0  0  0  0  0  0  0
  2  1  1  6
  2  8  1  0
  3  4  1  0
  3  2  1  0
  5  6  1  0
  5  4  1  0
  7  6  1  0
  8 18  1  0
  8  9  2  0
 11 13  1  0
 11 10  1  0
 12 11  2  0
 14 15  1  0
 14 13  1  0
 17 16  1  1
 16 15  1  0
 17 19  1  0
 18 17  1  0
 19 20  2  0
 21 22  1  0
 22 23  1  0
 23 25  1  0
 23 24  1  1
 25 27  1  0
 25 26  1  6
 26 19  1  0
 27 29  2  0
 27 28  1  0
M  END
$$$$
