KRI.pdb
     RDKit          3D

 29 28  0  0  1  0  0  0  0  0999 V2000
    9.1529  -15.1338   18.7345 N   0  0  0  0  0  0  0  0  0  0  0  0
    8.5036  -14.1434   19.5320 C   0  0  1  0  0  0  0  0  0  0  0  0
    7.3990  -13.4931   18.7902 C   0  0  0  0  0  0  0  0  0  0  0  0
    7.2698  -13.8070   17.3508 C   0  0  0  0  0  0  0  0  0  0  0  0
    8.4311  -13.5306   16.4748 C   0  0  0  0  0  0  0  0  0  0  0  0
    8.0907  -13.7624   14.9926 C   0  0  0  0  0  0  0  0  0  0  0  0
    9.2689  -13.4809   14.2239 N   0  0  0  0  0  0  0  0  0  0  0  0
    8.1147  -14.6455   20.8751 C   0  0  0  0  0  0  0  0  0  0  0  0
    7.4746  -13.9087   21.6863 O   0  0  0  0  0  0  0  0  0  0  0  0
   10.4818  -21.6539   18.9750 N   0  0  0  0  0  0  0  0  0  0  0  0
   10.3033  -20.8559   20.1676 C   0  0  0  0  0  0  0  0  0  0  0  0
   11.2052  -20.0064   20.5289 N   0  0  0  0  0  0  0  0  0  0  0  0
    9.1254  -21.0126   20.9420 N   0  0  0  0  0  0  0  0  0  0  0  0
    8.7953  -20.1626   22.0639 C   0  0  0  0  0  0  0  0  0  0  0  0
    8.7648  -18.6955   21.6890 C   0  0  0  0  0  0  0  0  0  0  0  0
    8.3315  -17.9102   22.8752 C   0  0  0  0  0  0  0  0  0  0  0  0
    8.1725  -16.4487   22.6627 C   0  0  2  0  0  0  0  0  0  0  0  0
    8.4196  -15.9502   21.3438 N   0  0  0  0  0  0  0  0  0  0  0  0
    8.7328  -15.6088   23.7312 C   0  0  0  0  0  0  0  0  0  0  0  0
    9.9145  -15.2483   23.6951 O   0  0  0  0  0  0  0  0  0  0  0  0
   11.1194  -19.5535   21.4472 C   0  0  0  0  0  0  0  0  0  0  0  0
    5.6766  -11.6933   26.0353 C   0  0  0  0  0  0  0  0  0  0  0  0
    6.7635  -12.5271   25.4037 C   0  0  2  0  0  0  0  0  0  0  0  0
    7.4748  -13.3631   26.3904 C   0  0  0  0  0  0  0  0  0  0  0  0
    8.2082  -12.4463   27.3692 C   0  0  2  0  0  0  0  0  0  0  0  0
    8.4426  -14.3625   25.9091 N   0  0  0  0  0  0  0  0  0  0  0  0
    7.9391  -15.2052   24.8110 C   0  0  0  0  0  0  0  0  0  0  0  0
    9.0712  -15.2203   26.9466 O   0  0  0  0  0  0  0  0  0  0  0  0
    8.8808  -16.5884   27.0183 O   0  0  0  0  0  0  0  0  0  0  0  0
  2  1  1  6
  2  8  1  0
  3  4  1  0
  3  2  1  0
  5  6  1  0
  5  4  1  0
  7  6  1  0
  8 18  1  0
  8  9  2  0
 11 13  1  0
 11 10  1  0
 12 11  2  0
 14 15  1  0
 14 13  1  0
 17 16  1  6
 16 15  1  0
 17 19  1  0
 18 17  1  0
 19 20  2  0
 21 22  1  0
 22 23  1  0
 23 25  1  0
 23 24  1  1
 25 27  1  0
 25 26  1  6
 26 19  1  0
 27 29  2  0
 27 28  1  0
M  END
$$$$
