KRI.pdb
     RDKit          3D

 29 28  0  0  1  0  0  0  0  0999 V2000
   11.4531  -17.6040   19.4120 N   0  0  0  0  0  0  0  0  0  0  0  0
   11.4034  -18.0844   20.7556 C   0  0  1  0  0  0  0  0  0  0  0  0
   12.6880  -18.7044   21.1542 C   0  0  0  0  0  0  0  0  0  0  0  0
   13.8882  -18.3468   20.3675 C   0  0  0  0  0  0  0  0  0  0  0  0
   15.1438  -19.0795   20.6483 C   0  0  0  0  0  0  0  0  0  0  0  0
   16.2809  -18.6346   19.7126 C   0  0  0  0  0  0  0  0  0  0  0  0
   17.4595  -19.3666   20.0775 N   0  0  0  0  0  0  0  0  0  0  0  0
   10.9008  -17.0681   21.7155 C   0  0  0  0  0  0  0  0  0  0  0  0
   11.5419  -15.9922   21.9210 O   0  0  0  0  0  0  0  0  0  0  0  0
    7.2207  -13.3055   18.4258 N   0  0  0  0  0  0  0  0  0  0  0  0
    8.4162  -13.4712   19.2223 C   0  0  0  0  0  0  0  0  0  0  0  0
    9.3113  -12.5422   19.2622 N   0  0  0  0  0  0  0  0  0  0  0  0
    8.6005  -14.6664   19.9634 N   0  0  0  0  0  0  0  0  0  0  0  0
    7.5594  -15.2720   20.7629 C   0  0  0  0  0  0  0  0  0  0  0  0
    7.5216  -14.7246   22.1746 C   0  0  0  0  0  0  0  0  0  0  0  0
    7.7307  -15.8480   23.1263 C   0  0  0  0  0  0  0  0  0  0  0  0
    9.1423  -16.2500   23.3552 C   0  0  2  0  0  0  0  0  0  0  0  0
    9.6997  -17.2155   22.4575 N   0  0  0  0  0  0  0  0  0  0  0  0
    9.4956  -16.4739   24.7645 C   0  0  0  0  0  0  0  0  0  0  0  0
    9.4805  -17.6126   25.2447 O   0  0  0  0  0  0  0  0  0  0  0  0
   10.1813  -12.7149   19.7807 C   0  0  0  0  0  0  0  0  0  0  0  0
    8.1910  -12.3542   28.1540 C   0  0  0  0  0  0  0  0  0  0  0  0
    9.0118  -13.2279   27.2385 C   0  0  2  0  0  0  0  0  0  0  0  0
    9.3238  -14.5377   27.8431 C   0  0  0  0  0  0  0  0  0  0  0  0
   10.1209  -14.3060   29.1265 C   0  0  1  0  0  0  0  0  0  0  0  0
   10.0531  -15.5347   27.0422 N   0  0  0  0  0  0  0  0  0  0  0  0
    9.8519  -15.4006   25.5892 C   0  0  0  0  0  0  0  0  0  0  0  0
    9.8741  -16.9548   27.4405 O   0  0  0  0  0  0  0  0  0  0  0  0
    8.7985  -17.7262   27.0393 O   0  0  0  0  0  0  0  0  0  0  0  0
  2  1  1  6
  2  8  1  0
  3  4  1  0
  3  2  1  0
  5  6  1  0
  5  4  1  0
  7  6  1  0
  8 18  1  0
  8  9  2  0
 11 13  1  0
 11 10  1  0
 12 11  2  0
 14 15  1  0
 14 13  1  0
 17 16  1  1
 16 15  1  0
 17 19  1  0
 18 17  1  0
 19 20  2  0
 21 22  1  0
 22 23  1  0
 23 25  1  0
 23 24  1  1
 25 27  1  0
 25 26  1  6
 26 19  1  0
 27 29  2  0
 27 28  1  0
M  END
$$$$
