TPQ.pdb
     RDKit          3D

 24 24  0  0  1  0  0  0  0  0999 V2000
    7.0828  -17.4217   17.0128 C   0  0  0  0  0  0  0  0  0  0  0  0
    8.2017  -16.9982   16.1016 C   0  0  1  0  0  0  0  0  0  0  0  0
    7.8994  -17.3484   14.8262 O   0  0  0  0  0  0  0  0  0  0  0  0
    8.6097  -15.5581   16.3282 C   0  0  2  0  0  0  0  0  0  0  0  0
    9.4868  -15.2644   15.1729 N   0  0  0  0  0  0  0  0  0  0  0  0
    9.3570  -15.3728   17.6050 C   0  0  0  0  0  0  0  0  0  0  0  0
   10.3220  -16.1880   17.7365 O   0  0  0  0  0  0  0  0  0  0  0  0
    9.0263  -14.3990   18.5558 N   0  0  0  0  0  0  0  0  0  0  0  0
    8.6749  -13.0160   18.1302 C   0  0  0  0  0  0  0  0  0  0  0  0
    7.3937  -12.8200   18.9034 C   0  0  0  0  0  0  0  0  0  0  0  0
    7.5508  -13.6817   20.1431 C   0  0  0  0  0  0  0  0  0  0  0  0
    8.9445  -14.2841   19.9614 C   0  0  1  0  0  0  0  0  0  0  0  0
    9.1848  -15.4160   20.8158 C   0  0  0  0  0  0  0  0  0  0  0  0
    8.3904  -16.3787   20.8991 O   0  0  0  0  0  0  0  0  0  0  0  0
   14.0390  -18.9238   20.9228 N   0  0  0  0  0  0  0  0  0  0  0  0
   13.3718  -19.4173   22.0683 C   0  0  0  0  0  0  0  0  0  0  0  0
   13.7951  -20.4375   22.6316 O   0  0  0  0  0  0  0  0  0  0  0  0
   12.1847  -18.7102   22.5701 C   0  0  0  0  0  0  0  0  0  0  0  0
   11.8337  -17.4661   21.8100 C   0  0  0  0  0  0  0  0  0  0  0  0
   10.6797  -16.7365   22.3785 C   0  0  2  0  0  0  0  0  0  0  0  0
   10.3429  -15.5371   21.6364 N   0  0  0  0  0  0  0  0  0  0  0  0
   10.9032  -16.3983   23.8080 C   0  0  0  0  0  0  0  0  0  0  0  0
   10.8026  -17.3081   24.8424 O   0  0  0  0  0  0  0  0  0  0  0  0
   11.2051  -15.2150   24.1468 O   0  0  0  0  0  0  0  0  0  0  0  0
  2  1  1  1
  2  3  1  0
  4  2  1  0
  4  5  1  6
  6  4  1  0
  7  6  2  0
  8 12  1  0
  8  6  1  0
  9  8  1  0
 10  9  1  0
 10 11  1  0
 11 12  1  0
 12 13  1  1
 13 14  2  0
 16 15  1  0
 17 16  2  0
 18 16  1  0
 19 18  1  0
 20 19  1  6
 21 20  1  0
 21 13  1  0
 22 20  1  0
 23 22  1  0
 24 22  2  0
M  END
$$$$
