TPQ.pdb
     RDKit          3D

 24 24  0  0  1  0  0  0  0  0999 V2000
    6.3326  -17.8365   20.1784 C   0  0  0  0  0  0  0  0  0  0  0  0
    7.4349  -18.0528   19.1785 C   0  0  1  0  0  0  0  0  0  0  0  0
    7.0378  -18.9727   18.2639 O   0  0  0  0  0  0  0  0  0  0  0  0
    7.9765  -16.7484   18.6335 C   0  0  2  0  0  0  0  0  0  0  0  0
    8.8807  -17.1809   17.5446 N   0  0  0  0  0  0  0  0  0  0  0  0
    8.7344  -15.9747   19.6582 C   0  0  0  0  0  0  0  0  0  0  0  0
    9.5682  -16.6868   20.2994 O   0  0  0  0  0  0  0  0  0  0  0  0
    8.5443  -14.6058   19.8849 N   0  0  0  0  0  0  0  0  0  0  0  0
    8.1748  -13.6983   18.7636 C   0  0  0  0  0  0  0  0  0  0  0  0
    7.0022  -12.9779   19.3832 C   0  0  0  0  0  0  0  0  0  0  0  0
    7.2901  -12.9746   20.8736 C   0  0  0  0  0  0  0  0  0  0  0  0
    8.6373  -13.6931   20.9591 C   0  0  1  0  0  0  0  0  0  0  0  0
    8.9546  -14.1391   22.2892 C   0  0  0  0  0  0  0  0  0  0  0  0
    9.2479  -13.3488   23.2135 O   0  0  0  0  0  0  0  0  0  0  0  0
    6.6236  -19.1884   25.2314 N   0  0  0  0  0  0  0  0  0  0  0  0
    7.5014  -18.6417   26.1964 C   0  0  0  0  0  0  0  0  0  0  0  0
    7.5237  -19.1152   27.3421 O   0  0  0  0  0  0  0  0  0  0  0  0
    8.3723  -17.5179   25.8225 C   0  0  0  0  0  0  0  0  0  0  0  0
    8.1611  -17.0037   24.4298 C   0  0  0  0  0  0  0  0  0  0  0  0
    9.1411  -15.9704   24.0305 C   0  0  2  0  0  0  0  0  0  0  0  0
    8.9618  -15.5128   22.6663 N   0  0  0  0  0  0  0  0  0  0  0  0
   10.5363  -16.4432   24.2239 C   0  0  0  0  0  0  0  0  0  0  0  0
   11.1888  -16.4487   25.4415 O   0  0  0  0  0  0  0  0  0  0  0  0
   11.2086  -16.8752   23.2403 O   0  0  0  0  0  0  0  0  0  0  0  0
  2  1  1  1
  2  3  1  0
  4  2  1  0
  4  5  1  6
  6  4  1  0
  7  6  2  0
  8 12  1  0
  8  6  1  0
  9  8  1  0
 10  9  1  0
 10 11  1  0
 11 12  1  0
 12 13  1  1
 13 14  2  0
 16 15  1  0
 17 16  2  0
 18 16  1  0
 19 18  1  0
 20 19  1  6
 21 20  1  0
 21 13  1  0
 22 20  1  0
 23 22  1  0
 24 22  2  0
M  END
$$$$
