TPQ.pdb
     RDKit          3D

 24 24  0  0  1  0  0  0  0  0999 V2000
    7.6401  -17.5196   17.4888 C   0  0  0  0  0  0  0  0  0  0  0  0
    8.9420  -17.1534   16.8309 C   0  0  1  0  0  0  0  0  0  0  0  0
    8.9542  -17.6324   15.5617 O   0  0  0  0  0  0  0  0  0  0  0  0
    9.2769  -15.6870   17.0029 C   0  0  2  0  0  0  0  0  0  0  0  0
   10.3879  -15.4750   16.0485 N   0  0  0  0  0  0  0  0  0  0  0  0
    9.7179  -15.3632   18.3899 C   0  0  0  0  0  0  0  0  0  0  0  0
   10.6826  -16.0890   18.7847 O   0  0  0  0  0  0  0  0  0  0  0  0
    9.1279  -14.3615   19.1708 N   0  0  0  0  0  0  0  0  0  0  0  0
    8.8667  -13.0122   18.5977 C   0  0  0  0  0  0  0  0  0  0  0  0
    7.4240  -12.8293   19.0014 C   0  0  0  0  0  0  0  0  0  0  0  0
    7.2733  -13.6295   20.2825 C   0  0  0  0  0  0  0  0  0  0  0  0
    8.6802  -14.1882   20.4994 C   0  0  1  0  0  0  0  0  0  0  0  0
    8.7166  -15.2720   21.4443 C   0  0  0  0  0  0  0  0  0  0  0  0
    7.9376  -16.2487   21.3804 O   0  0  0  0  0  0  0  0  0  0  0  0
   11.8238  -19.6038   21.1348 N   0  0  0  0  0  0  0  0  0  0  0  0
   12.5460  -18.4154   21.3935 C   0  0  0  0  0  0  0  0  0  0  0  0
   13.7029  -18.2960   20.9637 O   0  0  0  0  0  0  0  0  0  0  0  0
   11.9104  -17.3417   22.1707 C   0  0  0  0  0  0  0  0  0  0  0  0
   10.4901  -17.6164   22.5657 C   0  0  0  0  0  0  0  0  0  0  0  0
    9.8690  -16.5126   23.3293 C   0  0  2  0  0  0  0  0  0  0  0  0
    9.6387  -15.3257   22.5288 N   0  0  0  0  0  0  0  0  0  0  0  0
   10.6739  -16.1631   24.5284 C   0  0  0  0  0  0  0  0  0  0  0  0
   11.2273  -14.9173   24.7515 O   0  0  0  0  0  0  0  0  0  0  0  0
   10.8937  -17.0291   25.4272 O   0  0  0  0  0  0  0  0  0  0  0  0
  2  1  1  6
  2  3  1  0
  4  2  1  0
  4  5  1  6
  6  4  1  0
  7  6  2  0
  8 12  1  0
  8  6  1  0
  9  8  1  0
 10  9  1  0
 10 11  1  0
 11 12  1  0
 12 13  1  6
 13 14  2  0
 16 15  1  0
 17 16  2  0
 18 16  1  0
 19 18  1  0
 20 19  1  6
 21 20  1  0
 21 13  1  0
 22 20  1  0
 23 22  1  0
 24 22  2  0
M  END
$$$$
