TPQ.pdb
     RDKit          3D

 24 24  0  0  1  0  0  0  0  0999 V2000
    8.0946  -16.1694   14.6100 C   0  0  0  0  0  0  0  0  0  0  0  0
    8.4553  -15.9786   16.0575 C   0  0  1  0  0  0  0  0  0  0  0  0
    9.1824  -17.0419   16.4832 O   0  0  0  0  0  0  0  0  0  0  0  0
    9.0415  -14.6087   16.3249 C   0  0  2  0  0  0  0  0  0  0  0  0
   10.1204  -14.4950   15.3182 N   0  0  0  0  0  0  0  0  0  0  0  0
    9.6034  -14.4891   17.7008 C   0  0  0  0  0  0  0  0  0  0  0  0
   10.7315  -15.0592   17.8260 O   0  0  0  0  0  0  0  0  0  0  0  0
    8.9522  -13.8160   18.7421 N   0  0  0  0  0  0  0  0  0  0  0  0
    8.2173  -12.5479   18.4792 C   0  0  0  0  0  0  0  0  0  0  0  0
    6.9045  -12.8592   19.1555 C   0  0  0  0  0  0  0  0  0  0  0  0
    7.2611  -13.8197   20.2755 C   0  0  0  0  0  0  0  0  0  0  0  0
    8.7784  -13.9513   20.1375 C   0  0  1  0  0  0  0  0  0  0  0  0
    9.3128  -15.0820   20.8479 C   0  0  0  0  0  0  0  0  0  0  0  0
    8.8099  -16.2250   20.7723 O   0  0  0  0  0  0  0  0  0  0  0  0
   15.7140  -16.1057   21.8534 N   0  0  0  0  0  0  0  0  0  0  0  0
   14.7393  -15.2229   21.3324 C   0  0  0  0  0  0  0  0  0  0  0  0
   15.0123  -14.5217   20.3469 O   0  0  0  0  0  0  0  0  0  0  0  0
   13.4175  -15.1517   21.9719 C   0  0  0  0  0  0  0  0  0  0  0  0
   12.5163  -16.3113   21.6688 C   0  0  0  0  0  0  0  0  0  0  0  0
   11.1529  -16.1551   22.2201 C   0  0  2  0  0  0  0  0  0  0  0  0
   10.4554  -14.9976   21.6944 N   0  0  0  0  0  0  0  0  0  0  0  0
   11.1717  -16.1004   23.7048 C   0  0  0  0  0  0  0  0  0  0  0  0
   11.6598  -17.1116   24.5094 O   0  0  0  0  0  0  0  0  0  0  0  0
   10.7214  -15.0846   24.3143 O   0  0  0  0  0  0  0  0  0  0  0  0
  2  1  1  6
  2  3  1  0
  4  2  1  0
  4  5  1  6
  6  4  1  0
  7  6  2  0
  8 12  1  0
  8  6  1  0
  9  8  1  0
 10  9  1  0
 10 11  1  0
 11 12  1  0
 12 13  1  6
 13 14  2  0
 16 15  1  0
 17 16  2  0
 18 16  1  0
 19 18  1  0
 20 19  1  6
 21 20  1  0
 21 13  1  0
 22 20  1  0
 23 22  1  0
 24 22  2  0
M  END
$$$$
