TPQ.pdb
     RDKit          3D

 24 24  0  0  1  0  0  0  0  0999 V2000
    7.8863  -16.9159   15.4396 C   0  0  0  0  0  0  0  0  0  0  0  0
    8.3503  -16.5534   16.8235 C   0  0  1  0  0  0  0  0  0  0  0  0
    8.9170  -17.6396   17.4062 O   0  0  0  0  0  0  0  0  0  0  0  0
    9.1644  -15.2771   16.8376 C   0  0  2  0  0  0  0  0  0  0  0  0
   10.2178  -15.5313   15.8296 N   0  0  0  0  0  0  0  0  0  0  0  0
    9.7776  -15.0083   18.1697 C   0  0  0  0  0  0  0  0  0  0  0  0
   10.8439  -15.6698   18.3664 O   0  0  0  0  0  0  0  0  0  0  0  0
    9.2319  -14.1173   19.1024 N   0  0  0  0  0  0  0  0  0  0  0  0
    8.7484  -12.7760   18.6728 C   0  0  0  0  0  0  0  0  0  0  0  0
    7.3828  -12.7701   19.3152 C   0  0  0  0  0  0  0  0  0  0  0  0
    7.5270  -13.6470   20.5458 C   0  0  0  0  0  0  0  0  0  0  0  0
    8.9980  -14.0619   20.4944 C   0  0  1  0  0  0  0  0  0  0  0  0
    9.2972  -15.1829   21.3445 C   0  0  0  0  0  0  0  0  0  0  0  0
    8.6856  -16.2713   21.2655 O   0  0  0  0  0  0  0  0  0  0  0  0
   12.4994  -19.9950   24.2415 N   0  0  0  0  0  0  0  0  0  0  0  0
   12.8826  -18.7328   23.7307 C   0  0  0  0  0  0  0  0  0  0  0  0
   13.5969  -18.6728   22.7191 O   0  0  0  0  0  0  0  0  0  0  0  0
   12.4266  -17.5124   24.4116 C   0  0  0  0  0  0  0  0  0  0  0  0
   12.0855  -16.3776   23.4926 C   0  0  0  0  0  0  0  0  0  0  0  0
   10.6408  -16.2795   23.1918 C   0  0  2  0  0  0  0  0  0  0  0  0
   10.3111  -15.1499   22.3446 N   0  0  0  0  0  0  0  0  0  0  0  0
    9.8303  -16.2293   24.4362 C   0  0  0  0  0  0  0  0  0  0  0  0
    9.6415  -17.3067   25.2797 O   0  0  0  0  0  0  0  0  0  0  0  0
    9.2572  -15.1539   24.7845 O   0  0  0  0  0  0  0  0  0  0  0  0
  2  1  1  6
  2  3  1  0
  4  2  1  0
  4  5  1  6
  6  4  1  0
  7  6  2  0
  8 12  1  0
  8  6  1  0
  9  8  1  0
 10  9  1  0
 10 11  1  0
 11 12  1  0
 12 13  1  6
 13 14  2  0
 16 15  1  0
 17 16  2  0
 18 16  1  0
 19 18  1  0
 20 19  1  1
 21 20  1  0
 21 13  1  0
 22 20  1  0
 23 22  1  0
 24 22  2  0
M  END
$$$$
