TPQ.pdb
     RDKit          3D

 24 24  0  0  1  0  0  0  0  0999 V2000
    7.2726  -18.2143   16.4181 C   0  0  0  0  0  0  0  0  0  0  0  0
    7.8696  -17.5331   17.6187 C   0  0  1  0  0  0  0  0  0  0  0  0
    8.5053  -18.4528   18.3871 O   0  0  0  0  0  0  0  0  0  0  0  0
    8.6655  -16.3021   17.2407 C   0  0  2  0  0  0  0  0  0  0  0  0
    9.6131  -16.8061   16.2217 N   0  0  0  0  0  0  0  0  0  0  0  0
    9.4086  -15.7275   18.3985 C   0  0  0  0  0  0  0  0  0  0  0  0
   10.4109  -16.4286   18.7406 O   0  0  0  0  0  0  0  0  0  0  0  0
    9.0371  -14.5379   19.0374 N   0  0  0  0  0  0  0  0  0  0  0  0
    8.6530  -13.3401   18.2405 C   0  0  0  0  0  0  0  0  0  0  0  0
    7.3559  -12.9760   18.9206 C   0  0  0  0  0  0  0  0  0  0  0  0
    7.5195  -13.4522   20.3525 C   0  0  0  0  0  0  0  0  0  0  0  0
    8.9321  -14.0380   20.3545 C   0  0  1  0  0  0  0  0  0  0  0  0
    9.1919  -14.8785   21.4925 C   0  0  0  0  0  0  0  0  0  0  0  0
    8.2994  -15.5566   22.0477 O   0  0  0  0  0  0  0  0  0  0  0  0
   10.4776  -19.9790   21.0778 N   0  0  0  0  0  0  0  0  0  0  0  0
   10.9254  -19.9194   22.4182 C   0  0  0  0  0  0  0  0  0  0  0  0
   11.1102  -20.9705   23.0494 O   0  0  0  0  0  0  0  0  0  0  0  0
   11.1624  -18.6087   23.0402 C   0  0  0  0  0  0  0  0  0  0  0  0
   10.7349  -17.4379   22.2066 C   0  0  0  0  0  0  0  0  0  0  0  0
   10.8803  -16.1394   22.8996 C   0  0  2  0  0  0  0  0  0  0  0  0
   10.4821  -15.0101   22.0818 N   0  0  0  0  0  0  0  0  0  0  0  0
   12.2679  -15.9403   23.3921 C   0  0  0  0  0  0  0  0  0  0  0  0
   12.7356  -16.4199   24.6001 O   0  0  0  0  0  0  0  0  0  0  0  0
   13.1086  -15.2960   22.6961 O   0  0  0  0  0  0  0  0  0  0  0  0
  2  1  1  6
  2  3  1  0
  4  2  1  0
  4  5  1  6
  6  4  1  0
  7  6  2  0
  8 12  1  0
  8  6  1  0
  9  8  1  0
 10  9  1  0
 10 11  1  0
 11 12  1  0
 12 13  1  1
 13 14  2  0
 16 15  1  0
 17 16  2  0
 18 16  1  0
 19 18  1  0
 20 19  1  6
 21 20  1  0
 21 13  1  0
 22 20  1  0
 23 22  1  0
 24 22  2  0
M  END
$$$$
