TPQ.pdb
     RDKit          3D

 24 24  0  0  1  0  0  0  0  0999 V2000
    6.4317  -17.9072   18.7415 C   0  0  0  0  0  0  0  0  0  0  0  0
    7.6100  -17.9490   17.8080 C   0  0  1  0  0  0  0  0  0  0  0  0
    7.2701  -18.6315   16.6859 O   0  0  0  0  0  0  0  0  0  0  0  0
    8.2282  -16.5819   17.6060 C   0  0  2  0  0  0  0  0  0  0  0  0
    9.1261  -16.7797   16.4462 N   0  0  0  0  0  0  0  0  0  0  0  0
    9.0089  -16.1297   18.7930 C   0  0  0  0  0  0  0  0  0  0  0  0
    9.9026  -16.9612   19.1438 O   0  0  0  0  0  0  0  0  0  0  0  0
    8.7779  -14.9135   19.4481 N   0  0  0  0  0  0  0  0  0  0  0  0
    8.5296  -13.6700   18.6675 C   0  0  0  0  0  0  0  0  0  0  0  0
    7.2852  -13.1690   19.3590 C   0  0  0  0  0  0  0  0  0  0  0  0
    7.3992  -13.6786   20.7842 C   0  0  0  0  0  0  0  0  0  0  0  0
    8.7359  -14.4213   20.7716 C   0  0  1  0  0  0  0  0  0  0  0  0
    8.9029  -15.3000   21.8980 C   0  0  0  0  0  0  0  0  0  0  0  0
    8.0413  -16.1450   22.2277 O   0  0  0  0  0  0  0  0  0  0  0  0
   12.7903  -19.8273   21.6590 N   0  0  0  0  0  0  0  0  0  0  0  0
   11.7015  -19.9407   22.5547 C   0  0  0  0  0  0  0  0  0  0  0  0
   11.0740  -21.0078   22.6241 O   0  0  0  0  0  0  0  0  0  0  0  0
   11.3321  -18.7873   23.3880 C   0  0  0  0  0  0  0  0  0  0  0  0
   10.8823  -17.5818   22.6180 C   0  0  0  0  0  0  0  0  0  0  0  0
   10.5254  -16.4340   23.4797 C   0  0  2  0  0  0  0  0  0  0  0  0
   10.0585  -15.2835   22.7308 N   0  0  0  0  0  0  0  0  0  0  0  0
   11.6602  -16.0393   24.3539 C   0  0  0  0  0  0  0  0  0  0  0  0
   11.8853  -16.5632   25.6120 O   0  0  0  0  0  0  0  0  0  0  0  0
   12.4974  -15.1713   23.9642 O   0  0  0  0  0  0  0  0  0  0  0  0
  2  1  1  1
  2  3  1  0
  4  2  1  0
  4  5  1  6
  6  4  1  0
  7  6  2  0
  8 12  1  0
  8  6  1  0
  9  8  1  0
 10  9  1  0
 10 11  1  0
 11 12  1  0
 12 13  1  1
 13 14  2  0
 16 15  1  0
 17 16  2  0
 18 16  1  0
 19 18  1  0
 20 19  1  6
 21 20  1  0
 21 13  1  0
 22 20  1  0
 23 22  1  0
 24 22  2  0
M  END
$$$$
