TPQ.pdb
     RDKit          3D

 24 24  0  0  1  0  0  0  0  0999 V2000
    7.2297  -17.5799   17.2428 C   0  0  0  0  0  0  0  0  0  0  0  0
    8.2421  -17.1227   16.2290 C   0  0  1  0  0  0  0  0  0  0  0  0
    7.8692  -17.5512   14.9970 O   0  0  0  0  0  0  0  0  0  0  0  0
    8.5610  -15.6490   16.3640 C   0  0  2  0  0  0  0  0  0  0  0  0
    9.3861  -15.3659   15.1683 N   0  0  0  0  0  0  0  0  0  0  0  0
    9.3283  -15.3444   17.6055 C   0  0  0  0  0  0  0  0  0  0  0  0
   10.3432  -16.0929   17.7564 O   0  0  0  0  0  0  0  0  0  0  0  0
    8.9645  -14.3361   18.5070 N   0  0  0  0  0  0  0  0  0  0  0  0
    8.4806  -13.0180   18.0114 C   0  0  0  0  0  0  0  0  0  0  0  0
    7.2261  -12.8705   18.8374 C   0  0  0  0  0  0  0  0  0  0  0  0
    7.5128  -13.6290   20.1206 C   0  0  0  0  0  0  0  0  0  0  0  0
    8.9411  -14.1309   19.9045 C   0  0  1  0  0  0  0  0  0  0  0  0
    9.3143  -15.1783   20.8169 C   0  0  0  0  0  0  0  0  0  0  0  0
    8.7342  -16.2862   20.8454 O   0  0  0  0  0  0  0  0  0  0  0  0
   14.9302  -18.1735   24.6139 N   0  0  0  0  0  0  0  0  0  0  0  0
   14.3014  -17.1070   23.9298 C   0  0  0  0  0  0  0  0  0  0  0  0
   14.9720  -16.1258   23.5766 O   0  0  0  0  0  0  0  0  0  0  0  0
   12.8600  -17.1814   23.6508 C   0  0  0  0  0  0  0  0  0  0  0  0
   12.3412  -16.0913   22.7614 C   0  0  0  0  0  0  0  0  0  0  0  0
   10.8763  -16.1418   22.5639 C   0  0  2  0  0  0  0  0  0  0  0  0
   10.3719  -15.0442   21.7618 N   0  0  0  0  0  0  0  0  0  0  0  0
   10.1558  -16.1894   23.8625 C   0  0  0  0  0  0  0  0  0  0  0  0
   10.1277  -17.2945   24.6908 O   0  0  0  0  0  0  0  0  0  0  0  0
    9.5124  -15.1787   24.2757 O   0  0  0  0  0  0  0  0  0  0  0  0
  2  1  1  1
  2  3  1  0
  4  2  1  0
  4  5  1  6
  6  4  1  0
  7  6  2  0
  8 12  1  0
  8  6  1  0
  9  8  1  0
 10  9  1  0
 10 11  1  0
 11 12  1  0
 12 13  1  1
 13 14  2  0
 16 15  1  0
 17 16  2  0
 18 16  1  0
 19 18  1  0
 20 19  1  1
 21 20  1  0
 21 13  1  0
 22 20  1  0
 23 22  1  0
 24 22  2  0
M  END
$$$$
