TPQ.pdb
     RDKit          3D

 24 24  0  0  1  0  0  0  0  0999 V2000
    7.4950  -17.5563   17.3204 C   0  0  0  0  0  0  0  0  0  0  0  0
    8.6974  -17.0672   16.5609 C   0  0  1  0  0  0  0  0  0  0  0  0
    8.5959  -17.4508   15.2636 O   0  0  0  0  0  0  0  0  0  0  0  0
    8.9745  -15.6002   16.8120 C   0  0  2  0  0  0  0  0  0  0  0  0
    9.9306  -15.2436   15.7401 N   0  0  0  0  0  0  0  0  0  0  0  0
    9.5844  -15.3576   18.1507 C   0  0  0  0  0  0  0  0  0  0  0  0
   10.5626  -16.1297   18.3963 O   0  0  0  0  0  0  0  0  0  0  0  0
    9.1241  -14.3783   19.0399 N   0  0  0  0  0  0  0  0  0  0  0  0
    8.8309  -12.9996   18.5599 C   0  0  0  0  0  0  0  0  0  0  0  0
    7.4553  -12.8026   19.1488 C   0  0  0  0  0  0  0  0  0  0  0  0
    7.4433  -13.6549   20.4047 C   0  0  0  0  0  0  0  0  0  0  0  0
    8.8503  -14.2538   20.4201 C   0  0  1  0  0  0  0  0  0  0  0  0
    8.9741  -15.3787   21.3078 C   0  0  0  0  0  0  0  0  0  0  0  0
    8.3312  -16.4395   21.1459 O   0  0  0  0  0  0  0  0  0  0  0  0
   11.4833  -19.5357   20.4312 N   0  0  0  0  0  0  0  0  0  0  0  0
   11.9695  -19.6825   21.7514 C   0  0  0  0  0  0  0  0  0  0  0  0
   12.4311  -20.7739   22.1162 O   0  0  0  0  0  0  0  0  0  0  0  0
   11.9166  -18.5356   22.6695 C   0  0  0  0  0  0  0  0  0  0  0  0
   11.3120  -17.2955   22.0820 C   0  0  0  0  0  0  0  0  0  0  0  0
   10.4090  -16.5847   23.0129 C   0  0  2  0  0  0  0  0  0  0  0  0
    9.8357  -15.3812   22.4422 N   0  0  0  0  0  0  0  0  0  0  0  0
   11.0945  -16.2594   24.2904 C   0  0  0  0  0  0  0  0  0  0  0  0
   11.0453  -17.0551   25.4184 O   0  0  0  0  0  0  0  0  0  0  0  0
   11.7762  -15.1965   24.3991 O   0  0  0  0  0  0  0  0  0  0  0  0
  2  1  1  1
  2  3  1  0
  4  2  1  0
  4  5  1  6
  6  4  1  0
  7  6  2  0
  8 12  1  0
  8  6  1  0
  9  8  1  0
 10  9  1  0
 10 11  1  0
 11 12  1  0
 12 13  1  1
 13 14  2  0
 16 15  1  0
 17 16  2  0
 18 16  1  0
 19 18  1  0
 20 19  1  6
 21 20  1  0
 21 13  1  0
 22 20  1  0
 23 22  1  0
 24 22  2  0
M  END
$$$$
