TPQ.pdb
     RDKit          3D

 24 24  0  0  1  0  0  0  0  0999 V2000
    7.2770  -17.2368   16.4333 C   0  0  0  0  0  0  0  0  0  0  0  0
    8.3881  -16.6543   15.6040 C   0  0  1  0  0  0  0  0  0  0  0  0
    8.1498  -16.9071   14.2926 O   0  0  0  0  0  0  0  0  0  0  0  0
    8.6824  -15.2156   15.9721 C   0  0  2  0  0  0  0  0  0  0  0  0
    9.6086  -14.7717   14.9065 N   0  0  0  0  0  0  0  0  0  0  0  0
    9.3335  -15.0920   17.3077 C   0  0  0  0  0  0  0  0  0  0  0  0
   10.3678  -15.8200   17.4234 O   0  0  0  0  0  0  0  0  0  0  0  0
    8.8519  -14.2576   18.3242 N   0  0  0  0  0  0  0  0  0  0  0  0
    8.3825  -12.8794   18.0117 C   0  0  0  0  0  0  0  0  0  0  0  0
    7.0475  -12.8899   18.7155 C   0  0  0  0  0  0  0  0  0  0  0  0
    7.2253  -13.8542   19.8742 C   0  0  0  0  0  0  0  0  0  0  0  0
    8.6819  -14.2955   19.7261 C   0  0  1  0  0  0  0  0  0  0  0  0
    8.9914  -15.4798   20.4815 C   0  0  0  0  0  0  0  0  0  0  0  0
    8.3615  -16.5517   20.3432 O   0  0  0  0  0  0  0  0  0  0  0  0
   13.6280  -18.9333   20.4696 N   0  0  0  0  0  0  0  0  0  0  0  0
   13.7826  -17.5344   20.6106 C   0  0  0  0  0  0  0  0  0  0  0  0
   14.8385  -16.9952   20.2478 O   0  0  0  0  0  0  0  0  0  0  0  0
   12.6859  -16.7437   21.1879 C   0  0  0  0  0  0  0  0  0  0  0  0
   11.4462  -17.5298   21.4941 C   0  0  0  0  0  0  0  0  0  0  0  0
   10.3998  -16.7351   22.1730 C   0  0  2  0  0  0  0  0  0  0  0  0
   10.0372  -15.5332   21.4473 N   0  0  0  0  0  0  0  0  0  0  0  0
   10.8001  -16.3845   23.5602 C   0  0  0  0  0  0  0  0  0  0  0  0
   10.7783  -15.1008   24.0699 O   0  0  0  0  0  0  0  0  0  0  0  0
   11.1942  -17.2849   24.3604 O   0  0  0  0  0  0  0  0  0  0  0  0
  2  1  1  1
  2  3  1  0
  4  2  1  0
  4  5  1  6
  6  4  1  0
  7  6  2  0
  8 12  1  0
  8  6  1  0
  9  8  1  0
 10  9  1  0
 10 11  1  0
 11 12  1  0
 12 13  1  6
 13 14  2  0
 16 15  1  0
 17 16  2  0
 18 16  1  0
 19 18  1  0
 20 19  1  6
 21 20  1  0
 21 13  1  0
 22 20  1  0
 23 22  1  0
 24 22  2  0
M  END
$$$$
