TPQ.pdb
     RDKit          3D

 24 24  0  0  1  0  0  0  0  0999 V2000
    7.2753  -17.5242   17.1224 C   0  0  0  0  0  0  0  0  0  0  0  0
    8.3659  -17.0647   16.1944 C   0  0  1  0  0  0  0  0  0  0  0  0
    8.0683  -17.4472   14.9273 O   0  0  0  0  0  0  0  0  0  0  0  0
    8.7107  -15.6045   16.3961 C   0  0  2  0  0  0  0  0  0  0  0  0
    9.6012  -15.3016   15.2535 N   0  0  0  0  0  0  0  0  0  0  0  0
    9.4210  -15.3604   17.6841 C   0  0  0  0  0  0  0  0  0  0  0  0
   10.4422  -16.1006   17.8342 O   0  0  0  0  0  0  0  0  0  0  0  0
    9.0028  -14.4117   18.6257 N   0  0  0  0  0  0  0  0  0  0  0  0
    8.5307  -13.0692   18.1874 C   0  0  0  0  0  0  0  0  0  0  0  0
    7.2354  -12.9813   18.9569 C   0  0  0  0  0  0  0  0  0  0  0  0
    7.4656  -13.8149   20.2044 C   0  0  0  0  0  0  0  0  0  0  0  0
    8.9079  -14.2925   20.0302 C   0  0  1  0  0  0  0  0  0  0  0  0
    9.2460  -15.3910   20.8948 C   0  0  0  0  0  0  0  0  0  0  0  0
    8.6784  -16.5036   20.8250 O   0  0  0  0  0  0  0  0  0  0  0  0
   13.9654  -18.4506   21.0020 N   0  0  0  0  0  0  0  0  0  0  0  0
   13.5294  -18.9028   22.2693 C   0  0  0  0  0  0  0  0  0  0  0  0
   13.9999  -19.9482   22.7417 O   0  0  0  0  0  0  0  0  0  0  0  0
   12.5224  -18.1237   23.0041 C   0  0  0  0  0  0  0  0  0  0  0  0
   12.0898  -16.8622   22.3185 C   0  0  0  0  0  0  0  0  0  0  0  0
   10.7153  -16.4444   22.6702 C   0  0  2  0  0  0  0  0  0  0  0  0
   10.2516  -15.3065   21.9002 N   0  0  0  0  0  0  0  0  0  0  0  0
   10.5920  -16.1540   24.1222 C   0  0  0  0  0  0  0  0  0  0  0  0
   10.5980  -17.1223   25.1073 O   0  0  0  0  0  0  0  0  0  0  0  0
   10.4701  -14.9599   24.5287 O   0  0  0  0  0  0  0  0  0  0  0  0
  2  1  1  1
  2  3  1  0
  4  2  1  0
  4  5  1  6
  6  4  1  0
  7  6  2  0
  8 12  1  0
  8  6  1  0
  9  8  1  0
 10  9  1  0
 10 11  1  0
 11 12  1  0
 12 13  1  1
 13 14  2  0
 16 15  1  0
 17 16  2  0
 18 16  1  0
 19 18  1  0
 20 19  1  1
 21 20  1  0
 21 13  1  0
 22 20  1  0
 23 22  1  0
 24 22  2  0
M  END
$$$$
