NWQ.pdb
     RDKit          3D

 32 33  0  0  1  0  0  0  0  0999 V2000
   13.4384  -16.5062   19.4220 N   0  0  0  0  0  0  0  0  0  0  0  0
   12.0756  -16.4416   19.8229 C   0  0  0  0  0  0  0  0  0  0  0  0
   11.1877  -16.7784   19.0010 O   0  0  0  0  0  0  0  0  0  0  0  0
   11.6567  -15.9959   21.1624 C   0  0  0  0  0  0  0  0  0  0  0  0
   11.1005  -17.2321   21.8831 C   0  0  2  0  0  0  0  0  0  0  0  0
    9.8847  -17.6552   21.1756 N   0  0  0  0  0  0  0  0  0  0  0  0
   10.7067  -16.8534   23.2580 C   0  0  0  0  0  0  0  0  0  0  0  0
   11.5457  -16.3231   24.0149 O   0  0  0  0  0  0  0  0  0  0  0  0
    9.3821  -17.0757   23.7554 N   0  0  0  0  0  0  0  0  0  0  0  0
    9.0978  -16.7293   25.1144 C   0  0  1  0  0  0  0  0  0  0  0  0
    7.6184  -16.3895   25.1764 C   0  0  0  0  0  0  0  0  0  0  0  0
    7.3109  -15.0412   24.6460 C   0  0  0  0  0  0  0  0  0  0  0  0
    7.1686  -14.7044   23.2992 C   0  0  0  0  0  0  0  0  0  0  0  0
    6.8987  -13.3944   23.2147 N   0  0  0  0  0  0  0  0  0  0  0  0
    6.8636  -12.8855   24.4526 C   0  0  0  0  0  0  0  0  0  0  0  0
    6.6267  -11.5985   24.9027 C   0  0  0  0  0  0  0  0  0  0  0  0
    6.6443  -11.3263   26.2482 C   0  0  0  0  0  0  0  0  0  0  0  0
    6.8926  -12.3041   27.1682 C   0  0  0  0  0  0  0  0  0  0  0  0
    7.1288  -13.5842   26.7275 C   0  0  0  0  0  0  0  0  0  0  0  0
    7.1192  -13.8957   25.3823 C   0  0  0  0  0  0  0  0  0  0  0  0
    9.4249  -17.8637   26.0117 C   0  0  0  0  0  0  0  0  0  0  0  0
    8.9636  -18.9975   25.6629 O   0  0  0  0  0  0  0  0  0  0  0  0
   13.0157  -20.6939   24.8578 N   0  0  0  0  0  0  0  0  0  0  0  0
   13.6499  -19.9646   25.9089 C   0  0  0  0  0  0  0  0  0  0  0  0
   14.9041  -19.7384   25.8085 O   0  0  0  0  0  0  0  0  0  0  0  0
   12.8948  -19.4769   27.0718 C   0  0  0  0  0  0  0  0  0  0  0  0
   11.4474  -19.7782   27.0135 C   0  0  0  0  0  0  0  0  0  0  0  0
   10.6123  -18.9527   27.9246 C   0  0  2  0  0  0  0  0  0  0  0  0
   10.1956  -17.7306   27.1824 N   0  0  0  0  0  0  0  0  0  0  0  0
   11.1795  -18.4954   29.1761 C   0  0  0  0  0  0  0  0  0  0  0  0
   11.4021  -17.2619   29.3839 O   0  0  0  0  0  0  0  0  0  0  0  0
   11.5150  -19.3468   30.2461 O   0  0  0  0  0  0  0  0  0  0  0  0
  2  1  1  0
  3  2  2  0
  4  5  1  0
  4  2  1  0
  5  6  1  6
  7  5  1  0
  7  8  2  0
  9  7  1  0
 10  9  1  0
 10 11  1  6
 12 11  1  0
 12 13  2  0
 14 13  1  0
 15 20  2  0
 15 14  1  0
 16 15  1  0
 17 18  1  0
 17 16  2  0
 18 19  2  0
 19 20  1  0
 20 12  1  0
 21 10  1  0
 22 21  2  0
 23 24  1  0
 24 26  1  0
 25 24  2  0
 27 26  1  0
 28 27  1  6
 28 29  1  0
 28 30  1  0
 29 21  1  0
 30 32  1  0
 31 30  2  0
M  END
$$$$
