NWQ.pdb
     RDKit          3D

 32 33  0  0  1  0  0  0  0  0999 V2000
    6.2506  -14.2772   18.7207 N   0  0  0  0  0  0  0  0  0  0  0  0
    7.5604  -14.6932   19.0862 C   0  0  0  0  0  0  0  0  0  0  0  0
    8.2762  -15.2607   18.2242 O   0  0  0  0  0  0  0  0  0  0  0  0
    8.1172  -14.4884   20.4338 C   0  0  0  0  0  0  0  0  0  0  0  0
    8.7251  -15.8300   20.8670 C   0  0  2  0  0  0  0  0  0  0  0  0
    7.6263  -16.7932   21.0169 N   0  0  0  0  0  0  0  0  0  0  0  0
    9.3589  -15.6673   22.1938 C   0  0  0  0  0  0  0  0  0  0  0  0
   10.3700  -14.9444   22.3088 O   0  0  0  0  0  0  0  0  0  0  0  0
    8.8467  -16.3165   23.3632 N   0  0  0  0  0  0  0  0  0  0  0  0
    9.5498  -16.1495   24.5983 C   0  0  1  0  0  0  0  0  0  0  0  0
    8.5439  -16.3994   25.7089 C   0  0  0  0  0  0  0  0  0  0  0  0
    7.4399  -15.4121   25.7237 C   0  0  0  0  0  0  0  0  0  0  0  0
    6.1160  -15.6590   25.3576 C   0  0  0  0  0  0  0  0  0  0  0  0
    5.4173  -14.5241   25.4980 N   0  0  0  0  0  0  0  0  0  0  0  0
    6.2430  -13.5667   25.9385 C   0  0  0  0  0  0  0  0  0  0  0  0
    6.0164  -12.2350   26.2393 C   0  0  0  0  0  0  0  0  0  0  0  0
    7.0477  -11.4451   26.6835 C   0  0  0  0  0  0  0  0  0  0  0  0
    8.3091  -11.9439   26.8390 C   0  0  0  0  0  0  0  0  0  0  0  0
    8.5406  -13.2655   26.5419 C   0  0  0  0  0  0  0  0  0  0  0  0
    7.5283  -14.0903   26.0927 C   0  0  0  0  0  0  0  0  0  0  0  0
   10.6823  -17.1035   24.6765 C   0  0  0  0  0  0  0  0  0  0  0  0
   10.7326  -17.9812   23.7560 O   0  0  0  0  0  0  0  0  0  0  0  0
   15.2009  -16.0964   22.1485 N   0  0  0  0  0  0  0  0  0  0  0  0
   15.8615  -16.7322   23.2430 C   0  0  0  0  0  0  0  0  0  0  0  0
   17.1328  -16.6225   23.3205 O   0  0  0  0  0  0  0  0  0  0  0  0
   15.1146  -17.4861   24.2600 C   0  0  0  0  0  0  0  0  0  0  0  0
   13.7528  -16.9643   24.5101 C   0  0  0  0  0  0  0  0  0  0  0  0
   12.9574  -17.7655   25.4769 C   0  0  2  0  0  0  0  0  0  0  0  0
   11.6588  -17.0685   25.6902 N   0  0  0  0  0  0  0  0  0  0  0  0
   13.5032  -18.0216   26.7936 C   0  0  0  0  0  0  0  0  0  0  0  0
   13.0796  -17.3929   27.8132 O   0  0  0  0  0  0  0  0  0  0  0  0
   14.5122  -18.9674   27.0573 O   0  0  0  0  0  0  0  0  0  0  0  0
  2  1  1  0
  3  2  2  0
  4  5  1  0
  4  2  1  0
  5  6  1  1
  7  5  1  0
  7  8  2  0
  9  7  1  0
 10  9  1  0
 10 11  1  1
 12 11  1  0
 12 13  2  0
 14 13  1  0
 15 20  2  0
 15 14  1  0
 16 15  1  0
 17 18  1  0
 17 16  2  0
 18 19  2  0
 19 20  1  0
 20 12  1  0
 21 10  1  0
 22 21  2  0
 23 24  1  0
 24 26  1  0
 25 24  2  0
 27 26  1  0
 28 27  1  6
 28 29  1  0
 28 30  1  0
 29 21  1  0
 30 32  1  0
 31 30  2  0
M  END
$$$$
