NWQ.pdb
     RDKit          3D

 32 33  0  0  1  0  0  0  0  0999 V2000
   10.4230  -16.9389   17.2898 N   0  0  0  0  0  0  0  0  0  0  0  0
   11.1507  -17.2672   18.4665 C   0  0  0  0  0  0  0  0  0  0  0  0
   12.0161  -18.1757   18.4077 O   0  0  0  0  0  0  0  0  0  0  0  0
   10.9348  -16.5886   19.7553 C   0  0  0  0  0  0  0  0  0  0  0  0
   10.3439  -17.6356   20.7101 C   0  0  2  0  0  0  0  0  0  0  0  0
    9.0284  -18.0281   20.1874 N   0  0  0  0  0  0  0  0  0  0  0  0
   10.1292  -17.0143   22.0354 C   0  0  0  0  0  0  0  0  0  0  0  0
   11.0520  -16.3633   22.5672 O   0  0  0  0  0  0  0  0  0  0  0  0
    8.8860  -17.1345   22.7364 N   0  0  0  0  0  0  0  0  0  0  0  0
    8.7766  -16.5442   24.0354 C   0  0  1  0  0  0  0  0  0  0  0  0
    7.3942  -15.9193   24.1143 C   0  0  0  0  0  0  0  0  0  0  0  0
    7.4260  -14.4386   24.1002 C   0  0  0  0  0  0  0  0  0  0  0  0
    7.8282  -13.6388   23.0296 C   0  0  0  0  0  0  0  0  0  0  0  0
    7.7243  -12.3539   23.3963 N   0  0  0  0  0  0  0  0  0  0  0  0
    7.2727  -12.3050   24.6557 C   0  0  0  0  0  0  0  0  0  0  0  0
    6.9972  -11.2313   25.4842 C   0  0  0  0  0  0  0  0  0  0  0  0
    6.5334  -11.4469   26.7582 C   0  0  0  0  0  0  0  0  0  0  0  0
    6.3333  -12.7095   27.2378 C   0  0  0  0  0  0  0  0  0  0  0  0
    6.6051  -13.7800   26.4199 C   0  0  0  0  0  0  0  0  0  0  0  0
    7.0728  -13.6021   25.1330 C   0  0  0  0  0  0  0  0  0  0  0  0
    8.9586  -17.5764   25.0844 C   0  0  0  0  0  0  0  0  0  0  0  0
    8.3653  -18.6840   24.8814 O   0  0  0  0  0  0  0  0  0  0  0  0
   13.0393  -20.4057   24.0240 N   0  0  0  0  0  0  0  0  0  0  0  0
   13.4794  -19.2492   24.7364 C   0  0  0  0  0  0  0  0  0  0  0  0
   14.6561  -18.8105   24.4972 O   0  0  0  0  0  0  0  0  0  0  0  0
   12.6143  -18.5702   25.7115 C   0  0  0  0  0  0  0  0  0  0  0  0
   11.2744  -19.1826   25.8497 C   0  0  0  0  0  0  0  0  0  0  0  0
   10.4110  -18.5428   26.8765 C   0  0  2  0  0  0  0  0  0  0  0  0
    9.7330  -17.3778   26.2434 N   0  0  0  0  0  0  0  0  0  0  0  0
   11.0174  -18.0482   28.0950 C   0  0  0  0  0  0  0  0  0  0  0  0
   11.3855  -18.8438   29.0147 O   0  0  0  0  0  0  0  0  0  0  0  0
   11.2568  -16.6860   28.3586 O   0  0  0  0  0  0  0  0  0  0  0  0
  2  1  1  0
  3  2  2  0
  4  5  1  0
  4  2  1  0
  5  6  1  6
  7  5  1  0
  7  8  2  0
  9  7  1  0
 10  9  1  0
 10 11  1  6
 12 11  1  0
 12 13  2  0
 14 13  1  0
 15 20  2  0
 15 14  1  0
 16 15  1  0
 17 18  1  0
 17 16  2  0
 18 19  2  0
 19 20  1  0
 20 12  1  0
 21 10  1  0
 22 21  2  0
 23 24  1  0
 24 26  1  0
 25 24  2  0
 27 26  1  0
 28 27  1  6
 28 29  1  0
 28 30  1  0
 29 21  1  0
 30 32  1  0
 31 30  2  0
M  END
$$$$
