NWQ.pdb
     RDKit          3D

 32 33  0  0  1  0  0  0  0  0999 V2000
    9.9821  -18.6702   17.0726 N   0  0  0  0  0  0  0  0  0  0  0  0
   11.0593  -18.7745   17.9950 C   0  0  0  0  0  0  0  0  0  0  0  0
   12.0002  -19.5657   17.7377 O   0  0  0  0  0  0  0  0  0  0  0  0
   11.1217  -17.9946   19.2424 C   0  0  0  0  0  0  0  0  0  0  0  0
    9.7894  -17.2404   19.3566 C   0  0  2  0  0  0  0  0  0  0  0  0
    9.7726  -16.1992   18.3206 N   0  0  0  0  0  0  0  0  0  0  0  0
    9.7290  -16.5626   20.6703 C   0  0  0  0  0  0  0  0  0  0  0  0
   10.6293  -15.7597   20.9910 O   0  0  0  0  0  0  0  0  0  0  0  0
    8.6617  -16.7976   21.5960 N   0  0  0  0  0  0  0  0  0  0  0  0
    8.6594  -16.0745   22.8309 C   0  0  1  0  0  0  0  0  0  0  0  0
    7.2067  -15.9426   23.2552 C   0  0  0  0  0  0  0  0  0  0  0  0
    7.0440  -15.2639   24.5615 C   0  0  0  0  0  0  0  0  0  0  0  0
    6.6676  -15.8734   25.7593 C   0  0  0  0  0  0  0  0  0  0  0  0
    6.6235  -14.9373   26.7172 N   0  0  0  0  0  0  0  0  0  0  0  0
    6.9565  -13.7583   26.1771 C   0  0  0  0  0  0  0  0  0  0  0  0
    7.0609  -12.4966   26.7359 C   0  0  0  0  0  0  0  0  0  0  0  0
    7.4285  -11.4276   25.9569 C   0  0  0  0  0  0  0  0  0  0  0  0
    7.6977  -11.5766   24.6267 C   0  0  0  0  0  0  0  0  0  0  0  0
    7.5957  -12.8270   24.0657 C   0  0  0  0  0  0  0  0  0  0  0  0
    7.2288  -13.9255   24.8177 C   0  0  0  0  0  0  0  0  0  0  0  0
    9.4518  -16.8014   23.8520 C   0  0  0  0  0  0  0  0  0  0  0  0
    9.3459  -18.0698   23.8366 O   0  0  0  0  0  0  0  0  0  0  0  0
   14.7278  -18.3406   23.4790 N   0  0  0  0  0  0  0  0  0  0  0  0
   14.3319  -17.0304   23.8859 C   0  0  0  0  0  0  0  0  0  0  0  0
   15.2470  -16.1541   24.0555 O   0  0  0  0  0  0  0  0  0  0  0  0
   12.9193  -16.6847   24.0993 C   0  0  0  0  0  0  0  0  0  0  0  0
   12.5121  -16.6862   25.5218 C   0  0  0  0  0  0  0  0  0  0  0  0
   11.0735  -16.9843   25.7472 C   0  0  2  0  0  0  0  0  0  0  0  0
   10.2803  -16.1608   24.7930 N   0  0  0  0  0  0  0  0  0  0  0  0
   10.5045  -16.7499   27.0580 C   0  0  0  0  0  0  0  0  0  0  0  0
    9.6291  -15.8475   27.2417 O   0  0  0  0  0  0  0  0  0  0  0  0
   10.8500  -17.4837   28.2089 O   0  0  0  0  0  0  0  0  0  0  0  0
  2  1  1  0
  3  2  2  0
  4  5  1  0
  4  2  1  0
  5  6  1  6
  7  5  1  0
  7  8  2  0
  9  7  1  0
 10  9  1  0
 10 11  1  1
 12 11  1  0
 12 13  2  0
 14 13  1  0
 15 20  2  0
 15 14  1  0
 16 15  1  0
 17 18  1  0
 17 16  2  0
 18 19  2  0
 19 20  1  0
 20 12  1  0
 21 10  1  0
 22 21  2  0
 23 24  1  0
 24 26  1  0
 25 24  2  0
 27 26  1  0
 28 27  1  1
 28 29  1  0
 28 30  1  0
 29 21  1  0
 30 32  1  0
 31 30  2  0
M  END
$$$$
