NWQ.pdb
     RDKit          3D

 32 33  0  0  1  0  0  0  0  0999 V2000
   10.0642  -20.3532   18.2710 N   0  0  0  0  0  0  0  0  0  0  0  0
   10.6690  -19.0664   18.2458 C   0  0  0  0  0  0  0  0  0  0  0  0
   11.0803  -18.6138   17.1488 O   0  0  0  0  0  0  0  0  0  0  0  0
   10.8357  -18.2379   19.4515 C   0  0  0  0  0  0  0  0  0  0  0  0
    9.8248  -17.0880   19.3382 C   0  0  2  0  0  0  0  0  0  0  0  0
   10.3487  -16.1242   18.3613 N   0  0  0  0  0  0  0  0  0  0  0  0
    9.7329  -16.3952   20.6422 C   0  0  0  0  0  0  0  0  0  0  0  0
   10.7121  -15.7472   21.0655 O   0  0  0  0  0  0  0  0  0  0  0  0
    8.5467  -16.4422   21.4435 N   0  0  0  0  0  0  0  0  0  0  0  0
    8.5658  -15.8088   22.7265 C   0  0  1  0  0  0  0  0  0  0  0  0
    7.1165  -15.6330   23.1466 C   0  0  0  0  0  0  0  0  0  0  0  0
    6.9721  -15.1147   24.5265 C   0  0  0  0  0  0  0  0  0  0  0  0
    6.5878  -15.8575   25.6438 C   0  0  0  0  0  0  0  0  0  0  0  0
    6.5658  -15.0437   26.7084 N   0  0  0  0  0  0  0  0  0  0  0  0
    6.9205  -13.8147   26.3131 C   0  0  0  0  0  0  0  0  0  0  0  0
    7.0521  -12.6323   27.0200 C   0  0  0  0  0  0  0  0  0  0  0  0
    7.4382  -11.4841   26.3740 C   0  0  0  0  0  0  0  0  0  0  0  0
    7.6997  -11.4759   25.0340 C   0  0  0  0  0  0  0  0  0  0  0  0
    7.5706  -12.6469   24.3263 C   0  0  0  0  0  0  0  0  0  0  0  0
    7.1845  -13.8211   24.9418 C   0  0  0  0  0  0  0  0  0  0  0  0
    9.3081  -16.6455   23.7002 C   0  0  0  0  0  0  0  0  0  0  0  0
    9.0577  -17.8929   23.6636 O   0  0  0  0  0  0  0  0  0  0  0  0
   15.3305  -17.6562   23.4014 N   0  0  0  0  0  0  0  0  0  0  0  0
   14.4067  -16.6634   23.8480 C   0  0  0  0  0  0  0  0  0  0  0  0
   14.8641  -15.5031   24.1286 O   0  0  0  0  0  0  0  0  0  0  0  0
   12.9712  -16.9508   23.9785 C   0  0  0  0  0  0  0  0  0  0  0  0
   12.4445  -16.7544   25.3472 C   0  0  0  0  0  0  0  0  0  0  0  0
   10.9977  -17.0603   25.4969 C   0  0  2  0  0  0  0  0  0  0  0  0
   10.2390  -16.1260   24.6198 N   0  0  0  0  0  0  0  0  0  0  0  0
   10.3925  -16.9687   26.8093 C   0  0  0  0  0  0  0  0  0  0  0  0
   10.8090  -17.6815   27.7752 O   0  0  0  0  0  0  0  0  0  0  0  0
    9.3294  -16.1021   27.1274 O   0  0  0  0  0  0  0  0  0  0  0  0
  2  1  1  0
  3  2  2  0
  4  5  1  0
  4  2  1  0
  5  6  1  6
  7  5  1  0
  7  8  2  0
  9  7  1  0
 10  9  1  0
 10 11  1  1
 12 11  1  0
 12 13  2  0
 14 13  1  0
 15 20  2  0
 15 14  1  0
 16 15  1  0
 17 18  1  0
 17 16  2  0
 18 19  2  0
 19 20  1  0
 20 12  1  0
 21 10  1  0
 22 21  2  0
 23 24  1  0
 24 26  1  0
 25 24  2  0
 27 26  1  0
 28 27  1  1
 28 29  1  0
 28 30  1  0
 29 21  1  0
 30 32  1  0
 31 30  2  0
M  END
$$$$
