NWQ.pdb
     RDKit          3D

 32 33  0  0  1  0  0  0  0  0999 V2000
   14.5789  -14.7834   18.4128 N   0  0  0  0  0  0  0  0  0  0  0  0
   13.1606  -14.6833   18.4349 C   0  0  0  0  0  0  0  0  0  0  0  0
   12.5221  -14.9171   17.3788 O   0  0  0  0  0  0  0  0  0  0  0  0
   12.4039  -14.3165   19.6436 C   0  0  0  0  0  0  0  0  0  0  0  0
   11.8204  -15.6191   20.2093 C   0  0  2  0  0  0  0  0  0  0  0  0
   10.7471  -16.0589   19.3080 N   0  0  0  0  0  0  0  0  0  0  0  0
   11.2094  -15.3422   21.5279 C   0  0  0  0  0  0  0  0  0  0  0  0
   11.9399  -15.0416   22.4943 O   0  0  0  0  0  0  0  0  0  0  0  0
    9.7938  -15.4071   21.7358 N   0  0  0  0  0  0  0  0  0  0  0  0
    9.2936  -15.2608   23.0686 C   0  0  1  0  0  0  0  0  0  0  0  0
    7.8098  -14.9591   22.9458 C   0  0  0  0  0  0  0  0  0  0  0  0
    7.1667  -14.6742   24.2492 C   0  0  0  0  0  0  0  0  0  0  0  0
    6.4926  -15.5984   25.0487 C   0  0  0  0  0  0  0  0  0  0  0  0
    6.0457  -14.9675   26.1434 N   0  0  0  0  0  0  0  0  0  0  0  0
    6.4085  -13.6807   26.0720 C   0  0  0  0  0  0  0  0  0  0  0  0
    6.1952  -12.6240   26.9398 C   0  0  0  0  0  0  0  0  0  0  0  0
    6.6785  -11.3756   26.6353 C   0  0  0  0  0  0  0  0  0  0  0  0
    7.3739  -11.1440   25.4833 C   0  0  0  0  0  0  0  0  0  0  0  0
    7.5889  -12.1893   24.6174 C   0  0  0  0  0  0  0  0  0  0  0  0
    7.1180  -13.4584   24.8899 C   0  0  0  0  0  0  0  0  0  0  0  0
    9.5252  -16.5044   23.8424 C   0  0  0  0  0  0  0  0  0  0  0  0
    9.4419  -17.5907   23.1842 O   0  0  0  0  0  0  0  0  0  0  0  0
   13.7019  -19.9004   23.5160 N   0  0  0  0  0  0  0  0  0  0  0  0
   13.7984  -19.3094   24.8122 C   0  0  0  0  0  0  0  0  0  0  0  0
   14.9635  -19.0291   25.2572 O   0  0  0  0  0  0  0  0  0  0  0  0
   12.6030  -19.0200   25.6171 C   0  0  0  0  0  0  0  0  0  0  0  0
   11.7494  -17.9497   25.0559 C   0  0  0  0  0  0  0  0  0  0  0  0
   10.4900  -17.7121   25.8086 C   0  0  2  0  0  0  0  0  0  0  0  0
    9.8221  -16.5189   25.2186 N   0  0  0  0  0  0  0  0  0  0  0  0
   10.5584  -17.4764   27.2357 C   0  0  0  0  0  0  0  0  0  0  0  0
   10.3208  -16.3274   27.7232 O   0  0  0  0  0  0  0  0  0  0  0  0
   10.8733  -18.4689   28.1834 O   0  0  0  0  0  0  0  0  0  0  0  0
  2  1  1  0
  3  2  2  0
  4  5  1  0
  4  2  1  0
  5  6  1  6
  7  5  1  0
  7  8  2  0
  9  7  1  0
 10  9  1  0
 10 11  1  6
 12 11  1  0
 12 13  2  0
 14 13  1  0
 15 20  2  0
 15 14  1  0
 16 15  1  0
 17 18  1  0
 17 16  2  0
 18 19  2  0
 19 20  1  0
 20 12  1  0
 21 10  1  0
 22 21  2  0
 23 24  1  0
 24 26  1  0
 25 24  2  0
 27 26  1  0
 28 27  1  6
 28 29  1  0
 28 30  1  0
 29 21  1  0
 30 32  1  0
 31 30  2  0
M  END
$$$$
