NWQ.pdb
     RDKit          3D

 32 33  0  0  1  0  0  0  0  0999 V2000
    8.5950  -15.8674   16.7347 N   0  0  0  0  0  0  0  0  0  0  0  0
    8.5098  -16.5417   17.9838 C   0  0  0  0  0  0  0  0  0  0  0  0
    7.8474  -17.6067   18.0512 O   0  0  0  0  0  0  0  0  0  0  0  0
    9.1648  -16.0462   19.2059 C   0  0  0  0  0  0  0  0  0  0  0  0
    8.0601  -15.8738   20.2580 C   0  0  2  0  0  0  0  0  0  0  0  0
    7.3245  -14.6430   19.9391 N   0  0  0  0  0  0  0  0  0  0  0  0
    8.6831  -15.6887   21.5870 C   0  0  0  0  0  0  0  0  0  0  0  0
    9.5678  -14.8211   21.7369 O   0  0  0  0  0  0  0  0  0  0  0  0
    8.3017  -16.4783   22.7195 N   0  0  0  0  0  0  0  0  0  0  0  0
    8.9451  -16.2272   23.9727 C   0  0  1  0  0  0  0  0  0  0  0  0
    7.8721  -16.3374   25.0425 C   0  0  0  0  0  0  0  0  0  0  0  0
    7.0941  -15.0888   25.2136 C   0  0  0  0  0  0  0  0  0  0  0  0
    5.8198  -14.8417   24.7010 C   0  0  0  0  0  0  0  0  0  0  0  0
    5.4498  -13.6045   25.0595 N   0  0  0  0  0  0  0  0  0  0  0  0
    6.4367  -13.0558   25.7788 C   0  0  0  0  0  0  0  0  0  0  0  0
    6.5471  -11.8119   26.3751 C   0  0  0  0  0  0  0  0  0  0  0  0
    7.6825  -11.4819   27.0728 C   0  0  0  0  0  0  0  0  0  0  0  0
    8.7211  -12.3595   27.1966 C   0  0  0  0  0  0  0  0  0  0  0  0
    8.6176  -13.5964   26.6065 C   0  0  0  0  0  0  0  0  0  0  0  0
    7.4913  -13.9635   25.8970 C   0  0  0  0  0  0  0  0  0  0  0  0
   10.0299  -17.2127   24.1985 C   0  0  0  0  0  0  0  0  0  0  0  0
    9.7394  -18.4254   23.9431 O   0  0  0  0  0  0  0  0  0  0  0  0
   14.5151  -16.2725   21.7404 N   0  0  0  0  0  0  0  0  0  0  0  0
   14.7397  -15.7382   23.0453 C   0  0  0  0  0  0  0  0  0  0  0  0
   15.4616  -14.6880   23.1461 O   0  0  0  0  0  0  0  0  0  0  0  0
   14.1588  -16.3618   24.2428 C   0  0  0  0  0  0  0  0  0  0  0  0
   13.4797  -17.6490   23.9765 C   0  0  0  0  0  0  0  0  0  0  0  0
   12.3284  -17.9317   24.8731 C   0  0  2  0  0  0  0  0  0  0  0  0
   11.3120  -16.8635   24.6638 N   0  0  0  0  0  0  0  0  0  0  0  0
   12.5525  -18.0062   26.3018 C   0  0  0  0  0  0  0  0  0  0  0  0
   11.9324  -17.2406   27.1041 O   0  0  0  0  0  0  0  0  0  0  0  0
   13.4406  -18.9116   26.9133 O   0  0  0  0  0  0  0  0  0  0  0  0
  2  1  1  0
  3  2  2  0
  4  5  1  0
  4  2  1  0
  5  6  1  6
  7  5  1  0
  7  8  2  0
  9  7  1  0
 10  9  1  0
 10 11  1  1
 12 11  1  0
 12 13  2  0
 14 13  1  0
 15 20  2  0
 15 14  1  0
 16 15  1  0
 17 18  1  0
 17 16  2  0
 18 19  2  0
 19 20  1  0
 20 12  1  0
 21 10  1  0
 22 21  2  0
 23 24  1  0
 24 26  1  0
 25 24  2  0
 27 26  1  0
 28 27  1  6
 28 29  1  0
 28 30  1  0
 29 21  1  0
 30 32  1  0
 31 30  2  0
M  END
$$$$
