NWQ.pdb
     RDKit          3D

 32 33  0  0  1  0  0  0  0  0999 V2000
    8.8153  -15.3727   17.3508 N   0  0  0  0  0  0  0  0  0  0  0  0
    8.0245  -15.6898   18.4892 C   0  0  0  0  0  0  0  0  0  0  0  0
    6.9407  -16.3016   18.3202 O   0  0  0  0  0  0  0  0  0  0  0  0
    8.4196  -15.3319   19.8617 C   0  0  0  0  0  0  0  0  0  0  0  0
    8.7463  -16.6474   20.5825 C   0  0  2  0  0  0  0  0  0  0  0  0
    7.4873  -17.3800   20.7725 N   0  0  0  0  0  0  0  0  0  0  0  0
    9.2903  -16.3413   21.9238 C   0  0  0  0  0  0  0  0  0  0  0  0
   10.3135  -15.6339   22.0267 O   0  0  0  0  0  0  0  0  0  0  0  0
    8.6765  -16.8330   23.1209 N   0  0  0  0  0  0  0  0  0  0  0  0
    9.3607  -16.6457   24.3637 C   0  0  1  0  0  0  0  0  0  0  0  0
    8.3061  -16.7112   25.4552 C   0  0  0  0  0  0  0  0  0  0  0  0
    7.3329  -15.5967   25.3882 C   0  0  0  0  0  0  0  0  0  0  0  0
    5.9981  -15.6982   24.9937 C   0  0  0  0  0  0  0  0  0  0  0  0
    5.4420  -14.4805   25.0575 N   0  0  0  0  0  0  0  0  0  0  0  0
    6.3688  -13.6099   25.4765 C   0  0  0  0  0  0  0  0  0  0  0  0
    6.3016  -12.2468   25.7055 C   0  0  0  0  0  0  0  0  0  0  0  0
    7.4114  -11.5672   26.1427 C   0  0  0  0  0  0  0  0  0  0  0  0
    8.5971  -12.2080   26.3611 C   0  0  0  0  0  0  0  0  0  0  0  0
    8.6704  -13.5616   26.1354 C   0  0  0  0  0  0  0  0  0  0  0  0
    7.5752  -14.2783   25.6955 C   0  0  0  0  0  0  0  0  0  0  0  0
   10.3878  -17.6993   24.5473 C   0  0  0  0  0  0  0  0  0  0  0  0
   10.3225  -18.6835   23.7428 O   0  0  0  0  0  0  0  0  0  0  0  0
   14.7959  -18.3432   21.7918 N   0  0  0  0  0  0  0  0  0  0  0  0
   15.3960  -17.9281   23.0191 C   0  0  0  0  0  0  0  0  0  0  0  0
   16.5680  -17.4201   22.9706 O   0  0  0  0  0  0  0  0  0  0  0  0
   14.6963  -18.0679   24.3041 C   0  0  0  0  0  0  0  0  0  0  0  0
   13.2456  -18.3263   24.1694 C   0  0  0  0  0  0  0  0  0  0  0  0
   12.5458  -18.5779   25.4564 C   0  0  2  0  0  0  0  0  0  0  0  0
   11.3873  -17.6456   25.5374 N   0  0  0  0  0  0  0  0  0  0  0  0
   13.2787  -18.4254   26.6960 C   0  0  0  0  0  0  0  0  0  0  0  0
   14.3124  -19.1237   26.9373 O   0  0  0  0  0  0  0  0  0  0  0  0
   12.9307  -17.5117   27.7091 O   0  0  0  0  0  0  0  0  0  0  0  0
  2  1  1  0
  3  2  2  0
  4  5  1  0
  4  2  1  0
  5  6  1  1
  7  5  1  0
  7  8  2  0
  9  7  1  0
 10  9  1  0
 10 11  1  1
 12 11  1  0
 12 13  2  0
 14 13  1  0
 15 20  2  0
 15 14  1  0
 16 15  1  0
 17 18  1  0
 17 16  2  0
 18 19  2  0
 19 20  1  0
 20 12  1  0
 21 10  1  0
 22 21  2  0
 23 24  1  0
 24 26  1  0
 25 24  2  0
 27 26  1  0
 28 27  1  6
 28 29  1  0
 28 30  1  0
 29 21  1  0
 30 32  1  0
 31 30  2  0
M  END
$$$$
