NWQ.pdb
     RDKit          3D

 32 33  0  0  1  0  0  0  0  0999 V2000
    8.5546  -18.2529   18.3444 N   0  0  0  0  0  0  0  0  0  0  0  0
    9.4251  -17.1469   18.1419 C   0  0  0  0  0  0  0  0  0  0  0  0
    9.7245  -16.8212   16.9664 O   0  0  0  0  0  0  0  0  0  0  0  0
    9.9937  -16.3636   19.2516 C   0  0  0  0  0  0  0  0  0  0  0  0
    9.6044  -17.0897   20.5471 C   0  0  2  0  0  0  0  0  0  0  0  0
    8.1577  -16.9215   20.7386 N   0  0  0  0  0  0  0  0  0  0  0  0
   10.2834  -16.4384   21.6887 C   0  0  0  0  0  0  0  0  0  0  0  0
   11.5260  -16.3206   21.6804 O   0  0  0  0  0  0  0  0  0  0  0  0
    9.5568  -15.9325   22.8145 N   0  0  0  0  0  0  0  0  0  0  0  0
   10.1694  -15.9982   24.1061 C   0  0  1  0  0  0  0  0  0  0  0  0
    9.8152  -14.7059   24.8219 C   0  0  0  0  0  0  0  0  0  0  0  0
    8.3723  -14.5949   25.1373 C   0  0  0  0  0  0  0  0  0  0  0  0
    7.4235  -15.6087   24.9971 C   0  0  0  0  0  0  0  0  0  0  0  0
    6.2305  -15.1299   25.3758 N   0  0  0  0  0  0  0  0  0  0  0  0
    6.3827  -13.8537   25.7509 C   0  0  0  0  0  0  0  0  0  0  0  0
    5.4689  -12.9261   26.2195 C   0  0  0  0  0  0  0  0  0  0  0  0
    5.8813  -11.6574   26.5439 C   0  0  0  0  0  0  0  0  0  0  0  0
    7.1870  -11.2797   26.4151 C   0  0  0  0  0  0  0  0  0  0  0  0
    8.0994  -12.1962   25.9501 C   0  0  0  0  0  0  0  0  0  0  0  0
    7.7216  -13.4811   25.6139 C   0  0  0  0  0  0  0  0  0  0  0  0
    9.6685  -17.1781   24.8516 C   0  0  0  0  0  0  0  0  0  0  0  0
    8.9739  -18.0055   24.1784 O   0  0  0  0  0  0  0  0  0  0  0  0
   12.5068  -21.7527   24.9743 N   0  0  0  0  0  0  0  0  0  0  0  0
   11.1638  -21.5906   24.5174 C   0  0  0  0  0  0  0  0  0  0  0  0
   10.6378  -22.5480   23.8535 O   0  0  0  0  0  0  0  0  0  0  0  0
   10.3963  -20.3696   24.8009 C   0  0  0  0  0  0  0  0  0  0  0  0
   11.1855  -19.3084   25.4646 C   0  0  0  0  0  0  0  0  0  0  0  0
   10.5207  -18.6981   26.6456 C   0  0  2  0  0  0  0  0  0  0  0  0
    9.9272  -17.4010   26.2175 N   0  0  0  0  0  0  0  0  0  0  0  0
   11.3088  -18.4151   27.8270 C   0  0  0  0  0  0  0  0  0  0  0  0
   11.4434  -19.2794   28.7486 O   0  0  0  0  0  0  0  0  0  0  0  0
   11.9847  -17.2004   28.0502 O   0  0  0  0  0  0  0  0  0  0  0  0
  2  1  1  0
  3  2  2  0
  4  5  1  0
  4  2  1  0
  5  6  1  1
  7  5  1  0
  7  8  2  0
  9  7  1  0
 10  9  1  0
 10 11  1  1
 12 11  1  0
 12 13  2  0
 14 13  1  0
 15 20  2  0
 15 14  1  0
 16 15  1  0
 17 18  1  0
 17 16  2  0
 18 19  2  0
 19 20  1  0
 20 12  1  0
 21 10  1  0
 22 21  2  0
 23 24  1  0
 24 26  1  0
 25 24  2  0
 27 26  1  0
 28 27  1  6
 28 29  1  0
 28 30  1  0
 29 21  1  0
 30 32  1  0
 31 30  2  0
M  END
$$$$
