NWQ.pdb
     RDKit          3D

 32 33  0  0  1  0  0  0  0  0999 V2000
   13.7854  -16.5619   18.2997 N   0  0  0  0  0  0  0  0  0  0  0  0
   12.3856  -16.3482   18.4301 C   0  0  0  0  0  0  0  0  0  0  0  0
   11.6340  -16.6719   17.4773 O   0  0  0  0  0  0  0  0  0  0  0  0
   11.7754  -15.7623   19.6352 C   0  0  0  0  0  0  0  0  0  0  0  0
   11.4888  -16.9270   20.5936 C   0  0  2  0  0  0  0  0  0  0  0  0
   10.3438  -17.6765   20.0596 N   0  0  0  0  0  0  0  0  0  0  0  0
   11.0898  -16.3825   21.9100 C   0  0  0  0  0  0  0  0  0  0  0  0
   11.8387  -15.5726   22.4941 O   0  0  0  0  0  0  0  0  0  0  0  0
    9.8608  -16.7558   22.5437 N   0  0  0  0  0  0  0  0  0  0  0  0
    9.6209  -16.3086   23.8816 C   0  0  1  0  0  0  0  0  0  0  0  0
    8.1247  -16.4246   24.1176 C   0  0  0  0  0  0  0  0  0  0  0  0
    7.4129  -15.1343   23.9690 C   0  0  0  0  0  0  0  0  0  0  0  0
    6.7194  -14.7078   22.8355 C   0  0  0  0  0  0  0  0  0  0  0  0
    6.2159  -13.4898   23.0783 N   0  0  0  0  0  0  0  0  0  0  0  0
    6.5611  -13.1253   24.3195 C   0  0  0  0  0  0  0  0  0  0  0  0
    6.2924  -11.9744   25.0394 C   0  0  0  0  0  0  0  0  0  0  0  0
    6.7668  -11.8380   26.3205 C   0  0  0  0  0  0  0  0  0  0  0  0
    7.5072  -12.8205   26.9128 C   0  0  0  0  0  0  0  0  0  0  0  0
    7.7775  -13.9658   26.2030 C   0  0  0  0  0  0  0  0  0  0  0  0
    7.3173  -14.1384   24.9126 C   0  0  0  0  0  0  0  0  0  0  0  0
   10.3812  -17.1415   24.8446 C   0  0  0  0  0  0  0  0  0  0  0  0
   10.8807  -18.2144   24.3761 O   0  0  0  0  0  0  0  0  0  0  0  0
   11.8986  -15.1489   30.5044 N   0  0  0  0  0  0  0  0  0  0  0  0
   10.8072  -16.0684   30.4605 C   0  0  0  0  0  0  0  0  0  0  0  0
    9.9560  -16.0333   31.4137 O   0  0  0  0  0  0  0  0  0  0  0  0
   10.6510  -17.0256   29.3561 C   0  0  0  0  0  0  0  0  0  0  0  0
   11.6965  -16.9127   28.3152 C   0  0  0  0  0  0  0  0  0  0  0  0
   11.4025  -17.6641   27.0670 C   0  0  2  0  0  0  0  0  0  0  0  0
   10.5601  -16.7964   26.1978 N   0  0  0  0  0  0  0  0  0  0  0  0
   10.7176  -18.9367   27.1580 C   0  0  0  0  0  0  0  0  0  0  0  0
    9.4889  -19.0441   26.8526 O   0  0  0  0  0  0  0  0  0  0  0  0
   11.3330  -20.1344   27.5694 O   0  0  0  0  0  0  0  0  0  0  0  0
  2  1  1  0
  3  2  2  0
  4  5  1  0
  4  2  1  0
  5  6  1  6
  7  5  1  0
  7  8  2  0
  9  7  1  0
 10  9  1  0
 10 11  1  1
 12 11  1  0
 12 13  2  0
 14 13  1  0
 15 20  2  0
 15 14  1  0
 16 15  1  0
 17 18  1  0
 17 16  2  0
 18 19  2  0
 19 20  1  0
 20 12  1  0
 21 10  1  0
 22 21  2  0
 23 24  1  0
 24 26  1  0
 25 24  2  0
 27 26  1  0
 28 27  1  1
 28 29  1  0
 28 30  1  0
 29 21  1  0
 30 32  1  0
 31 30  2  0
M  END
$$$$
