NWQ.pdb
     RDKit          3D

 32 33  0  0  1  0  0  0  0  0999 V2000
   10.9733  -16.0543   17.5223 N   0  0  0  0  0  0  0  0  0  0  0  0
    9.9318  -16.3292   18.4507 C   0  0  0  0  0  0  0  0  0  0  0  0
    8.9231  -16.9650   18.0559 O   0  0  0  0  0  0  0  0  0  0  0  0
    9.9822  -15.9005   19.8584 C   0  0  0  0  0  0  0  0  0  0  0  0
   10.0587  -17.1790   20.7050 C   0  0  2  0  0  0  0  0  0  0  0  0
    8.7834  -17.8927   20.5567 N   0  0  0  0  0  0  0  0  0  0  0  0
   10.1980  -16.8072   22.1301 C   0  0  0  0  0  0  0  0  0  0  0  0
   11.1879  -16.1427   22.4993 O   0  0  0  0  0  0  0  0  0  0  0  0
    9.2256  -17.1867   23.1109 N   0  0  0  0  0  0  0  0  0  0  0  0
    9.4442  -16.8012   24.4715 C   0  0  1  0  0  0  0  0  0  0  0  0
    8.0746  -16.7043   25.1217 C   0  0  0  0  0  0  0  0  0  0  0  0
    7.3589  -15.4530   24.7814 C   0  0  0  0  0  0  0  0  0  0  0  0
    6.4616  -15.2845   23.7259 C   0  0  0  0  0  0  0  0  0  0  0  0
    6.0258  -14.0172   23.7365 N   0  0  0  0  0  0  0  0  0  0  0  0
    6.6094  -13.3741   24.7556 C   0  0  0  0  0  0  0  0  0  0  0  0
    6.4963  -12.0658   25.1923 C   0  0  0  0  0  0  0  0  0  0  0  0
    7.2123  -11.6408   26.2838 C   0  0  0  0  0  0  0  0  0  0  0  0
    8.0452  -12.4850   26.9604 C   0  0  0  0  0  0  0  0  0  0  0  0
    8.1620  -13.7854   26.5315 C   0  0  0  0  0  0  0  0  0  0  0  0
    7.4577  -14.2487   25.4379 C   0  0  0  0  0  0  0  0  0  0  0  0
   10.2934  -17.8042   25.1584 C   0  0  0  0  0  0  0  0  0  0  0  0
   10.1768  -19.0036   24.7484 O   0  0  0  0  0  0  0  0  0  0  0  0
   16.6266  -18.4906   27.9530 N   0  0  0  0  0  0  0  0  0  0  0  0
   15.7442  -19.0223   26.9643 C   0  0  0  0  0  0  0  0  0  0  0  0
   16.2274  -19.2871   25.8108 O   0  0  0  0  0  0  0  0  0  0  0  0
   14.3242  -19.2692   27.2528 C   0  0  0  0  0  0  0  0  0  0  0  0
   13.4035  -18.3419   26.5587 C   0  0  0  0  0  0  0  0  0  0  0  0
   11.9649  -18.5720   26.8530 C   0  0  2  0  0  0  0  0  0  0  0  0
   11.1844  -17.4843   26.2006 N   0  0  0  0  0  0  0  0  0  0  0  0
   11.5284  -18.6150   28.2331 C   0  0  0  0  0  0  0  0  0  0  0  0
   10.8595  -17.6609   28.7398 O   0  0  0  0  0  0  0  0  0  0  0  0
   11.7874  -19.6875   29.1077 O   0  0  0  0  0  0  0  0  0  0  0  0
  2  1  1  0
  3  2  2  0
  4  5  1  0
  4  2  1  0
  5  6  1  1
  7  5  1  0
  7  8  2  0
  9  7  1  0
 10  9  1  0
 10 11  1  1
 12 11  1  0
 12 13  2  0
 14 13  1  0
 15 20  2  0
 15 14  1  0
 16 15  1  0
 17 18  1  0
 17 16  2  0
 18 19  2  0
 19 20  1  0
 20 12  1  0
 21 10  1  0
 22 21  2  0
 23 24  1  0
 24 26  1  0
 25 24  2  0
 27 26  1  0
 28 27  1  1
 28 29  1  0
 28 30  1  0
 29 21  1  0
 30 32  1  0
 31 30  2  0
M  END
$$$$
