NWQ.pdb
     RDKit          3D

 32 33  0  0  1  0  0  0  0  0999 V2000
   11.5879  -19.6837   18.4040 N   0  0  0  0  0  0  0  0  0  0  0  0
   10.6102  -19.4310   19.4051 C   0  0  0  0  0  0  0  0  0  0  0  0
    9.4787  -19.9644   19.2926 O   0  0  0  0  0  0  0  0  0  0  0  0
   10.8649  -18.5692   20.5715 C   0  0  0  0  0  0  0  0  0  0  0  0
   10.0793  -17.2708   20.3389 C   0  0  2  0  0  0  0  0  0  0  0  0
   10.8339  -16.4555   19.3778 N   0  0  0  0  0  0  0  0  0  0  0  0
   10.0107  -16.5136   21.6080 C   0  0  0  0  0  0  0  0  0  0  0  0
   11.0519  -16.0196   22.0875 O   0  0  0  0  0  0  0  0  0  0  0  0
    8.7779  -16.3250   22.3124 N   0  0  0  0  0  0  0  0  0  0  0  0
    8.8208  -15.7312   23.6136 C   0  0  1  0  0  0  0  0  0  0  0  0
    7.3937  -15.3446   23.9627 C   0  0  0  0  0  0  0  0  0  0  0  0
    7.2996  -14.5279   25.1947 C   0  0  0  0  0  0  0  0  0  0  0  0
    6.1411  -13.9320   25.6952 C   0  0  0  0  0  0  0  0  0  0  0  0
    6.4533  -13.2737   26.8199 N   0  0  0  0  0  0  0  0  0  0  0  0
    7.7625  -13.4271   27.0544 C   0  0  0  0  0  0  0  0  0  0  0  0
    8.5675  -12.9525   28.0752 C   0  0  0  0  0  0  0  0  0  0  0  0
    9.9064  -13.2554   28.0926 C   0  0  0  0  0  0  0  0  0  0  0  0
   10.4744  -14.0229   27.1166 C   0  0  0  0  0  0  0  0  0  0  0  0
    9.6803  -14.4971   26.1001 C   0  0  0  0  0  0  0  0  0  0  0  0
    8.3300  -14.2131   26.0493 C   0  0  0  0  0  0  0  0  0  0  0  0
    9.3713  -16.6936   24.5984 C   0  0  0  0  0  0  0  0  0  0  0  0
    8.7770  -17.8171   24.6675 O   0  0  0  0  0  0  0  0  0  0  0  0
   15.0327  -18.6614   25.4304 N   0  0  0  0  0  0  0  0  0  0  0  0
   14.0904  -18.4722   24.3746 C   0  0  0  0  0  0  0  0  0  0  0  0
   14.5100  -18.5770   23.1717 O   0  0  0  0  0  0  0  0  0  0  0  0
   12.6775  -18.1733   24.6483 C   0  0  0  0  0  0  0  0  0  0  0  0
   12.4233  -17.6982   26.0263 C   0  0  0  0  0  0  0  0  0  0  0  0
   10.9888  -17.4694   26.3410 C   0  0  2  0  0  0  0  0  0  0  0  0
   10.4804  -16.4155   25.4197 N   0  0  0  0  0  0  0  0  0  0  0  0
   10.6207  -17.0534   27.6783 C   0  0  0  0  0  0  0  0  0  0  0  0
   10.1370  -15.8989   27.8966 O   0  0  0  0  0  0  0  0  0  0  0  0
   10.7507  -17.8672   28.8198 O   0  0  0  0  0  0  0  0  0  0  0  0
  2  1  1  0
  3  2  2  0
  4  5  1  0
  4  2  1  0
  5  6  1  6
  7  5  1  0
  7  8  2  0
  9  7  1  0
 10  9  1  0
 10 11  1  1
 12 11  1  0
 12 13  2  0
 14 13  1  0
 15 20  2  0
 15 14  1  0
 16 15  1  0
 17 18  1  0
 17 16  2  0
 18 19  2  0
 19 20  1  0
 20 12  1  0
 21 10  1  0
 22 21  2  0
 23 24  1  0
 24 26  1  0
 25 24  2  0
 27 26  1  0
 28 27  1  1
 28 29  1  0
 28 30  1  0
 29 21  1  0
 30 32  1  0
 31 30  2  0
M  END
$$$$
