NWQ.pdb
     RDKit          3D

 32 33  0  0  1  0  0  0  0  0999 V2000
    8.5292  -12.5464   17.9324 N   0  0  0  0  0  0  0  0  0  0  0  0
    7.9065  -13.4917   18.7930 C   0  0  0  0  0  0  0  0  0  0  0  0
    7.0736  -14.2954   18.3054 O   0  0  0  0  0  0  0  0  0  0  0  0
    8.1947  -13.5712   20.2348 C   0  0  0  0  0  0  0  0  0  0  0  0
    8.7995  -14.9597   20.4865 C   0  0  2  0  0  0  0  0  0  0  0  0
    7.7109  -15.9434   20.4141 N   0  0  0  0  0  0  0  0  0  0  0  0
    9.3505  -15.0053   21.8587 C   0  0  0  0  0  0  0  0  0  0  0  0
   10.3423  -14.3047   22.1477 O   0  0  0  0  0  0  0  0  0  0  0  0
    8.7788  -15.8334   22.8779 N   0  0  0  0  0  0  0  0  0  0  0  0
    9.4308  -15.8959   24.1501 C   0  0  1  0  0  0  0  0  0  0  0  0
    8.3693  -16.2861   25.1644 C   0  0  0  0  0  0  0  0  0  0  0  0
    7.3235  -15.2514   25.3358 C   0  0  0  0  0  0  0  0  0  0  0  0
    5.9603  -15.4163   25.0865 C   0  0  0  0  0  0  0  0  0  0  0  0
    5.3366  -14.2601   25.3513 N   0  0  0  0  0  0  0  0  0  0  0  0
    6.2477  -13.3676   25.7587 C   0  0  0  0  0  0  0  0  0  0  0  0
    6.1187  -12.0458   26.1475 C   0  0  0  0  0  0  0  0  0  0  0  0
    7.2260  -11.3302   26.5302 C   0  0  0  0  0  0  0  0  0  0  0  0
    8.4693  -11.8944   26.5381 C   0  0  0  0  0  0  0  0  0  0  0  0
    8.6041  -13.2067   26.1529 C   0  0  0  0  0  0  0  0  0  0  0  0
    7.5134  -13.9577   25.7616 C   0  0  0  0  0  0  0  0  0  0  0  0
   10.5294  -16.8912   24.1147 C   0  0  0  0  0  0  0  0  0  0  0  0
   10.5295  -17.6817   23.1171 O   0  0  0  0  0  0  0  0  0  0  0  0
   15.8250  -18.1674   22.5107 N   0  0  0  0  0  0  0  0  0  0  0  0
   15.4732  -16.8751   23.0055 C   0  0  0  0  0  0  0  0  0  0  0  0
   16.3134  -15.9246   22.8479 O   0  0  0  0  0  0  0  0  0  0  0  0
   14.1856  -16.6298   23.6706 C   0  0  0  0  0  0  0  0  0  0  0  0
   13.2882  -17.8060   23.6875 C   0  0  0  0  0  0  0  0  0  0  0  0
   12.5856  -18.0224   24.9793 C   0  0  2  0  0  0  0  0  0  0  0  0
   11.5267  -16.9828   25.1044 N   0  0  0  0  0  0  0  0  0  0  0  0
   13.3479  -17.9772   26.2097 C   0  0  0  0  0  0  0  0  0  0  0  0
   14.2784  -18.8123   26.4363 O   0  0  0  0  0  0  0  0  0  0  0  0
   13.1419  -17.0283   27.2292 O   0  0  0  0  0  0  0  0  0  0  0  0
  2  1  1  0
  3  2  2  0
  4  5  1  0
  4  2  1  0
  5  6  1  1
  7  5  1  0
  7  8  2  0
  9  7  1  0
 10  9  1  0
 10 11  1  1
 12 11  1  0
 12 13  2  0
 14 13  1  0
 15 20  2  0
 15 14  1  0
 16 15  1  0
 17 18  1  0
 17 16  2  0
 18 19  2  0
 19 20  1  0
 20 12  1  0
 21 10  1  0
 22 21  2  0
 23 24  1  0
 24 26  1  0
 25 24  2  0
 27 26  1  0
 28 27  1  6
 28 29  1  0
 28 30  1  0
 29 21  1  0
 30 32  1  0
 31 30  2  0
M  END
$$$$
