NWQ.pdb
     RDKit          3D

 32 33  0  0  1  0  0  0  0  0999 V2000
    6.8585  -13.5269   18.3883 N   0  0  0  0  0  0  0  0  0  0  0  0
    8.1015  -14.1418   18.7028 C   0  0  0  0  0  0  0  0  0  0  0  0
    8.7215  -14.7494   17.7952 O   0  0  0  0  0  0  0  0  0  0  0  0
    8.6965  -14.0987   20.0490 C   0  0  0  0  0  0  0  0  0  0  0  0
    8.7168  -15.5437   20.5673 C   0  0  2  0  0  0  0  0  0  0  0  0
    7.3282  -16.0192   20.6257 N   0  0  0  0  0  0  0  0  0  0  0  0
    9.2497  -15.5545   21.9474 C   0  0  0  0  0  0  0  0  0  0  0  0
   10.3298  -14.9801   22.1950 O   0  0  0  0  0  0  0  0  0  0  0  0
    8.5615  -16.2073   23.0205 N   0  0  0  0  0  0  0  0  0  0  0  0
    9.1982  -16.2691   24.3005 C   0  0  1  0  0  0  0  0  0  0  0  0
    8.0905  -16.4030   25.3315 C   0  0  0  0  0  0  0  0  0  0  0  0
    7.1535  -15.2560   25.3277 C   0  0  0  0  0  0  0  0  0  0  0  0
    5.8429  -15.2713   24.8485 C   0  0  0  0  0  0  0  0  0  0  0  0
    5.3169  -14.0492   25.0094 N   0  0  0  0  0  0  0  0  0  0  0  0
    6.2397  -13.2584   25.5713 C   0  0  0  0  0  0  0  0  0  0  0  0
    6.1955  -11.9252   25.9397 C   0  0  0  0  0  0  0  0  0  0  0  0
    7.2946  -11.3323   26.5098 C   0  0  0  0  0  0  0  0  0  0  0  0
    8.4472  -12.0314   26.7266 C   0  0  0  0  0  0  0  0  0  0  0  0
    8.4976  -13.3557   26.3627 C   0  0  0  0  0  0  0  0  0  0  0  0
    7.4122  -13.9858   25.7869 C   0  0  0  0  0  0  0  0  0  0  0  0
   10.1250  -17.4252   24.3568 C   0  0  0  0  0  0  0  0  0  0  0  0
   10.1356  -18.1779   23.3304 O   0  0  0  0  0  0  0  0  0  0  0  0
   16.2186  -16.7094   24.2028 N   0  0  0  0  0  0  0  0  0  0  0  0
   15.3000  -17.3971   23.3532 C   0  0  0  0  0  0  0  0  0  0  0  0
   15.3592  -17.1674   22.0971 O   0  0  0  0  0  0  0  0  0  0  0  0
   14.3169  -18.3477   23.8921 C   0  0  0  0  0  0  0  0  0  0  0  0
   13.0018  -17.7406   24.1937 C   0  0  0  0  0  0  0  0  0  0  0  0
   12.2268  -18.4483   25.2462 C   0  0  2  0  0  0  0  0  0  0  0  0
   10.9560  -17.7016   25.4592 N   0  0  0  0  0  0  0  0  0  0  0  0
   12.8195  -18.6253   26.5555 C   0  0  0  0  0  0  0  0  0  0  0  0
   12.4559  -17.9123   27.5423 O   0  0  0  0  0  0  0  0  0  0  0  0
   13.8123  -19.5799   26.8478 O   0  0  0  0  0  0  0  0  0  0  0  0
  2  1  1  0
  3  2  2  0
  4  5  1  0
  4  2  1  0
  5  6  1  1
  7  5  1  0
  7  8  2  0
  9  7  1  0
 10  9  1  0
 10 11  1  1
 12 11  1  0
 12 13  2  0
 14 13  1  0
 15 20  2  0
 15 14  1  0
 16 15  1  0
 17 18  1  0
 17 16  2  0
 18 19  2  0
 19 20  1  0
 20 12  1  0
 21 10  1  0
 22 21  2  0
 23 24  1  0
 24 26  1  0
 25 24  2  0
 27 26  1  0
 28 27  1  6
 28 29  1  0
 28 30  1  0
 29 21  1  0
 30 32  1  0
 31 30  2  0
M  END
$$$$
