NWQ.pdb
     RDKit          3D

 32 33  0  0  1  0  0  0  0  0999 V2000
    7.4744  -19.3868   17.2547 N   0  0  0  0  0  0  0  0  0  0  0  0
    8.7689  -18.9640   17.6639 C   0  0  0  0  0  0  0  0  0  0  0  0
    9.7180  -19.0465   16.8454 O   0  0  0  0  0  0  0  0  0  0  0  0
    9.0483  -18.4324   19.0083 C   0  0  0  0  0  0  0  0  0  0  0  0
    8.5897  -16.9672   19.0059 C   0  0  2  0  0  0  0  0  0  0  0  0
    9.4183  -16.2390   18.0359 N   0  0  0  0  0  0  0  0  0  0  0  0
    8.8441  -16.3791   20.3393 C   0  0  0  0  0  0  0  0  0  0  0  0
   10.0192  -16.1836   20.7121 O   0  0  0  0  0  0  0  0  0  0  0  0
    7.7777  -16.0216   21.2261 N   0  0  0  0  0  0  0  0  0  0  0  0
    8.1047  -15.6422   22.5666 C   0  0  1  0  0  0  0  0  0  0  0  0
    6.8167  -15.1533   23.2068 C   0  0  0  0  0  0  0  0  0  0  0  0
    6.9735  -14.8180   24.6409 C   0  0  0  0  0  0  0  0  0  0  0  0
    7.0210  -15.7317   25.6947 C   0  0  0  0  0  0  0  0  0  0  0  0
    7.1648  -15.0521   26.8407 N   0  0  0  0  0  0  0  0  0  0  0  0
    7.2106  -13.7442   26.5581 C   0  0  0  0  0  0  0  0  0  0  0  0
    7.3486  -12.6385   27.3787 C   0  0  0  0  0  0  0  0  0  0  0  0
    7.3689  -11.3776   26.8362 C   0  0  0  0  0  0  0  0  0  0  0  0
    7.2550  -11.1809   25.4899 C   0  0  0  0  0  0  0  0  0  0  0  0
    7.1176  -12.2749   24.6696 C   0  0  0  0  0  0  0  0  0  0  0  0
    7.0929  -13.5581   25.1790 C   0  0  0  0  0  0  0  0  0  0  0  0
    8.6640  -16.8001   23.3051 C   0  0  0  0  0  0  0  0  0  0  0  0
    8.3743  -17.9481   22.8380 O   0  0  0  0  0  0  0  0  0  0  0  0
   12.9508  -16.8289   20.8620 N   0  0  0  0  0  0  0  0  0  0  0  0
   13.6413  -17.3101   22.0154 C   0  0  0  0  0  0  0  0  0  0  0  0
   14.8644  -17.6562   21.8799 O   0  0  0  0  0  0  0  0  0  0  0  0
   12.9806  -17.4027   23.3252 C   0  0  0  0  0  0  0  0  0  0  0  0
   11.5741  -16.9434   23.3187 C   0  0  0  0  0  0  0  0  0  0  0  0
   10.7840  -17.3719   24.5025 C   0  0  2  0  0  0  0  0  0  0  0  0
    9.4696  -16.6735   24.4529 N   0  0  0  0  0  0  0  0  0  0  0  0
   11.3200  -17.1371   25.8271 C   0  0  0  0  0  0  0  0  0  0  0  0
   10.7993  -16.2759   26.6027 O   0  0  0  0  0  0  0  0  0  0  0  0
   12.4241  -17.8269   26.3633 O   0  0  0  0  0  0  0  0  0  0  0  0
  2  1  1  0
  3  2  2  0
  4  5  1  0
  4  2  1  0
  5  6  1  6
  7  5  1  0
  7  8  2  0
  9  7  1  0
 10  9  1  0
 10 11  1  1
 12 11  1  0
 12 13  2  0
 14 13  1  0
 15 20  2  0
 15 14  1  0
 16 15  1  0
 17 18  1  0
 17 16  2  0
 18 19  2  0
 19 20  1  0
 20 12  1  0
 21 10  1  0
 22 21  2  0
 23 24  1  0
 24 26  1  0
 25 24  2  0
 27 26  1  0
 28 27  1  6
 28 29  1  0
 28 30  1  0
 29 21  1  0
 30 32  1  0
 31 30  2  0
M  END
$$$$
