YRW.pdb
     RDKit          3D

 38 40  0  0  1  0  0  0  0  0999 V2000
    4.0870  -23.7990   24.6464 O   0  0  0  0  0  0  0  0  0  0  0  0
    4.8205  -22.6617   24.3331 C   0  0  0  0  0  0  0  0  0  0  0  0
    6.1685  -22.6536   24.6491 C   0  0  0  0  0  0  0  0  0  0  0  0
    6.9687  -21.5672   24.3732 C   0  0  0  0  0  0  0  0  0  0  0  0
    6.4456  -20.4393   23.7661 C   0  0  0  0  0  0  0  0  0  0  0  0
    7.3619  -19.3210   23.5022 C   0  0  0  0  0  0  0  0  0  0  0  0
    7.4741  -19.1035   22.0075 C   0  0  2  0  0  0  0  0  0  0  0  0
    8.0109  -20.3014   21.4289 N   0  0  0  0  0  0  0  0  0  0  0  0
    8.3887  -17.9560   21.7192 C   0  0  0  0  0  0  0  0  0  0  0  0
    9.5925  -18.2073   21.4808 O   0  0  0  0  0  0  0  0  0  0  0  0
    5.1078  -20.4506   23.4540 C   0  0  0  0  0  0  0  0  0  0  0  0
    4.3042  -21.5434   23.7318 C   0  0  0  0  0  0  0  0  0  0  0  0
    8.7968  -12.7266   16.2961 N   0  0  0  0  0  0  0  0  0  0  0  0
    7.9219  -13.8355   16.2315 C   0  0  0  0  0  0  0  0  0  0  0  0
    7.6728  -14.3504   15.0763 N   0  0  0  0  0  0  0  0  0  0  0  0
    7.3509  -14.3378   17.4255 N   0  0  0  0  0  0  0  0  0  0  0  0
    7.9466  -13.9860   18.6882 C   0  0  0  0  0  0  0  0  0  0  0  0
    7.1256  -14.6506   19.7871 C   0  0  0  0  0  0  0  0  0  0  0  0
    7.6425  -14.3106   21.1439 C   0  0  0  0  0  0  0  0  0  0  0  0
    8.5797  -15.4121   21.6450 C   0  0  2  0  0  0  0  0  0  0  0  0
    7.8734  -16.6495   21.7241 N   0  0  0  0  0  0  0  0  0  0  0  0
    9.2007  -15.0351   22.9160 C   0  0  0  0  0  0  0  0  0  0  0  0
    9.4616  -13.8333   23.1604 O   0  0  0  0  0  0  0  0  0  0  0  0
    7.1393  -15.2290   14.9386 N   0  0  0  0  0  0  0  0  0  0  0  0
    9.5167  -16.0109   23.8870 C   0  0  1  0  0  0  0  0  0  0  0  0
   10.4785  -15.8147   24.9578 C   0  0  0  0  0  0  0  0  0  0  0  0
   10.1500  -14.5924   25.7274 C   0  0  0  0  0  0  0  0  0  0  0  0
    8.6994  -14.5042   25.9741 C   0  0  0  0  0  0  0  0  0  0  0  0
    7.7565  -15.5052   26.0209 N   0  0  0  0  0  0  0  0  0  0  0  0
    6.5591  -14.9679   26.2731 C   0  0  0  0  0  0  0  0  0  0  0  0
    6.6981  -13.6400   26.3918 C   0  0  0  0  0  0  0  0  0  0  0  0
    5.7590  -12.6401   26.6513 C   0  0  0  0  0  0  0  0  0  0  0  0
    6.1923  -11.3506   26.7184 C   0  0  0  0  0  0  0  0  0  0  0  0
    7.5172  -11.0162   26.5384 C   0  0  0  0  0  0  0  0  0  0  0  0
    8.4488  -12.0175   26.2799 C   0  0  0  0  0  0  0  0  0  0  0  0
    8.0190  -13.3315   26.2097 C   0  0  0  0  0  0  0  0  0  0  0  0
   10.5688  -17.0126   25.8446 O   0  0  0  0  0  0  0  0  0  0  0  0
    9.7605  -18.1200   25.7085 O   0  0  0  0  0  0  0  0  0  0  0  0
  2  1  1  0
  3  2  2  0
  4  3  1  0
  5 11  1  0
  5  4  2  0
  6  7  1  0
  6  5  1  0
  7  8  1  6
  9  7  1  0
 10  9  2  0
 11 12  2  0
 12  2  1  0
 13 14  1  0
 14 15  2  0
 14 16  1  0
 16 17  1  0
 17 18  1  0
 18 19  1  0
 20 19  1  1
 20 22  1  0
 20 21  1  0
 21  9  1  0
 22 23  2  0
 24 25  1  0
 24 22  1  0
 25 26  1  6
 27 26  1  0
 27 28  2  0
 29 28  1  0
 30 29  1  0
 31 30  2  0
 32 31  1  0
 33 32  2  0
 33 34  1  0
 34 35  2  0
 35 30  1  0
 35 27  1  0
 36 25  1  0
 36 37  1  0
 38 36  2  0
M  END
$$$$
