YRW.pdb
     RDKit          3D

 38 40  0  0  1  0  0  0  0  0999 V2000
    9.5707  -24.5441   19.6072 O   0  0  0  0  0  0  0  0  0  0  0  0
    9.7399  -23.2954   20.1919 C   0  0  0  0  0  0  0  0  0  0  0  0
    9.9095  -22.2062   19.3541 C   0  0  0  0  0  0  0  0  0  0  0  0
   10.0834  -20.9332   19.8504 C   0  0  0  0  0  0  0  0  0  0  0  0
   10.0943  -20.7010   21.2143 C   0  0  0  0  0  0  0  0  0  0  0  0
   10.2833  -19.3159   21.6678 C   0  0  0  0  0  0  0  0  0  0  0  0
   10.2602  -18.3866   20.4719 C   0  0  2  0  0  0  0  0  0  0  0  0
   11.3572  -18.7422   19.6187 N   0  0  0  0  0  0  0  0  0  0  0  0
   10.4130  -16.9673   20.9171 C   0  0  0  0  0  0  0  0  0  0  0  0
   11.5599  -16.5647   21.2200 O   0  0  0  0  0  0  0  0  0  0  0  0
    9.9258  -21.7839   22.0426 C   0  0  0  0  0  0  0  0  0  0  0  0
    9.7510  -23.0632   21.5427 C   0  0  0  0  0  0  0  0  0  0  0  0
    8.3375  -12.6201   16.5782 N   0  0  0  0  0  0  0  0  0  0  0  0
    8.3116  -14.0106   16.8337 C   0  0  0  0  0  0  0  0  0  0  0  0
    9.3128  -14.7221   16.4425 N   0  0  0  0  0  0  0  0  0  0  0  0
    7.1967  -14.5714   17.5016 N   0  0  0  0  0  0  0  0  0  0  0  0
    6.9688  -14.2390   18.8838 C   0  0  0  0  0  0  0  0  0  0  0  0
    8.3266  -14.1766   19.5736 C   0  0  0  0  0  0  0  0  0  0  0  0
    8.1890  -13.9807   21.0454 C   0  0  0  0  0  0  0  0  0  0  0  0
    9.0545  -14.9944   21.7979 C   0  0  2  0  0  0  0  0  0  0  0  0
    9.2787  -16.1414   20.9791 N   0  0  0  0  0  0  0  0  0  0  0  0
    8.4609  -15.3330   23.0925 C   0  0  0  0  0  0  0  0  0  0  0  0
    7.3302  -14.8903   23.4049 O   0  0  0  0  0  0  0  0  0  0  0  0
    9.4043  -15.7391   16.6237 N   0  0  0  0  0  0  0  0  0  0  0  0
    9.1450  -16.1600   24.0106 C   0  0  1  0  0  0  0  0  0  0  0  0
    9.8238  -15.6727   25.1988 C   0  0  0  0  0  0  0  0  0  0  0  0
    8.9426  -15.7972   26.3829 C   0  0  0  0  0  0  0  0  0  0  0  0
    7.6991  -15.0291   26.1920 C   0  0  0  0  0  0  0  0  0  0  0  0
    6.4490  -15.4653   25.8174 N   0  0  0  0  0  0  0  0  0  0  0  0
    5.6167  -14.4207   25.7687 C   0  0  0  0  0  0  0  0  0  0  0  0
    6.2940  -13.3131   26.1024 C   0  0  0  0  0  0  0  0  0  0  0  0
    5.8829  -11.9826   26.2007 C   0  0  0  0  0  0  0  0  0  0  0  0
    6.8037  -11.0490   26.5689 C   0  0  0  0  0  0  0  0  0  0  0  0
    8.1125  -11.3838   26.8422 C   0  0  0  0  0  0  0  0  0  0  0  0
    8.5164  -12.7120   26.7423 C   0  0  0  0  0  0  0  0  0  0  0  0
    7.5884  -13.6689   26.3689 C   0  0  0  0  0  0  0  0  0  0  0  0
   11.1290  -16.3659   25.4120 O   0  0  0  0  0  0  0  0  0  0  0  0
   12.0228  -16.0133   26.3994 O   0  0  0  0  0  0  0  0  0  0  0  0
  2  1  1  0
  3  2  2  0
  4  3  1  0
  5 11  1  0
  5  4  2  0
  6  7  1  0
  6  5  1  0
  7  8  1  6
  9  7  1  0
 10  9  2  0
 11 12  2  0
 12  2  1  0
 13 14  1  0
 14 15  2  0
 14 16  1  0
 16 17  1  0
 17 18  1  0
 18 19  1  0
 20 19  1  6
 20 22  1  0
 20 21  1  0
 21  9  1  0
 22 23  2  0
 24 25  1  0
 24 22  1  0
 25 26  1  1
 27 26  1  0
 27 28  2  0
 29 28  1  0
 30 29  1  0
 31 30  2  0
 32 31  1  0
 33 32  2  0
 33 34  1  0
 34 35  2  0
 35 30  1  0
 35 27  1  0
 36 25  1  0
 36 37  1  0
 38 36  2  0
M  END
$$$$
