YRW.pdb
     RDKit          3D

 38 40  0  0  1  0  0  0  0  0999 V2000
    8.8826  -21.0436   29.9549 O   0  0  0  0  0  0  0  0  0  0  0  0
    8.2264  -20.4908   28.8625 C   0  0  0  0  0  0  0  0  0  0  0  0
    8.8036  -19.3920   28.2490 C   0  0  0  0  0  0  0  0  0  0  0  0
    8.2198  -18.7829   27.1604 C   0  0  0  0  0  0  0  0  0  0  0  0
    7.0271  -19.2543   26.6412 C   0  0  0  0  0  0  0  0  0  0  0  0
    6.4665  -18.5531   25.4776 C   0  0  0  0  0  0  0  0  0  0  0  0
    6.4264  -19.4956   24.2926 C   0  0  2  0  0  0  0  0  0  0  0  0
    6.9469  -20.7618   24.7212 N   0  0  0  0  0  0  0  0  0  0  0  0
    7.2678  -18.9608   23.1780 C   0  0  0  0  0  0  0  0  0  0  0  0
    8.2840  -19.6117   22.8419 O   0  0  0  0  0  0  0  0  0  0  0  0
    6.4571  -20.3446   27.2524 C   0  0  0  0  0  0  0  0  0  0  0  0
    7.0449  -20.9563   28.3467 C   0  0  0  0  0  0  0  0  0  0  0  0
    8.1830  -13.7488   16.5099 N   0  0  0  0  0  0  0  0  0  0  0  0
    8.3374  -13.3927   17.8695 C   0  0  0  0  0  0  0  0  0  0  0  0
    7.7307  -12.3390   18.2975 N   0  0  0  0  0  0  0  0  0  0  0  0
    9.1476  -14.1953   18.7081 N   0  0  0  0  0  0  0  0  0  0  0  0
    8.6247  -14.6327   19.9764 C   0  0  0  0  0  0  0  0  0  0  0  0
    7.3770  -15.4633   19.6996 C   0  0  0  0  0  0  0  0  0  0  0  0
    6.7419  -15.9416   20.9612 C   0  0  0  0  0  0  0  0  0  0  0  0
    7.6608  -16.9381   21.6722 C   0  0  2  0  0  0  0  0  0  0  0  0
    6.8947  -17.7606   22.5511 N   0  0  0  0  0  0  0  0  0  0  0  0
    8.7548  -16.2471   22.3569 C   0  0  0  0  0  0  0  0  0  0  0  0
    9.3253  -15.2719   21.8133 O   0  0  0  0  0  0  0  0  0  0  0  0
    7.7659  -12.0117   19.2810 N   0  0  0  0  0  0  0  0  0  0  0  0
    9.1876  -16.6620   23.6357 C   0  0  1  0  0  0  0  0  0  0  0  0
   10.1578  -15.9418   24.4420 C   0  0  0  0  0  0  0  0  0  0  0  0
    9.6392  -14.6001   24.7953 C   0  0  0  0  0  0  0  0  0  0  0  0
    8.3653  -14.7087   25.5290 C   0  0  0  0  0  0  0  0  0  0  0  0
    7.5584  -15.8059   25.7251 N   0  0  0  0  0  0  0  0  0  0  0  0
    6.4972  -15.4449   26.4529 C   0  0  0  0  0  0  0  0  0  0  0  0
    6.5922  -14.1383   26.7363 C   0  0  0  0  0  0  0  0  0  0  0  0
    5.7482  -13.2941   27.4602 C   0  0  0  0  0  0  0  0  0  0  0  0
    6.1024  -11.9853   27.5899 C   0  0  0  0  0  0  0  0  0  0  0  0
    7.2579  -11.4836   27.0306 C   0  0  0  0  0  0  0  0  0  0  0  0
    8.0952  -12.3302   26.3099 C   0  0  0  0  0  0  0  0  0  0  0  0
    7.7447  -13.6623   26.1721 C   0  0  0  0  0  0  0  0  0  0  0  0
   10.5481  -16.7158   25.6578 O   0  0  0  0  0  0  0  0  0  0  0  0
   11.6406  -16.4042   26.4372 O   0  0  0  0  0  0  0  0  0  0  0  0
  2  1  1  0
  3  2  2  0
  4  3  1  0
  5 11  1  0
  5  4  2  0
  6  7  1  0
  6  5  1  0
  7  8  1  1
  9  7  1  0
 10  9  2  0
 11 12  2  0
 12  2  1  0
 13 14  1  0
 14 15  2  0
 14 16  1  0
 16 17  1  0
 17 18  1  0
 18 19  1  0
 20 19  1  1
 20 22  1  0
 20 21  1  0
 21  9  1  0
 22 23  2  0
 24 25  1  0
 24 22  1  0
 25 26  1  1
 27 26  1  0
 27 28  2  0
 29 28  1  0
 30 29  1  0
 31 30  2  0
 32 31  1  0
 33 32  2  0
 33 34  1  0
 34 35  2  0
 35 30  1  0
 35 27  1  0
 36 25  1  0
 36 37  1  0
 38 36  2  0
M  END
$$$$
