YRW.pdb
     RDKit          3D

 38 40  0  0  1  0  0  0  0  0999 V2000
    6.7863  -25.3373   20.5564 O   0  0  0  0  0  0  0  0  0  0  0  0
    7.3078  -24.0713   20.7905 C   0  0  0  0  0  0  0  0  0  0  0  0
    8.6845  -23.9408   20.8580 C   0  0  0  0  0  0  0  0  0  0  0  0
    9.2844  -22.7223   21.0864 C   0  0  0  0  0  0  0  0  0  0  0  0
    8.5229  -21.5798   21.2572 C   0  0  0  0  0  0  0  0  0  0  0  0
    9.2347  -20.3163   21.4953 C   0  0  0  0  0  0  0  0  0  0  0  0
    9.0579  -19.4051   20.2983 C   0  0  2  0  0  0  0  0  0  0  0  0
    9.7726  -19.9836   19.1972 N   0  0  0  0  0  0  0  0  0  0  0  0
    9.6110  -18.0480   20.5955 C   0  0  0  0  0  0  0  0  0  0  0  0
   10.8274  -17.8459   20.3747 O   0  0  0  0  0  0  0  0  0  0  0  0
    7.1573  -21.7128   21.1896 C   0  0  0  0  0  0  0  0  0  0  0  0
    6.5552  -22.9383   20.9600 C   0  0  0  0  0  0  0  0  0  0  0  0
    8.8551  -15.0875   17.0100 N   0  0  0  0  0  0  0  0  0  0  0  0
    8.0802  -13.9062   17.0681 C   0  0  0  0  0  0  0  0  0  0  0  0
    8.2118  -13.0423   16.1205 N   0  0  0  0  0  0  0  0  0  0  0  0
    7.1957  -13.7108   18.1559 N   0  0  0  0  0  0  0  0  0  0  0  0
    7.6932  -13.1016   19.3619 C   0  0  0  0  0  0  0  0  0  0  0  0
    8.6960  -14.0651   19.9861 C   0  0  0  0  0  0  0  0  0  0  0  0
    8.1472  -14.7155   21.2106 C   0  0  0  0  0  0  0  0  0  0  0  0
    9.1010  -15.8063   21.7037 C   0  0  2  0  0  0  0  0  0  0  0  0
    8.7580  -17.0555   21.1054 N   0  0  0  0  0  0  0  0  0  0  0  0
    9.1176  -15.8673   23.1663 C   0  0  0  0  0  0  0  0  0  0  0  0
    8.1510  -16.3668   23.7894 O   0  0  0  0  0  0  0  0  0  0  0  0
    7.7296  -12.1242   16.1049 N   0  0  0  0  0  0  0  0  0  0  0  0
   10.2155  -15.3679   23.9011 C   0  0  1  0  0  0  0  0  0  0  0  0
   10.3767  -15.5264   25.3360 C   0  0  0  0  0  0  0  0  0  0  0  0
    9.8615  -14.3335   26.0470 C   0  0  0  0  0  0  0  0  0  0  0  0
    8.3901  -14.2787   25.9774 C   0  0  0  0  0  0  0  0  0  0  0  0
    7.4844  -15.2946   25.7757 N   0  0  0  0  0  0  0  0  0  0  0  0
    6.2478  -14.7878   25.7857 C   0  0  0  0  0  0  0  0  0  0  0  0
    6.3249  -13.4651   25.9891 C   0  0  0  0  0  0  0  0  0  0  0  0
    5.3275  -12.4928   26.0822 C   0  0  0  0  0  0  0  0  0  0  0  0
    5.7041  -11.2016   26.2972 C   0  0  0  0  0  0  0  0  0  0  0  0
    7.0280  -10.8394   26.4229 C   0  0  0  0  0  0  0  0  0  0  0  0
    8.0179  -11.8133   26.3291 C   0  0  0  0  0  0  0  0  0  0  0  0
    7.6460  -13.1288   26.1107 C   0  0  0  0  0  0  0  0  0  0  0  0
    9.7307  -16.7792   25.8287 O   0  0  0  0  0  0  0  0  0  0  0  0
    9.8543  -17.2387   27.1217 O   0  0  0  0  0  0  0  0  0  0  0  0
  2  1  1  0
  3  2  2  0
  4  3  1  0
  5 11  1  0
  5  4  2  0
  6  7  1  0
  6  5  1  0
  7  8  1  6
  9  7  1  0
 10  9  2  0
 11 12  2  0
 12  2  1  0
 13 14  1  0
 14 15  2  0
 14 16  1  0
 16 17  1  0
 17 18  1  0
 18 19  1  0
 20 19  1  1
 20 22  1  0
 20 21  1  0
 21  9  1  0
 22 23  2  0
 24 25  1  0
 24 22  1  0
 25 26  1  1
 27 26  1  0
 27 28  2  0
 29 28  1  0
 30 29  1  0
 31 30  2  0
 32 31  1  0
 33 32  2  0
 33 34  1  0
 34 35  2  0
 35 30  1  0
 35 27  1  0
 36 25  1  0
 36 37  1  0
 38 36  2  0
M  END
$$$$
