YRW.pdb
     RDKit          3D

 38 40  0  0  1  0  0  0  0  0999 V2000
    8.8615  -19.7105   29.4838 O   0  0  0  0  0  0  0  0  0  0  0  0
    8.0233  -19.5463   28.3883 C   0  0  0  0  0  0  0  0  0  0  0  0
    7.3232  -20.6525   27.9377 C   0  0  0  0  0  0  0  0  0  0  0  0
    6.4709  -20.5777   26.8584 C   0  0  0  0  0  0  0  0  0  0  0  0
    6.2860  -19.3836   26.1845 C   0  0  0  0  0  0  0  0  0  0  0  0
    5.3595  -19.3818   25.0437 C   0  0  0  0  0  0  0  0  0  0  0  0
    6.0568  -19.9548   23.8273 C   0  0  2  0  0  0  0  0  0  0  0  0
    6.6329  -21.2134   24.2041 N   0  0  0  0  0  0  0  0  0  0  0  0
    7.1367  -19.0288   23.3665 C   0  0  0  0  0  0  0  0  0  0  0  0
    8.3254  -19.3446   23.6047 O   0  0  0  0  0  0  0  0  0  0  0  0
    6.9822  -18.2880   26.6342 C   0  0  0  0  0  0  0  0  0  0  0  0
    7.8388  -18.3643   27.7193 C   0  0  0  0  0  0  0  0  0  0  0  0
    8.0286  -12.1702   17.7615 N   0  0  0  0  0  0  0  0  0  0  0  0
    8.0647  -13.5514   17.4609 C   0  0  0  0  0  0  0  0  0  0  0  0
    8.5866  -13.9193   16.3412 N   0  0  0  0  0  0  0  0  0  0  0  0
    7.5291  -14.4765   18.3889 N   0  0  0  0  0  0  0  0  0  0  0  0
    7.0865  -14.0019   19.6742 C   0  0  0  0  0  0  0  0  0  0  0  0
    7.7843  -14.8383   20.7405 C   0  0  0  0  0  0  0  0  0  0  0  0
    6.8557  -15.8258   21.3619 C   0  0  0  0  0  0  0  0  0  0  0  0
    7.6273  -16.7676   22.2896 C   0  0  2  0  0  0  0  0  0  0  0  0
    6.7869  -17.8496   22.6884 N   0  0  0  0  0  0  0  0  0  0  0  0
    8.1879  -16.0393   23.4291 C   0  0  0  0  0  0  0  0  0  0  0  0
    7.4460  -15.3413   24.1602 O   0  0  0  0  0  0  0  0  0  0  0  0
    8.6272  -14.9042   16.0189 N   0  0  0  0  0  0  0  0  0  0  0  0
    9.5669  -16.1071   23.7265 C   0  0  1  0  0  0  0  0  0  0  0  0
   10.1963  -15.4175   24.8393 C   0  0  0  0  0  0  0  0  0  0  0  0
    9.6446  -15.9040   26.1250 C   0  0  0  0  0  0  0  0  0  0  0  0
    8.2459  -15.4695   26.2913 C   0  0  0  0  0  0  0  0  0  0  0  0
    7.0870  -16.2096   26.2411 N   0  0  0  0  0  0  0  0  0  0  0  0
    6.0421  -15.4021   26.4466 C   0  0  0  0  0  0  0  0  0  0  0  0
    6.4914  -14.1526   26.6296 C   0  0  0  0  0  0  0  0  0  0  0  0
    5.8084  -12.9604   26.8770 C   0  0  0  0  0  0  0  0  0  0  0  0
    6.5367  -11.8188   27.0239 C   0  0  0  0  0  0  0  0  0  0  0  0
    7.9122  -11.8148   26.9348 C   0  0  0  0  0  0  0  0  0  0  0  0
    8.5874  -13.0066   26.6879 C   0  0  0  0  0  0  0  0  0  0  0  0
    7.8568  -14.1726   26.5371 C   0  0  0  0  0  0  0  0  0  0  0  0
   11.6834  -15.5458   24.7979 O   0  0  0  0  0  0  0  0  0  0  0  0
   12.3590  -16.2244   23.8072 O   0  0  0  0  0  0  0  0  0  0  0  0
  2  1  1  0
  3  2  2  0
  4  3  1  0
  5 11  1  0
  5  4  2  0
  6  7  1  0
  6  5  1  0
  7  8  1  1
  9  7  1  0
 10  9  2  0
 11 12  2  0
 12  2  1  0
 13 14  1  0
 14 15  2  0
 14 16  1  0
 16 17  1  0
 17 18  1  0
 18 19  1  0
 20 19  1  6
 20 22  1  0
 20 21  1  0
 21  9  1  0
 22 23  2  0
 24 25  1  0
 24 22  1  0
 25 26  1  1
 27 26  1  0
 27 28  2  0
 29 28  1  0
 30 29  1  0
 31 30  2  0
 32 31  1  0
 33 32  2  0
 33 34  1  0
 34 35  2  0
 35 30  1  0
 35 27  1  0
 36 25  1  0
 36 37  1  0
 38 36  2  0
M  END
$$$$
