YRW.pdb
     RDKit          3D

 38 40  0  0  1  0  0  0  0  0999 V2000
   10.6901  -18.5727   29.4392 O   0  0  0  0  0  0  0  0  0  0  0  0
    9.6177  -18.7225   28.5691 C   0  0  0  0  0  0  0  0  0  0  0  0
    9.2125  -17.6145   27.8445 C   0  0  0  0  0  0  0  0  0  0  0  0
    8.1587  -17.6756   26.9599 C   0  0  0  0  0  0  0  0  0  0  0  0
    7.4654  -18.8571   26.7659 C   0  0  0  0  0  0  0  0  0  0  0  0
    6.3540  -18.8447   25.8045 C   0  0  0  0  0  0  0  0  0  0  0  0
    6.7375  -19.6502   24.5805 C   0  0  2  0  0  0  0  0  0  0  0  0
    7.4889  -20.7894   25.0227 N   0  0  0  0  0  0  0  0  0  0  0  0
    7.5778  -18.8238   23.6602 C   0  0  0  0  0  0  0  0  0  0  0  0
    8.7500  -19.2027   23.4325 O   0  0  0  0  0  0  0  0  0  0  0  0
    7.8701  -19.9546   27.4864 C   0  0  0  0  0  0  0  0  0  0  0  0
    8.9297  -19.8921   28.3755 C   0  0  0  0  0  0  0  0  0  0  0  0
    8.2782  -14.6539   16.7632 N   0  0  0  0  0  0  0  0  0  0  0  0
    8.3614  -13.7192   17.8209 C   0  0  0  0  0  0  0  0  0  0  0  0
    8.0634  -12.4896   17.5742 N   0  0  0  0  0  0  0  0  0  0  0  0
    8.7683  -14.1589   19.1034 N   0  0  0  0  0  0  0  0  0  0  0  0
    8.0422  -15.2269   19.7401 C   0  0  0  0  0  0  0  0  0  0  0  0
    7.2959  -14.6331   20.9292 C   0  0  0  0  0  0  0  0  0  0  0  0
    6.6310  -15.6887   21.7460 C   0  0  0  0  0  0  0  0  0  0  0  0
    7.6639  -16.7032   22.2427 C   0  0  2  0  0  0  0  0  0  0  0  0
    7.0311  -17.6640   23.0869 N   0  0  0  0  0  0  0  0  0  0  0  0
    8.7877  -16.0309   22.8970 C   0  0  0  0  0  0  0  0  0  0  0  0
    9.5023  -15.2244   22.2558 O   0  0  0  0  0  0  0  0  0  0  0  0
    8.0967  -11.7338   18.2835 N   0  0  0  0  0  0  0  0  0  0  0  0
    9.0885  -16.2752   24.2552 C   0  0  1  0  0  0  0  0  0  0  0  0
   10.1501  -15.6079   24.9884 C   0  0  0  0  0  0  0  0  0  0  0  0
    9.7286  -15.3509   26.3850 C   0  0  0  0  0  0  0  0  0  0  0  0
    8.3186  -14.9243   26.4352 C   0  0  0  0  0  0  0  0  0  0  0  0
    7.1721  -15.6849   26.4144 N   0  0  0  0  0  0  0  0  0  0  0  0
    6.1091  -14.8773   26.4781 C   0  0  0  0  0  0  0  0  0  0  0  0
    6.5346  -13.6077   26.5399 C   0  0  0  0  0  0  0  0  0  0  0  0
    5.8266  -12.4071   26.6188 C   0  0  0  0  0  0  0  0  0  0  0  0
    6.5336  -11.2441   26.6700 C   0  0  0  0  0  0  0  0  0  0  0  0
    7.9116  -11.2267   26.6459 C   0  0  0  0  0  0  0  0  0  0  0  0
    8.6118  -12.4270   26.5671 C   0  0  0  0  0  0  0  0  0  0  0  0
    7.9029  -13.6148   26.5146 C   0  0  0  0  0  0  0  0  0  0  0  0
   11.4272  -16.3798   24.9350 O   0  0  0  0  0  0  0  0  0  0  0  0
   11.5400  -17.6198   24.3452 O   0  0  0  0  0  0  0  0  0  0  0  0
  2  1  1  0
  3  2  2  0
  4  3  1  0
  5 11  1  0
  5  4  2  0
  6  7  1  0
  6  5  1  0
  7  8  1  1
  9  7  1  0
 10  9  2  0
 11 12  2  0
 12  2  1  0
 13 14  1  0
 14 15  2  0
 14 16  1  0
 16 17  1  0
 17 18  1  0
 18 19  1  0
 20 19  1  1
 20 22  1  0
 20 21  1  0
 21  9  1  0
 22 23  2  0
 24 25  1  0
 24 22  1  0
 25 26  1  1
 27 26  1  0
 27 28  2  0
 29 28  1  0
 30 29  1  0
 31 30  2  0
 32 31  1  0
 33 32  2  0
 33 34  1  0
 34 35  2  0
 35 30  1  0
 35 27  1  0
 36 25  1  0
 36 37  1  0
 38 36  2  0
M  END
$$$$
