YRW.pdb
     RDKit          3D

 38 40  0  0  1  0  0  0  0  0999 V2000
    6.9270  -11.6983   17.1039 O   0  0  0  0  0  0  0  0  0  0  0  0
    7.2859  -12.4322   18.2273 C   0  0  0  0  0  0  0  0  0  0  0  0
    6.3711  -13.3456   18.7230 C   0  0  0  0  0  0  0  0  0  0  0  0
    6.6461  -14.1142   19.8323 C   0  0  0  0  0  0  0  0  0  0  0  0
    7.8565  -13.9963   20.4921 C   0  0  0  0  0  0  0  0  0  0  0  0
    8.0777  -14.8512   21.6670 C   0  0  0  0  0  0  0  0  0  0  0  0
    8.8453  -16.0892   21.2519 C   0  0  2  0  0  0  0  0  0  0  0  0
    7.9927  -16.8699   20.4026 N   0  0  0  0  0  0  0  0  0  0  0  0
    9.2218  -16.8919   22.4560 C   0  0  0  0  0  0  0  0  0  0  0  0
    8.3054  -17.4503   23.1023 O   0  0  0  0  0  0  0  0  0  0  0  0
    8.7619  -13.0892   19.9976 C   0  0  0  0  0  0  0  0  0  0  0  0
    8.4844  -12.3170   18.8823 C   0  0  0  0  0  0  0  0  0  0  0  0
   15.1777  -20.0006   24.0919 N   0  0  0  0  0  0  0  0  0  0  0  0
   14.8432  -20.6265   22.8689 C   0  0  0  0  0  0  0  0  0  0  0  0
   14.9812  -21.9049   22.7793 N   0  0  0  0  0  0  0  0  0  0  0  0
   14.3751  -19.8362   21.7918 N   0  0  0  0  0  0  0  0  0  0  0  0
   14.3189  -18.4057   21.9459 C   0  0  0  0  0  0  0  0  0  0  0  0
   12.8721  -18.0299   22.2441 C   0  0  0  0  0  0  0  0  0  0  0  0
   12.6169  -17.9392   23.7104 C   0  0  0  0  0  0  0  0  0  0  0  0
   11.1458  -17.6075   23.9726 C   0  0  2  0  0  0  0  0  0  0  0  0
   10.5751  -16.9933   22.8179 N   0  0  0  0  0  0  0  0  0  0  0  0
   10.9987  -16.7891   25.1774 C   0  0  0  0  0  0  0  0  0  0  0  0
   11.4877  -15.6353   25.2217 O   0  0  0  0  0  0  0  0  0  0  0  0
   14.8004  -22.4459   21.9132 N   0  0  0  0  0  0  0  0  0  0  0  0
   10.3077  -17.2789   26.3076 C   0  0  1  0  0  0  0  0  0  0  0  0
   10.2728  -16.6090   27.5961 C   0  0  0  0  0  0  0  0  0  0  0  0
    8.8887  -16.5773   28.1227 C   0  0  0  0  0  0  0  0  0  0  0  0
    7.9627  -16.0117   27.1250 C   0  0  0  0  0  0  0  0  0  0  0  0
    7.0790  -16.6530   26.2876 N   0  0  0  0  0  0  0  0  0  0  0  0
    6.4393  -15.7436   25.5461 C   0  0  0  0  0  0  0  0  0  0  0  0
    6.8845  -14.5240   25.8795 C   0  0  0  0  0  0  0  0  0  0  0  0
    6.5371  -13.2595   25.4009 C   0  0  0  0  0  0  0  0  0  0  0  0
    7.1643  -12.1740   25.9335 C   0  0  0  0  0  0  0  0  0  0  0  0
    8.1199  -12.2948   26.9193 C   0  0  0  0  0  0  0  0  0  0  0  0
    8.4621  -13.5583   27.3923 C   0  0  0  0  0  0  0  0  0  0  0  0
    7.8306  -14.6682   26.8579 C   0  0  0  0  0  0  0  0  0  0  0  0
   11.2151  -17.2363   28.5698 O   0  0  0  0  0  0  0  0  0  0  0  0
   11.4572  -16.7270   29.8269 O   0  0  0  0  0  0  0  0  0  0  0  0
  2  1  1  0
  3  2  2  0
  4  3  1  0
  5 11  1  0
  5  4  2  0
  6  7  1  0
  6  5  1  0
  7  8  1  6
  9  7  1  0
 10  9  2  0
 11 12  2  0
 12  2  1  0
 13 14  1  0
 14 15  2  0
 14 16  1  0
 16 17  1  0
 17 18  1  0
 18 19  1  0
 20 19  1  6
 20 22  1  0
 20 21  1  0
 21  9  1  0
 22 23  2  0
 24 25  1  0
 24 22  1  0
 25 26  1  6
 27 26  1  0
 27 28  2  0
 29 28  1  0
 30 29  1  0
 31 30  2  0
 32 31  1  0
 33 32  2  0
 33 34  1  0
 34 35  2  0
 35 30  1  0
 35 27  1  0
 36 25  1  0
 36 37  1  0
 38 36  2  0
M  END
$$$$
