YRW.pdb
     RDKit          3D

 38 40  0  0  1  0  0  0  0  0999 V2000
    7.8062  -11.8554   16.2451 O   0  0  0  0  0  0  0  0  0  0  0  0
    7.7167  -12.6106   17.4076 C   0  0  0  0  0  0  0  0  0  0  0  0
    8.8144  -12.6325   18.2512 C   0  0  0  0  0  0  0  0  0  0  0  0
    8.8102  -13.3551   19.4236 C   0  0  0  0  0  0  0  0  0  0  0  0
    7.6985  -14.0887   19.7985 C   0  0  0  0  0  0  0  0  0  0  0  0
    7.7687  -14.8327   21.0640 C   0  0  0  0  0  0  0  0  0  0  0  0
    8.5277  -16.1254   20.8471 C   0  0  2  0  0  0  0  0  0  0  0  0
    7.7948  -16.9102   19.8958 N   0  0  0  0  0  0  0  0  0  0  0  0
    8.6433  -16.8791   22.1334 C   0  0  0  0  0  0  0  0  0  0  0  0
    7.6158  -17.4351   22.5853 O   0  0  0  0  0  0  0  0  0  0  0  0
    6.6112  -14.0648   18.9593 C   0  0  0  0  0  0  0  0  0  0  0  0
    6.6165  -13.3380   17.7808 C   0  0  0  0  0  0  0  0  0  0  0  0
   12.9393  -19.8534   19.4274 N   0  0  0  0  0  0  0  0  0  0  0  0
   13.7907  -19.3635   20.4445 C   0  0  0  0  0  0  0  0  0  0  0  0
   14.8686  -18.7490   20.0952 N   0  0  0  0  0  0  0  0  0  0  0  0
   13.4370  -19.5645   21.8003 N   0  0  0  0  0  0  0  0  0  0  0  0
   12.2854  -20.3710   22.1112 C   0  0  0  0  0  0  0  0  0  0  0  0
   11.1350  -19.4263   22.4391 C   0  0  0  0  0  0  0  0  0  0  0  0
   11.4295  -18.5955   23.6419 C   0  0  0  0  0  0  0  0  0  0  0  0
   10.2464  -17.6754   23.9527 C   0  0  2  0  0  0  0  0  0  0  0  0
    9.8863  -16.9390   22.7846 N   0  0  0  0  0  0  0  0  0  0  0  0
   10.5405  -16.8101   25.0964 C   0  0  0  0  0  0  0  0  0  0  0  0
   11.3905  -15.8941   24.9942 O   0  0  0  0  0  0  0  0  0  0  0  0
   15.5593  -18.3668   20.7678 N   0  0  0  0  0  0  0  0  0  0  0  0
    9.8771  -16.9881   26.3305 C   0  0  1  0  0  0  0  0  0  0  0  0
   10.2161  -16.2740   27.5492 C   0  0  0  0  0  0  0  0  0  0  0  0
    8.9981  -16.0203   28.3531 C   0  0  0  0  0  0  0  0  0  0  0  0
    7.9150  -15.4877   27.5069 C   0  0  0  0  0  0  0  0  0  0  0  0
    6.9232  -16.1583   26.8286 N   0  0  0  0  0  0  0  0  0  0  0  0
    6.1562  -15.2727   26.1855 C   0  0  0  0  0  0  0  0  0  0  0  0
    6.6239  -14.0401   26.4278 C   0  0  0  0  0  0  0  0  0  0  0  0
    6.1798  -12.7900   25.9933 C   0  0  0  0  0  0  0  0  0  0  0  0
    6.8613  -11.6849   26.4053 C   0  0  0  0  0  0  0  0  0  0  0  0
    7.9629  -11.7725   27.2290 C   0  0  0  0  0  0  0  0  0  0  0  0
    8.4008  -13.0218   27.6589 C   0  0  0  0  0  0  0  0  0  0  0  0
    7.7153  -14.1514   27.2460 C   0  0  0  0  0  0  0  0  0  0  0  0
   11.2546  -16.9972   28.3418 O   0  0  0  0  0  0  0  0  0  0  0  0
   11.9024  -16.4457   29.4255 O   0  0  0  0  0  0  0  0  0  0  0  0
  2  1  1  0
  3  2  2  0
  4  3  1  0
  5 11  1  0
  5  4  2  0
  6  7  1  0
  6  5  1  0
  7  8  1  6
  9  7  1  0
 10  9  2  0
 11 12  2  0
 12  2  1  0
 13 14  1  0
 14 15  2  0
 14 16  1  0
 16 17  1  0
 17 18  1  0
 18 19  1  0
 20 19  1  6
 20 22  1  0
 20 21  1  0
 21  9  1  0
 22 23  2  0
 24 25  1  0
 24 22  1  0
 25 26  1  1
 27 26  1  0
 27 28  2  0
 29 28  1  0
 30 29  1  0
 31 30  2  0
 32 31  1  0
 33 32  2  0
 33 34  1  0
 34 35  2  0
 35 30  1  0
 35 27  1  0
 36 25  1  0
 36 37  1  0
 38 36  2  0
M  END
$$$$
