YRW.pdb
     RDKit          3D

 38 40  0  0  1  0  0  0  0  0999 V2000
   14.9380  -24.3735   17.8726 O   0  0  0  0  0  0  0  0  0  0  0  0
   14.7851  -23.1400   18.4930 C   0  0  0  0  0  0  0  0  0  0  0  0
   13.5333  -22.8153   18.9876 C   0  0  0  0  0  0  0  0  0  0  0  0
   13.2945  -21.6136   19.6168 C   0  0  0  0  0  0  0  0  0  0  0  0
   14.3076  -20.6847   19.7756 C   0  0  0  0  0  0  0  0  0  0  0  0
   13.9766  -19.4262   20.4586 C   0  0  0  0  0  0  0  0  0  0  0  0
   13.0499  -18.6071   19.5844 C   0  0  2  0  0  0  0  0  0  0  0  0
   13.8054  -18.1457   18.4556 N   0  0  0  0  0  0  0  0  0  0  0  0
   12.5232  -17.4334   20.3467 C   0  0  0  0  0  0  0  0  0  0  0  0
   13.0798  -16.3237   20.1790 O   0  0  0  0  0  0  0  0  0  0  0  0
   15.5483  -21.0101   19.2838 C   0  0  0  0  0  0  0  0  0  0  0  0
   15.7873  -22.2185   18.6514 C   0  0  0  0  0  0  0  0  0  0  0  0
    6.9009  -12.8019   18.7909 N   0  0  0  0  0  0  0  0  0  0  0  0
    8.1406  -13.4819   18.7900 C   0  0  0  0  0  0  0  0  0  0  0  0
    9.1700  -12.8746   18.3072 N   0  0  0  0  0  0  0  0  0  0  0  0
    8.2101  -14.7962   19.3113 N   0  0  0  0  0  0  0  0  0  0  0  0
    7.4494  -15.1230   20.4893 C   0  0  0  0  0  0  0  0  0  0  0  0
    8.3931  -15.8032   21.4743 C   0  0  0  0  0  0  0  0  0  0  0  0
    9.7900  -15.8533   20.9548 C   0  0  0  0  0  0  0  0  0  0  0  0
   10.6888  -16.6233   21.9254 C   0  0  2  0  0  0  0  0  0  0  0  0
   11.4335  -17.6115   21.2147 N   0  0  0  0  0  0  0  0  0  0  0  0
    9.9085  -17.1893   23.0271 C   0  0  0  0  0  0  0  0  0  0  0  0
    8.8104  -17.7508   22.8010 O   0  0  0  0  0  0  0  0  0  0  0  0
   10.0990  -13.3194   18.1866 N   0  0  0  0  0  0  0  0  0  0  0  0
   10.3731  -17.1151   24.3588 C   0  0  2  0  0  0  0  0  0  0  0  0
    9.6498  -16.4694   25.4403 C   0  0  0  0  0  0  0  0  0  0  0  0
    9.4438  -15.0341   25.1373 C   0  0  0  0  0  0  0  0  0  0  0  0
    8.1170  -14.5877   25.5989 C   0  0  0  0  0  0  0  0  0  0  0  0
    7.0308  -15.3338   25.9950 N   0  0  0  0  0  0  0  0  0  0  0  0
    6.0334  -14.5107   26.3326 C   0  0  0  0  0  0  0  0  0  0  0  0
    6.4428  -13.2452   26.1661 C   0  0  0  0  0  0  0  0  0  0  0  0
    5.7828  -12.0335   26.3780 C   0  0  0  0  0  0  0  0  0  0  0  0
    6.4572  -10.8785   26.1204 C   0  0  0  0  0  0  0  0  0  0  0  0
    7.7570  -10.8798   25.6619 C   0  0  0  0  0  0  0  0  0  0  0  0
    8.4097  -12.0912   25.4524 C   0  0  0  0  0  0  0  0  0  0  0  0
    7.7334  -13.2710   25.7113 C   0  0  0  0  0  0  0  0  0  0  0  0
    8.3572  -17.1592   25.7288 O   0  0  0  0  0  0  0  0  0  0  0  0
    7.4667  -17.5420   24.7497 O   0  0  0  0  0  0  0  0  0  0  0  0
  2  1  1  0
  3  2  2  0
  4  3  1  0
  5 11  1  0
  5  4  2  0
  6  7  1  0
  6  5  1  0
  7  8  1  6
  9  7  1  0
 10  9  2  0
 11 12  2  0
 12  2  1  0
 13 14  1  0
 14 15  2  0
 14 16  1  0
 16 17  1  0
 17 18  1  0
 18 19  1  0
 20 19  1  6
 20 22  1  0
 20 21  1  0
 21  9  1  0
 22 23  2  0
 24 25  1  0
 24 22  1  0
 25 26  1  1
 27 26  1  0
 27 28  2  0
 29 28  1  0
 30 29  1  0
 31 30  2  0
 32 31  1  0
 33 32  2  0
 33 34  1  0
 34 35  2  0
 35 30  1  0
 35 27  1  0
 36 25  1  0
 36 37  1  0
 38 36  2  0
M  END
$$$$
