YRW.pdb
     RDKit          3D

 38 40  0  0  1  0  0  0  0  0999 V2000
   18.4002  -14.6926   17.7389 O   0  0  0  0  0  0  0  0  0  0  0  0
   17.1831  -14.5761   18.3981 C   0  0  0  0  0  0  0  0  0  0  0  0
   16.2614  -13.6709   17.9001 C   0  0  0  0  0  0  0  0  0  0  0  0
   15.0309  -13.4927   18.4925 C   0  0  0  0  0  0  0  0  0  0  0  0
   14.6741  -14.2195   19.6145 C   0  0  0  0  0  0  0  0  0  0  0  0
   13.3437  -13.9755   20.1893 C   0  0  0  0  0  0  0  0  0  0  0  0
   12.3694  -15.0078   19.6610 C   0  0  2  0  0  0  0  0  0  0  0  0
   12.1974  -14.7705   18.2567 N   0  0  0  0  0  0  0  0  0  0  0  0
   11.0513  -14.8775   20.3550 C   0  0  0  0  0  0  0  0  0  0  0  0
   10.3643  -13.8548   20.1283 O   0  0  0  0  0  0  0  0  0  0  0  0
   15.5909  -15.1168   20.1060 C   0  0  0  0  0  0  0  0  0  0  0  0
   16.8276  -15.2952   19.5096 C   0  0  0  0  0  0  0  0  0  0  0  0
    7.3605  -13.9863   16.9195 N   0  0  0  0  0  0  0  0  0  0  0  0
    8.2699  -13.7364   17.9730 C   0  0  0  0  0  0  0  0  0  0  0  0
    9.3550  -13.0948   17.7038 N   0  0  0  0  0  0  0  0  0  0  0  0
    7.9639  -14.1970   19.2761 N   0  0  0  0  0  0  0  0  0  0  0  0
    7.4726  -15.5397   19.4465 C   0  0  0  0  0  0  0  0  0  0  0  0
    7.3146  -15.7871   20.9423 C   0  0  0  0  0  0  0  0  0  0  0  0
    8.3639  -16.7100   21.4625 C   0  0  0  0  0  0  0  0  0  0  0  0
    9.5029  -15.9111   22.1008 C   0  0  2  0  0  0  0  0  0  0  0  0
   10.6312  -15.8950   21.2273 N   0  0  0  0  0  0  0  0  0  0  0  0
    9.8268  -16.4296   23.4309 C   0  0  0  0  0  0  0  0  0  0  0  0
   10.5033  -17.4782   23.5533 O   0  0  0  0  0  0  0  0  0  0  0  0
   10.0631  -12.8338   18.4151 N   0  0  0  0  0  0  0  0  0  0  0  0
    9.3870  -15.7639   24.5963 C   0  0  1  0  0  0  0  0  0  0  0  0
    9.7823  -16.1324   25.9446 C   0  0  0  0  0  0  0  0  0  0  0  0
    8.5975  -16.1867   26.8320 C   0  0  0  0  0  0  0  0  0  0  0  0
    7.5210  -15.3197   26.3200 C   0  0  0  0  0  0  0  0  0  0  0  0
    6.3526  -15.6604   25.6782 N   0  0  0  0  0  0  0  0  0  0  0  0
    5.6702  -14.5480   25.3902 C   0  0  0  0  0  0  0  0  0  0  0  0
    6.3655  -13.4892   25.8288 C   0  0  0  0  0  0  0  0  0  0  0  0
    6.0867  -12.1225   25.7715 C   0  0  0  0  0  0  0  0  0  0  0  0
    6.9911  -11.2571   26.3085 C   0  0  0  0  0  0  0  0  0  0  0  0
    8.1577  -11.6944   26.8979 C   0  0  0  0  0  0  0  0  0  0  0  0
    8.4302  -13.0582   26.9518 C   0  0  0  0  0  0  0  0  0  0  0  0
    7.5176  -13.9464   26.4091 C   0  0  0  0  0  0  0  0  0  0  0  0
   10.5414  -17.4181   25.9651 O   0  0  0  0  0  0  0  0  0  0  0  0
   11.1234  -17.9374   27.1008 O   0  0  0  0  0  0  0  0  0  0  0  0
  2  1  1  0
  3  2  2  0
  4  3  1  0
  5 11  1  0
  5  4  2  0
  6  7  1  0
  6  5  1  0
  7  8  1  6
  9  7  1  0
 10  9  2  0
 11 12  2  0
 12  2  1  0
 13 14  1  0
 14 15  2  0
 14 16  1  0
 16 17  1  0
 17 18  1  0
 18 19  1  0
 20 19  1  6
 20 22  1  0
 20 21  1  0
 21  9  1  0
 22 23  2  0
 24 25  1  0
 24 22  1  0
 25 26  1  1
 27 26  1  0
 27 28  2  0
 29 28  1  0
 30 29  1  0
 31 30  2  0
 32 31  1  0
 33 32  2  0
 33 34  1  0
 34 35  2  0
 35 30  1  0
 35 27  1  0
 36 25  1  0
 36 37  1  0
 38 36  2  0
M  END
$$$$
