YRW.pdb
     RDKit          3D

 38 40  0  0  1  0  0  0  0  0999 V2000
   18.6189  -14.7999   16.5107 O   0  0  0  0  0  0  0  0  0  0  0  0
   17.5604  -14.6993   17.4045 C   0  0  0  0  0  0  0  0  0  0  0  0
   16.6851  -13.6371   17.2541 C   0  0  0  0  0  0  0  0  0  0  0  0
   15.6094  -13.4625   18.0963 C   0  0  0  0  0  0  0  0  0  0  0  0
   15.3677  -14.3513   19.1288 C   0  0  0  0  0  0  0  0  0  0  0  0
   14.1996  -14.0999   19.9844 C   0  0  0  0  0  0  0  0  0  0  0  0
   13.1823  -15.2043   19.7856 C   0  0  2  0  0  0  0  0  0  0  0  0
   12.6647  -15.0893   18.4526 N   0  0  0  0  0  0  0  0  0  0  0  0
   12.0653  -15.0615   20.7695 C   0  0  0  0  0  0  0  0  0  0  0  0
   11.7542  -13.9076   21.1447 O   0  0  0  0  0  0  0  0  0  0  0  0
   16.2381  -15.4041   19.2752 C   0  0  0  0  0  0  0  0  0  0  0  0
   17.3192  -15.5787   18.4279 C   0  0  0  0  0  0  0  0  0  0  0  0
    6.9708  -13.1989   19.5619 N   0  0  0  0  0  0  0  0  0  0  0  0
    8.1937  -13.5077   18.9227 C   0  0  0  0  0  0  0  0  0  0  0  0
    8.7347  -12.6097   18.1728 N   0  0  0  0  0  0  0  0  0  0  0  0
    8.7772  -14.7818   19.1226 N   0  0  0  0  0  0  0  0  0  0  0  0
    8.0819  -15.7516   19.9283 C   0  0  0  0  0  0  0  0  0  0  0  0
    8.9733  -16.9830   20.0405 C   0  0  0  0  0  0  0  0  0  0  0  0
    9.2690  -17.3221   21.4621 C   0  0  0  0  0  0  0  0  0  0  0  0
   10.2463  -16.3053   22.0571 C   0  0  2  0  0  0  0  0  0  0  0  0
   11.4085  -16.2127   21.2343 N   0  0  0  0  0  0  0  0  0  0  0  0
   10.5646  -16.6344   23.4476 C   0  0  0  0  0  0  0  0  0  0  0  0
   11.3866  -17.5442   23.7098 O   0  0  0  0  0  0  0  0  0  0  0  0
    9.6086  -12.7570   17.6342 N   0  0  0  0  0  0  0  0  0  0  0  0
    9.9563  -15.9385   24.5155 C   0  0  1  0  0  0  0  0  0  0  0  0
   10.1643  -16.2538   25.9182 C   0  0  0  0  0  0  0  0  0  0  0  0
    9.5281  -15.2277   26.7764 C   0  0  0  0  0  0  0  0  0  0  0  0
    8.1075  -15.0574   26.4218 C   0  0  0  0  0  0  0  0  0  0  0  0
    7.1629  -16.0078   26.1093 N   0  0  0  0  0  0  0  0  0  0  0  0
    6.0000  -15.4016   25.8514 C   0  0  0  0  0  0  0  0  0  0  0  0
    6.1634  -14.0782   25.9880 C   0  0  0  0  0  0  0  0  0  0  0  0
    5.2631  -13.0229   25.8302 C   0  0  0  0  0  0  0  0  0  0  0  0
    5.7141  -11.7546   26.0378 C   0  0  0  0  0  0  0  0  0  0  0  0
    7.0196  -11.4940   26.3946 C   0  0  0  0  0  0  0  0  0  0  0  0
    7.9124  -12.5503   26.5503 C   0  0  0  0  0  0  0  0  0  0  0  0
    7.4644  -13.8435   26.3418 C   0  0  0  0  0  0  0  0  0  0  0  0
    9.6790  -17.6256   26.2532 O   0  0  0  0  0  0  0  0  0  0  0  0
   10.0185  -18.2883   27.4124 O   0  0  0  0  0  0  0  0  0  0  0  0
  2  1  1  0
  3  2  2  0
  4  3  1  0
  5 11  1  0
  5  4  2  0
  6  7  1  0
  6  5  1  0
  7  8  1  6
  9  7  1  0
 10  9  2  0
 11 12  2  0
 12  2  1  0
 13 14  1  0
 14 15  2  0
 14 16  1  0
 16 17  1  0
 17 18  1  0
 18 19  1  0
 20 19  1  6
 20 22  1  0
 20 21  1  0
 21  9  1  0
 22 23  2  0
 24 25  1  0
 24 22  1  0
 25 26  1  1
 27 26  1  0
 27 28  2  0
 29 28  1  0
 30 29  1  0
 31 30  2  0
 32 31  1  0
 33 32  2  0
 33 34  1  0
 34 35  2  0
 35 30  1  0
 35 27  1  0
 36 25  1  0
 36 37  1  0
 38 36  2  0
M  END
$$$$
