WIC.pdb
     RDKit          3D

 29 30  0  0  1  0  0  0  0  0999 V2000
   26.6814  -19.6453  -11.3744 N   0  0  0  0  0  0  0  0  0  0  0  0
   26.1318  -20.9559  -11.5433 C   0  0  1  0  0  0  0  0  0  0  0  0
   25.5944  -21.4271  -10.1982 C   0  0  0  0  0  0  0  0  0  0  0  0
   26.4042  -20.8378   -9.1009 C   0  0  0  0  0  0  0  0  0  0  0  0
   25.9974  -20.0489   -8.0450 C   0  0  0  0  0  0  0  0  0  0  0  0
   27.0728  -19.7426   -7.2934 N   0  0  0  0  0  0  0  0  0  0  0  0
   28.1803  -20.2968   -7.8074 C   0  0  0  0  0  0  0  0  0  0  0  0
   29.5004  -20.2748   -7.4093 C   0  0  0  0  0  0  0  0  0  0  0  0
   30.3963  -20.9801   -8.2061 C   0  0  0  0  0  0  0  0  0  0  0  0
   30.0156  -21.6675   -9.3299 C   0  0  0  0  0  0  0  0  0  0  0  0
   28.6749  -21.6754   -9.7128 C   0  0  0  0  0  0  0  0  0  0  0  0
   27.7776  -20.9825   -8.9346 C   0  0  0  0  0  0  0  0  0  0  0  0
   24.9887  -20.9851  -12.4899 C   0  0  0  0  0  0  0  0  0  0  0  0
   24.3981  -19.9278  -12.7662 O   0  0  0  0  0  0  0  0  0  0  0  0
   25.3635  -25.1581  -16.1060 C   0  0  0  0  0  0  0  0  0  0  0  0
   24.6972  -24.4435  -14.9693 C   0  0  0  0  0  0  0  0  0  0  0  0
   24.3838  -23.0139  -15.3429 C   0  0  2  0  0  0  0  0  0  0  0  0
   25.6100  -22.2370  -15.7355 C   0  0  0  0  0  0  0  0  0  0  0  0
   23.7040  -22.3027  -14.2106 C   0  0  2  0  0  0  0  0  0  0  0  0
   24.5854  -22.2130  -13.0654 N   0  0  0  0  0  0  0  0  0  0  0  0
   22.4126  -22.9238  -13.8376 C   0  0  0  0  0  0  0  0  0  0  0  0
   22.4176  -23.8210  -12.9695 O   0  0  0  0  0  0  0  0  0  0  0  0
   21.1936  -22.5367  -14.4262 N   0  0  0  0  0  0  0  0  0  0  0  0
   19.9635  -23.1554  -13.9894 C   0  0  1  0  0  0  0  0  0  0  0  0
   18.8384  -22.1635  -14.1711 C   0  0  0  0  0  0  0  0  0  0  0  0
   18.8434  -21.6748  -15.9386 S   0  0  0  0  0  0  0  0  0  0  0  0
   19.7579  -24.4231  -14.7109 C   0  0  0  0  0  0  0  0  0  0  0  0
   20.3360  -24.6017  -15.8044 O   0  0  0  0  0  0  0  0  0  0  0  0
   18.9318  -25.3908  -14.1704 O   0  0  0  0  0  0  0  0  0  0  0  0
  2  1  1  1
  3  4  1  0
  3  2  1  0
  4 12  1  0
  5  4  2  0
  5  6  1  0
  6  7  1  0
  7  8  1  0
  8  9  2  0
 10  9  1  0
 11 10  2  0
 12  7  2  0
 12 11  1  0
 13 20  1  0
 13  2  1  0
 14 13  2  0
 16 15  1  0
 17 16  1  0
 17 18  1  1
 19 17  1  0
 19 20  1  1
 21 19  1  0
 22 21  2  0
 23 21  1  0
 24 27  1  0
 24 23  1  0
 24 25  1  6
 26 25  1  0
 27 29  1  0
 28 27  2  0
M  END
$$$$
