WIC.pdb
     RDKit          3D

 29 30  0  0  1  0  0  0  0  0999 V2000
   27.1089  -22.3680  -12.6140 N   0  0  0  0  0  0  0  0  0  0  0  0
   26.0136  -21.6428  -12.0461 C   0  0  1  0  0  0  0  0  0  0  0  0
   26.5496  -20.3378  -11.4715 C   0  0  0  0  0  0  0  0  0  0  0  0
   27.6128  -20.6283  -10.4755 C   0  0  0  0  0  0  0  0  0  0  0  0
   28.8724  -21.1545  -10.6742 C   0  0  0  0  0  0  0  0  0  0  0  0
   29.4969  -21.2452   -9.4839 N   0  0  0  0  0  0  0  0  0  0  0  0
   28.7025  -20.8000   -8.4997 C   0  0  0  0  0  0  0  0  0  0  0  0
   28.8837  -20.6921   -7.1369 C   0  0  0  0  0  0  0  0  0  0  0  0
   27.8160  -20.1728   -6.4123 C   0  0  0  0  0  0  0  0  0  0  0  0
   26.6376  -19.7820   -6.9947 C   0  0  0  0  0  0  0  0  0  0  0  0
   26.4774  -19.9005   -8.3747 C   0  0  0  0  0  0  0  0  0  0  0  0
   27.5247  -20.4123   -9.1042 C   0  0  0  0  0  0  0  0  0  0  0  0
   24.9840  -21.2725  -13.0494 C   0  0  0  0  0  0  0  0  0  0  0  0
   25.2820  -21.2650  -14.2553 O   0  0  0  0  0  0  0  0  0  0  0  0
   19.9776  -23.1364  -12.3284 C   0  0  0  0  0  0  0  0  0  0  0  0
   21.2761  -22.6459  -12.8940 C   0  0  0  0  0  0  0  0  0  0  0  0
   21.2907  -21.1378  -12.9771 C   0  0  2  0  0  0  0  0  0  0  0  0
   20.1676  -20.5942  -13.8166 C   0  0  0  0  0  0  0  0  0  0  0  0
   22.5928  -20.6463  -13.5366 C   0  0  2  0  0  0  0  0  0  0  0  0
   23.6786  -20.9331  -12.6226 N   0  0  0  0  0  0  0  0  0  0  0  0
   22.5595  -19.2074  -13.8845 C   0  0  0  0  0  0  0  0  0  0  0  0
   22.2515  -18.3909  -12.9917 O   0  0  0  0  0  0  0  0  0  0  0  0
   22.8615  -18.7386  -15.1773 N   0  0  0  0  0  0  0  0  0  0  0  0
   22.7577  -17.3268  -15.4653 C   0  0  1  0  0  0  0  0  0  0  0  0
   23.9341  -16.9262  -16.3245 C   0  0  0  0  0  0  0  0  0  0  0  0
   23.6642  -15.1788  -16.8108 S   0  0  0  0  0  0  0  0  0  0  0  0
   21.4502  -17.0366  -16.0785 C   0  0  0  0  0  0  0  0  0  0  0  0
   20.9443  -17.8727  -16.8575 O   0  0  0  0  0  0  0  0  0  0  0  0
   20.8064  -15.8489  -15.7851 O   0  0  0  0  0  0  0  0  0  0  0  0
  2  1  1  6
  3  4  1  0
  3  2  1  0
  4 12  1  0
  5  4  2  0
  5  6  1  0
  6  7  1  0
  7  8  1  0
  8  9  2  0
 10  9  1  0
 11 10  2  0
 12  7  2  0
 12 11  1  0
 13 20  1  0
 13  2  1  0
 14 13  2  0
 16 15  1  0
 17 16  1  0
 17 18  1  6
 19 17  1  0
 19 20  1  1
 21 19  1  0
 22 21  2  0
 23 21  1  0
 24 27  1  0
 24 23  1  0
 24 25  1  6
 26 25  1  0
 27 29  1  0
 28 27  2  0
M  END
$$$$
