WIC.pdb
     RDKit          3D

 29 30  0  0  1  0  0  0  0  0999 V2000
   24.1435  -19.4452   -8.1979 N   0  0  0  0  0  0  0  0  0  0  0  0
   25.4251  -19.9151   -8.6277 C   0  0  1  0  0  0  0  0  0  0  0  0
   25.6945  -21.2551   -7.9551 C   0  0  0  0  0  0  0  0  0  0  0  0
   25.9220  -21.0492   -6.5016 C   0  0  0  0  0  0  0  0  0  0  0  0
   25.2040  -21.5375   -5.4297 C   0  0  0  0  0  0  0  0  0  0  0  0
   25.7711  -21.0952   -4.2905 N   0  0  0  0  0  0  0  0  0  0  0  0
   26.8392  -20.3310   -4.5616 C   0  0  0  0  0  0  0  0  0  0  0  0
   27.7323  -19.6623   -3.7512 C   0  0  0  0  0  0  0  0  0  0  0  0
   28.7393  -18.9529   -4.3976 C   0  0  0  0  0  0  0  0  0  0  0  0
   28.8606  -18.9041   -5.7626 C   0  0  0  0  0  0  0  0  0  0  0  0
   27.9455  -19.5884   -6.5616 C   0  0  0  0  0  0  0  0  0  0  0  0
   26.9445  -20.2941   -5.9365 C   0  0  0  0  0  0  0  0  0  0  0  0
   25.4912  -20.1549  -10.0912 C   0  0  0  0  0  0  0  0  0  0  0  0
   24.6405  -19.6368  -10.8335 O   0  0  0  0  0  0  0  0  0  0  0  0
   30.5791  -21.7292  -11.4735 C   0  0  0  0  0  0  0  0  0  0  0  0
   29.2622  -21.0323  -11.3099 C   0  0  0  0  0  0  0  0  0  0  0  0
   28.2170  -21.6384  -12.2163 C   0  0  2  0  0  0  0  0  0  0  0  0
   28.5939  -21.5553  -13.6697 C   0  0  0  0  0  0  0  0  0  0  0  0
   26.8890  -20.9681  -12.0231 C   0  0  2  0  0  0  0  0  0  0  0  0
   26.5191  -20.9685  -10.6232 N   0  0  0  0  0  0  0  0  0  0  0  0
   25.8195  -21.5669  -12.8537 C   0  0  0  0  0  0  0  0  0  0  0  0
   25.6579  -22.8040  -12.8066 O   0  0  0  0  0  0  0  0  0  0  0  0
   24.9890  -20.7914  -13.6852 N   0  0  0  0  0  0  0  0  0  0  0  0
   23.9871  -21.4418  -14.4974 C   0  0  1  0  0  0  0  0  0  0  0  0
   22.7454  -20.5811  -14.5056 C   0  0  0  0  0  0  0  0  0  0  0  0
   22.1448  -20.5013  -12.7747 S   0  0  0  0  0  0  0  0  0  0  0  0
   24.5299  -21.7114  -15.8400 C   0  0  0  0  0  0  0  0  0  0  0  0
   25.5255  -21.0672  -16.2346 O   0  0  0  0  0  0  0  0  0  0  0  0
   23.9320  -22.6676  -16.6395 O   0  0  0  0  0  0  0  0  0  0  0  0
  2  1  1  6
  3  4  1  0
  3  2  1  0
  4 12  1  0
  5  4  2  0
  5  6  1  0
  6  7  1  0
  7  8  1  0
  8  9  2  0
 10  9  1  0
 11 10  2  0
 12  7  2  0
 12 11  1  0
 13 20  1  0
 13  2  1  0
 14 13  2  0
 16 15  1  0
 17 16  1  0
 17 18  1  6
 19 17  1  0
 19 20  1  1
 21 19  1  0
 22 21  2  0
 23 21  1  0
 24 27  1  0
 24 23  1  0
 24 25  1  6
 26 25  1  0
 27 29  1  0
 28 27  2  0
M  END
$$$$
