WIC.pdb
     RDKit          3D

 29 30  0  0  1  0  0  0  0  0999 V2000
   21.3561  -16.5187  -16.3991 N   0  0  0  0  0  0  0  0  0  0  0  0
   21.9964  -17.6730  -15.8461 C   0  0  1  0  0  0  0  0  0  0  0  0
   21.2012  -18.9054  -16.2577 C   0  0  0  0  0  0  0  0  0  0  0  0
   19.8331  -18.8337  -15.6831 C   0  0  0  0  0  0  0  0  0  0  0  0
   19.2179  -17.7885  -15.0260 C   0  0  0  0  0  0  0  0  0  0  0  0
   17.9729  -18.1681  -14.6782 N   0  0  0  0  0  0  0  0  0  0  0  0
   17.7346  -19.4256  -15.0779 C   0  0  0  0  0  0  0  0  0  0  0  0
   16.6314  -20.2444  -14.9594 C   0  0  0  0  0  0  0  0  0  0  0  0
   16.7473  -21.5180  -15.5068 C   0  0  0  0  0  0  0  0  0  0  0  0
   17.8833  -21.9606  -16.1346 C   0  0  0  0  0  0  0  0  0  0  0  0
   18.9863  -21.1146  -16.2424 C   0  0  0  0  0  0  0  0  0  0  0  0
   18.8862  -19.8525  -15.7059 C   0  0  0  0  0  0  0  0  0  0  0  0
   23.3760  -17.8688  -16.3578 C   0  0  0  0  0  0  0  0  0  0  0  0
   23.6140  -17.6733  -17.5613 O   0  0  0  0  0  0  0  0  0  0  0  0
   26.5500  -14.7743  -15.0075 C   0  0  0  0  0  0  0  0  0  0  0  0
   26.1357  -15.9206  -15.8799 C   0  0  0  0  0  0  0  0  0  0  0  0
   26.5828  -17.2360  -15.2874 C   0  0  2  0  0  0  0  0  0  0  0  0
   28.0463  -17.5020  -15.5088 C   0  0  0  0  0  0  0  0  0  0  0  0
   25.7933  -18.3756  -15.8601 C   0  0  2  0  0  0  0  0  0  0  0  0
   24.4019  -18.2747  -15.4722 N   0  0  0  0  0  0  0  0  0  0  0  0
   26.3502  -19.6982  -15.4953 C   0  0  0  0  0  0  0  0  0  0  0  0
   26.0618  -20.1723  -14.3769 O   0  0  0  0  0  0  0  0  0  0  0  0
   27.1854  -20.4282  -16.3623 N   0  0  0  0  0  0  0  0  0  0  0  0
   27.3649  -21.8461  -16.1524 C   0  0  1  0  0  0  0  0  0  0  0  0
   26.0165  -22.5195  -16.2562 C   0  0  0  0  0  0  0  0  0  0  0  0
   26.2851  -24.2997  -15.9074 S   0  0  0  0  0  0  0  0  0  0  0  0
   28.3631  -22.3694  -17.1010 C   0  0  0  0  0  0  0  0  0  0  0  0
   28.4217  -21.8850  -18.2515 O   0  0  0  0  0  0  0  0  0  0  0  0
   29.2148  -23.3842  -16.7061 O   0  0  0  0  0  0  0  0  0  0  0  0
  2  1  1  6
  3  4  1  0
  3  2  1  0
  4 12  1  0
  5  4  2  0
  5  6  1  0
  6  7  1  0
  7  8  1  0
  8  9  2  0
 10  9  1  0
 11 10  2  0
 12  7  2  0
 12 11  1  0
 13 20  1  0
 13  2  1  0
 14 13  2  0
 16 15  1  0
 17 16  1  0
 17 18  1  6
 19 17  1  0
 19 20  1  1
 21 19  1  0
 22 21  2  0
 23 21  1  0
 24 27  1  0
 24 23  1  0
 24 25  1  6
 26 25  1  0
 27 29  1  0
 28 27  2  0
M  END
$$$$
