WIC.pdb
     RDKit          3D

 29 30  0  0  1  0  0  0  0  0999 V2000
   28.3604  -21.9326  -14.1543 N   0  0  0  0  0  0  0  0  0  0  0  0
   27.1810  -21.4647  -13.4924 C   0  0  1  0  0  0  0  0  0  0  0  0
   27.4704  -20.0846  -12.9162 C   0  0  0  0  0  0  0  0  0  0  0  0
   28.2193  -20.2214  -11.6404 C   0  0  0  0  0  0  0  0  0  0  0  0
   29.5820  -20.2253  -11.4264 C   0  0  0  0  0  0  0  0  0  0  0  0
   29.8131  -20.3750  -10.1076 N   0  0  0  0  0  0  0  0  0  0  0  0
   28.6573  -20.4711   -9.4345 C   0  0  0  0  0  0  0  0  0  0  0  0
   28.3736  -20.6313   -8.0946 C   0  0  0  0  0  0  0  0  0  0  0  0
   27.0265  -20.6919   -7.7527 C   0  0  0  0  0  0  0  0  0  0  0  0
   26.0167  -20.6002   -8.6760 C   0  0  0  0  0  0  0  0  0  0  0  0
   26.3281  -20.4384  -10.0254 C   0  0  0  0  0  0  0  0  0  0  0  0
   27.6557  -20.3768  -10.3783 C   0  0  0  0  0  0  0  0  0  0  0  0
   26.0268  -21.3060  -14.4124 C   0  0  0  0  0  0  0  0  0  0  0  0
   26.2169  -20.8702  -15.5601 O   0  0  0  0  0  0  0  0  0  0  0  0
   24.1470  -25.3616  -15.1947 C   0  0  0  0  0  0  0  0  0  0  0  0
   24.0736  -23.9740  -15.7568 C   0  0  0  0  0  0  0  0  0  0  0  0
   23.0919  -23.1301  -14.9787 C   0  0  2  0  0  0  0  0  0  0  0  0
   21.7225  -23.1156  -15.6001 C   0  0  0  0  0  0  0  0  0  0  0  0
   23.5813  -21.7174  -14.8567 C   0  0  2  0  0  0  0  0  0  0  0  0
   24.7270  -21.6516  -13.9738 N   0  0  0  0  0  0  0  0  0  0  0  0
   22.5214  -20.7803  -14.4196 C   0  0  0  0  0  0  0  0  0  0  0  0
   22.1007  -20.8695  -13.2476 O   0  0  0  0  0  0  0  0  0  0  0  0
   21.9805  -19.8031  -15.2769 N   0  0  0  0  0  0  0  0  0  0  0  0
   20.9299  -18.9362  -14.7959 C   0  0  1  0  0  0  0  0  0  0  0  0
   20.8055  -17.7650  -15.7421 C   0  0  0  0  0  0  0  0  0  0  0  0
   19.5063  -16.6666  -15.0574 S   0  0  0  0  0  0  0  0  0  0  0  0
   19.6828  -19.7036  -14.6358 C   0  0  0  0  0  0  0  0  0  0  0  0
   19.3344  -20.4939  -15.5390 O   0  0  0  0  0  0  0  0  0  0  0  0
   18.9201  -19.5377  -13.4948 O   0  0  0  0  0  0  0  0  0  0  0  0
  2  1  1  6
  3  4  1  0
  3  2  1  0
  4 12  1  0
  5  4  2  0
  5  6  1  0
  6  7  1  0
  7  8  1  0
  8  9  2  0
 10  9  1  0
 11 10  2  0
 12  7  2  0
 12 11  1  0
 13 20  1  0
 13  2  1  0
 14 13  2  0
 16 15  1  0
 17 16  1  0
 17 18  1  6
 19 17  1  0
 19 20  1  1
 21 19  1  0
 22 21  2  0
 23 21  1  0
 24 27  1  0
 24 23  1  0
 24 25  1  6
 26 25  1  0
 27 29  1  0
 28 27  2  0
M  END
$$$$
