WIC.pdb
     RDKit          3D

 29 30  0  0  1  0  0  0  0  0999 V2000
   25.1667  -20.9521  -13.9549 N   0  0  0  0  0  0  0  0  0  0  0  0
   24.6225  -20.3953  -12.7542 C   0  0  1  0  0  0  0  0  0  0  0  0
   23.1181  -20.6345  -12.7540 C   0  0  0  0  0  0  0  0  0  0  0  0
   22.4621  -19.6999  -13.7043 C   0  0  0  0  0  0  0  0  0  0  0  0
   22.6763  -19.5411  -15.0578 C   0  0  0  0  0  0  0  0  0  0  0  0
   21.8558  -18.5758  -15.5161 N   0  0  0  0  0  0  0  0  0  0  0  0
   21.1032  -18.0851  -14.5207 C   0  0  0  0  0  0  0  0  0  0  0  0
   20.1338  -17.1050  -14.4858 C   0  0  0  0  0  0  0  0  0  0  0  0
   19.5524  -16.8569  -13.2467 C   0  0  0  0  0  0  0  0  0  0  0  0
   19.9046  -17.5340  -12.1073 C   0  0  0  0  0  0  0  0  0  0  0  0
   20.8875  -18.5209  -12.1672 C   0  0  0  0  0  0  0  0  0  0  0  0
   21.4712  -18.7772  -13.3855 C   0  0  0  0  0  0  0  0  0  0  0  0
   25.1538  -21.0389  -11.5265 C   0  0  0  0  0  0  0  0  0  0  0  0
   25.2370  -22.2773  -11.4741 O   0  0  0  0  0  0  0  0  0  0  0  0
   28.0732  -19.7361   -6.2612 C   0  0  0  0  0  0  0  0  0  0  0  0
   27.0661  -20.5577   -7.0077 C   0  0  0  0  0  0  0  0  0  0  0  0
   26.7392  -19.9268   -8.3406 C   0  0  2  0  0  0  0  0  0  0  0  0
   26.2027  -18.5288   -8.2022 C   0  0  0  0  0  0  0  0  0  0  0  0
   25.7399  -20.7548   -9.0928 C   0  0  2  0  0  0  0  0  0  0  0  0
   25.5584  -20.2377  -10.4330 N   0  0  0  0  0  0  0  0  0  0  0  0
   24.4426  -20.8663   -8.3879 C   0  0  0  0  0  0  0  0  0  0  0  0
   23.5824  -19.9845   -8.5910 O   0  0  0  0  0  0  0  0  0  0  0  0
   24.1538  -21.9251   -7.5059 N   0  0  0  0  0  0  0  0  0  0  0  0
   22.8757  -21.9640   -6.8338 C   0  0  1  0  0  0  0  0  0  0  0  0
   21.8843  -22.6661   -7.7319 C   0  0  0  0  0  0  0  0  0  0  0  0
   20.3614  -22.9212   -6.7425 S   0  0  0  0  0  0  0  0  0  0  0  0
   23.0258  -22.5936   -5.5106 C   0  0  0  0  0  0  0  0  0  0  0  0
   23.9650  -23.3960   -5.3214 O   0  0  0  0  0  0  0  0  0  0  0  0
   22.1290  -22.2894   -4.5035 O   0  0  0  0  0  0  0  0  0  0  0  0
  2  1  1  6
  3  4  1  0
  3  2  1  0
  4 12  1  0
  5  4  2  0
  5  6  1  0
  6  7  1  0
  7  8  1  0
  8  9  2  0
 10  9  1  0
 11 10  2  0
 12  7  2  0
 12 11  1  0
 13 20  1  0
 13  2  1  0
 14 13  2  0
 16 15  1  0
 17 16  1  0
 17 18  1  1
 19 17  1  0
 19 20  1  6
 21 19  1  0
 22 21  2  0
 23 21  1  0
 24 27  1  0
 24 23  1  0
 24 25  1  6
 26 25  1  0
 27 29  1  0
 28 27  2  0
M  END
$$$$
