WIC.pdb
     RDKit          3D

 29 30  0  0  1  0  0  0  0  0999 V2000
   17.4056  -26.9649   -8.1472 N   0  0  0  0  0  0  0  0  0  0  0  0
   17.6767  -25.9779   -7.1470 C   0  0  1  0  0  0  0  0  0  0  0  0
   17.1991  -24.6273   -7.6648 C   0  0  0  0  0  0  0  0  0  0  0  0
   17.8555  -24.3281   -8.9635 C   0  0  0  0  0  0  0  0  0  0  0  0
   19.1491  -24.5878   -9.3660 C   0  0  0  0  0  0  0  0  0  0  0  0
   19.3081  -24.1424  -10.6275 N   0  0  0  0  0  0  0  0  0  0  0  0
   18.1708  -23.5960  -11.0813 C   0  0  0  0  0  0  0  0  0  0  0  0
   17.8363  -23.0134  -12.2856 C   0  0  0  0  0  0  0  0  0  0  0  0
   16.5316  -22.5454  -12.4026 C   0  0  0  0  0  0  0  0  0  0  0  0
   15.6090  -22.6447  -11.3930 C   0  0  0  0  0  0  0  0  0  0  0  0
   15.9703  -23.2378  -10.1840 C   0  0  0  0  0  0  0  0  0  0  0  0
   17.2569  -23.7052  -10.0538 C   0  0  0  0  0  0  0  0  0  0  0  0
   16.9481  -26.2266   -5.8777 C   0  0  0  0  0  0  0  0  0  0  0  0
   15.8269  -26.7603   -5.9123 O   0  0  0  0  0  0  0  0  0  0  0  0
   19.9215  -27.8492   -1.9622 C   0  0  0  0  0  0  0  0  0  0  0  0
   18.6293  -27.7162   -2.7100 C   0  0  0  0  0  0  0  0  0  0  0  0
   17.9150  -26.4418   -2.3266 C   0  0  2  0  0  0  0  0  0  0  0  0
   17.2296  -26.5424   -0.9919 C   0  0  0  0  0  0  0  0  0  0  0  0
   16.8986  -26.0664   -3.3639 C   0  0  2  0  0  0  0  0  0  0  0  0
   17.5366  -25.8542   -4.6463 N   0  0  0  0  0  0  0  0  0  0  0  0
   16.0903  -24.8889   -2.9733 C   0  0  0  0  0  0  0  0  0  0  0  0
   16.6662  -23.7864   -2.8658 O   0  0  0  0  0  0  0  0  0  0  0  0
   14.7075  -24.9750   -2.7226 N   0  0  0  0  0  0  0  0  0  0  0  0
   13.9755  -23.7864   -2.3511 C   0  0  1  0  0  0  0  0  0  0  0  0
   12.7184  -23.7181   -3.1865 C   0  0  0  0  0  0  0  0  0  0  0  0
   13.2345  -23.2498   -4.8828 S   0  0  0  0  0  0  0  0  0  0  0  0
   13.7230  -23.7879   -0.8998 C   0  0  0  0  0  0  0  0  0  0  0  0
   13.6109  -24.8801   -0.3028 O   0  0  0  0  0  0  0  0  0  0  0  0
   13.6134  -22.5870   -0.2241 O   0  0  0  0  0  0  0  0  0  0  0  0
  2  1  1  6
  3  4  1  0
  3  2  1  0
  4 12  1  0
  5  4  2  0
  5  6  1  0
  6  7  1  0
  7  8  1  0
  8  9  2  0
 10  9  1  0
 11 10  2  0
 12  7  2  0
 12 11  1  0
 13 20  1  0
 13  2  1  0
 14 13  2  0
 16 15  1  0
 17 16  1  0
 17 18  1  1
 19 17  1  0
 19 20  1  6
 21 19  1  0
 22 21  2  0
 23 21  1  0
 24 27  1  0
 24 23  1  0
 24 25  1  6
 26 25  1  0
 27 29  1  0
 28 27  2  0
M  END
$$$$
