WIC.pdb
     RDKit          3D

 29 30  0  0  1  0  0  0  0  0999 V2000
   26.8125  -21.1121  -13.7808 N   0  0  0  0  0  0  0  0  0  0  0  0
   26.0409  -20.2981  -12.8919 C   0  0  1  0  0  0  0  0  0  0  0  0
   24.7129  -19.9782  -13.5661 C   0  0  0  0  0  0  0  0  0  0  0  0
   24.9612  -19.3197  -14.8745 C   0  0  0  0  0  0  0  0  0  0  0  0
   24.6182  -19.7432  -16.1417 C   0  0  0  0  0  0  0  0  0  0  0  0
   25.0436  -18.8281  -17.0344 N   0  0  0  0  0  0  0  0  0  0  0  0
   25.6568  -17.8114  -16.4112 C   0  0  0  0  0  0  0  0  0  0  0  0
   26.2504  -16.6579  -16.8790 C   0  0  0  0  0  0  0  0  0  0  0  0
   26.7982  -15.8136  -15.9188 C   0  0  0  0  0  0  0  0  0  0  0  0
   26.7641  -16.0882  -14.5757 C   0  0  0  0  0  0  0  0  0  0  0  0
   26.1584  -17.2608  -14.1263 C   0  0  0  0  0  0  0  0  0  0  0  0
   25.6124  -18.1053  -15.0641 C   0  0  0  0  0  0  0  0  0  0  0  0
   25.7141  -20.9847  -11.6170 C   0  0  0  0  0  0  0  0  0  0  0  0
   25.4184  -22.1911  -11.6321 O   0  0  0  0  0  0  0  0  0  0  0  0
   28.0451  -19.1983   -7.0689 C   0  0  0  0  0  0  0  0  0  0  0  0
   27.4242  -20.0837   -8.1068 C   0  0  0  0  0  0  0  0  0  0  0  0
   25.9181  -20.0706   -7.9934 C   0  0  2  0  0  0  0  0  0  0  0  0
   25.4301  -20.6749   -6.7057 C   0  0  0  0  0  0  0  0  0  0  0  0
   25.2898  -20.8058   -9.1400 C   0  0  2  0  0  0  0  0  0  0  0  0
   25.7428  -20.2600  -10.4024 N   0  0  0  0  0  0  0  0  0  0  0  0
   23.8109  -20.8198   -9.0694 C   0  0  0  0  0  0  0  0  0  0  0  0
   23.1984  -19.7568   -9.3009 O   0  0  0  0  0  0  0  0  0  0  0  0
   23.0835  -21.9830   -8.7525 N   0  0  0  0  0  0  0  0  0  0  0  0
   21.6525  -21.9015   -8.5729 C   0  0  1  0  0  0  0  0  0  0  0  0
   20.9842  -22.6007   -9.7335 C   0  0  0  0  0  0  0  0  0  0  0  0
   19.2208  -22.8158   -9.2780 S   0  0  0  0  0  0  0  0  0  0  0  0
   21.2818  -22.4508   -7.2573 C   0  0  0  0  0  0  0  0  0  0  0  0
   21.9881  -23.3495   -6.7521 O   0  0  0  0  0  0  0  0  0  0  0  0
   20.1630  -21.9667   -6.6053 O   0  0  0  0  0  0  0  0  0  0  0  0
  2  1  1  6
  3  4  1  0
  3  2  1  0
  4 12  1  0
  5  4  2  0
  5  6  1  0
  6  7  1  0
  7  8  1  0
  8  9  2  0
 10  9  1  0
 11 10  2  0
 12  7  2  0
 12 11  1  0
 13 20  1  0
 13  2  1  0
 14 13  2  0
 16 15  1  0
 17 16  1  0
 17 18  1  1
 19 17  1  0
 19 20  1  6
 21 19  1  0
 22 21  2  0
 23 21  1  0
 24 27  1  0
 24 23  1  0
 24 25  1  6
 26 25  1  0
 27 29  1  0
 28 27  2  0
M  END
$$$$
