WIC.pdb
     RDKit          3D

 29 30  0  0  1  0  0  0  0  0999 V2000
   26.0213  -21.0793  -13.7325 N   0  0  0  0  0  0  0  0  0  0  0  0
   24.9101  -20.5656  -12.9912 C   0  0  1  0  0  0  0  0  0  0  0  0
   23.6359  -20.8601  -13.7722 C   0  0  0  0  0  0  0  0  0  0  0  0
   23.5976  -20.0265  -15.0012 C   0  0  0  0  0  0  0  0  0  0  0  0
   24.4056  -20.0833  -16.1179 C   0  0  0  0  0  0  0  0  0  0  0  0
   24.0085  -19.1352  -16.9888 N   0  0  0  0  0  0  0  0  0  0  0  0
   22.9673  -18.4488  -16.4959 C   0  0  0  0  0  0  0  0  0  0  0  0
   22.2226  -17.4029  -16.9991 C   0  0  0  0  0  0  0  0  0  0  0  0
   21.1936  -16.9334  -16.1894 C   0  0  0  0  0  0  0  0  0  0  0  0
   20.9133  -17.4623  -14.9556 C   0  0  0  0  0  0  0  0  0  0  0  0
   21.6801  -18.5196  -14.4677 C   0  0  0  0  0  0  0  0  0  0  0  0
   22.7010  -18.9943  -15.2572 C   0  0  0  0  0  0  0  0  0  0  0  0
   24.7526  -21.2122  -11.6643 C   0  0  0  0  0  0  0  0  0  0  0  0
   24.7448  -22.4520  -11.5867 O   0  0  0  0  0  0  0  0  0  0  0  0
   27.2095  -19.1534   -7.4126 C   0  0  0  0  0  0  0  0  0  0  0  0
   26.5418  -20.0810   -8.3824 C   0  0  0  0  0  0  0  0  0  0  0  0
   25.0518  -20.1307   -8.1398 C   0  0  2  0  0  0  0  0  0  0  0  0
   24.7049  -20.6828   -6.7847 C   0  0  0  0  0  0  0  0  0  0  0  0
   24.3675  -20.9579   -9.1875 C   0  0  2  0  0  0  0  0  0  0  0  0
   24.6135  -20.4121  -10.5059 N   0  0  0  0  0  0  0  0  0  0  0  0
   22.9156  -21.1089   -8.9393 C   0  0  0  0  0  0  0  0  0  0  0  0
   22.1587  -20.1744   -9.2748 O   0  0  0  0  0  0  0  0  0  0  0  0
   22.3699  -22.2618   -8.3431 N   0  0  0  0  0  0  0  0  0  0  0  0
   20.9570  -22.3096   -8.0461 C   0  0  1  0  0  0  0  0  0  0  0  0
   20.2605  -23.0636   -9.1547 C   0  0  0  0  0  0  0  0  0  0  0  0
   18.5559  -23.4070   -8.5719 S   0  0  0  0  0  0  0  0  0  0  0  0
   20.7466  -22.8926   -6.7098 C   0  0  0  0  0  0  0  0  0  0  0  0
   21.5974  -23.6844   -6.2505 O   0  0  0  0  0  0  0  0  0  0  0  0
   19.6160  -22.5573   -5.9884 O   0  0  0  0  0  0  0  0  0  0  0  0
  2  1  1  6
  3  4  1  0
  3  2  1  0
  4 12  1  0
  5  4  2  0
  5  6  1  0
  6  7  1  0
  7  8  1  0
  8  9  2  0
 10  9  1  0
 11 10  2  0
 12  7  2  0
 12 11  1  0
 13 20  1  0
 13  2  1  0
 14 13  2  0
 16 15  1  0
 17 16  1  0
 17 18  1  1
 19 17  1  0
 19 20  1  6
 21 19  1  0
 22 21  2  0
 23 21  1  0
 24 27  1  0
 24 23  1  0
 24 25  1  6
 26 25  1  0
 27 29  1  0
 28 27  2  0
M  END
$$$$
