WIC.pdb
     RDKit          3D

 29 30  0  0  1  0  0  0  0  0999 V2000
   23.4342  -17.7155  -17.8639 N   0  0  0  0  0  0  0  0  0  0  0  0
   23.5293  -18.0388  -16.4730 C   0  0  1  0  0  0  0  0  0  0  0  0
   22.1584  -18.4978  -15.9930 C   0  0  0  0  0  0  0  0  0  0  0  0
   21.1732  -17.3994  -16.1666 C   0  0  0  0  0  0  0  0  0  0  0  0
   21.3765  -16.0352  -16.1435 C   0  0  0  0  0  0  0  0  0  0  0  0
   20.1963  -15.4178  -16.3459 N   0  0  0  0  0  0  0  0  0  0  0  0
   19.2144  -16.3175  -16.5030 C   0  0  0  0  0  0  0  0  0  0  0  0
   17.8609  -16.1847  -16.7303 C   0  0  0  0  0  0  0  0  0  0  0  0
   17.1358  -17.3666  -16.8421 C   0  0  0  0  0  0  0  0  0  0  0  0
   17.7093  -18.6077  -16.7361 C   0  0  0  0  0  0  0  0  0  0  0  0
   19.0801  -18.7169  -16.5060 C   0  0  0  0  0  0  0  0  0  0  0  0
   19.8099  -17.5570  -16.3934 C   0  0  0  0  0  0  0  0  0  0  0  0
   24.4685  -19.1561  -16.2027 C   0  0  0  0  0  0  0  0  0  0  0  0
   24.2794  -20.2572  -16.7459 O   0  0  0  0  0  0  0  0  0  0  0  0
   29.5249  -18.2981  -16.7253 C   0  0  0  0  0  0  0  0  0  0  0  0
   28.1255  -18.8088  -16.5597 C   0  0  0  0  0  0  0  0  0  0  0  0
   27.9375  -19.4293  -15.1955 C   0  0  2  0  0  0  0  0  0  0  0  0
   28.9252  -20.5292  -14.9197 C   0  0  0  0  0  0  0  0  0  0  0  0
   26.5497  -19.9781  -15.0449 C   0  0  2  0  0  0  0  0  0  0  0  0
   25.5655  -18.9556  -15.3322 N   0  0  0  0  0  0  0  0  0  0  0  0
   26.3139  -20.5808  -13.7131 C   0  0  0  0  0  0  0  0  0  0  0  0
   27.1928  -21.3310  -13.2404 O   0  0  0  0  0  0  0  0  0  0  0  0
   25.1416  -20.3356  -12.9729 N   0  0  0  0  0  0  0  0  0  0  0  0
   25.0249  -20.8557  -11.6304 C   0  0  1  0  0  0  0  0  0  0  0  0
   26.0728  -20.1924  -10.7676 C   0  0  0  0  0  0  0  0  0  0  0  0
   25.7227  -20.6848   -9.0361 S   0  0  0  0  0  0  0  0  0  0  0  0
   23.6485  -20.6688  -11.1398 C   0  0  0  0  0  0  0  0  0  0  0  0
   23.2501  -21.3500  -10.1708 O   0  0  0  0  0  0  0  0  0  0  0  0
   22.8224  -19.7478  -11.7566 O   0  0  0  0  0  0  0  0  0  0  0  0
  2  1  1  6
  3  4  1  0
  3  2  1  0
  4 12  1  0
  5  4  2  0
  5  6  1  0
  6  7  1  0
  7  8  1  0
  8  9  2  0
 10  9  1  0
 11 10  2  0
 12  7  2  0
 12 11  1  0
 13 20  1  0
 13  2  1  0
 14 13  2  0
 16 15  1  0
 17 16  1  0
 17 18  1  6
 19 17  1  0
 19 20  1  1
 21 19  1  0
 22 21  2  0
 23 21  1  0
 24 27  1  0
 24 23  1  0
 24 25  1  1
 26 25  1  0
 27 29  1  0
 28 27  2  0
M  END
$$$$
