WIC.pdb
     RDKit          3D

 29 30  0  0  1  0  0  0  0  0999 V2000
   25.1465  -20.0304  -15.3016 N   0  0  0  0  0  0  0  0  0  0  0  0
   24.5946  -21.2884  -14.9007 C   0  0  1  0  0  0  0  0  0  0  0  0
   25.6606  -22.0550  -14.1283 C   0  0  0  0  0  0  0  0  0  0  0  0
   26.6338  -22.6538  -15.0778 C   0  0  0  0  0  0  0  0  0  0  0  0
   27.7259  -22.0726  -15.6879 C   0  0  0  0  0  0  0  0  0  0  0  0
   28.3242  -22.9909  -16.4715 N   0  0  0  0  0  0  0  0  0  0  0  0
   27.6731  -24.1614  -16.4073 C   0  0  0  0  0  0  0  0  0  0  0  0
   27.8915  -25.3800  -17.0145 C   0  0  0  0  0  0  0  0  0  0  0  0
   26.9901  -26.3933  -16.7049 C   0  0  0  0  0  0  0  0  0  0  0  0
   25.9346  -26.2177  -15.8474 C   0  0  0  0  0  0  0  0  0  0  0  0
   25.7339  -24.9763  -15.2451 C   0  0  0  0  0  0  0  0  0  0  0  0
   26.6171  -23.9650  -15.5417 C   0  0  0  0  0  0  0  0  0  0  0  0
   23.4321  -21.1448  -13.9888 C   0  0  0  0  0  0  0  0  0  0  0  0
   23.4443  -20.2573  -13.1197 O   0  0  0  0  0  0  0  0  0  0  0  0
   18.7784  -19.9342  -15.4966 C   0  0  0  0  0  0  0  0  0  0  0  0
   20.1570  -20.4666  -15.2458 C   0  0  0  0  0  0  0  0  0  0  0  0
   20.4483  -20.5282  -13.7651 C   0  0  2  0  0  0  0  0  0  0  0  0
   21.3446  -19.4116  -13.3053 C   0  0  0  0  0  0  0  0  0  0  0  0
   21.0825  -21.8375  -13.3995 C   0  0  2  0  0  0  0  0  0  0  0  0
   22.3262  -22.0175  -14.1189 N   0  0  0  0  0  0  0  0  0  0  0  0
   20.1775  -22.9903  -13.6099 C   0  0  0  0  0  0  0  0  0  0  0  0
   20.1486  -23.5201  -14.7400 O   0  0  0  0  0  0  0  0  0  0  0  0
   19.3581  -23.5007  -12.5849 N   0  0  0  0  0  0  0  0  0  0  0  0
   18.4033  -24.5415  -12.8879 C   0  0  1  0  0  0  0  0  0  0  0  0
   18.1722  -25.3573  -11.6374 C   0  0  0  0  0  0  0  0  0  0  0  0
   16.9840  -26.6819  -12.0812 S   0  0  0  0  0  0  0  0  0  0  0  0
   17.1751  -23.9469  -13.4428 C   0  0  0  0  0  0  0  0  0  0  0  0
   16.6373  -24.4788  -14.4376 O   0  0  0  0  0  0  0  0  0  0  0  0
   16.6394  -22.8147  -12.8579 O   0  0  0  0  0  0  0  0  0  0  0  0
  2  1  1  1
  3  4  1  0
  3  2  1  0
  4 12  1  0
  5  4  2  0
  5  6  1  0
  6  7  1  0
  7  8  1  0
  8  9  2  0
 10  9  1  0
 11 10  2  0
 12  7  2  0
 12 11  1  0
 13 20  1  0
 13  2  1  0
 14 13  2  0
 16 15  1  0
 17 16  1  0
 17 18  1  6
 19 17  1  0
 19 20  1  6
 21 19  1  0
 22 21  2  0
 23 21  1  0
 24 27  1  0
 24 23  1  0
 24 25  1  1
 26 25  1  0
 27 29  1  0
 28 27  2  0
M  END
$$$$
