WIC.pdb
     RDKit          3D

 29 30  0  0  1  0  0  0  0  0999 V2000
   24.9300  -20.7393  -13.9256 N   0  0  0  0  0  0  0  0  0  0  0  0
   23.9501  -20.1531  -13.0629 C   0  0  1  0  0  0  0  0  0  0  0  0
   22.6088  -20.1630  -13.7848 C   0  0  0  0  0  0  0  0  0  0  0  0
   22.6803  -19.2927  -14.9867 C   0  0  0  0  0  0  0  0  0  0  0  0
   23.4242  -18.1492  -15.1911 C   0  0  0  0  0  0  0  0  0  0  0  0
   23.1768  -17.6875  -16.4324 N   0  0  0  0  0  0  0  0  0  0  0  0
   22.2969  -18.4788  -17.0630 C   0  0  0  0  0  0  0  0  0  0  0  0
   21.7386  -18.4277  -18.3228 C   0  0  0  0  0  0  0  0  0  0  0  0
   20.8420  -19.4424  -18.6413 C   0  0  0  0  0  0  0  0  0  0  0  0
   20.5134  -20.4494  -17.7704 C   0  0  0  0  0  0  0  0  0  0  0  0
   21.0908  -20.4802  -16.5017 C   0  0  0  0  0  0  0  0  0  0  0  0
   21.9792  -19.4836  -16.1728 C   0  0  0  0  0  0  0  0  0  0  0  0
   23.7590  -20.9157  -11.8037 C   0  0  0  0  0  0  0  0  0  0  0  0
   23.3809  -22.0977  -11.8576 O   0  0  0  0  0  0  0  0  0  0  0  0
   26.7618  -19.1653   -7.6555 C   0  0  0  0  0  0  0  0  0  0  0  0
   26.0604  -20.1209   -8.5729 C   0  0  0  0  0  0  0  0  0  0  0  0
   24.5989  -20.2393   -8.2105 C   0  0  2  0  0  0  0  0  0  0  0  0
   24.3831  -20.9548   -6.9055 C   0  0  0  0  0  0  0  0  0  0  0  0
   23.8384  -20.9571   -9.2858 C   0  0  2  0  0  0  0  0  0  0  0  0
   24.0088  -20.2900  -10.5596 N   0  0  0  0  0  0  0  0  0  0  0  0
   22.4030  -21.1193   -8.9608 C   0  0  0  0  0  0  0  0  0  0  0  0
   21.6495  -20.1345   -9.1062 O   0  0  0  0  0  0  0  0  0  0  0  0
   21.8691  -22.3372   -8.4980 N   0  0  0  0  0  0  0  0  0  0  0  0
   20.5208  -22.3732   -7.9810 C   0  0  1  0  0  0  0  0  0  0  0  0
   19.6865  -23.2537   -8.8817 C   0  0  0  0  0  0  0  0  0  0  0  0
   18.0939  -23.5374   -8.0179 S   0  0  0  0  0  0  0  0  0  0  0  0
   20.5363  -22.8103   -6.5744 C   0  0  0  0  0  0  0  0  0  0  0  0
   21.4712  -23.5359   -6.1729 O   0  0  0  0  0  0  0  0  0  0  0  0
   19.5207  -22.4138   -5.7244 O   0  0  0  0  0  0  0  0  0  0  0  0
  2  1  1  6
  3  4  1  0
  3  2  1  0
  4 12  1  0
  5  4  2  0
  5  6  1  0
  6  7  1  0
  7  8  1  0
  8  9  2  0
 10  9  1  0
 11 10  2  0
 12  7  2  0
 12 11  1  0
 13 20  1  0
 13  2  1  0
 14 13  2  0
 16 15  1  0
 17 16  1  0
 17 18  1  1
 19 17  1  0
 19 20  1  6
 21 19  1  0
 22 21  2  0
 23 21  1  0
 24 27  1  0
 24 23  1  0
 24 25  1  6
 26 25  1  0
 27 29  1  0
 28 27  2  0
M  END
$$$$
