WIC.pdb
     RDKit          3D

 29 30  0  0  1  0  0  0  0  0999 V2000
   23.1453  -19.3834  -18.5651 N   0  0  0  0  0  0  0  0  0  0  0  0
   23.3169  -18.7192  -17.3091 C   0  0  1  0  0  0  0  0  0  0  0  0
   21.9649  -18.6594  -16.6100 C   0  0  0  0  0  0  0  0  0  0  0  0
   21.1159  -17.6212  -17.2492 C   0  0  0  0  0  0  0  0  0  0  0  0
   21.4470  -16.3364  -17.6266 C   0  0  0  0  0  0  0  0  0  0  0  0
   20.3615  -15.7507  -18.1688 N   0  0  0  0  0  0  0  0  0  0  0  0
   19.3200  -16.5953  -18.1672 C   0  0  0  0  0  0  0  0  0  0  0  0
   18.0187  -16.4658  -18.6046 C   0  0  0  0  0  0  0  0  0  0  0  0
   17.1988  -17.5771  -18.4377 C   0  0  0  0  0  0  0  0  0  0  0  0
   17.6341  -18.7485  -17.8729 C   0  0  0  0  0  0  0  0  0  0  0  0
   18.9544  -18.8559  -17.4380 C   0  0  0  0  0  0  0  0  0  0  0  0
   19.7767  -17.7653  -17.5966 C   0  0  0  0  0  0  0  0  0  0  0  0
   24.2352  -19.4425  -16.3940 C   0  0  0  0  0  0  0  0  0  0  0  0
   24.0029  -20.6292  -16.1091 O   0  0  0  0  0  0  0  0  0  0  0  0
   29.4967  -18.2719  -16.7149 C   0  0  0  0  0  0  0  0  0  0  0  0
   28.1382  -18.8855  -16.5571 C   0  0  0  0  0  0  0  0  0  0  0  0
   27.6701  -18.7938  -15.1240 C   0  0  2  0  0  0  0  0  0  0  0  0
   28.6160  -19.4599  -14.1633 C   0  0  0  0  0  0  0  0  0  0  0  0
   26.3105  -19.4074  -14.9660 C   0  0  2  0  0  0  0  0  0  0  0  0
   25.3614  -18.7749  -15.8580 N   0  0  0  0  0  0  0  0  0  0  0  0
   25.8263  -19.3734  -13.5671 C   0  0  0  0  0  0  0  0  0  0  0  0
   25.0595  -18.4477  -13.2298 O   0  0  0  0  0  0  0  0  0  0  0  0
   26.2009  -20.3429  -12.6173 N   0  0  0  0  0  0  0  0  0  0  0  0
   25.5374  -20.3772  -11.3346 C   0  0  1  0  0  0  0  0  0  0  0  0
   24.0872  -20.7385  -11.5558 C   0  0  0  0  0  0  0  0  0  0  0  0
   23.3352  -20.9506   -9.8967 S   0  0  0  0  0  0  0  0  0  0  0  0
   26.2461  -21.2985  -10.4297 C   0  0  0  0  0  0  0  0  0  0  0  0
   26.5287  -22.4480  -10.8307 O   0  0  0  0  0  0  0  0  0  0  0  0
   26.5853  -20.8798   -9.1567 O   0  0  0  0  0  0  0  0  0  0  0  0
  2  1  1  6
  3  4  1  0
  3  2  1  0
  4 12  1  0
  5  4  2  0
  5  6  1  0
  6  7  1  0
  7  8  1  0
  8  9  2  0
 10  9  1  0
 11 10  2  0
 12  7  2  0
 12 11  1  0
 13 20  1  0
 13  2  1  0
 14 13  2  0
 16 15  1  0
 17 16  1  0
 17 18  1  1
 19 17  1  0
 19 20  1  6
 21 19  1  0
 22 21  2  0
 23 21  1  0
 24 27  1  0
 24 23  1  0
 24 25  1  6
 26 25  1  0
 27 29  1  0
 28 27  2  0
M  END
$$$$
