GHM.pdb
     RDKit          3D

 23 23  0  0  1  0  0  0  0  0999 V2000
   27.7625  -22.2188  -15.4634 N   0  0  0  0  0  0  0  0  0  0  0  0
   27.8325  -20.8203  -15.1663 C   0  0  0  0  0  0  0  0  0  0  0  0
   27.0329  -20.4403  -13.9777 C   0  0  0  0  0  0  0  0  0  0  0  0
   27.3792  -19.4107  -13.3461 O   0  0  0  0  0  0  0  0  0  0  0  0
   25.9028  -21.1808  -13.5244 N   0  0  0  0  0  0  0  0  0  0  0  0
   25.0844  -20.6174  -12.4643 C   0  0  1  0  0  0  0  0  0  0  0  0
   23.6363  -20.9849  -12.6537 C   0  0  0  0  0  0  0  0  0  0  0  0
   22.9887  -20.1309  -13.6828 C   0  0  0  0  0  0  0  0  0  0  0  0
   23.5316  -18.9385  -14.1172 C   0  0  0  0  0  0  0  0  0  0  0  0
   22.6866  -18.4294  -15.0483 N   0  0  0  0  0  0  0  0  0  0  0  0
   21.6568  -19.2705  -15.1901 C   0  0  0  0  0  0  0  0  0  0  0  0
   21.8425  -20.3228  -14.3463 N   0  0  0  0  0  0  0  0  0  0  0  0
   25.5547  -21.1612  -11.1464 C   0  0  0  0  0  0  0  0  0  0  0  0
   25.7002  -22.3928  -10.9438 O   0  0  0  0  0  0  0  0  0  0  0  0
   28.0411  -19.1144   -3.8953 C   0  0  0  0  0  0  0  0  0  0  0  0
   27.6605  -18.5891   -5.5886 S   0  0  0  0  0  0  0  0  0  0  0  0
   27.0203  -19.9865   -6.5222 C   0  0  0  0  0  0  0  0  0  0  0  0
   26.7679  -19.6347   -7.9689 C   0  0  0  0  0  0  0  0  0  0  0  0
   26.1374  -20.7723   -8.7432 C   0  0  2  0  0  0  0  0  0  0  0  0
   25.8530  -20.2811  -10.0741 N   0  0  0  0  0  0  0  0  0  0  0  0
   24.8685  -21.1090   -8.0312 C   0  0  0  0  0  0  0  0  0  0  0  0
   23.7548  -20.7110   -8.3929 O   0  0  0  0  0  0  0  0  0  0  0  0
   24.9400  -21.9097   -6.9057 O   0  0  0  0  0  0  0  0  0  0  0  0
  2  1  1  0
  3  2  1  0
  4  3  2  0
  5  3  1  0
  6 13  1  0
  6  5  1  0
  6  7  1  6
  8  7  1  0
  9  8  2  0
 10 11  1  0
 10  9  1  0
 11 12  2  0
 12  8  1  0
 13 20  1  0
 14 13  2  0
 15 16  1  0
 16 17  1  0
 18 17  1  0
 19 18  1  1
 19 21  1  0
 20 19  1  0
 21 22  2  0
 21 23  1  0
M  END
$$$$
