GHM.pdb
     RDKit          3D

 23 23  0  0  1  0  0  0  0  0999 V2000
   18.0797  -25.0700   -6.1928 N   0  0  0  0  0  0  0  0  0  0  0  0
   17.0489  -25.6455   -5.3833 C   0  0  0  0  0  0  0  0  0  0  0  0
   16.3940  -24.6588   -4.4921 C   0  0  0  0  0  0  0  0  0  0  0  0
   17.1135  -23.7613   -3.9864 O   0  0  0  0  0  0  0  0  0  0  0  0
   15.0022  -24.6818   -4.1866 N   0  0  0  0  0  0  0  0  0  0  0  0
   14.4364  -23.5675   -3.4455 C   0  0  1  0  0  0  0  0  0  0  0  0
   12.9764  -23.3945   -3.7714 C   0  0  0  0  0  0  0  0  0  0  0  0
   12.7869  -22.7983   -5.1190 C   0  0  0  0  0  0  0  0  0  0  0  0
   12.4594  -23.5478   -6.2310 C   0  0  0  0  0  0  0  0  0  0  0  0
   12.3666  -22.6908   -7.2784 N   0  0  0  0  0  0  0  0  0  0  0  0
   12.6258  -21.4550   -6.8383 C   0  0  0  0  0  0  0  0  0  0  0  0
   12.8859  -21.5203   -5.5035 N   0  0  0  0  0  0  0  0  0  0  0  0
   14.5767  -23.8403   -1.9759 C   0  0  0  0  0  0  0  0  0  0  0  0
   14.5156  -25.0024   -1.5019 O   0  0  0  0  0  0  0  0  0  0  0  0
   15.7943  -19.1943    3.4367 C   0  0  0  0  0  0  0  0  0  0  0  0
   17.0097  -20.4374    2.9213 S   0  0  0  0  0  0  0  0  0  0  0  0
   16.1551  -21.8995    2.3163 C   0  0  0  0  0  0  0  0  0  0  0  0
   15.7762  -21.7734    0.8600 C   0  0  0  0  0  0  0  0  0  0  0  0
   15.0784  -23.0081    0.3311 C   0  0  2  0  0  0  0  0  0  0  0  0
   14.7860  -22.7716   -1.0661 N   0  0  0  0  0  0  0  0  0  0  0  0
   13.8122  -23.1389    1.1121 C   0  0  0  0  0  0  0  0  0  0  0  0
   12.7811  -22.5062    0.8547 O   0  0  0  0  0  0  0  0  0  0  0  0
   13.7887  -24.0147    2.1823 O   0  0  0  0  0  0  0  0  0  0  0  0
  2  1  1  0
  3  2  1  0
  4  3  2  0
  5  3  1  0
  6 13  1  0
  6  5  1  0
  6  7  1  1
  8  7  1  0
  9  8  2  0
 10 11  1  0
 10  9  1  0
 11 12  2  0
 12  8  1  0
 13 20  1  0
 14 13  2  0
 15 16  1  0
 16 17  1  0
 18 17  1  0
 19 18  1  1
 19 21  1  0
 20 19  1  0
 21 22  2  0
 21 23  1  0
M  END
$$$$
