GHM.pdb
     RDKit          3D

 23 23  0  0  1  0  0  0  0  0999 V2000
   24.7726   -4.0785  -19.3897 N   0  0  0  0  0  0  0  0  0  0  0  0
   24.0143   -4.0089  -18.1777 C   0  0  0  0  0  0  0  0  0  0  0  0
   22.9244   -5.0115  -18.1184 C   0  0  0  0  0  0  0  0  0  0  0  0
   22.0464   -4.9731  -19.0163 O   0  0  0  0  0  0  0  0  0  0  0  0
   22.8286   -6.0052  -17.1013 N   0  0  0  0  0  0  0  0  0  0  0  0
   21.6593   -6.8673  -17.0820 C   0  0  1  0  0  0  0  0  0  0  0  0
   22.0634   -8.3150  -16.9895 C   0  0  0  0  0  0  0  0  0  0  0  0
   22.5746   -8.8211  -18.2896 C   0  0  0  0  0  0  0  0  0  0  0  0
   23.9162   -9.0319  -18.5367 C   0  0  0  0  0  0  0  0  0  0  0  0
   24.0219   -9.4906  -19.8089 N   0  0  0  0  0  0  0  0  0  0  0  0
   22.7950   -9.5635  -20.3357 C   0  0  0  0  0  0  0  0  0  0  0  0
   21.8994   -9.1499  -19.3973 N   0  0  0  0  0  0  0  0  0  0  0  0
   20.8196   -6.5205  -15.8869 C   0  0  0  0  0  0  0  0  0  0  0  0
   21.3247   -6.2680  -14.7644 O   0  0  0  0  0  0  0  0  0  0  0  0
   13.9953   -3.1861  -13.9282 C   0  0  0  0  0  0  0  0  0  0  0  0
   15.0182   -3.9310  -15.2271 S   0  0  0  0  0  0  0  0  0  0  0  0
   16.4371   -4.7465  -14.4817 C   0  0  0  0  0  0  0  0  0  0  0  0
   17.3547   -5.3492  -15.5186 C   0  0  0  0  0  0  0  0  0  0  0  0
   18.5753   -6.0023  -14.9066 C   0  0  2  0  0  0  0  0  0  0  0  0
   19.4058   -6.4679  -15.9961 N   0  0  0  0  0  0  0  0  0  0  0  0
   18.0728   -7.1583  -14.1055 C   0  0  0  0  0  0  0  0  0  0  0  0
   17.9210   -8.2958  -14.5666 O   0  0  0  0  0  0  0  0  0  0  0  0
   17.7593   -6.9478  -12.7749 O   0  0  0  0  0  0  0  0  0  0  0  0
  2  1  1  0
  3  2  1  0
  4  3  2  0
  5  3  1  0
  6 13  1  0
  6  5  1  0
  6  7  1  1
  8  7  1  0
  9  8  2  0
 10 11  1  0
 10  9  1  0
 11 12  2  0
 12  8  1  0
 13 20  1  0
 14 13  2  0
 15 16  1  0
 16 17  1  0
 18 17  1  0
 19 18  1  6
 19 21  1  0
 20 19  1  0
 21 22  2  0
 21 23  1  0
M  END
$$$$
