GHM.pdb
     RDKit          3D

 23 23  0  0  1  0  0  0  0  0999 V2000
   22.7746  -13.2121  -15.2215 N   0  0  0  0  0  0  0  0  0  0  0  0
   23.6680  -14.3297  -15.2663 C   0  0  0  0  0  0  0  0  0  0  0  0
   23.0166  -15.5728  -15.7426 C   0  0  0  0  0  0  0  0  0  0  0  0
   21.7973  -15.7294  -15.4828 O   0  0  0  0  0  0  0  0  0  0  0  0
   23.7025  -16.5860  -16.4733 N   0  0  0  0  0  0  0  0  0  0  0  0
   22.9497  -17.7421  -16.9294 C   0  0  1  0  0  0  0  0  0  0  0  0
   23.6497  -18.4166  -18.0795 C   0  0  0  0  0  0  0  0  0  0  0  0
   23.4855  -17.6496  -19.3414 C   0  0  0  0  0  0  0  0  0  0  0  0
   22.6946  -16.5222  -19.4358 C   0  0  0  0  0  0  0  0  0  0  0  0
   22.7746  -16.0831  -20.7168 N   0  0  0  0  0  0  0  0  0  0  0  0
   23.5833  -16.9035  -21.3957 C   0  0  0  0  0  0  0  0  0  0  0  0
   24.0234  -17.8724  -20.5464 N   0  0  0  0  0  0  0  0  0  0  0  0
   22.8258  -18.7190  -15.7963 C   0  0  0  0  0  0  0  0  0  0  0  0
   23.7896  -18.9885  -15.0363 O   0  0  0  0  0  0  0  0  0  0  0  0
   19.3992  -20.1970   -9.3212 C   0  0  0  0  0  0  0  0  0  0  0  0
   19.7773  -19.1700  -10.7670 S   0  0  0  0  0  0  0  0  0  0  0  0
   20.4988  -20.1922  -12.0587 C   0  0  0  0  0  0  0  0  0  0  0  0
   20.8972  -19.3808  -13.2684 C   0  0  0  0  0  0  0  0  0  0  0  0
   21.4077  -20.2413  -14.4041 C   0  0  2  0  0  0  0  0  0  0  0  0
   21.5929  -19.3765  -15.5493 N   0  0  0  0  0  0  0  0  0  0  0  0
   20.3382  -21.2467  -14.6796 C   0  0  0  0  0  0  0  0  0  0  0  0
   19.3682  -21.0294  -15.4155 O   0  0  0  0  0  0  0  0  0  0  0  0
   20.4355  -22.4893  -14.0802 O   0  0  0  0  0  0  0  0  0  0  0  0
  2  1  1  0
  3  2  1  0
  4  3  2  0
  5  3  1  0
  6 13  1  0
  6  5  1  0
  6  7  1  6
  8  7  1  0
  9  8  2  0
 10 11  1  0
 10  9  1  0
 11 12  2  0
 12  8  1  0
 13 20  1  0
 14 13  2  0
 15 16  1  0
 16 17  1  0
 18 17  1  0
 19 18  1  1
 19 21  1  0
 20 19  1  0
 21 22  2  0
 21 23  1  0
M  END
$$$$
