GHM.pdb
     RDKit          3D

 23 23  0  0  1  0  0  0  0  0999 V2000
   26.8012  -14.0458  -15.7644 N   0  0  0  0  0  0  0  0  0  0  0  0
   27.1544  -15.3912  -15.4263 C   0  0  0  0  0  0  0  0  0  0  0  0
   26.1558  -16.3849  -15.8863 C   0  0  0  0  0  0  0  0  0  0  0  0
   25.0082  -15.9661  -16.1804 O   0  0  0  0  0  0  0  0  0  0  0  0
   26.4350  -17.7771  -16.0087 N   0  0  0  0  0  0  0  0  0  0  0  0
   25.3474  -18.6741  -16.3602 C   0  0  1  0  0  0  0  0  0  0  0  0
   25.6026  -19.3279  -17.6926 C   0  0  0  0  0  0  0  0  0  0  0  0
   25.5774  -18.3361  -18.7987 C   0  0  0  0  0  0  0  0  0  0  0  0
   26.6996  -17.9978  -19.5278 C   0  0  0  0  0  0  0  0  0  0  0  0
   26.3177  -17.0747  -20.4455 N   0  0  0  0  0  0  0  0  0  0  0  0
   25.0089  -16.8454  -20.2957 C   0  0  0  0  0  0  0  0  0  0  0  0
   24.5501  -17.6247  -19.2778 N   0  0  0  0  0  0  0  0  0  0  0  0
   25.2383  -19.7406  -15.3093 C   0  0  0  0  0  0  0  0  0  0  0  0
   26.1756  -20.5424  -15.0693 O   0  0  0  0  0  0  0  0  0  0  0  0
   25.9969  -21.2879   -8.3406 C   0  0  0  0  0  0  0  0  0  0  0  0
   25.8585  -20.1614   -9.7548 S   0  0  0  0  0  0  0  0  0  0  0  0
   24.8368  -20.9167  -11.0276 C   0  0  0  0  0  0  0  0  0  0  0  0
   24.8181  -20.1011  -12.2983 C   0  0  0  0  0  0  0  0  0  0  0  0
   23.9833  -20.7397  -13.3875 C   0  0  2  0  0  0  0  0  0  0  0  0
   24.0505  -19.8734  -14.5445 N   0  0  0  0  0  0  0  0  0  0  0  0
   22.5863  -20.7983  -12.8627 C   0  0  0  0  0  0  0  0  0  0  0  0
   21.7064  -19.9843  -13.1670 O   0  0  0  0  0  0  0  0  0  0  0  0
   22.2560  -21.8178  -11.9883 O   0  0  0  0  0  0  0  0  0  0  0  0
  2  1  1  0
  3  2  1  0
  4  3  2  0
  5  3  1  0
  6 13  1  0
  6  5  1  0
  6  7  1  6
  8  7  1  0
  9  8  2  0
 10 11  1  0
 10  9  1  0
 11 12  2  0
 12  8  1  0
 13 20  1  0
 14 13  2  0
 15 16  1  0
 16 17  1  0
 18 17  1  0
 19 18  1  1
 19 21  1  0
 20 19  1  0
 21 22  2  0
 21 23  1  0
M  END
$$$$
