GHM.pdb
     RDKit          3D

 23 23  0  0  1  0  0  0  0  0999 V2000
   28.0999  -37.9280  -13.9055 N   0  0  0  0  0  0  0  0  0  0  0  0
   28.2892  -37.3717  -15.2108 C   0  0  0  0  0  0  0  0  0  0  0  0
   27.7587  -35.9934  -15.3351 C   0  0  0  0  0  0  0  0  0  0  0  0
   27.2765  -35.4584  -14.3055 O   0  0  0  0  0  0  0  0  0  0  0  0
   27.7707  -35.2565  -16.5549 N   0  0  0  0  0  0  0  0  0  0  0  0
   27.2067  -33.9175  -16.5617 C   0  0  1  0  0  0  0  0  0  0  0  0
   27.9599  -33.0246  -17.5121 C   0  0  0  0  0  0  0  0  0  0  0  0
   29.3773  -32.8615  -17.0973 C   0  0  0  0  0  0  0  0  0  0  0  0
   29.9015  -33.4588  -15.9687 C   0  0  0  0  0  0  0  0  0  0  0  0
   31.2076  -33.0999  -15.8957 N   0  0  0  0  0  0  0  0  0  0  0  0
   31.4883  -32.3097  -16.9372 C   0  0  0  0  0  0  0  0  0  0  0  0
   30.3574  -32.1616  -17.6809 N   0  0  0  0  0  0  0  0  0  0  0  0
   25.7737  -33.9961  -17.0022 C   0  0  0  0  0  0  0  0  0  0  0  0
   25.4364  -34.5216  -18.0926 O   0  0  0  0  0  0  0  0  0  0  0  0
   19.2278  -36.8106  -17.2320 C   0  0  0  0  0  0  0  0  0  0  0  0
   20.9666  -36.7043  -16.7286 S   0  0  0  0  0  0  0  0  0  0  0  0
   21.3323  -35.0316  -16.1786 C   0  0  0  0  0  0  0  0  0  0  0  0
   22.8049  -34.8316  -15.9105 C   0  0  0  0  0  0  0  0  0  0  0  0
   23.3478  -33.5729  -16.5525 C   0  0  2  0  0  0  0  0  0  0  0  0
   24.7427  -33.4686  -16.1823 N   0  0  0  0  0  0  0  0  0  0  0  0
   22.5695  -32.4386  -15.9710 C   0  0  0  0  0  0  0  0  0  0  0  0
   23.0632  -31.5773  -15.2334 O   0  0  0  0  0  0  0  0  0  0  0  0
   21.2230  -32.3438  -16.2724 O   0  0  0  0  0  0  0  0  0  0  0  0
  2  1  1  0
  3  2  1  0
  4  3  2  0
  5  3  1  0
  6 13  1  0
  6  5  1  0
  6  7  1  6
  8  7  1  0
  9  8  2  0
 10 11  1  0
 10  9  1  0
 11 12  2  0
 12  8  1  0
 13 20  1  0
 14 13  2  0
 15 16  1  0
 16 17  1  0
 18 17  1  0
 19 18  1  1
 19 21  1  0
 20 19  1  0
 21 22  2  0
 21 23  1  0
M  END
$$$$
