GHM.pdb
     RDKit          3D

 23 23  0  0  1  0  0  0  0  0999 V2000
   23.6392  -12.3028  -17.5934 N   0  0  0  0  0  0  0  0  0  0  0  0
   22.8595  -11.5382  -18.5189 C   0  0  0  0  0  0  0  0  0  0  0  0
   22.1055  -10.4391  -17.8709 C   0  0  0  0  0  0  0  0  0  0  0  0
   21.6421   -9.5344  -18.6095 O   0  0  0  0  0  0  0  0  0  0  0  0
   21.8848  -10.3631  -16.4650 N   0  0  0  0  0  0  0  0  0  0  0  0
   20.9853   -9.3406  -15.9585 C   0  0  1  0  0  0  0  0  0  0  0  0
   20.1672   -9.8691  -14.8100 C   0  0  0  0  0  0  0  0  0  0  0  0
   19.0376  -10.7078  -15.2874 C   0  0  0  0  0  0  0  0  0  0  0  0
   17.9683  -10.1940  -15.9931 C   0  0  0  0  0  0  0  0  0  0  0  0
   17.1338  -11.2282  -16.2652 N   0  0  0  0  0  0  0  0  0  0  0  0
   17.6607  -12.3439  -15.7499 C   0  0  0  0  0  0  0  0  0  0  0  0
   18.8377  -12.0234  -15.1452 N   0  0  0  0  0  0  0  0  0  0  0  0
   21.7978   -8.1730  -15.4789 C   0  0  0  0  0  0  0  0  0  0  0  0
   22.7246   -8.3017  -14.6400 O   0  0  0  0  0  0  0  0  0  0  0  0
   23.7637   -0.7189  -17.2262 C   0  0  0  0  0  0  0  0  0  0  0  0
   22.7291   -2.1581  -17.6087 S   0  0  0  0  0  0  0  0  0  0  0  0
   22.9864   -3.4314  -16.3651 C   0  0  0  0  0  0  0  0  0  0  0  0
   22.1431   -4.6569  -16.6247 C   0  0  0  0  0  0  0  0  0  0  0  0
   22.3383   -5.7306  -15.5759 C   0  0  2  0  0  0  0  0  0  0  0  0
   21.5352   -6.8679  -15.9701 N   0  0  0  0  0  0  0  0  0  0  0  0
   21.8332   -5.1575  -14.2926 C   0  0  0  0  0  0  0  0  0  0  0  0
   22.4992   -4.4072  -13.5694 O   0  0  0  0  0  0  0  0  0  0  0  0
   20.5508   -5.4819  -13.8887 O   0  0  0  0  0  0  0  0  0  0  0  0
  2  1  1  0
  3  2  1  0
  4  3  2  0
  5  3  1  0
  6 13  1  0
  6  5  1  0
  6  7  1  1
  8  7  1  0
  9  8  2  0
 10 11  1  0
 10  9  1  0
 11 12  2  0
 12  8  1  0
 13 20  1  0
 14 13  2  0
 15 16  1  0
 16 17  1  0
 18 17  1  0
 19 18  1  6
 19 21  1  0
 20 19  1  0
 21 22  2  0
 21 23  1  0
M  END
$$$$
