GHM.pdb
     RDKit          3D

 23 23  0  0  1  0  0  0  0  0999 V2000
   26.0655  -12.9944  -17.3201 N   0  0  0  0  0  0  0  0  0  0  0  0
   25.8580  -11.7143  -16.7139 C   0  0  0  0  0  0  0  0  0  0  0  0
   24.5305  -11.1341  -17.0265 C   0  0  0  0  0  0  0  0  0  0  0  0
   24.2694  -10.8895  -18.2310 O   0  0  0  0  0  0  0  0  0  0  0  0
   23.5489  -10.8447  -16.0347 N   0  0  0  0  0  0  0  0  0  0  0  0
   22.2543  -10.3452  -16.4655 C   0  0  1  0  0  0  0  0  0  0  0  0
   21.1520  -11.2787  -16.0397 C   0  0  0  0  0  0  0  0  0  0  0  0
   21.1240  -12.5052  -16.8779 C   0  0  0  0  0  0  0  0  0  0  0  0
   21.4846  -13.7487  -16.3992 C   0  0  0  0  0  0  0  0  0  0  0  0
   21.3413  -14.6284  -17.4217 N   0  0  0  0  0  0  0  0  0  0  0  0
   20.9084  -13.9612  -18.4966 C   0  0  0  0  0  0  0  0  0  0  0  0
   20.7737  -12.6484  -18.1616 N   0  0  0  0  0  0  0  0  0  0  0  0
   22.0200   -9.0005  -15.8405 C   0  0  0  0  0  0  0  0  0  0  0  0
   22.3643   -8.7417  -14.6600 O   0  0  0  0  0  0  0  0  0  0  0  0
   19.9312   -1.5442  -17.5540 C   0  0  0  0  0  0  0  0  0  0  0  0
   20.0057   -3.2708  -18.1029 S   0  0  0  0  0  0  0  0  0  0  0  0
   20.5839   -4.3071  -16.7517 C   0  0  0  0  0  0  0  0  0  0  0  0
   20.7225   -5.7530  -17.1647 C   0  0  0  0  0  0  0  0  0  0  0  0
   21.2373   -6.6315  -16.0447 C   0  0  2  0  0  0  0  0  0  0  0  0
   21.3910   -7.9665  -16.5812 N   0  0  0  0  0  0  0  0  0  0  0  0
   20.1855   -6.6154  -14.9845 C   0  0  0  0  0  0  0  0  0  0  0  0
   19.1887   -7.3473  -14.9986 O   0  0  0  0  0  0  0  0  0  0  0  0
   20.3321   -5.7349  -13.9280 O   0  0  0  0  0  0  0  0  0  0  0  0
  2  1  1  0
  3  2  1  0
  4  3  2  0
  5  3  1  0
  6 13  1  0
  6  5  1  0
  6  7  1  1
  8  7  1  0
  9  8  2  0
 10 11  1  0
 10  9  1  0
 11 12  2  0
 12  8  1  0
 13 20  1  0
 14 13  2  0
 15 16  1  0
 16 17  1  0
 18 17  1  0
 19 18  1  6
 19 21  1  0
 20 19  1  0
 21 22  2  0
 21 23  1  0
M  END
$$$$
