GHM.pdb
     RDKit          3D

 23 23  0  0  1  0  0  0  0  0999 V2000
   27.7613  -24.6604    9.3813 N   0  0  0  0  0  0  0  0  0  0  0  0
   27.7244  -23.2382    9.2233 C   0  0  0  0  0  0  0  0  0  0  0  0
   28.9510  -22.5689    9.7174 C   0  0  0  0  0  0  0  0  0  0  0  0
   29.5315  -23.0737   10.7109 O   0  0  0  0  0  0  0  0  0  0  0  0
   29.4950  -21.3930    9.1238 N   0  0  0  0  0  0  0  0  0  0  0  0
   30.6927  -20.8125    9.7066 C   0  0  1  0  0  0  0  0  0  0  0  0
   31.7067  -20.4944    8.6397 C   0  0  0  0  0  0  0  0  0  0  0  0
   32.6965  -21.5917    8.4857 C   0  0  0  0  0  0  0  0  0  0  0  0
   32.7199  -22.7009    9.3070 C   0  0  0  0  0  0  0  0  0  0  0  0
   33.7409  -23.4890    8.8868 N   0  0  0  0  0  0  0  0  0  0  0  0
   34.3319  -22.8958    7.8443 C   0  0  0  0  0  0  0  0  0  0  0  0
   33.6871  -21.7227    7.5954 N   0  0  0  0  0  0  0  0  0  0  0  0
   30.3211  -19.5432   10.4169 C   0  0  0  0  0  0  0  0  0  0  0  0
   29.5193  -18.7104    9.9244 O   0  0  0  0  0  0  0  0  0  0  0  0
   26.2547  -20.3656   14.0357 C   0  0  0  0  0  0  0  0  0  0  0  0
   28.0652  -20.2941   13.9638 S   0  0  0  0  0  0  0  0  0  0  0  0
   28.5983  -18.5770   13.9267 C   0  0  0  0  0  0  0  0  0  0  0  0
   30.0975  -18.4509   13.7973 C   0  0  0  0  0  0  0  0  0  0  0  0
   30.5291  -18.0382   12.4064 C   0  0  2  0  0  0  0  0  0  0  0  0
   30.8768  -19.2451   11.6881 N   0  0  0  0  0  0  0  0  0  0  0  0
   31.7336  -17.1729   12.5826 C   0  0  0  0  0  0  0  0  0  0  0  0
   32.8818  -17.5322   12.2962 O   0  0  0  0  0  0  0  0  0  0  0  0
   31.5580  -15.8998   13.0937 O   0  0  0  0  0  0  0  0  0  0  0  0
  2  1  1  0
  3  2  1  0
  4  3  2  0
  5  3  1  0
  6 13  1  0
  6  5  1  0
  6  7  1  6
  8  7  1  0
  9  8  2  0
 10 11  1  0
 10  9  1  0
 11 12  2  0
 12  8  1  0
 13 20  1  0
 14 13  2  0
 15 16  1  0
 16 17  1  0
 18 17  1  0
 19 18  1  1
 19 21  1  0
 20 19  1  0
 21 22  2  0
 21 23  1  0
M  END
$$$$
