GHM.pdb
     RDKit          3D

 23 23  0  0  1  0  0  0  0  0999 V2000
   27.7993  -21.1325  -16.1772 N   0  0  0  0  0  0  0  0  0  0  0  0
   27.9940  -21.6745  -14.8668 C   0  0  0  0  0  0  0  0  0  0  0  0
   27.2104  -20.9682  -13.8258 C   0  0  0  0  0  0  0  0  0  0  0  0
   27.5860  -19.8160  -13.4938 O   0  0  0  0  0  0  0  0  0  0  0  0
   26.0641  -21.5300  -13.1922 N   0  0  0  0  0  0  0  0  0  0  0  0
   25.3023  -20.7000  -12.2748 C   0  0  1  0  0  0  0  0  0  0  0  0
   23.8232  -20.8955  -12.4789 C   0  0  0  0  0  0  0  0  0  0  0  0
   23.3309  -20.1327  -13.6550 C   0  0  0  0  0  0  0  0  0  0  0  0
   24.1372  -19.2890  -14.3922 C   0  0  0  0  0  0  0  0  0  0  0  0
   23.3701  -18.7639  -15.3801 N   0  0  0  0  0  0  0  0  0  0  0  0
   22.1337  -19.2598  -15.2647 C   0  0  0  0  0  0  0  0  0  0  0  0
   22.1082  -20.1062  -14.1985 N   0  0  0  0  0  0  0  0  0  0  0  0
   25.6530  -21.0843  -10.8666 C   0  0  0  0  0  0  0  0  0  0  0  0
   25.5625  -22.2675  -10.4532 O   0  0  0  0  0  0  0  0  0  0  0  0
   28.7513  -19.9957   -4.1762 C   0  0  0  0  0  0  0  0  0  0  0  0
   28.5907  -19.8101   -5.9728 S   0  0  0  0  0  0  0  0  0  0  0  0
   26.9174  -19.2892   -6.3764 C   0  0  0  0  0  0  0  0  0  0  0  0
   26.7193  -19.1190   -7.8637 C   0  0  0  0  0  0  0  0  0  0  0  0
   26.2930  -20.4018   -8.5447 C   0  0  2  0  0  0  0  0  0  0  0  0
   26.1046  -20.1019   -9.9476 N   0  0  0  0  0  0  0  0  0  0  0  0
   24.9956  -20.7957   -7.9186 C   0  0  0  0  0  0  0  0  0  0  0  0
   23.8964  -20.3782   -8.3020 O   0  0  0  0  0  0  0  0  0  0  0  0
   25.0221  -21.6753   -6.8516 O   0  0  0  0  0  0  0  0  0  0  0  0
  2  1  1  0
  3  2  1  0
  4  3  2  0
  5  3  1  0
  6 13  1  0
  6  5  1  0
  6  7  1  6
  8  7  1  0
  9  8  2  0
 10 11  1  0
 10  9  1  0
 11 12  2  0
 12  8  1  0
 13 20  1  0
 14 13  2  0
 15 16  1  0
 16 17  1  0
 18 17  1  0
 19 18  1  1
 19 21  1  0
 20 19  1  0
 21 22  2  0
 21 23  1  0
M  END
$$$$
