GHM.pdb
     RDKit          3D

 23 23  0  0  1  0  0  0  0  0999 V2000
   27.8141  -17.1370  -18.1718 N   0  0  0  0  0  0  0  0  0  0  0  0
   26.4621  -16.9260  -17.7516 C   0  0  0  0  0  0  0  0  0  0  0  0
   25.7869  -18.1745  -17.3251 C   0  0  0  0  0  0  0  0  0  0  0  0
   24.8615  -18.6152  -18.0518 O   0  0  0  0  0  0  0  0  0  0  0  0
   26.1358  -18.8890  -16.1424 N   0  0  0  0  0  0  0  0  0  0  0  0
   25.3701  -20.0746  -15.7972 C   0  0  1  0  0  0  0  0  0  0  0  0
   26.2219  -21.0605  -15.0422 C   0  0  0  0  0  0  0  0  0  0  0  0
   27.3009  -21.6155  -15.8997 C   0  0  0  0  0  0  0  0  0  0  0  0
   27.3641  -21.3962  -17.2610 C   0  0  0  0  0  0  0  0  0  0  0  0
   28.4649  -22.0424  -17.7202 N   0  0  0  0  0  0  0  0  0  0  0  0
   29.0656  -22.6417  -16.6867 C   0  0  0  0  0  0  0  0  0  0  0  0
   28.3469  -22.3785  -15.5607 N   0  0  0  0  0  0  0  0  0  0  0  0
   24.2126  -19.6701  -14.9310 C   0  0  0  0  0  0  0  0  0  0  0  0
   24.3444  -18.8785  -13.9641 O   0  0  0  0  0  0  0  0  0  0  0  0
   18.6054  -16.3792  -12.7019 C   0  0  0  0  0  0  0  0  0  0  0  0
   20.0743  -16.8077  -13.6750 S   0  0  0  0  0  0  0  0  0  0  0  0
   19.7306  -18.2634  -14.6736 C   0  0  0  0  0  0  0  0  0  0  0  0
   20.9747  -18.8019  -15.3387 C   0  0  0  0  0  0  0  0  0  0  0  0
   21.7588  -19.7334  -14.4394 C   0  0  2  0  0  0  0  0  0  0  0  0
   22.9139  -20.1815  -15.1868 N   0  0  0  0  0  0  0  0  0  0  0  0
   20.8549  -20.8840  -14.1403 C   0  0  0  0  0  0  0  0  0  0  0  0
   20.8849  -21.9558  -14.7567 O   0  0  0  0  0  0  0  0  0  0  0  0
   19.9329  -20.7459  -13.1186 O   0  0  0  0  0  0  0  0  0  0  0  0
  2  1  1  0
  3  2  1  0
  4  3  2  0
  5  3  1  0
  6 13  1  0
  6  5  1  0
  6  7  1  1
  8  7  1  0
  9  8  2  0
 10 11  1  0
 10  9  1  0
 11 12  2  0
 12  8  1  0
 13 20  1  0
 14 13  2  0
 15 16  1  0
 16 17  1  0
 18 17  1  0
 19 18  1  6
 19 21  1  0
 20 19  1  0
 21 22  2  0
 21 23  1  0
M  END
$$$$
