GHM.pdb
     RDKit          3D

 23 23  0  0  1  0  0  0  0  0999 V2000
   15.5753  -13.8619  -16.7149 N   0  0  0  0  0  0  0  0  0  0  0  0
   15.7412  -12.6172  -16.0277 C   0  0  0  0  0  0  0  0  0  0  0  0
   17.1632  -12.2415  -15.8457 C   0  0  0  0  0  0  0  0  0  0  0  0
   17.5756  -12.0686  -14.6715 O   0  0  0  0  0  0  0  0  0  0  0  0
   18.0729  -12.0697  -16.9292 N   0  0  0  0  0  0  0  0  0  0  0  0
   19.4553  -11.7385  -16.6282 C   0  0  1  0  0  0  0  0  0  0  0  0
   20.3956  -12.5066  -17.5190 C   0  0  0  0  0  0  0  0  0  0  0  0
   20.3511  -13.9632  -17.2295 C   0  0  0  0  0  0  0  0  0  0  0  0
   19.6140  -14.4992  -16.1928 C   0  0  0  0  0  0  0  0  0  0  0  0
   19.8016  -15.8424  -16.2207 N   0  0  0  0  0  0  0  0  0  0  0  0
   20.6232  -16.1340  -17.2345 C   0  0  0  0  0  0  0  0  0  0  0  0
   20.9636  -14.9730  -17.8590 N   0  0  0  0  0  0  0  0  0  0  0  0
   19.6632  -10.2692  -16.8550 C   0  0  0  0  0  0  0  0  0  0  0  0
   19.0476   -9.6360  -17.7490 O   0  0  0  0  0  0  0  0  0  0  0  0
   22.3016   -3.7202  -13.3232 C   0  0  0  0  0  0  0  0  0  0  0  0
   22.2525   -5.5328  -13.3274 S   0  0  0  0  0  0  0  0  0  0  0  0
   21.5313   -6.1113  -14.8699 C   0  0  0  0  0  0  0  0  0  0  0  0
   21.3267   -7.6074  -14.8748 C   0  0  0  0  0  0  0  0  0  0  0  0
   20.7264   -8.1086  -16.1708 C   0  0  2  0  0  0  0  0  0  0  0  0
   20.5785   -9.5429  -16.0499 N   0  0  0  0  0  0  0  0  0  0  0  0
   21.7112   -7.7762  -17.2432 C   0  0  0  0  0  0  0  0  0  0  0  0
   22.6432   -8.5203  -17.5706 O   0  0  0  0  0  0  0  0  0  0  0  0
   21.5757   -6.5710  -17.9080 O   0  0  0  0  0  0  0  0  0  0  0  0
  2  1  1  0
  3  2  1  0
  4  3  2  0
  5  3  1  0
  6 13  1  0
  6  5  1  0
  6  7  1  6
  8  7  1  0
  9  8  2  0
 10 11  1  0
 10  9  1  0
 11 12  2  0
 12  8  1  0
 13 20  1  0
 14 13  2  0
 15 16  1  0
 16 17  1  0
 18 17  1  0
 19 18  1  1
 19 21  1  0
 20 19  1  0
 21 22  2  0
 21 23  1  0
M  END
$$$$
