GHM.pdb
     RDKit          3D

 23 23  0  0  1  0  0  0  0  0999 V2000
   21.8252   -9.8996  -21.8098 N   0  0  0  0  0  0  0  0  0  0  0  0
   20.5357  -10.0964  -21.2202 C   0  0  0  0  0  0  0  0  0  0  0  0
   20.5267   -9.8632  -19.7567 C   0  0  0  0  0  0  0  0  0  0  0  0
   20.3190  -10.8517  -19.0094 O   0  0  0  0  0  0  0  0  0  0  0  0
   20.7404   -8.5840  -19.1659 N   0  0  0  0  0  0  0  0  0  0  0  0
   20.6708   -8.4679  -17.7193 C   0  0  1  0  0  0  0  0  0  0  0  0
   21.3888   -7.2314  -17.2467 C   0  0  0  0  0  0  0  0  0  0  0  0
   21.2886   -7.0742  -15.7726 C   0  0  0  0  0  0  0  0  0  0  0  0
   21.9248   -7.9173  -14.8839 C   0  0  0  0  0  0  0  0  0  0  0  0
   21.6189   -7.4869  -13.6345 N   0  0  0  0  0  0  0  0  0  0  0  0
   20.8231   -6.4173  -13.7384 C   0  0  0  0  0  0  0  0  0  0  0  0
   20.6182   -6.1613  -15.0598 N   0  0  0  0  0  0  0  0  0  0  0  0
   19.2298   -8.3796  -17.3077 C   0  0  0  0  0  0  0  0  0  0  0  0
   18.4026   -7.6562  -17.9172 O   0  0  0  0  0  0  0  0  0  0  0  0
   13.1738  -12.1068  -14.1696 C   0  0  0  0  0  0  0  0  0  0  0  0
   14.8154  -12.1565  -14.9381 S   0  0  0  0  0  0  0  0  0  0  0  0
   15.3964  -10.4789  -15.2246 C   0  0  0  0  0  0  0  0  0  0  0  0
   16.8645  -10.4390  -15.5758 C   0  0  0  0  0  0  0  0  0  0  0  0
   17.3843   -9.0275  -15.7454 C   0  0  2  0  0  0  0  0  0  0  0  0
   18.7552   -9.1255  -16.1978 N   0  0  0  0  0  0  0  0  0  0  0  0
   17.3271   -8.3963  -14.3931 C   0  0  0  0  0  0  0  0  0  0  0  0
   18.2294   -8.4954  -13.5532 O   0  0  0  0  0  0  0  0  0  0  0  0
   16.2048   -7.6601  -14.0595 O   0  0  0  0  0  0  0  0  0  0  0  0
  2  1  1  0
  3  2  1  0
  4  3  2  0
  5  3  1  0
  6 13  1  0
  6  5  1  0
  6  7  1  6
  8  7  1  0
  9  8  2  0
 10 11  1  0
 10  9  1  0
 11 12  2  0
 12  8  1  0
 13 20  1  0
 14 13  2  0
 15 16  1  0
 16 17  1  0
 18 17  1  0
 19 18  1  1
 19 21  1  0
 20 19  1  0
 21 22  2  0
 21 23  1  0
M  END
$$$$
