AAG.pdb
     RDKit          3D

 15 14  0  0  1  0  0  0  0  0999 V2000
    8.5570  -16.0251   17.5762 C   0  0  0  0  0  0  0  0  0  0  0  0
    7.9315  -14.6592   17.7607 C   0  0  2  0  0  0  0  0  0  0  0  0
    8.3442  -13.7477   16.7129 N   0  0  0  0  0  0  0  0  0  0  0  0
    8.3965  -14.1462   19.0879 C   0  0  0  0  0  0  0  0  0  0  0  0
    9.4592  -13.5158   19.1667 O   0  0  0  0  0  0  0  0  0  0  0  0
    6.7745  -13.7298   22.4435 C   0  0  0  0  0  0  0  0  0  0  0  0
    7.9784  -13.7802   21.5060 C   0  0  2  0  0  0  0  0  0  0  0  0
    7.6267  -14.3804   20.2420 N   0  0  0  0  0  0  0  0  0  0  0  0
    9.0665  -14.5508   22.1668 C   0  0  0  0  0  0  0  0  0  0  0  0
    9.4666  -14.1832   23.3099 O   0  0  0  0  0  0  0  0  0  0  0  0
    9.6266  -15.6706   21.5069 N   0  0  0  0  0  0  0  0  0  0  0  0
   10.6008  -16.4774   22.1840 C   0  0  0  0  0  0  0  0  0  0  0  0
   11.1727  -17.4628   21.2598 C   0  0  0  0  0  0  0  0  0  0  0  0
   10.9882  -17.3548   20.0205 O   0  0  0  0  0  0  0  0  0  0  0  0
   11.9340  -18.5496   21.6776 O   0  0  0  0  0  0  0  0  0  0  0  0
  2  4  1  0
  2  1  1  6
  3  2  1  0
  4  8  1  0
  5  4  2  0
  7  6  1  1
  7  9  1  0
  8  7  1  0
  9 11  1  0
  9 10  2  0
 11 12  1  0
 12 13  1  0
 13 15  1  0
 14 13  2  0
M  END
$$$$
