AAG.pdb
     RDKit          3D

 15 14  0  0  1  0  0  0  0  0999 V2000
    7.4046  -16.6924   15.7405 C   0  0  0  0  0  0  0  0  0  0  0  0
    8.0469  -15.3401   15.5176 C   0  0  2  0  0  0  0  0  0  0  0  0
    9.0211  -15.3926   14.4465 N   0  0  0  0  0  0  0  0  0  0  0  0
    8.7251  -14.9669   16.7987 C   0  0  0  0  0  0  0  0  0  0  0  0
    9.8670  -15.3831   17.0353 O   0  0  0  0  0  0  0  0  0  0  0  0
    7.9268  -12.5850   19.6133 C   0  0  0  0  0  0  0  0  0  0  0  0
    8.7403  -13.6722   18.9152 C   0  0  2  0  0  0  0  0  0  0  0  0
    8.0656  -14.1450   17.7309 N   0  0  0  0  0  0  0  0  0  0  0  0
    8.9638  -14.7899   19.8719 C   0  0  0  0  0  0  0  0  0  0  0  0
    8.0662  -15.6733   19.9982 O   0  0  0  0  0  0  0  0  0  0  0  0
   10.1674  -14.8404   20.6148 N   0  0  0  0  0  0  0  0  0  0  0  0
   10.4171  -15.9546   21.4837 C   0  0  0  0  0  0  0  0  0  0  0  0
   11.6880  -15.7690   22.1926 C   0  0  0  0  0  0  0  0  0  0  0  0
   12.5216  -14.9170   21.7917 O   0  0  0  0  0  0  0  0  0  0  0  0
   12.0467  -16.4994   23.3208 O   0  0  0  0  0  0  0  0  0  0  0  0
  2  4  1  0
  2  1  1  1
  3  2  1  0
  4  8  1  0
  5  4  2  0
  7  6  1  1
  7  9  1  0
  8  7  1  0
  9 11  1  0
  9 10  2  0
 11 12  1  0
 12 13  1  0
 13 15  1  0
 14 13  2  0
M  END
$$$$
