AAG.pdb
     RDKit          3D

 15 14  0  0  1  0  0  0  0  0999 V2000
    4.6143  -20.8829   16.7036 C   0  0  0  0  0  0  0  0  0  0  0  0
    3.2479  -20.3580   17.0883 C   0  0  2  0  0  0  0  0  0  0  0  0
    2.7194  -19.4746   16.0688 N   0  0  0  0  0  0  0  0  0  0  0  0
    3.4192  -19.6039   18.3700 C   0  0  0  0  0  0  0  0  0  0  0  0
    4.0412  -18.5333   18.3765 O   0  0  0  0  0  0  0  0  0  0  0  0
    1.9562  -19.8971   21.8236 C   0  0  0  0  0  0  0  0  0  0  0  0
    2.9481  -19.3615   20.7939 C   0  0  2  0  0  0  0  0  0  0  0  0
    2.8741  -20.1115   19.5636 N   0  0  0  0  0  0  0  0  0  0  0  0
    4.3188  -19.4326   21.3689 C   0  0  0  0  0  0  0  0  0  0  0  0
    5.0575  -20.4142   21.0648 O   0  0  0  0  0  0  0  0  0  0  0  0
    4.7634  -18.4076   22.2377 N   0  0  0  0  0  0  0  0  0  0  0  0
    6.1018  -18.4473   22.7532 C   0  0  0  0  0  0  0  0  0  0  0  0
    6.1509  -19.2623   23.9720 C   0  0  0  0  0  0  0  0  0  0  0  0
    5.3914  -20.2559   24.1041 O   0  0  0  0  0  0  0  0  0  0  0  0
    7.0135  -19.0003   25.0315 O   0  0  0  0  0  0  0  0  0  0  0  0
  2  4  1  0
  2  1  1  6
  3  2  1  0
  4  8  1  0
  5  4  2  0
  7  6  1  1
  7  9  1  0
  8  7  1  0
  9 11  1  0
  9 10  2  0
 11 12  1  0
 12 13  1  0
 13 15  1  0
 14 13  2  0
M  END
$$$$
