AAG.pdb
     RDKit          3D

 15 14  0  0  1  0  0  0  0  0999 V2000
    6.5479  -17.7578   17.7443 C   0  0  0  0  0  0  0  0  0  0  0  0
    7.1692  -16.5908   17.0075 C   0  0  2  0  0  0  0  0  0  0  0  0
    7.9632  -17.0433   15.8832 N   0  0  0  0  0  0  0  0  0  0  0  0
    8.0453  -15.8766   17.9889 C   0  0  0  0  0  0  0  0  0  0  0  0
    9.1878  -16.2969   18.2146 O   0  0  0  0  0  0  0  0  0  0  0  0
    7.7720  -12.7056   20.0146 C   0  0  0  0  0  0  0  0  0  0  0  0
    8.3710  -14.0615   19.6488 C   0  0  2  0  0  0  0  0  0  0  0  0
    7.5703  -14.7305   18.6525 N   0  0  0  0  0  0  0  0  0  0  0  0
    8.4707  -14.8881   20.8821 C   0  0  0  0  0  0  0  0  0  0  0  0
    7.4211  -15.4241   21.3435 O   0  0  0  0  0  0  0  0  0  0  0  0
    9.7289  -15.0558   21.5081 N   0  0  0  0  0  0  0  0  0  0  0  0
    9.8226  -15.8278   22.7139 C   0  0  0  0  0  0  0  0  0  0  0  0
   11.1837  -15.7558   23.2567 C   0  0  0  0  0  0  0  0  0  0  0  0
   12.1235  -15.2962   22.5588 O   0  0  0  0  0  0  0  0  0  0  0  0
   11.5174  -16.1775   24.5396 O   0  0  0  0  0  0  0  0  0  0  0  0
  2  4  1  0
  2  1  1  1
  3  2  1  0
  4  8  1  0
  5  4  2  0
  7  6  1  1
  7  9  1  0
  8  7  1  0
  9 11  1  0
  9 10  2  0
 11 12  1  0
 12 13  1  0
 13 15  1  0
 14 13  2  0
M  END
$$$$
