AAG.pdb
     RDKit          3D

 15 14  0  0  1  0  0  0  0  0999 V2000
    7.9008  -12.3719   19.7389 C   0  0  0  0  0  0  0  0  0  0  0  0
    8.5177  -13.1309   18.5839 C   0  0  2  0  0  0  0  0  0  0  0  0
    7.4989  -13.6550   17.6970 N   0  0  0  0  0  0  0  0  0  0  0  0
    9.2999  -14.2609   19.1773 C   0  0  0  0  0  0  0  0  0  0  0  0
    8.7613  -15.3636   19.3416 O   0  0  0  0  0  0  0  0  0  0  0  0
   12.9373  -14.8460   19.9101 C   0  0  0  0  0  0  0  0  0  0  0  0
   11.4490  -15.1672   20.0232 C   0  0  2  0  0  0  0  0  0  0  0  0
   10.6437  -14.0690   19.5470 N   0  0  0  0  0  0  0  0  0  0  0  0
   11.1325  -15.4704   21.4454 C   0  0  0  0  0  0  0  0  0  0  0  0
   10.8034  -14.5196   22.2130 O   0  0  0  0  0  0  0  0  0  0  0  0
   11.2061  -16.8069   21.9053 N   0  0  0  0  0  0  0  0  0  0  0  0
   10.7795  -17.1213   23.2386 C   0  0  0  0  0  0  0  0  0  0  0  0
   11.9334  -17.4912   24.0655 C   0  0  0  0  0  0  0  0  0  0  0  0
   13.0987  -17.4272   23.5969 O   0  0  0  0  0  0  0  0  0  0  0  0
   11.8215  -17.9244   25.3827 O   0  0  0  0  0  0  0  0  0  0  0  0
  2  4  1  0
  2  1  1  1
  3  2  1  0
  4  8  1  0
  5  4  2  0
  7  6  1  1
  7  9  1  0
  8  7  1  0
  9 11  1  0
  9 10  2  0
 11 12  1  0
 12 13  1  0
 13 15  1  0
 14 13  2  0
M  END
$$$$
