AAG.pdb
     RDKit          3D

 15 14  0  0  1  0  0  0  0  0999 V2000
    8.3859  -17.6450   18.1988 C   0  0  0  0  0  0  0  0  0  0  0  0
    8.3083  -16.4004   17.3411 C   0  0  2  0  0  0  0  0  0  0  0  0
    9.1525  -16.5176   16.1694 N   0  0  0  0  0  0  0  0  0  0  0  0
    8.7784  -15.2602   18.1895 C   0  0  0  0  0  0  0  0  0  0  0  0
    9.9915  -15.0577   18.3322 O   0  0  0  0  0  0  0  0  0  0  0  0
    7.0959  -12.3903   19.9682 C   0  0  0  0  0  0  0  0  0  0  0  0
    8.2705  -13.3053   19.6305 C   0  0  2  0  0  0  0  0  0  0  0  0
    7.8429  -14.4216   18.8228 N   0  0  0  0  0  0  0  0  0  0  0  0
    8.8848  -13.7820   20.8993 C   0  0  0  0  0  0  0  0  0  0  0  0
    9.3381  -12.9280   21.7160 O   0  0  0  0  0  0  0  0  0  0  0  0
    8.9484  -15.1711   21.1633 N   0  0  0  0  0  0  0  0  0  0  0  0
    9.3863  -15.6278   22.4510 C   0  0  0  0  0  0  0  0  0  0  0  0
   10.8173  -15.9488   22.4147 C   0  0  0  0  0  0  0  0  0  0  0  0
   11.3994  -16.3781   23.4434 O   0  0  0  0  0  0  0  0  0  0  0  0
   11.6035  -15.8048   21.2761 O   0  0  0  0  0  0  0  0  0  0  0  0
  2  4  1  0
  2  1  1  1
  3  2  1  0
  4  8  1  0
  5  4  2  0
  7  6  1  1
  7  9  1  0
  8  7  1  0
  9 11  1  0
  9 10  2  0
 11 12  1  0
 12 13  1  0
 13 15  1  0
 14 13  2  0
M  END
$$$$
