AAG.pdb
     RDKit          3D

 15 14  0  0  1  0  0  0  0  0999 V2000
   -1.6802  -25.6825   26.5316 C   0  0  0  0  0  0  0  0  0  0  0  0
   -3.1850  -25.5446   26.6165 C   0  0  2  0  0  0  0  0  0  0  0  0
   -3.7733  -25.3988   25.3005 N   0  0  0  0  0  0  0  0  0  0  0  0
   -3.4619  -24.3200   27.4315 C   0  0  0  0  0  0  0  0  0  0  0  0
   -3.0901  -24.2680   28.6114 O   0  0  0  0  0  0  0  0  0  0  0  0
   -4.1520  -20.7828   26.8353 C   0  0  0  0  0  0  0  0  0  0  0  0
   -4.4487  -22.0522   27.6301 C   0  0  2  0  0  0  0  0  0  0  0  0
   -4.1433  -23.2314   26.8569 N   0  0  0  0  0  0  0  0  0  0  0  0
   -5.8829  -22.0431   28.0268 C   0  0  0  0  0  0  0  0  0  0  0  0
   -6.7395  -22.5241   27.2289 O   0  0  0  0  0  0  0  0  0  0  0  0
   -6.2552  -21.5004   29.2798 N   0  0  0  0  0  0  0  0  0  0  0  0
   -7.6254  -21.5649   29.7004 C   0  0  0  0  0  0  0  0  0  0  0  0
   -7.8303  -22.7188   30.5829 C   0  0  0  0  0  0  0  0  0  0  0  0
   -6.8978  -23.5376   30.7865 O   0  0  0  0  0  0  0  0  0  0  0  0
   -9.0319  -22.9782   31.2343 O   0  0  0  0  0  0  0  0  0  0  0  0
  2  4  1  0
  2  1  1  6
  3  2  1  0
  4  8  1  0
  5  4  2  0
  7  6  1  6
  7  9  1  0
  8  7  1  0
  9 11  1  0
  9 10  2  0
 11 12  1  0
 12 13  1  0
 13 15  1  0
 14 13  2  0
M  END
$$$$
