AAG.pdb
     RDKit          3D

 15 14  0  0  1  0  0  0  0  0999 V2000
    7.7048  -16.8025   15.6584 C   0  0  0  0  0  0  0  0  0  0  0  0
    8.0898  -15.3610   15.4046 C   0  0  2  0  0  0  0  0  0  0  0  0
    8.9283  -15.2414   14.2290 N   0  0  0  0  0  0  0  0  0  0  0  0
    8.8436  -14.8956   16.6113 C   0  0  0  0  0  0  0  0  0  0  0  0
   10.0394  -15.1889   16.7417 O   0  0  0  0  0  0  0  0  0  0  0  0
    8.0734  -12.5676   19.4783 C   0  0  0  0  0  0  0  0  0  0  0  0
    8.9201  -13.5839   18.7159 C   0  0  2  0  0  0  0  0  0  0  0  0
    8.1934  -14.1268   17.5940 N   0  0  0  0  0  0  0  0  0  0  0  0
    9.3238  -14.6677   19.6523 C   0  0  0  0  0  0  0  0  0  0  0  0
    8.5005  -15.5958   19.9022 O   0  0  0  0  0  0  0  0  0  0  0  0
   10.6114  -14.6371   20.2392 N   0  0  0  0  0  0  0  0  0  0  0  0
   10.9564  -15.6051   21.2404 C   0  0  0  0  0  0  0  0  0  0  0  0
   12.3471  -15.4175   21.6680 C   0  0  0  0  0  0  0  0  0  0  0  0
   13.1108  -14.6487   21.0299 O   0  0  0  0  0  0  0  0  0  0  0  0
   12.8990  -16.0567   22.7735 O   0  0  0  0  0  0  0  0  0  0  0  0
  2  4  1  0
  2  1  1  1
  3  2  1  0
  4  8  1  0
  5  4  2  0
  7  6  1  1
  7  9  1  0
  8  7  1  0
  9 11  1  0
  9 10  2  0
 11 12  1  0
 12 13  1  0
 13 15  1  0
 14 13  2  0
M  END
$$$$
