AAG.pdb
     RDKit          3D

 15 14  0  0  1  0  0  0  0  0999 V2000
    7.0291  -18.5932   19.6565 C   0  0  0  0  0  0  0  0  0  0  0  0
    6.9932  -17.1611   19.1681 C   0  0  2  0  0  0  0  0  0  0  0  0
    7.4156  -17.0680   17.7853 N   0  0  0  0  0  0  0  0  0  0  0  0
    7.9332  -16.3843   20.0362 C   0  0  0  0  0  0  0  0  0  0  0  0
    9.1544  -16.4664   19.8496 O   0  0  0  0  0  0  0  0  0  0  0  0
    7.5315  -13.7770   22.7332 C   0  0  0  0  0  0  0  0  0  0  0  0
    8.3128  -14.7874   21.8967 C   0  0  2  0  0  0  0  0  0  0  0  0
    7.4288  -15.5632   21.0613 N   0  0  0  0  0  0  0  0  0  0  0  0
    9.0800  -15.6743   22.8129 C   0  0  0  0  0  0  0  0  0  0  0  0
    8.5596  -16.7679   23.1805 O   0  0  0  0  0  0  0  0  0  0  0  0
   10.3663  -15.2781   23.2503 N   0  0  0  0  0  0  0  0  0  0  0  0
   11.4926  -16.1318   23.0027 C   0  0  0  0  0  0  0  0  0  0  0  0
   11.8991  -16.8055   24.2409 C   0  0  0  0  0  0  0  0  0  0  0  0
   11.0777  -16.9597   25.1806 O   0  0  0  0  0  0  0  0  0  0  0  0
   13.1802  -17.3042   24.4537 O   0  0  0  0  0  0  0  0  0  0  0  0
  2  4  1  0
  2  1  1  1
  3  2  1  0
  4  8  1  0
  5  4  2  0
  7  6  1  1
  7  9  1  0
  8  7  1  0
  9 11  1  0
  9 10  2  0
 11 12  1  0
 12 13  1  0
 13 15  1  0
 14 13  2  0
M  END
$$$$
