AAG.pdb
     RDKit          3D

 15 14  0  0  1  0  0  0  0  0999 V2000
    6.1968  -17.9384   17.8790 C   0  0  0  0  0  0  0  0  0  0  0  0
    6.7904  -16.7413   17.1682 C   0  0  2  0  0  0  0  0  0  0  0  0
    7.5052  -17.1422   15.9734 N   0  0  0  0  0  0  0  0  0  0  0  0
    7.7377  -16.0934   18.1293 C   0  0  0  0  0  0  0  0  0  0  0  0
    8.8931  -16.5243   18.2406 O   0  0  0  0  0  0  0  0  0  0  0  0
    7.6276  -12.9917   20.2730 C   0  0  0  0  0  0  0  0  0  0  0  0
    8.2329  -14.3004   19.7712 C   0  0  2  0  0  0  0  0  0  0  0  0
    7.3149  -14.9975   18.9036 N   0  0  0  0  0  0  0  0  0  0  0  0
    8.5870  -15.1439   20.9449 C   0  0  0  0  0  0  0  0  0  0  0  0
    7.6569  -15.6967   21.6015 O   0  0  0  0  0  0  0  0  0  0  0  0
    9.9474  -15.3085   21.2990 N   0  0  0  0  0  0  0  0  0  0  0  0
   10.2884  -16.0742   22.4635 C   0  0  0  0  0  0  0  0  0  0  0  0
   11.7427  -16.0828   22.6558 C   0  0  0  0  0  0  0  0  0  0  0  0
   12.2937  -15.2157   23.3811 O   0  0  0  0  0  0  0  0  0  0  0  0
   12.5853  -17.0207   22.0678 O   0  0  0  0  0  0  0  0  0  0  0  0
  2  4  1  0
  2  1  1  1
  3  2  1  0
  4  8  1  0
  5  4  2  0
  7  6  1  1
  7  9  1  0
  8  7  1  0
  9 11  1  0
  9 10  2  0
 11 12  1  0
 12 13  1  0
 13 15  1  0
 14 13  2  0
M  END
$$$$
