AAG.pdb
     RDKit          3D

 15 14  0  0  1  0  0  0  0  0999 V2000
    7.4132  -17.0610   15.8986 C   0  0  0  0  0  0  0  0  0  0  0  0
    7.8838  -15.6631   15.5595 C   0  0  2  0  0  0  0  0  0  0  0  0
    8.7641  -15.6709   14.4088 N   0  0  0  0  0  0  0  0  0  0  0  0
    8.6233  -15.1532   16.7569 C   0  0  0  0  0  0  0  0  0  0  0  0
    9.8115  -15.4589   16.9235 O   0  0  0  0  0  0  0  0  0  0  0  0
    7.8446  -12.7339   19.5442 C   0  0  0  0  0  0  0  0  0  0  0  0
    8.6602  -13.8222   18.8505 C   0  0  2  0  0  0  0  0  0  0  0  0
    7.9685  -14.3286   17.6901 N   0  0  0  0  0  0  0  0  0  0  0  0
    8.9211  -14.9172   19.8239 C   0  0  0  0  0  0  0  0  0  0  0  0
    8.0255  -15.7913   20.0130 O   0  0  0  0  0  0  0  0  0  0  0  0
   10.1569  -14.9570   20.5125 N   0  0  0  0  0  0  0  0  0  0  0  0
   10.3495  -15.9103   21.5674 C   0  0  0  0  0  0  0  0  0  0  0  0
   11.6746  -15.7355   22.1721 C   0  0  0  0  0  0  0  0  0  0  0  0
   12.5082  -14.9450   21.6605 O   0  0  0  0  0  0  0  0  0  0  0  0
   12.0868  -16.4107   23.3164 O   0  0  0  0  0  0  0  0  0  0  0  0
  2  4  1  0
  2  1  1  1
  3  2  1  0
  4  8  1  0
  5  4  2  0
  7  6  1  1
  7  9  1  0
  8  7  1  0
  9 11  1  0
  9 10  2  0
 11 12  1  0
 12 13  1  0
 13 15  1  0
 14 13  2  0
M  END
$$$$
