AAG.pdb
     RDKit          3D

 15 14  0  0  1  0  0  0  0  0999 V2000
    6.1664  -17.9876   18.2953 C   0  0  0  0  0  0  0  0  0  0  0  0
    6.8818  -16.8726   17.5635 C   0  0  2  0  0  0  0  0  0  0  0  0
    7.7049  -17.3931   16.4907 N   0  0  0  0  0  0  0  0  0  0  0  0
    7.7450  -16.1784   18.5703 C   0  0  0  0  0  0  0  0  0  0  0  0
    8.8215  -16.6853   18.9128 O   0  0  0  0  0  0  0  0  0  0  0  0
    7.6306  -12.8116   20.2751 C   0  0  0  0  0  0  0  0  0  0  0  0
    8.2039  -14.1983   19.9931 C   0  0  2  0  0  0  0  0  0  0  0  0
    7.3329  -14.9530   19.1253 N   0  0  0  0  0  0  0  0  0  0  0  0
    8.3966  -14.9076   21.2871 C   0  0  0  0  0  0  0  0  0  0  0  0
    7.3792  -15.1922   21.9839 O   0  0  0  0  0  0  0  0  0  0  0  0
    9.7049  -15.2462   21.7074 N   0  0  0  0  0  0  0  0  0  0  0  0
    9.8986  -15.8754   22.9822 C   0  0  0  0  0  0  0  0  0  0  0  0
   11.3277  -16.1043   23.2220 C   0  0  0  0  0  0  0  0  0  0  0  0
   12.0991  -15.1357   23.4419 O   0  0  0  0  0  0  0  0  0  0  0  0
   11.9090  -17.3681   23.2226 O   0  0  0  0  0  0  0  0  0  0  0  0
  2  4  1  0
  2  1  1  1
  3  2  1  0
  4  8  1  0
  5  4  2  0
  7  6  1  1
  7  9  1  0
  8  7  1  0
  9 11  1  0
  9 10  2  0
 11 12  1  0
 12 13  1  0
 13 15  1  0
 14 13  2  0
M  END
$$$$
