AAG.pdb
     RDKit          3D

 15 14  0  0  1  0  0  0  0  0999 V2000
   -1.8765  -22.1991   25.9559 C   0  0  0  0  0  0  0  0  0  0  0  0
   -2.9051  -22.5909   26.9948 C   0  0  2  0  0  0  0  0  0  0  0  0
   -2.7098  -23.9567   27.4370 N   0  0  0  0  0  0  0  0  0  0  0  0
   -4.2476  -22.4576   26.3462 C   0  0  0  0  0  0  0  0  0  0  0  0
   -4.6389  -21.3474   25.9623 O   0  0  0  0  0  0  0  0  0  0  0  0
   -6.6971  -24.6039   24.6580 C   0  0  0  0  0  0  0  0  0  0  0  0
   -6.3979  -23.4758   25.6423 C   0  0  2  0  0  0  0  0  0  0  0  0
   -5.0617  -23.5921   26.1739 N   0  0  0  0  0  0  0  0  0  0  0  0
   -7.4032  -23.5192   26.7386 C   0  0  0  0  0  0  0  0  0  0  0  0
   -8.6323  -23.4666   26.4414 O   0  0  0  0  0  0  0  0  0  0  0  0
   -6.9657  -23.6178   28.0810 N   0  0  0  0  0  0  0  0  0  0  0  0
   -7.9304  -23.6037   29.1430 C   0  0  0  0  0  0  0  0  0  0  0  0
   -7.8658  -22.3304   29.8688 C   0  0  0  0  0  0  0  0  0  0  0  0
   -7.1430  -21.3925   29.4453 O   0  0  0  0  0  0  0  0  0  0  0  0
   -8.5772  -22.0810   31.0380 O   0  0  0  0  0  0  0  0  0  0  0  0
  2  4  1  0
  2  1  1  6
  3  2  1  0
  4  8  1  0
  5  4  2  0
  7  6  1  6
  7  9  1  0
  8  7  1  0
  9 11  1  0
  9 10  2  0
 11 12  1  0
 12 13  1  0
 13 15  1  0
 14 13  2  0
M  END
$$$$
