NRN.pdb
     RDKit          3D

 28 27  0  0  1  0  0  0  0  0999 V2000
   27.9167  -18.9258  -18.8092 N   0  0  0  0  0  0  0  0  0  0  0  0
   26.7104  -18.8302  -18.0795 C   0  0  0  0  0  0  0  0  0  0  0  0
   25.7917  -18.0848  -18.4804 O   0  0  0  0  0  0  0  0  0  0  0  0
   26.5411  -19.6103  -16.8485 C   0  0  0  0  0  0  0  0  0  0  0  0
   27.7777  -20.3681  -16.4591 C   0  0  2  0  0  0  0  0  0  0  0  0
   28.4020  -21.0667  -17.5506 N   0  0  0  0  0  0  0  0  0  0  0  0
   27.3853  -21.3264  -15.3636 C   0  0  0  0  0  0  0  0  0  0  0  0
   27.9694  -22.4310  -15.2293 O   0  0  0  0  0  0  0  0  0  0  0  0
   31.1163  -21.6267   -8.6865 N   0  0  0  0  0  0  0  0  0  0  0  0
   31.2422  -21.9640  -10.0536 C   0  0  0  0  0  0  0  0  0  0  0  0
   32.2218  -22.7242  -10.4480 N   0  0  0  0  0  0  0  0  0  0  0  0
   30.3254  -21.4989  -11.0403 N   0  0  0  0  0  0  0  0  0  0  0  0
   29.2963  -20.5844  -10.6310 C   0  0  0  0  0  0  0  0  0  0  0  0
   27.9504  -21.1780  -11.0419 C   0  0  0  0  0  0  0  0  0  0  0  0
   27.7506  -20.8777  -12.5000 C   0  0  0  0  0  0  0  0  0  0  0  0
   26.4467  -21.3582  -13.0437 C   0  0  2  0  0  0  0  0  0  0  0  0
   26.3477  -21.0281  -14.4422 N   0  0  0  0  0  0  0  0  0  0  0  0
   25.2654  -20.9051  -12.3264 C   0  0  0  0  0  0  0  0  0  0  0  0
   25.0401  -19.7157  -11.9840 O   0  0  0  0  0  0  0  0  0  0  0  0
   32.3800  -22.9472  -11.4534 N   0  0  0  0  0  0  0  0  0  0  0  0
   20.2913  -20.3214  -12.2704 C   0  0  0  0  0  0  0  0  0  0  0  0
   21.4229  -19.4346  -12.0802 O   0  0  0  0  0  0  0  0  0  0  0  0
   21.2132  -18.2058  -12.0191 C   0  0  0  0  0  0  0  0  0  0  0  0
   22.7561  -20.0068  -11.9679 C   0  0  1  0  0  0  0  0  0  0  0  0
   22.8168  -21.5082  -12.0934 N   0  0  0  0  0  0  0  0  0  0  0  0
   24.2659  -21.8498  -11.9666 C   0  0  0  0  0  0  0  0  0  0  0  0
   22.4039  -21.8778  -13.4633 O   0  0  0  0  0  0  0  0  0  0  0  0
   21.6553  -23.0190  -13.6646 O   0  0  0  0  0  0  0  0  0  0  0  0
  2  3  2  0
  2  1  1  0
  4  2  1  0
  5  6  1  6
  5  4  1  0
  7  5  1  0
  8  7  2  0
 10  9  1  0
 10 12  1  0
 11 10  2  0
 12 13  1  0
 13 14  1  0
 16 15  1  1
 15 14  1  0
 16 17  1  0
 17  7  1  0
 18 16  1  0
 19 18  2  0
 20 21  1  0
 21 22  2  0
 23 21  1  0
 24 23  1  1
 24 25  1  0
 25 18  1  0
 26 27  1  0
 26 24  1  0
 28 26  2  0
M  END
$$$$
