NRN.pdb
     RDKit          3D

 28 27  0  0  1  0  0  0  0  0999 V2000
   29.9885  -19.9993  -19.7087 N   0  0  0  0  0  0  0  0  0  0  0  0
   29.0155  -19.2855  -18.9735 C   0  0  0  0  0  0  0  0  0  0  0  0
   29.0444  -18.0371  -18.9410 O   0  0  0  0  0  0  0  0  0  0  0  0
   27.9706  -20.0168  -18.2481 C   0  0  0  0  0  0  0  0  0  0  0  0
   27.0138  -19.1117  -17.5268 C   0  0  2  0  0  0  0  0  0  0  0  0
   27.6464  -18.2183  -16.5936 N   0  0  0  0  0  0  0  0  0  0  0  0
   26.0092  -19.9927  -16.8287 C   0  0  0  0  0  0  0  0  0  0  0  0
   25.4125  -20.9100  -17.4465 O   0  0  0  0  0  0  0  0  0  0  0  0
   26.7631  -20.0606   -9.1622 N   0  0  0  0  0  0  0  0  0  0  0  0
   25.6182  -20.7845   -9.5670 C   0  0  0  0  0  0  0  0  0  0  0  0
   24.5394  -20.7545   -8.8401 N   0  0  0  0  0  0  0  0  0  0  0  0
   25.5917  -21.5623  -10.7607 N   0  0  0  0  0  0  0  0  0  0  0  0
   26.6903  -21.4341  -11.6770 C   0  0  0  0  0  0  0  0  0  0  0  0
   26.2321  -20.5548  -12.8388 C   0  0  0  0  0  0  0  0  0  0  0  0
   25.2588  -21.3563  -13.6552 C   0  0  0  0  0  0  0  0  0  0  0  0
   24.6718  -20.6069  -14.8043 C   0  0  2  0  0  0  0  0  0  0  0  0
   25.6941  -19.8280  -15.4546 N   0  0  0  0  0  0  0  0  0  0  0  0
   23.5207  -19.7766  -14.4865 C   0  0  0  0  0  0  0  0  0  0  0  0
   23.5400  -18.7769  -13.7228 O   0  0  0  0  0  0  0  0  0  0  0  0
   23.6638  -21.2404   -9.1276 N   0  0  0  0  0  0  0  0  0  0  0  0
   18.4277  -17.8550  -17.0403 C   0  0  0  0  0  0  0  0  0  0  0  0
   19.3618  -17.9014  -15.9320 O   0  0  0  0  0  0  0  0  0  0  0  0
   19.1302  -17.1974  -14.9278 C   0  0  0  0  0  0  0  0  0  0  0  0
   20.5300  -18.7633  -16.0301 C   0  0  2  0  0  0  0  0  0  0  0  0
   21.0464  -19.2876  -14.7139 N   0  0  0  0  0  0  0  0  0  0  0  0
   22.2592  -20.0871  -15.0636 C   0  0  0  0  0  0  0  0  0  0  0  0
   20.0500  -20.2311  -14.1657 O   0  0  0  0  0  0  0  0  0  0  0  0
   20.1572  -21.5767  -14.4505 O   0  0  0  0  0  0  0  0  0  0  0  0
  2  3  2  0
  2  1  1  0
  4  2  1  0
  5  6  1  1
  5  4  1  0
  7  5  1  0
  8  7  2  0
 10  9  1  0
 10 12  1  0
 11 10  2  0
 12 13  1  0
 13 14  1  0
 16 15  1  1
 15 14  1  0
 16 17  1  0
 17  7  1  0
 18 16  1  0
 19 18  2  0
 20 21  1  0
 21 22  2  0
 23 21  1  0
 24 23  1  1
 24 25  1  0
 25 18  1  0
 26 27  1  0
 26 24  1  0
 28 26  2  0
M  END
$$$$
