NRN.pdb
     RDKit          3D

 28 27  0  0  1  0  0  0  0  0999 V2000
   27.6498  -23.2977  -16.0678 N   0  0  0  0  0  0  0  0  0  0  0  0
   26.7708  -22.8962  -17.0988 C   0  0  0  0  0  0  0  0  0  0  0  0
   27.2220  -22.5724  -18.2176 O   0  0  0  0  0  0  0  0  0  0  0  0
   25.3253  -22.8613  -16.8498 C   0  0  0  0  0  0  0  0  0  0  0  0
   24.9585  -23.2963  -15.4600 C   0  0  2  0  0  0  0  0  0  0  0  0
   25.1634  -24.6987  -15.2142 N   0  0  0  0  0  0  0  0  0  0  0  0
   23.5151  -22.9192  -15.2427 C   0  0  0  0  0  0  0  0  0  0  0  0
   22.5871  -23.7162  -15.5303 O   0  0  0  0  0  0  0  0  0  0  0  0
   17.1129  -22.1072  -11.9069 N   0  0  0  0  0  0  0  0  0  0  0  0
   17.9242  -23.1520  -11.4082 C   0  0  0  0  0  0  0  0  0  0  0  0
   17.4548  -23.9666  -10.5087 N   0  0  0  0  0  0  0  0  0  0  0  0
   19.2615  -23.3575  -11.8554 N   0  0  0  0  0  0  0  0  0  0  0  0
   19.8118  -22.4230  -12.7971 C   0  0  0  0  0  0  0  0  0  0  0  0
   21.0396  -21.7792  -12.1562 C   0  0  0  0  0  0  0  0  0  0  0  0
   21.5747  -20.7637  -13.1250 C   0  0  0  0  0  0  0  0  0  0  0  0
   21.7638  -21.2887  -14.5089 C   0  0  2  0  0  0  0  0  0  0  0  0
   23.1416  -21.6584  -14.7084 N   0  0  0  0  0  0  0  0  0  0  0  0
   21.3096  -20.4126  -15.5773 C   0  0  0  0  0  0  0  0  0  0  0  0
   21.9285  -19.3991  -15.9928 O   0  0  0  0  0  0  0  0  0  0  0  0
   18.0288  -24.7369  -10.1051 N   0  0  0  0  0  0  0  0  0  0  0  0
   18.2448  -18.5495  -19.4311 C   0  0  0  0  0  0  0  0  0  0  0  0
   18.2847  -19.9991  -19.4251 O   0  0  0  0  0  0  0  0  0  0  0  0
   17.7379  -20.6140  -20.3635 C   0  0  0  0  0  0  0  0  0  0  0  0
   18.9578  -20.6814  -18.3303 C   0  0  1  0  0  0  0  0  0  0  0  0
   19.5495  -19.7731  -17.2822 N   0  0  0  0  0  0  0  0  0  0  0  0
   20.0755  -20.6900  -16.2262 C   0  0  0  0  0  0  0  0  0  0  0  0
   18.4539  -18.9928  -16.6703 O   0  0  0  0  0  0  0  0  0  0  0  0
   17.8612  -17.9733  -17.3863 O   0  0  0  0  0  0  0  0  0  0  0  0
  2  3  2  0
  2  1  1  0
  4  2  1  0
  5  6  1  6
  5  4  1  0
  7  5  1  0
  8  7  2  0
 10  9  1  0
 10 12  1  0
 11 10  2  0
 12 13  1  0
 13 14  1  0
 16 15  1  1
 15 14  1  0
 16 17  1  0
 17  7  1  0
 18 16  1  0
 19 18  2  0
 20 21  1  0
 21 22  2  0
 23 21  1  0
 24 23  1  6
 24 25  1  0
 25 18  1  0
 26 27  1  0
 26 24  1  0
 28 26  2  0
M  END
$$$$
