NRN.pdb
     RDKit          3D

 28 27  0  0  1  0  0  0  0  0999 V2000
   27.3530  -24.9217  -16.1657 N   0  0  0  0  0  0  0  0  0  0  0  0
   27.2612  -23.6530  -16.7812 C   0  0  0  0  0  0  0  0  0  0  0  0
   28.1468  -23.2762  -17.5775 O   0  0  0  0  0  0  0  0  0  0  0  0
   26.1210  -22.7797  -16.4812 C   0  0  0  0  0  0  0  0  0  0  0  0
   25.1916  -23.3600  -15.4543 C   0  0  2  0  0  0  0  0  0  0  0  0
   24.5210  -24.5576  -15.8846 N   0  0  0  0  0  0  0  0  0  0  0  0
   24.1953  -22.2858  -15.0991 C   0  0  0  0  0  0  0  0  0  0  0  0
   24.5680  -21.1089  -14.8639 O   0  0  0  0  0  0  0  0  0  0  0  0
   17.8431  -18.9661  -16.6354 N   0  0  0  0  0  0  0  0  0  0  0  0
   18.5453  -17.8053  -17.0331 C   0  0  0  0  0  0  0  0  0  0  0  0
   17.9322  -16.6586  -17.0793 N   0  0  0  0  0  0  0  0  0  0  0  0
   19.9236  -17.8351  -17.3935 N   0  0  0  0  0  0  0  0  0  0  0  0
   20.6045  -19.0993  -17.3623 C   0  0  0  0  0  0  0  0  0  0  0  0
   21.1361  -19.3111  -15.9461 C   0  0  0  0  0  0  0  0  0  0  0  0
   22.0777  -20.4806  -15.9873 C   0  0  0  0  0  0  0  0  0  0  0  0
   21.8262  -21.4977  -14.9248 C   0  0  2  0  0  0  0  0  0  0  0  0
   22.8037  -22.5518  -15.0148 N   0  0  0  0  0  0  0  0  0  0  0  0
   20.4808  -22.0490  -14.8932 C   0  0  0  0  0  0  0  0  0  0  0  0
   19.9644  -22.7464  -15.8041 O   0  0  0  0  0  0  0  0  0  0  0  0
   18.4198  -15.7802  -17.3559 N   0  0  0  0  0  0  0  0  0  0  0  0
   18.7100  -25.0176  -12.9906 C   0  0  0  0  0  0  0  0  0  0  0  0
   18.3208  -24.1094  -11.9292 O   0  0  0  0  0  0  0  0  0  0  0  0
   18.2291  -24.5555  -10.7671 C   0  0  0  0  0  0  0  0  0  0  0  0
   18.0525  -22.7170  -12.2556 C   0  0  2  0  0  0  0  0  0  0  0  0
   18.2661  -22.3500  -13.7025 N   0  0  0  0  0  0  0  0  0  0  0  0
   19.6549  -21.8022  -13.7628 C   0  0  0  0  0  0  0  0  0  0  0  0
   17.3493  -21.2419  -14.0419 O   0  0  0  0  0  0  0  0  0  0  0  0
   16.2575  -21.4842  -14.8497 O   0  0  0  0  0  0  0  0  0  0  0  0
  2  3  2  0
  2  1  1  0
  4  2  1  0
  5  6  1  6
  5  4  1  0
  7  5  1  0
  8  7  2  0
 10  9  1  0
 10 12  1  0
 11 10  2  0
 12 13  1  0
 13 14  1  0
 16 15  1  6
 15 14  1  0
 16 17  1  0
 17  7  1  0
 18 16  1  0
 19 18  2  0
 20 21  1  0
 21 22  2  0
 23 21  1  0
 24 23  1  6
 24 25  1  0
 25 18  1  0
 26 27  1  0
 26 24  1  0
 28 26  2  0
M  END
$$$$
