NRN.pdb
     RDKit          3D

 28 27  0  0  1  0  0  0  0  0999 V2000
   18.8811  -14.9348  -17.9907 N   0  0  0  0  0  0  0  0  0  0  0  0
   17.7632  -14.1708  -18.3952 C   0  0  0  0  0  0  0  0  0  0  0  0
   17.0666  -14.5420  -19.3632 O   0  0  0  0  0  0  0  0  0  0  0  0
   17.4240  -12.9394  -17.6733 C   0  0  0  0  0  0  0  0  0  0  0  0
   18.3173  -12.6860  -16.4930 C   0  0  2  0  0  0  0  0  0  0  0  0
   18.1919  -13.6638  -15.4455 N   0  0  0  0  0  0  0  0  0  0  0  0
   17.9946  -11.3058  -15.9796 C   0  0  0  0  0  0  0  0  0  0  0  0
   18.2577  -10.2833  -16.6611 O   0  0  0  0  0  0  0  0  0  0  0  0
   12.4834   -9.6905   -9.6166 N   0  0  0  0  0  0  0  0  0  0  0  0
   13.6930   -8.9782   -9.4491 C   0  0  0  0  0  0  0  0  0  0  0  0
   13.9793   -8.4451   -8.2972 N   0  0  0  0  0  0  0  0  0  0  0  0
   14.6329   -8.8140  -10.5075 N   0  0  0  0  0  0  0  0  0  0  0  0
   14.1540   -8.9042  -11.8585 C   0  0  0  0  0  0  0  0  0  0  0  0
   15.3253   -8.6064  -12.7924 C   0  0  0  0  0  0  0  0  0  0  0  0
   15.8440   -9.9215  -13.3000 C   0  0  0  0  0  0  0  0  0  0  0  0
   16.9747   -9.7941  -14.2653 C   0  0  2  0  0  0  0  0  0  0  0  0
   17.3843  -11.0998  -14.7148 N   0  0  0  0  0  0  0  0  0  0  0  0
   18.1200   -9.0343  -13.7897 C   0  0  0  0  0  0  0  0  0  0  0  0
   19.0304   -9.4874  -13.0490 O   0  0  0  0  0  0  0  0  0  0  0  0
   14.8556   -7.9039   -8.1395 N   0  0  0  0  0  0  0  0  0  0  0  0
   21.9940   -5.7339  -13.4477 C   0  0  0  0  0  0  0  0  0  0  0  0
   21.8866   -6.8414  -14.3775 O   0  0  0  0  0  0  0  0  0  0  0  0
   22.8995   -7.1756  -15.0257 C   0  0  0  0  0  0  0  0  0  0  0  0
   20.6076   -7.5204  -14.5208 C   0  0  1  0  0  0  0  0  0  0  0  0
   19.4636   -6.8877  -13.7692 N   0  0  0  0  0  0  0  0  0  0  0  0
   18.2559   -7.6711  -14.1696 C   0  0  0  0  0  0  0  0  0  0  0  0
   19.2757   -5.5134  -14.2784 O   0  0  0  0  0  0  0  0  0  0  0  0
   19.8769   -4.4569  -13.6258 O   0  0  0  0  0  0  0  0  0  0  0  0
  2  3  2  0
  2  1  1  0
  4  2  1  0
  5  6  1  1
  5  4  1  0
  7  5  1  0
  8  7  2  0
 10  9  1  0
 10 12  1  0
 11 10  2  0
 12 13  1  0
 13 14  1  0
 16 15  1  1
 15 14  1  0
 16 17  1  0
 17  7  1  0
 18 16  1  0
 19 18  2  0
 20 21  1  0
 21 22  2  0
 23 21  1  0
 24 23  1  1
 24 25  1  0
 25 18  1  0
 26 27  1  0
 26 24  1  0
 28 26  2  0
M  END
$$$$
