NRN.pdb
     RDKit          3D

 28 27  0  0  1  0  0  0  0  0999 V2000
   28.6081  -19.9811  -17.3462 N   0  0  0  0  0  0  0  0  0  0  0  0
   27.2973  -19.4540  -17.3147 C   0  0  0  0  0  0  0  0  0  0  0  0
   27.0187  -18.4254  -17.9663 O   0  0  0  0  0  0  0  0  0  0  0  0
   26.2646  -20.1199  -16.5130 C   0  0  0  0  0  0  0  0  0  0  0  0
   26.7884  -21.2974  -15.7422 C   0  0  2  0  0  0  0  0  0  0  0  0
   27.0374  -22.4605  -16.5510 N   0  0  0  0  0  0  0  0  0  0  0  0
   25.7845  -21.6021  -14.6596 C   0  0  0  0  0  0  0  0  0  0  0  0
   24.7902  -22.3363  -14.8863 O   0  0  0  0  0  0  0  0  0  0  0  0
   30.1852  -21.9019   -9.1476 N   0  0  0  0  0  0  0  0  0  0  0  0
   29.7766  -21.1470  -10.2709 C   0  0  0  0  0  0  0  0  0  0  0  0
   30.6366  -20.8468  -11.2000 N   0  0  0  0  0  0  0  0  0  0  0  0
   28.4369  -20.6901  -10.4350 N   0  0  0  0  0  0  0  0  0  0  0  0
   27.4149  -21.2811   -9.6171 C   0  0  0  0  0  0  0  0  0  0  0  0
   26.4219  -21.9831  -10.5412 C   0  0  0  0  0  0  0  0  0  0  0  0
   25.4271  -20.9553  -10.9995 C   0  0  0  0  0  0  0  0  0  0  0  0
   24.8736  -21.2138  -12.3610 C   0  0  2  0  0  0  0  0  0  0  0  0
   25.9150  -21.0785  -13.3468 N   0  0  0  0  0  0  0  0  0  0  0  0
   23.7155  -20.4138  -12.7271 C   0  0  0  0  0  0  0  0  0  0  0  0
   23.7579  -19.2200  -13.1221 O   0  0  0  0  0  0  0  0  0  0  0  0
   30.3686  -20.3063  -12.0495 N   0  0  0  0  0  0  0  0  0  0  0  0
   20.3574  -17.9575  -15.5493 C   0  0  0  0  0  0  0  0  0  0  0  0
   20.2668  -19.3679  -15.2245 O   0  0  0  0  0  0  0  0  0  0  0  0
   19.2250  -19.9837  -15.5297 C   0  0  0  0  0  0  0  0  0  0  0  0
   21.3886  -20.0115  -14.5577 C   0  0  1  0  0  0  0  0  0  0  0  0
   21.2148  -20.2159  -13.0739 N   0  0  0  0  0  0  0  0  0  0  0  0
   22.4186  -20.9901  -12.6452 C   0  0  0  0  0  0  0  0  0  0  0  0
   20.0411  -21.0874  -12.8585 O   0  0  0  0  0  0  0  0  0  0  0  0
   20.1737  -22.4542  -12.9922 O   0  0  0  0  0  0  0  0  0  0  0  0
  2  3  2  0
  2  1  1  0
  4  2  1  0
  5  6  1  6
  5  4  1  0
  7  5  1  0
  8  7  2  0
 10  9  1  0
 10 12  1  0
 11 10  2  0
 12 13  1  0
 13 14  1  0
 16 15  1  1
 15 14  1  0
 16 17  1  0
 17  7  1  0
 18 16  1  0
 19 18  2  0
 20 21  1  0
 21 22  2  0
 23 21  1  0
 24 23  1  1
 24 25  1  0
 25 18  1  0
 26 27  1  0
 26 24  1  0
 28 26  2  0
M  END
$$$$
