NRN.pdb
     RDKit          3D

 28 27  0  0  1  0  0  0  0  0999 V2000
   27.2314  -18.2723  -18.9837 N   0  0  0  0  0  0  0  0  0  0  0  0
   26.0500  -17.6769  -19.4803 C   0  0  0  0  0  0  0  0  0  0  0  0
   26.1174  -16.6923  -20.2460 O   0  0  0  0  0  0  0  0  0  0  0  0
   24.7432  -18.2199  -19.0927 C   0  0  0  0  0  0  0  0  0  0  0  0
   24.8461  -19.3571  -18.1174 C   0  0  2  0  0  0  0  0  0  0  0  0
   25.3983  -20.5603  -18.6799 N   0  0  0  0  0  0  0  0  0  0  0  0
   23.4612  -19.6048  -17.5759 C   0  0  0  0  0  0  0  0  0  0  0  0
   22.5856  -20.1760  -18.2733 O   0  0  0  0  0  0  0  0  0  0  0  0
   17.6713  -21.2199  -12.7574 N   0  0  0  0  0  0  0  0  0  0  0  0
   18.6587  -22.1675  -13.1119 C   0  0  0  0  0  0  0  0  0  0  0  0
   18.3076  -23.3160  -13.6126 N   0  0  0  0  0  0  0  0  0  0  0  0
   20.0510  -21.9164  -12.9419 N   0  0  0  0  0  0  0  0  0  0  0  0
   20.4539  -20.6146  -12.4880 C   0  0  0  0  0  0  0  0  0  0  0  0
   20.3951  -19.6628  -13.6812 C   0  0  0  0  0  0  0  0  0  0  0  0
   21.7558  -19.6514  -14.3173 C   0  0  0  0  0  0  0  0  0  0  0  0
   21.7380  -19.3503  -15.7787 C   0  0  2  0  0  0  0  0  0  0  0  0
   23.0860  -19.2081  -16.2658 N   0  0  0  0  0  0  0  0  0  0  0  0
   20.9289  -18.2074  -16.1716 C   0  0  0  0  0  0  0  0  0  0  0  0
   21.1960  -17.0074  -15.9046 O   0  0  0  0  0  0  0  0  0  0  0  0
   19.0072  -24.0333  -13.8981 N   0  0  0  0  0  0  0  0  0  0  0  0
   17.1601  -16.1019  -20.1296 C   0  0  0  0  0  0  0  0  0  0  0  0
   17.0018  -16.8122  -18.8753 O   0  0  0  0  0  0  0  0  0  0  0  0
   15.9684  -16.6133  -18.2043 C   0  0  0  0  0  0  0  0  0  0  0  0
   18.0487  -17.7271  -18.4461 C   0  0  1  0  0  0  0  0  0  0  0  0
   18.8209  -17.2846  -17.2289 N   0  0  0  0  0  0  0  0  0  0  0  0
   19.7368  -18.4228  -16.9155 C   0  0  0  0  0  0  0  0  0  0  0  0
   17.8778  -17.1648  -16.0976 O   0  0  0  0  0  0  0  0  0  0  0  0
   17.3495  -15.9308  -15.7788 O   0  0  0  0  0  0  0  0  0  0  0  0
  2  3  2  0
  2  1  1  0
  4  2  1  0
  5  6  1  6
  5  4  1  0
  7  5  1  0
  8  7  2  0
 10  9  1  0
 10 12  1  0
 11 10  2  0
 12 13  1  0
 13 14  1  0
 16 15  1  1
 15 14  1  0
 16 17  1  0
 17  7  1  0
 18 16  1  0
 19 18  2  0
 20 21  1  0
 21 22  2  0
 23 21  1  0
 24 23  1  6
 24 25  1  0
 25 18  1  0
 26 27  1  0
 26 24  1  0
 28 26  2  0
M  END
$$$$
