NRN.pdb
     RDKit          3D

 28 27  0  0  1  0  0  0  0  0999 V2000
   18.6751  -19.5816  -15.4533 N   0  0  0  0  0  0  0  0  0  0  0  0
   17.8207  -20.5401  -16.0434 C   0  0  0  0  0  0  0  0  0  0  0  0
   16.6553  -20.2276  -16.3665 O   0  0  0  0  0  0  0  0  0  0  0  0
   18.3081  -21.9044  -16.2752 C   0  0  0  0  0  0  0  0  0  0  0  0
   19.7223  -22.1088  -15.8132 C   0  0  2  0  0  0  0  0  0  0  0  0
   20.6987  -21.3893  -16.5865 N   0  0  0  0  0  0  0  0  0  0  0  0
   19.9931  -23.5912  -15.8534 C   0  0  0  0  0  0  0  0  0  0  0  0
   20.5888  -24.1147  -16.8283 O   0  0  0  0  0  0  0  0  0  0  0  0
   20.7063  -29.1706   -9.0714 N   0  0  0  0  0  0  0  0  0  0  0  0
   21.1138  -29.9058  -10.2081 C   0  0  0  0  0  0  0  0  0  0  0  0
   21.6185  -31.0966  -10.0655 N   0  0  0  0  0  0  0  0  0  0  0  0
   20.9943  -29.3906  -11.5313 N   0  0  0  0  0  0  0  0  0  0  0  0
   20.4910  -28.0554  -11.6952 C   0  0  0  0  0  0  0  0  0  0  0  0
   20.5297  -27.7190  -13.1846 C   0  0  0  0  0  0  0  0  0  0  0  0
   20.0384  -26.3083  -13.3419 C   0  0  0  0  0  0  0  0  0  0  0  0
   19.9816  -25.8417  -14.7581 C   0  0  2  0  0  0  0  0  0  0  0  0
   19.5914  -24.4559  -14.8018 N   0  0  0  0  0  0  0  0  0  0  0  0
   19.1467  -26.6364  -15.6450 C   0  0  0  0  0  0  0  0  0  0  0  0
   17.8901  -26.5917  -15.6866 O   0  0  0  0  0  0  0  0  0  0  0  0
   21.8646  -31.6956  -10.8818 N   0  0  0  0  0  0  0  0  0  0  0  0
   17.8798  -29.9613  -19.5162 C   0  0  0  0  0  0  0  0  0  0  0  0
   18.8396  -28.9376  -19.8818 O   0  0  0  0  0  0  0  0  0  0  0  0
   19.1577  -28.8209  -21.0830 C   0  0  0  0  0  0  0  0  0  0  0  0
   19.3946  -28.0869  -18.8399 C   0  0  1  0  0  0  0  0  0  0  0  0
   18.9299  -28.4079  -17.4417 N   0  0  0  0  0  0  0  0  0  0  0  0
   19.7614  -27.5452  -16.5489 C   0  0  0  0  0  0  0  0  0  0  0  0
   19.2874  -29.8102  -17.1429 O   0  0  0  0  0  0  0  0  0  0  0  0
   20.1801  -30.0842  -16.1273 O   0  0  0  0  0  0  0  0  0  0  0  0
  2  3  2  0
  2  1  1  0
  4  2  1  0
  5  6  1  6
  5  4  1  0
  7  5  1  0
  8  7  2  0
 10  9  1  0
 10 12  1  0
 11 10  2  0
 12 13  1  0
 13 14  1  0
 16 15  1  1
 15 14  1  0
 16 17  1  0
 17  7  1  0
 18 16  1  0
 19 18  2  0
 20 21  1  0
 21 22  2  0
 23 21  1  0
 24 23  1  6
 24 25  1  0
 25 18  1  0
 26 27  1  0
 26 24  1  0
 28 26  2  0
M  END
$$$$
