NRN.pdb
     RDKit          3D

 28 27  0  0  1  0  0  0  0  0999 V2000
   29.4721  -21.0504  -21.4333 N   0  0  0  0  0  0  0  0  0  0  0  0
   29.1225  -20.5403  -20.1627 C   0  0  0  0  0  0  0  0  0  0  0  0
   29.7122  -19.5391  -19.7044 O   0  0  0  0  0  0  0  0  0  0  0  0
   28.0636  -21.1918  -19.3835 C   0  0  0  0  0  0  0  0  0  0  0  0
   28.5740  -21.8467  -18.1323 C   0  0  2  0  0  0  0  0  0  0  0  0
   29.1147  -23.1631  -18.3414 N   0  0  0  0  0  0  0  0  0  0  0  0
   27.4288  -21.8868  -17.1528 C   0  0  0  0  0  0  0  0  0  0  0  0
   26.6562  -22.8765  -17.0998 O   0  0  0  0  0  0  0  0  0  0  0  0
   27.4900  -21.0937  -10.2484 N   0  0  0  0  0  0  0  0  0  0  0  0
   26.1872  -20.7071   -9.8589 C   0  0  0  0  0  0  0  0  0  0  0  0
   25.6813  -21.1550   -8.7469 N   0  0  0  0  0  0  0  0  0  0  0  0
   25.3856  -19.8306  -10.6461 N   0  0  0  0  0  0  0  0  0  0  0  0
   25.9617  -19.2732  -11.8379 C   0  0  0  0  0  0  0  0  0  0  0  0
   25.3991  -20.0393  -13.0336 C   0  0  0  0  0  0  0  0  0  0  0  0
   26.5107  -20.1996  -14.0309 C   0  0  0  0  0  0  0  0  0  0  0  0
   26.0928  -20.8605  -15.3018 C   0  0  2  0  0  0  0  0  0  0  0  0
   27.1729  -20.8187  -16.2537 N   0  0  0  0  0  0  0  0  0  0  0  0
   24.8667  -20.3526  -15.8967 C   0  0  0  0  0  0  0  0  0  0  0  0
   24.7714  -19.2838  -16.5537 O   0  0  0  0  0  0  0  0  0  0  0  0
   24.7119  -20.9208   -8.4451 N   0  0  0  0  0  0  0  0  0  0  0  0
   19.7043  -22.1598  -17.9496 C   0  0  0  0  0  0  0  0  0  0  0  0
   20.0811  -21.5117  -16.7083 O   0  0  0  0  0  0  0  0  0  0  0  0
   19.2485  -20.7711  -16.1462 C   0  0  0  0  0  0  0  0  0  0  0  0
   21.4103  -21.7472  -16.1651 C   0  0  1  0  0  0  0  0  0  0  0  0
   22.4042  -20.6406  -16.4129 N   0  0  0  0  0  0  0  0  0  0  0  0
   23.6624  -21.0925  -15.7456 C   0  0  0  0  0  0  0  0  0  0  0  0
   21.9445  -19.4330  -15.6962 O   0  0  0  0  0  0  0  0  0  0  0  0
   21.3424  -18.4106  -16.4003 O   0  0  0  0  0  0  0  0  0  0  0  0
  2  3  2  0
  2  1  1  0
  4  2  1  0
  5  6  1  6
  5  4  1  0
  7  5  1  0
  8  7  2  0
 10  9  1  0
 10 12  1  0
 11 10  2  0
 12 13  1  0
 13 14  1  0
 16 15  1  1
 15 14  1  0
 16 17  1  0
 17  7  1  0
 18 16  1  0
 19 18  2  0
 20 21  1  0
 21 22  2  0
 23 21  1  0
 24 23  1  6
 24 25  1  0
 25 18  1  0
 26 27  1  0
 26 24  1  0
 28 26  2  0
M  END
$$$$
