NRN.pdb
     RDKit          3D

 28 27  0  0  1  0  0  0  0  0999 V2000
   18.3379  -26.6245  -13.1434 N   0  0  0  0  0  0  0  0  0  0  0  0
   18.3953  -27.5175  -12.0497 C   0  0  0  0  0  0  0  0  0  0  0  0
   18.5027  -28.7461  -12.2476 O   0  0  0  0  0  0  0  0  0  0  0  0
   18.3282  -26.9955  -10.6801 C   0  0  0  0  0  0  0  0  0  0  0  0
   18.2720  -25.4958  -10.6257 C   0  0  2  0  0  0  0  0  0  0  0  0
   19.4616  -24.8493  -11.1114 N   0  0  0  0  0  0  0  0  0  0  0  0
   18.0005  -25.1129   -9.1931 C   0  0  0  0  0  0  0  0  0  0  0  0
   18.9163  -25.1325   -8.3328 O   0  0  0  0  0  0  0  0  0  0  0  0
   12.6166  -23.7871   -3.7512 N   0  0  0  0  0  0  0  0  0  0  0  0
   12.8906  -22.4043   -3.6453 C   0  0  0  0  0  0  0  0  0  0  0  0
   12.7187  -21.7926   -2.5099 N   0  0  0  0  0  0  0  0  0  0  0  0
   13.3563  -21.6334   -4.7496 N   0  0  0  0  0  0  0  0  0  0  0  0
   13.5425  -22.2984   -6.0090 C   0  0  0  0  0  0  0  0  0  0  0  0
   14.8174  -23.1342   -5.9142 C   0  0  0  0  0  0  0  0  0  0  0  0
   15.1886  -23.5515   -7.3086 C   0  0  0  0  0  0  0  0  0  0  0  0
   16.4440  -24.3543   -7.3859 C   0  0  2  0  0  0  0  0  0  0  0  0
   16.7102  -24.7164   -8.7544 N   0  0  0  0  0  0  0  0  0  0  0  0
   16.4893  -25.5280   -6.5282 C   0  0  0  0  0  0  0  0  0  0  0  0
   15.9257  -26.6254   -6.7752 O   0  0  0  0  0  0  0  0  0  0  0  0
   12.8852  -20.7699   -2.4005 N   0  0  0  0  0  0  0  0  0  0  0  0
   19.5038  -28.5166   -2.7841 C   0  0  0  0  0  0  0  0  0  0  0  0
   18.6858  -27.3665   -2.4509 O   0  0  0  0  0  0  0  0  0  0  0  0
   18.2152  -27.2841   -1.2978 C   0  0  0  0  0  0  0  0  0  0  0  0
   18.4442  -26.3544   -3.4681 C   0  0  1  0  0  0  0  0  0  0  0  0
   17.3313  -26.6755   -4.4335 N   0  0  0  0  0  0  0  0  0  0  0  0
   17.2162  -25.4694   -5.3079 C   0  0  0  0  0  0  0  0  0  0  0  0
   16.0695  -26.7789   -3.6715 O   0  0  0  0  0  0  0  0  0  0  0  0
   15.6191  -28.0177   -3.2643 O   0  0  0  0  0  0  0  0  0  0  0  0
  2  3  2  0
  2  1  1  0
  4  2  1  0
  5  6  1  1
  5  4  1  0
  7  5  1  0
  8  7  2  0
 10  9  1  0
 10 12  1  0
 11 10  2  0
 12 13  1  0
 13 14  1  0
 16 15  1  6
 15 14  1  0
 16 17  1  0
 17  7  1  0
 18 16  1  0
 19 18  2  0
 20 21  1  0
 21 22  2  0
 23 21  1  0
 24 23  1  6
 24 25  1  0
 25 18  1  0
 26 27  1  0
 26 24  1  0
 28 26  2  0
M  END
$$$$
