NRN.pdb
     RDKit          3D

 28 27  0  0  1  0  0  0  0  0999 V2000
   15.7173  -28.5690  -12.5158 N   0  0  0  0  0  0  0  0  0  0  0  0
   16.0415  -27.9635  -11.2807 C   0  0  0  0  0  0  0  0  0  0  0  0
   15.8594  -28.5827  -10.2113 O   0  0  0  0  0  0  0  0  0  0  0  0
   16.5931  -26.6041  -11.2596 C   0  0  0  0  0  0  0  0  0  0  0  0
   18.0490  -26.5672  -10.8935 C   0  0  2  0  0  0  0  0  0  0  0  0
   18.2933  -26.5038   -9.4774 N   0  0  0  0  0  0  0  0  0  0  0  0
   18.6538  -25.3782  -11.5957 C   0  0  0  0  0  0  0  0  0  0  0  0
   18.6811  -24.2474  -11.0480 O   0  0  0  0  0  0  0  0  0  0  0  0
   25.4174  -25.4994  -15.6597 N   0  0  0  0  0  0  0  0  0  0  0  0
   25.2898  -24.1090  -15.8812 C   0  0  0  0  0  0  0  0  0  0  0  0
   26.3499  -23.3840  -16.0902 N   0  0  0  0  0  0  0  0  0  0  0  0
   24.0257  -23.4514  -15.8858 N   0  0  0  0  0  0  0  0  0  0  0  0
   22.8495  -24.2436  -15.6580 C   0  0  0  0  0  0  0  0  0  0  0  0
   22.1210  -23.6644  -14.4469 C   0  0  0  0  0  0  0  0  0  0  0  0
   21.3041  -24.7692  -13.8402 C   0  0  0  0  0  0  0  0  0  0  0  0
   19.8992  -24.3790  -13.5231 C   0  0  2  0  0  0  0  0  0  0  0  0
   19.2149  -25.4801  -12.8954 N   0  0  0  0  0  0  0  0  0  0  0  0
   19.1249  -23.8669  -14.6427 C   0  0  0  0  0  0  0  0  0  0  0  0
   18.6977  -24.5593  -15.6023 O   0  0  0  0  0  0  0  0  0  0  0  0
   26.2909  -22.3697  -16.3209 N   0  0  0  0  0  0  0  0  0  0  0  0
   15.4363  -22.7182  -15.5715 C   0  0  0  0  0  0  0  0  0  0  0  0
   15.7801  -21.3907  -15.0997 O   0  0  0  0  0  0  0  0  0  0  0  0
   14.8985  -20.7130  -14.5329 C   0  0  0  0  0  0  0  0  0  0  0  0
   17.1344  -20.8989  -15.3030 C   0  0  2  0  0  0  0  0  0  0  0  0
   18.0984  -21.9073  -15.8754 N   0  0  0  0  0  0  0  0  0  0  0  0
   18.8065  -22.4823  -14.6920 C   0  0  0  0  0  0  0  0  0  0  0  0
   19.1091  -21.1836  -16.6742 O   0  0  0  0  0  0  0  0  0  0  0  0
   18.7440  -20.6050  -17.8723 O   0  0  0  0  0  0  0  0  0  0  0  0
  2  3  2  0
  2  1  1  0
  4  2  1  0
  5  6  1  1
  5  4  1  0
  7  5  1  0
  8  7  2  0
 10  9  1  0
 10 12  1  0
 11 10  2  0
 12 13  1  0
 13 14  1  0
 16 15  1  6
 15 14  1  0
 16 17  1  0
 17  7  1  0
 18 16  1  0
 19 18  2  0
 20 21  1  0
 21 22  2  0
 23 21  1  0
 24 23  1  1
 24 25  1  0
 25 18  1  0
 26 27  1  0
 26 24  1  0
 28 26  2  0
M  END
$$$$
