NRN.pdb
     RDKit          3D

 28 27  0  0  1  0  0  0  0  0999 V2000
   24.5277  -32.3562   -9.9084 N   0  0  0  0  0  0  0  0  0  0  0  0
   23.2204  -32.0665   -9.4568 C   0  0  0  0  0  0  0  0  0  0  0  0
   22.4303  -32.9949   -9.1847 O   0  0  0  0  0  0  0  0  0  0  0  0
   22.7947  -30.6703   -9.3086 C   0  0  0  0  0  0  0  0  0  0  0  0
   21.5422  -30.3542  -10.0743 C   0  0  2  0  0  0  0  0  0  0  0  0
   21.6561  -30.5659  -11.4926 N   0  0  0  0  0  0  0  0  0  0  0  0
   21.1869  -28.9205   -9.7731 C   0  0  0  0  0  0  0  0  0  0  0  0
   21.0739  -28.5163   -8.5885 O   0  0  0  0  0  0  0  0  0  0  0  0
   17.7247  -24.5778  -15.0858 N   0  0  0  0  0  0  0  0  0  0  0  0
   18.3897  -25.6524  -15.7195 C   0  0  0  0  0  0  0  0  0  0  0  0
   17.8242  -26.2705  -16.7152 N   0  0  0  0  0  0  0  0  0  0  0  0
   19.6789  -26.0990  -15.3083 N   0  0  0  0  0  0  0  0  0  0  0  0
   20.2711  -25.4858  -14.1523 C   0  0  0  0  0  0  0  0  0  0  0  0
   20.1249  -26.4545  -12.9806 C   0  0  0  0  0  0  0  0  0  0  0  0
   20.7060  -25.7866  -11.7672 C   0  0  0  0  0  0  0  0  0  0  0  0
   20.6089  -26.6033  -10.5221 C   0  0  2  0  0  0  0  0  0  0  0  0
   20.9659  -27.9700  -10.8038 N   0  0  0  0  0  0  0  0  0  0  0  0
   19.3305  -26.5405   -9.8314 C   0  0  0  0  0  0  0  0  0  0  0  0
   18.3232  -27.2404  -10.1111 O   0  0  0  0  0  0  0  0  0  0  0  0
   18.2715  -27.0837  -17.1886 N   0  0  0  0  0  0  0  0  0  0  0  0
   16.6360  -25.7544   -4.9444 C   0  0  0  0  0  0  0  0  0  0  0  0
   17.1032  -24.6761   -5.7941 O   0  0  0  0  0  0  0  0  0  0  0  0
   16.5185  -23.5750   -5.7351 C   0  0  0  0  0  0  0  0  0  0  0  0
   18.2319  -24.9154   -6.6807 C   0  0  1  0  0  0  0  0  0  0  0  0
   17.8833  -25.5760   -7.9906 N   0  0  0  0  0  0  0  0  0  0  0  0
   19.1679  -25.6300   -8.7518 C   0  0  0  0  0  0  0  0  0  0  0  0
   16.9760  -24.6797   -8.7368 O   0  0  0  0  0  0  0  0  0  0  0  0
   15.6116  -24.8638   -8.6480 O   0  0  0  0  0  0  0  0  0  0  0  0
  2  3  2  0
  2  1  1  0
  4  2  1  0
  5  6  1  6
  5  4  1  0
  7  5  1  0
  8  7  2  0
 10  9  1  0
 10 12  1  0
 11 10  2  0
 12 13  1  0
 13 14  1  0
 16 15  1  6
 15 14  1  0
 16 17  1  0
 17  7  1  0
 18 16  1  0
 19 18  2  0
 20 21  1  0
 21 22  2  0
 23 21  1  0
 24 23  1  1
 24 25  1  0
 25 18  1  0
 26 27  1  0
 26 24  1  0
 28 26  2  0
M  END
$$$$
