NRN.pdb
     RDKit          3D

 28 27  0  0  1  0  0  0  0  0999 V2000
   26.0017  -15.6988  -18.2072 N   0  0  0  0  0  0  0  0  0  0  0  0
   24.5888  -15.6797  -18.1939 C   0  0  0  0  0  0  0  0  0  0  0  0
   23.9731  -14.6209  -18.4390 O   0  0  0  0  0  0  0  0  0  0  0  0
   23.8475  -16.9091  -17.8908 C   0  0  0  0  0  0  0  0  0  0  0  0
   24.7429  -18.0650  -17.5484 C   0  0  2  0  0  0  0  0  0  0  0  0
   25.4986  -18.5683  -18.6640 N   0  0  0  0  0  0  0  0  0  0  0  0
   23.8698  -19.1448  -16.9614 C   0  0  0  0  0  0  0  0  0  0  0  0
   23.1651  -19.8796  -17.6980 O   0  0  0  0  0  0  0  0  0  0  0  0
   26.4064  -21.2664   -9.7990 N   0  0  0  0  0  0  0  0  0  0  0  0
   25.1133  -20.9074  -10.2433 C   0  0  0  0  0  0  0  0  0  0  0  0
   24.2090  -20.5399   -9.3829 N   0  0  0  0  0  0  0  0  0  0  0  0
   24.7474  -20.9306  -11.6203 N   0  0  0  0  0  0  0  0  0  0  0  0
   25.7382  -21.3371  -12.5774 C   0  0  0  0  0  0  0  0  0  0  0  0
   25.1402  -21.1673  -13.9726 C   0  0  0  0  0  0  0  0  0  0  0  0
   23.6547  -21.0138  -13.8117 C   0  0  0  0  0  0  0  0  0  0  0  0
   22.9765  -20.4129  -14.9972 C   0  0  2  0  0  0  0  0  0  0  0  0
   23.8043  -19.3788  -15.5630 N   0  0  0  0  0  0  0  0  0  0  0  0
   21.6291  -19.9182  -14.7624 C   0  0  0  0  0  0  0  0  0  0  0  0
   21.3442  -18.7589  -14.3655 O   0  0  0  0  0  0  0  0  0  0  0  0
   23.2496  -20.2563   -9.6742 N   0  0  0  0  0  0  0  0  0  0  0  0
   16.1845  -20.0213  -16.1653 C   0  0  0  0  0  0  0  0  0  0  0  0
   16.8160  -21.0331  -15.3404 O   0  0  0  0  0  0  0  0  0  0  0  0
   16.1093  -21.6687  -14.5315 C   0  0  0  0  0  0  0  0  0  0  0  0
   18.2444  -21.2701  -15.4850 C   0  0  1  0  0  0  0  0  0  0  0  0
   19.1282  -20.3146  -14.7236 N   0  0  0  0  0  0  0  0  0  0  0  0
   20.5226  -20.7819  -14.9874 C   0  0  0  0  0  0  0  0  0  0  0  0
   18.8768  -20.4986  -13.2791 O   0  0  0  0  0  0  0  0  0  0  0  0
   19.3305  -21.6386  -12.6484 O   0  0  0  0  0  0  0  0  0  0  0  0
  2  3  2  0
  2  1  1  0
  4  2  1  0
  5  6  1  6
  5  4  1  0
  7  5  1  0
  8  7  2  0
 10  9  1  0
 10 12  1  0
 11 10  2  0
 12 13  1  0
 13 14  1  0
 16 15  1  1
 15 14  1  0
 16 17  1  0
 17  7  1  0
 18 16  1  0
 19 18  2  0
 20 21  1  0
 21 22  2  0
 23 21  1  0
 24 23  1  6
 24 25  1  0
 25 18  1  0
 26 27  1  0
 26 24  1  0
 28 26  2  0
M  END
$$$$
