NRN.pdb
     RDKit          3D

 28 27  0  0  1  0  0  0  0  0999 V2000
   29.8772  -19.0875  -13.4030 N   0  0  0  0  0  0  0  0  0  0  0  0
   28.8514  -18.7074  -14.2975 C   0  0  0  0  0  0  0  0  0  0  0  0
   29.0824  -17.8759  -15.2006 O   0  0  0  0  0  0  0  0  0  0  0  0
   27.5133  -19.2936  -14.1612 C   0  0  0  0  0  0  0  0  0  0  0  0
   27.3979  -20.2270  -12.9905 C   0  0  2  0  0  0  0  0  0  0  0  0
   28.2480  -21.3839  -13.0805 N   0  0  0  0  0  0  0  0  0  0  0  0
   25.9497  -20.6325  -12.8866 C   0  0  0  0  0  0  0  0  0  0  0  0
   25.4722  -21.5256  -13.6306 O   0  0  0  0  0  0  0  0  0  0  0  0
   20.8604  -22.3587   -6.4289 N   0  0  0  0  0  0  0  0  0  0  0  0
   20.6628  -22.6160   -7.8049 C   0  0  0  0  0  0  0  0  0  0  0  0
   19.5454  -23.1426   -8.2138 N   0  0  0  0  0  0  0  0  0  0  0  0
   21.6532  -22.3186   -8.7852 N   0  0  0  0  0  0  0  0  0  0  0  0
   22.7358  -21.4513   -8.4126 C   0  0  0  0  0  0  0  0  0  0  0  0
   23.6860  -21.3486   -9.6041 C   0  0  0  0  0  0  0  0  0  0  0  0
   23.1680  -20.2620  -10.5025 C   0  0  0  0  0  0  0  0  0  0  0  0
   23.6638  -20.3507  -11.9071 C   0  0  2  0  0  0  0  0  0  0  0  0
   25.0672  -20.0300  -11.9523 N   0  0  0  0  0  0  0  0  0  0  0  0
   22.9270  -19.5607  -12.8810 C   0  0  0  0  0  0  0  0  0  0  0  0
   23.3713  -18.5409  -13.4687 O   0  0  0  0  0  0  0  0  0  0  0  0
   19.3610  -23.3392   -9.2202 N   0  0  0  0  0  0  0  0  0  0  0  0
   20.1043  -19.0935  -17.1262 C   0  0  0  0  0  0  0  0  0  0  0  0
   21.3215  -19.8597  -16.9407 O   0  0  0  0  0  0  0  0  0  0  0  0
   21.9193  -20.2824  -17.9516 C   0  0  0  0  0  0  0  0  0  0  0  0
   21.8001  -20.1068  -15.5890 C   0  0  1  0  0  0  0  0  0  0  0  0
   20.9791  -19.4693  -14.4967 N   0  0  0  0  0  0  0  0  0  0  0  0
   21.5994  -19.9385  -13.2210 C   0  0  0  0  0  0  0  0  0  0  0  0
   19.6154  -20.0362  -14.5484 O   0  0  0  0  0  0  0  0  0  0  0  0
   18.6294  -19.3760  -15.2523 O   0  0  0  0  0  0  0  0  0  0  0  0
  2  3  2  0
  2  1  1  0
  4  2  1  0
  5  6  1  6
  5  4  1  0
  7  5  1  0
  8  7  2  0
 10  9  1  0
 10 12  1  0
 11 10  2  0
 12 13  1  0
 13 14  1  0
 16 15  1  1
 15 14  1  0
 16 17  1  0
 17  7  1  0
 18 16  1  0
 19 18  2  0
 20 21  1  0
 21 22  2  0
 23 21  1  0
 24 23  1  6
 24 25  1  0
 25 18  1  0
 26 27  1  0
 26 24  1  0
 28 26  2  0
M  END
$$$$
