AAA.pdb
     RDKit          3D

 16 15  0  0  1  0  0  0  0  0999 V2000
    5.4411  -18.6126   22.6474 C   0  0  0  0  0  0  0  0  0  0  0  0
    5.7650  -18.3184   21.2087 C   0  0  2  0  0  0  0  0  0  0  0  0
    6.2200  -19.5506   20.5916 N   0  0  0  0  0  0  0  0  0  0  0  0
    6.8247  -17.2958   21.0507 C   0  0  0  0  0  0  0  0  0  0  0  0
    8.0445  -17.6171   21.0255 O   0  0  0  0  0  0  0  0  0  0  0  0
    6.9197  -13.6385   20.2851 C   0  0  0  0  0  0  0  0  0  0  0  0
    7.6004  -14.9298   20.7365 C   0  0  2  0  0  0  0  0  0  0  0  0
    6.5426  -15.9043   20.9188 N   0  0  0  0  0  0  0  0  0  0  0  0
    8.3767  -14.7150   21.9835 C   0  0  0  0  0  0  0  0  0  0  0  0
    9.4211  -14.0155   21.9347 O   0  0  0  0  0  0  0  0  0  0  0  0
    8.0745  -14.4557   25.5572 C   0  0  0  0  0  0  0  0  0  0  0  0
    8.8100  -15.1175   24.4406 C   0  0  2  0  0  0  0  0  0  0  0  0
    8.0136  -15.2525   23.2379 N   0  0  0  0  0  0  0  0  0  0  0  0
    9.3198  -16.4284   24.9166 C   0  0  0  0  0  0  0  0  0  0  0  0
    9.0027  -17.5279   24.3913 O   0  0  0  0  0  0  0  0  0  0  0  0
   10.1818  -16.4510   25.9841 O   0  0  0  0  0  0  0  0  0  0  0  0
  2  1  1  1
  2  3  1  0
  4  8  1  0
  4  2  1  0
  5  4  2  0
  7  6  1  1
  7  8  1  0
  9  7  1  0
  9 13  1  0
 10  9  2  0
 12 13  1  0
 12 11  1  1
 14 12  1  0
 15 14  2  0
 16 14  1  0
M  END
$$$$
