AAA.pdb
     RDKit          3D

 16 15  0  0  1  0  0  0  0  0999 V2000
   -2.3977  -27.1700   30.0149 C   0  0  0  0  0  0  0  0  0  0  0  0
   -3.3375  -27.8711   29.0733 C   0  0  2  0  0  0  0  0  0  0  0  0
   -2.5883  -28.2412   27.8867 N   0  0  0  0  0  0  0  0  0  0  0  0
   -4.4817  -27.0260   28.6606 C   0  0  0  0  0  0  0  0  0  0  0  0
   -4.3236  -26.0480   27.8794 O   0  0  0  0  0  0  0  0  0  0  0  0
   -8.1938  -27.2043   28.9838 C   0  0  0  0  0  0  0  0  0  0  0  0
   -6.9178  -26.4230   28.6740 C   0  0  2  0  0  0  0  0  0  0  0  0
   -5.8150  -27.2568   29.1104 N   0  0  0  0  0  0  0  0  0  0  0  0
   -6.9205  -25.1054   29.3577 C   0  0  0  0  0  0  0  0  0  0  0  0
   -6.5025  -25.0360   30.5422 O   0  0  0  0  0  0  0  0  0  0  0  0
   -7.5134  -21.4721   28.5113 C   0  0  0  0  0  0  0  0  0  0  0  0
   -7.4494  -22.6356   29.4431 C   0  0  2  0  0  0  0  0  0  0  0  0
   -7.3681  -23.9086   28.7564 N   0  0  0  0  0  0  0  0  0  0  0  0
   -8.6150  -22.5755   30.3611 C   0  0  0  0  0  0  0  0  0  0  0  0
   -9.5238  -23.4467   30.3857 O   0  0  0  0  0  0  0  0  0  0  0  0
   -8.7141  -21.5186   31.2307 O   0  0  0  0  0  0  0  0  0  0  0  0
  2  1  1  1
  2  3  1  0
  4  8  1  0
  4  2  1  0
  5  4  2  0
  7  6  1  1
  7  8  1  0
  9  7  1  0
  9 13  1  0
 10  9  2  0
 12 13  1  0
 12 11  1  6
 14 12  1  0
 15 14  2  0
 16 14  1  0
M  END
$$$$
