AAA.pdb
     RDKit          3D

 16 15  0  0  1  0  0  0  0  0999 V2000
    8.5828  -12.3284   19.7547 C   0  0  0  0  0  0  0  0  0  0  0  0
    8.3462  -13.8119   19.6869 C   0  0  2  0  0  0  0  0  0  0  0  0
    7.4184  -14.0678   18.6008 N   0  0  0  0  0  0  0  0  0  0  0  0
    7.7710  -14.3645   20.9349 C   0  0  0  0  0  0  0  0  0  0  0  0
    6.5262  -14.3574   21.1400 O   0  0  0  0  0  0  0  0  0  0  0  0
    8.6505  -16.7897   23.4596 C   0  0  0  0  0  0  0  0  0  0  0  0
    7.9806  -15.4428   23.1914 C   0  0  2  0  0  0  0  0  0  0  0  0
    8.5712  -14.9316   21.9701 N   0  0  0  0  0  0  0  0  0  0  0  0
    8.1764  -14.5139   24.3325 C   0  0  0  0  0  0  0  0  0  0  0  0
    9.3322  -14.0754   24.5661 O   0  0  0  0  0  0  0  0  0  0  0  0
    6.0243  -12.5143   26.7069 C   0  0  0  0  0  0  0  0  0  0  0  0
    7.3076  -13.1312   26.2614 C   0  0  2  0  0  0  0  0  0  0  0  0
    7.1351  -14.0847   25.1844 N   0  0  0  0  0  0  0  0  0  0  0  0
    7.9770  -13.7409   27.4383 C   0  0  0  0  0  0  0  0  0  0  0  0
    8.0925  -14.9839   27.6035 O   0  0  0  0  0  0  0  0  0  0  0  0
    8.4995  -12.9134   28.4002 O   0  0  0  0  0  0  0  0  0  0  0  0
  2  1  1  1
  2  3  1  0
  4  8  1  0
  4  2  1  0
  5  4  2  0
  7  6  1  1
  7  8  1  0
  9  7  1  0
  9 13  1  0
 10  9  2  0
 12 13  1  0
 12 11  1  1
 14 12  1  0
 15 14  2  0
 16 14  1  0
M  END
$$$$
