AAA.pdb
     RDKit          3D

 16 15  0  0  1  0  0  0  0  0999 V2000
    7.5504  -17.9317   18.7338 C   0  0  0  0  0  0  0  0  0  0  0  0
    7.8293  -16.9485   17.6306 C   0  0  2  0  0  0  0  0  0  0  0  0
    8.5724  -17.6394   16.5930 N   0  0  0  0  0  0  0  0  0  0  0  0
    8.6254  -15.7833   18.0805 C   0  0  0  0  0  0  0  0  0  0  0  0
    9.8865  -15.8162   18.0861 O   0  0  0  0  0  0  0  0  0  0  0  0
    7.8757  -12.2593   19.0998 C   0  0  0  0  0  0  0  0  0  0  0  0
    8.8367  -13.4373   18.9465 C   0  0  2  0  0  0  0  0  0  0  0  0
    8.0304  -14.5676   18.5295 N   0  0  0  0  0  0  0  0  0  0  0  0
    9.5548  -13.7079   20.2173 C   0  0  0  0  0  0  0  0  0  0  0  0
   10.5330  -12.9805   20.5278 O   0  0  0  0  0  0  0  0  0  0  0  0
    8.8861  -15.5433   23.4090 C   0  0  0  0  0  0  0  0  0  0  0  0
    9.8135  -14.9303   22.4141 C   0  0  2  0  0  0  0  0  0  0  0  0
    9.2060  -14.7431   21.1123 N   0  0  0  0  0  0  0  0  0  0  0  0
   11.0440  -15.7579   22.3366 C   0  0  0  0  0  0  0  0  0  0  0  0
   11.7983  -15.9726   23.3217 O   0  0  0  0  0  0  0  0  0  0  0  0
   11.3833  -16.3216   21.1324 O   0  0  0  0  0  0  0  0  0  0  0  0
  2  1  1  1
  2  3  1  0
  4  8  1  0
  4  2  1  0
  5  4  2  0
  7  6  1  1
  7  8  1  0
  9  7  1  0
  9 13  1  0
 10  9  2  0
 12 13  1  0
 12 11  1  1
 14 12  1  0
 15 14  2  0
 16 14  1  0
M  END
$$$$
