AAA.pdb
     RDKit          3D

 16 15  0  0  1  0  0  0  0  0999 V2000
    7.9263  -17.8615   18.7636 C   0  0  0  0  0  0  0  0  0  0  0  0
    7.7550  -16.8054   17.7068 C   0  0  2  0  0  0  0  0  0  0  0  0
    8.2106  -17.3578   16.4445 N   0  0  0  0  0  0  0  0  0  0  0  0
    8.5296  -15.5745   17.9867 C   0  0  0  0  0  0  0  0  0  0  0  0
    9.7393  -15.4712   17.6435 O   0  0  0  0  0  0  0  0  0  0  0  0
    7.8136  -12.1983   19.4334 C   0  0  0  0  0  0  0  0  0  0  0  0
    8.7855  -13.3055   19.0281 C   0  0  2  0  0  0  0  0  0  0  0  0
    7.9703  -14.4435   18.6511 N   0  0  0  0  0  0  0  0  0  0  0  0
    9.7137  -13.6327   20.1394 C   0  0  0  0  0  0  0  0  0  0  0  0
   10.6243  -12.8148   20.4296 O   0  0  0  0  0  0  0  0  0  0  0  0
    9.7723  -15.9254   23.0875 C   0  0  0  0  0  0  0  0  0  0  0  0
   10.4641  -15.0918   22.0616 C   0  0  2  0  0  0  0  0  0  0  0  0
    9.6395  -14.8188   20.9021 N   0  0  0  0  0  0  0  0  0  0  0  0
   11.7395  -15.7552   21.6898 C   0  0  0  0  0  0  0  0  0  0  0  0
   11.9920  -16.1706   20.5282 O   0  0  0  0  0  0  0  0  0  0  0  0
   12.6978  -15.9280   22.6566 O   0  0  0  0  0  0  0  0  0  0  0  0
  2  1  1  1
  2  3  1  0
  4  8  1  0
  4  2  1  0
  5  4  2  0
  7  6  1  1
  7  8  1  0
  9  7  1  0
  9 13  1  0
 10  9  2  0
 12 13  1  0
 12 11  1  1
 14 12  1  0
 15 14  2  0
 16 14  1  0
M  END
$$$$
