AAA.pdb
     RDKit          3D

 16 15  0  0  1  0  0  0  0  0999 V2000
    6.7826  -17.6424   23.1765 C   0  0  0  0  0  0  0  0  0  0  0  0
    7.0982  -17.1531   21.7900 C   0  0  2  0  0  0  0  0  0  0  0  0
    7.9125  -18.1600   21.1348 N   0  0  0  0  0  0  0  0  0  0  0  0
    7.8412  -15.8719   21.7828 C   0  0  0  0  0  0  0  0  0  0  0  0
    9.0622  -15.8226   22.0964 O   0  0  0  0  0  0  0  0  0  0  0  0
    7.1863  -12.3593   20.7070 C   0  0  0  0  0  0  0  0  0  0  0  0
    7.9524  -13.3752   21.5529 C   0  0  2  0  0  0  0  0  0  0  0  0
    7.2372  -14.6300   21.4274 N   0  0  0  0  0  0  0  0  0  0  0  0
    8.0457  -12.9297   22.9659 C   0  0  0  0  0  0  0  0  0  0  0  0
    8.7823  -11.9489   23.2450 O   0  0  0  0  0  0  0  0  0  0  0  0
    6.0666  -12.8432   26.0000 C   0  0  0  0  0  0  0  0  0  0  0  0
    7.4125  -13.0939   25.4070 C   0  0  2  0  0  0  0  0  0  0  0  0
    7.3515  -13.5439   24.0313 N   0  0  0  0  0  0  0  0  0  0  0  0
    8.1425  -14.0552   26.2718 C   0  0  0  0  0  0  0  0  0  0  0  0
    8.5553  -15.1747   25.8694 O   0  0  0  0  0  0  0  0  0  0  0  0
    8.3837  -13.7131   27.5786 O   0  0  0  0  0  0  0  0  0  0  0  0
  2  1  1  1
  2  3  1  0
  4  8  1  0
  4  2  1  0
  5  4  2  0
  7  6  1  6
  7  8  1  0
  9  7  1  0
  9 13  1  0
 10  9  2  0
 12 13  1  0
 12 11  1  1
 14 12  1  0
 15 14  2  0
 16 14  1  0
M  END
$$$$
