AAA.pdb
     RDKit          3D

 16 15  0  0  1  0  0  0  0  0999 V2000
   -1.0963  -28.2170   31.3867 C   0  0  0  0  0  0  0  0  0  0  0  0
   -1.3077  -27.6791   29.9984 C   0  0  2  0  0  0  0  0  0  0  0  0
   -0.0262  -27.2173   29.4977 N   0  0  0  0  0  0  0  0  0  0  0  0
   -2.2633  -26.5483   29.9544 C   0  0  0  0  0  0  0  0  0  0  0  0
   -1.9794  -25.4323   30.4696 O   0  0  0  0  0  0  0  0  0  0  0  0
   -5.1695  -25.5067   28.0155 C   0  0  0  0  0  0  0  0  0  0  0  0
   -4.4931  -25.5473   29.3850 C   0  0  2  0  0  0  0  0  0  0  0  0
   -3.5455  -26.6434   29.3376 N   0  0  0  0  0  0  0  0  0  0  0  0
   -5.4928  -25.7256   30.4678 C   0  0  0  0  0  0  0  0  0  0  0  0
   -6.2844  -24.7819   30.7237 O   0  0  0  0  0  0  0  0  0  0  0  0
   -6.8889  -28.5003   32.5955 C   0  0  0  0  0  0  0  0  0  0  0  0
   -6.5654  -27.0702   32.3194 C   0  0  2  0  0  0  0  0  0  0  0  0
   -5.6143  -26.9019   31.2397 N   0  0  0  0  0  0  0  0  0  0  0  0
   -6.0928  -26.4373   33.5768 C   0  0  0  0  0  0  0  0  0  0  0  0
   -4.9064  -26.0562   33.7578 O   0  0  0  0  0  0  0  0  0  0  0  0
   -6.9896  -26.2549   34.5993 O   0  0  0  0  0  0  0  0  0  0  0  0
  2  1  1  1
  2  3  1  0
  4  8  1  0
  4  2  1  0
  5  4  2  0
  7  6  1  6
  7  8  1  0
  9  7  1  0
  9 13  1  0
 10  9  2  0
 12 13  1  0
 12 11  1  1
 14 12  1  0
 15 14  2  0
 16 14  1  0
M  END
$$$$
