AAA.pdb
     RDKit          3D

 16 15  0  0  1  0  0  0  0  0999 V2000
    8.5221  -18.1763   20.5997 C   0  0  0  0  0  0  0  0  0  0  0  0
    7.9590  -17.3232   21.7026 C   0  0  2  0  0  0  0  0  0  0  0  0
    6.5157  -17.2939   21.5530 N   0  0  0  0  0  0  0  0  0  0  0  0
    8.4618  -15.9303   21.6720 C   0  0  0  0  0  0  0  0  0  0  0  0
    9.6842  -15.6727   21.8479 O   0  0  0  0  0  0  0  0  0  0  0  0
    7.2044  -12.6080   20.6239 C   0  0  0  0  0  0  0  0  0  0  0  0
    8.1172  -13.4494   21.5147 C   0  0  2  0  0  0  0  0  0  0  0  0
    7.6131  -14.8070   21.4458 N   0  0  0  0  0  0  0  0  0  0  0  0
    8.1277  -12.9324   22.9062 C   0  0  0  0  0  0  0  0  0  0  0  0
    8.8813  -11.9653   23.1880 O   0  0  0  0  0  0  0  0  0  0  0  0
    6.0803  -12.9794   25.9993 C   0  0  0  0  0  0  0  0  0  0  0  0
    7.4118  -13.0287   25.3280 C   0  0  2  0  0  0  0  0  0  0  0  0
    7.3358  -13.4630   23.9480 N   0  0  0  0  0  0  0  0  0  0  0  0
    8.3180  -13.8893   26.1299 C   0  0  0  0  0  0  0  0  0  0  0  0
    8.8192  -14.9606   25.6977 O   0  0  0  0  0  0  0  0  0  0  0  0
    8.6303  -13.5039   27.4093 O   0  0  0  0  0  0  0  0  0  0  0  0
  2  1  1  6
  2  3  1  0
  4  8  1  0
  4  2  1  0
  5  4  2  0
  7  6  1  6
  7  8  1  0
  9  7  1  0
  9 13  1  0
 10  9  2  0
 12 13  1  0
 12 11  1  1
 14 12  1  0
 15 14  2  0
 16 14  1  0
M  END
$$$$
