AAA.pdb
     RDKit          3D

 16 15  0  0  1  0  0  0  0  0999 V2000
   11.9856  -17.8980   21.9328 C   0  0  0  0  0  0  0  0  0  0  0  0
   10.7042  -17.2218   21.5301 C   0  0  2  0  0  0  0  0  0  0  0  0
   11.0012  -16.3160   20.4357 N   0  0  0  0  0  0  0  0  0  0  0  0
   10.0897  -16.4427   22.6297 C   0  0  0  0  0  0  0  0  0  0  0  0
   10.4278  -15.2479   22.8526 O   0  0  0  0  0  0  0  0  0  0  0  0
    7.2058  -16.9069   24.9486 C   0  0  0  0  0  0  0  0  0  0  0  0
    8.4922  -16.1861   24.5481 C   0  0  2  0  0  0  0  0  0  0  0  0
    9.0922  -16.9813   23.4949 N   0  0  0  0  0  0  0  0  0  0  0  0
    9.4007  -16.0317   25.7119 C   0  0  0  0  0  0  0  0  0  0  0  0
   10.3227  -16.8715   25.8770 O   0  0  0  0  0  0  0  0  0  0  0  0
   10.0345  -13.4936   28.4572 C   0  0  0  0  0  0  0  0  0  0  0  0
   10.2054  -14.8073   27.7711 C   0  0  2  0  0  0  0  0  0  0  0  0
    9.2957  -14.9890   26.6584 N   0  0  0  0  0  0  0  0  0  0  0  0
   10.0723  -15.8912   28.7773 C   0  0  0  0  0  0  0  0  0  0  0  0
   10.9010  -16.0804   29.7063 O   0  0  0  0  0  0  0  0  0  0  0  0
    8.9928  -16.7346   28.6973 O   0  0  0  0  0  0  0  0  0  0  0  0
  2  1  1  1
  2  3  1  0
  4  8  1  0
  4  2  1  0
  5  4  2  0
  7  6  1  1
  7  8  1  0
  9  7  1  0
  9 13  1  0
 10  9  2  0
 12 13  1  0
 12 11  1  1
 14 12  1  0
 15 14  2  0
 16 14  1  0
M  END
$$$$
