AAA.pdb
     RDKit          3D

 16 15  0  0  1  0  0  0  0  0999 V2000
    4.4127  -22.6888   24.6536 C   0  0  0  0  0  0  0  0  0  0  0  0
    4.7941  -22.6519   23.1995 C   0  0  2  0  0  0  0  0  0  0  0  0
    5.0018  -24.0183   22.7567 N   0  0  0  0  0  0  0  0  0  0  0  0
    6.0342  -21.8831   22.9450 C   0  0  0  0  0  0  0  0  0  0  0  0
    7.1696  -22.4261   23.0330 O   0  0  0  0  0  0  0  0  0  0  0  0
    6.8881  -18.5900   21.4573 C   0  0  0  0  0  0  0  0  0  0  0  0
    7.2594  -19.7764   22.3457 C   0  0  2  0  0  0  0  0  0  0  0  0
    6.0283  -20.5020   22.5899 N   0  0  0  0  0  0  0  0  0  0  0  0
    7.8926  -19.3190   23.6080 C   0  0  0  0  0  0  0  0  0  0  0  0
    9.1211  -19.0480   23.6067 O   0  0  0  0  0  0  0  0  0  0  0  0
    6.9629  -17.9417   26.9395 C   0  0  0  0  0  0  0  0  0  0  0  0
    7.8236  -18.8075   26.0820 C   0  0  2  0  0  0  0  0  0  0  0  0
    7.1957  -19.1663   24.8267 N   0  0  0  0  0  0  0  0  0  0  0  0
    8.2228  -20.0055   26.8633 C   0  0  0  0  0  0  0  0  0  0  0  0
    7.9274  -21.1825   26.5273 O   0  0  0  0  0  0  0  0  0  0  0  0
    8.9517  -19.8290   28.0125 O   0  0  0  0  0  0  0  0  0  0  0  0
  2  1  1  1
  2  3  1  0
  4  8  1  0
  4  2  1  0
  5  4  2  0
  7  6  1  6
  7  8  1  0
  9  7  1  0
  9 13  1  0
 10  9  2  0
 12 13  1  0
 12 11  1  1
 14 12  1  0
 15 14  2  0
 16 14  1  0
M  END
$$$$
