AAA.pdb
     RDKit          3D

 16 15  0  0  1  0  0  0  0  0999 V2000
    8.0866  -17.5986   16.5139 C   0  0  0  0  0  0  0  0  0  0  0  0
    8.0706  -18.0561   17.9463 C   0  0  2  0  0  0  0  0  0  0  0  0
    6.6935  -18.3308   18.3129 N   0  0  0  0  0  0  0  0  0  0  0  0
    8.6125  -17.0454   18.8836 C   0  0  0  0  0  0  0  0  0  0  0  0
    9.8417  -16.7618   18.9000 O   0  0  0  0  0  0  0  0  0  0  0  0
    7.2286  -14.5131   21.2379 C   0  0  0  0  0  0  0  0  0  0  0  0
    8.3678  -15.4248   20.7842 C   0  0  2  0  0  0  0  0  0  0  0  0
    7.7958  -16.3374   19.8138 N   0  0  0  0  0  0  0  0  0  0  0  0
    8.9652  -16.1447   21.9368 C   0  0  0  0  0  0  0  0  0  0  0  0
    8.3515  -17.1308   22.4200 O   0  0  0  0  0  0  0  0  0  0  0  0
   12.2767  -16.2624   23.7419 C   0  0  0  0  0  0  0  0  0  0  0  0
   10.8130  -16.5239   23.6188 C   0  0  2  0  0  0  0  0  0  0  0  0
   10.1947  -15.7894   22.5339 N   0  0  0  0  0  0  0  0  0  0  0  0
   10.1657  -16.2334   24.9232 C   0  0  0  0  0  0  0  0  0  0  0  0
    9.3115  -15.3227   25.0858 O   0  0  0  0  0  0  0  0  0  0  0  0
   10.5111  -16.9927   26.0129 O   0  0  0  0  0  0  0  0  0  0  0  0
  2  1  1  6
  2  3  1  0
  4  8  1  0
  4  2  1  0
  5  4  2  0
  7  6  1  1
  7  8  1  0
  9  7  1  0
  9 13  1  0
 10  9  2  0
 12 13  1  0
 12 11  1  1
 14 12  1  0
 15 14  2  0
 16 14  1  0
M  END
$$$$
