ETE.pdb
     RDKit          3D

 26 25  0  0  1  0  0  0  0  0999 V2000
    7.4686  -17.2401   16.2583 N   0  0  0  0  0  0  0  0  0  0  0  0
    8.2696  -17.9090   17.2838 C   0  0  1  0  0  0  0  0  0  0  0  0
    9.5072  -18.4585   16.6105 C   0  0  0  0  0  0  0  0  0  0  0  0
   10.4827  -19.0795   17.5583 C   0  0  0  0  0  0  0  0  0  0  0  0
   11.6705  -19.5289   16.8211 C   0  0  0  0  0  0  0  0  0  0  0  0
   11.5901  -20.2191   15.7845 O   0  0  0  0  0  0  0  0  0  0  0  0
    8.6157  -16.8732   18.3140 C   0  0  0  0  0  0  0  0  0  0  0  0
    9.1282  -15.7932   17.9192 O   0  0  0  0  0  0  0  0  0  0  0  0
   12.9398  -19.1702   17.2984 O   0  0  0  0  0  0  0  0  0  0  0  0
    7.7392  -14.4435   22.2441 C   0  0  0  0  0  0  0  0  0  0  0  0
    7.4659  -15.5728   21.2959 C   0  0  1  0  0  0  0  0  0  0  0  0
    6.6112  -15.0352   20.2941 O   0  0  0  0  0  0  0  0  0  0  0  0
    8.7498  -16.0359   20.6388 C   0  0  2  0  0  0  0  0  0  0  0  0
    8.3740  -17.0983   19.6961 N   0  0  0  0  0  0  0  0  0  0  0  0
    9.7028  -16.5647   21.6471 C   0  0  0  0  0  0  0  0  0  0  0  0
    9.4858  -17.7534   22.0135 O   0  0  0  0  0  0  0  0  0  0  0  0
   10.7887  -15.8824   22.2079 N   0  0  0  0  0  0  0  0  0  0  0  0
   11.7260  -16.4016   23.1412 C   0  0  1  0  0  0  0  0  0  0  0  0
   13.1420  -15.9045   23.0445 C   0  0  0  0  0  0  0  0  0  0  0  0
   14.0803  -16.6026   23.9803 C   0  0  0  0  0  0  0  0  0  0  0  0
   15.4867  -16.3708   23.5143 C   0  0  0  0  0  0  0  0  0  0  0  0
   16.2953  -17.3011   23.3380 O   0  0  0  0  0  0  0  0  0  0  0  0
   11.2332  -16.5699   24.5143 C   0  0  0  0  0  0  0  0  0  0  0  0
   11.6872  -17.5817   25.3317 O   0  0  0  0  0  0  0  0  0  0  0  0
   15.9069  -15.0764   23.2695 O   0  0  0  0  0  0  0  0  0  0  0  0
   10.3775  -15.7751   24.9585 O   0  0  0  0  0  0  0  0  0  0  0  0
  2  7  1  0
  2  1  1  6
  3  2  1  0
  4  3  1  0
  5  4  1  0
  6  5  2  0
  7  8  2  0
  9  5  1  0
 11 10  1  1
 11 12  1  0
 13 11  1  0
 13 14  1  6
 14  7  1  0
 15 16  2  0
 15 13  1  0
 17 15  1  0
 18 17  1  0
 19 20  1  0
 18 19  1  1
 20 21  1  0
 21 22  2  0
 21 25  1  0
 23 18  1  0
 23 24  1  0
 26 23  2  0
M  END
$$$$
