ETE.pdb
     RDKit          3D

 26 25  0  0  1  0  0  0  0  0999 V2000
    9.7188  -16.6385   17.6026 N   0  0  0  0  0  0  0  0  0  0  0  0
    9.8297  -17.3611   18.8700 C   0  0  1  0  0  0  0  0  0  0  0  0
   11.1159  -18.1557   18.8319 C   0  0  0  0  0  0  0  0  0  0  0  0
   12.1465  -17.5889   17.9087 C   0  0  0  0  0  0  0  0  0  0  0  0
   13.3413  -18.4424   17.9181 C   0  0  0  0  0  0  0  0  0  0  0  0
   13.7729  -18.9964   16.8863 O   0  0  0  0  0  0  0  0  0  0  0  0
    9.8500  -16.3303   19.9615 C   0  0  0  0  0  0  0  0  0  0  0  0
   10.3383  -15.1999   19.6997 O   0  0  0  0  0  0  0  0  0  0  0  0
   14.0215  -18.6423   19.1284 O   0  0  0  0  0  0  0  0  0  0  0  0
    7.1967  -14.6779   21.0921 C   0  0  0  0  0  0  0  0  0  0  0  0
    7.7679  -15.2013   22.3762 C   0  0  1  0  0  0  0  0  0  0  0  0
    7.0776  -16.4174   22.6365 O   0  0  0  0  0  0  0  0  0  0  0  0
    9.2427  -15.5072   22.2148 C   0  0  2  0  0  0  0  0  0  0  0  0
    9.3342  -16.6153   21.2546 N   0  0  0  0  0  0  0  0  0  0  0  0
    9.8483  -15.9058   23.5105 C   0  0  0  0  0  0  0  0  0  0  0  0
   10.6467  -16.8821   23.4476 O   0  0  0  0  0  0  0  0  0  0  0  0
    9.6203  -15.3108   24.7568 N   0  0  0  0  0  0  0  0  0  0  0  0
   10.1084  -15.7607   26.0131 C   0  0  1  0  0  0  0  0  0  0  0  0
    9.9744  -14.8220   27.1804 C   0  0  0  0  0  0  0  0  0  0  0  0
   10.5954  -15.3478   28.4380 C   0  0  0  0  0  0  0  0  0  0  0  0
   10.4193  -14.3295   29.5245 C   0  0  0  0  0  0  0  0  0  0  0  0
    9.9366  -13.2014   29.3127 O   0  0  0  0  0  0  0  0  0  0  0  0
    9.8452  -17.1697   26.3327 C   0  0  0  0  0  0  0  0  0  0  0  0
   10.8211  -17.9932   26.8499 O   0  0  0  0  0  0  0  0  0  0  0  0
   10.8060  -14.6500   30.8127 O   0  0  0  0  0  0  0  0  0  0  0  0
    8.7051  -17.6396   26.1317 O   0  0  0  0  0  0  0  0  0  0  0  0
  2  7  1  0
  2  1  1  6
  3  2  1  0
  4  3  1  0
  5  4  1  0
  6  5  2  0
  7  8  2  0
  9  5  1  0
 11 10  1  6
 11 12  1  0
 13 11  1  0
 13 14  1  6
 14  7  1  0
 15 16  2  0
 15 13  1  0
 17 15  1  0
 18 17  1  0
 19 20  1  0
 18 19  1  1
 20 21  1  0
 21 22  2  0
 21 25  1  0
 23 18  1  0
 23 24  1  0
 26 23  2  0
M  END
$$$$
