ETE.pdb
     RDKit          3D

 26 25  0  0  1  0  0  0  0  0999 V2000
   13.8188  -13.8631   17.0646 N   0  0  0  0  0  0  0  0  0  0  0  0
   12.5434  -14.5800   17.0703 C   0  0  1  0  0  0  0  0  0  0  0  0
   12.8295  -16.0240   16.7239 C   0  0  0  0  0  0  0  0  0  0  0  0
   13.9364  -16.6278   17.5274 C   0  0  0  0  0  0  0  0  0  0  0  0
   14.2062  -17.9905   17.0513 C   0  0  0  0  0  0  0  0  0  0  0  0
   15.1092  -18.7005   17.5393 O   0  0  0  0  0  0  0  0  0  0  0  0
   11.9722  -14.4468   18.4524 C   0  0  0  0  0  0  0  0  0  0  0  0
   12.7737  -14.3211   19.4150 O   0  0  0  0  0  0  0  0  0  0  0  0
   13.4221  -18.5126   16.0121 O   0  0  0  0  0  0  0  0  0  0  0  0
    8.4621  -12.6819   18.8930 C   0  0  0  0  0  0  0  0  0  0  0  0
    8.6269  -13.7867   19.8937 C   0  0  1  0  0  0  0  0  0  0  0  0
    7.9185  -14.8983   19.3592 O   0  0  0  0  0  0  0  0  0  0  0  0
   10.0874  -14.1644   20.0309 C   0  0  2  0  0  0  0  0  0  0  0  0
   10.5688  -14.4606   18.6748 N   0  0  0  0  0  0  0  0  0  0  0  0
   10.2491  -15.3575   20.8997 C   0  0  0  0  0  0  0  0  0  0  0  0
   10.6239  -16.4049   20.3022 O   0  0  0  0  0  0  0  0  0  0  0  0
   10.0314  -15.4201   22.2809 N   0  0  0  0  0  0  0  0  0  0  0  0
   10.8177  -16.1244   23.2322 C   0  0  1  0  0  0  0  0  0  0  0  0
   12.3120  -16.0534   23.0785 C   0  0  0  0  0  0  0  0  0  0  0  0
   13.0504  -16.9002   24.0692 C   0  0  0  0  0  0  0  0  0  0  0  0
   14.5234  -16.7272   23.8475 C   0  0  0  0  0  0  0  0  0  0  0  0
   15.1551  -15.7465   24.2829 O   0  0  0  0  0  0  0  0  0  0  0  0
   10.3458  -16.0626   24.6215 C   0  0  0  0  0  0  0  0  0  0  0  0
    9.4057  -15.1424   25.0306 O   0  0  0  0  0  0  0  0  0  0  0  0
   15.2114  -17.6905   23.1330 O   0  0  0  0  0  0  0  0  0  0  0  0
   10.8071  -16.8657   25.4601 O   0  0  0  0  0  0  0  0  0  0  0  0
  2  7  1  0
  2  1  1  1
  3  2  1  0
  4  3  1  0
  5  4  1  0
  6  5  2  0
  7  8  2  0
  9  5  1  0
 11 10  1  6
 11 12  1  0
 13 11  1  0
 13 14  1  6
 14  7  1  0
 15 16  2  0
 15 13  1  0
 17 15  1  0
 18 17  1  0
 19 20  1  0
 18 19  1  1
 20 21  1  0
 21 22  2  0
 21 25  1  0
 23 18  1  0
 23 24  1  0
 26 23  2  0
M  END
$$$$
