ETE.pdb
     RDKit          3D

 26 25  0  0  1  0  0  0  0  0999 V2000
    9.2268  -18.3657   17.0385 N   0  0  0  0  0  0  0  0  0  0  0  0
    8.5492  -18.5289   18.3249 C   0  0  1  0  0  0  0  0  0  0  0  0
    8.8812  -19.9099   18.8443 C   0  0  0  0  0  0  0  0  0  0  0  0
   10.2009  -20.4297   18.3712 C   0  0  0  0  0  0  0  0  0  0  0  0
   10.4212  -21.7791   18.9065 C   0  0  0  0  0  0  0  0  0  0  0  0
    9.6086  -22.3322   19.6755 O   0  0  0  0  0  0  0  0  0  0  0  0
    9.0735  -17.4562   19.2353 C   0  0  0  0  0  0  0  0  0  0  0  0
   10.2145  -16.9814   18.9956 O   0  0  0  0  0  0  0  0  0  0  0  0
   11.5855  -22.4710   18.5412 O   0  0  0  0  0  0  0  0  0  0  0  0
    8.2049  -14.1440   22.7560 C   0  0  0  0  0  0  0  0  0  0  0  0
    7.7352  -15.3182   21.9499 C   0  0  1  0  0  0  0  0  0  0  0  0
    6.7759  -14.7987   21.0372 O   0  0  0  0  0  0  0  0  0  0  0  0
    8.8830  -15.9119   21.1595 C   0  0  2  0  0  0  0  0  0  0  0  0
    8.3092  -16.9854   20.3369 N   0  0  0  0  0  0  0  0  0  0  0  0
    9.9222  -16.4650   22.0643 C   0  0  0  0  0  0  0  0  0  0  0  0
    9.6110  -17.5481   22.6341 O   0  0  0  0  0  0  0  0  0  0  0  0
   11.1788  -15.9091   22.3308 N   0  0  0  0  0  0  0  0  0  0  0  0
   12.1839  -16.4514   23.1763 C   0  0  1  0  0  0  0  0  0  0  0  0
   13.5855  -15.9365   22.9980 C   0  0  0  0  0  0  0  0  0  0  0  0
   14.5793  -16.5980   23.9027 C   0  0  0  0  0  0  0  0  0  0  0  0
   15.9319  -16.0016   23.6505 C   0  0  0  0  0  0  0  0  0  0  0  0
   16.7140  -15.7027   24.5722 O   0  0  0  0  0  0  0  0  0  0  0  0
   11.7909  -16.6735   24.5738 C   0  0  0  0  0  0  0  0  0  0  0  0
   12.1952  -17.7882   25.2751 O   0  0  0  0  0  0  0  0  0  0  0  0
   16.3311  -15.7729   22.3466 O   0  0  0  0  0  0  0  0  0  0  0  0
   11.0694  -15.8300   25.1474 O   0  0  0  0  0  0  0  0  0  0  0  0
  2  7  1  0
  2  1  1  6
  3  2  1  0
  4  3  1  0
  5  4  1  0
  6  5  2  0
  7  8  2  0
  9  5  1  0
 11 10  1  1
 11 12  1  0
 13 11  1  0
 13 14  1  6
 14  7  1  0
 15 16  2  0
 15 13  1  0
 17 15  1  0
 18 17  1  0
 19 20  1  0
 18 19  1  1
 20 21  1  0
 21 22  2  0
 21 25  1  0
 23 18  1  0
 23 24  1  0
 26 23  2  0
M  END
$$$$
