ETE.pdb
     RDKit          3D

 26 25  0  0  1  0  0  0  0  0999 V2000
    7.1567  -14.7769   20.1193 N   0  0  0  0  0  0  0  0  0  0  0  0
    7.4134  -15.7704   21.1623 C   0  0  1  0  0  0  0  0  0  0  0  0
    8.3523  -16.8062   20.5855 C   0  0  0  0  0  0  0  0  0  0  0  0
    8.3232  -16.8800   19.0925 C   0  0  0  0  0  0  0  0  0  0  0  0
    9.2082  -17.9581   18.6336 C   0  0  0  0  0  0  0  0  0  0  0  0
   10.4505  -17.8390   18.6166 O   0  0  0  0  0  0  0  0  0  0  0  0
    8.0378  -15.0418   22.3171 C   0  0  0  0  0  0  0  0  0  0  0  0
    8.7463  -14.0317   22.0668 O   0  0  0  0  0  0  0  0  0  0  0  0
    8.6381  -19.1638   18.1991 O   0  0  0  0  0  0  0  0  0  0  0  0
    7.8353  -13.3057   26.6929 C   0  0  0  0  0  0  0  0  0  0  0  0
    7.3182  -14.0195   25.4795 C   0  0  1  0  0  0  0  0  0  0  0  0
    6.7551  -13.0101   24.6506 O   0  0  0  0  0  0  0  0  0  0  0  0
    8.4551  -14.6827   24.7297 C   0  0  2  0  0  0  0  0  0  0  0  0
    7.8387  -15.4738   23.6561 N   0  0  0  0  0  0  0  0  0  0  0  0
    9.2397  -15.5677   25.6272 C   0  0  0  0  0  0  0  0  0  0  0  0
    8.6370  -16.6100   26.0078 O   0  0  0  0  0  0  0  0  0  0  0  0
   10.5495  -15.3554   26.0726 N   0  0  0  0  0  0  0  0  0  0  0  0
   11.2814  -16.1735   26.9749 C   0  0  1  0  0  0  0  0  0  0  0  0
   12.7428  -16.3806   26.6864 C   0  0  0  0  0  0  0  0  0  0  0  0
   13.0962  -16.1817   25.2445 C   0  0  0  0  0  0  0  0  0  0  0  0
   14.5644  -16.4315   25.0694 C   0  0  0  0  0  0  0  0  0  0  0  0
   15.1433  -16.2812   23.9772 O   0  0  0  0  0  0  0  0  0  0  0  0
   10.9612  -15.9997   28.3975 C   0  0  0  0  0  0  0  0  0  0  0  0
   11.4120  -16.8789   29.3576 O   0  0  0  0  0  0  0  0  0  0  0  0
   15.3087  -16.8446   26.1590 O   0  0  0  0  0  0  0  0  0  0  0  0
   10.2603  -15.0282   28.7521 O   0  0  0  0  0  0  0  0  0  0  0  0
  2  7  1  0
  2  1  1  6
  3  2  1  0
  4  3  1  0
  5  4  1  0
  6  5  2  0
  7  8  2  0
  9  5  1  0
 11 10  1  1
 11 12  1  0
 13 11  1  0
 13 14  1  6
 14  7  1  0
 15 16  2  0
 15 13  1  0
 17 15  1  0
 18 17  1  0
 19 20  1  0
 18 19  1  1
 20 21  1  0
 21 22  2  0
 21 25  1  0
 23 18  1  0
 23 24  1  0
 26 23  2  0
M  END
$$$$
