ETE.pdb
     RDKit          3D

 26 25  0  0  1  0  0  0  0  0999 V2000
    8.9149  -17.1654   16.1270 N   0  0  0  0  0  0  0  0  0  0  0  0
    8.0807  -17.2766   17.3238 C   0  0  1  0  0  0  0  0  0  0  0  0
    8.0060  -18.7410   17.6943 C   0  0  0  0  0  0  0  0  0  0  0  0
    9.1592  -19.5487   17.1912 C   0  0  0  0  0  0  0  0  0  0  0  0
    9.4560  -20.6302   18.1391 C   0  0  0  0  0  0  0  0  0  0  0  0
    9.3231  -21.8344   17.8394 O   0  0  0  0  0  0  0  0  0  0  0  0
    8.7476  -16.4687   18.3993 C   0  0  0  0  0  0  0  0  0  0  0  0
    9.9978  -16.3303   18.3470 O   0  0  0  0  0  0  0  0  0  0  0  0
    9.9043  -20.2988   19.4262 O   0  0  0  0  0  0  0  0  0  0  0  0
    6.8662  -13.3568   20.1435 C   0  0  0  0  0  0  0  0  0  0  0  0
    7.6445  -14.1958   21.1128 C   0  0  1  0  0  0  0  0  0  0  0  0
    6.7039  -15.0989   21.6809 O   0  0  0  0  0  0  0  0  0  0  0  0
    8.7066  -14.9962   20.3877 C   0  0  2  0  0  0  0  0  0  0  0  0
    7.9958  -15.8742   19.4484 N   0  0  0  0  0  0  0  0  0  0  0  0
    9.5029  -15.8098   21.3408 C   0  0  0  0  0  0  0  0  0  0  0  0
    9.2968  -17.0542   21.2809 O   0  0  0  0  0  0  0  0  0  0  0  0
   10.4352  -15.3328   22.2695 N   0  0  0  0  0  0  0  0  0  0  0  0
   11.2302  -16.1142   23.1507 C   0  0  1  0  0  0  0  0  0  0  0  0
   12.7124  -16.1433   22.8985 C   0  0  0  0  0  0  0  0  0  0  0  0
   13.4598  -17.0172   23.8583 C   0  0  0  0  0  0  0  0  0  0  0  0
   14.9205  -16.9609   23.5241 C   0  0  0  0  0  0  0  0  0  0  0  0
   15.5287  -17.9219   23.0172 O   0  0  0  0  0  0  0  0  0  0  0  0
   10.8560  -16.0555   24.5696 C   0  0  0  0  0  0  0  0  0  0  0  0
   11.0123  -17.1368   25.4088 O   0  0  0  0  0  0  0  0  0  0  0  0
   15.6240  -15.7998   23.7867 O   0  0  0  0  0  0  0  0  0  0  0  0
   10.3819  -14.9967   25.0336 O   0  0  0  0  0  0  0  0  0  0  0  0
  2  7  1  0
  2  1  1  6
  3  2  1  0
  4  3  1  0
  5  4  1  0
  6  5  2  0
  7  8  2  0
  9  5  1  0
 11 10  1  6
 11 12  1  0
 13 11  1  0
 13 14  1  6
 14  7  1  0
 15 16  2  0
 15 13  1  0
 17 15  1  0
 18 17  1  0
 19 20  1  0
 18 19  1  1
 20 21  1  0
 21 22  2  0
 21 25  1  0
 23 18  1  0
 23 24  1  0
 26 23  2  0
M  END
$$$$
