ETE.pdb
     RDKit          3D

 26 25  0  0  1  0  0  0  0  0999 V2000
   10.7034  -17.9759   19.0018 N   0  0  0  0  0  0  0  0  0  0  0  0
    9.8405  -18.4860   20.0676 C   0  0  1  0  0  0  0  0  0  0  0  0
   10.0499  -19.9815   20.1485 C   0  0  0  0  0  0  0  0  0  0  0  0
    9.6390  -20.7147   18.9119 C   0  0  0  0  0  0  0  0  0  0  0  0
    9.8510  -22.1557   19.0982 C   0  0  0  0  0  0  0  0  0  0  0  0
    9.5790  -22.9897   18.2105 O   0  0  0  0  0  0  0  0  0  0  0  0
   10.2595  -17.8007   21.3361 C   0  0  0  0  0  0  0  0  0  0  0  0
   11.4577  -17.4288   21.4406 O   0  0  0  0  0  0  0  0  0  0  0  0
   10.3776  -22.6110   20.3159 O   0  0  0  0  0  0  0  0  0  0  0  0
    9.3103  -14.8767   24.9738 C   0  0  0  0  0  0  0  0  0  0  0  0
    8.9119  -15.6609   23.7591 C   0  0  1  0  0  0  0  0  0  0  0  0
    9.1014  -14.7833   22.6559 O   0  0  0  0  0  0  0  0  0  0  0  0
    9.8178  -16.8621   23.5828 C   0  0  2  0  0  0  0  0  0  0  0  0
    9.3356  -17.5746   22.3919 N   0  0  0  0  0  0  0  0  0  0  0  0
    9.7559  -17.7537   24.7684 C   0  0  0  0  0  0  0  0  0  0  0  0
    8.6340  -18.2980   24.9679 O   0  0  0  0  0  0  0  0  0  0  0  0
   10.8008  -18.0368   25.6556 N   0  0  0  0  0  0  0  0  0  0  0  0
   10.7495  -18.9105   26.7750 C   0  0  1  0  0  0  0  0  0  0  0  0
   11.5922  -20.1547   26.7169 C   0  0  0  0  0  0  0  0  0  0  0  0
   12.1311  -20.4420   25.3491 C   0  0  0  0  0  0  0  0  0  0  0  0
   12.9698  -21.6835   25.4128 C   0  0  0  0  0  0  0  0  0  0  0  0
   12.5474  -22.7961   25.0464 O   0  0  0  0  0  0  0  0  0  0  0  0
   10.7156  -18.2602   28.0913 C   0  0  0  0  0  0  0  0  0  0  0  0
   10.4755  -18.9696   29.2476 O   0  0  0  0  0  0  0  0  0  0  0  0
   14.2623  -21.5952   25.8959 O   0  0  0  0  0  0  0  0  0  0  0  0
   10.9095  -17.0284   28.1698 O   0  0  0  0  0  0  0  0  0  0  0  0
  2  7  1  0
  2  1  1  6
  3  2  1  0
  4  3  1  0
  5  4  1  0
  6  5  2  0
  7  8  2  0
  9  5  1  0
 11 10  1  1
 11 12  1  0
 13 11  1  0
 13 14  1  6
 14  7  1  0
 15 16  2  0
 15 13  1  0
 17 15  1  0
 18 17  1  0
 19 20  1  0
 18 19  1  1
 20 21  1  0
 21 22  2  0
 21 25  1  0
 23 18  1  0
 23 24  1  0
 26 23  2  0
M  END
$$$$
