ETE.pdb
     RDKit          3D

 26 25  0  0  1  0  0  0  0  0999 V2000
   10.6486  -15.4908   14.2627 N   0  0  0  0  0  0  0  0  0  0  0  0
   10.0996  -16.1863   15.4271 C   0  0  1  0  0  0  0  0  0  0  0  0
   10.8929  -17.4602   15.6143 C   0  0  0  0  0  0  0  0  0  0  0  0
   10.6094  -18.5032   14.5812 C   0  0  0  0  0  0  0  0  0  0  0  0
   11.3701  -19.7214   14.8870 C   0  0  0  0  0  0  0  0  0  0  0  0
   11.7714  -20.4979   13.9962 O   0  0  0  0  0  0  0  0  0  0  0  0
   10.2528  -15.2632   16.6011 C   0  0  0  0  0  0  0  0  0  0  0  0
   11.3144  -14.5926   16.6929 O   0  0  0  0  0  0  0  0  0  0  0  0
   11.6559  -20.0231   16.2268 O   0  0  0  0  0  0  0  0  0  0  0  0
    8.3337  -12.6993   20.2582 C   0  0  0  0  0  0  0  0  0  0  0  0
    8.1604  -13.6677   19.1264 C   0  0  1  0  0  0  0  0  0  0  0  0
    7.6761  -12.8981   18.0327 O   0  0  0  0  0  0  0  0  0  0  0  0
    9.4933  -14.2741   18.7386 C   0  0  2  0  0  0  0  0  0  0  0  0
    9.2332  -15.1443   17.5838 N   0  0  0  0  0  0  0  0  0  0  0  0
   10.0615  -15.0691   19.8564 C   0  0  0  0  0  0  0  0  0  0  0  0
    9.5454  -16.2106   20.0148 O   0  0  0  0  0  0  0  0  0  0  0  0
   11.0892  -14.6767   20.7219 N   0  0  0  0  0  0  0  0  0  0  0  0
   11.5964  -15.4144   21.8254 C   0  0  1  0  0  0  0  0  0  0  0  0
   13.0705  -15.3100   22.1045 C   0  0  0  0  0  0  0  0  0  0  0  0
   13.9152  -15.4018   20.8710 C   0  0  0  0  0  0  0  0  0  0  0  0
   15.3594  -15.3454   21.2707 C   0  0  0  0  0  0  0  0  0  0  0  0
   16.1150  -16.3319   21.1909 O   0  0  0  0  0  0  0  0  0  0  0  0
   10.7501  -15.4308   23.0254 C   0  0  0  0  0  0  0  0  0  0  0  0
    9.6609  -14.5979   23.1592 O   0  0  0  0  0  0  0  0  0  0  0  0
   15.8771  -14.1550   21.7467 O   0  0  0  0  0  0  0  0  0  0  0  0
   11.0216  -16.2211   23.9542 O   0  0  0  0  0  0  0  0  0  0  0  0
  2  7  1  0
  2  1  1  6
  3  2  1  0
  4  3  1  0
  5  4  1  0
  6  5  2  0
  7  8  2  0
  9  5  1  0
 11 10  1  1
 11 12  1  0
 13 11  1  0
 13 14  1  6
 14  7  1  0
 15 16  2  0
 15 13  1  0
 17 15  1  0
 18 17  1  0
 19 20  1  0
 18 19  1  1
 20 21  1  0
 21 22  2  0
 21 25  1  0
 23 18  1  0
 23 24  1  0
 26 23  2  0
M  END
$$$$
