ETE.pdb
     RDKit          3D

 26 25  0  0  1  0  0  0  0  0999 V2000
    8.6548  -20.4259   18.1341 N   0  0  0  0  0  0  0  0  0  0  0  0
    9.9231  -19.7925   17.7723 C   0  0  1  0  0  0  0  0  0  0  0  0
    9.8477  -19.4228   16.3078 C   0  0  0  0  0  0  0  0  0  0  0  0
    8.7051  -18.5183   15.9733 C   0  0  0  0  0  0  0  0  0  0  0  0
    8.7469  -18.1763   14.5459 C   0  0  0  0  0  0  0  0  0  0  0  0
    7.8739  -17.4676   14.0044 O   0  0  0  0  0  0  0  0  0  0  0  0
   10.0693  -18.5770   18.6414 C   0  0  0  0  0  0  0  0  0  0  0  0
   11.1217  -17.8946   18.5334 O   0  0  0  0  0  0  0  0  0  0  0  0
    9.8047  -18.6627   13.7635 O   0  0  0  0  0  0  0  0  0  0  0  0
    7.9831  -15.3166   21.6769 C   0  0  0  0  0  0  0  0  0  0  0  0
    7.8823  -16.5567   20.8397 C   0  0  1  0  0  0  0  0  0  0  0  0
    7.0706  -16.2038   19.7262 O   0  0  0  0  0  0  0  0  0  0  0  0
    9.2493  -16.9660   20.3314 C   0  0  2  0  0  0  0  0  0  0  0  0
    9.0530  -18.2014   19.5609 N   0  0  0  0  0  0  0  0  0  0  0  0
   10.1840  -17.2128   21.4584 C   0  0  0  0  0  0  0  0  0  0  0  0
   10.0248  -18.3165   22.0508 O   0  0  0  0  0  0  0  0  0  0  0  0
   11.1965  -16.3563   21.9061 N   0  0  0  0  0  0  0  0  0  0  0  0
   12.1652  -16.6388   22.9065 C   0  0  1  0  0  0  0  0  0  0  0  0
   13.5607  -16.1268   22.6781 C   0  0  0  0  0  0  0  0  0  0  0  0
   14.5090  -16.4781   23.7831 C   0  0  0  0  0  0  0  0  0  0  0  0
   15.8314  -15.8266   23.5083 C   0  0  0  0  0  0  0  0  0  0  0  0
   16.3794  -15.0565   24.3190 O   0  0  0  0  0  0  0  0  0  0  0  0
   11.6985  -16.5331   24.2949 C   0  0  0  0  0  0  0  0  0  0  0  0
   12.1346  -17.3953   25.2769 O   0  0  0  0  0  0  0  0  0  0  0  0
   16.4712  -16.0873   22.3107 O   0  0  0  0  0  0  0  0  0  0  0  0
   10.8826  -15.6370   24.5991 O   0  0  0  0  0  0  0  0  0  0  0  0
  2  7  1  0
  2  1  1  1
  3  2  1  0
  4  3  1  0
  5  4  1  0
  6  5  2  0
  7  8  2  0
  9  5  1  0
 11 10  1  1
 11 12  1  0
 13 11  1  0
 13 14  1  1
 14  7  1  0
 15 16  2  0
 15 13  1  0
 17 15  1  0
 18 17  1  0
 19 20  1  0
 18 19  1  1
 20 21  1  0
 21 22  2  0
 21 25  1  0
 23 18  1  0
 23 24  1  0
 26 23  2  0
M  END
$$$$
