ETE.pdb
     RDKit          3D

 26 25  0  0  1  0  0  0  0  0999 V2000
    7.1654  -14.3166   15.9130 N   0  0  0  0  0  0  0  0  0  0  0  0
    7.9118  -15.3060   16.6908 C   0  0  1  0  0  0  0  0  0  0  0  0
    9.0827  -15.7605   15.8484 C   0  0  0  0  0  0  0  0  0  0  0  0
   10.0164  -16.6836   16.5638 C   0  0  0  0  0  0  0  0  0  0  0  0
   11.0447  -17.1655   15.6328 C   0  0  0  0  0  0  0  0  0  0  0  0
   11.9186  -17.9889   15.9730 O   0  0  0  0  0  0  0  0  0  0  0  0
    8.3682  -14.6220   17.9469 C   0  0  0  0  0  0  0  0  0  0  0  0
    8.2810  -13.3674   18.0034 O   0  0  0  0  0  0  0  0  0  0  0  0
   11.0450  -16.6838   14.3154 O   0  0  0  0  0  0  0  0  0  0  0  0
    7.1794  -13.2514   19.6548 C   0  0  0  0  0  0  0  0  0  0  0  0
    7.7797  -14.0933   20.7411 C   0  0  1  0  0  0  0  0  0  0  0  0
    6.8804  -15.1794   20.9270 O   0  0  0  0  0  0  0  0  0  0  0  0
    9.1210  -14.6452   20.3041 C   0  0  2  0  0  0  0  0  0  0  0  0
    8.8842  -15.3629   19.0443 N   0  0  0  0  0  0  0  0  0  0  0  0
    9.6713  -15.5746   21.3229 C   0  0  0  0  0  0  0  0  0  0  0  0
    9.2929  -16.7740   21.2099 O   0  0  0  0  0  0  0  0  0  0  0  0
   10.5479  -15.2479   22.3642 N   0  0  0  0  0  0  0  0  0  0  0  0
   11.4453  -16.1293   23.0250 C   0  0  1  0  0  0  0  0  0  0  0  0
   12.9157  -15.8442   22.8896 C   0  0  0  0  0  0  0  0  0  0  0  0
   13.7815  -16.8623   23.5661 C   0  0  0  0  0  0  0  0  0  0  0  0
   15.2172  -16.4663   23.3913 C   0  0  0  0  0  0  0  0  0  0  0  0
   16.1173  -16.8571   24.1578 O   0  0  0  0  0  0  0  0  0  0  0  0
   11.0332  -16.5755   24.3621 C   0  0  0  0  0  0  0  0  0  0  0  0
   11.6138  -17.6626   24.9777 O   0  0  0  0  0  0  0  0  0  0  0  0
   15.5603  -15.6355   22.3407 O   0  0  0  0  0  0  0  0  0  0  0  0
   10.1305  -15.9544   24.9626 O   0  0  0  0  0  0  0  0  0  0  0  0
  2  7  1  0
  2  1  1  6
  3  2  1  0
  4  3  1  0
  5  4  1  0
  6  5  2  0
  7  8  2  0
  9  5  1  0
 11 10  1  6
 11 12  1  0
 13 11  1  0
 13 14  1  6
 14  7  1  0
 15 16  2  0
 15 13  1  0
 17 15  1  0
 18 17  1  0
 19 20  1  0
 18 19  1  1
 20 21  1  0
 21 22  2  0
 21 25  1  0
 23 18  1  0
 23 24  1  0
 26 23  2  0
M  END
$$$$
