ETE.pdb
     RDKit          3D

 26 25  0  0  1  0  0  0  0  0999 V2000
    8.7394  -14.6762   15.2100 N   0  0  0  0  0  0  0  0  0  0  0  0
    8.5115  -15.7179   16.2118 C   0  0  1  0  0  0  0  0  0  0  0  0
    9.2188  -16.9684   15.7395 C   0  0  0  0  0  0  0  0  0  0  0  0
   10.6057  -16.7225   15.2378 C   0  0  0  0  0  0  0  0  0  0  0  0
   11.1797  -17.9776   14.7364 C   0  0  0  0  0  0  0  0  0  0  0  0
   11.2019  -18.2620   13.5214 O   0  0  0  0  0  0  0  0  0  0  0  0
    9.0846  -15.2148   17.5051 C   0  0  0  0  0  0  0  0  0  0  0  0
   10.1445  -14.5370   17.4594 O   0  0  0  0  0  0  0  0  0  0  0  0
   11.7221  -18.8889   15.6546 O   0  0  0  0  0  0  0  0  0  0  0  0
    7.2611  -13.0394   19.4575 C   0  0  0  0  0  0  0  0  0  0  0  0
    7.7773  -13.9992   20.4877 C   0  0  1  0  0  0  0  0  0  0  0  0
    6.7061  -14.8987   20.7459 O   0  0  0  0  0  0  0  0  0  0  0  0
    8.9489  -14.7870   19.9386 C   0  0  2  0  0  0  0  0  0  0  0  0
    8.4540  -15.4915   18.7481 N   0  0  0  0  0  0  0  0  0  0  0  0
    9.4471  -15.7655   20.9380 C   0  0  0  0  0  0  0  0  0  0  0  0
    9.1237  -16.9658   20.7157 O   0  0  0  0  0  0  0  0  0  0  0  0
   10.2222  -15.4828   22.0687 N   0  0  0  0  0  0  0  0  0  0  0  0
   10.6721  -16.4144   23.0428 C   0  0  1  0  0  0  0  0  0  0  0  0
   12.1324  -16.7734   23.0299 C   0  0  0  0  0  0  0  0  0  0  0  0
   13.0024  -15.7402   23.6774 C   0  0  0  0  0  0  0  0  0  0  0  0
   14.4219  -15.9705   23.2522 C   0  0  0  0  0  0  0  0  0  0  0  0
   15.3534  -16.0953   24.0691 O   0  0  0  0  0  0  0  0  0  0  0  0
   10.0950  -16.2634   24.3848 C   0  0  0  0  0  0  0  0  0  0  0  0
   10.3362  -17.1767   25.3877 O   0  0  0  0  0  0  0  0  0  0  0  0
   14.7133  -16.0480   21.9029 O   0  0  0  0  0  0  0  0  0  0  0  0
    9.3638  -15.2801   24.6288 O   0  0  0  0  0  0  0  0  0  0  0  0
  2  7  1  0
  2  1  1  6
  3  2  1  0
  4  3  1  0
  5  4  1  0
  6  5  2  0
  7  8  2  0
  9  5  1  0
 11 10  1  6
 11 12  1  0
 13 11  1  0
 13 14  1  6
 14  7  1  0
 15 16  2  0
 15 13  1  0
 17 15  1  0
 18 17  1  0
 19 20  1  0
 18 19  1  1
 20 21  1  0
 21 22  2  0
 21 25  1  0
 23 18  1  0
 23 24  1  0
 26 23  2  0
M  END
$$$$
