ETE.pdb
     RDKit          3D

 26 25  0  0  1  0  0  0  0  0999 V2000
    9.6956  -16.6774   17.4129 N   0  0  0  0  0  0  0  0  0  0  0  0
    9.8066  -17.3473   18.7088 C   0  0  1  0  0  0  0  0  0  0  0  0
   11.1303  -18.0783   18.7334 C   0  0  0  0  0  0  0  0  0  0  0  0
   11.4574  -18.7742   17.4511 C   0  0  0  0  0  0  0  0  0  0  0  0
   12.7352  -19.4850   17.5866 C   0  0  0  0  0  0  0  0  0  0  0  0
   13.8332  -18.8921   17.5665 O   0  0  0  0  0  0  0  0  0  0  0  0
    9.7471  -16.2781   19.7611 C   0  0  0  0  0  0  0  0  0  0  0  0
   10.5812  -15.3373   19.6975 O   0  0  0  0  0  0  0  0  0  0  0  0
   12.7216  -20.8788   17.7440 O   0  0  0  0  0  0  0  0  0  0  0  0
    7.1873  -13.8848   20.6440 C   0  0  0  0  0  0  0  0  0  0  0  0
    7.4700  -14.6514   21.9016 C   0  0  1  0  0  0  0  0  0  0  0  0
    6.4963  -15.6872   21.9475 O   0  0  0  0  0  0  0  0  0  0  0  0
    8.8455  -15.2830   21.8397 C   0  0  2  0  0  0  0  0  0  0  0  0
    8.7798  -16.3201   20.8012 N   0  0  0  0  0  0  0  0  0  0  0  0
    9.2106  -15.8917   23.1438 C   0  0  0  0  0  0  0  0  0  0  0  0
    9.3763  -17.1433   23.1199 O   0  0  0  0  0  0  0  0  0  0  0  0
    9.3841  -15.2198   24.3594 N   0  0  0  0  0  0  0  0  0  0  0  0
    9.5809  -15.8129   25.6355 C   0  0  1  0  0  0  0  0  0  0  0  0
    9.9310  -14.8958   26.7748 C   0  0  0  0  0  0  0  0  0  0  0  0
   10.1841  -15.6194   28.0617 C   0  0  0  0  0  0  0  0  0  0  0  0
   10.4521  -14.6096   29.1374 C   0  0  0  0  0  0  0  0  0  0  0  0
   10.3271  -13.3847   28.9518 O   0  0  0  0  0  0  0  0  0  0  0  0
    8.6498  -16.8924   25.9881 C   0  0  0  0  0  0  0  0  0  0  0  0
    9.0884  -18.0931   26.5018 O   0  0  0  0  0  0  0  0  0  0  0  0
   10.8537  -15.0499   30.3851 O   0  0  0  0  0  0  0  0  0  0  0  0
    7.4236  -16.7216   25.8193 O   0  0  0  0  0  0  0  0  0  0  0  0
  2  7  1  0
  2  1  1  6
  3  2  1  0
  4  3  1  0
  5  4  1  0
  6  5  2  0
  7  8  2  0
  9  5  1  0
 11 10  1  6
 11 12  1  0
 13 11  1  0
 13 14  1  6
 14  7  1  0
 15 16  2  0
 15 13  1  0
 17 15  1  0
 18 17  1  0
 19 20  1  0
 18 19  1  1
 20 21  1  0
 21 22  2  0
 21 25  1  0
 23 18  1  0
 23 24  1  0
 26 23  2  0
M  END
$$$$
