ETE.pdb
     RDKit          3D

 26 25  0  0  1  0  0  0  0  0999 V2000
    8.8271  -17.4817   16.4247 N   0  0  0  0  0  0  0  0  0  0  0  0
    8.9948  -18.1797   17.6996 C   0  0  1  0  0  0  0  0  0  0  0  0
   10.1393  -19.1552   17.5392 C   0  0  0  0  0  0  0  0  0  0  0  0
    9.8087  -20.3356   16.6832 C   0  0  0  0  0  0  0  0  0  0  0  0
   10.9595  -21.2461   16.6310 C   0  0  0  0  0  0  0  0  0  0  0  0
   11.1091  -22.1788   17.4467 O   0  0  0  0  0  0  0  0  0  0  0  0
    9.3008  -17.1353   18.7339 C   0  0  0  0  0  0  0  0  0  0  0  0
   10.0863  -16.2030   18.4199 O   0  0  0  0  0  0  0  0  0  0  0  0
   11.9243  -21.0617   15.6297 O   0  0  0  0  0  0  0  0  0  0  0  0
    7.9622  -14.3654   22.3453 C   0  0  0  0  0  0  0  0  0  0  0  0
    7.7372  -15.5807   21.4959 C   0  0  1  0  0  0  0  0  0  0  0  0
    6.9579  -15.1386   20.3912 O   0  0  0  0  0  0  0  0  0  0  0  0
    9.0555  -16.1150   20.9750 C   0  0  2  0  0  0  0  0  0  0  0  0
    8.7236  -17.1909   20.0312 N   0  0  0  0  0  0  0  0  0  0  0  0
    9.8879  -16.6490   22.0824 C   0  0  0  0  0  0  0  0  0  0  0  0
    9.4448  -17.7007   22.6228 O   0  0  0  0  0  0  0  0  0  0  0  0
   11.0854  -16.1065   22.5631 N   0  0  0  0  0  0  0  0  0  0  0  0
   11.8703  -16.6040   23.6380 C   0  0  1  0  0  0  0  0  0  0  0  0
   13.3202  -16.2065   23.6738 C   0  0  0  0  0  0  0  0  0  0  0  0
   13.9882  -16.2810   22.3352 C   0  0  0  0  0  0  0  0  0  0  0  0
   15.4360  -15.9260   22.4988 C   0  0  0  0  0  0  0  0  0  0  0  0
   15.8520  -15.2311   23.4446 O   0  0  0  0  0  0  0  0  0  0  0  0
   11.2134  -16.6260   24.9513 C   0  0  0  0  0  0  0  0  0  0  0  0
   11.5948  -17.5049   25.9412 O   0  0  0  0  0  0  0  0  0  0  0  0
   16.3482  -16.3852   21.5667 O   0  0  0  0  0  0  0  0  0  0  0  0
   10.2814  -15.8265   25.1822 O   0  0  0  0  0  0  0  0  0  0  0  0
  2  7  1  0
  2  1  1  6
  3  2  1  0
  4  3  1  0
  5  4  1  0
  6  5  2  0
  7  8  2  0
  9  5  1  0
 11 10  1  1
 11 12  1  0
 13 11  1  0
 13 14  1  6
 14  7  1  0
 15 16  2  0
 15 13  1  0
 17 15  1  0
 18 17  1  0
 19 20  1  0
 18 19  1  1
 20 21  1  0
 21 22  2  0
 21 25  1  0
 23 18  1  0
 23 24  1  0
 26 23  2  0
M  END
$$$$
