ETE.pdb
     RDKit          3D

 26 25  0  0  1  0  0  0  0  0999 V2000
   12.5449  -13.9676   16.3110 N   0  0  0  0  0  0  0  0  0  0  0  0
   11.9390  -15.0669   17.0627 C   0  0  1  0  0  0  0  0  0  0  0  0
   13.0101  -16.1101   17.2896 C   0  0  0  0  0  0  0  0  0  0  0  0
   14.2033  -15.9505   16.4029 C   0  0  0  0  0  0  0  0  0  0  0  0
   15.1516  -17.0444   16.6487 C   0  0  0  0  0  0  0  0  0  0  0  0
   16.1828  -17.1994   15.9630 O   0  0  0  0  0  0  0  0  0  0  0  0
   11.4455  -14.4916   18.3587 C   0  0  0  0  0  0  0  0  0  0  0  0
   12.1452  -13.6075   18.9189 O   0  0  0  0  0  0  0  0  0  0  0  0
   14.8897  -17.9468   17.6902 O   0  0  0  0  0  0  0  0  0  0  0  0
    8.2779  -12.7827   18.8639 C   0  0  0  0  0  0  0  0  0  0  0  0
    8.3421  -13.8362   19.9293 C   0  0  1  0  0  0  0  0  0  0  0  0
    7.6212  -14.9487   19.4137 O   0  0  0  0  0  0  0  0  0  0  0  0
    9.7765  -14.2593   20.1709 C   0  0  2  0  0  0  0  0  0  0  0  0
   10.2250  -14.9273   18.9416 N   0  0  0  0  0  0  0  0  0  0  0  0
    9.8689  -15.1945   21.3204 C   0  0  0  0  0  0  0  0  0  0  0  0
    9.8640  -16.4191   21.0128 O   0  0  0  0  0  0  0  0  0  0  0  0
    9.9606  -14.8478   22.6734 N   0  0  0  0  0  0  0  0  0  0  0  0
   10.0015  -15.7419   23.7770 C   0  0  1  0  0  0  0  0  0  0  0  0
   11.3541  -16.0755   24.3434 C   0  0  0  0  0  0  0  0  0  0  0  0
   11.5673  -17.5447   24.5423 C   0  0  0  0  0  0  0  0  0  0  0  0
   12.9793  -17.7697   24.9944 C   0  0  0  0  0  0  0  0  0  0  0  0
   13.8190  -16.8519   25.0486 O   0  0  0  0  0  0  0  0  0  0  0  0
    8.9482  -15.5614   24.7843 C   0  0  0  0  0  0  0  0  0  0  0  0
    8.0557  -14.5136   24.7243 O   0  0  0  0  0  0  0  0  0  0  0  0
   13.3692  -19.0431   25.3664 O   0  0  0  0  0  0  0  0  0  0  0  0
    8.8548  -16.3790   25.7244 O   0  0  0  0  0  0  0  0  0  0  0  0
  2  7  1  0
  2  1  1  6
  3  2  1  0
  4  3  1  0
  5  4  1  0
  6  5  2  0
  7  8  2  0
  9  5  1  0
 11 10  1  6
 11 12  1  0
 13 11  1  0
 13 14  1  6
 14  7  1  0
 15 16  2  0
 15 13  1  0
 17 15  1  0
 18 17  1  0
 19 20  1  0
 18 19  1  1
 20 21  1  0
 21 22  2  0
 21 25  1  0
 23 18  1  0
 23 24  1  0
 26 23  2  0
M  END
$$$$
