VGY.pdb
     RDKit          3D

 24 24  0  0  1  0  0  0  0  0999 V2000
   24.9740  -19.0698  -20.0186 C   0  0  0  0  0  0  0  0  0  0  0  0
   24.2100  -19.2469  -18.7348 C   0  0  2  0  0  0  0  0  0  0  0  0
   22.8014  -18.7164  -18.8994 C   0  0  0  0  0  0  0  0  0  0  0  0
   24.8454  -18.5150  -17.5814 C   0  0  2  0  0  0  0  0  0  0  0  0
   26.2550  -18.7699  -17.5563 N   0  0  0  0  0  0  0  0  0  0  0  0
   24.1709  -18.7517  -16.3033 C   0  0  0  0  0  0  0  0  0  0  0  0
   24.6235  -19.6194  -15.5206 O   0  0  0  0  0  0  0  0  0  0  0  0
   22.9919  -18.0132  -15.9107 N   0  0  0  0  0  0  0  0  0  0  0  0
   22.3838  -18.2228  -14.6215 C   0  0  0  0  0  0  0  0  0  0  0  0
   21.6425  -19.4629  -14.4897 C   0  0  0  0  0  0  0  0  0  0  0  0
   21.2254  -20.0653  -15.5392 O   0  0  0  0  0  0  0  0  0  0  0  0
   26.6614  -20.6384  -10.8957 O   0  0  0  0  0  0  0  0  0  0  0  0
   25.3370  -21.0146  -11.1864 C   0  0  0  0  0  0  0  0  0  0  0  0
   24.2987  -20.4492  -10.4761 C   0  0  0  0  0  0  0  0  0  0  0  0
   22.9972  -20.8130  -10.7554 C   0  0  0  0  0  0  0  0  0  0  0  0
   22.6979  -21.7350  -11.7338 C   0  0  0  0  0  0  0  0  0  0  0  0
   21.3215  -22.1613  -12.0656 C   0  0  0  0  0  0  0  0  0  0  0  0
   20.7186  -21.4249  -13.2284 C   0  0  2  0  0  0  0  0  0  0  0  0
   21.3202  -20.1007  -13.2693 N   0  0  0  0  0  0  0  0  0  0  0  0
   19.2526  -21.3675  -13.2267 C   0  0  0  0  0  0  0  0  0  0  0  0
   18.4634  -22.4741  -13.5943 O   0  0  0  0  0  0  0  0  0  0  0  0
   23.7446  -22.2898  -12.4329 C   0  0  0  0  0  0  0  0  0  0  0  0
   25.0596  -21.9300  -12.1594 C   0  0  0  0  0  0  0  0  0  0  0  0
   18.6138  -20.3370  -12.9001 O   0  0  0  0  0  0  0  0  0  0  0  0
  2  1  1  6
  2  4  1  0
  2  3  1  0
  4  5  1  1
  6  4  1  0
  7  6  2  0
  8  6  1  0
  9 10  1  0
  9  8  1  0
 10 19  1  0
 11 10  2  0
 13 12  1  0
 13 14  2  0
 15 14  1  0
 16 15  2  0
 17 16  1  0
 18 17  1  1
 18 20  1  0
 19 18  1  0
 20 24  2  0
 20 21  1  0
 22 23  2  0
 22 16  1  0
 23 13  1  0
M  END
$$$$
