VGY.pdb
     RDKit          3D

 24 24  0  0  1  0  0  0  0  0999 V2000
   19.1018  -12.5239  -14.7923 C   0  0  0  0  0  0  0  0  0  0  0  0
   18.1553  -12.5503  -15.9612 C   0  0  2  0  0  0  0  0  0  0  0  0
   17.5205  -13.9202  -16.0757 C   0  0  0  0  0  0  0  0  0  0  0  0
   18.8452  -12.2525  -17.2671 C   0  0  2  0  0  0  0  0  0  0  0  0
   19.6183  -13.3850  -17.6821 N   0  0  0  0  0  0  0  0  0  0  0  0
   19.5892  -10.9913  -17.2544 C   0  0  0  0  0  0  0  0  0  0  0  0
   20.8378  -11.0149  -17.1502 O   0  0  0  0  0  0  0  0  0  0  0  0
   18.9277   -9.7102  -17.3588 N   0  0  0  0  0  0  0  0  0  0  0  0
   19.6832   -8.4838  -17.3286 C   0  0  0  0  0  0  0  0  0  0  0  0
   20.2081   -8.1211  -16.0256 C   0  0  0  0  0  0  0  0  0  0  0  0
   19.5928   -8.4977  -14.9684 O   0  0  0  0  0  0  0  0  0  0  0  0
   27.0483  -10.0907  -16.8113 O   0  0  0  0  0  0  0  0  0  0  0  0
   25.9230   -9.6450  -16.0937 C   0  0  0  0  0  0  0  0  0  0  0  0
   25.2994   -8.4728  -16.4673 C   0  0  0  0  0  0  0  0  0  0  0  0
   24.1953   -8.0293  -15.7685 C   0  0  0  0  0  0  0  0  0  0  0  0
   23.6893   -8.7289  -14.6955 C   0  0  0  0  0  0  0  0  0  0  0  0
   22.5136   -8.2921  -13.9123 C   0  0  0  0  0  0  0  0  0  0  0  0
   21.8463   -7.0581  -14.4508 C   0  0  2  0  0  0  0  0  0  0  0  0
   21.3791   -7.3624  -15.7947 N   0  0  0  0  0  0  0  0  0  0  0  0
   22.6720   -5.8460  -14.4126 C   0  0  0  0  0  0  0  0  0  0  0  0
   23.1171   -5.2859  -13.1999 O   0  0  0  0  0  0  0  0  0  0  0  0
   24.3225   -9.8957  -14.3354 C   0  0  0  0  0  0  0  0  0  0  0  0
   25.4357  -10.3514  -15.0330 C   0  0  0  0  0  0  0  0  0  0  0  0
   23.0312   -5.2362  -15.4497 O   0  0  0  0  0  0  0  0  0  0  0  0
  2  1  1  1
  2  4  1  0
  2  3  1  0
  4  5  1  1
  6  4  1  0
  7  6  2  0
  8  6  1  0
  9 10  1  0
  9  8  1  0
 10 19  1  0
 11 10  2  0
 13 12  1  0
 13 14  2  0
 15 14  1  0
 16 15  2  0
 17 16  1  0
 18 17  1  6
 18 20  1  0
 19 18  1  0
 20 24  2  0
 20 21  1  0
 22 23  2  0
 22 16  1  0
 23 13  1  0
M  END
$$$$
