VGY.pdb
     RDKit          3D

 24 24  0  0  1  0  0  0  0  0999 V2000
   22.3335  -23.5448  -16.1075 C   0  0  0  0  0  0  0  0  0  0  0  0
   23.7910  -23.6645  -16.4602 C   0  0  2  0  0  0  0  0  0  0  0  0
   23.9979  -24.8396  -17.3923 C   0  0  0  0  0  0  0  0  0  0  0  0
   24.6605  -23.8796  -15.2487 C   0  0  2  0  0  0  0  0  0  0  0  0
   24.2413  -25.0567  -14.5478 N   0  0  0  0  0  0  0  0  0  0  0  0
   24.7806  -22.6898  -14.4036 C   0  0  0  0  0  0  0  0  0  0  0  0
   23.7502  -22.1911  -13.8938 O   0  0  0  0  0  0  0  0  0  0  0  0
   26.0567  -22.0661  -14.1352 N   0  0  0  0  0  0  0  0  0  0  0  0
   26.1421  -20.8742  -13.3304 C   0  0  0  0  0  0  0  0  0  0  0  0
   26.3364  -21.1072  -11.9117 C   0  0  0  0  0  0  0  0  0  0  0  0
   26.3556  -22.3062  -11.4642 O   0  0  0  0  0  0  0  0  0  0  0  0
   29.1182  -20.1497   -3.5405 O   0  0  0  0  0  0  0  0  0  0  0  0
   28.7605  -19.9616   -4.8884 C   0  0  0  0  0  0  0  0  0  0  0  0
   29.1932  -20.8631   -5.8382 C   0  0  0  0  0  0  0  0  0  0  0  0
   28.8465  -20.6855   -7.1620 C   0  0  0  0  0  0  0  0  0  0  0  0
   28.0717  -19.6225   -7.5705 C   0  0  0  0  0  0  0  0  0  0  0  0
   27.6791  -19.3862   -8.9764 C   0  0  0  0  0  0  0  0  0  0  0  0
   26.7477  -20.4260   -9.5325 C   0  0  2  0  0  0  0  0  0  0  0  0
   26.5140  -20.1030  -10.9318 N   0  0  0  0  0  0  0  0  0  0  0  0
   25.4958  -20.5927   -8.7859 C   0  0  0  0  0  0  0  0  0  0  0  0
   25.4085  -21.4267   -7.6548 O   0  0  0  0  0  0  0  0  0  0  0  0
   27.6483  -18.7324   -6.6111 C   0  0  0  0  0  0  0  0  0  0  0  0
   27.9921  -18.9023   -5.2746 C   0  0  0  0  0  0  0  0  0  0  0  0
   24.4318  -20.0074   -9.1051 O   0  0  0  0  0  0  0  0  0  0  0  0
  2  1  1  1
  2  4  1  0
  2  3  1  0
  4  5  1  1
  6  4  1  0
  7  6  2  0
  8  6  1  0
  9 10  1  0
  9  8  1  0
 10 19  1  0
 11 10  2  0
 13 12  1  0
 13 14  2  0
 15 14  1  0
 16 15  2  0
 17 16  1  0
 18 17  1  1
 18 20  1  0
 19 18  1  0
 20 24  2  0
 20 21  1  0
 22 23  2  0
 22 16  1  0
 23 13  1  0
M  END
$$$$
