VGY.pdb
     RDKit          3D

 24 24  0  0  1  0  0  0  0  0999 V2000
   26.5398  -21.4210  -16.5232 C   0  0  0  0  0  0  0  0  0  0  0  0
   26.2861  -20.8451  -15.1568 C   0  0  2  0  0  0  0  0  0  0  0  0
   26.9385  -21.7164  -14.1043 C   0  0  0  0  0  0  0  0  0  0  0  0
   24.8173  -20.7552  -14.8338 C   0  0  2  0  0  0  0  0  0  0  0  0
   24.1178  -20.1158  -15.9082 N   0  0  0  0  0  0  0  0  0  0  0  0
   24.5487  -20.1766  -13.5156 C   0  0  0  0  0  0  0  0  0  0  0  0
   24.6899  -18.9432  -13.3451 O   0  0  0  0  0  0  0  0  0  0  0  0
   24.1231  -20.9857  -12.3959 N   0  0  0  0  0  0  0  0  0  0  0  0
   23.9495  -20.4055  -11.0886 C   0  0  0  0  0  0  0  0  0  0  0  0
   25.0630  -20.6024  -10.1797 C   0  0  0  0  0  0  0  0  0  0  0  0
   25.8815  -21.5656  -10.3811 O   0  0  0  0  0  0  0  0  0  0  0  0
   30.6573  -19.7748   -3.3188 O   0  0  0  0  0  0  0  0  0  0  0  0
   29.6541  -19.5688   -4.2838 C   0  0  0  0  0  0  0  0  0  0  0  0
   28.3496  -19.3795   -3.8778 C   0  0  0  0  0  0  0  0  0  0  0  0
   27.3602  -19.1768   -4.8181 C   0  0  0  0  0  0  0  0  0  0  0  0
   27.6374  -19.1572   -6.1671 C   0  0  0  0  0  0  0  0  0  0  0  0
   26.6121  -18.9498   -7.2122 C   0  0  0  0  0  0  0  0  0  0  0  0
   26.4449  -20.1177   -8.1428 C   0  0  2  0  0  0  0  0  0  0  0  0
   25.3484  -19.8055   -9.0467 N   0  0  0  0  0  0  0  0  0  0  0  0
   26.2631  -21.4128   -7.4778 C   0  0  0  0  0  0  0  0  0  0  0  0
   27.3485  -22.2642   -7.1959 O   0  0  0  0  0  0  0  0  0  0  0  0
   28.9431  -19.3477   -6.5556 C   0  0  0  0  0  0  0  0  0  0  0  0
   29.9475  -19.5527   -5.6161 C   0  0  0  0  0  0  0  0  0  0  0  0
   25.1379  -21.8407   -7.1209 O   0  0  0  0  0  0  0  0  0  0  0  0
  2  1  1  6
  2  4  1  0
  2  3  1  0
  4  5  1  6
  6  4  1  0
  7  6  2  0
  8  6  1  0
  9 10  1  0
  9  8  1  0
 10 19  1  0
 11 10  2  0
 13 12  1  0
 13 14  2  0
 15 14  1  0
 16 15  2  0
 17 16  1  0
 18 17  1  1
 18 20  1  0
 19 18  1  0
 20 24  2  0
 20 21  1  0
 22 23  2  0
 22 16  1  0
 23 13  1  0
M  END
$$$$
