VGY.pdb
     RDKit          3D

 24 24  0  0  1  0  0  0  0  0999 V2000
   22.6260  -17.8084  -15.0847 C   0  0  0  0  0  0  0  0  0  0  0  0
   22.5091  -19.2242  -15.5795 C   0  0  2  0  0  0  0  0  0  0  0  0
   21.2623  -19.3699  -16.4262 C   0  0  0  0  0  0  0  0  0  0  0  0
   22.4199  -20.2216  -14.4539 C   0  0  2  0  0  0  0  0  0  0  0  0
   21.1984  -20.0340  -13.7289 N   0  0  0  0  0  0  0  0  0  0  0  0
   23.6175  -20.2532  -13.6118 C   0  0  0  0  0  0  0  0  0  0  0  0
   24.5206  -21.0863  -13.8582 O   0  0  0  0  0  0  0  0  0  0  0  0
   23.7951  -19.3494  -12.4978 N   0  0  0  0  0  0  0  0  0  0  0  0
   25.0404  -19.3034  -11.7747 C   0  0  0  0  0  0  0  0  0  0  0  0
   25.1473  -20.2500  -10.6805 C   0  0  0  0  0  0  0  0  0  0  0  0
   24.2889  -21.1934  -10.5740 O   0  0  0  0  0  0  0  0  0  0  0  0
   28.8174  -18.3678   -3.5401 O   0  0  0  0  0  0  0  0  0  0  0  0
   28.5307  -19.1095   -4.7010 C   0  0  0  0  0  0  0  0  0  0  0  0
   28.1212  -20.4215   -4.5851 C   0  0  0  0  0  0  0  0  0  0  0  0
   27.8382  -21.1553   -5.7190 C   0  0  0  0  0  0  0  0  0  0  0  0
   27.9531  -20.6123   -6.9795 C   0  0  0  0  0  0  0  0  0  0  0  0
   27.6673  -21.3589   -8.2234 C   0  0  0  0  0  0  0  0  0  0  0  0
   26.2339  -21.2789   -8.6670 C   0  0  2  0  0  0  0  0  0  0  0  0
   26.1445  -20.2362   -9.6778 N   0  0  0  0  0  0  0  0  0  0  0  0
   25.2645  -21.0843   -7.5831 C   0  0  0  0  0  0  0  0  0  0  0  0
   24.8796  -22.1364   -6.7302 O   0  0  0  0  0  0  0  0  0  0  0  0
   28.3627  -19.3029   -7.0780 C   0  0  0  0  0  0  0  0  0  0  0  0
   28.6502  -18.5547   -5.9418 C   0  0  0  0  0  0  0  0  0  0  0  0
   24.7211  -19.9769   -7.3489 O   0  0  0  0  0  0  0  0  0  0  0  0
  2  1  1  1
  2  4  1  0
  2  3  1  0
  4  5  1  1
  6  4  1  0
  7  6  2  0
  8  6  1  0
  9 10  1  0
  9  8  1  0
 10 19  1  0
 11 10  2  0
 13 12  1  0
 13 14  2  0
 15 14  1  0
 16 15  2  0
 17 16  1  0
 18 17  1  1
 18 20  1  0
 19 18  1  0
 20 24  2  0
 20 21  1  0
 22 23  2  0
 22 16  1  0
 23 13  1  0
M  END
$$$$
