VGY.pdb
     RDKit          3D

 24 24  0  0  1  0  0  0  0  0999 V2000
   15.4666   -4.1788  -19.6436 C   0  0  0  0  0  0  0  0  0  0  0  0
   16.8106   -3.5135  -19.7625 C   0  0  2  0  0  0  0  0  0  0  0  0
   17.2912   -3.5822  -21.1968 C   0  0  0  0  0  0  0  0  0  0  0  0
   17.8550   -4.1672  -18.8956 C   0  0  2  0  0  0  0  0  0  0  0  0
   18.0789   -5.5141  -19.3299 N   0  0  0  0  0  0  0  0  0  0  0  0
   17.5823   -4.0372  -17.4628 C   0  0  0  0  0  0  0  0  0  0  0  0
   17.5658   -2.8980  -16.9409 O   0  0  0  0  0  0  0  0  0  0  0  0
   17.3296   -5.1865  -16.6234 N   0  0  0  0  0  0  0  0  0  0  0  0
   17.0555   -5.0292  -15.2177 C   0  0  0  0  0  0  0  0  0  0  0  0
   18.2011   -5.2146  -14.3470 C   0  0  0  0  0  0  0  0  0  0  0  0
   18.0466   -5.7824  -13.2103 O   0  0  0  0  0  0  0  0  0  0  0  0
   24.7466  -10.6491  -14.5613 O   0  0  0  0  0  0  0  0  0  0  0  0
   23.6719   -9.7458  -14.6572 C   0  0  0  0  0  0  0  0  0  0  0  0
   22.8749   -9.5186  -13.5547 C   0  0  0  0  0  0  0  0  0  0  0  0
   21.8192   -8.6341  -13.6410 C   0  0  0  0  0  0  0  0  0  0  0  0
   21.5321   -7.9620  -14.8084 C   0  0  0  0  0  0  0  0  0  0  0  0
   20.4098   -7.0101  -14.9520 C   0  0  0  0  0  0  0  0  0  0  0  0
   20.6692   -5.6640  -14.3366 C   0  0  2  0  0  0  0  0  0  0  0  0
   19.5263   -4.8156  -14.6381 N   0  0  0  0  0  0  0  0  0  0  0  0
   21.9391   -5.0428  -14.7291 C   0  0  0  0  0  0  0  0  0  0  0  0
   23.0828   -5.1042  -13.9101 O   0  0  0  0  0  0  0  0  0  0  0  0
   22.3362   -8.1998  -15.8988 C   0  0  0  0  0  0  0  0  0  0  0  0
   23.4025   -9.0889  -15.8224 C   0  0  0  0  0  0  0  0  0  0  0  0
   22.0857   -4.4223  -15.8107 O   0  0  0  0  0  0  0  0  0  0  0  0
  2  1  1  6
  2  4  1  0
  2  3  1  0
  4  5  1  6
  6  4  1  0
  7  6  2  0
  8  6  1  0
  9 10  1  0
  9  8  1  0
 10 19  1  0
 11 10  2  0
 13 12  1  0
 13 14  2  0
 15 14  1  0
 16 15  2  0
 17 16  1  0
 18 17  1  6
 18 20  1  0
 19 18  1  0
 20 24  2  0
 20 21  1  0
 22 23  2  0
 22 16  1  0
 23 13  1  0
M  END
$$$$
