VGY.pdb
     RDKit          3D

 24 24  0  0  1  0  0  0  0  0999 V2000
   20.0120  -14.6983  -13.7164 C   0  0  0  0  0  0  0  0  0  0  0  0
   19.3727  -15.9066  -14.3444 C   0  0  2  0  0  0  0  0  0  0  0  0
   20.4446  -16.8553  -14.8379 C   0  0  0  0  0  0  0  0  0  0  0  0
   18.4979  -15.5502  -15.5181 C   0  0  2  0  0  0  0  0  0  0  0  0
   19.3060  -15.1013  -16.6127 N   0  0  0  0  0  0  0  0  0  0  0  0
   17.4031  -14.6423  -15.1698 C   0  0  0  0  0  0  0  0  0  0  0  0
   17.4680  -13.4396  -15.5157 O   0  0  0  0  0  0  0  0  0  0  0  0
   16.2413  -15.0893  -14.4350 N   0  0  0  0  0  0  0  0  0  0  0  0
   15.2000  -14.1647  -14.0651 C   0  0  0  0  0  0  0  0  0  0  0  0
   14.0934  -14.7514  -13.3329 C   0  0  0  0  0  0  0  0  0  0  0  0
   14.0922  -16.0076  -13.0875 O   0  0  0  0  0  0  0  0  0  0  0  0
    7.1701  -16.1265   -8.0091 O   0  0  0  0  0  0  0  0  0  0  0  0
    8.2271  -15.5757   -8.7571 C   0  0  0  0  0  0  0  0  0  0  0  0
    9.5203  -15.9865   -8.5101 C   0  0  0  0  0  0  0  0  0  0  0  0
   10.5622  -15.4511   -9.2395 C   0  0  0  0  0  0  0  0  0  0  0  0
   10.3491  -14.5071  -10.2194 C   0  0  0  0  0  0  0  0  0  0  0  0
   11.4318  -13.9001  -11.0229 C   0  0  0  0  0  0  0  0  0  0  0  0
   11.8537  -14.7291  -12.2031 C   0  0  2  0  0  0  0  0  0  0  0  0
   12.9691  -14.0477  -12.8423 N   0  0  0  0  0  0  0  0  0  0  0  0
   10.7784  -15.0412  -13.1512 C   0  0  0  0  0  0  0  0  0  0  0  0
   10.1120  -16.2815  -13.1396 O   0  0  0  0  0  0  0  0  0  0  0  0
    9.0537  -14.1079  -10.4535 C   0  0  0  0  0  0  0  0  0  0  0  0
    7.9968  -14.6412   -9.7242 C   0  0  0  0  0  0  0  0  0  0  0  0
   10.3874  -14.2295  -14.0256 O   0  0  0  0  0  0  0  0  0  0  0  0
  2  1  1  6
  2  4  1  0
  2  3  1  0
  4  5  1  6
  6  4  1  0
  7  6  2  0
  8  6  1  0
  9 10  1  0
  9  8  1  0
 10 19  1  0
 11 10  2  0
 13 12  1  0
 13 14  2  0
 15 14  1  0
 16 15  2  0
 17 16  1  0
 18 17  1  1
 18 20  1  0
 19 18  1  0
 20 24  2  0
 20 21  1  0
 22 23  2  0
 22 16  1  0
 23 13  1  0
M  END
$$$$
