VGY.pdb
     RDKit          3D

 24 24  0  0  1  0  0  0  0  0999 V2000
   19.7796  -11.4665  -20.9877 C   0  0  0  0  0  0  0  0  0  0  0  0
   20.2934  -10.4927  -19.9626 C   0  0  2  0  0  0  0  0  0  0  0  0
   20.1873   -9.0806  -20.4987 C   0  0  0  0  0  0  0  0  0  0  0  0
   21.7354  -10.7416  -19.6044 C   0  0  2  0  0  0  0  0  0  0  0  0
   21.9516  -12.1411  -19.3872 N   0  0  0  0  0  0  0  0  0  0  0  0
   22.2186   -9.8852  -18.5192 C   0  0  0  0  0  0  0  0  0  0  0  0
   22.0187  -10.2274  -17.3304 O   0  0  0  0  0  0  0  0  0  0  0  0
   22.9235   -8.6493  -18.7743 N   0  0  0  0  0  0  0  0  0  0  0  0
   23.4890   -7.8842  -17.6924 C   0  0  0  0  0  0  0  0  0  0  0  0
   22.5432   -7.0527  -16.9720 C   0  0  0  0  0  0  0  0  0  0  0  0
   21.3920   -6.8181  -17.4799 O   0  0  0  0  0  0  0  0  0  0  0  0
   18.0846  -10.9014  -15.8810 O   0  0  0  0  0  0  0  0  0  0  0  0
   18.8470   -9.8200  -15.4020 C   0  0  0  0  0  0  0  0  0  0  0  0
   18.3260   -8.5442  -15.4576 C   0  0  0  0  0  0  0  0  0  0  0  0
   19.0676   -7.4786  -14.9899 C   0  0  0  0  0  0  0  0  0  0  0  0
   20.3281   -7.6506  -14.4622 C   0  0  0  0  0  0  0  0  0  0  0  0
   21.1630   -6.5411  -13.9541 C   0  0  0  0  0  0  0  0  0  0  0  0
   21.7472   -5.6738  -15.0333 C   0  0  2  0  0  0  0  0  0  0  0  0
   22.7729   -6.4499  -15.7135 N   0  0  0  0  0  0  0  0  0  0  0  0
   22.2496   -4.3744  -14.5734 C   0  0  0  0  0  0  0  0  0  0  0  0
   21.4051   -3.4173  -13.9788 O   0  0  0  0  0  0  0  0  0  0  0  0
   20.8333   -8.9291  -14.4139 C   0  0  0  0  0  0  0  0  0  0  0  0
   20.0943  -10.0096  -14.8825 C   0  0  0  0  0  0  0  0  0  0  0  0
   23.4540   -4.0358  -14.6797 O   0  0  0  0  0  0  0  0  0  0  0  0
  2  1  1  6
  2  4  1  0
  2  3  1  0
  4  5  1  1
  6  4  1  0
  7  6  2  0
  8  6  1  0
  9 10  1  0
  9  8  1  0
 10 19  1  0
 11 10  2  0
 13 12  1  0
 13 14  2  0
 15 14  1  0
 16 15  2  0
 17 16  1  0
 18 17  1  1
 18 20  1  0
 19 18  1  0
 20 24  2  0
 20 21  1  0
 22 23  2  0
 22 16  1  0
 23 13  1  0
M  END
$$$$
