VGY.pdb
     RDKit          3D

 24 24  0  0  1  0  0  0  0  0999 V2000
   21.3970  -21.5452  -17.0951 C   0  0  0  0  0  0  0  0  0  0  0  0
   21.7935  -20.6601  -15.9452 C   0  0  2  0  0  0  0  0  0  0  0  0
   21.8246  -19.2154  -16.3975 C   0  0  0  0  0  0  0  0  0  0  0  0
   23.1560  -21.0008  -15.3999 C   0  0  2  0  0  0  0  0  0  0  0  0
   23.2215  -22.3964  -15.0825 N   0  0  0  0  0  0  0  0  0  0  0  0
   23.5813  -20.1182  -14.3115 C   0  0  0  0  0  0  0  0  0  0  0  0
   24.0046  -18.9699  -14.5809 O   0  0  0  0  0  0  0  0  0  0  0  0
   23.5293  -20.5293  -12.9267 N   0  0  0  0  0  0  0  0  0  0  0  0
   23.9151  -19.6260  -11.8727 C   0  0  0  0  0  0  0  0  0  0  0  0
   24.8547  -20.1732  -10.9121 C   0  0  0  0  0  0  0  0  0  0  0  0
   25.0360  -21.4389  -10.8549 O   0  0  0  0  0  0  0  0  0  0  0  0
   29.8812  -20.6944   -3.5452 O   0  0  0  0  0  0  0  0  0  0  0  0
   29.2058  -20.2715   -4.7050 C   0  0  0  0  0  0  0  0  0  0  0  0
   29.6298  -20.7183   -5.9391 C   0  0  0  0  0  0  0  0  0  0  0  0
   28.9725  -20.3081   -7.0810 C   0  0  0  0  0  0  0  0  0  0  0  0
   27.8921  -19.4555   -7.0270 C   0  0  0  0  0  0  0  0  0  0  0  0
   27.1594  -18.9835   -8.2215 C   0  0  0  0  0  0  0  0  0  0  0  0
   26.3274  -20.0442   -8.8853 C   0  0  2  0  0  0  0  0  0  0  0  0
   25.6226  -19.4195   -9.9943 N   0  0  0  0  0  0  0  0  0  0  0  0
   25.4187  -20.7649   -7.9869 C   0  0  0  0  0  0  0  0  0  0  0  0
   24.0455  -20.4617   -7.9163 O   0  0  0  0  0  0  0  0  0  0  0  0
   27.4818  -19.0190   -5.7889 C   0  0  0  0  0  0  0  0  0  0  0  0
   28.1372  -19.4264   -4.6322 C   0  0  0  0  0  0  0  0  0  0  0  0
   25.8041  -21.6899   -7.2303 O   0  0  0  0  0  0  0  0  0  0  0  0
  2  1  1  6
  2  4  1  0
  2  3  1  0
  4  5  1  1
  6  4  1  0
  7  6  2  0
  8  6  1  0
  9 10  1  0
  9  8  1  0
 10 19  1  0
 11 10  2  0
 13 12  1  0
 13 14  2  0
 15 14  1  0
 16 15  2  0
 17 16  1  0
 18 17  1  1
 18 20  1  0
 19 18  1  0
 20 24  2  0
 20 21  1  0
 22 23  2  0
 22 16  1  0
 23 13  1  0
M  END
$$$$
