NVM.pdb
     RDKit          3D

 24 23  0  0  1  0  0  0  0  0999 V2000
   10.0078  -19.4135   15.8381 N   0  0  0  0  0  0  0  0  0  0  0  0
   10.4616  -19.2253   17.1707 C   0  0  0  0  0  0  0  0  0  0  0  0
   10.8305  -20.2105   17.8626 O   0  0  0  0  0  0  0  0  0  0  0  0
   10.5060  -17.8704   17.7597 C   0  0  0  0  0  0  0  0  0  0  0  0
    9.8390  -17.9053   19.1022 C   0  0  2  0  0  0  0  0  0  0  0  0
    8.5071  -18.4428   19.0168 N   0  0  0  0  0  0  0  0  0  0  0  0
    9.8819  -16.6064   19.8166 C   0  0  0  0  0  0  0  0  0  0  0  0
   11.0101  -16.0728   19.9903 O   0  0  0  0  0  0  0  0  0  0  0  0
    7.4408  -12.5702   21.1863 C   0  0  0  0  0  0  0  0  0  0  0  0
    7.7240  -13.8187   20.4261 C   0  0  1  0  0  0  0  0  0  0  0  0
    7.9848  -13.5897   18.9839 C   0  0  0  0  0  0  0  0  0  0  0  0
    8.8307  -14.6561   21.0661 C   0  0  2  0  0  0  0  0  0  0  0  0
    8.7555  -15.9343   20.3096 N   0  0  0  0  0  0  0  0  0  0  0  0
    8.5374  -14.9062   22.4741 C   0  0  0  0  0  0  0  0  0  0  0  0
    7.4962  -15.5054   22.8764 O   0  0  0  0  0  0  0  0  0  0  0  0
    5.8507  -11.2722   26.7282 C   0  0  0  0  0  0  0  0  0  0  0  0
    7.2283  -12.3813   27.1358 S   0  0  0  0  0  0  0  0  0  0  0  0
    7.0203  -14.0000   26.3110 C   0  0  0  0  0  0  0  0  0  0  0  0
    7.6469  -13.9923   24.9571 C   0  0  0  0  0  0  0  0  0  0  0  0
    9.0394  -14.5650   24.8962 C   0  0  2  0  0  0  0  0  0  0  0  0
    9.4278  -14.4851   23.4844 N   0  0  0  0  0  0  0  0  0  0  0  0
    9.0046  -15.9862   25.2770 C   0  0  0  0  0  0  0  0  0  0  0  0
    9.1789  -16.4648   26.5708 O   0  0  0  0  0  0  0  0  0  0  0  0
    8.8056  -16.8923   24.4023 O   0  0  0  0  0  0  0  0  0  0  0  0
  1  2  1  0
  2  3  2  0
  4  2  1  0
  5  4  1  0
  5  6  1  6
  7  5  1  0
  7  8  2  0
 10 12  1  0
 10  9  1  1
 11 10  1  0
 12 13  1  6
 13  7  1  0
 14 12  1  0
 15 14  2  0
 17 16  1  0
 18 17  1  0
 19 18  1  0
 20 19  1  6
 20 22  1  0
 20 21  1  0
 21 14  1  0
 22 23  1  0
 24 22  2  0
M  END
$$$$
