NVM.pdb
     RDKit          3D

 24 23  0  0  1  0  0  0  0  0999 V2000
    3.8899  -19.0532   21.6931 N   0  0  0  0  0  0  0  0  0  0  0  0
    5.0006  -19.6070   22.3837 C   0  0  0  0  0  0  0  0  0  0  0  0
    4.8951  -20.7135   22.9754 O   0  0  0  0  0  0  0  0  0  0  0  0
    6.2928  -18.8901   22.4151 C   0  0  0  0  0  0  0  0  0  0  0  0
    6.5585  -18.3138   21.0565 C   0  0  2  0  0  0  0  0  0  0  0  0
    6.8879  -19.3394   20.1027 N   0  0  0  0  0  0  0  0  0  0  0  0
    7.5485  -17.2096   21.0670 C   0  0  0  0  0  0  0  0  0  0  0  0
    8.7441  -17.4951   20.7904 O   0  0  0  0  0  0  0  0  0  0  0  0
    8.1241  -12.2705   21.3817 C   0  0  0  0  0  0  0  0  0  0  0  0
    7.3767  -13.5330   21.1279 C   0  0  1  0  0  0  0  0  0  0  0  0
    6.6735  -13.5546   19.8220 C   0  0  0  0  0  0  0  0  0  0  0  0
    8.2462  -14.7760   21.3128 C   0  0  2  0  0  0  0  0  0  0  0  0
    7.2445  -15.8740   21.3626 N   0  0  0  0  0  0  0  0  0  0  0  0
    8.9657  -14.7162   22.5816 C   0  0  0  0  0  0  0  0  0  0  0  0
    9.7418  -13.7675   22.9020 O   0  0  0  0  0  0  0  0  0  0  0  0
   10.2854  -13.3447   28.9276 C   0  0  0  0  0  0  0  0  0  0  0  0
    9.5729  -13.0920   27.2776 S   0  0  0  0  0  0  0  0  0  0  0  0
    8.2473  -14.3089   26.9531 C   0  0  0  0  0  0  0  0  0  0  0  0
    8.1349  -14.5977   25.4938 C   0  0  0  0  0  0  0  0  0  0  0  0
    9.2040  -15.5035   24.9392 C   0  0  2  0  0  0  0  0  0  0  0  0
    8.8235  -15.7393   23.5428 N   0  0  0  0  0  0  0  0  0  0  0  0
    9.1687  -16.7955   25.6430 C   0  0  0  0  0  0  0  0  0  0  0  0
    8.5244  -17.9356   25.1756 O   0  0  0  0  0  0  0  0  0  0  0  0
    9.7511  -16.9431   26.7676 O   0  0  0  0  0  0  0  0  0  0  0  0
  1  2  1  0
  2  3  2  0
  4  2  1  0
  5  4  1  0
  5  6  1  6
  7  5  1  0
  7  8  2  0
 10 12  1  0
 10  9  1  6
 11 10  1  0
 12 13  1  1
 13  7  1  0
 14 12  1  0
 15 14  2  0
 17 16  1  0
 18 17  1  0
 19 18  1  0
 20 19  1  1
 20 22  1  0
 20 21  1  0
 21 14  1  0
 22 23  1  0
 24 22  2  0
M  END
$$$$
