NVM.pdb
     RDKit          3D

 24 23  0  0  1  0  0  0  0  0999 V2000
    7.4488  -19.2872   16.8902 N   0  0  0  0  0  0  0  0  0  0  0  0
    8.6412  -19.2086   17.6579 C   0  0  0  0  0  0  0  0  0  0  0  0
    9.2535  -20.2569   17.9919 O   0  0  0  0  0  0  0  0  0  0  0  0
    9.1763  -17.8948   18.0730 C   0  0  0  0  0  0  0  0  0  0  0  0
    9.0456  -17.7685   19.5615 C   0  0  2  0  0  0  0  0  0  0  0  0
    7.7338  -18.1522   20.0112 N   0  0  0  0  0  0  0  0  0  0  0  0
    9.4573  -16.4414   20.0797 C   0  0  0  0  0  0  0  0  0  0  0  0
   10.6371  -16.0647   19.8479 O   0  0  0  0  0  0  0  0  0  0  0  0
    7.5495  -13.4232   19.2922 C   0  0  0  0  0  0  0  0  0  0  0  0
    7.7869  -13.3784   20.7614 C   0  0  1  0  0  0  0  0  0  0  0  0
    6.5940  -13.7371   21.5669 C   0  0  0  0  0  0  0  0  0  0  0  0
    9.0089  -14.1937   21.1827 C   0  0  2  0  0  0  0  0  0  0  0  0
    8.6248  -15.5804   20.8073 N   0  0  0  0  0  0  0  0  0  0  0  0
    9.2049  -14.1174   22.6273 C   0  0  0  0  0  0  0  0  0  0  0  0
    9.4033  -13.0323   23.2503 O   0  0  0  0  0  0  0  0  0  0  0  0
    6.4558  -11.4890   26.3897 C   0  0  0  0  0  0  0  0  0  0  0  0
    7.4811  -12.8593   26.9938 S   0  0  0  0  0  0  0  0  0  0  0  0
    6.9151  -14.4490   26.2895 C   0  0  0  0  0  0  0  0  0  0  0  0
    7.4568  -14.6447   24.9132 C   0  0  0  0  0  0  0  0  0  0  0  0
    8.8579  -15.1961   24.8523 C   0  0  2  0  0  0  0  0  0  0  0  0
    9.1768  -15.2818   23.4236 N   0  0  0  0  0  0  0  0  0  0  0  0
    8.8745  -16.5608   25.4032 C   0  0  0  0  0  0  0  0  0  0  0  0
    8.5875  -17.7119   24.6780 O   0  0  0  0  0  0  0  0  0  0  0  0
    9.1642  -16.7677   26.6275 O   0  0  0  0  0  0  0  0  0  0  0  0
  1  2  1  0
  2  3  2  0
  4  2  1  0
  5  4  1  0
  5  6  1  6
  7  5  1  0
  7  8  2  0
 10 12  1  0
 10  9  1  6
 11 10  1  0
 12 13  1  1
 13  7  1  0
 14 12  1  0
 15 14  2  0
 17 16  1  0
 18 17  1  0
 19 18  1  0
 20 19  1  6
 20 22  1  0
 20 21  1  0
 21 14  1  0
 22 23  1  0
 24 22  2  0
M  END
$$$$
