NVM.pdb
     RDKit          3D

 24 23  0  0  1  0  0  0  0  0999 V2000
    5.3858  -19.9867   19.6781 N   0  0  0  0  0  0  0  0  0  0  0  0
    5.9628  -19.9042   20.9734 C   0  0  0  0  0  0  0  0  0  0  0  0
    5.5373  -20.6336   21.9074 O   0  0  0  0  0  0  0  0  0  0  0  0
    7.0694  -18.9610   21.2387 C   0  0  0  0  0  0  0  0  0  0  0  0
    7.3135  -18.1437   20.0054 C   0  0  2  0  0  0  0  0  0  0  0  0
    7.8302  -18.9496   18.9312 N   0  0  0  0  0  0  0  0  0  0  0  0
    8.1344  -16.9335   20.2522 C   0  0  0  0  0  0  0  0  0  0  0  0
    9.3818  -17.0836   20.3465 O   0  0  0  0  0  0  0  0  0  0  0  0
    8.3388  -11.9884   20.3523 C   0  0  0  0  0  0  0  0  0  0  0  0
    7.7898  -13.3225   19.9841 C   0  0  1  0  0  0  0  0  0  0  0  0
    7.8045  -13.5886   18.5248 C   0  0  0  0  0  0  0  0  0  0  0  0
    8.4450  -14.4615   20.7644 C   0  0  2  0  0  0  0  0  0  0  0  0
    7.6175  -15.6379   20.3867 N   0  0  0  0  0  0  0  0  0  0  0  0
    8.3345  -14.2303   22.2016 C   0  0  0  0  0  0  0  0  0  0  0  0
    7.7830  -13.2072   22.7056 O   0  0  0  0  0  0  0  0  0  0  0  0
    6.8492  -11.7883   27.7320 C   0  0  0  0  0  0  0  0  0  0  0  0
    6.0579  -13.1003   26.7591 S   0  0  0  0  0  0  0  0  0  0  0  0
    7.2364  -14.4583   26.4267 C   0  0  0  0  0  0  0  0  0  0  0  0
    7.4602  -14.6226   24.9609 C   0  0  0  0  0  0  0  0  0  0  0  0
    8.8948  -14.8443   24.5562 C   0  0  2  0  0  0  0  0  0  0  0  0
    8.8469  -15.1650   23.1261 N   0  0  0  0  0  0  0  0  0  0  0  0
    9.4312  -16.0166   25.2660 C   0  0  0  0  0  0  0  0  0  0  0  0
    9.8008  -16.0313   26.6064 O   0  0  0  0  0  0  0  0  0  0  0  0
    9.5934  -17.1280   24.6625 O   0  0  0  0  0  0  0  0  0  0  0  0
  1  2  1  0
  2  3  2  0
  4  2  1  0
  5  4  1  0
  5  6  1  6
  7  5  1  0
  7  8  2  0
 10 12  1  0
 10  9  1  6
 11 10  1  0
 12 13  1  1
 13  7  1  0
 14 12  1  0
 15 14  2  0
 17 16  1  0
 18 17  1  0
 19 18  1  0
 20 19  1  1
 20 22  1  0
 20 21  1  0
 21 14  1  0
 22 23  1  0
 24 22  2  0
M  END
$$$$
