NVM.pdb
     RDKit          3D

 24 23  0  0  1  0  0  0  0  0999 V2000
   15.3459  -18.0074   20.2457 N   0  0  0  0  0  0  0  0  0  0  0  0
   14.1598  -18.1533   19.4781 C   0  0  0  0  0  0  0  0  0  0  0  0
   14.0000  -19.1596   18.7385 O   0  0  0  0  0  0  0  0  0  0  0  0
   13.1000  -17.1249   19.5396 C   0  0  0  0  0  0  0  0  0  0  0  0
   12.0731  -17.5492   20.5467 C   0  0  2  0  0  0  0  0  0  0  0  0
   11.3289  -18.6937   20.0924 N   0  0  0  0  0  0  0  0  0  0  0  0
   11.1939  -16.4424   20.9955 C   0  0  0  0  0  0  0  0  0  0  0  0
   11.7441  -15.4306   21.5065 O   0  0  0  0  0  0  0  0  0  0  0  0
    6.5197  -14.7098   21.1797 C   0  0  0  0  0  0  0  0  0  0  0  0
    7.6182  -15.5751   20.6685 C   0  0  1  0  0  0  0  0  0  0  0  0
    7.8103  -15.4856   19.2003 C   0  0  0  0  0  0  0  0  0  0  0  0
    8.9328  -15.3563   21.4165 C   0  0  2  0  0  0  0  0  0  0  0  0
    9.7967  -16.4460   20.8894 N   0  0  0  0  0  0  0  0  0  0  0  0
    8.7435  -15.5374   22.8527 C   0  0  0  0  0  0  0  0  0  0  0  0
    9.0982  -16.5796   23.4794 O   0  0  0  0  0  0  0  0  0  0  0  0
    7.3447  -10.6092   27.6585 C   0  0  0  0  0  0  0  0  0  0  0  0
    6.0992  -11.9189   27.4922 S   0  0  0  0  0  0  0  0  0  0  0  0
    6.8829  -13.4975   27.0047 C   0  0  0  0  0  0  0  0  0  0  0  0
    7.2523  -13.4848   25.5594 C   0  0  0  0  0  0  0  0  0  0  0  0
    8.0271  -14.6887   25.0890 C   0  0  2  0  0  0  0  0  0  0  0  0
    8.1435  -14.5288   23.6360 N   0  0  0  0  0  0  0  0  0  0  0  0
    7.2469  -15.9091   25.3497 C   0  0  0  0  0  0  0  0  0  0  0  0
    7.4779  -16.7881   26.4020 O   0  0  0  0  0  0  0  0  0  0  0  0
    6.2772  -16.2392   24.5905 O   0  0  0  0  0  0  0  0  0  0  0  0
  1  2  1  0
  2  3  2  0
  4  2  1  0
  5  4  1  0
  5  6  1  6
  7  5  1  0
  7  8  2  0
 10 12  1  0
 10  9  1  1
 11 10  1  0
 12 13  1  6
 13  7  1  0
 14 12  1  0
 15 14  2  0
 17 16  1  0
 18 17  1  0
 19 18  1  0
 20 19  1  6
 20 22  1  0
 20 21  1  0
 21 14  1  0
 22 23  1  0
 24 22  2  0
M  END
$$$$
