NVM.pdb
     RDKit          3D

 24 23  0  0  1  0  0  0  0  0999 V2000
    7.5361  -13.6654   16.4262 N   0  0  0  0  0  0  0  0  0  0  0  0
    8.2460  -13.8498   17.6425 C   0  0  0  0  0  0  0  0  0  0  0  0
    9.5050  -13.8345   17.6533 O   0  0  0  0  0  0  0  0  0  0  0  0
    7.5141  -14.0616   18.9090 C   0  0  0  0  0  0  0  0  0  0  0  0
    8.1260  -15.2242   19.6319 C   0  0  2  0  0  0  0  0  0  0  0  0
    8.2097  -16.3864   18.7879 N   0  0  0  0  0  0  0  0  0  0  0  0
    7.4809  -15.5147   20.9352 C   0  0  0  0  0  0  0  0  0  0  0  0
    6.9921  -14.5446   21.5736 O   0  0  0  0  0  0  0  0  0  0  0  0
    5.6183  -19.0224   22.0284 C   0  0  0  0  0  0  0  0  0  0  0  0
    6.7153  -18.5542   22.9197 C   0  0  1  0  0  0  0  0  0  0  0  0
    8.0043  -19.2520   22.6919 C   0  0  0  0  0  0  0  0  0  0  0  0
    6.8902  -17.0363   22.8860 C   0  0  2  0  0  0  0  0  0  0  0  0
    7.3781  -16.7919   21.5026 N   0  0  0  0  0  0  0  0  0  0  0  0
    7.9090  -16.6148   23.8427 C   0  0  0  0  0  0  0  0  0  0  0  0
    9.1532  -16.6749   23.6121 O   0  0  0  0  0  0  0  0  0  0  0  0
    5.6733  -11.9203   27.1250 C   0  0  0  0  0  0  0  0  0  0  0  0
    7.1754  -12.0370   28.1370 S   0  0  0  0  0  0  0  0  0  0  0  0
    8.3147  -13.2964   27.4592 C   0  0  0  0  0  0  0  0  0  0  0  0
    7.6078  -14.1921   26.4981 C   0  0  0  0  0  0  0  0  0  0  0  0
    8.4734  -15.2421   25.8507 C   0  0  2  0  0  0  0  0  0  0  0  0
    7.5467  -16.1001   25.1055 N   0  0  0  0  0  0  0  0  0  0  0  0
    9.1136  -16.0626   26.8913 C   0  0  0  0  0  0  0  0  0  0  0  0
    8.7551  -17.3695   27.2026 O   0  0  0  0  0  0  0  0  0  0  0  0
   10.0711  -15.5975   27.5930 O   0  0  0  0  0  0  0  0  0  0  0  0
  1  2  1  0
  2  3  2  0
  4  2  1  0
  5  4  1  0
  5  6  1  6
  7  5  1  0
  7  8  2  0
 10 12  1  0
 10  9  1  6
 11 10  1  0
 12 13  1  6
 13  7  1  0
 14 12  1  0
 15 14  2  0
 17 16  1  0
 18 17  1  0
 19 18  1  0
 20 19  1  1
 20 22  1  0
 20 21  1  0
 21 14  1  0
 22 23  1  0
 24 22  2  0
M  END
$$$$
