NVM.pdb
     RDKit          3D

 24 23  0  0  1  0  0  0  0  0999 V2000
   14.4768  -18.1107   18.7197 N   0  0  0  0  0  0  0  0  0  0  0  0
   13.1293  -18.1637   18.2740 C   0  0  0  0  0  0  0  0  0  0  0  0
   12.7115  -19.1596   17.6268 O   0  0  0  0  0  0  0  0  0  0  0  0
   12.2025  -17.0497   18.5656 C   0  0  0  0  0  0  0  0  0  0  0  0
   11.3369  -17.4334   19.7284 C   0  0  2  0  0  0  0  0  0  0  0  0
   10.3063  -18.3581   19.3375 N   0  0  0  0  0  0  0  0  0  0  0  0
   10.8013  -16.2694   20.4750 C   0  0  0  0  0  0  0  0  0  0  0  0
   11.6312  -15.4930   21.0192 O   0  0  0  0  0  0  0  0  0  0  0  0
    6.7620  -13.5633   21.5440 C   0  0  0  0  0  0  0  0  0  0  0  0
    7.5535  -14.5715   20.7865 C   0  0  1  0  0  0  0  0  0  0  0  0
    7.6633  -14.2738   19.3375 C   0  0  0  0  0  0  0  0  0  0  0  0
    8.9261  -14.8264   21.4082 C   0  0  2  0  0  0  0  0  0  0  0  0
    9.4384  -15.9754   20.6152 N   0  0  0  0  0  0  0  0  0  0  0  0
    8.7916  -15.2222   22.8069 C   0  0  0  0  0  0  0  0  0  0  0  0
    8.6921  -16.4266   23.1870 O   0  0  0  0  0  0  0  0  0  0  0  0
    6.4539  -11.0058   27.0877 C   0  0  0  0  0  0  0  0  0  0  0  0
    7.4204  -12.0531   28.2116 S   0  0  0  0  0  0  0  0  0  0  0  0
    7.8458  -13.6404   27.4098 C   0  0  0  0  0  0  0  0  0  0  0  0
    8.1087  -13.4481   25.9539 C   0  0  0  0  0  0  0  0  0  0  0  0
    8.6362  -14.6633   25.2356 C   0  0  2  0  0  0  0  0  0  0  0  0
    8.7704  -14.2546   23.8337 N   0  0  0  0  0  0  0  0  0  0  0  0
    7.6395  -15.7443   25.2992 C   0  0  0  0  0  0  0  0  0  0  0  0
    7.7680  -16.8970   26.0660 O   0  0  0  0  0  0  0  0  0  0  0  0
    6.5598  -15.6780   24.6243 O   0  0  0  0  0  0  0  0  0  0  0  0
  1  2  1  0
  2  3  2  0
  4  2  1  0
  5  4  1  0
  5  6  1  6
  7  5  1  0
  7  8  2  0
 10 12  1  0
 10  9  1  1
 11 10  1  0
 12 13  1  6
 13  7  1  0
 14 12  1  0
 15 14  2  0
 17 16  1  0
 18 17  1  0
 19 18  1  0
 20 19  1  1
 20 22  1  0
 20 21  1  0
 21 14  1  0
 22 23  1  0
 24 22  2  0
M  END
$$$$
