NVM.pdb
     RDKit          3D

 24 23  0  0  1  0  0  0  0  0999 V2000
    9.4795  -21.7029   19.9373 N   0  0  0  0  0  0  0  0  0  0  0  0
    8.6755  -20.5321   19.9318 C   0  0  0  0  0  0  0  0  0  0  0  0
    7.5421  -20.5407   19.3834 O   0  0  0  0  0  0  0  0  0  0  0  0
    9.1609  -19.2905   20.5703 C   0  0  0  0  0  0  0  0  0  0  0  0
    9.1357  -18.1849   19.5576 C   0  0  2  0  0  0  0  0  0  0  0  0
   10.0036  -18.4673   18.4453 N   0  0  0  0  0  0  0  0  0  0  0  0
    9.3799  -16.8438   20.1416 C   0  0  0  0  0  0  0  0  0  0  0  0
   10.5690  -16.5386   20.4254 O   0  0  0  0  0  0  0  0  0  0  0  0
    7.7149  -12.2630   20.8811 C   0  0  0  0  0  0  0  0  0  0  0  0
    7.6824  -13.6461   20.3306 C   0  0  1  0  0  0  0  0  0  0  0  0
    7.8761  -13.7051   18.8611 C   0  0  0  0  0  0  0  0  0  0  0  0
    8.6414  -14.5886   21.0570 C   0  0  2  0  0  0  0  0  0  0  0  0
    8.3803  -15.8958   20.3979 N   0  0  0  0  0  0  0  0  0  0  0  0
    8.2979  -14.6805   22.4729 C   0  0  0  0  0  0  0  0  0  0  0  0
    7.1092  -14.6380   22.9089 O   0  0  0  0  0  0  0  0  0  0  0  0
    7.1359  -11.5835   27.5176 C   0  0  0  0  0  0  0  0  0  0  0  0
    6.0905  -12.6971   26.5372 S   0  0  0  0  0  0  0  0  0  0  0  0
    6.9178  -14.3089   26.2899 C   0  0  0  0  0  0  0  0  0  0  0  0
    7.4995  -14.4044   24.9195 C   0  0  0  0  0  0  0  0  0  0  0  0
    8.9841  -14.6585   24.8737 C   0  0  2  0  0  0  0  0  0  0  0  0
    9.3022  -14.8309   23.4526 N   0  0  0  0  0  0  0  0  0  0  0  0
    9.2889  -15.9226   25.5630 C   0  0  0  0  0  0  0  0  0  0  0  0
    9.3101  -16.0877   26.9434 O   0  0  0  0  0  0  0  0  0  0  0  0
    9.5628  -16.9778   24.9018 O   0  0  0  0  0  0  0  0  0  0  0  0
  1  2  1  0
  2  3  2  0
  4  2  1  0
  5  4  1  0
  5  6  1  6
  7  5  1  0
  7  8  2  0
 10 12  1  0
 10  9  1  1
 11 10  1  0
 12 13  1  6
 13  7  1  0
 14 12  1  0
 15 14  2  0
 17 16  1  0
 18 17  1  0
 19 18  1  0
 20 19  1  6
 20 22  1  0
 20 21  1  0
 21 14  1  0
 22 23  1  0
 24 22  2  0
M  END
$$$$
