NVM.pdb
     RDKit          3D

 24 23  0  0  1  0  0  0  0  0999 V2000
   12.7275  -20.5019   19.0424 N   0  0  0  0  0  0  0  0  0  0  0  0
   11.5199  -19.7556   19.0886 C   0  0  0  0  0  0  0  0  0  0  0  0
   10.6443  -19.9057   18.1963 O   0  0  0  0  0  0  0  0  0  0  0  0
   11.2781  -18.7946   20.1852 C   0  0  0  0  0  0  0  0  0  0  0  0
   10.9797  -17.4501   19.5921 C   0  0  2  0  0  0  0  0  0  0  0  0
   12.0741  -16.9718   18.7898 N   0  0  0  0  0  0  0  0  0  0  0  0
   10.5295  -16.4509   20.5912 C   0  0  0  0  0  0  0  0  0  0  0  0
   11.3908  -15.9960   21.3906 O   0  0  0  0  0  0  0  0  0  0  0  0
    6.7701  -13.5647   22.1357 C   0  0  0  0  0  0  0  0  0  0  0  0
    7.4851  -14.4498   21.1753 C   0  0  1  0  0  0  0  0  0  0  0  0
    7.7210  -13.8224   19.8520 C   0  0  0  0  0  0  0  0  0  0  0  0
    8.7761  -15.0243   21.7574 C   0  0  2  0  0  0  0  0  0  0  0  0
    9.2148  -15.9796   20.7055 N   0  0  0  0  0  0  0  0  0  0  0  0
    8.5036  -15.7526   22.9929 C   0  0  0  0  0  0  0  0  0  0  0  0
    8.0637  -16.9403   23.0227 O   0  0  0  0  0  0  0  0  0  0  0  0
    9.9426  -12.7301   29.1098 C   0  0  0  0  0  0  0  0  0  0  0  0
   10.8516  -13.7890   27.9493 S   0  0  0  0  0  0  0  0  0  0  0  0
    9.8753  -15.2778   27.5327 C   0  0  0  0  0  0  0  0  0  0  0  0
    8.7584  -14.9396   26.6034 C   0  0  0  0  0  0  0  0  0  0  0  0
    8.5407  -15.9243   25.4837 C   0  0  2  0  0  0  0  0  0  0  0  0
    8.7284  -15.1535   24.2504 N   0  0  0  0  0  0  0  0  0  0  0  0
    7.1490  -16.4024   25.5119 C   0  0  0  0  0  0  0  0  0  0  0  0
    6.7188  -17.5517   26.1656 O   0  0  0  0  0  0  0  0  0  0  0  0
    6.2254  -15.7607   24.9113 O   0  0  0  0  0  0  0  0  0  0  0  0
  1  2  1  0
  2  3  2  0
  4  2  1  0
  5  4  1  0
  5  6  1  1
  7  5  1  0
  7  8  2  0
 10 12  1  0
 10  9  1  1
 11 10  1  0
 12 13  1  6
 13  7  1  0
 14 12  1  0
 15 14  2  0
 17 16  1  0
 18 17  1  0
 19 18  1  0
 20 19  1  1
 20 22  1  0
 20 21  1  0
 21 14  1  0
 22 23  1  0
 24 22  2  0
M  END
$$$$
