NVM.pdb
     RDKit          3D

 24 23  0  0  1  0  0  0  0  0999 V2000
    8.4144  -12.3807   17.6713 N   0  0  0  0  0  0  0  0  0  0  0  0
    7.9451  -13.5872   17.0868 C   0  0  0  0  0  0  0  0  0  0  0  0
    7.1650  -13.5546   16.0990 O   0  0  0  0  0  0  0  0  0  0  0  0
    8.3680  -14.8943   17.6320 C   0  0  0  0  0  0  0  0  0  0  0  0
    9.2172  -14.6596   18.8454 C   0  0  2  0  0  0  0  0  0  0  0  0
   10.5876  -15.0298   18.6109 N   0  0  0  0  0  0  0  0  0  0  0  0
    8.6670  -15.2726   20.0786 C   0  0  0  0  0  0  0  0  0  0  0  0
    7.5464  -14.8632   20.4840 O   0  0  0  0  0  0  0  0  0  0  0  0
    9.1581  -18.8533   23.4958 C   0  0  0  0  0  0  0  0  0  0  0  0
    9.3684  -18.2029   22.1731 C   0  0  1  0  0  0  0  0  0  0  0  0
    8.9031  -19.0225   21.0276 C   0  0  0  0  0  0  0  0  0  0  0  0
    8.7912  -16.7890   22.1170 C   0  0  2  0  0  0  0  0  0  0  0  0
    9.3073  -16.2740   20.8208 N   0  0  0  0  0  0  0  0  0  0  0  0
    9.3180  -15.9748   23.2082 C   0  0  0  0  0  0  0  0  0  0  0  0
   10.5231  -15.5901   23.2757 O   0  0  0  0  0  0  0  0  0  0  0  0
    5.2282  -12.2052   26.1945 C   0  0  0  0  0  0  0  0  0  0  0  0
    6.7859  -11.4750   26.7728 S   0  0  0  0  0  0  0  0  0  0  0  0
    8.1542  -12.6802   26.6363 C   0  0  0  0  0  0  0  0  0  0  0  0
    7.9013  -13.6503   25.5315 C   0  0  0  0  0  0  0  0  0  0  0  0
    8.9973  -14.6598   25.3065 C   0  0  2  0  0  0  0  0  0  0  0  0
    8.4849  -15.5606   24.2690 N   0  0  0  0  0  0  0  0  0  0  0  0
    9.1993  -15.4488   26.5324 C   0  0  0  0  0  0  0  0  0  0  0  0
   10.0437  -15.0888   27.5768 O   0  0  0  0  0  0  0  0  0  0  0  0
    8.5851  -16.5522   26.7079 O   0  0  0  0  0  0  0  0  0  0  0  0
  1  2  1  0
  2  3  2  0
  4  2  1  0
  5  4  1  0
  5  6  1  6
  7  5  1  0
  7  8  2  0
 10 12  1  0
 10  9  1  1
 11 10  1  0
 12 13  1  6
 13  7  1  0
 14 12  1  0
 15 14  2  0
 17 16  1  0
 18 17  1  0
 19 18  1  0
 20 19  1  1
 20 22  1  0
 20 21  1  0
 21 14  1  0
 22 23  1  0
 24 22  2  0
M  END
$$$$
