NVM.pdb
     RDKit          3D

 24 23  0  0  1  0  0  0  0  0999 V2000
    7.9284  -21.0260   17.4645 N   0  0  0  0  0  0  0  0  0  0  0  0
    7.2332  -19.7967   17.6158 C   0  0  0  0  0  0  0  0  0  0  0  0
    5.9868  -19.7450   17.4450 O   0  0  0  0  0  0  0  0  0  0  0  0
    7.9659  -18.5644   17.9756 C   0  0  0  0  0  0  0  0  0  0  0  0
    7.8375  -18.3402   19.4527 C   0  0  2  0  0  0  0  0  0  0  0  0
    6.4815  -18.5205   19.8987 N   0  0  0  0  0  0  0  0  0  0  0  0
    8.4176  -17.0532   19.9070 C   0  0  0  0  0  0  0  0  0  0  0  0
    9.6531  -16.8765   19.7339 O   0  0  0  0  0  0  0  0  0  0  0  0
    7.7724  -12.3448   21.0590 C   0  0  0  0  0  0  0  0  0  0  0  0
    7.4571  -13.6781   20.4763 C   0  0  1  0  0  0  0  0  0  0  0  0
    7.4956  -13.7024   18.9936 C   0  0  0  0  0  0  0  0  0  0  0  0
    8.3113  -14.7956   21.0740 C   0  0  2  0  0  0  0  0  0  0  0  0
    7.6863  -16.0232   20.5136 N   0  0  0  0  0  0  0  0  0  0  0  0
    8.1936  -14.8106   22.5290 C   0  0  0  0  0  0  0  0  0  0  0  0
    7.0853  -14.8541   23.1410 O   0  0  0  0  0  0  0  0  0  0  0  0
    7.3233  -11.0299   27.4130 C   0  0  0  0  0  0  0  0  0  0  0  0
    6.4062  -12.3913   26.6386 S   0  0  0  0  0  0  0  0  0  0  0  0
    7.4704  -13.8675   26.4597 C   0  0  0  0  0  0  0  0  0  0  0  0
    7.8324  -14.0930   25.0301 C   0  0  0  0  0  0  0  0  0  0  0  0
    9.2129  -14.6529   24.8030 C   0  0  2  0  0  0  0  0  0  0  0  0
    9.3422  -14.7818   23.3480 N   0  0  0  0  0  0  0  0  0  0  0  0
    9.2997  -16.0011   25.3869 C   0  0  0  0  0  0  0  0  0  0  0  0
   10.1673  -16.3676   26.4098 O   0  0  0  0  0  0  0  0  0  0  0  0
    8.5526  -16.9447   24.9662 O   0  0  0  0  0  0  0  0  0  0  0  0
  1  2  1  0
  2  3  2  0
  4  2  1  0
  5  4  1  0
  5  6  1  6
  7  5  1  0
  7  8  2  0
 10 12  1  0
 10  9  1  1
 11 10  1  0
 12 13  1  6
 13  7  1  0
 14 12  1  0
 15 14  2  0
 17 16  1  0
 18 17  1  0
 19 18  1  0
 20 19  1  6
 20 22  1  0
 20 21  1  0
 21 14  1  0
 22 23  1  0
 24 22  2  0
M  END
$$$$
