NVM.pdb
     RDKit          3D

 24 23  0  0  1  0  0  0  0  0999 V2000
    6.0196  -21.3132   24.1839 N   0  0  0  0  0  0  0  0  0  0  0  0
    5.9541  -20.0663   23.5070 C   0  0  0  0  0  0  0  0  0  0  0  0
    4.8644  -19.6609   23.0236 O   0  0  0  0  0  0  0  0  0  0  0  0
    7.1648  -19.2308   23.3629 C   0  0  0  0  0  0  0  0  0  0  0  0
    7.1928  -18.6556   21.9784 C   0  0  2  0  0  0  0  0  0  0  0  0
    7.5829  -19.6406   21.0048 N   0  0  0  0  0  0  0  0  0  0  0  0
    7.9879  -17.4082   21.8734 C   0  0  0  0  0  0  0  0  0  0  0  0
    9.2131  -17.5182   21.6007 O   0  0  0  0  0  0  0  0  0  0  0  0
    7.9187  -12.4921   21.3838 C   0  0  0  0  0  0  0  0  0  0  0  0
    7.3956  -13.8843   21.3124 C   0  0  1  0  0  0  0  0  0  0  0  0
    7.0712  -14.3268   19.9342 C   0  0  0  0  0  0  0  0  0  0  0  0
    8.3041  -14.8886   22.0205 C   0  0  2  0  0  0  0  0  0  0  0  0
    7.4697  -16.1191   22.0561 N   0  0  0  0  0  0  0  0  0  0  0  0
    8.5871  -14.4532   23.3848 C   0  0  0  0  0  0  0  0  0  0  0  0
    8.0624  -13.4296   23.9158 O   0  0  0  0  0  0  0  0  0  0  0  0
    6.4961  -11.1853   26.0119 C   0  0  0  0  0  0  0  0  0  0  0  0
    6.7121  -12.3948   27.3477 S   0  0  0  0  0  0  0  0  0  0  0  0
    8.2729  -13.3229   27.1328 C   0  0  0  0  0  0  0  0  0  0  0  0
    8.1985  -14.2224   25.9449 C   0  0  0  0  0  0  0  0  0  0  0  0
    9.4530  -15.0073   25.6604 C   0  0  2  0  0  0  0  0  0  0  0  0
    9.4809  -15.1751   24.2039 N   0  0  0  0  0  0  0  0  0  0  0  0
    9.3467  -16.3433   26.2686 C   0  0  0  0  0  0  0  0  0  0  0  0
    9.8167  -16.6781   27.5336 O   0  0  0  0  0  0  0  0  0  0  0  0
    8.7953  -17.3055   25.6396 O   0  0  0  0  0  0  0  0  0  0  0  0
  1  2  1  0
  2  3  2  0
  4  2  1  0
  5  4  1  0
  5  6  1  6
  7  5  1  0
  7  8  2  0
 10 12  1  0
 10  9  1  6
 11 10  1  0
 12 13  1  1
 13  7  1  0
 14 12  1  0
 15 14  2  0
 17 16  1  0
 18 17  1  0
 19 18  1  0
 20 19  1  6
 20 22  1  0
 20 21  1  0
 21 14  1  0
 22 23  1  0
 24 22  2  0
M  END
$$$$
