NVM.pdb
     RDKit          3D

 24 23  0  0  1  0  0  0  0  0999 V2000
   16.0234  -17.8190   20.0382 N   0  0  0  0  0  0  0  0  0  0  0  0
   14.8023  -18.3315   20.5516 C   0  0  0  0  0  0  0  0  0  0  0  0
   14.5978  -19.5735   20.5863 O   0  0  0  0  0  0  0  0  0  0  0  0
   13.7583  -17.4121   21.0510 C   0  0  0  0  0  0  0  0  0  0  0  0
   12.5624  -17.5048   20.1510 C   0  0  2  0  0  0  0  0  0  0  0  0
   12.8497  -16.9955   18.8364 N   0  0  0  0  0  0  0  0  0  0  0  0
   11.3366  -16.9085   20.7351 C   0  0  0  0  0  0  0  0  0  0  0  0
   11.1764  -15.6649   20.6112 O   0  0  0  0  0  0  0  0  0  0  0  0
    6.7961  -17.8969   22.4615 C   0  0  0  0  0  0  0  0  0  0  0  0
    8.0750  -18.1617   21.7467 C   0  0  1  0  0  0  0  0  0  0  0  0
    7.8940  -18.5217   20.3191 C   0  0  0  0  0  0  0  0  0  0  0  0
    9.0842  -17.0258   21.9109 C   0  0  2  0  0  0  0  0  0  0  0  0
   10.3471  -17.6330   21.4130 N   0  0  0  0  0  0  0  0  0  0  0  0
    9.2364  -16.6728   23.3193 C   0  0  0  0  0  0  0  0  0  0  0  0
    9.8677  -17.3854   24.1551 O   0  0  0  0  0  0  0  0  0  0  0  0
    6.6900  -11.1507   25.3771 C   0  0  0  0  0  0  0  0  0  0  0  0
    6.7436  -11.9933   26.9837 S   0  0  0  0  0  0  0  0  0  0  0  0
    7.7457  -13.5192   26.8798 C   0  0  0  0  0  0  0  0  0  0  0  0
    7.8862  -13.9688   25.4642 C   0  0  0  0  0  0  0  0  0  0  0  0
    8.7567  -15.1826   25.2645 C   0  0  2  0  0  0  0  0  0  0  0  0
    8.6757  -15.4837   23.8317 N   0  0  0  0  0  0  0  0  0  0  0  0
    8.1877  -16.3232   26.0003 C   0  0  0  0  0  0  0  0  0  0  0  0
    7.0905  -17.0682   25.5826 O   0  0  0  0  0  0  0  0  0  0  0  0
    8.6922  -16.7035   27.1078 O   0  0  0  0  0  0  0  0  0  0  0  0
  1  2  1  0
  2  3  2  0
  4  2  1  0
  5  4  1  0
  5  6  1  6
  7  5  1  0
  7  8  2  0
 10 12  1  0
 10  9  1  6
 11 10  1  0
 12 13  1  1
 13  7  1  0
 14 12  1  0
 15 14  2  0
 17 16  1  0
 18 17  1  0
 19 18  1  0
 20 19  1  6
 20 22  1  0
 20 21  1  0
 21 14  1  0
 22 23  1  0
 24 22  2  0
M  END
$$$$
