EVR.pdb
     RDKit          3D

 28 27  0  0  1  0  0  0  0  0999 V2000
    8.2397  -15.1636   14.4548 N   0  0  0  0  0  0  0  0  0  0  0  0
    8.2608  -15.7979   15.7814 C   0  0  1  0  0  0  0  0  0  0  0  0
    9.0238  -17.1182   15.6505 C   0  0  0  0  0  0  0  0  0  0  0  0
    8.2104  -18.1239   14.8877 C   0  0  0  0  0  0  0  0  0  0  0  0
    8.8477  -19.4376   14.8543 C   0  0  0  0  0  0  0  0  0  0  0  0
    8.9917  -20.0796   13.8202 O   0  0  0  0  0  0  0  0  0  0  0  0
    9.0546  -14.9417   16.7089 C   0  0  0  0  0  0  0  0  0  0  0  0
   10.1215  -14.4001   16.3264 O   0  0  0  0  0  0  0  0  0  0  0  0
    9.3193  -19.9904   16.0578 O   0  0  0  0  0  0  0  0  0  0  0  0
    7.3315  -12.2989   18.7243 C   0  0  0  0  0  0  0  0  0  0  0  0
    8.1772  -13.1132   19.6683 C   0  0  1  0  0  0  0  0  0  0  0  0
    7.1985  -14.1011   20.3283 C   0  0  0  0  0  0  0  0  0  0  0  0
    9.2419  -13.9229   19.0421 C   0  0  2  0  0  0  0  0  0  0  0  0
    8.5988  -14.7503   18.0098 N   0  0  0  0  0  0  0  0  0  0  0  0
   10.0061  -14.8472   19.8701 C   0  0  0  0  0  0  0  0  0  0  0  0
    9.5514  -16.0245   20.0690 O   0  0  0  0  0  0  0  0  0  0  0  0
   17.1338  -14.4398   19.8127 N   0  0  0  0  0  0  0  0  0  0  0  0
   16.9728  -14.1789   21.2053 C   0  0  0  0  0  0  0  0  0  0  0  0
   17.6939  -13.2395   21.7435 N   0  0  0  0  0  0  0  0  0  0  0  0
   16.0613  -14.9000   22.0211 N   0  0  0  0  0  0  0  0  0  0  0  0
   15.7901  -16.3240   21.7172 C   0  0  0  0  0  0  0  0  0  0  0  0
   14.3017  -16.4824   21.7301 C   0  0  0  0  0  0  0  0  0  0  0  0
   13.5084  -15.3973   21.1207 C   0  0  0  0  0  0  0  0  0  0  0  0
   12.0322  -15.6487   21.1313 C   0  0  2  0  0  0  0  0  0  0  0  0
   11.2405  -14.6085   20.5139 N   0  0  0  0  0  0  0  0  0  0  0  0
   11.5689  -15.9988   22.4860 C   0  0  0  0  0  0  0  0  0  0  0  0
   10.7759  -15.2320   23.0756 O   0  0  0  0  0  0  0  0  0  0  0  0
   11.9914  -17.1430   23.1052 O   0  0  0  0  0  0  0  0  0  0  0  0
  2  1  1  6
  2  3  1  0
  4  3  1  0
  4  5  1  0
  5  6  2  0
  7  2  1  0
  8  7  2  0
  9  5  1  0
 11 12  1  6
 11 10  1  0
 11 13  1  0
 13 14  1  6
 14  7  1  0
 15 13  1  0
 15 25  1  0
 16 15  2  0
 18 17  1  0
 19 18  2  0
 20 18  1  0
 21 20  1  0
 22 23  1  0
 22 21  1  0
 24 23  1  1
 24 26  1  0
 24 25  1  0
 26 28  1  0
 27 26  2  0
M  END
$$$$
