EVR.pdb
     RDKit          3D

 28 27  0  0  1  0  0  0  0  0999 V2000
    8.9924  -17.5430   15.9483 N   0  0  0  0  0  0  0  0  0  0  0  0
    8.0365  -17.2944   17.0379 C   0  0  1  0  0  0  0  0  0  0  0  0
    7.7130  -18.6426   17.6859 C   0  0  0  0  0  0  0  0  0  0  0  0
    6.9326  -19.5089   16.7396 C   0  0  0  0  0  0  0  0  0  0  0  0
    5.7716  -20.1199   17.3812 C   0  0  0  0  0  0  0  0  0  0  0  0
    5.6330  -20.1656   18.5982 O   0  0  0  0  0  0  0  0  0  0  0  0
    8.7078  -16.4725   18.0854 C   0  0  0  0  0  0  0  0  0  0  0  0
    9.9385  -16.5955   18.3057 O   0  0  0  0  0  0  0  0  0  0  0  0
    4.7675  -20.6780   16.5707 O   0  0  0  0  0  0  0  0  0  0  0  0
    6.1236  -13.8785   20.4325 C   0  0  0  0  0  0  0  0  0  0  0  0
    7.4968  -13.5207   19.9267 C   0  0  1  0  0  0  0  0  0  0  0  0
    8.0564  -12.5284   20.9620 C   0  0  0  0  0  0  0  0  0  0  0  0
    8.4612  -14.6360   19.8412 C   0  0  2  0  0  0  0  0  0  0  0  0
    7.9515  -15.5651   18.8211 N   0  0  0  0  0  0  0  0  0  0  0  0
    8.7098  -15.4474   21.0260 C   0  0  0  0  0  0  0  0  0  0  0  0
    7.9500  -16.4462   21.2656 O   0  0  0  0  0  0  0  0  0  0  0  0
   15.5114  -19.3738   25.3820 N   0  0  0  0  0  0  0  0  0  0  0  0
   14.2353  -19.9417   25.6685 C   0  0  0  0  0  0  0  0  0  0  0  0
   14.1918  -21.0394   26.3653 N   0  0  0  0  0  0  0  0  0  0  0  0
   13.0185  -19.3586   25.2258 N   0  0  0  0  0  0  0  0  0  0  0  0
   13.0624  -18.2644   24.2286 C   0  0  0  0  0  0  0  0  0  0  0  0
   11.6641  -17.7428   24.1123 C   0  0  0  0  0  0  0  0  0  0  0  0
   11.4210  -16.7024   23.0942 C   0  0  0  0  0  0  0  0  0  0  0  0
   10.0012  -16.2294   23.0407 C   0  0  2  0  0  0  0  0  0  0  0  0
    9.7250  -15.2729   21.9925 N   0  0  0  0  0  0  0  0  0  0  0  0
    9.5479  -15.7772   24.3682 C   0  0  0  0  0  0  0  0  0  0  0  0
    9.3894  -14.5536   24.5735 O   0  0  0  0  0  0  0  0  0  0  0  0
    9.3003  -16.6705   25.3741 O   0  0  0  0  0  0  0  0  0  0  0  0
  2  1  1  6
  2  3  1  0
  4  3  1  0
  4  5  1  0
  5  6  2  0
  7  2  1  0
  8  7  2  0
  9  5  1  0
 11 12  1  1
 11 10  1  0
 11 13  1  0
 13 14  1  6
 14  7  1  0
 15 13  1  0
 15 25  1  0
 16 15  2  0
 18 17  1  0
 19 18  2  0
 20 18  1  0
 21 20  1  0
 22 23  1  0
 22 21  1  0
 24 23  1  1
 24 26  1  0
 24 25  1  0
 26 28  1  0
 27 26  2  0
M  END
$$$$
