EVR.pdb
     RDKit          3D

 28 27  0  0  1  0  0  0  0  0999 V2000
    8.8563  -16.4606   14.7114 N   0  0  0  0  0  0  0  0  0  0  0  0
    8.3837  -16.7030   16.0828 C   0  0  1  0  0  0  0  0  0  0  0  0
    8.7944  -18.1259   16.4687 C   0  0  0  0  0  0  0  0  0  0  0  0
    8.5012  -19.0816   15.3481 C   0  0  0  0  0  0  0  0  0  0  0  0
    8.9876  -20.4293   15.6312 C   0  0  0  0  0  0  0  0  0  0  0  0
    8.4379  -21.4374   15.2022 O   0  0  0  0  0  0  0  0  0  0  0  0
    9.1110  -15.7879   17.0086 C   0  0  0  0  0  0  0  0  0  0  0  0
   10.3455  -15.5943   16.8799 O   0  0  0  0  0  0  0  0  0  0  0  0
   10.1366  -20.5796   16.4273 O   0  0  0  0  0  0  0  0  0  0  0  0
    6.7607  -14.1520   20.2585 C   0  0  0  0  0  0  0  0  0  0  0  0
    7.8343  -13.4008   19.5151 C   0  0  1  0  0  0  0  0  0  0  0  0
    8.4212  -12.4203   20.5466 C   0  0  0  0  0  0  0  0  0  0  0  0
    8.9597  -14.2155   19.0140 C   0  0  2  0  0  0  0  0  0  0  0  0
    8.4036  -15.1494   18.0228 N   0  0  0  0  0  0  0  0  0  0  0  0
    9.7102  -15.0380   19.9543 C   0  0  0  0  0  0  0  0  0  0  0  0
    9.2527  -16.1861   20.2781 O   0  0  0  0  0  0  0  0  0  0  0  0
   15.7018  -13.3798   21.3102 N   0  0  0  0  0  0  0  0  0  0  0  0
   16.3347  -14.5758   20.8603 C   0  0  0  0  0  0  0  0  0  0  0  0
   17.5073  -14.4811   20.3053 N   0  0  0  0  0  0  0  0  0  0  0  0
   15.7381  -15.8574   20.9948 N   0  0  0  0  0  0  0  0  0  0  0  0
   15.3411  -16.3321   22.3405 C   0  0  0  0  0  0  0  0  0  0  0  0
   13.8458  -16.4012   22.3397 C   0  0  0  0  0  0  0  0  0  0  0  0
   13.1329  -15.4487   21.4664 C   0  0  0  0  0  0  0  0  0  0  0  0
   11.6487  -15.6469   21.4407 C   0  0  2  0  0  0  0  0  0  0  0  0
   10.9335  -14.7249   20.5873 N   0  0  0  0  0  0  0  0  0  0  0  0
   11.1034  -15.7080   22.8087 C   0  0  0  0  0  0  0  0  0  0  0  0
   10.3633  -14.7834   23.2112 O   0  0  0  0  0  0  0  0  0  0  0  0
   11.3937  -16.7543   23.6406 O   0  0  0  0  0  0  0  0  0  0  0  0
  2  1  1  6
  2  3  1  0
  4  3  1  0
  4  5  1  0
  5  6  2  0
  7  2  1  0
  8  7  2  0
  9  5  1  0
 11 12  1  1
 11 10  1  0
 11 13  1  0
 13 14  1  6
 14  7  1  0
 15 13  1  0
 15 25  1  0
 16 15  2  0
 18 17  1  0
 19 18  2  0
 20 18  1  0
 21 20  1  0
 22 23  1  0
 22 21  1  0
 24 23  1  1
 24 26  1  0
 24 25  1  0
 26 28  1  0
 27 26  2  0
M  END
$$$$
