EVR.pdb
     RDKit          3D

 28 27  0  0  1  0  0  0  0  0999 V2000
   11.3943  -16.1874   16.8968 N   0  0  0  0  0  0  0  0  0  0  0  0
   10.4246  -16.8252   17.8001 C   0  0  1  0  0  0  0  0  0  0  0  0
   11.0510  -18.1265   18.3066 C   0  0  0  0  0  0  0  0  0  0  0  0
   11.3292  -19.0582   17.1623 C   0  0  0  0  0  0  0  0  0  0  0  0
   11.8931  -20.3288   17.6102 C   0  0  0  0  0  0  0  0  0  0  0  0
   12.0977  -21.2690   16.8508 O   0  0  0  0  0  0  0  0  0  0  0  0
   10.2382  -15.9531   18.9952 C   0  0  0  0  0  0  0  0  0  0  0  0
   11.2292  -15.4668   19.5948 O   0  0  0  0  0  0  0  0  0  0  0  0
   12.2185  -20.4818   18.9694 O   0  0  0  0  0  0  0  0  0  0  0  0
    6.6264  -13.3327   21.2312 C   0  0  0  0  0  0  0  0  0  0  0  0
    7.3248  -14.1103   20.1464 C   0  0  1  0  0  0  0  0  0  0  0  0
    7.6963  -13.0625   19.0816 C   0  0  0  0  0  0  0  0  0  0  0  0
    8.5808  -14.7793   20.5417 C   0  0  2  0  0  0  0  0  0  0  0  0
    8.9479  -15.6845   19.4419 N   0  0  0  0  0  0  0  0  0  0  0  0
    8.5965  -15.5967   21.7482 C   0  0  0  0  0  0  0  0  0  0  0  0
    8.1001  -16.7733   21.7081 O   0  0  0  0  0  0  0  0  0  0  0  0
   10.5978  -13.3599   29.9500 N   0  0  0  0  0  0  0  0  0  0  0  0
   10.4991  -14.6906   29.4474 C   0  0  0  0  0  0  0  0  0  0  0  0
   10.9561  -15.6621   30.1818 N   0  0  0  0  0  0  0  0  0  0  0  0
    9.9245  -14.9936   28.1846 N   0  0  0  0  0  0  0  0  0  0  0  0
    9.5513  -13.8853   27.2758 C   0  0  0  0  0  0  0  0  0  0  0  0
    8.9324  -14.5189   26.0691 C   0  0  0  0  0  0  0  0  0  0  0  0
    9.7093  -15.5791   25.3979 C   0  0  0  0  0  0  0  0  0  0  0  0
    9.0514  -16.1235   24.1677 C   0  0  2  0  0  0  0  0  0  0  0  0
    9.1103  -15.2498   23.0174 N   0  0  0  0  0  0  0  0  0  0  0  0
    7.6865  -16.5928   24.4661 C   0  0  0  0  0  0  0  0  0  0  0  0
    6.7187  -15.8322   24.2441 O   0  0  0  0  0  0  0  0  0  0  0  0
    7.4634  -17.8407   24.9803 O   0  0  0  0  0  0  0  0  0  0  0  0
  2  1  1  6
  2  3  1  0
  4  3  1  0
  4  5  1  0
  5  6  2  0
  7  2  1  0
  8  7  2  0
  9  5  1  0
 11 12  1  6
 11 10  1  0
 11 13  1  0
 13 14  1  6
 14  7  1  0
 15 13  1  0
 15 25  1  0
 16 15  2  0
 18 17  1  0
 19 18  2  0
 20 18  1  0
 21 20  1  0
 22 23  1  0
 22 21  1  0
 24 23  1  1
 24 26  1  0
 24 25  1  0
 26 28  1  0
 27 26  2  0
M  END
$$$$
