EVR.pdb
     RDKit          3D

 28 27  0  0  1  0  0  0  0  0999 V2000
   10.0392  -15.3897   14.0059 N   0  0  0  0  0  0  0  0  0  0  0  0
    9.3516  -15.9546   15.1767 C   0  0  1  0  0  0  0  0  0  0  0  0
    9.7296  -17.4350   15.2653 C   0  0  0  0  0  0  0  0  0  0  0  0
   11.1950  -17.6221   14.9962 C   0  0  0  0  0  0  0  0  0  0  0  0
   11.5863  -19.0289   15.0276 C   0  0  0  0  0  0  0  0  0  0  0  0
   10.8123  -19.9395   14.7556 O   0  0  0  0  0  0  0  0  0  0  0  0
    9.8904  -15.3068   16.4070 C   0  0  0  0  0  0  0  0  0  0  0  0
   11.1267  -15.1402   16.5547 O   0  0  0  0  0  0  0  0  0  0  0  0
   12.9071  -19.3550   15.3821 O   0  0  0  0  0  0  0  0  0  0  0  0
    6.9402  -14.0148   19.3600 C   0  0  0  0  0  0  0  0  0  0  0  0
    8.1922  -13.2892   18.9412 C   0  0  1  0  0  0  0  0  0  0  0  0
    8.5927  -12.4468   20.1658 C   0  0  0  0  0  0  0  0  0  0  0  0
    9.3518  -14.1437   18.6146 C   0  0  2  0  0  0  0  0  0  0  0  0
    9.0040  -14.8891   17.3951 N   0  0  0  0  0  0  0  0  0  0  0  0
    9.7853  -15.1456   19.5801 C   0  0  0  0  0  0  0  0  0  0  0  0
    9.2150  -16.2889   19.5875 O   0  0  0  0  0  0  0  0  0  0  0  0
   15.0658  -15.2031   17.0978 N   0  0  0  0  0  0  0  0  0  0  0  0
   15.1059  -14.5830   18.3812 C   0  0  0  0  0  0  0  0  0  0  0  0
   15.6797  -13.4202   18.4860 N   0  0  0  0  0  0  0  0  0  0  0  0
   14.5469  -15.1819   19.5410 N   0  0  0  0  0  0  0  0  0  0  0  0
   14.4283  -16.6568   19.6070 C   0  0  0  0  0  0  0  0  0  0  0  0
   13.0200  -16.9490   20.0218 C   0  0  0  0  0  0  0  0  0  0  0  0
   12.6122  -16.4993   21.3670 C   0  0  0  0  0  0  0  0  0  0  0  0
   11.1753  -16.0867   21.4563 C   0  0  2  0  0  0  0  0  0  0  0  0
   10.7987  -15.0202   20.5560 N   0  0  0  0  0  0  0  0  0  0  0  0
   10.7905  -15.8240   22.8546 C   0  0  0  0  0  0  0  0  0  0  0  0
   10.2818  -14.7199   23.1491 O   0  0  0  0  0  0  0  0  0  0  0  0
   10.9810  -16.7639   23.8300 O   0  0  0  0  0  0  0  0  0  0  0  0
  2  1  1  6
  2  3  1  0
  4  3  1  0
  4  5  1  0
  5  6  2  0
  7  2  1  0
  8  7  2  0
  9  5  1  0
 11 12  1  1
 11 10  1  0
 11 13  1  0
 13 14  1  6
 14  7  1  0
 15 13  1  0
 15 25  1  0
 16 15  2  0
 18 17  1  0
 19 18  2  0
 20 18  1  0
 21 20  1  0
 22 23  1  0
 22 21  1  0
 24 23  1  1
 24 26  1  0
 24 25  1  0
 26 28  1  0
 27 26  2  0
M  END
$$$$
