EVR.pdb
     RDKit          3D

 28 27  0  0  1  0  0  0  0  0999 V2000
   13.3255  -19.4354   19.6574 N   0  0  0  0  0  0  0  0  0  0  0  0
   13.0119  -18.1742   20.3458 C   0  0  1  0  0  0  0  0  0  0  0  0
   12.6984  -17.1278   19.2738 C   0  0  0  0  0  0  0  0  0  0  0  0
   13.9611  -16.4772   18.7867 C   0  0  0  0  0  0  0  0  0  0  0  0
   13.6965  -15.4125   17.8227 C   0  0  0  0  0  0  0  0  0  0  0  0
   12.5745  -15.1697   17.3929 O   0  0  0  0  0  0  0  0  0  0  0  0
   11.7604  -18.3580   21.1354 C   0  0  0  0  0  0  0  0  0  0  0  0
   10.6993  -18.7323   20.5768 O   0  0  0  0  0  0  0  0  0  0  0  0
   14.7723  -14.6295   17.3686 O   0  0  0  0  0  0  0  0  0  0  0  0
   11.5062  -20.5630   24.0045 C   0  0  0  0  0  0  0  0  0  0  0  0
   11.0757  -19.2008   24.4826 C   0  0  1  0  0  0  0  0  0  0  0  0
   12.3286  -18.5956   25.1410 C   0  0  0  0  0  0  0  0  0  0  0  0
   10.6486  -18.2557   23.4310 C   0  0  2  0  0  0  0  0  0  0  0  0
   11.7810  -18.1069   22.5040 N   0  0  0  0  0  0  0  0  0  0  0  0
   10.2681  -16.9011   23.8107 C   0  0  0  0  0  0  0  0  0  0  0  0
   11.1705  -16.0931   24.2172 O   0  0  0  0  0  0  0  0  0  0  0  0
    8.4760  -11.5627   19.2173 N   0  0  0  0  0  0  0  0  0  0  0  0
    8.5429  -12.9292   18.8156 C   0  0  0  0  0  0  0  0  0  0  0  0
    9.2738  -13.2329   17.7833 N   0  0  0  0  0  0  0  0  0  0  0  0
    7.8473  -13.9641   19.4951 N   0  0  0  0  0  0  0  0  0  0  0  0
    7.2648  -13.6885   20.8288 C   0  0  0  0  0  0  0  0  0  0  0  0
    8.1722  -14.3361   21.8278 C   0  0  0  0  0  0  0  0  0  0  0  0
    7.7898  -14.2253   23.2489 C   0  0  0  0  0  0  0  0  0  0  0  0
    8.6997  -14.9665   24.1791 C   0  0  2  0  0  0  0  0  0  0  0  0
    8.9759  -16.3311   23.7897 N   0  0  0  0  0  0  0  0  0  0  0  0
    8.2361  -14.8471   25.5731 C   0  0  0  0  0  0  0  0  0  0  0  0
    8.1466  -13.7116   26.0899 O   0  0  0  0  0  0  0  0  0  0  0  0
    7.9051  -15.9534   26.3064 O   0  0  0  0  0  0  0  0  0  0  0  0
  2  1  1  6
  2  3  1  0
  4  3  1  0
  4  5  1  0
  5  6  2  0
  7  2  1  0
  8  7  2  0
  9  5  1  0
 11 12  1  6
 11 10  1  0
 11 13  1  0
 13 14  1  6
 14  7  1  0
 15 13  1  0
 15 25  1  0
 16 15  2  0
 18 17  1  0
 19 18  2  0
 20 18  1  0
 21 20  1  0
 22 23  1  0
 22 21  1  0
 24 23  1  6
 24 26  1  0
 24 25  1  0
 26 28  1  0
 27 26  2  0
M  END
$$$$
