EVR.pdb
     RDKit          3D

 28 27  0  0  1  0  0  0  0  0999 V2000
    9.6157  -16.4979   15.9657 N   0  0  0  0  0  0  0  0  0  0  0  0
    8.6803  -16.4646   17.1000 C   0  0  1  0  0  0  0  0  0  0  0  0
    8.4553  -17.9081   17.5564 C   0  0  0  0  0  0  0  0  0  0  0  0
    9.7683  -18.6089   17.7555 C   0  0  0  0  0  0  0  0  0  0  0  0
    9.5951  -20.0197   18.0912 C   0  0  0  0  0  0  0  0  0  0  0  0
    8.4985  -20.5667   18.1150 O   0  0  0  0  0  0  0  0  0  0  0  0
    9.3340  -15.7587   18.2392 C   0  0  0  0  0  0  0  0  0  0  0  0
   10.5767  -15.8294   18.4090 O   0  0  0  0  0  0  0  0  0  0  0  0
   10.7332  -20.7859   18.3981 O   0  0  0  0  0  0  0  0  0  0  0  0
    7.6750  -12.3563   19.0810 C   0  0  0  0  0  0  0  0  0  0  0  0
    8.0668  -13.0580   20.3552 C   0  0  1  0  0  0  0  0  0  0  0  0
    6.7620  -13.6801   20.8845 C   0  0  0  0  0  0  0  0  0  0  0  0
    9.0364  -14.1625   20.2090 C   0  0  2  0  0  0  0  0  0  0  0  0
    8.5478  -15.0189   19.1174 N   0  0  0  0  0  0  0  0  0  0  0  0
    9.2668  -15.0545   21.3382 C   0  0  0  0  0  0  0  0  0  0  0  0
    8.4916  -16.0559   21.5072 O   0  0  0  0  0  0  0  0  0  0  0  0
   15.2647  -14.7914   20.2887 N   0  0  0  0  0  0  0  0  0  0  0  0
   15.6879  -15.2708   21.5632 C   0  0  0  0  0  0  0  0  0  0  0  0
   16.6297  -14.6226   22.1836 N   0  0  0  0  0  0  0  0  0  0  0  0
   15.1238  -16.4204   22.1770 N   0  0  0  0  0  0  0  0  0  0  0  0
   14.2873  -16.2558   23.3883 C   0  0  0  0  0  0  0  0  0  0  0  0
   12.8707  -16.1632   22.9137 C   0  0  0  0  0  0  0  0  0  0  0  0
   11.8289  -16.0002   23.9462 C   0  0  0  0  0  0  0  0  0  0  0  0
   10.4396  -15.9122   23.3942 C   0  0  2  0  0  0  0  0  0  0  0  0
   10.2788  -14.9593   22.3190 N   0  0  0  0  0  0  0  0  0  0  0  0
    9.4551  -15.7325   24.4762 C   0  0  0  0  0  0  0  0  0  0  0  0
    8.8012  -14.6678   24.5340 O   0  0  0  0  0  0  0  0  0  0  0  0
    9.2474  -16.7069   25.4136 O   0  0  0  0  0  0  0  0  0  0  0  0
  2  1  1  6
  2  3  1  0
  4  3  1  0
  4  5  1  0
  5  6  2  0
  7  2  1  0
  8  7  2  0
  9  5  1  0
 11 12  1  6
 11 10  1  0
 11 13  1  0
 13 14  1  6
 14  7  1  0
 15 13  1  0
 15 25  1  0
 16 15  2  0
 18 17  1  0
 19 18  2  0
 20 18  1  0
 21 20  1  0
 22 23  1  0
 22 21  1  0
 24 23  1  1
 24 26  1  0
 24 25  1  0
 26 28  1  0
 27 26  2  0
M  END
$$$$
