EVR.pdb
     RDKit          3D

 28 27  0  0  1  0  0  0  0  0999 V2000
    8.7216  -17.8619   16.8405 N   0  0  0  0  0  0  0  0  0  0  0  0
    7.8112  -17.6179   17.9694 C   0  0  1  0  0  0  0  0  0  0  0  0
    7.5753  -18.9574   18.6711 C   0  0  0  0  0  0  0  0  0  0  0  0
    7.0320  -19.9704   17.7048 C   0  0  0  0  0  0  0  0  0  0  0  0
    5.6505  -20.3353   18.0070 C   0  0  0  0  0  0  0  0  0  0  0  0
    5.3230  -21.4637   18.3560 O   0  0  0  0  0  0  0  0  0  0  0  0
    8.4993  -16.7388   18.9580 C   0  0  0  0  0  0  0  0  0  0  0  0
    9.7200  -16.8921   19.2116 O   0  0  0  0  0  0  0  0  0  0  0  0
    4.6522  -19.3516   17.8960 O   0  0  0  0  0  0  0  0  0  0  0  0
    7.5717  -12.6708   21.7692 C   0  0  0  0  0  0  0  0  0  0  0  0
    7.2898  -13.7092   20.7149 C   0  0  1  0  0  0  0  0  0  0  0  0
    7.3052  -12.9382   19.3826 C   0  0  0  0  0  0  0  0  0  0  0  0
    8.2893  -14.7897   20.5931 C   0  0  2  0  0  0  0  0  0  0  0  0
    7.7697  -15.7433   19.6008 N   0  0  0  0  0  0  0  0  0  0  0  0
    8.6182  -15.5839   21.7699 C   0  0  0  0  0  0  0  0  0  0  0  0
    7.6871  -16.2209   22.3697 O   0  0  0  0  0  0  0  0  0  0  0  0
   11.9657  -19.5724   19.3758 N   0  0  0  0  0  0  0  0  0  0  0  0
   13.1582  -19.6928   20.1483 C   0  0  0  0  0  0  0  0  0  0  0  0
   14.2981  -19.7178   19.5221 N   0  0  0  0  0  0  0  0  0  0  0  0
   13.1489  -19.7851   21.5653 N   0  0  0  0  0  0  0  0  0  0  0  0
   11.8538  -19.7529   22.2831 C   0  0  0  0  0  0  0  0  0  0  0  0
   11.5979  -18.3190   22.6282 C   0  0  0  0  0  0  0  0  0  0  0  0
   10.3182  -18.0099   23.2953 C   0  0  0  0  0  0  0  0  0  0  0  0
   10.1089  -16.5498   23.5540 C   0  0  2  0  0  0  0  0  0  0  0  0
    9.8867  -15.7545   22.3674 N   0  0  0  0  0  0  0  0  0  0  0  0
   11.1750  -16.0115   24.4178 C   0  0  0  0  0  0  0  0  0  0  0  0
   11.3245  -16.4832   25.5665 O   0  0  0  0  0  0  0  0  0  0  0  0
   11.9983  -15.0086   23.9848 O   0  0  0  0  0  0  0  0  0  0  0  0
  2  1  1  6
  2  3  1  0
  4  3  1  0
  4  5  1  0
  5  6  2  0
  7  2  1  0
  8  7  2  0
  9  5  1  0
 11 12  1  6
 11 10  1  0
 11 13  1  0
 13 14  1  6
 14  7  1  0
 15 13  1  0
 15 25  1  0
 16 15  2  0
 18 17  1  0
 19 18  2  0
 20 18  1  0
 21 20  1  0
 22 23  1  0
 22 21  1  0
 24 23  1  6
 24 26  1  0
 24 25  1  0
 26 28  1  0
 27 26  2  0
M  END
$$$$
