EVR.pdb
     RDKit          3D

 28 27  0  0  1  0  0  0  0  0999 V2000
    9.6859  -15.5746   15.5794 N   0  0  0  0  0  0  0  0  0  0  0  0
    9.1891  -16.2858   16.7669 C   0  0  1  0  0  0  0  0  0  0  0  0
    9.8353  -17.6731   16.7791 C   0  0  0  0  0  0  0  0  0  0  0  0
    9.3965  -18.4697   15.5841 C   0  0  0  0  0  0  0  0  0  0  0  0
    9.9969  -19.8009   15.5580 C   0  0  0  0  0  0  0  0  0  0  0  0
   10.0262  -20.5353   16.5388 O   0  0  0  0  0  0  0  0  0  0  0  0
    9.6786  -15.5813   17.9865 C   0  0  0  0  0  0  0  0  0  0  0  0
   10.8632  -15.1691   18.0568 O   0  0  0  0  0  0  0  0  0  0  0  0
   10.5638  -20.2629   14.3573 O   0  0  0  0  0  0  0  0  0  0  0  0
    7.8819  -12.7374   19.1356 C   0  0  0  0  0  0  0  0  0  0  0  0
    8.0804  -13.5640   20.3793 C   0  0  1  0  0  0  0  0  0  0  0  0
    6.7248  -14.2524   20.6204 C   0  0  0  0  0  0  0  0  0  0  0  0
    9.0915  -14.6363   20.2841 C   0  0  2  0  0  0  0  0  0  0  0  0
    8.8046  -15.3866   19.0518 N   0  0  0  0  0  0  0  0  0  0  0  0
    9.1668  -15.6327   21.3450 C   0  0  0  0  0  0  0  0  0  0  0  0
    8.6724  -16.7934   21.1434 O   0  0  0  0  0  0  0  0  0  0  0  0
   16.7920  -16.9548   21.7521 N   0  0  0  0  0  0  0  0  0  0  0  0
   16.3729  -15.9263   22.6463 C   0  0  0  0  0  0  0  0  0  0  0  0
   17.2587  -15.0648   23.0531 N   0  0  0  0  0  0  0  0  0  0  0  0
   15.0347  -15.8071   23.1062 N   0  0  0  0  0  0  0  0  0  0  0  0
   14.0212  -16.7820   22.6411 C   0  0  0  0  0  0  0  0  0  0  0  0
   12.7145  -16.3435   23.2251 C   0  0  0  0  0  0  0  0  0  0  0  0
   11.5318  -17.1691   22.9125 C   0  0  0  0  0  0  0  0  0  0  0  0
   10.2429  -16.5910   23.4094 C   0  0  2  0  0  0  0  0  0  0  0  0
    9.7392  -15.4841   22.6277 N   0  0  0  0  0  0  0  0  0  0  0  0
   10.3231  -16.2903   24.8501 C   0  0  0  0  0  0  0  0  0  0  0  0
   10.6554  -17.1979   25.6441 O   0  0  0  0  0  0  0  0  0  0  0  0
   10.0403  -15.0407   25.3295 O   0  0  0  0  0  0  0  0  0  0  0  0
  2  1  1  6
  2  3  1  0
  4  3  1  0
  4  5  1  0
  5  6  2  0
  7  2  1  0
  8  7  2  0
  9  5  1  0
 11 12  1  6
 11 10  1  0
 11 13  1  0
 13 14  1  6
 14  7  1  0
 15 13  1  0
 15 25  1  0
 16 15  2  0
 18 17  1  0
 19 18  2  0
 20 18  1  0
 21 20  1  0
 22 23  1  0
 22 21  1  0
 24 23  1  6
 24 26  1  0
 24 25  1  0
 26 28  1  0
 27 26  2  0
M  END
$$$$
