EVR.pdb
     RDKit          3D

 28 27  0  0  1  0  0  0  0  0999 V2000
    8.7585  -17.1119   15.6177 N   0  0  0  0  0  0  0  0  0  0  0  0
    7.8934  -16.9615   16.7975 C   0  0  1  0  0  0  0  0  0  0  0  0
    7.5503  -18.3654   17.3013 C   0  0  0  0  0  0  0  0  0  0  0  0
    8.2184  -19.4083   16.4521 C   0  0  0  0  0  0  0  0  0  0  0  0
    7.8216  -20.7627   16.8280 C   0  0  0  0  0  0  0  0  0  0  0  0
    8.3321  -21.7640   16.3389 O   0  0  0  0  0  0  0  0  0  0  0  0
    8.6747  -16.3025   17.8832 C   0  0  0  0  0  0  0  0  0  0  0  0
    9.9007  -16.5373   18.0239 O   0  0  0  0  0  0  0  0  0  0  0  0
    6.8133  -20.9278   17.7937 O   0  0  0  0  0  0  0  0  0  0  0  0
    6.4548  -13.9623   20.8473 C   0  0  0  0  0  0  0  0  0  0  0  0
    7.7125  -13.5330   20.1377 C   0  0  1  0  0  0  0  0  0  0  0  0
    8.4347  -12.6068   21.1328 C   0  0  0  0  0  0  0  0  0  0  0  0
    8.6598  -14.6139   19.7976 C   0  0  2  0  0  0  0  0  0  0  0  0
    8.0266  -15.4218   18.7440 N   0  0  0  0  0  0  0  0  0  0  0  0
    9.0567  -15.5578   20.8346 C   0  0  0  0  0  0  0  0  0  0  0  0
    8.4025  -16.6472   20.9665 O   0  0  0  0  0  0  0  0  0  0  0  0
   16.7541  -19.4907   22.3295 N   0  0  0  0  0  0  0  0  0  0  0  0
   15.9629  -19.5554   23.5139 C   0  0  0  0  0  0  0  0  0  0  0  0
   16.4648  -20.1459   24.5588 N   0  0  0  0  0  0  0  0  0  0  0  0
   14.6572  -19.0032   23.5961 N   0  0  0  0  0  0  0  0  0  0  0  0
   13.9813  -18.5585   22.3554 C   0  0  0  0  0  0  0  0  0  0  0  0
   12.6181  -18.0919   22.7612 C   0  0  0  0  0  0  0  0  0  0  0  0
   12.0528  -16.9504   22.0161 C   0  0  0  0  0  0  0  0  0  0  0  0
   10.6885  -16.5422   22.4796 C   0  0  2  0  0  0  0  0  0  0  0  0
   10.1169  -15.4271   21.7587 N   0  0  0  0  0  0  0  0  0  0  0  0
   10.6643  -16.3572   23.9416 C   0  0  0  0  0  0  0  0  0  0  0  0
   10.5237  -15.2049   24.4075 O   0  0  0  0  0  0  0  0  0  0  0  0
   10.7934  -17.4207   24.7922 O   0  0  0  0  0  0  0  0  0  0  0  0
  2  1  1  6
  2  3  1  0
  4  3  1  0
  4  5  1  0
  5  6  2  0
  7  2  1  0
  8  7  2  0
  9  5  1  0
 11 12  1  1
 11 10  1  0
 11 13  1  0
 13 14  1  6
 14  7  1  0
 15 13  1  0
 15 25  1  0
 16 15  2  0
 18 17  1  0
 19 18  2  0
 20 18  1  0
 21 20  1  0
 22 23  1  0
 22 21  1  0
 24 23  1  6
 24 26  1  0
 24 25  1  0
 26 28  1  0
 27 26  2  0
M  END
$$$$
