EVR.pdb
     RDKit          3D

 28 27  0  0  1  0  0  0  0  0999 V2000
    8.9126  -17.2184   15.5261 N   0  0  0  0  0  0  0  0  0  0  0  0
    8.1124  -17.2013   16.7599 C   0  0  1  0  0  0  0  0  0  0  0  0
    8.0652  -18.6324   17.3003 C   0  0  0  0  0  0  0  0  0  0  0  0
    7.3490  -19.5361   16.3383 C   0  0  0  0  0  0  0  0  0  0  0  0
    5.9239  -19.2288   16.2497 C   0  0  0  0  0  0  0  0  0  0  0  0
    5.1841  -19.2224   17.2269 O   0  0  0  0  0  0  0  0  0  0  0  0
    8.8280  -16.3867   17.7835 C   0  0  0  0  0  0  0  0  0  0  0  0
   10.0816  -16.4110   17.8602 O   0  0  0  0  0  0  0  0  0  0  0  0
    5.3753  -18.9245   14.9915 O   0  0  0  0  0  0  0  0  0  0  0  0
    6.3446  -14.3461   20.7335 C   0  0  0  0  0  0  0  0  0  0  0  0
    7.5732  -13.7723   20.0772 C   0  0  1  0  0  0  0  0  0  0  0  0
    8.1765  -12.8200   21.1254 C   0  0  0  0  0  0  0  0  0  0  0  0
    8.6287  -14.7443   19.7276 C   0  0  2  0  0  0  0  0  0  0  0  0
    8.0876  -15.5973   18.6582 N   0  0  0  0  0  0  0  0  0  0  0  0
    9.1160  -15.6578   20.7533 C   0  0  0  0  0  0  0  0  0  0  0  0
    8.5340  -16.7844   20.9091 O   0  0  0  0  0  0  0  0  0  0  0  0
   13.9456  -18.3056   25.7490 N   0  0  0  0  0  0  0  0  0  0  0  0
   14.4145  -19.4534   25.0448 C   0  0  0  0  0  0  0  0  0  0  0  0
   14.9600  -20.4158   25.7291 N   0  0  0  0  0  0  0  0  0  0  0  0
   14.3088  -19.5852   23.6348 N   0  0  0  0  0  0  0  0  0  0  0  0
   14.0961  -18.3737   22.8097 C   0  0  0  0  0  0  0  0  0  0  0  0
   12.6916  -17.9265   23.0705 C   0  0  0  0  0  0  0  0  0  0  0  0
   12.1743  -16.8255   22.2349 C   0  0  0  0  0  0  0  0  0  0  0  0
   10.7347  -16.4999   22.4878 C   0  0  2  0  0  0  0  0  0  0  0  0
   10.1958  -15.4589   21.6418 N   0  0  0  0  0  0  0  0  0  0  0  0
   10.4949  -16.2594   23.9221 C   0  0  0  0  0  0  0  0  0  0  0  0
   10.1375  -15.1210   24.2973 O   0  0  0  0  0  0  0  0  0  0  0  0
   10.6573  -17.2567   24.8441 O   0  0  0  0  0  0  0  0  0  0  0  0
  2  1  1  6
  2  3  1  0
  4  3  1  0
  4  5  1  0
  5  6  2  0
  7  2  1  0
  8  7  2  0
  9  5  1  0
 11 12  1  1
 11 10  1  0
 11 13  1  0
 13 14  1  6
 14  7  1  0
 15 13  1  0
 15 25  1  0
 16 15  2  0
 18 17  1  0
 19 18  2  0
 20 18  1  0
 21 20  1  0
 22 23  1  0
 22 21  1  0
 24 23  1  1
 24 26  1  0
 24 25  1  0
 26 28  1  0
 27 26  2  0
M  END
$$$$
