EVR.pdb
     RDKit          3D

 28 27  0  0  1  0  0  0  0  0999 V2000
    7.8990  -16.1938   15.8483 N   0  0  0  0  0  0  0  0  0  0  0  0
    7.5074  -16.6389   17.1941 C   0  0  1  0  0  0  0  0  0  0  0  0
    7.7603  -18.1462   17.2745 C   0  0  0  0  0  0  0  0  0  0  0  0
    7.4094  -18.6678   18.6382 C   0  0  0  0  0  0  0  0  0  0  0  0
    7.6234  -20.1083   18.7496 C   0  0  0  0  0  0  0  0  0  0  0  0
    6.7509  -20.8820   19.1272 O   0  0  0  0  0  0  0  0  0  0  0  0
    8.4163  -16.0045   18.1916 C   0  0  0  0  0  0  0  0  0  0  0  0
    9.6543  -15.9483   17.9860 O   0  0  0  0  0  0  0  0  0  0  0  0
    8.8822  -20.6327   18.4074 O   0  0  0  0  0  0  0  0  0  0  0  0
    7.2632  -12.7015   19.3950 C   0  0  0  0  0  0  0  0  0  0  0  0
    7.7205  -13.4687   20.6081 C   0  0  1  0  0  0  0  0  0  0  0  0
    6.4284  -14.0052   21.2503 C   0  0  0  0  0  0  0  0  0  0  0  0
    8.5814  -14.6389   20.3420 C   0  0  2  0  0  0  0  0  0  0  0  0
    7.8751  -15.4749   19.3591 N   0  0  0  0  0  0  0  0  0  0  0  0
    8.9245  -15.5289   21.4439 C   0  0  0  0  0  0  0  0  0  0  0  0
    8.0239  -16.2962   21.9262 O   0  0  0  0  0  0  0  0  0  0  0  0
   16.3412  -19.3243   21.3921 N   0  0  0  0  0  0  0  0  0  0  0  0
   15.2776  -19.3072   20.4426 C   0  0  0  0  0  0  0  0  0  0  0  0
   15.4585  -19.9096   19.3039 N   0  0  0  0  0  0  0  0  0  0  0  0
   14.0369  -18.6627   20.6911 N   0  0  0  0  0  0  0  0  0  0  0  0
   13.7893  -18.0601   22.0213 C   0  0  0  0  0  0  0  0  0  0  0  0
   12.3761  -17.5670   22.0050 C   0  0  0  0  0  0  0  0  0  0  0  0
   11.8257  -17.0724   23.2819 C   0  0  0  0  0  0  0  0  0  0  0  0
   10.4165  -16.5759   23.1805 C   0  0  2  0  0  0  0  0  0  0  0  0
   10.1767  -15.6664   22.0827 N   0  0  0  0  0  0  0  0  0  0  0  0
    9.9500  -16.0513   24.4765 C   0  0  0  0  0  0  0  0  0  0  0  0
    9.5860  -14.8572   24.5548 O   0  0  0  0  0  0  0  0  0  0  0  0
    9.9104  -16.8461   25.5892 O   0  0  0  0  0  0  0  0  0  0  0  0
  2  1  1  6
  2  3  1  0
  4  3  1  0
  4  5  1  0
  5  6  2  0
  7  2  1  0
  8  7  2  0
  9  5  1  0
 11 12  1  6
 11 10  1  0
 11 13  1  0
 13 14  1  6
 14  7  1  0
 15 13  1  0
 15 25  1  0
 16 15  2  0
 18 17  1  0
 19 18  2  0
 20 18  1  0
 21 20  1  0
 22 23  1  0
 22 21  1  0
 24 23  1  1
 24 26  1  0
 24 25  1  0
 26 28  1  0
 27 26  2  0
M  END
$$$$
