EVR.pdb
     RDKit          3D

 28 27  0  0  1  0  0  0  0  0999 V2000
    8.6396  -15.8363   15.6626 N   0  0  0  0  0  0  0  0  0  0  0  0
    8.3865  -16.5747   16.9090 C   0  0  1  0  0  0  0  0  0  0  0  0
    9.0476  -17.9485   16.7749 C   0  0  0  0  0  0  0  0  0  0  0  0
    8.0897  -19.0355   17.1701 C   0  0  0  0  0  0  0  0  0  0  0  0
    8.7690  -20.3026   17.4269 C   0  0  0  0  0  0  0  0  0  0  0  0
    9.3045  -20.9602   16.5419 O   0  0  0  0  0  0  0  0  0  0  0  0
    9.0834  -15.8781   18.0282 C   0  0  0  0  0  0  0  0  0  0  0  0
   10.3209  -15.6674   17.9805 O   0  0  0  0  0  0  0  0  0  0  0  0
    8.8142  -20.7900   18.7449 O   0  0  0  0  0  0  0  0  0  0  0  0
    7.5894  -12.7075   19.3572 C   0  0  0  0  0  0  0  0  0  0  0  0
    7.8831  -13.6079   20.5287 C   0  0  1  0  0  0  0  0  0  0  0  0
    6.5388  -14.2805   20.8608 C   0  0  0  0  0  0  0  0  0  0  0  0
    8.8520  -14.6940   20.2778 C   0  0  2  0  0  0  0  0  0  0  0  0
    8.3441  -15.4642   19.1321 N   0  0  0  0  0  0  0  0  0  0  0  0
    9.1064  -15.6708   21.3290 C   0  0  0  0  0  0  0  0  0  0  0  0
    8.1461  -16.4076   21.7381 O   0  0  0  0  0  0  0  0  0  0  0  0
   16.2627  -19.2474   25.1054 N   0  0  0  0  0  0  0  0  0  0  0  0
   15.1460  -19.4056   25.9778 C   0  0  0  0  0  0  0  0  0  0  0  0
   15.3437  -19.9617   27.1371 N   0  0  0  0  0  0  0  0  0  0  0  0
   13.8355  -18.9818   25.6320 N   0  0  0  0  0  0  0  0  0  0  0  0
   13.3398  -19.2159   24.2561 C   0  0  0  0  0  0  0  0  0  0  0  0
   12.0104  -18.5340   24.1645 C   0  0  0  0  0  0  0  0  0  0  0  0
   11.8847  -17.4436   23.1780 C   0  0  0  0  0  0  0  0  0  0  0  0
   10.4853  -16.9369   23.0125 C   0  0  2  0  0  0  0  0  0  0  0  0
   10.3282  -15.9273   21.9897 N   0  0  0  0  0  0  0  0  0  0  0  0
    9.9149  -16.5359   24.3110 C   0  0  0  0  0  0  0  0  0  0  0  0
    9.7694  -17.3988   25.2048 O   0  0  0  0  0  0  0  0  0  0  0  0
    9.5435  -15.2416   24.5519 O   0  0  0  0  0  0  0  0  0  0  0  0
  2  1  1  6
  2  3  1  0
  4  3  1  0
  4  5  1  0
  5  6  2  0
  7  2  1  0
  8  7  2  0
  9  5  1  0
 11 12  1  6
 11 10  1  0
 11 13  1  0
 13 14  1  6
 14  7  1  0
 15 13  1  0
 15 25  1  0
 16 15  2  0
 18 17  1  0
 19 18  2  0
 20 18  1  0
 21 20  1  0
 22 23  1  0
 22 21  1  0
 24 23  1  1
 24 26  1  0
 24 25  1  0
 26 28  1  0
 27 26  2  0
M  END
$$$$
