EVR.pdb
     RDKit          3D

 28 27  0  0  1  0  0  0  0  0999 V2000
    9.7252  -15.5390   14.6797 N   0  0  0  0  0  0  0  0  0  0  0  0
    8.9593  -16.0260   15.8369 C   0  0  1  0  0  0  0  0  0  0  0  0
    9.2571  -17.5190   15.9933 C   0  0  0  0  0  0  0  0  0  0  0  0
   10.7209  -17.7413   16.2444 C   0  0  0  0  0  0  0  0  0  0  0  0
   10.9597  -18.8355   17.1819 C   0  0  0  0  0  0  0  0  0  0  0  0
   11.4107  -18.6587   18.3078 O   0  0  0  0  0  0  0  0  0  0  0  0
    9.4763  -15.3611   17.0674 C   0  0  0  0  0  0  0  0  0  0  0  0
   10.6534  -14.9249   17.1139 O   0  0  0  0  0  0  0  0  0  0  0  0
   10.6579  -20.1482   16.7791 O   0  0  0  0  0  0  0  0  0  0  0  0
    7.5781  -13.1291   21.0965 C   0  0  0  0  0  0  0  0  0  0  0  0
    7.6188  -13.7752   19.7362 C   0  0  1  0  0  0  0  0  0  0  0  0
    7.3988  -12.6217   18.7409 C   0  0  0  0  0  0  0  0  0  0  0  0
    8.8965  -14.4178   19.3675 C   0  0  2  0  0  0  0  0  0  0  0  0
    8.6365  -15.2305   18.1693 N   0  0  0  0  0  0  0  0  0  0  0  0
    9.5379  -15.3137   20.3213 C   0  0  0  0  0  0  0  0  0  0  0  0
    9.0071  -16.4513   20.5589 O   0  0  0  0  0  0  0  0  0  0  0  0
   16.0325  -14.2619   21.5045 N   0  0  0  0  0  0  0  0  0  0  0  0
   15.9376  -14.7449   20.1663 C   0  0  0  0  0  0  0  0  0  0  0  0
   16.3749  -13.9858   19.2047 N   0  0  0  0  0  0  0  0  0  0  0  0
   15.3882  -16.0145   19.8455 N   0  0  0  0  0  0  0  0  0  0  0  0
   14.8276  -16.8541   20.9293 C   0  0  0  0  0  0  0  0  0  0  0  0
   13.3456  -16.6456   20.9013 C   0  0  0  0  0  0  0  0  0  0  0  0
   12.7264  -16.0826   22.1170 C   0  0  0  0  0  0  0  0  0  0  0  0
   11.2326  -16.0006   22.0517 C   0  0  2  0  0  0  0  0  0  0  0  0
   10.7234  -15.0860   21.0546 N   0  0  0  0  0  0  0  0  0  0  0  0
   10.6603  -15.7714   23.3905 C   0  0  0  0  0  0  0  0  0  0  0  0
    9.9706  -14.7473   23.5908 O   0  0  0  0  0  0  0  0  0  0  0  0
   10.8717  -16.6564   24.4119 O   0  0  0  0  0  0  0  0  0  0  0  0
  2  1  1  6
  2  3  1  0
  4  3  1  0
  4  5  1  0
  5  6  2  0
  7  2  1  0
  8  7  2  0
  9  5  1  0
 11 12  1  6
 11 10  1  0
 11 13  1  0
 13 14  1  6
 14  7  1  0
 15 13  1  0
 15 25  1  0
 16 15  2  0
 18 17  1  0
 19 18  2  0
 20 18  1  0
 21 20  1  0
 22 23  1  0
 22 21  1  0
 24 23  1  1
 24 26  1  0
 24 25  1  0
 26 28  1  0
 27 26  2  0
M  END
$$$$
