EVR.pdb
     RDKit          3D

 28 27  0  0  1  0  0  0  0  0999 V2000
   10.3092  -17.1227   17.1278 N   0  0  0  0  0  0  0  0  0  0  0  0
    9.2467  -17.0990   18.1443 C   0  0  1  0  0  0  0  0  0  0  0  0
    9.2003  -18.4825   18.7971 C   0  0  0  0  0  0  0  0  0  0  0  0
   10.1920  -19.4050   18.1486 C   0  0  0  0  0  0  0  0  0  0  0  0
   10.1563  -20.7464   18.7253 C   0  0  0  0  0  0  0  0  0  0  0  0
    9.8796  -20.9567   19.9007 O   0  0  0  0  0  0  0  0  0  0  0  0
    9.6322  -16.1383   19.2176 C   0  0  0  0  0  0  0  0  0  0  0  0
   10.8404  -15.9503   19.5059 O   0  0  0  0  0  0  0  0  0  0  0  0
   10.4490  -21.8452   17.8986 O   0  0  0  0  0  0  0  0  0  0  0  0
    7.8218  -12.8030   19.3270 C   0  0  0  0  0  0  0  0  0  0  0  0
    7.8525  -13.3713   20.7218 C   0  0  1  0  0  0  0  0  0  0  0  0
    6.4593  -13.9923   20.9294 C   0  0  0  0  0  0  0  0  0  0  0  0
    8.8372  -14.4468   20.9564 C   0  0  2  0  0  0  0  0  0  0  0  0
    8.6336  -15.4509   19.9008 N   0  0  0  0  0  0  0  0  0  0  0  0
    8.7948  -15.1816   22.2142 C   0  0  0  0  0  0  0  0  0  0  0  0
    7.9802  -16.1583   22.3360 O   0  0  0  0  0  0  0  0  0  0  0  0
   13.0918  -21.1618   23.5869 N   0  0  0  0  0  0  0  0  0  0  0  0
   13.3095  -19.8763   23.0096 C   0  0  0  0  0  0  0  0  0  0  0  0
   13.7451  -19.8164   21.7853 N   0  0  0  0  0  0  0  0  0  0  0  0
   13.0699  -18.6673   23.7151 N   0  0  0  0  0  0  0  0  0  0  0  0
   11.6743  -18.2617   24.0005 C   0  0  0  0  0  0  0  0  0  0  0  0
   11.6899  -16.7724   24.1507 C   0  0  0  0  0  0  0  0  0  0  0  0
   10.7705  -16.1913   25.1483 C   0  0  0  0  0  0  0  0  0  0  0  0
    9.4602  -15.7466   24.5756 C   0  0  2  0  0  0  0  0  0  0  0  0
    9.5683  -14.9510   23.3733 N   0  0  0  0  0  0  0  0  0  0  0  0
    8.6216  -15.1163   25.6108 C   0  0  0  0  0  0  0  0  0  0  0  0
    8.2207  -13.9440   25.4394 O   0  0  0  0  0  0  0  0  0  0  0  0
    8.2777  -15.7901   26.7505 O   0  0  0  0  0  0  0  0  0  0  0  0
  2  1  1  6
  2  3  1  0
  4  3  1  0
  4  5  1  0
  5  6  2  0
  7  2  1  0
  8  7  2  0
  9  5  1  0
 11 12  1  6
 11 10  1  0
 11 13  1  0
 13 14  1  6
 14  7  1  0
 15 13  1  0
 15 25  1  0
 16 15  2  0
 18 17  1  0
 19 18  2  0
 20 18  1  0
 21 20  1  0
 22 23  1  0
 22 21  1  0
 24 23  1  1
 24 26  1  0
 24 25  1  0
 26 28  1  0
 27 26  2  0
M  END
$$$$
