ATP.pdb
     RDKit          3D

 20 20  0  0  1  0  0  0  0  0999 V2000
   10.0572  -12.3854   19.7045 C   0  0  0  0  0  0  0  0  0  0  0  0
    9.1587  -13.5760   19.4686 C   0  0  2  0  0  0  0  0  0  0  0  0
    8.4567  -13.3747   18.2344 N   0  0  0  0  0  0  0  0  0  0  0  0
    8.1982  -13.6699   20.6217 C   0  0  0  0  0  0  0  0  0  0  0  0
    7.0735  -13.1183   20.5845 O   0  0  0  0  0  0  0  0  0  0  0  0
    6.2003  -16.0107   21.7381 C   0  0  0  0  0  0  0  0  0  0  0  0
    7.0432  -15.8830   22.9681 C   0  0  1  0  0  0  0  0  0  0  0  0
    7.9945  -16.8927   23.0775 O   0  0  0  0  0  0  0  0  0  0  0  0
    7.6856  -14.5067   22.9569 C   0  0  2  0  0  0  0  0  0  0  0  0
    8.5666  -14.3973   21.7804 N   0  0  0  0  0  0  0  0  0  0  0  0
    8.3916  -14.1610   24.1832 C   0  0  0  0  0  0  0  0  0  0  0  0
    9.6437  -14.0655   24.1865 O   0  0  0  0  0  0  0  0  0  0  0  0
    7.6865  -13.9239   25.3943 N   0  0  0  0  0  0  0  0  0  0  0  0
    6.2630  -13.9362   25.6451 C   0  0  0  0  0  0  0  0  0  0  0  0
    6.0802  -12.8094   26.6543 C   0  0  0  0  0  0  0  0  0  0  0  0
    7.4351  -12.4315   27.1435 C   0  0  0  0  0  0  0  0  0  0  0  0
    8.2960  -13.5807   26.6908 C   0  0  1  0  0  0  0  0  0  0  0  0
    8.1698  -14.6783   27.6743 C   0  0  0  0  0  0  0  0  0  0  0  0
    8.6754  -14.6819   28.8246 O   0  0  0  0  0  0  0  0  0  0  0  0
    7.4381  -15.8305   27.3483 O   0  0  0  0  0  0  0  0  0  0  0  0
  2  1  1  1
  3  2  1  0
  4  2  1  0
  4  5  2  0
  7  6  1  6
  7  9  1  0
  8  7  1  0
  9 10  1  6
  9 11  1  0
 10  4  1  0
 11 13  1  0
 12 11  2  0
 13 17  1  0
 13 14  1  0
 14 15  1  0
 16 15  1  0
 17 16  1  0
 18 20  1  0
 17 18  1  1
 19 18  2  0
M  END
$$$$
