ATP.pdb
     RDKit          3D

 20 20  0  0  1  0  0  0  0  0999 V2000
   10.8347  -13.0930   19.6878 C   0  0  0  0  0  0  0  0  0  0  0  0
    9.5506  -13.8223   19.3722 C   0  0  2  0  0  0  0  0  0  0  0  0
    8.9879  -13.2524   18.1825 N   0  0  0  0  0  0  0  0  0  0  0  0
    8.6191  -13.6514   20.5401 C   0  0  0  0  0  0  0  0  0  0  0  0
    7.8870  -12.6404   20.6522 O   0  0  0  0  0  0  0  0  0  0  0  0
    5.9111  -15.7604   21.6031 C   0  0  0  0  0  0  0  0  0  0  0  0
    6.7981  -15.7567   22.8085 C   0  0  1  0  0  0  0  0  0  0  0  0
    7.5368  -16.9288   22.9385 O   0  0  0  0  0  0  0  0  0  0  0  0
    7.6960  -14.5344   22.7274 C   0  0  2  0  0  0  0  0  0  0  0  0
    8.5624  -14.6526   21.5410 N   0  0  0  0  0  0  0  0  0  0  0  0
    8.4756  -14.2782   23.9310 C   0  0  0  0  0  0  0  0  0  0  0  0
    9.7292  -14.3443   23.8985 O   0  0  0  0  0  0  0  0  0  0  0  0
    7.8419  -13.9487   25.1598 N   0  0  0  0  0  0  0  0  0  0  0  0
    6.4336  -13.8317   25.4638 C   0  0  0  0  0  0  0  0  0  0  0  0
    6.3873  -12.6665   26.4444 C   0  0  0  0  0  0  0  0  0  0  0  0
    7.7878  -12.3934   26.8711 C   0  0  0  0  0  0  0  0  0  0  0  0
    8.5293  -13.6243   26.4217 C   0  0  1  0  0  0  0  0  0  0  0  0
    8.3496  -14.6799   27.4421 C   0  0  0  0  0  0  0  0  0  0  0  0
    8.9109  -14.7042   28.5659 O   0  0  0  0  0  0  0  0  0  0  0  0
    7.4954  -15.7636   27.1862 O   0  0  0  0  0  0  0  0  0  0  0  0
  2  1  1  1
  3  2  1  0
  4  2  1  0
  4  5  2  0
  7  6  1  6
  7  9  1  0
  8  7  1  0
  9 10  1  6
  9 11  1  0
 10  4  1  0
 11 13  1  0
 12 11  2  0
 13 17  1  0
 13 14  1  0
 14 15  1  0
 16 15  1  0
 17 16  1  0
 18 20  1  0
 17 18  1  1
 19 18  2  0
M  END
$$$$
