ATP.pdb
     RDKit          3D

 20 20  0  0  1  0  0  0  0  0999 V2000
    8.7566  -12.2545   19.4130 C   0  0  0  0  0  0  0  0  0  0  0  0
    8.5442  -13.7485   19.4710 C   0  0  2  0  0  0  0  0  0  0  0  0
    7.8401  -14.1510   18.2882 N   0  0  0  0  0  0  0  0  0  0  0  0
    7.7401  -14.0567   20.7036 C   0  0  0  0  0  0  0  0  0  0  0  0
    6.5002  -13.8777   20.7392 O   0  0  0  0  0  0  0  0  0  0  0  0
    6.5746  -16.7141   22.1205 C   0  0  0  0  0  0  0  0  0  0  0  0
    7.4089  -16.2745   23.2826 C   0  0  1  0  0  0  0  0  0  0  0  0
    8.5867  -17.0049   23.4082 O   0  0  0  0  0  0  0  0  0  0  0  0
    7.6847  -14.7889   23.1279 C   0  0  2  0  0  0  0  0  0  0  0  0
    8.3928  -14.5617   21.8554 N   0  0  0  0  0  0  0  0  0  0  0  0
    8.3978  -14.1884   24.2472 C   0  0  0  0  0  0  0  0  0  0  0  0
    9.6163  -13.9040   24.1412 O   0  0  0  0  0  0  0  0  0  0  0  0
    7.7371  -13.9109   25.4746 N   0  0  0  0  0  0  0  0  0  0  0  0
    6.3498  -14.1004   25.8335 C   0  0  0  0  0  0  0  0  0  0  0  0
    6.0552  -12.8979   26.7215 C   0  0  0  0  0  0  0  0  0  0  0  0
    7.3621  -12.2691   27.0602 C   0  0  0  0  0  0  0  0  0  0  0  0
    8.3616  -13.3268   26.6741 C   0  0  1  0  0  0  0  0  0  0  0  0
    8.4643  -14.3027   27.7809 C   0  0  0  0  0  0  0  0  0  0  0  0
    8.9740  -14.0714   28.9058 O   0  0  0  0  0  0  0  0  0  0  0  0
    7.9688  -15.6051   27.6148 O   0  0  0  0  0  0  0  0  0  0  0  0
  2  1  1  6
  3  2  1  0
  4  2  1  0
  4  5  2  0
  7  6  1  6
  7  9  1  0
  8  7  1  0
  9 10  1  6
  9 11  1  0
 10  4  1  0
 11 13  1  0
 12 11  2  0
 13 17  1  0
 13 14  1  0
 14 15  1  0
 16 15  1  0
 17 16  1  0
 18 20  1  0
 17 18  1  1
 19 18  2  0
M  END
$$$$
