ATP.pdb
     RDKit          3D

 20 20  0  0  1  0  0  0  0  0999 V2000
   11.5269  -18.2901   22.0922 C   0  0  0  0  0  0  0  0  0  0  0  0
   11.1982  -17.1667   21.1380 C   0  0  2  0  0  0  0  0  0  0  0  0
   12.4158  -16.7279   20.5202 N   0  0  0  0  0  0  0  0  0  0  0  0
   10.5679  -16.0538   21.9288 C   0  0  0  0  0  0  0  0  0  0  0  0
   11.2595  -15.2561   22.6039 O   0  0  0  0  0  0  0  0  0  0  0  0
    7.2285  -14.0139   20.7827 C   0  0  0  0  0  0  0  0  0  0  0  0
    7.0823  -14.6424   22.1330 C   0  0  1  0  0  0  0  0  0  0  0  0
    6.3505  -15.8255   22.1011 O   0  0  0  0  0  0  0  0  0  0  0  0
    8.4731  -14.8590   22.7036 C   0  0  2  0  0  0  0  0  0  0  0  0
    9.1597  -15.8975   21.9149 N   0  0  0  0  0  0  0  0  0  0  0  0
    8.4993  -15.1688   24.1268 C   0  0  0  0  0  0  0  0  0  0  0  0
    9.2979  -16.0295   24.5720 O   0  0  0  0  0  0  0  0  0  0  0  0
    7.6303  -14.5091   25.0378 N   0  0  0  0  0  0  0  0  0  0  0  0
    6.6305  -13.4967   24.7830 C   0  0  0  0  0  0  0  0  0  0  0  0
    6.7355  -12.5922   26.0046 C   0  0  0  0  0  0  0  0  0  0  0  0
    7.5641  -13.3085   27.0138 C   0  0  0  0  0  0  0  0  0  0  0  0
    7.5904  -14.7216   26.4949 C   0  0  1  0  0  0  0  0  0  0  0  0
    6.3504  -15.4035   26.9254 C   0  0  0  0  0  0  0  0  0  0  0  0
    6.1082  -15.7968   28.0938 O   0  0  0  0  0  0  0  0  0  0  0  0
    5.3307  -15.6563   25.9949 O   0  0  0  0  0  0  0  0  0  0  0  0
  2  1  1  1
  3  2  1  0
  4  2  1  0
  4  5  2  0
  7  6  1  6
  7  9  1  0
  8  7  1  0
  9 10  1  6
  9 11  1  0
 10  4  1  0
 11 13  1  0
 12 11  2  0
 13 17  1  0
 13 14  1  0
 14 15  1  0
 16 15  1  0
 17 16  1  0
 18 20  1  0
 17 18  1  6
 19 18  2  0
M  END
$$$$
