ATP.pdb
     RDKit          3D

 20 20  0  0  1  0  0  0  0  0999 V2000
   10.9298  -13.0465   19.7673 C   0  0  0  0  0  0  0  0  0  0  0  0
    9.6258  -13.7244   19.4199 C   0  0  2  0  0  0  0  0  0  0  0  0
    9.0801  -13.0857   18.2577 N   0  0  0  0  0  0  0  0  0  0  0  0
    8.6989  -13.5802   20.5951 C   0  0  0  0  0  0  0  0  0  0  0  0
    7.9987  -12.5532   20.7555 O   0  0  0  0  0  0  0  0  0  0  0  0
    6.0417  -15.8754   21.5723 C   0  0  0  0  0  0  0  0  0  0  0  0
    6.8890  -15.8079   22.8041 C   0  0  1  0  0  0  0  0  0  0  0  0
    7.6778  -16.9409   22.9792 O   0  0  0  0  0  0  0  0  0  0  0  0
    7.7304  -14.5458   22.7272 C   0  0  2  0  0  0  0  0  0  0  0  0
    8.6097  -14.6258   21.5471 N   0  0  0  0  0  0  0  0  0  0  0  0
    8.4887  -14.2523   23.9358 C   0  0  0  0  0  0  0  0  0  0  0  0
    9.7442  -14.2692   23.9143 O   0  0  0  0  0  0  0  0  0  0  0  0
    7.8318  -13.9409   25.1571 N   0  0  0  0  0  0  0  0  0  0  0  0
    6.4290  -13.7003   25.4094 C   0  0  0  0  0  0  0  0  0  0  0  0
    6.4512  -12.6035   26.4668 C   0  0  0  0  0  0  0  0  0  0  0  0
    7.8495  -12.5041   26.9698 C   0  0  0  0  0  0  0  0  0  0  0  0
    8.4858  -13.7724   26.4663 C   0  0  1  0  0  0  0  0  0  0  0  0
    8.1524  -14.8688   27.4016 C   0  0  0  0  0  0  0  0  0  0  0  0
    7.2647  -15.7376   27.2123 O   0  0  0  0  0  0  0  0  0  0  0  0
    8.8526  -14.9951   28.6112 O   0  0  0  0  0  0  0  0  0  0  0  0
  2  1  1  1
  3  2  1  0
  4  2  1  0
  4  5  2  0
  7  6  1  6
  7  9  1  0
  8  7  1  0
  9 10  1  6
  9 11  1  0
 10  4  1  0
 11 13  1  0
 12 11  2  0
 13 17  1  0
 13 14  1  0
 14 15  1  0
 16 15  1  0
 17 16  1  0
 18 20  1  0
 17 18  1  1
 19 18  2  0
M  END
$$$$
