ATP.pdb
     RDKit          3D

 20 20  0  0  1  0  0  0  0  0999 V2000
   12.3550  -17.1907   20.6741 C   0  0  0  0  0  0  0  0  0  0  0  0
   11.9924  -15.9233   19.9374 C   0  0  2  0  0  0  0  0  0  0  0  0
   13.2051  -15.2544   19.5652 N   0  0  0  0  0  0  0  0  0  0  0  0
   11.1705  -15.0673   20.8608 C   0  0  0  0  0  0  0  0  0  0  0  0
   11.7066  -14.2995   21.6937 O   0  0  0  0  0  0  0  0  0  0  0  0
    7.7905  -13.0233   19.9730 C   0  0  0  0  0  0  0  0  0  0  0  0
    7.5655  -14.0797   21.0089 C   0  0  1  0  0  0  0  0  0  0  0  0
    7.0147  -15.2438   20.4817 O   0  0  0  0  0  0  0  0  0  0  0  0
    8.8907  -14.3500   21.7001 C   0  0  2  0  0  0  0  0  0  0  0  0
    9.7563  -15.1248   20.7931 N   0  0  0  0  0  0  0  0  0  0  0  0
    8.7717  -14.9951   23.0007 C   0  0  0  0  0  0  0  0  0  0  0  0
    9.5859  -15.8888   23.3401 O   0  0  0  0  0  0  0  0  0  0  0  0
    7.7414  -14.6305   23.9094 N   0  0  0  0  0  0  0  0  0  0  0  0
    6.6552  -13.6924   23.7372 C   0  0  0  0  0  0  0  0  0  0  0  0
    6.5253  -13.0573   25.1160 C   0  0  0  0  0  0  0  0  0  0  0  0
    7.3305  -13.8821   26.0591 C   0  0  0  0  0  0  0  0  0  0  0  0
    7.5823  -15.1457   25.2803 C   0  0  1  0  0  0  0  0  0  0  0  0
    6.3987  -16.0230   25.4126 C   0  0  0  0  0  0  0  0  0  0  0  0
    5.5349  -16.2136   24.5203 O   0  0  0  0  0  0  0  0  0  0  0  0
    6.1747  -16.7217   26.6088 O   0  0  0  0  0  0  0  0  0  0  0  0
  2  1  1  1
  3  2  1  0
  4  2  1  0
  4  5  2  0
  7  6  1  6
  7  9  1  0
  8  7  1  0
  9 10  1  6
  9 11  1  0
 10  4  1  0
 11 13  1  0
 12 11  2  0
 13 17  1  0
 13 14  1  0
 14 15  1  0
 16 15  1  0
 17 16  1  0
 18 20  1  0
 17 18  1  6
 19 18  2  0
M  END
$$$$
