ATP.pdb
     RDKit          3D

 20 20  0  0  1  0  0  0  0  0999 V2000
   11.6777  -18.3941   22.3698 C   0  0  0  0  0  0  0  0  0  0  0  0
   11.2057  -17.3932   21.3422 C   0  0  2  0  0  0  0  0  0  0  0  0
   12.3322  -16.9939   20.5497 N   0  0  0  0  0  0  0  0  0  0  0  0
   10.6211  -16.2163   22.0731 C   0  0  0  0  0  0  0  0  0  0  0  0
   11.3468  -15.3999   22.6873 O   0  0  0  0  0  0  0  0  0  0  0  0
    7.5358  -13.8609   20.9447 C   0  0  0  0  0  0  0  0  0  0  0  0
    7.2439  -14.5979   22.2141 C   0  0  1  0  0  0  0  0  0  0  0  0
    6.4465  -15.7209   22.0149 O   0  0  0  0  0  0  0  0  0  0  0  0
    8.5687  -14.9593   22.8630 C   0  0  2  0  0  0  0  0  0  0  0  0
    9.2179  -16.0197   22.0716 N   0  0  0  0  0  0  0  0  0  0  0  0
    8.4704  -15.3301   24.2683 C   0  0  0  0  0  0  0  0  0  0  0  0
    9.0145  -16.3827   24.6841 O   0  0  0  0  0  0  0  0  0  0  0  0
    7.7639  -14.5159   25.1946 N   0  0  0  0  0  0  0  0  0  0  0  0
    7.0746  -13.2641   24.9770 C   0  0  0  0  0  0  0  0  0  0  0  0
    7.3575  -12.4869   26.2566 C   0  0  0  0  0  0  0  0  0  0  0  0
    7.9254  -13.4496   27.2409 C   0  0  0  0  0  0  0  0  0  0  0  0
    7.6056  -14.7896   26.6334 C   0  0  1  0  0  0  0  0  0  0  0  0
    6.2130  -15.1441   26.9838 C   0  0  0  0  0  0  0  0  0  0  0  0
    5.2100  -14.9497   26.2524 O   0  0  0  0  0  0  0  0  0  0  0  0
    5.9334  -15.7480   28.2194 O   0  0  0  0  0  0  0  0  0  0  0  0
  2  1  1  1
  3  2  1  0
  4  2  1  0
  4  5  2  0
  7  6  1  6
  7  9  1  0
  8  7  1  0
  9 10  1  6
  9 11  1  0
 10  4  1  0
 11 13  1  0
 12 11  2  0
 13 17  1  0
 13 14  1  0
 14 15  1  0
 16 15  1  0
 17 16  1  0
 18 20  1  0
 17 18  1  6
 19 18  2  0
M  END
$$$$
