ATP.pdb
     RDKit          3D

 20 20  0  0  1  0  0  0  0  0999 V2000
    8.5264  -12.5007   19.3808 C   0  0  0  0  0  0  0  0  0  0  0  0
    8.3640  -13.9857   19.6017 C   0  0  2  0  0  0  0  0  0  0  0  0
    7.5986  -14.5232   18.5145 N   0  0  0  0  0  0  0  0  0  0  0  0
    7.6500  -14.1863   20.9098 C   0  0  0  0  0  0  0  0  0  0  0  0
    6.4208  -13.9710   21.0254 O   0  0  0  0  0  0  0  0  0  0  0  0
    6.8516  -16.8364   24.6470 C   0  0  0  0  0  0  0  0  0  0  0  0
    7.4296  -16.4792   23.3136 C   0  0  1  0  0  0  0  0  0  0  0  0
    6.6053  -16.8432   22.2532 O   0  0  0  0  0  0  0  0  0  0  0  0
    7.7202  -14.9884   23.3114 C   0  0  2  0  0  0  0  0  0  0  0  0
    8.3775  -14.6290   22.0422 N   0  0  0  0  0  0  0  0  0  0  0  0
    8.4883  -14.5222   24.4580 C   0  0  0  0  0  0  0  0  0  0  0  0
    9.7392  -14.4370   24.3887 O   0  0  0  0  0  0  0  0  0  0  0  0
    7.8460  -14.1544   25.6714 N   0  0  0  0  0  0  0  0  0  0  0  0
    6.4496  -14.2433   26.0343 C   0  0  0  0  0  0  0  0  0  0  0  0
    6.2297  -12.9894   26.8714 C   0  0  0  0  0  0  0  0  0  0  0  0
    7.5728  -12.4288   27.1873 C   0  0  0  0  0  0  0  0  0  0  0  0
    8.5053  -13.5609   26.8474 C   0  0  1  0  0  0  0  0  0  0  0  0
    8.5477  -14.4950   27.9936 C   0  0  0  0  0  0  0  0  0  0  0  0
    9.1228  -14.2726   29.0884 O   0  0  0  0  0  0  0  0  0  0  0  0
    7.9114  -15.7426   27.9046 O   0  0  0  0  0  0  0  0  0  0  0  0
  2  1  1  6
  3  2  1  0
  4  2  1  0
  4  5  2  0
  7  6  1  1
  7  9  1  0
  8  7  1  0
  9 10  1  6
  9 11  1  0
 10  4  1  0
 11 13  1  0
 12 11  2  0
 13 17  1  0
 13 14  1  0
 14 15  1  0
 16 15  1  0
 17 16  1  0
 18 20  1  0
 17 18  1  1
 19 18  2  0
M  END
$$$$
