ATP.pdb
     RDKit          3D

 20 20  0  0  1  0  0  0  0  0999 V2000
   11.8032  -18.2100   22.3613 C   0  0  0  0  0  0  0  0  0  0  0  0
   11.3760  -17.1617   21.3617 C   0  0  2  0  0  0  0  0  0  0  0  0
   12.5423  -16.6953   20.6698 N   0  0  0  0  0  0  0  0  0  0  0  0
   10.7169  -16.0404   22.1163 C   0  0  0  0  0  0  0  0  0  0  0  0
   11.3888  -15.1889   22.7439 O   0  0  0  0  0  0  0  0  0  0  0  0
    7.3085  -13.9825   21.0412 C   0  0  0  0  0  0  0  0  0  0  0  0
    7.1932  -14.7373   22.3283 C   0  0  1  0  0  0  0  0  0  0  0  0
    6.5451  -15.9598   22.1807 O   0  0  0  0  0  0  0  0  0  0  0  0
    8.5902  -14.9090   22.8993 C   0  0  2  0  0  0  0  0  0  0  0  0
    9.3037  -15.9381   22.1221 N   0  0  0  0  0  0  0  0  0  0  0  0
    8.6266  -15.2006   24.3260 C   0  0  0  0  0  0  0  0  0  0  0  0
    9.4626  -16.0186   24.7831 O   0  0  0  0  0  0  0  0  0  0  0  0
    7.7260  -14.5707   25.2273 N   0  0  0  0  0  0  0  0  0  0  0  0
    6.6614  -13.6316   24.9546 C   0  0  0  0  0  0  0  0  0  0  0  0
    6.7201  -12.6866   26.1484 C   0  0  0  0  0  0  0  0  0  0  0  0
    7.6020  -13.3189   27.1684 C   0  0  0  0  0  0  0  0  0  0  0  0
    7.7134  -14.7422   26.6903 C   0  0  1  0  0  0  0  0  0  0  0  0
    6.5234  -15.4883   27.1542 C   0  0  0  0  0  0  0  0  0  0  0  0
    5.4983  -15.7178   26.4650 O   0  0  0  0  0  0  0  0  0  0  0  0
    6.4837  -16.0026   28.4593 O   0  0  0  0  0  0  0  0  0  0  0  0
  2  1  1  1
  3  2  1  0
  4  2  1  0
  4  5  2  0
  7  6  1  6
  7  9  1  0
  8  7  1  0
  9 10  1  6
  9 11  1  0
 10  4  1  0
 11 13  1  0
 12 11  2  0
 13 17  1  0
 13 14  1  0
 14 15  1  0
 16 15  1  0
 17 16  1  0
 18 20  1  0
 17 18  1  6
 19 18  2  0
M  END
$$$$
