ATP.pdb
     RDKit          3D

 20 20  0  0  1  0  0  0  0  0999 V2000
   12.8936  -16.5525   20.5259 C   0  0  0  0  0  0  0  0  0  0  0  0
   12.3716  -15.4206   19.6734 C   0  0  2  0  0  0  0  0  0  0  0  0
   13.4893  -14.6485   19.2137 N   0  0  0  0  0  0  0  0  0  0  0  0
   11.4551  -14.5833   20.5219 C   0  0  0  0  0  0  0  0  0  0  0  0
   11.8982  -13.6875   21.2780 O   0  0  0  0  0  0  0  0  0  0  0  0
    7.9345  -12.9877   19.5475 C   0  0  0  0  0  0  0  0  0  0  0  0
    7.7741  -13.9753   20.6604 C   0  0  1  0  0  0  0  0  0  0  0  0
    7.2954  -15.2069   20.2240 O   0  0  0  0  0  0  0  0  0  0  0  0
    9.1131  -14.1120   21.3641 C   0  0  2  0  0  0  0  0  0  0  0  0
   10.0569  -14.8068   20.4703 N   0  0  0  0  0  0  0  0  0  0  0  0
    9.0454  -14.7559   22.6690 C   0  0  0  0  0  0  0  0  0  0  0  0
    9.9326  -15.5734   23.0176 O   0  0  0  0  0  0  0  0  0  0  0  0
    7.9839  -14.4757   23.5716 N   0  0  0  0  0  0  0  0  0  0  0  0
    6.8917  -13.5378   23.4413 C   0  0  0  0  0  0  0  0  0  0  0  0
    6.7126  -13.0164   24.8617 C   0  0  0  0  0  0  0  0  0  0  0  0
    7.4995  -13.9058   25.7605 C   0  0  0  0  0  0  0  0  0  0  0  0
    7.7903  -15.1005   24.8916 C   0  0  1  0  0  0  0  0  0  0  0  0
    6.6144  -15.9975   24.9170 C   0  0  0  0  0  0  0  0  0  0  0  0
    6.2349  -16.6663   25.9106 O   0  0  0  0  0  0  0  0  0  0  0  0
    5.8250  -16.1505   23.7669 O   0  0  0  0  0  0  0  0  0  0  0  0
  2  1  1  1
  3  2  1  0
  4  2  1  0
  4  5  2  0
  7  6  1  6
  7  9  1  0
  8  7  1  0
  9 10  1  6
  9 11  1  0
 10  4  1  0
 11 13  1  0
 12 11  2  0
 13 17  1  0
 13 14  1  0
 14 15  1  0
 16 15  1  0
 17 16  1  0
 18 20  1  0
 17 18  1  6
 19 18  2  0
M  END
$$$$
