ATP.pdb
     RDKit          3D

 20 20  0  0  1  0  0  0  0  0999 V2000
   12.9588  -16.4926   20.0052 C   0  0  0  0  0  0  0  0  0  0  0  0
   12.4377  -15.2507   19.3220 C   0  0  2  0  0  0  0  0  0  0  0  0
   13.5575  -14.4330   18.9558 N   0  0  0  0  0  0  0  0  0  0  0  0
   11.5412  -14.5287   20.2894 C   0  0  0  0  0  0  0  0  0  0  0  0
   12.0051  -13.7663   21.1692 O   0  0  0  0  0  0  0  0  0  0  0  0
    8.0735  -12.7405   19.4743 C   0  0  0  0  0  0  0  0  0  0  0  0
    7.8779  -13.8377   20.4730 C   0  0  1  0  0  0  0  0  0  0  0  0
    7.3718  -15.0021   19.9033 O   0  0  0  0  0  0  0  0  0  0  0  0
    9.2066  -14.0847   21.1662 C   0  0  2  0  0  0  0  0  0  0  0  0
   10.1381  -14.7099   20.2104 N   0  0  0  0  0  0  0  0  0  0  0  0
    9.1099  -14.8581   22.3969 C   0  0  0  0  0  0  0  0  0  0  0  0
    9.9537  -15.7532   22.6491 O   0  0  0  0  0  0  0  0  0  0  0  0
    8.0683  -14.6193   23.3341 N   0  0  0  0  0  0  0  0  0  0  0  0
    6.9681  -13.6843   23.2651 C   0  0  0  0  0  0  0  0  0  0  0  0
    6.8197  -13.2183   24.7081 C   0  0  0  0  0  0  0  0  0  0  0  0
    7.6325  -14.1361   25.5537 C   0  0  0  0  0  0  0  0  0  0  0  0
    7.9095  -15.2950   24.6334 C   0  0  1  0  0  0  0  0  0  0  0  0
    6.7396  -16.1999   24.6521 C   0  0  0  0  0  0  0  0  0  0  0  0
    6.3686  -16.8840   25.6385 O   0  0  0  0  0  0  0  0  0  0  0  0
    5.9463  -16.3433   23.5034 O   0  0  0  0  0  0  0  0  0  0  0  0
  2  1  1  1
  3  2  1  0
  4  2  1  0
  4  5  2  0
  7  6  1  6
  7  9  1  0
  8  7  1  0
  9 10  1  6
  9 11  1  0
 10  4  1  0
 11 13  1  0
 12 11  2  0
 13 17  1  0
 13 14  1  0
 14 15  1  0
 16 15  1  0
 17 16  1  0
 18 20  1  0
 17 18  1  6
 19 18  2  0
M  END
$$$$
