ATP.pdb
     RDKit          3D

 20 20  0  0  1  0  0  0  0  0999 V2000
   11.8259  -18.2013   21.3839 C   0  0  0  0  0  0  0  0  0  0  0  0
   11.6090  -16.9606   20.5508 C   0  0  2  0  0  0  0  0  0  0  0  0
   12.8886  -16.4724   20.1256 N   0  0  0  0  0  0  0  0  0  0  0  0
   10.9049  -15.9433   21.4055 C   0  0  0  0  0  0  0  0  0  0  0  0
   11.5416  -15.1054   22.0859 O   0  0  0  0  0  0  0  0  0  0  0  0
    7.6838  -13.7373   20.3709 C   0  0  0  0  0  0  0  0  0  0  0  0
    7.4143  -14.6496   21.5262 C   0  0  1  0  0  0  0  0  0  0  0  0
    6.7775  -15.8273   21.1466 O   0  0  0  0  0  0  0  0  0  0  0  0
    8.7344  -14.9263   22.2245 C   0  0  2  0  0  0  0  0  0  0  0  0
    9.4887  -15.9259   21.4474 N   0  0  0  0  0  0  0  0  0  0  0  0
    8.6064  -15.3246   23.6199 C   0  0  0  0  0  0  0  0  0  0  0  0
    9.4090  -16.1523   24.1174 O   0  0  0  0  0  0  0  0  0  0  0  0
    7.5801  -14.7895   24.4448 N   0  0  0  0  0  0  0  0  0  0  0  0
    6.5356  -13.8462   24.1149 C   0  0  0  0  0  0  0  0  0  0  0  0
    6.4139  -13.0085   25.3818 C   0  0  0  0  0  0  0  0  0  0  0  0
    7.1721  -13.7143   26.4518 C   0  0  0  0  0  0  0  0  0  0  0  0
    7.3821  -15.0885   25.8736 C   0  0  1  0  0  0  0  0  0  0  0  0
    6.1620  -15.8900   26.1118 C   0  0  0  0  0  0  0  0  0  0  0  0
    5.2757  -16.1324   25.2548 O   0  0  0  0  0  0  0  0  0  0  0  0
    5.9260  -16.4475   27.3779 O   0  0  0  0  0  0  0  0  0  0  0  0
  2  1  1  1
  3  2  1  0
  4  2  1  0
  4  5  2  0
  7  6  1  6
  7  9  1  0
  8  7  1  0
  9 10  1  6
  9 11  1  0
 10  4  1  0
 11 13  1  0
 12 11  2  0
 13 17  1  0
 13 14  1  0
 14 15  1  0
 16 15  1  0
 17 16  1  0
 18 20  1  0
 17 18  1  6
 19 18  2  0
M  END
$$$$
