ATP.pdb
     RDKit          3D

 20 20  0  0  1  0  0  0  0  0999 V2000
   11.3647  -18.4083   17.2473 C   0  0  0  0  0  0  0  0  0  0  0  0
   11.6549  -16.9667   16.9033 C   0  0  2  0  0  0  0  0  0  0  0  0
   13.0724  -16.8165   16.7454 N   0  0  0  0  0  0  0  0  0  0  0  0
   11.1477  -16.1085   18.0291 C   0  0  0  0  0  0  0  0  0  0  0  0
   11.8432  -15.8847   19.0473 O   0  0  0  0  0  0  0  0  0  0  0  0
    7.6239  -13.0154   19.5553 C   0  0  0  0  0  0  0  0  0  0  0  0
    8.0464  -14.0062   18.5164 C   0  0  1  0  0  0  0  0  0  0  0  0
    8.2892  -13.4194   17.2782 O   0  0  0  0  0  0  0  0  0  0  0  0
    9.2691  -14.7412   19.0376 C   0  0  2  0  0  0  0  0  0  0  0  0
    9.8544  -15.5363   17.9433 N   0  0  0  0  0  0  0  0  0  0  0  0
    9.0228  -15.5606   20.2166 C   0  0  0  0  0  0  0  0  0  0  0  0
    9.2993  -16.7854   20.2044 O   0  0  0  0  0  0  0  0  0  0  0  0
    8.4700  -14.9981   21.3991 N   0  0  0  0  0  0  0  0  0  0  0  0
    7.9477  -13.6695   21.6262 C   0  0  0  0  0  0  0  0  0  0  0  0
    8.3836  -13.3664   23.0543 C   0  0  0  0  0  0  0  0  0  0  0  0
    8.8554  -14.6461   23.6525 C   0  0  0  0  0  0  0  0  0  0  0  0
    8.3339  -15.6847   22.6953 C   0  0  1  0  0  0  0  0  0  0  0  0
    6.9213  -15.9665   23.0315 C   0  0  0  0  0  0  0  0  0  0  0  0
    5.9263  -15.5487   22.3881 O   0  0  0  0  0  0  0  0  0  0  0  0
    6.6114  -16.7583   24.1479 O   0  0  0  0  0  0  0  0  0  0  0  0
  2  1  1  1
  3  2  1  0
  4  2  1  0
  4  5  2  0
  7  6  1  1
  7  9  1  0
  8  7  1  0
  9 10  1  6
  9 11  1  0
 10  4  1  0
 11 13  1  0
 12 11  2  0
 13 17  1  0
 13 14  1  0
 14 15  1  0
 16 15  1  0
 17 16  1  0
 18 20  1  0
 17 18  1  1
 19 18  2  0
M  END
$$$$
