CTQ.pdb
     RDKit          3D

 23 22  0  0  1  0  0  0  0  0999 V2000
   24.0950  -20.6774  -14.3805 N   0  0  0  0  0  0  0  0  0  0  0  0
   23.4799  -19.9140  -15.4850 C   0  0  1  0  0  0  0  0  0  0  0  0
   22.0570  -20.3661  -15.5405 C   0  0  0  0  0  0  0  0  0  0  0  0
   21.9554  -22.1444  -15.7186 S   0  0  0  0  0  0  0  0  0  0  0  0
   23.6565  -18.4844  -15.2093 C   0  0  0  0  0  0  0  0  0  0  0  0
   23.3284  -18.0369  -14.0740 O   0  0  0  0  0  0  0  0  0  0  0  0
   26.3170  -16.2686  -14.5451 C   0  0  0  0  0  0  0  0  0  0  0  0
   25.6812  -15.6143  -15.7585 C   0  0  1  0  0  0  0  0  0  0  0  0
   26.4001  -15.7978  -16.9031 O   0  0  0  0  0  0  0  0  0  0  0  0
   24.2584  -16.1271  -15.8318 C   0  0  2  0  0  0  0  0  0  0  0  0
   24.1816  -17.5235  -16.1282 N   0  0  0  0  0  0  0  0  0  0  0  0
   23.4024  -15.2575  -16.6653 C   0  0  0  0  0  0  0  0  0  0  0  0
   22.9776  -15.7246  -17.7766 O   0  0  0  0  0  0  0  0  0  0  0  0
   18.5900  -12.3801  -15.2181 N   0  0  0  0  0  0  0  0  0  0  0  0
   18.6607  -11.7939  -16.5177 C   0  0  0  0  0  0  0  0  0  0  0  0
   17.7096  -11.0794  -16.9142 O   0  0  0  0  0  0  0  0  0  0  0  0
   19.8795  -12.0835  -17.3114 C   0  0  0  0  0  0  0  0  0  0  0  0
   20.8464  -12.9732  -16.6061 C   0  0  0  0  0  0  0  0  0  0  0  0
   22.1685  -13.1505  -17.2874 C   0  0  2  0  0  0  0  0  0  0  0  0
   22.9974  -13.9465  -16.3615 N   0  0  0  0  0  0  0  0  0  0  0  0
   22.8122  -11.8180  -17.4260 C   0  0  0  0  0  0  0  0  0  0  0  0
   23.8553  -11.3954  -16.6243 O   0  0  0  0  0  0  0  0  0  0  0  0
   22.4192  -10.9940  -18.3087 O   0  0  0  0  0  0  0  0  0  0  0  0
  2  1  1  1
  2  3  1  0
  2  5  1  0
  3  4  1  0
  5  6  2  0
  5 11  1  0
  8  7  1  1
  8 10  1  0
  8  9  1  0
 10 12  1  0
 10 11  1  6
 12 20  1  0
 12 13  2  0
 14 15  1  0
 15 16  2  0
 17 15  1  0
 17 18  1  0
 19 18  1  1
 19 21  1  0
 20 19  1  0
 21 22  1  0
 23 21  2  0
M  END
$$$$
