CTQ.pdb
     RDKit          3D

 23 22  0  0  1  0  0  0  0  0999 V2000
   23.0010  -15.2599  -19.6774 N   0  0  0  0  0  0  0  0  0  0  0  0
   22.2296  -14.0554  -20.0451 C   0  0  1  0  0  0  0  0  0  0  0  0
   20.7931  -14.4423  -19.9073 C   0  0  0  0  0  0  0  0  0  0  0  0
   20.2269  -15.3325  -21.3535 S   0  0  0  0  0  0  0  0  0  0  0  0
   22.6526  -12.9551  -19.1726 C   0  0  0  0  0  0  0  0  0  0  0  0
   22.7685  -13.1697  -17.9326 O   0  0  0  0  0  0  0  0  0  0  0  0
   25.7045  -10.8160  -19.6193 C   0  0  0  0  0  0  0  0  0  0  0  0
   24.5975   -9.8229  -19.3145 C   0  0  1  0  0  0  0  0  0  0  0  0
   24.2495   -9.0626  -20.3921 O   0  0  0  0  0  0  0  0  0  0  0  0
   23.4530  -10.6179  -18.7219 C   0  0  2  0  0  0  0  0  0  0  0  0
   22.9568  -11.6269  -19.6047 N   0  0  0  0  0  0  0  0  0  0  0  0
   22.4245   -9.7404  -18.1253 C   0  0  0  0  0  0  0  0  0  0  0  0
   21.3666   -9.5112  -18.8049 O   0  0  0  0  0  0  0  0  0  0  0  0
   20.1945   -9.5745  -12.6379 N   0  0  0  0  0  0  0  0  0  0  0  0
   19.5278   -8.3949  -13.0871 C   0  0  0  0  0  0  0  0  0  0  0  0
   18.6325   -7.8920  -12.3675 O   0  0  0  0  0  0  0  0  0  0  0  0
   19.9568   -7.8477  -14.3969 C   0  0  0  0  0  0  0  0  0  0  0  0
   20.9902   -8.6814  -15.0759 C   0  0  0  0  0  0  0  0  0  0  0  0
   21.4470   -8.1753  -16.4096 C   0  0  2  0  0  0  0  0  0  0  0  0
   22.4858   -9.1188  -16.8664 N   0  0  0  0  0  0  0  0  0  0  0  0
   22.1007   -6.8545  -16.2162 C   0  0  0  0  0  0  0  0  0  0  0  0
   21.3946   -5.6749  -16.0765 O   0  0  0  0  0  0  0  0  0  0  0  0
   23.3658   -6.7548  -16.1710 O   0  0  0  0  0  0  0  0  0  0  0  0
  2  1  1  1
  2  3  1  0
  2  5  1  0
  3  4  1  0
  5  6  2  0
  5 11  1  0
  8  7  1  6
  8 10  1  0
  8  9  1  0
 10 12  1  0
 10 11  1  6
 12 20  1  0
 12 13  2  0
 14 15  1  0
 15 16  2  0
 17 15  1  0
 17 18  1  0
 19 18  1  1
 19 21  1  0
 20 19  1  0
 21 22  1  0
 23 21  2  0
M  END
$$$$
