CTQ.pdb
     RDKit          3D

 23 22  0  0  1  0  0  0  0  0999 V2000
   21.2077  -14.5687  -17.5360 N   0  0  0  0  0  0  0  0  0  0  0  0
   21.9144  -13.7163  -16.5588 C   0  0  1  0  0  0  0  0  0  0  0  0
   23.3295  -14.1955  -16.5589 C   0  0  0  0  0  0  0  0  0  0  0  0
   24.3270  -13.2504  -15.4117 S   0  0  0  0  0  0  0  0  0  0  0  0
   21.7430  -12.3166  -16.9618 C   0  0  0  0  0  0  0  0  0  0  0  0
   22.0215  -11.9851  -18.1489 O   0  0  0  0  0  0  0  0  0  0  0  0
   19.0333  -10.4536  -17.7739 C   0  0  0  0  0  0  0  0  0  0  0  0
   19.6225   -9.5469  -16.7084 C   0  0  1  0  0  0  0  0  0  0  0  0
   18.9297   -9.5817  -15.5339 O   0  0  0  0  0  0  0  0  0  0  0  0
   21.0831   -9.9243  -16.5773 C   0  0  2  0  0  0  0  0  0  0  0  0
   21.2755  -11.2635  -16.1157 N   0  0  0  0  0  0  0  0  0  0  0  0
   21.8556   -8.8915  -15.8560 C   0  0  0  0  0  0  0  0  0  0  0  0
   22.2435   -9.1561  -14.6672 O   0  0  0  0  0  0  0  0  0  0  0  0
   24.5689   -3.8360  -18.1948 N   0  0  0  0  0  0  0  0  0  0  0  0
   24.8301   -3.5643  -16.8180 C   0  0  0  0  0  0  0  0  0  0  0  0
   25.4860   -2.5395  -16.5151 O   0  0  0  0  0  0  0  0  0  0  0  0
   24.2935   -4.5371  -15.8357 C   0  0  0  0  0  0  0  0  0  0  0  0
   23.5551   -5.6684  -16.4673 C   0  0  0  0  0  0  0  0  0  0  0  0
   22.9309   -6.6388  -15.5122 C   0  0  2  0  0  0  0  0  0  0  0  0
   22.2166   -7.6248  -16.3462 N   0  0  0  0  0  0  0  0  0  0  0  0
   21.9117   -5.9191  -14.7044 C   0  0  0  0  0  0  0  0  0  0  0  0
   22.1987   -5.3011  -13.5022 O   0  0  0  0  0  0  0  0  0  0  0  0
   20.7064   -5.8418  -15.0963 O   0  0  0  0  0  0  0  0  0  0  0  0
  2  1  1  6
  2  3  1  0
  2  5  1  0
  3  4  1  0
  5  6  2  0
  5 11  1  0
  8  7  1  6
  8 10  1  0
  8  9  1  0
 10 12  1  0
 10 11  1  1
 12 20  1  0
 12 13  2  0
 14 15  1  0
 15 16  2  0
 17 15  1  0
 17 18  1  0
 19 18  1  6
 19 21  1  0
 20 19  1  0
 21 22  1  0
 23 21  2  0
M  END
$$$$
