CTQ.pdb
     RDKit          3D

 23 22  0  0  1  0  0  0  0  0999 V2000
   16.3650  -14.1165  -16.8661 N   0  0  0  0  0  0  0  0  0  0  0  0
   16.9339  -13.2615  -15.8048 C   0  0  1  0  0  0  0  0  0  0  0  0
   18.2818  -13.8340  -15.5088 C   0  0  0  0  0  0  0  0  0  0  0  0
   18.1717  -15.1335  -14.2827 S   0  0  0  0  0  0  0  0  0  0  0  0
   16.9509  -11.8775  -16.2899 C   0  0  0  0  0  0  0  0  0  0  0  0
   17.4957  -11.6276  -17.4024 O   0  0  0  0  0  0  0  0  0  0  0  0
   14.8105   -9.6931  -17.8540 C   0  0  0  0  0  0  0  0  0  0  0  0
   15.1539   -8.8882  -16.6135 C   0  0  1  0  0  0  0  0  0  0  0  0
   14.1579   -8.8911  -15.6815 O   0  0  0  0  0  0  0  0  0  0  0  0
   16.4786   -9.4179  -16.1059 C   0  0  2  0  0  0  0  0  0  0  0  0
   16.3917  -10.7541  -15.6052 N   0  0  0  0  0  0  0  0  0  0  0  0
   17.1514   -8.4521  -15.2125 C   0  0  0  0  0  0  0  0  0  0  0  0
   17.0780   -8.6519  -13.9522 O   0  0  0  0  0  0  0  0  0  0  0  0
   22.5958   -6.3968  -15.1482 N   0  0  0  0  0  0  0  0  0  0  0  0
   22.1344   -5.5277  -14.1141 C   0  0  0  0  0  0  0  0  0  0  0  0
   22.9739   -4.8732  -13.4514 O   0  0  0  0  0  0  0  0  0  0  0  0
   20.6679   -5.4678  -13.9021 C   0  0  0  0  0  0  0  0  0  0  0  0
   19.9060   -6.4084  -14.7731 C   0  0  0  0  0  0  0  0  0  0  0  0
   18.4163   -6.3531  -14.6268 C   0  0  2  0  0  0  0  0  0  0  0  0
   17.8774   -7.3154  -15.6073 N   0  0  0  0  0  0  0  0  0  0  0  0
   17.9508   -5.0004  -15.0300 C   0  0  0  0  0  0  0  0  0  0  0  0
   17.9966   -3.9039  -14.1904 O   0  0  0  0  0  0  0  0  0  0  0  0
   17.4803   -4.7933  -16.1911 O   0  0  0  0  0  0  0  0  0  0  0  0
  2  1  1  6
  2  3  1  0
  2  5  1  0
  3  4  1  0
  5  6  2  0
  5 11  1  0
  8  7  1  6
  8 10  1  0
  8  9  1  0
 10 12  1  0
 10 11  1  1
 12 20  1  0
 12 13  2  0
 14 15  1  0
 15 16  2  0
 17 15  1  0
 17 18  1  0
 19 18  1  6
 19 21  1  0
 20 19  1  0
 21 22  1  0
 23 21  2  0
M  END
$$$$
