CTQ.pdb
     RDKit          3D

 23 22  0  0  1  0  0  0  0  0999 V2000
   21.2983  -19.0578  -16.5106 N   0  0  0  0  0  0  0  0  0  0  0  0
   21.8383  -17.7403  -16.1185 C   0  0  1  0  0  0  0  0  0  0  0  0
   23.2674  -17.7475  -16.5540 C   0  0  0  0  0  0  0  0  0  0  0  0
   24.2780  -18.6985  -15.4233 S   0  0  0  0  0  0  0  0  0  0  0  0
   21.0138  -16.7013  -16.7443 C   0  0  0  0  0  0  0  0  0  0  0  0
   20.9220  -16.6720  -18.0043 O   0  0  0  0  0  0  0  0  0  0  0  0
   17.6306  -16.1780  -17.2619 C   0  0  0  0  0  0  0  0  0  0  0  0
   18.0002  -14.9131  -16.5082 C   0  0  1  0  0  0  0  0  0  0  0  0
   17.6116  -14.9367  -15.2010 O   0  0  0  0  0  0  0  0  0  0  0  0
   19.4870  -14.7078  -16.7087 C   0  0  2  0  0  0  0  0  0  0  0  0
   20.2823  -15.6924  -16.0440 N   0  0  0  0  0  0  0  0  0  0  0  0
   19.8865  -13.3059  -16.4663 C   0  0  0  0  0  0  0  0  0  0  0  0
   20.5361  -13.0456  -15.3968 O   0  0  0  0  0  0  0  0  0  0  0  0
   19.2743   -8.4553  -20.3242 N   0  0  0  0  0  0  0  0  0  0  0  0
   19.8422   -7.7537  -19.2184 C   0  0  0  0  0  0  0  0  0  0  0  0
   20.0902   -6.5304  -19.3379 O   0  0  0  0  0  0  0  0  0  0  0  0
   20.0989   -8.5453  -17.9908 C   0  0  0  0  0  0  0  0  0  0  0  0
   19.7341   -9.9847  -18.1289 C   0  0  0  0  0  0  0  0  0  0  0  0
   19.9889  -10.8292  -16.9183 C   0  0  2  0  0  0  0  0  0  0  0  0
   19.6237  -12.2067  -17.3017 N   0  0  0  0  0  0  0  0  0  0  0  0
   19.0565  -10.4060  -15.8410 C   0  0  0  0  0  0  0  0  0  0  0  0
   19.4022   -9.5029  -14.8538 O   0  0  0  0  0  0  0  0  0  0  0  0
   17.8756  -10.8693  -15.7830 O   0  0  0  0  0  0  0  0  0  0  0  0
  2  1  1  6
  2  3  1  0
  2  5  1  0
  3  4  1  0
  5  6  2  0
  5 11  1  0
  8  7  1  1
  8 10  1  0
  8  9  1  0
 10 12  1  0
 10 11  1  1
 12 20  1  0
 12 13  2  0
 14 15  1  0
 15 16  2  0
 17 15  1  0
 17 18  1  0
 19 18  1  6
 19 21  1  0
 20 19  1  0
 21 22  1  0
 23 21  2  0
M  END
$$$$
