CTQ.pdb
     RDKit          3D

 23 22  0  0  1  0  0  0  0  0999 V2000
   24.3257  -13.3682  -17.9531 N   0  0  0  0  0  0  0  0  0  0  0  0
   24.4526  -12.5060  -16.7609 C   0  0  1  0  0  0  0  0  0  0  0  0
   25.9172  -12.4297  -16.4758 C   0  0  0  0  0  0  0  0  0  0  0  0
   26.5142  -13.9628  -15.7705 S   0  0  0  0  0  0  0  0  0  0  0  0
   23.8196  -11.2166  -17.0571 C   0  0  0  0  0  0  0  0  0  0  0  0
   24.0682  -10.6543  -18.1612 O   0  0  0  0  0  0  0  0  0  0  0  0
   20.4751  -10.3834  -17.8248 C   0  0  0  0  0  0  0  0  0  0  0  0
   20.7561   -9.4565  -16.6558 C   0  0  1  0  0  0  0  0  0  0  0  0
   20.1705   -9.8676  -15.4946 O   0  0  0  0  0  0  0  0  0  0  0  0
   22.2608   -9.3084  -16.5720 C   0  0  2  0  0  0  0  0  0  0  0  0
   22.9215  -10.5178  -16.1919 N   0  0  0  0  0  0  0  0  0  0  0  0
   22.6536   -8.1075  -15.8057 C   0  0  0  0  0  0  0  0  0  0  0  0
   22.9465   -8.2557  -14.5704 O   0  0  0  0  0  0  0  0  0  0  0  0
   25.8701   -2.7408  -17.8231 N   0  0  0  0  0  0  0  0  0  0  0  0
   24.8578   -3.6591  -18.2352 C   0  0  0  0  0  0  0  0  0  0  0  0
   24.2645   -3.4613  -19.3220 O   0  0  0  0  0  0  0  0  0  0  0  0
   24.5833   -4.7972  -17.3249 C   0  0  0  0  0  0  0  0  0  0  0  0
   23.4666   -4.5355  -16.3718 C   0  0  0  0  0  0  0  0  0  0  0  0
   23.1418   -5.6627  -15.4403 C   0  0  2  0  0  0  0  0  0  0  0  0
   22.7415   -6.7944  -16.2987 N   0  0  0  0  0  0  0  0  0  0  0  0
   21.9569   -5.2799  -14.6288 C   0  0  0  0  0  0  0  0  0  0  0  0
   22.0437   -4.5288  -13.4721 O   0  0  0  0  0  0  0  0  0  0  0  0
   20.7884   -5.6370  -14.9743 O   0  0  0  0  0  0  0  0  0  0  0  0
  2  1  1  6
  2  3  1  0
  2  5  1  0
  3  4  1  0
  5  6  2  0
  5 11  1  0
  8  7  1  6
  8 10  1  0
  8  9  1  0
 10 12  1  0
 10 11  1  1
 12 20  1  0
 12 13  2  0
 14 15  1  0
 15 16  2  0
 17 15  1  0
 17 18  1  0
 19 18  1  6
 19 21  1  0
 20 19  1  0
 21 22  1  0
 23 21  2  0
M  END
$$$$
