CTQ.pdb
     RDKit          3D

 23 22  0  0  1  0  0  0  0  0999 V2000
   16.2628  -13.8440  -15.3139 N   0  0  0  0  0  0  0  0  0  0  0  0
   15.7058  -12.4861  -15.4769 C   0  0  1  0  0  0  0  0  0  0  0  0
   14.2344  -12.6281  -15.2600 C   0  0  0  0  0  0  0  0  0  0  0  0
   13.4581  -13.4520  -16.6466 S   0  0  0  0  0  0  0  0  0  0  0  0
   16.3805  -11.5958  -14.5265 C   0  0  0  0  0  0  0  0  0  0  0  0
   16.6720  -12.0369  -13.3788 O   0  0  0  0  0  0  0  0  0  0  0  0
   19.6546  -10.0964  -14.3196 C   0  0  0  0  0  0  0  0  0  0  0  0
   18.7333   -8.8920  -14.2473 C   0  0  1  0  0  0  0  0  0  0  0  0
   18.7051   -8.1701  -15.4042 O   0  0  0  0  0  0  0  0  0  0  0  0
   17.3797   -9.4075  -13.8058 C   0  0  2  0  0  0  0  0  0  0  0  0
   16.7519  -10.2397  -14.7841 N   0  0  0  0  0  0  0  0  0  0  0  0
   16.5318   -8.3283  -13.2580 C   0  0  0  0  0  0  0  0  0  0  0  0
   15.8163   -7.6562  -14.0765 O   0  0  0  0  0  0  0  0  0  0  0  0
   15.0020   -7.2245   -7.3490 N   0  0  0  0  0  0  0  0  0  0  0  0
   14.5480   -5.9838   -7.8895 C   0  0  0  0  0  0  0  0  0  0  0  0
   14.0047   -5.1511   -7.1256 O   0  0  0  0  0  0  0  0  0  0  0  0
   14.7599   -5.7752   -9.3424 C   0  0  0  0  0  0  0  0  0  0  0  0
   15.4434   -6.9201  -10.0103 C   0  0  0  0  0  0  0  0  0  0  0  0
   15.6611   -6.7650  -11.4841 C   0  0  2  0  0  0  0  0  0  0  0  0
   16.4256   -7.9542  -11.9076 N   0  0  0  0  0  0  0  0  0  0  0  0
   16.5247   -5.5772  -11.7128 C   0  0  0  0  0  0  0  0  0  0  0  0
   16.0255   -4.3330  -12.0475 O   0  0  0  0  0  0  0  0  0  0  0  0
   17.7875   -5.6605  -11.6074 O   0  0  0  0  0  0  0  0  0  0  0  0
  2  1  1  1
  2  3  1  0
  2  5  1  0
  3  4  1  0
  5  6  2  0
  5 11  1  0
  8  7  1  6
  8 10  1  0
  8  9  1  0
 10 12  1  0
 10 11  1  6
 12 20  1  0
 12 13  2  0
 14 15  1  0
 15 16  2  0
 17 15  1  0
 17 18  1  0
 19 18  1  1
 19 21  1  0
 20 19  1  0
 21 22  1  0
 23 21  2  0
M  END
$$$$
