CTQ.pdb
     RDKit          3D

 23 22  0  0  1  0  0  0  0  0999 V2000
   22.4370  -16.2679  -17.4033 N   0  0  0  0  0  0  0  0  0  0  0  0
   22.0369  -14.9859  -18.0177 C   0  0  1  0  0  0  0  0  0  0  0  0
   20.6328  -15.1874  -18.4867 C   0  0  0  0  0  0  0  0  0  0  0  0
   20.5389  -16.5218  -19.6761 S   0  0  0  0  0  0  0  0  0  0  0  0
   22.2010  -13.9262  -17.0171 C   0  0  0  0  0  0  0  0  0  0  0  0
   21.6397  -14.0568  -15.8925 O   0  0  0  0  0  0  0  0  0  0  0  0
   24.9860  -12.6478  -15.1308 C   0  0  0  0  0  0  0  0  0  0  0  0
   24.4430  -11.3851  -15.7753 C   0  0  1  0  0  0  0  0  0  0  0  0
   25.2418  -10.9077  -16.7725 O   0  0  0  0  0  0  0  0  0  0  0  0
   23.0266  -11.6956  -16.2114 C   0  0  2  0  0  0  0  0  0  0  0  0
   22.9588  -12.7277  -17.1982 N   0  0  0  0  0  0  0  0  0  0  0  0
   22.2672  -10.4684  -16.5291 C   0  0  0  0  0  0  0  0  0  0  0  0
   22.2572  -10.0688  -17.7432 O   0  0  0  0  0  0  0  0  0  0  0  0
   16.9880   -8.7460  -14.4067 N   0  0  0  0  0  0  0  0  0  0  0  0
   17.0669   -9.0188  -15.8056 C   0  0  0  0  0  0  0  0  0  0  0  0
   16.0211   -9.3292  -16.4238 O   0  0  0  0  0  0  0  0  0  0  0  0
   18.4085   -8.9112  -16.4285 C   0  0  0  0  0  0  0  0  0  0  0  0
   19.4769   -8.5160  -15.4660 C   0  0  0  0  0  0  0  0  0  0  0  0
   20.8585   -8.4375  -16.0391 C   0  0  2  0  0  0  0  0  0  0  0  0
   21.5407   -9.6780  -15.6222 N   0  0  0  0  0  0  0  0  0  0  0  0
   21.5726   -7.3016  -15.3997 C   0  0  0  0  0  0  0  0  0  0  0  0
   22.5779   -7.4698  -14.4667 O   0  0  0  0  0  0  0  0  0  0  0  0
   21.2798   -6.1011  -15.6923 O   0  0  0  0  0  0  0  0  0  0  0  0
  2  1  1  1
  2  3  1  0
  2  5  1  0
  3  4  1  0
  5  6  2  0
  5 11  1  0
  8  7  1  6
  8 10  1  0
  8  9  1  0
 10 12  1  0
 10 11  1  6
 12 20  1  0
 12 13  2  0
 14 15  1  0
 15 16  2  0
 17 15  1  0
 17 18  1  0
 19 18  1  1
 19 21  1  0
 20 19  1  0
 21 22  1  0
 23 21  2  0
M  END
$$$$
