CTQ.pdb
     RDKit          3D

 23 22  0  0  1  0  0  0  0  0999 V2000
   16.9805  -16.7450  -14.9106 N   0  0  0  0  0  0  0  0  0  0  0  0
   17.4170  -15.6744  -13.9918 C   0  0  1  0  0  0  0  0  0  0  0  0
   18.7406  -16.1183  -13.4597 C   0  0  0  0  0  0  0  0  0  0  0  0
   18.5381  -17.1203  -11.9903 S   0  0  0  0  0  0  0  0  0  0  0  0
   17.4507  -14.4130  -14.7394 C   0  0  0  0  0  0  0  0  0  0  0  0
   17.9658  -14.4013  -15.8932 O   0  0  0  0  0  0  0  0  0  0  0  0
   14.9878  -12.3035  -16.3841 C   0  0  0  0  0  0  0  0  0  0  0  0
   15.6249  -11.3900  -15.3524 C   0  0  1  0  0  0  0  0  0  0  0  0
   14.8442  -11.2023  -14.2497 O   0  0  0  0  0  0  0  0  0  0  0  0
   16.9937  -11.9636  -15.0518 C   0  0  2  0  0  0  0  0  0  0  0  0
   16.9395  -13.1618  -14.2740 N   0  0  0  0  0  0  0  0  0  0  0  0
   17.9260  -10.9305  -14.5546 C   0  0  0  0  0  0  0  0  0  0  0  0
   18.1178  -10.8554  -13.2932 O   0  0  0  0  0  0  0  0  0  0  0  0
   21.6672   -7.1933  -17.8667 N   0  0  0  0  0  0  0  0  0  0  0  0
   22.3874   -7.3277  -16.6416 C   0  0  0  0  0  0  0  0  0  0  0  0
   23.5763   -6.9327  -16.5896 O   0  0  0  0  0  0  0  0  0  0  0  0
   21.6559   -7.9373  -15.5047 C   0  0  0  0  0  0  0  0  0  0  0  0
   20.2678   -8.3572  -15.8522 C   0  0  0  0  0  0  0  0  0  0  0  0
   19.4781   -8.9531  -14.7275 C   0  0  2  0  0  0  0  0  0  0  0  0
   18.6383  -10.0038  -15.3349 N   0  0  0  0  0  0  0  0  0  0  0  0
   18.5653   -7.9125  -14.1864 C   0  0  0  0  0  0  0  0  0  0  0  0
   18.8606   -7.1551  -13.0690 O   0  0  0  0  0  0  0  0  0  0  0  0
   17.4495   -7.6721  -14.7430 O   0  0  0  0  0  0  0  0  0  0  0  0
  2  1  1  6
  2  3  1  0
  2  5  1  0
  3  4  1  0
  5  6  2  0
  5 11  1  0
  8  7  1  6
  8 10  1  0
  8  9  1  0
 10 12  1  0
 10 11  1  1
 12 20  1  0
 12 13  2  0
 14 15  1  0
 15 16  2  0
 17 15  1  0
 17 18  1  0
 19 18  1  6
 19 21  1  0
 20 19  1  0
 21 22  1  0
 23 21  2  0
M  END
$$$$
