CTQ.pdb
     RDKit          3D

 23 22  0  0  1  0  0  0  0  0999 V2000
   18.5553  -12.8867  -17.0256 N   0  0  0  0  0  0  0  0  0  0  0  0
   18.1439  -11.8844  -16.0221 C   0  0  1  0  0  0  0  0  0  0  0  0
   18.3593  -12.5350  -14.6945 C   0  0  0  0  0  0  0  0  0  0  0  0
   17.1589  -13.8328  -14.4137 S   0  0  0  0  0  0  0  0  0  0  0  0
   18.9307  -10.6661  -16.2405 C   0  0  0  0  0  0  0  0  0  0  0  0
   20.0953  -10.7698  -16.7200 O   0  0  0  0  0  0  0  0  0  0  0  0
   17.8527   -7.6493  -18.2725 C   0  0  0  0  0  0  0  0  0  0  0  0
   18.3666   -7.0959  -16.9556 C   0  0  1  0  0  0  0  0  0  0  0  0
   17.3704   -6.6470  -16.1391 O   0  0  0  0  0  0  0  0  0  0  0  0
   19.2325   -8.1750  -16.3403 C   0  0  2  0  0  0  0  0  0  0  0  0
   18.4915   -9.3357  -15.9565 N   0  0  0  0  0  0  0  0  0  0  0  0
   20.1352   -7.6319  -15.3040 C   0  0  0  0  0  0  0  0  0  0  0  0
   19.8801   -7.9107  -14.0830 O   0  0  0  0  0  0  0  0  0  0  0  0
   25.0736   -7.6454  -16.6027 N   0  0  0  0  0  0  0  0  0  0  0  0
   25.0156   -6.2196  -16.6378 C   0  0  0  0  0  0  0  0  0  0  0  0
   25.6997   -5.6048  -17.4902 O   0  0  0  0  0  0  0  0  0  0  0  0
   24.1324   -5.5660  -15.6418 C   0  0  0  0  0  0  0  0  0  0  0  0
   23.4772   -6.5294  -14.7109 C   0  0  0  0  0  0  0  0  0  0  0  0
   22.0384   -6.2470  -14.4048 C   0  0  2  0  0  0  0  0  0  0  0  0
   21.2659   -6.8261  -15.5210 N   0  0  0  0  0  0  0  0  0  0  0  0
   21.8278   -4.7760  -14.4350 C   0  0  0  0  0  0  0  0  0  0  0  0
   22.2799   -3.9272  -13.4427 O   0  0  0  0  0  0  0  0  0  0  0  0
   21.2081   -4.2268  -15.3977 O   0  0  0  0  0  0  0  0  0  0  0  0
  2  1  1  6
  2  3  1  0
  2  5  1  0
  3  4  1  0
  5  6  2  0
  5 11  1  0
  8  7  1  6
  8 10  1  0
  8  9  1  0
 10 12  1  0
 10 11  1  1
 12 20  1  0
 12 13  2  0
 14 15  1  0
 15 16  2  0
 17 15  1  0
 17 18  1  0
 19 18  1  6
 19 21  1  0
 20 19  1  0
 21 22  1  0
 23 21  2  0
M  END
$$$$
