CTQ.pdb
     RDKit          3D

 23 22  0  0  1  0  0  0  0  0999 V2000
   26.5228  -20.6648   -9.3529 N   0  0  0  0  0  0  0  0  0  0  0  0
   25.3240  -20.9128  -10.1789 C   0  0  1  0  0  0  0  0  0  0  0  0
   24.1751  -20.3766   -9.3885 C   0  0  0  0  0  0  0  0  0  0  0  0
   23.9714  -21.2819   -7.8577 S   0  0  0  0  0  0  0  0  0  0  0  0
   25.5228  -20.2694  -11.4817 C   0  0  0  0  0  0  0  0  0  0  0  0
   25.6881  -19.0173  -11.5249 O   0  0  0  0  0  0  0  0  0  0  0  0
   28.1349  -20.2441  -13.8060 C   0  0  0  0  0  0  0  0  0  0  0  0
   26.9827  -20.6380  -14.7127 C   0  0  1  0  0  0  0  0  0  0  0  0
   27.0330  -21.9435  -15.1047 O   0  0  0  0  0  0  0  0  0  0  0  0
   25.7098  -20.2582  -13.9860 C   0  0  2  0  0  0  0  0  0  0  0  0
   25.5502  -20.9439  -12.7418 N   0  0  0  0  0  0  0  0  0  0  0  0
   24.5341  -20.2931  -14.8806 C   0  0  0  0  0  0  0  0  0  0  0  0
   23.6556  -21.1992  -14.6785 O   0  0  0  0  0  0  0  0  0  0  0  0
   20.1028  -20.8689  -15.1818 N   0  0  0  0  0  0  0  0  0  0  0  0
   19.7954  -19.9977  -16.2699 C   0  0  0  0  0  0  0  0  0  0  0  0
   18.8799  -20.3181  -17.0646 O   0  0  0  0  0  0  0  0  0  0  0  0
   20.6011  -18.7571  -16.3754 C   0  0  0  0  0  0  0  0  0  0  0  0
   21.9659  -18.8872  -15.7886 C   0  0  0  0  0  0  0  0  0  0  0  0
   23.0038  -19.4630  -16.7022 C   0  0  2  0  0  0  0  0  0  0  0  0
   24.2732  -19.4201  -15.9505 N   0  0  0  0  0  0  0  0  0  0  0  0
   23.1524  -18.5641  -17.8764 C   0  0  0  0  0  0  0  0  0  0  0  0
   22.3880  -18.6837  -19.0214 O   0  0  0  0  0  0  0  0  0  0  0  0
   24.0093  -17.6270  -17.8745 O   0  0  0  0  0  0  0  0  0  0  0  0
  2  1  1  1
  2  3  1  0
  2  5  1  0
  3  4  1  0
  5  6  2  0
  5 11  1  0
  8  7  1  1
  8 10  1  0
  8  9  1  0
 10 12  1  0
 10 11  1  1
 12 20  1  0
 12 13  2  0
 14 15  1  0
 15 16  2  0
 17 15  1  0
 17 18  1  0
 19 18  1  1
 19 21  1  0
 20 19  1  0
 21 22  1  0
 23 21  2  0
M  END
$$$$
