QSE.pdb
     RDKit          3D

 25 24  0  0  1  0  0  0  0  0999 V2000
   11.3160  -17.6900   14.1336 N   0  0  0  0  0  0  0  0  0  0  0  0
   10.0213  -17.9836   14.6965 C   0  0  0  0  0  0  0  0  0  0  0  0
    9.1503  -18.5923   14.0492 O   0  0  0  0  0  0  0  0  0  0  0  0
    9.7996  -17.5159   16.0711 C   0  0  0  0  0  0  0  0  0  0  0  0
   10.9859  -17.6473   16.9361 C   0  0  0  0  0  0  0  0  0  0  0  0
   10.8041  -18.3212   18.2425 C   0  0  2  0  0  0  0  0  0  0  0  0
    9.4779  -18.8538   18.3647 N   0  0  0  0  0  0  0  0  0  0  0  0
   11.0534  -17.4272   19.4015 C   0  0  0  0  0  0  0  0  0  0  0  0
   12.1653  -16.8535   19.5339 O   0  0  0  0  0  0  0  0  0  0  0  0
    8.3512  -16.8966   22.6582 O   0  0  0  0  0  0  0  0  0  0  0  0
    9.1310  -15.8198   22.2309 C   0  0  0  0  0  0  0  0  0  0  0  0
   10.3847  -16.3966   21.5982 C   0  0  2  0  0  0  0  0  0  0  0  0
   10.0896  -17.1580   20.4158 N   0  0  0  0  0  0  0  0  0  0  0  0
   11.1935  -17.1226   22.5885 C   0  0  0  0  0  0  0  0  0  0  0  0
   11.0997  -18.3944   22.6919 O   0  0  0  0  0  0  0  0  0  0  0  0
   12.1148  -16.5212   23.4866 N   0  0  0  0  0  0  0  0  0  0  0  0
   12.8564  -17.3252   24.4593 C   0  0  1  0  0  0  0  0  0  0  0  0
   14.2380  -16.8335   24.6471 C   0  0  0  0  0  0  0  0  0  0  0  0
   14.9854  -16.7361   23.3519 C   0  0  0  0  0  0  0  0  0  0  0  0
   16.3946  -16.2998   23.4851 C   0  0  0  0  0  0  0  0  0  0  0  0
   16.6251  -15.1576   23.9005 O   0  0  0  0  0  0  0  0  0  0  0  0
   12.0980  -17.2292   25.7266 C   0  0  0  0  0  0  0  0  0  0  0  0
   12.5204  -17.8595   26.7540 O   0  0  0  0  0  0  0  0  0  0  0  0
   17.4283  -17.1448   23.1526 O   0  0  0  0  0  0  0  0  0  0  0  0
   10.9339  -16.4904   25.9054 O   0  0  0  0  0  0  0  0  0  0  0  0
  2  4  1  0
  2  1  1  0
  3  2  2  0
  5  6  1  0
  5  4  1  0
  6  7  1  1
  6  8  1  0
  8  9  2  0
 10 11  1  0
 12 11  1  1
 12 14  1  0
 13  8  1  0
 13 12  1  0
 14 15  2  0
 16 17  1  0
 16 14  1  0
 17 22  1  0
 18 19  1  0
 17 18  1  1
 20 19  1  0
 21 20  2  0
 22 23  2  0
 22 25  1  0
 24 20  1  0
M  END
$$$$
