QSE.pdb
     RDKit          3D

 25 24  0  0  1  0  0  0  0  0999 V2000
    7.6221  -17.4490   16.2230 N   0  0  0  0  0  0  0  0  0  0  0  0
    8.9385  -16.9280   16.4968 C   0  0  0  0  0  0  0  0  0  0  0  0
    9.9663  -17.5146   16.1126 O   0  0  0  0  0  0  0  0  0  0  0  0
    8.9848  -15.6723   17.2574 C   0  0  0  0  0  0  0  0  0  0  0  0
    7.6526  -15.1271   17.5749 C   0  0  0  0  0  0  0  0  0  0  0  0
    7.6009  -13.8484   18.3208 C   0  0  2  0  0  0  0  0  0  0  0  0
    8.2993  -12.8139   17.6143 N   0  0  0  0  0  0  0  0  0  0  0  0
    8.1736  -13.9448   19.6873 C   0  0  0  0  0  0  0  0  0  0  0  0
    9.3784  -13.6468   19.8940 O   0  0  0  0  0  0  0  0  0  0  0  0
    7.5399  -14.4174   24.4572 O   0  0  0  0  0  0  0  0  0  0  0  0
    6.9125  -14.5491   23.2165 C   0  0  0  0  0  0  0  0  0  0  0  0
    7.9876  -14.4134   22.1532 C   0  0  2  0  0  0  0  0  0  0  0  0
    7.4319  -14.3655   20.8289 N   0  0  0  0  0  0  0  0  0  0  0  0
    9.0348  -15.4313   22.3240 C   0  0  0  0  0  0  0  0  0  0  0  0
    8.9118  -16.5824   21.7791 O   0  0  0  0  0  0  0  0  0  0  0  0
   10.2293  -15.2539   23.0714 N   0  0  0  0  0  0  0  0  0  0  0  0
   11.2275  -16.3203   23.1653 C   0  0  1  0  0  0  0  0  0  0  0  0
   12.6062  -15.8026   23.0352 C   0  0  0  0  0  0  0  0  0  0  0  0
   13.6259  -16.9007   23.0370 C   0  0  0  0  0  0  0  0  0  0  0  0
   15.0296  -16.4383   22.9388 C   0  0  0  0  0  0  0  0  0  0  0  0
   15.2788  -15.4414   22.2499 O   0  0  0  0  0  0  0  0  0  0  0  0
   11.0331  -16.9414   24.4946 C   0  0  0  0  0  0  0  0  0  0  0  0
   10.3231  -16.3360   25.3666 O   0  0  0  0  0  0  0  0  0  0  0  0
   16.0383  -17.1028   23.5978 O   0  0  0  0  0  0  0  0  0  0  0  0
   11.5678  -18.1623   24.8903 O   0  0  0  0  0  0  0  0  0  0  0  0
  2  4  1  0
  2  1  1  0
  3  2  2  0
  5  6  1  0
  5  4  1  0
  6  7  1  6
  6  8  1  0
  8  9  2  0
 10 11  1  0
 12 11  1  1
 12 14  1  0
 13  8  1  0
 13 12  1  0
 14 15  2  0
 16 17  1  0
 16 14  1  0
 17 22  1  0
 18 19  1  0
 17 18  1  1
 20 19  1  0
 21 20  2  0
 22 23  2  0
 22 25  1  0
 24 20  1  0
M  END
$$$$
