QSE.pdb
     RDKit          3D

 25 24  0  0  1  0  0  0  0  0999 V2000
    7.9638  -12.6294   16.2451 N   0  0  0  0  0  0  0  0  0  0  0  0
    7.5535  -13.9469   15.8268 C   0  0  0  0  0  0  0  0  0  0  0  0
    6.9957  -14.1406   14.7315 O   0  0  0  0  0  0  0  0  0  0  0  0
    7.8308  -15.0349   16.7739 C   0  0  0  0  0  0  0  0  0  0  0  0
    8.5182  -14.5878   17.9988 C   0  0  0  0  0  0  0  0  0  0  0  0
    8.9014  -15.6274   18.9819 C   0  0  2  0  0  0  0  0  0  0  0  0
    7.9554  -16.7056   18.9833 N   0  0  0  0  0  0  0  0  0  0  0  0
    9.0147  -15.1080   20.3682 C   0  0  0  0  0  0  0  0  0  0  0  0
    9.8663  -14.2253   20.6486 O   0  0  0  0  0  0  0  0  0  0  0  0
    7.5883  -14.5087   24.8726 O   0  0  0  0  0  0  0  0  0  0  0  0
    7.2033  -14.9649   23.6101 C   0  0  0  0  0  0  0  0  0  0  0  0
    8.4735  -15.2330   22.8231 C   0  0  2  0  0  0  0  0  0  0  0  0
    8.1984  -15.5508   21.4490 N   0  0  0  0  0  0  0  0  0  0  0  0
    9.3223  -16.2210   23.5053 C   0  0  0  0  0  0  0  0  0  0  0  0
    9.0679  -17.4707   23.4040 O   0  0  0  0  0  0  0  0  0  0  0  0
   10.4534  -15.9092   24.3055 N   0  0  0  0  0  0  0  0  0  0  0  0
   11.1938  -16.9578   25.0087 C   0  0  1  0  0  0  0  0  0  0  0  0
   12.6485  -16.6940   25.0252 C   0  0  0  0  0  0  0  0  0  0  0  0
   13.2854  -16.9491   23.6930 C   0  0  0  0  0  0  0  0  0  0  0  0
   14.7102  -16.5538   23.6054 C   0  0  0  0  0  0  0  0  0  0  0  0
   14.9903  -15.4467   23.1297 O   0  0  0  0  0  0  0  0  0  0  0  0
   10.6575  -16.9772   26.3880 C   0  0  0  0  0  0  0  0  0  0  0  0
   11.1078  -17.8362   27.2189 O   0  0  0  0  0  0  0  0  0  0  0  0
   15.7042  -17.3993   24.0417 O   0  0  0  0  0  0  0  0  0  0  0  0
    9.6803  -16.1170   26.8759 O   0  0  0  0  0  0  0  0  0  0  0  0
  2  4  1  0
  2  1  1  0
  3  2  2  0
  5  6  1  0
  5  4  1  0
  6  7  1  1
  6  8  1  0
  8  9  2  0
 10 11  1  0
 12 11  1  1
 12 14  1  0
 13  8  1  0
 13 12  1  0
 14 15  2  0
 16 17  1  0
 16 14  1  0
 17 22  1  0
 18 19  1  0
 17 18  1  1
 20 19  1  0
 21 20  2  0
 22 23  2  0
 22 25  1  0
 24 20  1  0
M  END
$$$$
