QSE.pdb
     RDKit          3D

 25 24  0  0  1  0  0  0  0  0999 V2000
    9.0443  -16.0066   14.9016 N   0  0  0  0  0  0  0  0  0  0  0  0
    9.5245  -16.2242   16.2437 C   0  0  0  0  0  0  0  0  0  0  0  0
    9.9731  -17.3266   16.6065 O   0  0  0  0  0  0  0  0  0  0  0  0
    9.4445  -15.0692   17.1476 C   0  0  0  0  0  0  0  0  0  0  0  0
    8.1086  -14.8772   17.7405 C   0  0  0  0  0  0  0  0  0  0  0  0
    7.9206  -13.7078   18.6299 C   0  0  2  0  0  0  0  0  0  0  0  0
    8.5612  -12.5439   18.0892 N   0  0  0  0  0  0  0  0  0  0  0  0
    8.4407  -13.9277   20.0031 C   0  0  0  0  0  0  0  0  0  0  0  0
    9.6661  -13.7834   20.2492 O   0  0  0  0  0  0  0  0  0  0  0  0
    7.6576  -14.7338   24.7164 O   0  0  0  0  0  0  0  0  0  0  0  0
    7.0418  -14.5796   23.4725 C   0  0  0  0  0  0  0  0  0  0  0  0
    8.1436  -14.5270   22.4295 C   0  0  2  0  0  0  0  0  0  0  0  0
    7.6241  -14.3042   21.1084 N   0  0  0  0  0  0  0  0  0  0  0  0
    9.0288  -15.6965   22.5328 C   0  0  0  0  0  0  0  0  0  0  0  0
    8.6772  -16.8191   22.0298 O   0  0  0  0  0  0  0  0  0  0  0  0
   10.2992  -15.7031   23.1674 N   0  0  0  0  0  0  0  0  0  0  0  0
   11.0777  -16.9369   23.2874 C   0  0  1  0  0  0  0  0  0  0  0  0
   12.3287  -16.8822   22.5013 C   0  0  0  0  0  0  0  0  0  0  0  0
   13.1914  -15.7202   22.8902 C   0  0  0  0  0  0  0  0  0  0  0  0
   14.4437  -15.5941   22.1093 C   0  0  0  0  0  0  0  0  0  0  0  0
   15.1728  -14.6154   22.3117 O   0  0  0  0  0  0  0  0  0  0  0  0
   11.3802  -17.0866   24.7284 C   0  0  0  0  0  0  0  0  0  0  0  0
   12.0354  -18.1091   25.1239 O   0  0  0  0  0  0  0  0  0  0  0  0
   14.7908  -16.5436   21.1759 O   0  0  0  0  0  0  0  0  0  0  0  0
   11.0063  -16.1862   25.7196 O   0  0  0  0  0  0  0  0  0  0  0  0
  2  4  1  0
  2  1  1  0
  3  2  2  0
  5  6  1  0
  5  4  1  0
  6  7  1  6
  6  8  1  0
  8  9  2  0
 10 11  1  0
 12 11  1  1
 12 14  1  0
 13  8  1  0
 13 12  1  0
 14 15  2  0
 16 17  1  0
 16 14  1  0
 17 22  1  0
 18 19  1  0
 17 18  1  6
 20 19  1  0
 21 20  2  0
 22 23  2  0
 22 25  1  0
 24 20  1  0
M  END
$$$$
