QSE.pdb
     RDKit          3D

 25 24  0  0  1  0  0  0  0  0999 V2000
    8.4305  -19.6675   15.6625 N   0  0  0  0  0  0  0  0  0  0  0  0
    9.8051  -19.4458   16.0374 C   0  0  0  0  0  0  0  0  0  0  0  0
   10.5557  -20.3861   16.3545 O   0  0  0  0  0  0  0  0  0  0  0  0
   10.2547  -18.0475   16.0250 C   0  0  0  0  0  0  0  0  0  0  0  0
    9.2019  -17.0942   15.6304 C   0  0  0  0  0  0  0  0  0  0  0  0
    9.5502  -15.6546   15.6370 C   0  0  2  0  0  0  0  0  0  0  0  0
   10.6465  -15.3881   14.7513 N   0  0  0  0  0  0  0  0  0  0  0  0
    9.9088  -15.1458   16.9851 C   0  0  0  0  0  0  0  0  0  0  0  0
   11.1079  -15.1461   17.3662 O   0  0  0  0  0  0  0  0  0  0  0  0
    7.6446  -12.5705   19.3417 O   0  0  0  0  0  0  0  0  0  0  0  0
    8.1075  -13.7021   20.0164 C   0  0  0  0  0  0  0  0  0  0  0  0
    9.3092  -14.2226   19.2484 C   0  0  2  0  0  0  0  0  0  0  0  0
    8.9595  -14.6358   17.9174 N   0  0  0  0  0  0  0  0  0  0  0  0
   10.0304  -15.2453   20.0202 C   0  0  0  0  0  0  0  0  0  0  0  0
    9.8003  -16.4878   19.8195 O   0  0  0  0  0  0  0  0  0  0  0  0
   11.0063  -14.9767   21.0165 N   0  0  0  0  0  0  0  0  0  0  0  0
   11.7685  -16.0599   21.6393 C   0  0  1  0  0  0  0  0  0  0  0  0
   13.2209  -15.9269   21.3969 C   0  0  0  0  0  0  0  0  0  0  0  0
   13.6974  -14.5170   21.5720 C   0  0  0  0  0  0  0  0  0  0  0  0
   15.1364  -14.3130   21.2863 C   0  0  0  0  0  0  0  0  0  0  0  0
   15.9491  -14.4467   22.2094 O   0  0  0  0  0  0  0  0  0  0  0  0
   11.4779  -15.9788   23.0883 C   0  0  0  0  0  0  0  0  0  0  0  0
   10.7160  -15.0489   23.5192 O   0  0  0  0  0  0  0  0  0  0  0  0
   15.5634  -13.9798   20.0214 O   0  0  0  0  0  0  0  0  0  0  0  0
   11.9725  -16.8516   24.0509 O   0  0  0  0  0  0  0  0  0  0  0  0
  2  4  1  0
  2  1  1  0
  3  2  2  0
  5  6  1  0
  5  4  1  0
  6  7  1  6
  6  8  1  0
  8  9  2  0
 10 11  1  0
 12 11  1  1
 12 14  1  0
 13  8  1  0
 13 12  1  0
 14 15  2  0
 16 17  1  0
 16 14  1  0
 17 22  1  0
 18 19  1  0
 17 18  1  1
 20 19  1  0
 21 20  2  0
 22 23  2  0
 22 25  1  0
 24 20  1  0
M  END
$$$$
