QSE.pdb
     RDKit          3D

 25 24  0  0  1  0  0  0  0  0999 V2000
    9.7351  -26.3825   22.2832 N   0  0  0  0  0  0  0  0  0  0  0  0
    8.6311  -27.1084   22.8607 C   0  0  0  0  0  0  0  0  0  0  0  0
    7.8436  -27.7676   22.1582 O   0  0  0  0  0  0  0  0  0  0  0  0
    8.4964  -27.0145   24.3204 C   0  0  0  0  0  0  0  0  0  0  0  0
    9.5124  -26.1525   24.9509 C   0  0  0  0  0  0  0  0  0  0  0  0
    9.0518  -24.8689   25.5290 C   0  0  2  0  0  0  0  0  0  0  0  0
    8.3892  -24.0692   24.5396 N   0  0  0  0  0  0  0  0  0  0  0  0
   10.1523  -24.0632   26.1156 C   0  0  0  0  0  0  0  0  0  0  0  0
   11.1979  -24.6246   26.5336 O   0  0  0  0  0  0  0  0  0  0  0  0
   10.0636  -19.9737   26.0364 O   0  0  0  0  0  0  0  0  0  0  0  0
   11.3400  -20.5253   26.1656 C   0  0  0  0  0  0  0  0  0  0  0  0
   11.1784  -21.8796   26.8324 C   0  0  2  0  0  0  0  0  0  0  0  0
   10.1130  -22.6447   26.2456 N   0  0  0  0  0  0  0  0  0  0  0  0
   11.0806  -21.7439   28.2932 C   0  0  0  0  0  0  0  0  0  0  0  0
   10.0214  -21.2657   28.8281 O   0  0  0  0  0  0  0  0  0  0  0  0
   12.0970  -22.1099   29.2152 N   0  0  0  0  0  0  0  0  0  0  0  0
   11.9083  -21.9361   30.6562 C   0  0  1  0  0  0  0  0  0  0  0  0
   12.1507  -23.1891   31.4026 C   0  0  0  0  0  0  0  0  0  0  0  0
   11.0036  -24.1467   31.2891 C   0  0  0  0  0  0  0  0  0  0  0  0
   11.2330  -25.4618   31.9308 C   0  0  0  0  0  0  0  0  0  0  0  0
   12.3077  -25.6592   32.5108 O   0  0  0  0  0  0  0  0  0  0  0  0
   12.8757  -20.8947   31.0689 C   0  0  0  0  0  0  0  0  0  0  0  0
   12.9580  -20.5754   32.3027 O   0  0  0  0  0  0  0  0  0  0  0  0
   10.2730  -26.4463   31.8829 O   0  0  0  0  0  0  0  0  0  0  0  0
   13.7303  -20.2142   30.2088 O   0  0  0  0  0  0  0  0  0  0  0  0
  2  4  1  0
  2  1  1  0
  3  2  2  0
  5  6  1  0
  5  4  1  0
  6  7  1  6
  6  8  1  0
  8  9  2  0
 10 11  1  0
 12 11  1  6
 12 14  1  0
 13  8  1  0
 13 12  1  0
 14 15  2  0
 16 17  1  0
 16 14  1  0
 17 22  1  0
 18 19  1  0
 17 18  1  1
 20 19  1  0
 21 20  2  0
 22 23  2  0
 22 25  1  0
 24 20  1  0
M  END
$$$$
