QSE.pdb
     RDKit          3D

 25 24  0  0  1  0  0  0  0  0999 V2000
    6.7707  -18.9219   15.5878 N   0  0  0  0  0  0  0  0  0  0  0  0
    8.1143  -18.7825   15.0834 C   0  0  0  0  0  0  0  0  0  0  0  0
    8.8292  -19.7729   14.8459 O   0  0  0  0  0  0  0  0  0  0  0  0
    8.5807  -17.4053   14.8754 C   0  0  0  0  0  0  0  0  0  0  0  0
    7.5407  -16.3890   15.1173 C   0  0  0  0  0  0  0  0  0  0  0  0
    7.9121  -14.9712   14.9028 C   0  0  2  0  0  0  0  0  0  0  0  0
    8.6167  -14.8072   13.6644 N   0  0  0  0  0  0  0  0  0  0  0  0
    8.7538  -14.4157   15.9925 C   0  0  0  0  0  0  0  0  0  0  0  0
   10.0081  -14.4231   15.8933 O   0  0  0  0  0  0  0  0  0  0  0  0
    7.3417  -13.6470   19.8306 O   0  0  0  0  0  0  0  0  0  0  0  0
    8.2375  -12.6904   19.3482 C   0  0  0  0  0  0  0  0  0  0  0  0
    9.0553  -13.3527   18.2539 C   0  0  2  0  0  0  0  0  0  0  0  0
    8.2275  -13.8511   17.1903 N   0  0  0  0  0  0  0  0  0  0  0  0
    9.9767  -14.3536   18.8115 C   0  0  0  0  0  0  0  0  0  0  0  0
    9.7162  -15.6017   18.7051 O   0  0  0  0  0  0  0  0  0  0  0  0
   11.1882  -14.0568   19.4906 N   0  0  0  0  0  0  0  0  0  0  0  0
   12.0537  -15.1245   19.9937 C   0  0  1  0  0  0  0  0  0  0  0  0
   13.4592  -14.6845   20.1238 C   0  0  0  0  0  0  0  0  0  0  0  0
   14.0827  -14.3810   18.7953 C   0  0  0  0  0  0  0  0  0  0  0  0
   15.5057  -13.9751   18.8610 C   0  0  0  0  0  0  0  0  0  0  0  0
   16.3537  -14.6966   18.3218 O   0  0  0  0  0  0  0  0  0  0  0  0
   11.5064  -15.5002   21.3166 C   0  0  0  0  0  0  0  0  0  0  0  0
   10.5390  -14.8243   21.8047 O   0  0  0  0  0  0  0  0  0  0  0  0
   15.8800  -12.8206   19.5092 O   0  0  0  0  0  0  0  0  0  0  0  0
   11.9627  -16.5559   22.0978 O   0  0  0  0  0  0  0  0  0  0  0  0
  2  4  1  0
  2  1  1  0
  3  2  2  0
  5  6  1  0
  5  4  1  0
  6  7  1  6
  6  8  1  0
  8  9  2  0
 10 11  1  0
 12 11  1  1
 12 14  1  0
 13  8  1  0
 13 12  1  0
 14 15  2  0
 16 17  1  0
 16 14  1  0
 17 22  1  0
 18 19  1  0
 17 18  1  1
 20 19  1  0
 21 20  2  0
 22 23  2  0
 22 25  1  0
 24 20  1  0
M  END
$$$$
