QSE.pdb
     RDKit          3D

 25 24  0  0  1  0  0  0  0  0999 V2000
    8.3662  -15.2143   15.0425 N   0  0  0  0  0  0  0  0  0  0  0  0
    7.5586  -14.3039   15.8159 C   0  0  0  0  0  0  0  0  0  0  0  0
    6.5163  -13.8032   15.3563 O   0  0  0  0  0  0  0  0  0  0  0  0
    8.0469  -14.0055   17.1687 C   0  0  0  0  0  0  0  0  0  0  0  0
    9.2926  -14.7137   17.5142 C   0  0  0  0  0  0  0  0  0  0  0  0
    9.2017  -15.8011   18.5159 C   0  0  2  0  0  0  0  0  0  0  0  0
    7.8686  -16.3259   18.5836 N   0  0  0  0  0  0  0  0  0  0  0  0
    9.6019  -15.3743   19.8805 C   0  0  0  0  0  0  0  0  0  0  0  0
   10.8045  -15.1057   20.1352 O   0  0  0  0  0  0  0  0  0  0  0  0
    7.1415  -15.5831   23.3984 O   0  0  0  0  0  0  0  0  0  0  0  0
    7.9359  -14.4588   23.1640 C   0  0  0  0  0  0  0  0  0  0  0  0
    9.1034  -14.9057   22.3026 C   0  0  2  0  0  0  0  0  0  0  0  0
    8.6904  -15.2394   20.9674 N   0  0  0  0  0  0  0  0  0  0  0  0
    9.8805  -15.9618   22.9679 C   0  0  0  0  0  0  0  0  0  0  0  0
    9.7024  -17.1894   22.6548 O   0  0  0  0  0  0  0  0  0  0  0  0
   10.8585  -15.7425   23.9741 N   0  0  0  0  0  0  0  0  0  0  0  0
   11.9785  -16.6676   24.1538 C   0  0  1  0  0  0  0  0  0  0  0  0
   13.2795  -16.0257   23.8687 C   0  0  0  0  0  0  0  0  0  0  0  0
   14.4353  -16.9311   24.1683 C   0  0  0  0  0  0  0  0  0  0  0  0
   15.7617  -16.3745   23.8150 C   0  0  0  0  0  0  0  0  0  0  0  0
   16.0215  -16.1722   22.6225 O   0  0  0  0  0  0  0  0  0  0  0  0
   11.9186  -17.1070   25.5659 C   0  0  0  0  0  0  0  0  0  0  0  0
   11.1855  -16.4609   26.3881 O   0  0  0  0  0  0  0  0  0  0  0  0
   16.6887  -16.0888   24.7908 O   0  0  0  0  0  0  0  0  0  0  0  0
   12.6073  -18.1937   26.0928 O   0  0  0  0  0  0  0  0  0  0  0  0
  2  4  1  0
  2  1  1  0
  3  2  2  0
  5  6  1  0
  5  4  1  0
  6  7  1  1
  6  8  1  0
  8  9  2  0
 10 11  1  0
 12 11  1  1
 12 14  1  0
 13  8  1  0
 13 12  1  0
 14 15  2  0
 16 17  1  0
 16 14  1  0
 17 22  1  0
 18 19  1  0
 17 18  1  1
 20 19  1  0
 21 20  2  0
 22 23  2  0
 22 25  1  0
 24 20  1  0
M  END
$$$$
