QSE.pdb
     RDKit          3D

 25 24  0  0  1  0  0  0  0  0999 V2000
    8.9281  -14.4350   15.3984 N   0  0  0  0  0  0  0  0  0  0  0  0
    8.0126  -13.9603   16.4063 C   0  0  0  0  0  0  0  0  0  0  0  0
    7.3821  -12.8967   16.2675 O   0  0  0  0  0  0  0  0  0  0  0  0
    7.8792  -14.8062   17.5998 C   0  0  0  0  0  0  0  0  0  0  0  0
    8.6639  -16.0520   17.5288 C   0  0  0  0  0  0  0  0  0  0  0  0
    8.6774  -16.9169   18.7312 C   0  0  2  0  0  0  0  0  0  0  0  0
    7.3560  -17.3763   19.0476 N   0  0  0  0  0  0  0  0  0  0  0  0
    9.2335  -16.2419   19.9310 C   0  0  0  0  0  0  0  0  0  0  0  0
   10.4547  -15.9435   19.9836 O   0  0  0  0  0  0  0  0  0  0  0  0
    7.0764  -15.6561   23.5163 O   0  0  0  0  0  0  0  0  0  0  0  0
    7.9585  -14.6468   23.1243 C   0  0  0  0  0  0  0  0  0  0  0  0
    9.0202  -15.2923   22.2521 C   0  0  2  0  0  0  0  0  0  0  0  0
    8.4574  -15.8913   21.0735 N   0  0  0  0  0  0  0  0  0  0  0  0
    9.8702  -16.2012   23.0352 C   0  0  0  0  0  0  0  0  0  0  0  0
    9.5733  -17.4420   23.1302 O   0  0  0  0  0  0  0  0  0  0  0  0
   11.0474  -15.8184   23.7314 N   0  0  0  0  0  0  0  0  0  0  0  0
   11.7941  -16.7827   24.5407 C   0  0  1  0  0  0  0  0  0  0  0  0
   13.2347  -16.4562   24.6041 C   0  0  0  0  0  0  0  0  0  0  0  0
   13.9341  -16.7263   23.3067 C   0  0  0  0  0  0  0  0  0  0  0  0
   15.2661  -16.0906   23.1808 C   0  0  0  0  0  0  0  0  0  0  0  0
   16.1015  -16.2825   24.0727 O   0  0  0  0  0  0  0  0  0  0  0  0
   11.1931  -16.7289   25.8922 C   0  0  0  0  0  0  0  0  0  0  0  0
   10.3057  -15.8456   26.1440 O   0  0  0  0  0  0  0  0  0  0  0  0
   15.5702  -15.3009   22.0959 O   0  0  0  0  0  0  0  0  0  0  0  0
   11.5154  -17.5804   26.9429 O   0  0  0  0  0  0  0  0  0  0  0  0
  2  4  1  0
  2  1  1  0
  3  2  2  0
  5  6  1  0
  5  4  1  0
  6  7  1  1
  6  8  1  0
  8  9  2  0
 10 11  1  0
 12 11  1  1
 12 14  1  0
 13  8  1  0
 13 12  1  0
 14 15  2  0
 16 17  1  0
 16 14  1  0
 17 22  1  0
 18 19  1  0
 17 18  1  1
 20 19  1  0
 21 20  2  0
 22 23  2  0
 22 25  1  0
 24 20  1  0
M  END
$$$$
