QSE.pdb
     RDKit          3D

 25 24  0  0  1  0  0  0  0  0999 V2000
    7.7520  -12.6950   16.0361 N   0  0  0  0  0  0  0  0  0  0  0  0
    7.5830  -14.0456   15.5602 C   0  0  0  0  0  0  0  0  0  0  0  0
    6.7600  -14.3267   14.6703 O   0  0  0  0  0  0  0  0  0  0  0  0
    8.4361  -15.0594   16.1941 C   0  0  0  0  0  0  0  0  0  0  0  0
    9.4147  -14.4961   17.1417 C   0  0  0  0  0  0  0  0  0  0  0  0
   10.2792  -15.4500   17.8743 C   0  0  2  0  0  0  0  0  0  0  0  0
   10.0961  -16.7866   17.3871 N   0  0  0  0  0  0  0  0  0  0  0  0
   10.0368  -15.4530   19.3391 C   0  0  0  0  0  0  0  0  0  0  0  0
   10.7926  -16.1027   20.1070 O   0  0  0  0  0  0  0  0  0  0  0  0
    6.5319  -14.7819   21.5998 O   0  0  0  0  0  0  0  0  0  0  0  0
    7.5810  -13.8799   21.7896 C   0  0  0  0  0  0  0  0  0  0  0  0
    8.8619  -14.5908   21.3912 C   0  0  2  0  0  0  0  0  0  0  0  0
    8.9705  -14.7464   19.9668 N   0  0  0  0  0  0  0  0  0  0  0  0
    9.0295  -15.8437   22.1424 C   0  0  0  0  0  0  0  0  0  0  0  0
    8.9243  -16.9720   21.5485 O   0  0  0  0  0  0  0  0  0  0  0  0
    9.3110  -15.9291   23.5318 N   0  0  0  0  0  0  0  0  0  0  0  0
   10.3689  -16.8060   24.0360 C   0  0  1  0  0  0  0  0  0  0  0  0
   11.7059  -16.3940   23.5578 C   0  0  0  0  0  0  0  0  0  0  0  0
   12.7938  -17.2783   24.0871 C   0  0  0  0  0  0  0  0  0  0  0  0
   13.9930  -17.3648   23.2220 C   0  0  0  0  0  0  0  0  0  0  0  0
   14.0099  -18.2048   22.3139 O   0  0  0  0  0  0  0  0  0  0  0  0
   10.2993  -16.7177   25.5118 C   0  0  0  0  0  0  0  0  0  0  0  0
   10.4777  -17.7737   26.2075 O   0  0  0  0  0  0  0  0  0  0  0  0
   15.0686  -16.5305   23.4229 O   0  0  0  0  0  0  0  0  0  0  0  0
   10.0523  -15.5534   26.2304 O   0  0  0  0  0  0  0  0  0  0  0  0
  2  4  1  0
  2  1  1  0
  3  2  2  0
  5  6  1  0
  5  4  1  0
  6  7  1  6
  6  8  1  0
  8  9  2  0
 10 11  1  0
 12 11  1  6
 12 14  1  0
 13  8  1  0
 13 12  1  0
 14 15  2  0
 16 17  1  0
 16 14  1  0
 17 22  1  0
 18 19  1  0
 17 18  1  6
 20 19  1  0
 21 20  2  0
 22 23  2  0
 22 25  1  0
 24 20  1  0
M  END
$$$$
