QSE.pdb
     RDKit          3D

 25 24  0  0  1  0  0  0  0  0999 V2000
    9.4209  -14.5905   15.1131 N   0  0  0  0  0  0  0  0  0  0  0  0
    8.1967  -13.9015   15.4386 C   0  0  0  0  0  0  0  0  0  0  0  0
    7.2073  -13.9359   14.6849 O   0  0  0  0  0  0  0  0  0  0  0  0
    8.1973  -13.1587   16.7058 C   0  0  0  0  0  0  0  0  0  0  0  0
    9.4780  -13.2344   17.4317 C   0  0  0  0  0  0  0  0  0  0  0  0
    9.7039  -14.4194   18.2912 C   0  0  2  0  0  0  0  0  0  0  0  0
    8.6161  -15.3477   18.1811 N   0  0  0  0  0  0  0  0  0  0  0  0
    9.8781  -14.0771   19.7254 C   0  0  0  0  0  0  0  0  0  0  0  0
   10.8168  -13.3224   20.0892 O   0  0  0  0  0  0  0  0  0  0  0  0
    7.1940  -15.0300   22.8533 O   0  0  0  0  0  0  0  0  0  0  0  0
    8.1789  -14.0518   23.0054 C   0  0  0  0  0  0  0  0  0  0  0  0
    9.3654  -14.4737   22.1574 C   0  0  2  0  0  0  0  0  0  0  0  0
    9.0278  -14.5573   20.7632 N   0  0  0  0  0  0  0  0  0  0  0  0
    9.9948  -15.6900   22.6925 C   0  0  0  0  0  0  0  0  0  0  0  0
    9.6195  -16.8437   22.2865 O   0  0  0  0  0  0  0  0  0  0  0  0
   11.0302  -15.7114   23.6643 N   0  0  0  0  0  0  0  0  0  0  0  0
   11.6541  -16.9698   24.0762 C   0  0  1  0  0  0  0  0  0  0  0  0
   13.1000  -16.9988   23.7688 C   0  0  0  0  0  0  0  0  0  0  0  0
   13.7041  -15.6275   23.7571 C   0  0  0  0  0  0  0  0  0  0  0  0
   15.1604  -15.5981   23.4884 C   0  0  0  0  0  0  0  0  0  0  0  0
   15.9387  -15.8856   24.4060 O   0  0  0  0  0  0  0  0  0  0  0  0
   11.4352  -17.0717   25.5364 C   0  0  0  0  0  0  0  0  0  0  0  0
   10.8319  -16.1235   26.1430 O   0  0  0  0  0  0  0  0  0  0  0  0
   15.6408  -15.2566   22.2451 O   0  0  0  0  0  0  0  0  0  0  0  0
   11.8369  -18.1400   26.3304 O   0  0  0  0  0  0  0  0  0  0  0  0
  2  4  1  0
  2  1  1  0
  3  2  2  0
  5  6  1  0
  5  4  1  0
  6  7  1  1
  6  8  1  0
  8  9  2  0
 10 11  1  0
 12 11  1  1
 12 14  1  0
 13  8  1  0
 13 12  1  0
 14 15  2  0
 16 17  1  0
 16 14  1  0
 17 22  1  0
 18 19  1  0
 17 18  1  1
 20 19  1  0
 21 20  2  0
 22 23  2  0
 22 25  1  0
 24 20  1  0
M  END
$$$$
