QSE.pdb
     RDKit          3D

 25 24  0  0  1  0  0  0  0  0999 V2000
    5.3816  -19.7939   16.9662 N   0  0  0  0  0  0  0  0  0  0  0  0
    6.5576  -19.0004   16.7086 C   0  0  0  0  0  0  0  0  0  0  0  0
    6.5651  -18.1045   15.8452 O   0  0  0  0  0  0  0  0  0  0  0  0
    7.7374  -19.3208   17.5229 C   0  0  0  0  0  0  0  0  0  0  0  0
    7.9294  -18.4090   18.6651 C   0  0  0  0  0  0  0  0  0  0  0  0
    8.3275  -17.0146   18.3631 C   0  0  2  0  0  0  0  0  0  0  0  0
    9.2135  -16.9668   17.2362 N   0  0  0  0  0  0  0  0  0  0  0  0
    8.9915  -16.3357   19.5044 C   0  0  0  0  0  0  0  0  0  0  0  0
   10.2389  -16.4115   19.6506 O   0  0  0  0  0  0  0  0  0  0  0  0
    6.8988  -14.8894   22.8200 O   0  0  0  0  0  0  0  0  0  0  0  0
    7.9988  -14.1193   22.4362 C   0  0  0  0  0  0  0  0  0  0  0  0
    8.9307  -15.0266   21.6532 C   0  0  2  0  0  0  0  0  0  0  0  0
    8.2950  -15.5730   20.4862 N   0  0  0  0  0  0  0  0  0  0  0  0
    9.5449  -16.0377   22.5263 C   0  0  0  0  0  0  0  0  0  0  0  0
    9.0750  -17.2269   22.5675 O   0  0  0  0  0  0  0  0  0  0  0  0
   10.6647  -15.8131   23.3706 N   0  0  0  0  0  0  0  0  0  0  0  0
   11.2661  -16.9069   24.1351 C   0  0  1  0  0  0  0  0  0  0  0  0
   12.6834  -17.1225   23.7739 C   0  0  0  0  0  0  0  0  0  0  0  0
   13.4788  -15.8532   23.8198 C   0  0  0  0  0  0  0  0  0  0  0  0
   14.7522  -15.8965   23.0643 C   0  0  0  0  0  0  0  0  0  0  0  0
   14.7236  -16.2258   21.8722 O   0  0  0  0  0  0  0  0  0  0  0  0
   11.1500  -16.5181   25.5585 C   0  0  0  0  0  0  0  0  0  0  0  0
   10.6855  -15.3654   25.8529 O   0  0  0  0  0  0  0  0  0  0  0  0
   15.9442  -15.5790   23.6738 O   0  0  0  0  0  0  0  0  0  0  0  0
   11.5094  -17.3197   26.6361 O   0  0  0  0  0  0  0  0  0  0  0  0
  2  4  1  0
  2  1  1  0
  3  2  2  0
  5  6  1  0
  5  4  1  0
  6  7  1  6
  6  8  1  0
  8  9  2  0
 10 11  1  0
 12 11  1  1
 12 14  1  0
 13  8  1  0
 13 12  1  0
 14 15  2  0
 16 17  1  0
 16 14  1  0
 17 22  1  0
 18 19  1  0
 17 18  1  6
 20 19  1  0
 21 20  2  0
 22 23  2  0
 22 25  1  0
 24 20  1  0
M  END
$$$$
