ICT.pdb
     RDKit          3D

 22 21  0  0  1  0  0  0  0  0999 V2000
   26.7012  -15.5413  -15.4444 C   0  0  0  0  0  0  0  0  0  0  0  0
   25.2134  -15.8453  -15.4054 C   0  0  0  0  0  0  0  0  0  0  0  0
   24.4034  -14.6450  -15.8077 C   0  0  2  0  0  0  0  0  0  0  0  0
   24.7682  -13.4350  -14.9792 C   0  0  0  0  0  0  0  0  0  0  0  0
   22.9409  -14.9098  -15.8599 C   0  0  2  0  0  0  0  0  0  0  0  0
   22.7366  -16.0542  -16.7929 N   0  0  0  0  0  0  0  0  0  0  0  0
   22.0841  -13.8332  -16.3427 C   0  0  0  0  0  0  0  0  0  0  0  0
   22.0190  -13.6067  -17.5945 O   0  0  0  0  0  0  0  0  0  0  0  0
   21.2682  -12.9618  -15.5635 N   0  0  0  0  0  0  0  0  0  0  0  0
   20.5005  -11.8861  -16.1079 C   0  0  1  0  0  0  0  0  0  0  0  0
   19.0318  -12.3558  -16.0184 C   0  0  0  0  0  0  0  0  0  0  0  0
   17.9131  -11.0330  -16.5270 S   0  0  0  0  0  0  0  0  0  0  0  0
   20.6781  -10.5750  -15.5001 C   0  0  0  0  0  0  0  0  0  0  0  0
   20.6291  -10.4936  -14.2219 O   0  0  0  0  0  0  0  0  0  0  0  0
   23.5278   -7.7729  -15.9085 C   0  0  0  0  0  0  0  0  0  0  0  0
   22.1335   -7.2190  -16.0921 C   0  0  1  0  0  0  0  0  0  0  0  0
   21.9289   -6.9822  -17.4264 O   0  0  0  0  0  0  0  0  0  0  0  0
   21.0876   -8.0912  -15.4572 C   0  0  2  0  0  0  0  0  0  0  0  0
   20.9057   -9.3426  -16.1702 N   0  0  0  0  0  0  0  0  0  0  0  0
   19.8293   -7.3424  -15.3198 C   0  0  0  0  0  0  0  0  0  0  0  0
   19.7083   -6.2241  -14.5460 O   0  0  0  0  0  0  0  0  0  0  0  0
   18.8198   -7.7562  -15.9470 O   0  0  0  0  0  0  0  0  0  0  0  0
  2  1  1  0
  2  3  1  0
  3  5  1  0
  3  4  1  1
  5  7  1  0
  5  6  1  6
  7  9  1  0
  7  8  2  0
  9 10  1  0
 10 11  1  1
 10 13  1  0
 12 11  1  0
 13 14  2  0
 16 15  1  6
 16 18  1  0
 17 16  1  0
 18 20  1  0
 18 19  1  6
 19 13  1  0
 20 21  1  0
 22 20  2  0
M  END
$$$$
