ICT.pdb
     RDKit          3D

 22 21  0  0  1  0  0  0  0  0999 V2000
   24.6852  -12.1802  -17.7958 C   0  0  0  0  0  0  0  0  0  0  0  0
   23.5717  -12.3349  -16.7741 C   0  0  0  0  0  0  0  0  0  0  0  0
   22.9196  -11.0137  -16.4778 C   0  0  2  0  0  0  0  0  0  0  0  0
   23.9430   -9.9732  -16.0856 C   0  0  0  0  0  0  0  0  0  0  0  0
   21.7825  -11.1167  -15.5248 C   0  0  2  0  0  0  0  0  0  0  0  0
   20.8038  -12.0746  -16.1136 N   0  0  0  0  0  0  0  0  0  0  0  0
   21.0368   -9.8963  -15.2405 C   0  0  0  0  0  0  0  0  0  0  0  0
   20.2195   -9.4522  -16.1107 O   0  0  0  0  0  0  0  0  0  0  0  0
   21.1010   -9.0987  -14.0607 N   0  0  0  0  0  0  0  0  0  0  0  0
   20.4050   -7.8616  -13.8933 C   0  0  1  0  0  0  0  0  0  0  0  0
   19.5907   -8.0323  -12.5919 C   0  0  0  0  0  0  0  0  0  0  0  0
   18.4154   -9.3931  -12.7556 S   0  0  0  0  0  0  0  0  0  0  0  0
   21.2114   -6.6499  -13.8616 C   0  0  0  0  0  0  0  0  0  0  0  0
   22.2279   -6.6246  -13.0812 O   0  0  0  0  0  0  0  0  0  0  0  0
   23.1809   -4.9568  -16.6664 C   0  0  0  0  0  0  0  0  0  0  0  0
   22.3462   -3.9125  -15.9611 C   0  0  1  0  0  0  0  0  0  0  0  0
   21.2976   -3.5684  -16.7737 O   0  0  0  0  0  0  0  0  0  0  0  0
   21.9359   -4.3491  -14.5830 C   0  0  2  0  0  0  0  0  0  0  0  0
   21.0027   -5.4608  -14.6115 N   0  0  0  0  0  0  0  0  0  0  0  0
   21.4082   -3.2002  -13.8318 C   0  0  0  0  0  0  0  0  0  0  0  0
   22.1623   -2.1070  -13.5150 O   0  0  0  0  0  0  0  0  0  0  0  0
   20.2044   -3.2312  -13.4662 O   0  0  0  0  0  0  0  0  0  0  0  0
  2  1  1  0
  2  3  1  0
  3  5  1  0
  3  4  1  1
  5  7  1  0
  5  6  1  6
  7  9  1  0
  7  8  2  0
  9 10  1  0
 10 11  1  1
 10 13  1  0
 12 11  1  0
 13 14  2  0
 16 15  1  6
 16 18  1  0
 17 16  1  0
 18 20  1  0
 18 19  1  6
 19 13  1  0
 20 21  1  0
 22 20  2  0
M  END
$$$$
