ICT.pdb
     RDKit          3D

 22 21  0  0  1  0  0  0  0  0999 V2000
   17.1912  -13.0982  -17.0129 C   0  0  0  0  0  0  0  0  0  0  0  0
   18.5784  -12.4788  -17.0130 C   0  0  0  0  0  0  0  0  0  0  0  0
   18.5996  -11.1949  -16.2324 C   0  0  2  0  0  0  0  0  0  0  0  0
   17.5561  -10.2271  -16.7405 C   0  0  0  0  0  0  0  0  0  0  0  0
   19.9564  -10.5972  -16.1149 C   0  0  2  0  0  0  0  0  0  0  0  0
   20.8308  -11.6200  -15.4735 N   0  0  0  0  0  0  0  0  0  0  0  0
   20.0862   -9.3883  -15.3100 C   0  0  0  0  0  0  0  0  0  0  0  0
   19.6632   -9.3951  -14.1085 O   0  0  0  0  0  0  0  0  0  0  0  0
   20.6541   -8.1423  -15.7064 N   0  0  0  0  0  0  0  0  0  0  0  0
   20.6773   -6.9757  -14.8810 C   0  0  1  0  0  0  0  0  0  0  0  0
   22.1751   -6.6757  -14.6522 C   0  0  0  0  0  0  0  0  0  0  0  0
   22.3754   -5.1967  -13.6362 S   0  0  0  0  0  0  0  0  0  0  0  0
   19.9691   -5.8035  -15.3752 C   0  0  0  0  0  0  0  0  0  0  0  0
   20.2411   -5.3913  -16.5579 O   0  0  0  0  0  0  0  0  0  0  0  0
   16.0693   -4.9422  -15.6309 C   0  0  0  0  0  0  0  0  0  0  0  0
   16.8581   -3.8479  -14.9490 C   0  0  1  0  0  0  0  0  0  0  0  0
   16.5978   -3.8940  -13.6041 O   0  0  0  0  0  0  0  0  0  0  0  0
   18.3199   -3.9029  -15.2923 C   0  0  2  0  0  0  0  0  0  0  0  0
   18.9864   -5.0416  -14.6869 N   0  0  0  0  0  0  0  0  0  0  0  0
   18.9642   -2.6294  -14.9379 C   0  0  0  0  0  0  0  0  0  0  0  0
   18.5596   -1.4250  -15.4376 O   0  0  0  0  0  0  0  0  0  0  0  0
   19.9336   -2.6566  -14.1358 O   0  0  0  0  0  0  0  0  0  0  0  0
  2  1  1  0
  2  3  1  0
  3  5  1  0
  3  4  1  6
  5  7  1  0
  5  6  1  1
  7  9  1  0
  7  8  2  0
  9 10  1  0
 10 11  1  6
 10 13  1  0
 12 11  1  0
 13 14  2  0
 16 15  1  6
 16 18  1  0
 17 16  1  0
 18 20  1  0
 18 19  1  1
 19 13  1  0
 20 21  1  0
 22 20  2  0
M  END
$$$$
