ICT.pdb
     RDKit          3D

 22 21  0  0  1  0  0  0  0  0999 V2000
   17.0549  -15.4062  -16.9529 C   0  0  0  0  0  0  0  0  0  0  0  0
   17.2084  -14.9408  -15.5149 C   0  0  0  0  0  0  0  0  0  0  0  0
   16.7275  -13.5269  -15.3478 C   0  0  2  0  0  0  0  0  0  0  0  0
   17.3787  -12.6042  -16.3520 C   0  0  0  0  0  0  0  0  0  0  0  0
   16.8136  -13.0352  -13.9468 C   0  0  2  0  0  0  0  0  0  0  0  0
   16.0593  -14.0004  -13.0975 N   0  0  0  0  0  0  0  0  0  0  0  0
   16.2517  -11.7196  -13.6650 C   0  0  0  0  0  0  0  0  0  0  0  0
   15.0640  -11.4586  -14.0441 O   0  0  0  0  0  0  0  0  0  0  0  0
   16.8832  -10.6368  -12.9861 N   0  0  0  0  0  0  0  0  0  0  0  0
   16.3182   -9.3294  -12.8673 C   0  0  1  0  0  0  0  0  0  0  0  0
   16.0010   -9.1644  -11.3646 C   0  0  0  0  0  0  0  0  0  0  0  0
   17.2268  -10.0307  -10.3612 S   0  0  0  0  0  0  0  0  0  0  0  0
   17.1147   -8.2183  -13.3683 C   0  0  0  0  0  0  0  0  0  0  0  0
   18.3709   -8.2166  -13.1138 O   0  0  0  0  0  0  0  0  0  0  0  0
   18.0965   -7.0378  -16.8843 C   0  0  0  0  0  0  0  0  0  0  0  0
   17.4370   -5.9116  -16.1218 C   0  0  1  0  0  0  0  0  0  0  0  0
   16.1480   -5.7770  -16.5679 O   0  0  0  0  0  0  0  0  0  0  0  0
   17.5552   -6.0870  -14.6341 C   0  0  2  0  0  0  0  0  0  0  0  0
   16.6557   -7.1068  -14.1256 N   0  0  0  0  0  0  0  0  0  0  0  0
   17.3643   -4.7930  -13.9621 C   0  0  0  0  0  0  0  0  0  0  0  0
   16.3448   -4.5511  -13.0868 O   0  0  0  0  0  0  0  0  0  0  0  0
   18.1818   -3.8686  -14.2088 O   0  0  0  0  0  0  0  0  0  0  0  0
  2  1  1  0
  2  3  1  0
  3  5  1  0
  3  4  1  6
  5  7  1  0
  5  6  1  1
  7  9  1  0
  7  8  2  0
  9 10  1  0
 10 11  1  1
 10 13  1  0
 12 11  1  0
 13 14  2  0
 16 15  1  6
 16 18  1  0
 17 16  1  0
 18 20  1  0
 18 19  1  1
 19 13  1  0
 20 21  1  0
 22 20  2  0
M  END
$$$$
