ICT.pdb
     RDKit          3D

 22 21  0  0  1  0  0  0  0  0999 V2000
   19.1257  -15.0233  -18.4725 C   0  0  0  0  0  0  0  0  0  0  0  0
   20.3539  -14.1721  -18.1991 C   0  0  0  0  0  0  0  0  0  0  0  0
   20.0253  -13.0208  -17.2908 C   0  0  2  0  0  0  0  0  0  0  0  0
   18.8086  -12.2684  -17.7780 C   0  0  0  0  0  0  0  0  0  0  0  0
   21.1910  -12.1428  -17.0044 C   0  0  2  0  0  0  0  0  0  0  0  0
   22.2592  -13.0083  -16.4281 N   0  0  0  0  0  0  0  0  0  0  0  0
   20.9906  -11.0559  -16.0533 C   0  0  0  0  0  0  0  0  0  0  0  0
   20.5120  -11.3193  -14.9026 O   0  0  0  0  0  0  0  0  0  0  0  0
   21.2764   -9.6729  -16.2479 N   0  0  0  0  0  0  0  0  0  0  0  0
   20.9398   -8.6475  -15.3108 C   0  0  1  0  0  0  0  0  0  0  0  0
   22.2949   -8.0947  -14.8170 C   0  0  0  0  0  0  0  0  0  0  0  0
   23.0943   -9.2767  -13.7107 S   0  0  0  0  0  0  0  0  0  0  0  0
   20.0703   -7.5802  -15.7846 C   0  0  0  0  0  0  0  0  0  0  0  0
   20.2934   -7.0960  -16.9502 O   0  0  0  0  0  0  0  0  0  0  0  0
   16.0415   -7.5282  -15.9356 C   0  0  0  0  0  0  0  0  0  0  0  0
   16.6351   -6.2873  -15.3091 C   0  0  1  0  0  0  0  0  0  0  0  0
   16.4567   -6.3543  -13.9518 O   0  0  0  0  0  0  0  0  0  0  0  0
   18.0604   -6.0648  -15.7295 C   0  0  2  0  0  0  0  0  0  0  0  0
   18.9750   -6.9954  -15.0930 N   0  0  0  0  0  0  0  0  0  0  0  0
   18.4384   -4.6638  -15.4908 C   0  0  0  0  0  0  0  0  0  0  0  0
   19.4086   -4.2944  -14.6040 O   0  0  0  0  0  0  0  0  0  0  0  0
   17.8363   -3.7672  -16.1369 O   0  0  0  0  0  0  0  0  0  0  0  0
  2  1  1  0
  2  3  1  0
  3  5  1  0
  3  4  1  6
  5  7  1  0
  5  6  1  1
  7  9  1  0
  7  8  2  0
  9 10  1  0
 10 11  1  6
 10 13  1  0
 12 11  1  0
 13 14  2  0
 16 15  1  6
 16 18  1  0
 17 16  1  0
 18 20  1  0
 18 19  1  1
 19 13  1  0
 20 21  1  0
 22 20  2  0
M  END
$$$$
