ICT.pdb
     RDKit          3D

 22 21  0  0  1  0  0  0  0  0999 V2000
   12.7324  -26.2144   -8.2139 C   0  0  0  0  0  0  0  0  0  0  0  0
   13.5609  -25.4506   -7.1952 C   0  0  0  0  0  0  0  0  0  0  0  0
   13.4635  -23.9676   -7.4184 C   0  0  2  0  0  0  0  0  0  0  0  0
   13.8644  -23.5980   -8.8278 C   0  0  0  0  0  0  0  0  0  0  0  0
   14.1563  -23.1662   -6.3746 C   0  0  2  0  0  0  0  0  0  0  0  0
   15.6205  -23.3671   -6.5690 N   0  0  0  0  0  0  0  0  0  0  0  0
   13.8808  -23.5018   -4.9826 C   0  0  0  0  0  0  0  0  0  0  0  0
   12.6758  -23.6973   -4.6188 O   0  0  0  0  0  0  0  0  0  0  0  0
   14.8257  -23.6510   -3.9256 N   0  0  0  0  0  0  0  0  0  0  0  0
   14.4786  -24.0209   -2.5894 C   0  0  1  0  0  0  0  0  0  0  0  0
   15.1125  -25.4139   -2.3812 C   0  0  0  0  0  0  0  0  0  0  0  0
   16.8355  -25.4113   -2.9209 S   0  0  0  0  0  0  0  0  0  0  0  0
   14.8600  -23.0986   -1.5293 C   0  0  0  0  0  0  0  0  0  0  0  0
   15.9686  -22.4673   -1.6520 O   0  0  0  0  0  0  0  0  0  0  0  0
   12.5746  -22.1849    2.0669 C   0  0  0  0  0  0  0  0  0  0  0  0
   13.4892  -21.1910    1.3886 C   0  0  1  0  0  0  0  0  0  0  0  0
   13.9025  -20.2719    2.3175 O   0  0  0  0  0  0  0  0  0  0  0  0
   14.6121  -21.8640    0.6509 C   0  0  2  0  0  0  0  0  0  0  0  0
   14.1322  -22.8058   -0.3442 N   0  0  0  0  0  0  0  0  0  0  0  0
   15.5344  -22.4908    1.6095 C   0  0  0  0  0  0  0  0  0  0  0  0
   16.3268  -21.7739    2.4593 O   0  0  0  0  0  0  0  0  0  0  0  0
   15.5921  -23.7475    1.6442 O   0  0  0  0  0  0  0  0  0  0  0  0
  2  1  1  0
  2  3  1  0
  3  5  1  0
  3  4  1  6
  5  7  1  0
  5  6  1  6
  7  9  1  0
  7  8  2  0
  9 10  1  0
 10 11  1  1
 10 13  1  0
 12 11  1  0
 13 14  2  0
 16 15  1  1
 16 18  1  0
 17 16  1  0
 18 20  1  0
 18 19  1  6
 19 13  1  0
 20 21  1  0
 22 20  2  0
M  END
$$$$
