ICT.pdb
     RDKit          3D

 22 21  0  0  1  0  0  0  0  0999 V2000
   17.9762  -10.4847  -21.2855 C   0  0  0  0  0  0  0  0  0  0  0  0
   18.9797  -11.1703  -20.3741 C   0  0  0  0  0  0  0  0  0  0  0  0
   19.3101  -10.3106  -19.1865 C   0  0  2  0  0  0  0  0  0  0  0  0
   19.7910   -8.9439  -19.6161 C   0  0  0  0  0  0  0  0  0  0  0  0
   20.2103  -10.9762  -18.2076 C   0  0  2  0  0  0  0  0  0  0  0  0
   19.5254  -12.2224  -17.7605 N   0  0  0  0  0  0  0  0  0  0  0  0
   20.5420  -10.2368  -16.9953 C   0  0  0  0  0  0  0  0  0  0  0  0
   19.6701  -10.1366  -16.0722 O   0  0  0  0  0  0  0  0  0  0  0  0
   21.7718   -9.5837  -16.6899 N   0  0  0  0  0  0  0  0  0  0  0  0
   22.0350   -8.9113  -15.4565 C   0  0  1  0  0  0  0  0  0  0  0  0
   23.3475   -9.5344  -14.9320 C   0  0  0  0  0  0  0  0  0  0  0  0
   23.0520  -11.2062  -14.3176 S   0  0  0  0  0  0  0  0  0  0  0  0
   22.1163   -7.4583  -15.5014 C   0  0  0  0  0  0  0  0  0  0  0  0
   22.8715   -6.9257  -16.3895 O   0  0  0  0  0  0  0  0  0  0  0  0
   19.5392   -4.7613  -16.2489 C   0  0  0  0  0  0  0  0  0  0  0  0
   20.2306   -4.4201  -14.9489 C   0  0  1  0  0  0  0  0  0  0  0  0
   19.3701   -4.6799  -13.9142 O   0  0  0  0  0  0  0  0  0  0  0  0
   21.5655   -5.0978  -14.8204 C   0  0  2  0  0  0  0  0  0  0  0  0
   21.4412   -6.5351  -14.6577 N   0  0  0  0  0  0  0  0  0  0  0  0
   22.3362   -4.4803  -13.7307 C   0  0  0  0  0  0  0  0  0  0  0  0
   22.7026   -3.1651  -13.7295 O   0  0  0  0  0  0  0  0  0  0  0  0
   22.6711   -5.2024  -12.7560 O   0  0  0  0  0  0  0  0  0  0  0  0
  2  1  1  0
  2  3  1  0
  3  5  1  0
  3  4  1  6
  5  7  1  0
  5  6  1  1
  7  9  1  0
  7  8  2  0
  9 10  1  0
 10 11  1  6
 10 13  1  0
 12 11  1  0
 13 14  2  0
 16 15  1  6
 16 18  1  0
 17 16  1  0
 18 20  1  0
 18 19  1  1
 19 13  1  0
 20 21  1  0
 22 20  2  0
M  END
$$$$
