ICT.pdb
     RDKit          3D

 22 21  0  0  1  0  0  0  0  0999 V2000
   16.6062  -12.6690  -16.9912 C   0  0  0  0  0  0  0  0  0  0  0  0
   17.9206  -11.9515  -16.7354 C   0  0  0  0  0  0  0  0  0  0  0  0
   18.3839  -11.2144  -17.9603 C   0  0  2  0  0  0  0  0  0  0  0  0
   18.4513  -12.1318  -19.1593 C   0  0  0  0  0  0  0  0  0  0  0  0
   19.6285  -10.4300  -17.7423 C   0  0  2  0  0  0  0  0  0  0  0  0
   20.6943  -11.3986  -17.3577 N   0  0  0  0  0  0  0  0  0  0  0  0
   19.6037   -9.4154  -16.6954 C   0  0  0  0  0  0  0  0  0  0  0  0
   18.7959   -8.4361  -16.8002 O   0  0  0  0  0  0  0  0  0  0  0  0
   20.3981   -9.3737  -15.5124 N   0  0  0  0  0  0  0  0  0  0  0  0
   20.2994   -8.3510  -14.5189 C   0  0  1  0  0  0  0  0  0  0  0  0
   20.6815   -9.0427  -13.1917 C   0  0  0  0  0  0  0  0  0  0  0  0
   20.5478   -7.8838  -11.8137 S   0  0  0  0  0  0  0  0  0  0  0  0
   21.0835   -7.1434  -14.7349 C   0  0  0  0  0  0  0  0  0  0  0  0
   22.3152   -7.2773  -15.0632 O   0  0  0  0  0  0  0  0  0  0  0  0
   20.2316   -4.2030  -17.1500 C   0  0  0  0  0  0  0  0  0  0  0  0
   20.6887   -3.6554  -15.8174 C   0  0  1  0  0  0  0  0  0  0  0  0
   19.6027   -3.1366  -15.1617 O   0  0  0  0  0  0  0  0  0  0  0  0
   21.4585   -4.6702  -15.0201 C   0  0  2  0  0  0  0  0  0  0  0  0
   20.6364   -5.7990  -14.6233 N   0  0  0  0  0  0  0  0  0  0  0  0
   22.0997   -4.0181  -13.8684 C   0  0  0  0  0  0  0  0  0  0  0  0
   23.0108   -3.0093  -13.9952 O   0  0  0  0  0  0  0  0  0  0  0  0
   21.7905   -4.4124  -12.7140 O   0  0  0  0  0  0  0  0  0  0  0  0
  2  1  1  0
  2  3  1  0
  3  5  1  0
  3  4  1  6
  5  7  1  0
  5  6  1  1
  7  9  1  0
  7  8  2  0
  9 10  1  0
 10 11  1  1
 10 13  1  0
 12 11  1  0
 13 14  2  0
 16 15  1  6
 16 18  1  0
 17 16  1  0
 18 20  1  0
 18 19  1  1
 19 13  1  0
 20 21  1  0
 22 20  2  0
M  END
$$$$
