ICT.pdb
     RDKit          3D

 22 21  0  0  1  0  0  0  0  0999 V2000
   16.5742  -14.3588  -18.9676 C   0  0  0  0  0  0  0  0  0  0  0  0
   18.0131  -14.3352  -18.4811 C   0  0  0  0  0  0  0  0  0  0  0  0
   18.2805  -13.1216  -17.6360 C   0  0  2  0  0  0  0  0  0  0  0  0
   17.8557  -11.8560  -18.3443 C   0  0  0  0  0  0  0  0  0  0  0  0
   19.6680  -13.0666  -17.1034 C   0  0  2  0  0  0  0  0  0  0  0  0
   19.8722  -14.2971  -16.2871 N   0  0  0  0  0  0  0  0  0  0  0  0
   20.0071  -11.9432  -16.2380 C   0  0  0  0  0  0  0  0  0  0  0  0
   19.4531  -11.8521  -15.0946 O   0  0  0  0  0  0  0  0  0  0  0  0
   20.9224  -10.8854  -16.5127 N   0  0  0  0  0  0  0  0  0  0  0  0
   21.0728   -9.7250  -15.6919 C   0  0  1  0  0  0  0  0  0  0  0  0
   22.5917   -9.6079  -15.4370 C   0  0  0  0  0  0  0  0  0  0  0  0
   23.0838  -10.6609  -14.0553 S   0  0  0  0  0  0  0  0  0  0  0  0
   20.5213   -8.4786  -16.2039 C   0  0  0  0  0  0  0  0  0  0  0  0
   20.8687   -8.1060  -17.3800 O   0  0  0  0  0  0  0  0  0  0  0  0
   16.6770   -7.4533  -16.4221 C   0  0  0  0  0  0  0  0  0  0  0  0
   17.5297   -6.3516  -15.8358 C   0  0  1  0  0  0  0  0  0  0  0  0
   17.3090   -6.2997  -14.4841 O   0  0  0  0  0  0  0  0  0  0  0  0
   18.9769   -6.4902  -16.2154 C   0  0  2  0  0  0  0  0  0  0  0  0
   19.6203   -7.6027  -15.5400 N   0  0  0  0  0  0  0  0  0  0  0  0
   19.6782   -5.2187  -15.9826 C   0  0  0  0  0  0  0  0  0  0  0  0
   20.6959   -5.0827  -15.0828 O   0  0  0  0  0  0  0  0  0  0  0  0
   19.3194   -4.2117  -16.6467 O   0  0  0  0  0  0  0  0  0  0  0  0
  2  1  1  0
  2  3  1  0
  3  5  1  0
  3  4  1  6
  5  7  1  0
  5  6  1  1
  7  9  1  0
  7  8  2  0
  9 10  1  0
 10 11  1  6
 10 13  1  0
 12 11  1  0
 13 14  2  0
 16 15  1  1
 16 18  1  0
 17 16  1  0
 18 20  1  0
 18 19  1  1
 19 13  1  0
 20 21  1  0
 22 20  2  0
M  END
$$$$
