ICT.pdb
     RDKit          3D

 22 21  0  0  1  0  0  0  0  0999 V2000
   28.3534  -18.6413  -18.2099 C   0  0  0  0  0  0  0  0  0  0  0  0
   28.7633  -19.6543  -17.1546 C   0  0  0  0  0  0  0  0  0  0  0  0
   27.6423  -19.9150  -16.1882 C   0  0  2  0  0  0  0  0  0  0  0  0
   27.0974  -18.6251  -15.6199 C   0  0  0  0  0  0  0  0  0  0  0  0
   27.9802  -20.9251  -15.1502 C   0  0  2  0  0  0  0  0  0  0  0  0
   28.3285  -22.1863  -15.8642 N   0  0  0  0  0  0  0  0  0  0  0  0
   26.9367  -21.2741  -14.1933 C   0  0  0  0  0  0  0  0  0  0  0  0
   25.9100  -21.9090  -14.5998 O   0  0  0  0  0  0  0  0  0  0  0  0
   26.9136  -20.9891  -12.7967 N   0  0  0  0  0  0  0  0  0  0  0  0
   25.7900  -21.2369  -11.9488 C   0  0  1  0  0  0  0  0  0  0  0  0
   26.2785  -20.8925  -10.5245 C   0  0  0  0  0  0  0  0  0  0  0  0
   24.9263  -21.0467   -9.3381 S   0  0  0  0  0  0  0  0  0  0  0  0
   24.5537  -20.5385  -12.2709 C   0  0  0  0  0  0  0  0  0  0  0  0
   24.5539  -19.2582  -12.2123 O   0  0  0  0  0  0  0  0  0  0  0  0
   22.8677  -19.5672  -15.1466 C   0  0  0  0  0  0  0  0  0  0  0  0
   21.7727  -20.2284  -14.3413 C   0  0  1  0  0  0  0  0  0  0  0  0
   21.4649  -21.4297  -14.9248 O   0  0  0  0  0  0  0  0  0  0  0  0
   22.1207  -20.3270  -12.8828 C   0  0  2  0  0  0  0  0  0  0  0  0
   23.3146  -21.1203  -12.6529 N   0  0  0  0  0  0  0  0  0  0  0  0
   20.9646  -20.8314  -12.1267 C   0  0  0  0  0  0  0  0  0  0  0  0
   20.9882  -21.9998  -11.4207 O   0  0  0  0  0  0  0  0  0  0  0  0
   19.9064  -20.1504  -12.1341 O   0  0  0  0  0  0  0  0  0  0  0  0
  2  1  1  0
  2  3  1  0
  3  5  1  0
  3  4  1  1
  5  7  1  0
  5  6  1  6
  7  9  1  0
  7  8  2  0
  9 10  1  0
 10 11  1  1
 10 13  1  0
 12 11  1  0
 13 14  2  0
 16 15  1  6
 16 18  1  0
 17 16  1  0
 18 20  1  0
 18 19  1  6
 19 13  1  0
 20 21  1  0
 22 20  2  0
M  END
$$$$
