ICT.pdb
     RDKit          3D

 22 21  0  0  1  0  0  0  0  0999 V2000
   26.1750  -24.6433  -16.7729 C   0  0  0  0  0  0  0  0  0  0  0  0
   27.5258  -25.3129  -16.9590 C   0  0  0  0  0  0  0  0  0  0  0  0
   27.3672  -26.7512  -17.3648 C   0  0  2  0  0  0  0  0  0  0  0  0
   26.4311  -27.4839  -16.4318 C   0  0  0  0  0  0  0  0  0  0  0  0
   28.6621  -27.4513  -17.5770 C   0  0  2  0  0  0  0  0  0  0  0  0
   29.3528  -26.7615  -18.7035 N   0  0  0  0  0  0  0  0  0  0  0  0
   28.6067  -28.8632  -17.9370 C   0  0  0  0  0  0  0  0  0  0  0  0
   27.8612  -29.2278  -18.9033 O   0  0  0  0  0  0  0  0  0  0  0  0
   29.3123  -29.9401  -17.3249 N   0  0  0  0  0  0  0  0  0  0  0  0
   29.2027  -31.3043  -17.7368 C   0  0  1  0  0  0  0  0  0  0  0  0
   30.6535  -31.7591  -18.0090 C   0  0  0  0  0  0  0  0  0  0  0  0
   31.3500  -30.8488  -19.4039 S   0  0  0  0  0  0  0  0  0  0  0  0
   28.5208  -32.2151  -16.8283 C   0  0  0  0  0  0  0  0  0  0  0  0
   28.8859  -32.2236  -15.5997 O   0  0  0  0  0  0  0  0  0  0  0  0
   25.0693  -32.3573  -15.3679 C   0  0  0  0  0  0  0  0  0  0  0  0
   25.3581  -33.6829  -16.0343 C   0  0  1  0  0  0  0  0  0  0  0  0
   24.6897  -33.7263  -17.2300 O   0  0  0  0  0  0  0  0  0  0  0  0
   26.8320  -33.9533  -16.1461 C   0  0  2  0  0  0  0  0  0  0  0  0
   27.4716  -33.1190  -17.1474 N   0  0  0  0  0  0  0  0  0  0  0  0
   27.0598  -35.3857  -16.3891 C   0  0  0  0  0  0  0  0  0  0  0  0
   26.6842  -36.3597  -15.5092 O   0  0  0  0  0  0  0  0  0  0  0  0
   27.6278  -35.7241  -17.4598 O   0  0  0  0  0  0  0  0  0  0  0  0
  2  1  1  0
  2  3  1  0
  3  5  1  0
  3  4  1  1
  5  7  1  0
  5  6  1  6
  7  9  1  0
  7  8  2  0
  9 10  1  0
 10 11  1  1
 10 13  1  0
 12 11  1  0
 13 14  2  0
 16 15  1  6
 16 18  1  0
 17 16  1  0
 18 20  1  0
 18 19  1  6
 19 13  1  0
 20 21  1  0
 22 20  2  0
M  END
$$$$
