ICT.pdb
     RDKit          3D

 22 21  0  0  1  0  0  0  0  0999 V2000
   29.7697  -21.5686  -10.1010 C   0  0  0  0  0  0  0  0  0  0  0  0
   28.4110  -20.9229   -9.8893 C   0  0  0  0  0  0  0  0  0  0  0  0
   27.5938  -20.9521  -11.1501 C   0  0  2  0  0  0  0  0  0  0  0  0
   28.3905  -20.4484  -12.3314 C   0  0  0  0  0  0  0  0  0  0  0  0
   26.2651  -20.2991  -11.0083 C   0  0  2  0  0  0  0  0  0  0  0  0
   25.5811  -20.9457   -9.8525 N   0  0  0  0  0  0  0  0  0  0  0  0
   25.3460  -20.4034  -12.1355 C   0  0  0  0  0  0  0  0  0  0  0  0
   25.6636  -19.8666  -13.2461 O   0  0  0  0  0  0  0  0  0  0  0  0
   24.0813  -21.0608  -12.1621 N   0  0  0  0  0  0  0  0  0  0  0  0
   23.2637  -21.1741  -13.3289 C   0  0  1  0  0  0  0  0  0  0  0  0
   21.9958  -21.9210  -12.8595 C   0  0  0  0  0  0  0  0  0  0  0  0
   21.5334  -21.3967  -11.1949 S   0  0  0  0  0  0  0  0  0  0  0  0
   22.9277  -19.9384  -14.0217 C   0  0  0  0  0  0  0  0  0  0  0  0
   22.3178  -19.0254  -13.3606 O   0  0  0  0  0  0  0  0  0  0  0  0
   25.1735  -17.2903  -15.4379 C   0  0  0  0  0  0  0  0  0  0  0  0
   24.1710  -17.6614  -16.5065 C   0  0  1  0  0  0  0  0  0  0  0  0
   24.8034  -18.4235  -17.4541 O   0  0  0  0  0  0  0  0  0  0  0  0
   22.9372  -18.2979  -15.9317 C   0  0  2  0  0  0  0  0  0  0  0  0
   23.2021  -19.6135  -15.3778 N   0  0  0  0  0  0  0  0  0  0  0  0
   21.8717  -18.3262  -16.9449 C   0  0  0  0  0  0  0  0  0  0  0  0
   21.3591  -19.4842  -17.4551 O   0  0  0  0  0  0  0  0  0  0  0  0
   21.4144  -17.2288  -17.3575 O   0  0  0  0  0  0  0  0  0  0  0  0
  2  1  1  0
  2  3  1  0
  3  5  1  0
  3  4  1  6
  5  7  1  0
  5  6  1  1
  7  9  1  0
  7  8  2  0
  9 10  1  0
 10 11  1  1
 10 13  1  0
 12 11  1  0
 13 14  2  0
 16 15  1  1
 16 18  1  0
 17 16  1  0
 18 20  1  0
 18 19  1  6
 19 13  1  0
 20 21  1  0
 22 20  2  0
M  END
$$$$
