GDQ.pdb
     RDKit          3D

 22 21  0  0  1  0  0  0  0  0999 V2000
   18.7678  -13.3241  -16.0834 N   0  0  0  0  0  0  0  0  0  0  0  0
   19.6551  -12.2817  -15.6414 C   0  0  0  0  0  0  0  0  0  0  0  0
   19.1541  -10.9869  -16.1682 C   0  0  0  0  0  0  0  0  0  0  0  0
   19.3335  -10.6202  -17.3610 O   0  0  0  0  0  0  0  0  0  0  0  0
   18.4254  -10.0700  -15.3272 N   0  0  0  0  0  0  0  0  0  0  0  0
   17.9422   -8.8137  -15.7968 C   0  0  1  0  0  0  0  0  0  0  0  0
   16.8073   -8.2355  -15.0269 C   0  0  0  0  0  0  0  0  0  0  0  0
   15.5694   -9.0408  -15.0963 C   0  0  0  0  0  0  0  0  0  0  0  0
   15.1450   -9.3920  -16.2227 O   0  0  0  0  0  0  0  0  0  0  0  0
   19.0886   -7.8489  -15.7539 C   0  0  0  0  0  0  0  0  0  0  0  0
   19.9168   -7.8167  -14.8114 O   0  0  0  0  0  0  0  0  0  0  0  0
   14.8607   -9.4227  -13.9759 O   0  0  0  0  0  0  0  0  0  0  0  0
   23.5713   -4.6792  -20.5915 N   0  0  0  0  0  0  0  0  0  0  0  0
   22.4531   -5.4037  -20.1043 C   0  0  0  0  0  0  0  0  0  0  0  0
   21.7498   -6.1504  -20.8514 O   0  0  0  0  0  0  0  0  0  0  0  0
   22.0438   -5.3365  -18.6861 C   0  0  0  0  0  0  0  0  0  0  0  0
   20.8522   -6.1456  -18.3452 C   0  0  0  0  0  0  0  0  0  0  0  0
   20.4907   -6.1450  -16.9088 C   0  0  2  0  0  0  0  0  0  0  0  0
   19.2373   -6.9409  -16.8213 N   0  0  0  0  0  0  0  0  0  0  0  0
   20.2129   -4.8790  -16.2456 C   0  0  0  0  0  0  0  0  0  0  0  0
   21.2416   -4.0123  -15.8337 O   0  0  0  0  0  0  0  0  0  0  0  0
   19.0475   -4.4287  -15.9726 O   0  0  0  0  0  0  0  0  0  0  0  0
  1  2  1  0
  3  2  1  0
  3  5  1  0
  4  3  2  0
  5  6  1  0
  6  7  1  1
  6 10  1  0
  7  8  1  0
  8 12  1  0
  9  8  2  0
 10 11  2  0
 10 19  1  0
 14 13  1  0
 14 16  1  0
 15 14  2  0
 17 16  1  0
 18 17  1  6
 19 18  1  0
 20 21  1  0
 20 18  1  0
 22 20  2  0
M  END
$$$$
