GDQ.pdb
     RDKit          3D

 22 21  0  0  1  0  0  0  0  0999 V2000
   16.5685  -12.6205  -15.1234 N   0  0  0  0  0  0  0  0  0  0  0  0
   15.7538  -11.5920  -15.7133 C   0  0  0  0  0  0  0  0  0  0  0  0
   16.6246  -10.4331  -16.0351 C   0  0  0  0  0  0  0  0  0  0  0  0
   17.7239  -10.5530  -16.6404 O   0  0  0  0  0  0  0  0  0  0  0  0
   16.2492   -9.0911  -15.6649 N   0  0  0  0  0  0  0  0  0  0  0  0
   16.9410   -7.9395  -16.1419 C   0  0  1  0  0  0  0  0  0  0  0  0
   16.1692   -6.6675  -16.1048 C   0  0  0  0  0  0  0  0  0  0  0  0
   14.8088   -6.7799  -16.6727 C   0  0  0  0  0  0  0  0  0  0  0  0
   14.6830   -7.1899  -17.8509 O   0  0  0  0  0  0  0  0  0  0  0  0
   18.1710   -7.7760  -15.3009 C   0  0  0  0  0  0  0  0  0  0  0  0
   18.1574   -7.8673  -14.0492 O   0  0  0  0  0  0  0  0  0  0  0  0
   13.6717   -6.4534  -15.9628 O   0  0  0  0  0  0  0  0  0  0  0  0
   23.3946  -10.1018  -17.3498 N   0  0  0  0  0  0  0  0  0  0  0  0
   23.8108   -9.4897  -16.1396 C   0  0  0  0  0  0  0  0  0  0  0  0
   24.9631   -9.6802  -15.6434 O   0  0  0  0  0  0  0  0  0  0  0  0
   22.9227   -8.5816  -15.3846 C   0  0  0  0  0  0  0  0  0  0  0  0
   21.5706   -8.4136  -15.9629 C   0  0  0  0  0  0  0  0  0  0  0  0
   20.6496   -7.5784  -15.1578 C   0  0  2  0  0  0  0  0  0  0  0  0
   19.3928   -7.5082  -15.9501 N   0  0  0  0  0  0  0  0  0  0  0  0
   21.0160   -6.2015  -14.8580 C   0  0  0  0  0  0  0  0  0  0  0  0
   20.4279   -5.1119  -15.5255 O   0  0  0  0  0  0  0  0  0  0  0  0
   21.8805   -5.8405  -13.9876 O   0  0  0  0  0  0  0  0  0  0  0  0
  1  2  1  0
  3  2  1  0
  3  5  1  0
  4  3  2  0
  5  6  1  0
  6  7  1  1
  6 10  1  0
  7  8  1  0
  8 12  1  0
  9  8  2  0
 10 11  2  0
 10 19  1  0
 14 13  1  0
 14 16  1  0
 15 14  2  0
 17 16  1  0
 18 17  1  6
 19 18  1  0
 20 21  1  0
 20 18  1  0
 22 20  2  0
M  END
$$$$
