GDQ.pdb
     RDKit          3D

 22 21  0  0  1  0  0  0  0  0999 V2000
   15.9409  -13.5586  -15.5043 N   0  0  0  0  0  0  0  0  0  0  0  0
   15.4060  -12.2622  -15.8249 C   0  0  0  0  0  0  0  0  0  0  0  0
   16.2919  -11.2305  -15.2284 C   0  0  0  0  0  0  0  0  0  0  0  0
   16.0530  -10.6862  -14.1167 O   0  0  0  0  0  0  0  0  0  0  0  0
   17.4890  -10.7933  -15.9028 N   0  0  0  0  0  0  0  0  0  0  0  0
   18.3132   -9.7429  -15.4033 C   0  0  1  0  0  0  0  0  0  0  0  0
   19.7160   -9.7380  -15.9004 C   0  0  0  0  0  0  0  0  0  0  0  0
   20.5592   -8.6866  -15.2926 C   0  0  0  0  0  0  0  0  0  0  0  0
   21.0187   -7.7845  -16.0322 O   0  0  0  0  0  0  0  0  0  0  0  0
   17.6666   -8.4459  -15.7865 C   0  0  0  0  0  0  0  0  0  0  0  0
   17.3344   -8.1728  -16.9656 O   0  0  0  0  0  0  0  0  0  0  0  0
   20.8625   -8.6548  -13.9470 O   0  0  0  0  0  0  0  0  0  0  0  0
   12.7161   -6.3231  -14.1218 N   0  0  0  0  0  0  0  0  0  0  0  0
   13.3320   -5.0479  -14.2052 C   0  0  0  0  0  0  0  0  0  0  0  0
   12.6620   -3.9706  -14.2336 O   0  0  0  0  0  0  0  0  0  0  0  0
   14.8012   -4.8984  -14.2565 C   0  0  0  0  0  0  0  0  0  0  0  0
   15.5563   -6.1706  -14.2111 C   0  0  0  0  0  0  0  0  0  0  0  0
   16.7136   -6.2397  -15.1329 C   0  0  2  0  0  0  0  0  0  0  0  0
   17.4240   -7.4963  -14.7741 N   0  0  0  0  0  0  0  0  0  0  0  0
   17.7159   -5.1842  -15.0970 C   0  0  0  0  0  0  0  0  0  0  0  0
   19.0610   -5.4447  -14.7778 O   0  0  0  0  0  0  0  0  0  0  0  0
   17.4958   -3.9486  -15.3418 O   0  0  0  0  0  0  0  0  0  0  0  0
  1  2  1  0
  3  2  1  0
  3  5  1  0
  4  3  2  0
  5  6  1  0
  6  7  1  6
  6 10  1  0
  7  8  1  0
  8 12  1  0
  9  8  2  0
 10 11  2  0
 10 19  1  0
 14 13  1  0
 14 16  1  0
 15 14  2  0
 17 16  1  0
 18 17  1  1
 19 18  1  0
 20 21  1  0
 20 18  1  0
 22 20  2  0
M  END
$$$$
