GDQ.pdb
     RDKit          3D

 22 21  0  0  1  0  0  0  0  0999 V2000
   13.2003  -12.8720  -10.5586 N   0  0  0  0  0  0  0  0  0  0  0  0
   13.2040  -12.0437  -11.7347 C   0  0  0  0  0  0  0  0  0  0  0  0
   14.6032  -11.6299  -12.0105 C   0  0  0  0  0  0  0  0  0  0  0  0
   15.5364  -11.7809  -11.1765 O   0  0  0  0  0  0  0  0  0  0  0  0
   14.9693  -11.0248  -13.2671 N   0  0  0  0  0  0  0  0  0  0  0  0
   16.2675  -10.4902  -13.5140 C   0  0  1  0  0  0  0  0  0  0  0  0
   16.8148  -10.7401  -14.8753 C   0  0  0  0  0  0  0  0  0  0  0  0
   17.1535  -12.1564  -15.1300 C   0  0  0  0  0  0  0  0  0  0  0  0
   16.2287  -12.9505  -15.4240 O   0  0  0  0  0  0  0  0  0  0  0  0
   16.1909   -9.0093  -13.2950 C   0  0  0  0  0  0  0  0  0  0  0  0
   15.1131   -8.3682  -13.3456 O   0  0  0  0  0  0  0  0  0  0  0  0
   18.4427  -12.6427  -15.0583 O   0  0  0  0  0  0  0  0  0  0  0  0
   15.2564   -7.0800   -8.6976 N   0  0  0  0  0  0  0  0  0  0  0  0
   15.8789   -5.8753   -9.1146 C   0  0  0  0  0  0  0  0  0  0  0  0
   15.8785   -4.8275   -8.3988 O   0  0  0  0  0  0  0  0  0  0  0  0
   16.5760   -5.7721  -10.4134 C   0  0  0  0  0  0  0  0  0  0  0  0
   16.6279   -7.0302  -11.1914 C   0  0  0  0  0  0  0  0  0  0  0  0
   17.2933   -6.9185  -12.5100 C   0  0  2  0  0  0  0  0  0  0  0  0
   17.3846   -8.3125  -13.0206 N   0  0  0  0  0  0  0  0  0  0  0  0
   18.6408   -6.3720  -12.5831 C   0  0  0  0  0  0  0  0  0  0  0  0
   18.8809   -4.9872  -12.6425 O   0  0  0  0  0  0  0  0  0  0  0  0
   19.7173   -7.0620  -12.6009 O   0  0  0  0  0  0  0  0  0  0  0  0
  1  2  1  0
  3  2  1  0
  3  5  1  0
  4  3  2  0
  5  6  1  0
  6  7  1  6
  6 10  1  0
  7  8  1  0
  8 12  1  0
  9  8  2  0
 10 11  2  0
 10 19  1  0
 14 13  1  0
 14 16  1  0
 15 14  2  0
 17 16  1  0
 18 17  1  1
 19 18  1  0
 20 21  1  0
 20 18  1  0
 22 20  2  0
M  END
$$$$
