GDQ.pdb
     RDKit          3D

 22 21  0  0  1  0  0  0  0  0999 V2000
   21.3360  -11.8102  -17.8997 N   0  0  0  0  0  0  0  0  0  0  0  0
   20.5337  -10.8662  -18.6308 C   0  0  0  0  0  0  0  0  0  0  0  0
   20.2386   -9.7151  -17.7404 C   0  0  0  0  0  0  0  0  0  0  0  0
   20.5067   -8.5238  -18.0538 O   0  0  0  0  0  0  0  0  0  0  0  0
   19.6205   -9.9066  -16.4519 N   0  0  0  0  0  0  0  0  0  0  0  0
   19.2429   -8.8194  -15.6108 C   0  0  1  0  0  0  0  0  0  0  0  0
   18.1462   -9.1065  -14.6464 C   0  0  0  0  0  0  0  0  0  0  0  0
   16.8103   -9.1954  -15.2733 C   0  0  0  0  0  0  0  0  0  0  0  0
   16.3759   -8.2016  -15.9023 O   0  0  0  0  0  0  0  0  0  0  0  0
   20.4601   -8.4060  -14.8398 C   0  0  0  0  0  0  0  0  0  0  0  0
   21.1808   -9.2224  -14.2159 O   0  0  0  0  0  0  0  0  0  0  0  0
   16.0207  -10.3242  -15.1965 O   0  0  0  0  0  0  0  0  0  0  0  0
   24.7076   -6.8081  -17.7402 N   0  0  0  0  0  0  0  0  0  0  0  0
   23.8471   -5.6962  -17.5508 C   0  0  0  0  0  0  0  0  0  0  0  0
   23.7787   -4.7408  -18.3832 O   0  0  0  0  0  0  0  0  0  0  0  0
   22.9680   -5.5889  -16.3681 C   0  0  0  0  0  0  0  0  0  0  0  0
   23.0633   -6.7209  -15.4193 C   0  0  0  0  0  0  0  0  0  0  0  0
   22.1312   -6.6492  -14.2704 C   0  0  2  0  0  0  0  0  0  0  0  0
   20.8049   -7.0398  -14.8187 N   0  0  0  0  0  0  0  0  0  0  0  0
   21.9303   -5.3748  -13.5956 C   0  0  0  0  0  0  0  0  0  0  0  0
   22.9203   -4.8010  -12.7772 O   0  0  0  0  0  0  0  0  0  0  0  0
   20.8723   -4.6602  -13.6673 O   0  0  0  0  0  0  0  0  0  0  0  0
  1  2  1  0
  3  2  1  0
  3  5  1  0
  4  3  2  0
  5  6  1  0
  6  7  1  1
  6 10  1  0
  7  8  1  0
  8 12  1  0
  9  8  2  0
 10 11  2  0
 10 19  1  0
 14 13  1  0
 14 16  1  0
 15 14  2  0
 17 16  1  0
 18 17  1  6
 19 18  1  0
 20 21  1  0
 20 18  1  0
 22 20  2  0
M  END
$$$$
