GDQ.pdb
     RDKit          3D

 22 21  0  0  1  0  0  0  0  0999 V2000
   23.2223  -31.8833   -2.8022 N   0  0  0  0  0  0  0  0  0  0  0  0
   24.6031  -31.6952   -3.1589 C   0  0  0  0  0  0  0  0  0  0  0  0
   25.3701  -32.8809   -2.7000 C   0  0  0  0  0  0  0  0  0  0  0  0
   24.8224  -33.8832   -2.1664 O   0  0  0  0  0  0  0  0  0  0  0  0
   26.8033  -32.9453   -2.8447 N   0  0  0  0  0  0  0  0  0  0  0  0
   27.5490  -34.1342   -2.5944 C   0  0  1  0  0  0  0  0  0  0  0  0
   28.7155  -34.3594   -3.4908 C   0  0  0  0  0  0  0  0  0  0  0  0
   28.3415  -34.7052   -4.8788 C   0  0  0  0  0  0  0  0  0  0  0  0
   27.1252  -34.7404   -5.1808 O   0  0  0  0  0  0  0  0  0  0  0  0
   28.0406  -34.0647   -1.1800 C   0  0  0  0  0  0  0  0  0  0  0  0
   28.8054  -33.1586   -0.7685 O   0  0  0  0  0  0  0  0  0  0  0  0
   29.2726  -34.9908   -5.8561 O   0  0  0  0  0  0  0  0  0  0  0  0
   26.7446  -31.0978    2.4755 N   0  0  0  0  0  0  0  0  0  0  0  0
   26.4599  -32.4532    2.7827 C   0  0  0  0  0  0  0  0  0  0  0  0
   26.5129  -32.9068    3.9667 O   0  0  0  0  0  0  0  0  0  0  0  0
   26.0745  -33.4213    1.7350 C   0  0  0  0  0  0  0  0  0  0  0  0
   26.6934  -34.7591    1.8685 C   0  0  0  0  0  0  0  0  0  0  0  0
   27.9829  -34.9212    1.1580 C   0  0  2  0  0  0  0  0  0  0  0  0
   27.6223  -35.0633   -0.2780 N   0  0  0  0  0  0  0  0  0  0  0  0
   28.8323  -36.0601    1.4761 C   0  0  0  0  0  0  0  0  0  0  0  0
   29.6316  -36.0930    2.6332 O   0  0  0  0  0  0  0  0  0  0  0  0
   28.9440  -37.1186    0.7673 O   0  0  0  0  0  0  0  0  0  0  0  0
  1  2  1  0
  3  2  1  0
  3  5  1  0
  4  3  2  0
  5  6  1  0
  6  7  1  6
  6 10  1  0
  7  8  1  0
  8 12  1  0
  9  8  2  0
 10 11  2  0
 10 19  1  0
 14 13  1  0
 14 16  1  0
 15 14  2  0
 17 16  1  0
 18 17  1  1
 19 18  1  0
 20 21  1  0
 20 18  1  0
 22 20  2  0
M  END
$$$$
