GDQ.pdb
     RDKit          3D

 22 21  0  0  1  0  0  0  0  0999 V2000
   16.1675  -11.1548  -10.9781 N   0  0  0  0  0  0  0  0  0  0  0  0
   15.7847  -10.4283   -9.7970 C   0  0  0  0  0  0  0  0  0  0  0  0
   15.7767   -8.9793  -10.1215 C   0  0  0  0  0  0  0  0  0  0  0  0
   15.6074   -8.5433  -11.2922 O   0  0  0  0  0  0  0  0  0  0  0  0
   15.9653   -7.9831   -9.0964 N   0  0  0  0  0  0  0  0  0  0  0  0
   15.9381   -6.5842   -9.3690 C   0  0  1  0  0  0  0  0  0  0  0  0
   15.4637   -5.7229   -8.2518 C   0  0  0  0  0  0  0  0  0  0  0  0
   13.9952   -5.7251   -8.0806 C   0  0  0  0  0  0  0  0  0  0  0  0
   13.4926   -6.4909   -7.2244 O   0  0  0  0  0  0  0  0  0  0  0  0
   17.3330   -6.1714   -9.7305 C   0  0  0  0  0  0  0  0  0  0  0  0
   18.3156   -6.3535   -8.9711 O   0  0  0  0  0  0  0  0  0  0  0  0
   13.1537   -4.9214   -8.8219 O   0  0  0  0  0  0  0  0  0  0  0  0
   21.7258   -8.1509  -14.3609 N   0  0  0  0  0  0  0  0  0  0  0  0
   21.1306   -8.0042  -13.0815 C   0  0  0  0  0  0  0  0  0  0  0  0
   20.9286   -8.9906  -12.3092 O   0  0  0  0  0  0  0  0  0  0  0  0
   20.7151   -6.6829  -12.5666 C   0  0  0  0  0  0  0  0  0  0  0  0
   19.4337   -6.6806  -11.8261 C   0  0  0  0  0  0  0  0  0  0  0  0
   18.9415   -5.3380  -11.4397 C   0  0  2  0  0  0  0  0  0  0  0  0
   17.5437   -5.5523  -10.9788 N   0  0  0  0  0  0  0  0  0  0  0  0
   18.8790   -4.2867  -12.4450 C   0  0  0  0  0  0  0  0  0  0  0  0
   17.7410   -4.0908  -13.2484 O   0  0  0  0  0  0  0  0  0  0  0  0
   19.8153   -3.4543  -12.7019 O   0  0  0  0  0  0  0  0  0  0  0  0
  1  2  1  0
  3  2  1  0
  3  5  1  0
  4  3  2  0
  5  6  1  0
  6  7  1  1
  6 10  1  0
  7  8  1  0
  8 12  1  0
  9  8  2  0
 10 11  2  0
 10 19  1  0
 14 13  1  0
 14 16  1  0
 15 14  2  0
 17 16  1  0
 18 17  1  6
 19 18  1  0
 20 21  1  0
 20 18  1  0
 22 20  2  0
M  END
$$$$
