GDQ.pdb
     RDKit          3D

 22 21  0  0  1  0  0  0  0  0999 V2000
   28.5485  -17.0008  -18.0475 N   0  0  0  0  0  0  0  0  0  0  0  0
   27.2273  -17.4070  -18.4461 C   0  0  0  0  0  0  0  0  0  0  0  0
   26.3999  -17.5703  -17.2239 C   0  0  0  0  0  0  0  0  0  0  0  0
   26.4397  -16.7592  -16.2596 O   0  0  0  0  0  0  0  0  0  0  0  0
   25.4950  -18.6833  -17.0776 N   0  0  0  0  0  0  0  0  0  0  0  0
   24.6220  -18.8229  -15.9593 C   0  0  1  0  0  0  0  0  0  0  0  0
   23.2425  -19.2823  -16.2771 C   0  0  0  0  0  0  0  0  0  0  0  0
   22.3515  -18.2038  -16.7555 C   0  0  0  0  0  0  0  0  0  0  0  0
   21.9029  -17.3824  -15.9212 O   0  0  0  0  0  0  0  0  0  0  0  0
   25.2496  -19.8103  -15.0221 C   0  0  0  0  0  0  0  0  0  0  0  0
   25.7958  -20.8698  -15.4148 O   0  0  0  0  0  0  0  0  0  0  0  0
   21.9920  -18.0618  -18.0800 O   0  0  0  0  0  0  0  0  0  0  0  0
   24.2724  -20.5389   -9.4927 N   0  0  0  0  0  0  0  0  0  0  0  0
   25.6425  -20.8693   -9.3299 C   0  0  0  0  0  0  0  0  0  0  0  0
   26.0713  -21.5110   -8.3226 O   0  0  0  0  0  0  0  0  0  0  0  0
   26.6564  -20.4892  -10.3353 C   0  0  0  0  0  0  0  0  0  0  0  0
   26.1358  -19.6993  -11.4736 C   0  0  0  0  0  0  0  0  0  0  0  0
   25.8916  -20.4774  -12.7100 C   0  0  2  0  0  0  0  0  0  0  0  0
   25.2215  -19.5307  -13.6412 N   0  0  0  0  0  0  0  0  0  0  0  0
   25.0409  -21.6575  -12.6518 C   0  0  0  0  0  0  0  0  0  0  0  0
   25.5651  -22.9434  -12.4265 O   0  0  0  0  0  0  0  0  0  0  0  0
   23.7700  -21.6591  -12.7935 O   0  0  0  0  0  0  0  0  0  0  0  0
  1  2  1  0
  3  2  1  0
  3  5  1  0
  4  3  2  0
  5  6  1  0
  6  7  1  6
  6 10  1  0
  7  8  1  0
  8 12  1  0
  9  8  2  0
 10 11  2  0
 10 19  1  0
 14 13  1  0
 14 16  1  0
 15 14  2  0
 17 16  1  0
 18 17  1  1
 19 18  1  0
 20 21  1  0
 20 18  1  0
 22 20  2  0
M  END
$$$$
