GDQ.pdb
     RDKit          3D

 22 21  0  0  1  0  0  0  0  0999 V2000
   16.3803  -14.0567  -14.8962 N   0  0  0  0  0  0  0  0  0  0  0  0
   15.6214  -12.8470  -14.7229 C   0  0  0  0  0  0  0  0  0  0  0  0
   16.5177  -11.8110  -14.1500 C   0  0  0  0  0  0  0  0  0  0  0  0
   16.7174  -11.6909  -12.9110 O   0  0  0  0  0  0  0  0  0  0  0  0
   17.2155  -10.8757  -14.9969 N   0  0  0  0  0  0  0  0  0  0  0  0
   18.0639   -9.8539  -14.4790 C   0  0  1  0  0  0  0  0  0  0  0  0
   19.0791   -9.3218  -15.4285 C   0  0  0  0  0  0  0  0  0  0  0  0
   20.0446  -10.3380  -15.8985 C   0  0  0  0  0  0  0  0  0  0  0  0
   20.4978  -11.1629  -15.0701 O   0  0  0  0  0  0  0  0  0  0  0  0
   17.1846   -8.7230  -14.0377 C   0  0  0  0  0  0  0  0  0  0  0  0
   16.1064   -8.4345  -14.6118 O   0  0  0  0  0  0  0  0  0  0  0  0
   20.4688  -10.4182  -17.2090 O   0  0  0  0  0  0  0  0  0  0  0  0
   15.5269   -7.7869   -8.4146 N   0  0  0  0  0  0  0  0  0  0  0  0
   15.2059   -6.5213   -8.9695 C   0  0  0  0  0  0  0  0  0  0  0  0
   14.6152   -5.6175   -8.3027 O   0  0  0  0  0  0  0  0  0  0  0  0
   15.5502   -6.1765  -10.3645 C   0  0  0  0  0  0  0  0  0  0  0  0
   16.3078   -7.2190  -11.0924 C   0  0  0  0  0  0  0  0  0  0  0  0
   16.7108   -6.8478  -12.4685 C   0  0  2  0  0  0  0  0  0  0  0  0
   17.5919   -7.9541  -12.9292 N   0  0  0  0  0  0  0  0  0  0  0  0
   17.4601   -5.6180  -12.6831 C   0  0  0  0  0  0  0  0  0  0  0  0
   16.8252   -4.3668  -12.7839 O   0  0  0  0  0  0  0  0  0  0  0  0
   18.7311   -5.5388  -12.7999 O   0  0  0  0  0  0  0  0  0  0  0  0
  1  2  1  0
  3  2  1  0
  3  5  1  0
  4  3  2  0
  5  6  1  0
  6  7  1  6
  6 10  1  0
  7  8  1  0
  8 12  1  0
  9  8  2  0
 10 11  2  0
 10 19  1  0
 14 13  1  0
 14 16  1  0
 15 14  2  0
 17 16  1  0
 18 17  1  1
 19 18  1  0
 20 21  1  0
 20 18  1  0
 22 20  2  0
M  END
$$$$
