GDQ.pdb
     RDKit          3D

 22 21  0  0  1  0  0  0  0  0999 V2000
   26.1847  -16.3919  -17.1847 N   0  0  0  0  0  0  0  0  0  0  0  0
   27.2591  -17.2444  -16.7509 C   0  0  0  0  0  0  0  0  0  0  0  0
   26.6856  -18.5573  -16.3605 C   0  0  0  0  0  0  0  0  0  0  0  0
   25.4981  -18.8886  -16.6240 O   0  0  0  0  0  0  0  0  0  0  0  0
   27.4720  -19.5342  -15.6491 N   0  0  0  0  0  0  0  0  0  0  0  0
   26.9593  -20.8113  -15.2771 C   0  0  1  0  0  0  0  0  0  0  0  0
   27.9407  -21.9297  -15.3094 C   0  0  0  0  0  0  0  0  0  0  0  0
   28.4999  -22.1924  -16.6525 C   0  0  0  0  0  0  0  0  0  0  0  0
   29.5477  -22.8751  -16.7426 O   0  0  0  0  0  0  0  0  0  0  0  0
   26.4210  -20.6889  -13.8835 C   0  0  0  0  0  0  0  0  0  0  0  0
   27.0493  -20.1193  -12.9583 O   0  0  0  0  0  0  0  0  0  0  0  0
   27.9192  -21.7191  -17.8111 O   0  0  0  0  0  0  0  0  0  0  0  0
   26.6874  -21.7656   -9.6046 N   0  0  0  0  0  0  0  0  0  0  0  0
   25.4686  -21.0467   -9.5021 C   0  0  0  0  0  0  0  0  0  0  0  0
   24.5018  -21.4478   -8.7846 O   0  0  0  0  0  0  0  0  0  0  0  0
   25.2553  -19.7754  -10.2243 C   0  0  0  0  0  0  0  0  0  0  0  0
   25.3679  -19.8720  -11.6970 C   0  0  0  0  0  0  0  0  0  0  0  0
   24.4911  -20.8891  -12.3220 C   0  0  2  0  0  0  0  0  0  0  0  0
   25.1538  -21.2397  -13.6066 N   0  0  0  0  0  0  0  0  0  0  0  0
   23.1191  -20.5361  -12.6580 C   0  0  0  0  0  0  0  0  0  0  0  0
   22.8100  -19.7029  -13.7485 O   0  0  0  0  0  0  0  0  0  0  0  0
   22.0797  -20.9281  -12.0245 O   0  0  0  0  0  0  0  0  0  0  0  0
  1  2  1  0
  3  2  1  0
  3  5  1  0
  4  3  2  0
  5  6  1  0
  6  7  1  1
  6 10  1  0
  7  8  1  0
  8 12  1  0
  9  8  2  0
 10 11  2  0
 10 19  1  0
 14 13  1  0
 14 16  1  0
 15 14  2  0
 17 16  1  0
 18 17  1  6
 19 18  1  0
 20 21  1  0
 20 18  1  0
 22 20  2  0
M  END
$$$$
