EYF.pdb
     RDKit          3D

 33 34  0  0  1  0  0  0  0  0999 V2000
    8.2538  -18.3431   20.8518 N   0  0  0  0  0  0  0  0  0  0  0  0
    9.6477  -18.1516   20.6615 C   0  0  1  0  0  0  0  0  0  0  0  0
    9.9224  -18.0139   19.2041 C   0  0  0  0  0  0  0  0  0  0  0  0
    9.4735  -19.1621   18.3537 C   0  0  0  0  0  0  0  0  0  0  0  0
   10.1189  -19.1334   17.0065 C   0  0  0  0  0  0  0  0  0  0  0  0
   11.0053  -18.3061   16.6798 O   0  0  0  0  0  0  0  0  0  0  0  0
   10.0724  -17.0005   21.4907 C   0  0  0  0  0  0  0  0  0  0  0  0
   11.2698  -16.6299   21.4740 O   0  0  0  0  0  0  0  0  0  0  0  0
    9.7153  -20.0678   16.0770 O   0  0  0  0  0  0  0  0  0  0  0  0
    7.3351  -13.1499   17.1108 O   0  0  0  0  0  0  0  0  0  0  0  0
    7.5770  -13.3659   18.4669 C   0  0  0  0  0  0  0  0  0  0  0  0
    8.7013  -12.8699   19.0917 C   0  0  0  0  0  0  0  0  0  0  0  0
    8.9464  -13.0813   20.4374 C   0  0  0  0  0  0  0  0  0  0  0  0
    8.0649  -13.8050   21.2147 C   0  0  0  0  0  0  0  0  0  0  0  0
    8.3297  -14.0314   22.6589 C   0  0  0  0  0  0  0  0  0  0  0  0
    9.4218  -15.0226   22.9255 C   0  0  2  0  0  0  0  0  0  0  0  0
    9.1292  -16.2999   22.3178 N   0  0  0  0  0  0  0  0  0  0  0  0
    9.4955  -15.1957   24.4015 C   0  0  0  0  0  0  0  0  0  0  0  0
   10.0094  -14.3067   25.1466 O   0  0  0  0  0  0  0  0  0  0  0  0
    6.9393  -14.3018   20.5899 C   0  0  0  0  0  0  0  0  0  0  0  0
    6.6934  -14.0900   19.2406 C   0  0  0  0  0  0  0  0  0  0  0  0
    8.9729  -16.3905   24.9642 N   0  0  0  0  0  0  0  0  0  0  0  0
    8.9865  -16.5696   26.4104 C   0  0  1  0  0  0  0  0  0  0  0  0
    7.6499  -16.1212   26.9135 C   0  0  0  0  0  0  0  0  0  0  0  0
    7.3979  -14.6826   26.8483 C   0  0  0  0  0  0  0  0  0  0  0  0
    6.2964  -14.1183   26.2278 C   0  0  0  0  0  0  0  0  0  0  0  0
    6.0790  -12.7614   26.1853 C   0  0  0  0  0  0  0  0  0  0  0  0
    6.9818  -11.9162   26.7777 C   0  0  0  0  0  0  0  0  0  0  0  0
    8.1014  -12.4290   27.4124 C   0  0  0  0  0  0  0  0  0  0  0  0
    8.2916  -13.8134   27.4371 C   0  0  0  0  0  0  0  0  0  0  0  0
    9.2248  -18.0025   26.6881 C   0  0  0  0  0  0  0  0  0  0  0  0
    9.3471  -18.5133   27.9793 O   0  0  0  0  0  0  0  0  0  0  0  0
    9.3261  -18.8133   25.7416 O   0  0  0  0  0  0  0  0  0  0  0  0
  2  1  1  6
  3  2  1  0
  4  3  1  0
  5  4  1  0
  5  6  2  0
  7  2  1  0
  7  8  2  0
  9  5  1  0
 10 11  1  0
 11 12  2  0
 12 13  1  0
 14 13  2  0
 14 15  1  0
 16 15  1  1
 16 17  1  0
 17  7  1  0
 18 16  1  0
 19 18  2  0
 20 14  1  0
 21 11  1  0
 21 20  2  0
 22 18  1  0
 23 24  1  6
 23 22  1  0
 24 25  1  0
 25 30  1  0
 26 25  2  0
 26 27  1  0
 27 28  2  0
 28 29  1  0
 30 29  2  0
 31 32  1  0
 31 23  1  0
 33 31  2  0
M  END
$$$$
