EYF.pdb
     RDKit          3D

 33 34  0  0  1  0  0  0  0  0999 V2000
    7.8363  -18.6206   21.3565 N   0  0  0  0  0  0  0  0  0  0  0  0
    9.0693  -18.3989   20.6882 C   0  0  1  0  0  0  0  0  0  0  0  0
    8.8365  -18.4405   19.2176 C   0  0  0  0  0  0  0  0  0  0  0  0
    7.5863  -19.1418   18.7839 C   0  0  0  0  0  0  0  0  0  0  0  0
    7.4742  -19.1947   17.2951 C   0  0  0  0  0  0  0  0  0  0  0  0
    6.4837  -19.6753   16.6909 O   0  0  0  0  0  0  0  0  0  0  0  0
    9.6476  -17.1336   21.1956 C   0  0  0  0  0  0  0  0  0  0  0  0
   10.7647  -16.7484   20.7771 O   0  0  0  0  0  0  0  0  0  0  0  0
    8.5171  -18.6871   16.5504 O   0  0  0  0  0  0  0  0  0  0  0  0
    7.6504  -12.7992   16.8882 O   0  0  0  0  0  0  0  0  0  0  0  0
    7.8535  -13.0840   18.2380 C   0  0  0  0  0  0  0  0  0  0  0  0
    7.0194  -13.9323   18.9344 C   0  0  0  0  0  0  0  0  0  0  0  0
    7.2163  -14.2184   20.2743 C   0  0  0  0  0  0  0  0  0  0  0  0
    8.2673  -13.6594   20.9728 C   0  0  0  0  0  0  0  0  0  0  0  0
    8.4771  -13.9672   22.4109 C   0  0  0  0  0  0  0  0  0  0  0  0
    9.4530  -15.0782   22.6556 C   0  0  2  0  0  0  0  0  0  0  0  0
    8.9454  -16.3382   22.1645 N   0  0  0  0  0  0  0  0  0  0  0  0
    9.6370  -15.1731   24.1290 C   0  0  0  0  0  0  0  0  0  0  0  0
   10.2866  -14.2932   24.7722 O   0  0  0  0  0  0  0  0  0  0  0  0
    9.1027  -12.8103   20.2762 C   0  0  0  0  0  0  0  0  0  0  0  0
    8.9053  -12.5232   18.9329 C   0  0  0  0  0  0  0  0  0  0  0  0
    9.0644  -16.2818   24.8070 N   0  0  0  0  0  0  0  0  0  0  0  0
    9.1549  -16.3610   26.2594 C   0  0  1  0  0  0  0  0  0  0  0  0
    7.7769  -16.1202   26.7917 C   0  0  0  0  0  0  0  0  0  0  0  0
    7.3043  -14.7383   26.7260 C   0  0  0  0  0  0  0  0  0  0  0  0
    7.9091  -13.6824   27.3865 C   0  0  0  0  0  0  0  0  0  0  0  0
    7.4482  -12.3897   27.3038 C   0  0  0  0  0  0  0  0  0  0  0  0
    6.3434  -12.1167   26.5388 C   0  0  0  0  0  0  0  0  0  0  0  0
    5.7004  -13.1370   25.8570 C   0  0  0  0  0  0  0  0  0  0  0  0
    6.1954  -14.4397   25.9629 C   0  0  0  0  0  0  0  0  0  0  0  0
    9.6509  -17.7094   26.6105 C   0  0  0  0  0  0  0  0  0  0  0  0
    9.9970  -18.6618   25.6532 O   0  0  0  0  0  0  0  0  0  0  0  0
    9.7739  -18.0361   27.8112 O   0  0  0  0  0  0  0  0  0  0  0  0
  2  1  1  1
  3  2  1  0
  4  3  1  0
  5  4  1  0
  5  6  2  0
  7  2  1  0
  7  8  2  0
  9  5  1  0
 10 11  1  0
 11 12  2  0
 12 13  1  0
 14 13  2  0
 14 15  1  0
 16 15  1  1
 16 17  1  0
 17  7  1  0
 18 16  1  0
 19 18  2  0
 20 14  1  0
 21 11  1  0
 21 20  2  0
 22 18  1  0
 23 24  1  1
 23 22  1  0
 24 25  1  0
 25 30  1  0
 26 25  2  0
 26 27  1  0
 27 28  2  0
 28 29  1  0
 30 29  2  0
 31 32  1  0
 31 23  1  0
 33 31  2  0
M  END
$$$$
