EYF.pdb
     RDKit          3D

 33 34  0  0  1  0  0  0  0  0999 V2000
   11.2080  -16.6428   18.5253 N   0  0  0  0  0  0  0  0  0  0  0  0
   11.4750  -17.5583   19.5772 C   0  0  1  0  0  0  0  0  0  0  0  0
   12.8516  -18.1013   19.4080 C   0  0  0  0  0  0  0  0  0  0  0  0
   13.2197  -19.2205   20.3326 C   0  0  0  0  0  0  0  0  0  0  0  0
   14.6528  -19.6131   20.1768 C   0  0  0  0  0  0  0  0  0  0  0  0
   15.1079  -20.1856   19.1559 O   0  0  0  0  0  0  0  0  0  0  0  0
   11.2275  -16.8675   20.8635 C   0  0  0  0  0  0  0  0  0  0  0  0
   12.0276  -15.9883   21.2613 O   0  0  0  0  0  0  0  0  0  0  0  0
   15.5166  -19.3290   21.2126 O   0  0  0  0  0  0  0  0  0  0  0  0
    6.8129  -12.6663   18.6093 O   0  0  0  0  0  0  0  0  0  0  0  0
    7.1811  -13.5023   19.6629 C   0  0  0  0  0  0  0  0  0  0  0  0
    7.8002  -13.0148   20.7941 C   0  0  0  0  0  0  0  0  0  0  0  0
    8.1679  -13.8400   21.8427 C   0  0  0  0  0  0  0  0  0  0  0  0
    7.9261  -15.1981   21.7961 C   0  0  0  0  0  0  0  0  0  0  0  0
    8.3217  -16.0825   22.9222 C   0  0  0  0  0  0  0  0  0  0  0  0
    9.7623  -16.4948   22.8904 C   0  0  2  0  0  0  0  0  0  0  0  0
   10.0803  -17.1915   21.6656 N   0  0  0  0  0  0  0  0  0  0  0  0
    9.9719  -17.4171   24.0390 C   0  0  0  0  0  0  0  0  0  0  0  0
   10.2828  -18.6342   23.8613 O   0  0  0  0  0  0  0  0  0  0  0  0
    7.3064  -15.6866   20.6641 C   0  0  0  0  0  0  0  0  0  0  0  0
    6.9378  -14.8595   19.6125 C   0  0  0  0  0  0  0  0  0  0  0  0
    9.8142  -16.9002   25.3524 N   0  0  0  0  0  0  0  0  0  0  0  0
   10.3737  -17.6291   26.4835 C   0  0  1  0  0  0  0  0  0  0  0  0
   11.4160  -16.7450   27.0939 C   0  0  0  0  0  0  0  0  0  0  0  0
   10.9195  -15.5282   27.7342 C   0  0  0  0  0  0  0  0  0  0  0  0
   10.5029  -14.4046   27.0406 C   0  0  0  0  0  0  0  0  0  0  0  0
   10.0341  -13.2739   27.6666 C   0  0  0  0  0  0  0  0  0  0  0  0
    9.9697  -13.2402   29.0359 C   0  0  0  0  0  0  0  0  0  0  0  0
   10.3743  -14.3379   29.7781 C   0  0  0  0  0  0  0  0  0  0  0  0
   10.8455  -15.4712   29.1098 C   0  0  0  0  0  0  0  0  0  0  0  0
    9.2731  -17.9135   27.4295 C   0  0  0  0  0  0  0  0  0  0  0  0
    9.4500  -18.6567   28.5956 O   0  0  0  0  0  0  0  0  0  0  0  0
    8.1229  -17.4813   27.1972 O   0  0  0  0  0  0  0  0  0  0  0  0
  2  1  1  6
  3  2  1  0
  4  3  1  0
  5  4  1  0
  5  6  2  0
  7  2  1  0
  7  8  2  0
  9  5  1  0
 10 11  1  0
 11 12  2  0
 12 13  1  0
 14 13  2  0
 14 15  1  0
 16 15  1  6
 16 17  1  0
 17  7  1  0
 18 16  1  0
 19 18  2  0
 20 14  1  0
 21 11  1  0
 21 20  2  0
 22 18  1  0
 23 24  1  1
 23 22  1  0
 24 25  1  0
 25 30  1  0
 26 25  2  0
 26 27  1  0
 27 28  2  0
 28 29  1  0
 30 29  2  0
 31 32  1  0
 31 23  1  0
 33 31  2  0
M  END
$$$$
