EYF.pdb
     RDKit          3D

 33 34  0  0  1  0  0  0  0  0999 V2000
    7.2184  -20.1223   17.3854 N   0  0  0  0  0  0  0  0  0  0  0  0
    8.3996  -19.6263   17.9973 C   0  0  1  0  0  0  0  0  0  0  0  0
    9.0403  -18.6401   17.0833 C   0  0  0  0  0  0  0  0  0  0  0  0
    9.6248  -19.2115   15.8284 C   0  0  0  0  0  0  0  0  0  0  0  0
   10.2052  -18.1454   14.9575 C   0  0  0  0  0  0  0  0  0  0  0  0
   10.2383  -16.9311   15.2764 O   0  0  0  0  0  0  0  0  0  0  0  0
    8.0403  -19.1003   19.3342 C   0  0  0  0  0  0  0  0  0  0  0  0
    6.9411  -18.5209   19.4998 O   0  0  0  0  0  0  0  0  0  0  0  0
   10.7310  -18.5210   13.7400 O   0  0  0  0  0  0  0  0  0  0  0  0
    4.2957  -23.2183   23.5758 O   0  0  0  0  0  0  0  0  0  0  0  0
    5.4026  -22.3915   23.3871 C   0  0  0  0  0  0  0  0  0  0  0  0
    6.4806  -22.7848   22.6232 C   0  0  0  0  0  0  0  0  0  0  0  0
    7.5818  -21.9683   22.4326 C   0  0  0  0  0  0  0  0  0  0  0  0
    7.6439  -20.7144   23.0062 C   0  0  0  0  0  0  0  0  0  0  0  0
    8.8267  -19.8393   22.8010 C   0  0  0  0  0  0  0  0  0  0  0  0
    8.6159  -18.7683   21.7740 C   0  0  2  0  0  0  0  0  0  0  0  0
    8.9362  -19.2441   20.4483 N   0  0  0  0  0  0  0  0  0  0  0  0
    9.5354  -17.6513   22.1214 C   0  0  0  0  0  0  0  0  0  0  0  0
   10.7619  -17.6797   21.7979 O   0  0  0  0  0  0  0  0  0  0  0  0
    6.5651  -20.3201   23.7709 C   0  0  0  0  0  0  0  0  0  0  0  0
    5.4609  -21.1387   23.9622 C   0  0  0  0  0  0  0  0  0  0  0  0
    9.0051  -16.5412   22.8309 N   0  0  0  0  0  0  0  0  0  0  0  0
    9.8527  -15.3855   23.0947 C   0  0  1  0  0  0  0  0  0  0  0  0
    8.9482  -14.1954   23.1720 C   0  0  0  0  0  0  0  0  0  0  0  0
    8.2404  -13.8557   21.9388 C   0  0  0  0  0  0  0  0  0  0  0  0
    6.8766  -14.0154   21.7614 C   0  0  0  0  0  0  0  0  0  0  0  0
    6.2332  -13.6827   20.5928 C   0  0  0  0  0  0  0  0  0  0  0  0
    6.9580  -13.1694   19.5480 C   0  0  0  0  0  0  0  0  0  0  0  0
    8.3260  -12.9894   19.6730 C   0  0  0  0  0  0  0  0  0  0  0  0
    8.9482  -13.3379   20.8749 C   0  0  0  0  0  0  0  0  0  0  0  0
   10.5584  -15.6223   24.3727 C   0  0  0  0  0  0  0  0  0  0  0  0
   11.6875  -14.9019   24.7589 O   0  0  0  0  0  0  0  0  0  0  0  0
   10.1458  -16.5020   25.1598 O   0  0  0  0  0  0  0  0  0  0  0  0
  2  1  1  6
  3  2  1  0
  4  3  1  0
  5  4  1  0
  5  6  2  0
  7  2  1  0
  7  8  2  0
  9  5  1  0
 10 11  1  0
 11 12  2  0
 12 13  1  0
 14 13  2  0
 14 15  1  0
 16 15  1  1
 16 17  1  0
 17  7  1  0
 18 16  1  0
 19 18  2  0
 20 14  1  0
 21 11  1  0
 21 20  2  0
 22 18  1  0
 23 24  1  1
 23 22  1  0
 24 25  1  0
 25 30  1  0
 26 25  2  0
 26 27  1  0
 27 28  2  0
 28 29  1  0
 30 29  2  0
 31 32  1  0
 31 23  1  0
 33 31  2  0
M  END
$$$$
