EYF.pdb
     RDKit          3D

 33 34  0  0  1  0  0  0  0  0999 V2000
    8.9971  -18.2782   20.5535 N   0  0  0  0  0  0  0  0  0  0  0  0
   10.2997  -17.7148   20.5127 C   0  0  1  0  0  0  0  0  0  0  0  0
   10.7111  -17.5504   19.0906 C   0  0  0  0  0  0  0  0  0  0  0  0
   10.7396  -18.8092   18.2797 C   0  0  0  0  0  0  0  0  0  0  0  0
   11.9571  -18.8793   17.4166 C   0  0  0  0  0  0  0  0  0  0  0  0
   12.8591  -18.0055   17.4176 O   0  0  0  0  0  0  0  0  0  0  0  0
   10.2874  -16.4668   21.3098 C   0  0  0  0  0  0  0  0  0  0  0  0
   11.3354  -15.7876   21.4181 O   0  0  0  0  0  0  0  0  0  0  0  0
   12.0916  -19.9637   16.5764 O   0  0  0  0  0  0  0  0  0  0  0  0
    8.2120  -13.7535   16.5586 O   0  0  0  0  0  0  0  0  0  0  0  0
    8.2270  -13.7519   17.9529 C   0  0  0  0  0  0  0  0  0  0  0  0
    8.8782  -14.7307   18.6729 C   0  0  0  0  0  0  0  0  0  0  0  0
    8.8963  -14.7340   20.0569 C   0  0  0  0  0  0  0  0  0  0  0  0
    8.2561  -13.7464   20.7779 C   0  0  0  0  0  0  0  0  0  0  0  0
    8.2762  -13.7516   22.2633 C   0  0  0  0  0  0  0  0  0  0  0  0
    9.0606  -14.8840   22.8537 C   0  0  2  0  0  0  0  0  0  0  0  0
    9.0881  -16.0216   21.9639 N   0  0  0  0  0  0  0  0  0  0  0  0
    8.3727  -15.2735   24.1143 C   0  0  0  0  0  0  0  0  0  0  0  0
    7.3134  -14.6894   24.4969 O   0  0  0  0  0  0  0  0  0  0  0  0
    7.6042  -12.7663   20.0577 C   0  0  0  0  0  0  0  0  0  0  0  0
    7.5858  -12.7629   18.6701 C   0  0  0  0  0  0  0  0  0  0  0  0
    8.9336  -16.3239   24.8882 N   0  0  0  0  0  0  0  0  0  0  0  0
    9.3021  -16.0760   26.2762 C   0  0  1  0  0  0  0  0  0  0  0  0
    8.0350  -15.7669   27.0107 C   0  0  0  0  0  0  0  0  0  0  0  0
    7.5328  -14.4020   26.8619 C   0  0  0  0  0  0  0  0  0  0  0  0
    6.3425  -14.0808   26.2318 C   0  0  0  0  0  0  0  0  0  0  0  0
    5.8890  -12.7887   26.1099 C   0  0  0  0  0  0  0  0  0  0  0  0
    6.6349  -11.7618   26.6289 C   0  0  0  0  0  0  0  0  0  0  0  0
    7.8340  -12.0282   27.2696 C   0  0  0  0  0  0  0  0  0  0  0  0
    8.2655  -13.3533   27.3761 C   0  0  0  0  0  0  0  0  0  0  0  0
    9.9546  -17.2965   26.7976 C   0  0  0  0  0  0  0  0  0  0  0  0
   10.2241  -18.4095   26.0027 O   0  0  0  0  0  0  0  0  0  0  0  0
   10.2890  -17.3601   28.0008 O   0  0  0  0  0  0  0  0  0  0  0  0
  2  1  1  6
  3  2  1  0
  4  3  1  0
  5  4  1  0
  5  6  2  0
  7  2  1  0
  7  8  2  0
  9  5  1  0
 10 11  1  0
 11 12  2  0
 12 13  1  0
 14 13  2  0
 14 15  1  0
 16 15  1  6
 16 17  1  0
 17  7  1  0
 18 16  1  0
 19 18  2  0
 20 14  1  0
 21 11  1  0
 21 20  2  0
 22 18  1  0
 23 24  1  1
 23 22  1  0
 24 25  1  0
 25 30  1  0
 26 25  2  0
 26 27  1  0
 27 28  2  0
 28 29  1  0
 30 29  2  0
 31 32  1  0
 31 23  1  0
 33 31  2  0
M  END
$$$$
