EYF.pdb
     RDKit          3D

 33 34  0  0  1  0  0  0  0  0999 V2000
   11.8426  -17.1914   15.0245 N   0  0  0  0  0  0  0  0  0  0  0  0
   11.1920  -16.4425   16.0403 C   0  0  1  0  0  0  0  0  0  0  0  0
    9.7543  -16.8293   16.0806 C   0  0  0  0  0  0  0  0  0  0  0  0
    9.4784  -18.2346   16.5191 C   0  0  0  0  0  0  0  0  0  0  0  0
    8.0236  -18.5626   16.4296 C   0  0  0  0  0  0  0  0  0  0  0  0
    7.1528  -17.7501   16.0312 O   0  0  0  0  0  0  0  0  0  0  0  0
   11.9313  -16.6450   17.3074 C   0  0  0  0  0  0  0  0  0  0  0  0
   12.5694  -17.7080   17.4922 O   0  0  0  0  0  0  0  0  0  0  0  0
    7.6220  -19.8263   16.8059 O   0  0  0  0  0  0  0  0  0  0  0  0
   18.2955  -14.2756   16.6358 O   0  0  0  0  0  0  0  0  0  0  0  0
   17.1305  -14.3306   17.4000 C   0  0  0  0  0  0  0  0  0  0  0  0
   16.8593  -15.3939   18.2345 C   0  0  0  0  0  0  0  0  0  0  0  0
   15.7045  -15.4537   18.9952 C   0  0  0  0  0  0  0  0  0  0  0  0
   14.7693  -14.4397   18.9474 C   0  0  0  0  0  0  0  0  0  0  0  0
   13.5302  -14.5055   19.7642 C   0  0  0  0  0  0  0  0  0  0  0  0
   12.7199  -15.7454   19.5351 C   0  0  2  0  0  0  0  0  0  0  0  0
   11.9274  -15.6380   18.3322 N   0  0  0  0  0  0  0  0  0  0  0  0
   11.8085  -15.8862   20.7028 C   0  0  0  0  0  0  0  0  0  0  0  0
   12.0937  -15.3767   21.8293 O   0  0  0  0  0  0  0  0  0  0  0  0
   15.0403  -13.3751   18.1123 C   0  0  0  0  0  0  0  0  0  0  0  0
   16.1980  -13.3150   17.3495 C   0  0  0  0  0  0  0  0  0  0  0  0
   10.6000  -16.6112   20.5275 N   0  0  0  0  0  0  0  0  0  0  0  0
    9.6769  -16.7508   21.6465 C   0  0  1  0  0  0  0  0  0  0  0  0
    8.3394  -16.2832   21.1639 C   0  0  0  0  0  0  0  0  0  0  0  0
    8.2866  -14.9051   20.6787 C   0  0  0  0  0  0  0  0  0  0  0  0
    8.1392  -13.8013   21.5014 C   0  0  0  0  0  0  0  0  0  0  0  0
    8.0982  -12.5139   21.0206 C   0  0  0  0  0  0  0  0  0  0  0  0
    8.2066  -12.2956   19.6712 C   0  0  0  0  0  0  0  0  0  0  0  0
    8.3559  -13.3654   18.8036 C   0  0  0  0  0  0  0  0  0  0  0  0
    8.3938  -14.6611   19.3260 C   0  0  0  0  0  0  0  0  0  0  0  0
    9.6510  -18.1766   22.0386 C   0  0  0  0  0  0  0  0  0  0  0  0
    8.9900  -18.6372   23.1761 O   0  0  0  0  0  0  0  0  0  0  0  0
   10.2407  -19.0275   21.3373 O   0  0  0  0  0  0  0  0  0  0  0  0
  2  1  1  6
  3  2  1  0
  4  3  1  0
  5  4  1  0
  5  6  2  0
  7  2  1  0
  7  8  2  0
  9  5  1  0
 10 11  1  0
 11 12  2  0
 12 13  1  0
 14 13  2  0
 14 15  1  0
 16 15  1  1
 16 17  1  0
 17  7  1  0
 18 16  1  0
 19 18  2  0
 20 14  1  0
 21 11  1  0
 21 20  2  0
 22 18  1  0
 23 24  1  6
 23 22  1  0
 24 25  1  0
 25 30  1  0
 26 25  2  0
 26 27  1  0
 27 28  2  0
 28 29  1  0
 30 29  2  0
 31 32  1  0
 31 23  1  0
 33 31  2  0
M  END
$$$$
