EYF.pdb
     RDKit          3D

 33 34  0  0  1  0  0  0  0  0999 V2000
    9.1523  -18.5220   20.9109 N   0  0  0  0  0  0  0  0  0  0  0  0
   10.4739  -18.0032   20.8972 C   0  0  1  0  0  0  0  0  0  0  0  0
   10.9912  -18.0345   19.5008 C   0  0  0  0  0  0  0  0  0  0  0  0
    9.9666  -17.8163   18.4304 C   0  0  0  0  0  0  0  0  0  0  0  0
   10.5885  -17.7871   17.0722 C   0  0  0  0  0  0  0  0  0  0  0  0
    9.9375  -17.5965   16.0154 O   0  0  0  0  0  0  0  0  0  0  0  0
   10.4496  -16.6630   21.5266 C   0  0  0  0  0  0  0  0  0  0  0  0
   11.4972  -15.9757   21.5672 O   0  0  0  0  0  0  0  0  0  0  0  0
   11.9502  -17.9803   16.9811 O   0  0  0  0  0  0  0  0  0  0  0  0
    7.5412  -13.1899   16.6261 O   0  0  0  0  0  0  0  0  0  0  0  0
    7.6266  -13.4181   17.9990 C   0  0  0  0  0  0  0  0  0  0  0  0
    8.3211  -12.5692   18.8341 C   0  0  0  0  0  0  0  0  0  0  0  0
    8.4092  -12.7909   20.1975 C   0  0  0  0  0  0  0  0  0  0  0  0
    7.7982  -13.8826   20.7804 C   0  0  0  0  0  0  0  0  0  0  0  0
    7.8939  -14.1194   22.2439 C   0  0  0  0  0  0  0  0  0  0  0  0
    9.1552  -14.8118   22.6633 C   0  0  2  0  0  0  0  0  0  0  0  0
    9.2390  -16.1369   22.0942 N   0  0  0  0  0  0  0  0  0  0  0  0
    9.1117  -14.9252   24.1463 C   0  0  0  0  0  0  0  0  0  0  0  0
    8.9726  -13.9022   24.8837 O   0  0  0  0  0  0  0  0  0  0  0  0
    7.1027  -14.7327   19.9450 C   0  0  0  0  0  0  0  0  0  0  0  0
    7.0144  -14.5107   18.5780 C   0  0  0  0  0  0  0  0  0  0  0  0
    9.2309  -16.2168   24.7246 N   0  0  0  0  0  0  0  0  0  0  0  0
    9.1104  -16.3716   26.1686 C   0  0  1  0  0  0  0  0  0  0  0  0
    7.6864  -16.0703   26.5177 C   0  0  0  0  0  0  0  0  0  0  0  0
    7.3654  -14.6566   26.7070 C   0  0  0  0  0  0  0  0  0  0  0  0
    8.1939  -13.7560   27.3547 C   0  0  0  0  0  0  0  0  0  0  0  0
    7.8715  -12.4291   27.5148 C   0  0  0  0  0  0  0  0  0  0  0  0
    6.6824  -11.9607   27.0179 C   0  0  0  0  0  0  0  0  0  0  0  0
    5.8166  -12.8200   26.3612 C   0  0  0  0  0  0  0  0  0  0  0  0
    6.1755  -14.1629   26.2158 C   0  0  0  0  0  0  0  0  0  0  0  0
    9.4757  -17.7640   26.5080 C   0  0  0  0  0  0  0  0  0  0  0  0
    9.6291  -18.2080   27.8204 O   0  0  0  0  0  0  0  0  0  0  0  0
    9.6619  -18.6001   25.5971 O   0  0  0  0  0  0  0  0  0  0  0  0
  2  1  1  6
  3  2  1  0
  4  3  1  0
  5  4  1  0
  5  6  2  0
  7  2  1  0
  7  8  2  0
  9  5  1  0
 10 11  1  0
 11 12  2  0
 12 13  1  0
 14 13  2  0
 14 15  1  0
 16 15  1  6
 16 17  1  0
 17  7  1  0
 18 16  1  0
 19 18  2  0
 20 14  1  0
 21 11  1  0
 21 20  2  0
 22 18  1  0
 23 24  1  6
 23 22  1  0
 24 25  1  0
 25 30  1  0
 26 25  2  0
 26 27  1  0
 27 28  2  0
 28 29  1  0
 30 29  2  0
 31 32  1  0
 31 23  1  0
 33 31  2  0
M  END
$$$$
