EYF.pdb
     RDKit          3D

 33 34  0  0  1  0  0  0  0  0999 V2000
    8.7204  -18.7865   21.2930 N   0  0  0  0  0  0  0  0  0  0  0  0
   10.0825  -18.4798   21.0348 C   0  0  1  0  0  0  0  0  0  0  0  0
   10.3200  -18.5332   19.5653 C   0  0  0  0  0  0  0  0  0  0  0  0
    9.3083  -17.8181   18.7239 C   0  0  0  0  0  0  0  0  0  0  0  0
    9.6353  -17.9161   17.2694 C   0  0  0  0  0  0  0  0  0  0  0  0
    8.9214  -17.4200   16.3632 O   0  0  0  0  0  0  0  0  0  0  0  0
   10.3911  -17.1794   21.6726 C   0  0  0  0  0  0  0  0  0  0  0  0
   11.5258  -16.6676   21.5243 O   0  0  0  0  0  0  0  0  0  0  0  0
   10.7836  -18.5882   16.9094 O   0  0  0  0  0  0  0  0  0  0  0  0
    7.0385  -13.6757   17.1552 O   0  0  0  0  0  0  0  0  0  0  0  0
    7.3574  -13.8325   18.5035 C   0  0  0  0  0  0  0  0  0  0  0  0
    6.7304  -14.7725   19.2932 C   0  0  0  0  0  0  0  0  0  0  0  0
    7.0430  -14.9323   20.6320 C   0  0  0  0  0  0  0  0  0  0  0  0
    8.0055  -14.1482   21.2351 C   0  0  0  0  0  0  0  0  0  0  0  0
    8.3396  -14.3207   22.6723 C   0  0  0  0  0  0  0  0  0  0  0  0
    9.5771  -15.1315   22.9125 C   0  0  2  0  0  0  0  0  0  0  0  0
    9.4061  -16.4933   22.4622 N   0  0  0  0  0  0  0  0  0  0  0  0
    9.8115  -15.1346   24.3818 C   0  0  0  0  0  0  0  0  0  0  0  0
   10.4774  -14.2143   24.9470 O   0  0  0  0  0  0  0  0  0  0  0  0
    8.6335  -13.2071   20.4451 C   0  0  0  0  0  0  0  0  0  0  0  0
    8.3202  -13.0465   19.1028 C   0  0  0  0  0  0  0  0  0  0  0  0
    9.2686  -16.2015   25.1460 N   0  0  0  0  0  0  0  0  0  0  0  0
    9.4743  -16.2297   26.5884 C   0  0  1  0  0  0  0  0  0  0  0  0
    8.1756  -15.8325   27.2177 C   0  0  0  0  0  0  0  0  0  0  0  0
    7.7612  -14.4480   26.9967 C   0  0  0  0  0  0  0  0  0  0  0  0
    6.5840  -14.0851   26.3647 C   0  0  0  0  0  0  0  0  0  0  0  0
    6.2140  -12.7748   26.1741 C   0  0  0  0  0  0  0  0  0  0  0  0
    7.0341  -11.7717   26.6231 C   0  0  0  0  0  0  0  0  0  0  0  0
    8.2239  -12.0801   27.2623 C   0  0  0  0  0  0  0  0  0  0  0  0
    8.5695  -13.4226   27.4396 C   0  0  0  0  0  0  0  0  0  0  0  0
    9.8681  -17.6049   26.9640 C   0  0  0  0  0  0  0  0  0  0  0  0
   10.0670  -18.6180   26.0273 O   0  0  0  0  0  0  0  0  0  0  0  0
   10.0358  -17.8994   28.1676 O   0  0  0  0  0  0  0  0  0  0  0  0
  2  1  1  6
  3  2  1  0
  4  3  1  0
  5  4  1  0
  5  6  2  0
  7  2  1  0
  7  8  2  0
  9  5  1  0
 10 11  1  0
 11 12  2  0
 12 13  1  0
 14 13  2  0
 14 15  1  0
 16 15  1  1
 16 17  1  0
 17  7  1  0
 18 16  1  0
 19 18  2  0
 20 14  1  0
 21 11  1  0
 21 20  2  0
 22 18  1  0
 23 24  1  1
 23 22  1  0
 24 25  1  0
 25 30  1  0
 26 25  2  0
 26 27  1  0
 27 28  2  0
 28 29  1  0
 30 29  2  0
 31 32  1  0
 31 23  1  0
 33 31  2  0
M  END
$$$$
