EYF.pdb
     RDKit          3D

 33 34  0  0  1  0  0  0  0  0999 V2000
   11.3915  -19.1667   20.4289 N   0  0  0  0  0  0  0  0  0  0  0  0
   10.9974  -18.9025   21.7671 C   0  0  1  0  0  0  0  0  0  0  0  0
   10.3836  -20.1318   22.3421 C   0  0  0  0  0  0  0  0  0  0  0  0
    9.2133  -20.6806   21.5855 C   0  0  0  0  0  0  0  0  0  0  0  0
    8.6845  -21.9260   22.2191 C   0  0  0  0  0  0  0  0  0  0  0  0
    7.5865  -21.9829   22.8259 O   0  0  0  0  0  0  0  0  0  0  0  0
   12.1758  -18.3880   22.5017 C   0  0  0  0  0  0  0  0  0  0  0  0
   13.3244  -18.7795   22.1874 O   0  0  0  0  0  0  0  0  0  0  0  0
    9.4474  -23.0705   22.1292 O   0  0  0  0  0  0  0  0  0  0  0  0
   14.6554  -14.1694   18.6759 O   0  0  0  0  0  0  0  0  0  0  0  0
   14.3304  -14.4832   19.9951 C   0  0  0  0  0  0  0  0  0  0  0  0
   13.0249  -14.4960   20.4377 C   0  0  0  0  0  0  0  0  0  0  0  0
   12.6966  -14.8067   21.7459 C   0  0  0  0  0  0  0  0  0  0  0  0
   13.6744  -15.1194   22.6684 C   0  0  0  0  0  0  0  0  0  0  0  0
   13.3205  -15.4523   24.0722 C   0  0  0  0  0  0  0  0  0  0  0  0
   13.1424  -16.9198   24.3195 C   0  0  2  0  0  0  0  0  0  0  0  0
   12.0217  -17.4439   23.5738 N   0  0  0  0  0  0  0  0  0  0  0  0
   12.8730  -17.0820   25.7738 C   0  0  0  0  0  0  0  0  0  0  0  0
   13.7692  -16.8519   26.6418 O   0  0  0  0  0  0  0  0  0  0  0  0
   14.9814  -15.1069   22.2259 C   0  0  0  0  0  0  0  0  0  0  0  0
   15.3108  -14.7953   20.9144 C   0  0  0  0  0  0  0  0  0  0  0  0
   11.5775  -17.5050   26.1734 N   0  0  0  0  0  0  0  0  0  0  0  0
   11.2813  -17.6717   27.5906 C   0  0  1  0  0  0  0  0  0  0  0  0
   10.0298  -16.8975   27.8640 C   0  0  0  0  0  0  0  0  0  0  0  0
   10.1552  -15.4428   27.7905 C   0  0  0  0  0  0  0  0  0  0  0  0
   10.9647  -14.6936   28.6274 C   0  0  0  0  0  0  0  0  0  0  0  0
   11.0698  -13.3260   28.5341 C   0  0  0  0  0  0  0  0  0  0  0  0
   10.3491  -12.6593   27.5768 C   0  0  0  0  0  0  0  0  0  0  0  0
    9.5237  -13.3613   26.7135 C   0  0  0  0  0  0  0  0  0  0  0  0
    9.4404  -14.7510   26.8359 C   0  0  0  0  0  0  0  0  0  0  0  0
   11.1004  -19.1165   27.8496 C   0  0  0  0  0  0  0  0  0  0  0  0
   11.1957  -20.0828   26.8495 O   0  0  0  0  0  0  0  0  0  0  0  0
   10.8490  -19.5163   29.0075 O   0  0  0  0  0  0  0  0  0  0  0  0
  2  1  1  6
  3  2  1  0
  4  3  1  0
  5  4  1  0
  5  6  2  0
  7  2  1  0
  7  8  2  0
  9  5  1  0
 10 11  1  0
 11 12  2  0
 12 13  1  0
 14 13  2  0
 14 15  1  0
 16 15  1  1
 16 17  1  0
 17  7  1  0
 18 16  1  0
 19 18  2  0
 20 14  1  0
 21 11  1  0
 21 20  2  0
 22 18  1  0
 23 24  1  6
 23 22  1  0
 24 25  1  0
 25 30  1  0
 26 25  2  0
 26 27  1  0
 27 28  2  0
 28 29  1  0
 30 29  2  0
 31 32  1  0
 31 23  1  0
 33 31  2  0
M  END
$$$$
