EYF.pdb
     RDKit          3D

 33 34  0  0  1  0  0  0  0  0999 V2000
    5.6492  -17.3230   20.0296 N   0  0  0  0  0  0  0  0  0  0  0  0
    6.9076  -16.9703   20.5845 C   0  0  1  0  0  0  0  0  0  0  0  0
    7.2909  -15.6176   20.0927 C   0  0  0  0  0  0  0  0  0  0  0  0
    7.6534  -15.5396   18.6417 C   0  0  0  0  0  0  0  0  0  0  0  0
    8.2330  -14.2080   18.2909 C   0  0  0  0  0  0  0  0  0  0  0  0
    9.1733  -13.6716   18.9274 O   0  0  0  0  0  0  0  0  0  0  0  0
    6.8146  -17.0988   22.0568 C   0  0  0  0  0  0  0  0  0  0  0  0
    5.7943  -16.6824   22.6543 O   0  0  0  0  0  0  0  0  0  0  0  0
    7.7029  -13.5375   17.2096 O   0  0  0  0  0  0  0  0  0  0  0  0
    8.1513  -20.2701   30.2351 O   0  0  0  0  0  0  0  0  0  0  0  0
    8.1472  -20.0354   28.8607 C   0  0  0  0  0  0  0  0  0  0  0  0
    6.9760  -19.8316   28.1626 C   0  0  0  0  0  0  0  0  0  0  0  0
    6.9661  -19.5984   26.7983 C   0  0  0  0  0  0  0  0  0  0  0  0
    8.1414  -19.5600   26.0758 C   0  0  0  0  0  0  0  0  0  0  0  0
    8.1291  -19.3098   24.6115 C   0  0  0  0  0  0  0  0  0  0  0  0
    7.8072  -17.8932   24.2426 C   0  0  2  0  0  0  0  0  0  0  0  0
    7.8805  -17.6950   22.8136 N   0  0  0  0  0  0  0  0  0  0  0  0
    8.8272  -17.0340   24.9022 C   0  0  0  0  0  0  0  0  0  0  0  0
    9.9667  -16.8402   24.3790 O   0  0  0  0  0  0  0  0  0  0  0  0
    9.3141  -19.7637   26.7740 C   0  0  0  0  0  0  0  0  0  0  0  0
    9.3243  -19.9978   28.1419 C   0  0  0  0  0  0  0  0  0  0  0  0
    8.4944  -16.4294   26.1435 N   0  0  0  0  0  0  0  0  0  0  0  0
    9.4326  -15.5048   26.7669 C   0  0  1  0  0  0  0  0  0  0  0  0
    8.6148  -14.5006   27.5174 C   0  0  0  0  0  0  0  0  0  0  0  0
    7.8072  -13.5997   26.6967 C   0  0  0  0  0  0  0  0  0  0  0  0
    8.2759  -12.9586   25.5625 C   0  0  0  0  0  0  0  0  0  0  0  0
    7.4939  -12.1200   24.8038 C   0  0  0  0  0  0  0  0  0  0  0  0
    6.1918  -11.8979   25.1717 C   0  0  0  0  0  0  0  0  0  0  0  0
    5.6728  -12.5148   26.2984 C   0  0  0  0  0  0  0  0  0  0  0  0
    6.4951  -13.3614   27.0468 C   0  0  0  0  0  0  0  0  0  0  0  0
   10.3070  -16.2848   27.6693 C   0  0  0  0  0  0  0  0  0  0  0  0
   10.1916  -17.6648   27.8291 O   0  0  0  0  0  0  0  0  0  0  0  0
   11.1967  -15.7061   28.3304 O   0  0  0  0  0  0  0  0  0  0  0  0
  2  1  1  6
  3  2  1  0
  4  3  1  0
  5  4  1  0
  5  6  2  0
  7  2  1  0
  7  8  2  0
  9  5  1  0
 10 11  1  0
 11 12  2  0
 12 13  1  0
 14 13  2  0
 14 15  1  0
 16 15  1  6
 16 17  1  0
 17  7  1  0
 18 16  1  0
 19 18  2  0
 20 14  1  0
 21 11  1  0
 21 20  2  0
 22 18  1  0
 23 24  1  1
 23 22  1  0
 24 25  1  0
 25 30  1  0
 26 25  2  0
 26 27  1  0
 27 28  2  0
 28 29  1  0
 30 29  2  0
 31 32  1  0
 31 23  1  0
 33 31  2  0
M  END
$$$$
