EYF.pdb
     RDKit          3D

 33 34  0  0  1  0  0  0  0  0999 V2000
    9.3509  -18.8621   19.3468 N   0  0  0  0  0  0  0  0  0  0  0  0
    9.0622  -17.4747   19.4342 C   0  0  1  0  0  0  0  0  0  0  0  0
    8.2639  -17.0710   18.2433 C   0  0  0  0  0  0  0  0  0  0  0  0
    8.2570  -18.0514   17.1112 C   0  0  0  0  0  0  0  0  0  0  0  0
    7.5835  -17.4895   15.9018 C   0  0  0  0  0  0  0  0  0  0  0  0
    7.2266  -16.2896   15.8014 O   0  0  0  0  0  0  0  0  0  0  0  0
    8.4119  -17.2205   20.7401 C   0  0  0  0  0  0  0  0  0  0  0  0
    7.9976  -16.0699   21.0152 O   0  0  0  0  0  0  0  0  0  0  0  0
    7.3438  -18.3386   14.8428 O   0  0  0  0  0  0  0  0  0  0  0  0
    7.4004  -19.6564   29.2429 O   0  0  0  0  0  0  0  0  0  0  0  0
    7.3272  -19.5828   27.8524 C   0  0  0  0  0  0  0  0  0  0  0  0
    7.7492  -18.4672   27.1613 C   0  0  0  0  0  0  0  0  0  0  0  0
    7.6787  -18.3888   25.7812 C   0  0  0  0  0  0  0  0  0  0  0  0
    7.1777  -19.4362   25.0350 C   0  0  0  0  0  0  0  0  0  0  0  0
    7.1024  -19.3504   23.5539 C   0  0  0  0  0  0  0  0  0  0  0  0
    7.6406  -18.0685   22.9941 C   0  0  2  0  0  0  0  0  0  0  0  0
    8.2487  -18.2768   21.7005 N   0  0  0  0  0  0  0  0  0  0  0  0
    8.6795  -17.5863   23.9439 C   0  0  0  0  0  0  0  0  0  0  0  0
    9.7620  -18.2243   24.1194 O   0  0  0  0  0  0  0  0  0  0  0  0
    6.7552  -20.5533   25.7263 C   0  0  0  0  0  0  0  0  0  0  0  0
    6.8256  -20.6321   27.1100 C   0  0  0  0  0  0  0  0  0  0  0  0
    8.4303  -16.3841   24.6577 N   0  0  0  0  0  0  0  0  0  0  0  0
    9.5522  -15.5952   25.1506 C   0  0  1  0  0  0  0  0  0  0  0  0
    9.2908  -14.1765   24.7513 C   0  0  0  0  0  0  0  0  0  0  0  0
    8.2233  -13.4979   25.4841 C   0  0  0  0  0  0  0  0  0  0  0  0
    8.4381  -12.6733   26.5754 C   0  0  0  0  0  0  0  0  0  0  0  0
    7.4166  -12.0415   27.2444 C   0  0  0  0  0  0  0  0  0  0  0  0
    6.1235  -12.2249   26.8265 C   0  0  0  0  0  0  0  0  0  0  0  0
    5.8533  -13.0401   25.7395 C   0  0  0  0  0  0  0  0  0  0  0  0
    6.9153  -13.6671   25.0821 C   0  0  0  0  0  0  0  0  0  0  0  0
    9.6055  -15.7506   26.6204 C   0  0  0  0  0  0  0  0  0  0  0  0
   10.7106  -15.3741   27.3819 O   0  0  0  0  0  0  0  0  0  0  0  0
    8.6305  -16.2393   27.2321 O   0  0  0  0  0  0  0  0  0  0  0  0
  2  1  1  6
  3  2  1  0
  4  3  1  0
  5  4  1  0
  5  6  2  0
  7  2  1  0
  7  8  2  0
  9  5  1  0
 10 11  1  0
 11 12  2  0
 12 13  1  0
 14 13  2  0
 14 15  1  0
 16 15  1  1
 16 17  1  0
 17  7  1  0
 18 16  1  0
 19 18  2  0
 20 14  1  0
 21 11  1  0
 21 20  2  0
 22 18  1  0
 23 24  1  1
 23 22  1  0
 24 25  1  0
 25 30  1  0
 26 25  2  0
 26 27  1  0
 27 28  2  0
 28 29  1  0
 30 29  2  0
 31 32  1  0
 31 23  1  0
 33 31  2  0
M  END
$$$$
