EYF.pdb
     RDKit          3D

 33 34  0  0  1  0  0  0  0  0999 V2000
    8.6787  -17.9644   19.4429 N   0  0  0  0  0  0  0  0  0  0  0  0
    9.8791  -18.2146   20.1587 C   0  0  1  0  0  0  0  0  0  0  0  0
   10.8909  -18.7803   19.2234 C   0  0  0  0  0  0  0  0  0  0  0  0
   12.2073  -19.1396   19.8406 C   0  0  0  0  0  0  0  0  0  0  0  0
   13.2015  -19.5609   18.8081 C   0  0  0  0  0  0  0  0  0  0  0  0
   14.4182  -19.7514   19.0540 O   0  0  0  0  0  0  0  0  0  0  0  0
   10.2827  -16.9603   20.8347 C   0  0  0  0  0  0  0  0  0  0  0  0
   10.9745  -16.1162   20.2180 O   0  0  0  0  0  0  0  0  0  0  0  0
   12.7530  -19.7490   17.5184 O   0  0  0  0  0  0  0  0  0  0  0  0
    6.7707  -12.5816   18.1249 O   0  0  0  0  0  0  0  0  0  0  0  0
    7.2856  -13.0859   19.3186 C   0  0  0  0  0  0  0  0  0  0  0  0
    6.6075  -14.0294   20.0605 C   0  0  0  0  0  0  0  0  0  0  0  0
    7.1138  -14.5333   21.2460 C   0  0  0  0  0  0  0  0  0  0  0  0
    8.3310  -14.1061   21.7368 C   0  0  0  0  0  0  0  0  0  0  0  0
    8.8730  -14.6477   23.0095 C   0  0  0  0  0  0  0  0  0  0  0  0
   10.1404  -15.4302   22.8428 C   0  0  2  0  0  0  0  0  0  0  0  0
    9.8924  -16.6957   22.1919 N   0  0  0  0  0  0  0  0  0  0  0  0
   10.6716  -15.6859   24.2090 C   0  0  0  0  0  0  0  0  0  0  0  0
   10.9958  -14.7330   24.9813 O   0  0  0  0  0  0  0  0  0  0  0  0
    9.0104  -13.1618   20.9945 C   0  0  0  0  0  0  0  0  0  0  0  0
    8.5028  -12.6563   19.8060 C   0  0  0  0  0  0  0  0  0  0  0  0
   10.8097  -17.0340   24.6341 N   0  0  0  0  0  0  0  0  0  0  0  0
   10.8500  -17.3377   26.0588 C   0  0  1  0  0  0  0  0  0  0  0  0
    9.5309  -16.9170   26.6274 C   0  0  0  0  0  0  0  0  0  0  0  0
    9.5233  -15.6353   27.3307 C   0  0  0  0  0  0  0  0  0  0  0  0
   10.3748  -15.3226   28.3767 C   0  0  0  0  0  0  0  0  0  0  0  0
   10.3517  -14.1069   29.0183 C   0  0  0  0  0  0  0  0  0  0  0  0
    9.4531  -13.1515   28.6180 C   0  0  0  0  0  0  0  0  0  0  0  0
    8.5783  -13.4131   27.5760 C   0  0  0  0  0  0  0  0  0  0  0  0
    8.6288  -14.6593   26.9456 C   0  0  0  0  0  0  0  0  0  0  0  0
   11.0725  -18.7923   26.2068 C   0  0  0  0  0  0  0  0  0  0  0  0
   11.9371  -19.3332   27.1571 O   0  0  0  0  0  0  0  0  0  0  0  0
   10.4721  -19.5948   25.4591 O   0  0  0  0  0  0  0  0  0  0  0  0
  2  1  1  6
  3  2  1  0
  4  3  1  0
  5  4  1  0
  5  6  2  0
  7  2  1  0
  7  8  2  0
  9  5  1  0
 10 11  1  0
 11 12  2  0
 12 13  1  0
 14 13  2  0
 14 15  1  0
 16 15  1  1
 16 17  1  0
 17  7  1  0
 18 16  1  0
 19 18  2  0
 20 14  1  0
 21 11  1  0
 21 20  2  0
 22 18  1  0
 23 24  1  6
 23 22  1  0
 24 25  1  0
 25 30  1  0
 26 25  2  0
 26 27  1  0
 27 28  2  0
 28 29  1  0
 30 29  2  0
 31 32  1  0
 31 23  1  0
 33 31  2  0
M  END
$$$$
