EYF.pdb
     RDKit          3D

 33 34  0  0  1  0  0  0  0  0999 V2000
    8.5035  -18.9063   21.2713 N   0  0  0  0  0  0  0  0  0  0  0  0
    9.7848  -18.5416   20.7800 C   0  0  1  0  0  0  0  0  0  0  0  0
    9.7669  -18.6010   19.2918 C   0  0  0  0  0  0  0  0  0  0  0  0
   11.0771  -18.3235   18.6213 C   0  0  0  0  0  0  0  0  0  0  0  0
   10.9160  -18.1656   17.1444 C   0  0  0  0  0  0  0  0  0  0  0  0
    9.8178  -18.2946   16.5490 O   0  0  0  0  0  0  0  0  0  0  0  0
   10.1386  -17.2216   21.3503 C   0  0  0  0  0  0  0  0  0  0  0  0
   11.2562  -16.7136   21.0963 O   0  0  0  0  0  0  0  0  0  0  0  0
   12.0364  -17.8622   16.4012 O   0  0  0  0  0  0  0  0  0  0  0  0
    7.1587  -13.1734   17.0956 O   0  0  0  0  0  0  0  0  0  0  0  0
    7.4544  -13.4399   18.4320 C   0  0  0  0  0  0  0  0  0  0  0  0
    6.8241  -14.4494   19.1276 C   0  0  0  0  0  0  0  0  0  0  0  0
    7.1136  -14.7182   20.4541 C   0  0  0  0  0  0  0  0  0  0  0  0
    8.0554  -13.9778   21.1395 C   0  0  0  0  0  0  0  0  0  0  0  0
    8.3648  -14.2673   22.5634 C   0  0  0  0  0  0  0  0  0  0  0  0
    9.5120  -15.2130   22.7528 C   0  0  2  0  0  0  0  0  0  0  0  0
    9.2172  -16.5120   22.1940 N   0  0  0  0  0  0  0  0  0  0  0  0
    9.7165  -15.3537   24.2199 C   0  0  0  0  0  0  0  0  0  0  0  0
   10.5910  -14.6698   24.8341 O   0  0  0  0  0  0  0  0  0  0  0  0
    8.6868  -12.9671   20.4437 C   0  0  0  0  0  0  0  0  0  0  0  0
    8.3965  -12.6974   19.1138 C   0  0  0  0  0  0  0  0  0  0  0  0
    8.9033  -16.2801   24.9253 N   0  0  0  0  0  0  0  0  0  0  0  0
    9.0587  -16.4201   26.3675 C   0  0  1  0  0  0  0  0  0  0  0  0
    7.7510  -16.0302   26.9825 C   0  0  0  0  0  0  0  0  0  0  0  0
    7.4344  -14.6034   26.9478 C   0  0  0  0  0  0  0  0  0  0  0  0
    8.2481  -13.6179   27.4804 C   0  0  0  0  0  0  0  0  0  0  0  0
    7.9303  -12.2812   27.4297 C   0  0  0  0  0  0  0  0  0  0  0  0
    6.7611  -11.8897   26.8298 C   0  0  0  0  0  0  0  0  0  0  0  0
    5.9107  -12.8356   26.2808 C   0  0  0  0  0  0  0  0  0  0  0  0
    6.2644  -14.1859   26.3496 C   0  0  0  0  0  0  0  0  0  0  0  0
    9.4002  -17.8306   26.6525 C   0  0  0  0  0  0  0  0  0  0  0  0
    9.6038  -18.7777   25.6501 O   0  0  0  0  0  0  0  0  0  0  0  0
    9.5166  -18.2178   27.8357 O   0  0  0  0  0  0  0  0  0  0  0  0
  2  1  1  1
  3  2  1  0
  4  3  1  0
  5  4  1  0
  5  6  2  0
  7  2  1  0
  7  8  2  0
  9  5  1  0
 10 11  1  0
 11 12  2  0
 12 13  1  0
 14 13  2  0
 14 15  1  0
 16 15  1  1
 16 17  1  0
 17  7  1  0
 18 16  1  0
 19 18  2  0
 20 14  1  0
 21 11  1  0
 21 20  2  0
 22 18  1  0
 23 24  1  1
 23 22  1  0
 24 25  1  0
 25 30  1  0
 26 25  2  0
 26 27  1  0
 27 28  2  0
 28 29  1  0
 30 29  2  0
 31 32  1  0
 31 23  1  0
 33 31  2  0
M  END
$$$$
