EYF.pdb
     RDKit          3D

 33 34  0  0  1  0  0  0  0  0999 V2000
    8.8596  -18.9912   21.5377 N   0  0  0  0  0  0  0  0  0  0  0  0
   10.1763  -18.5783   21.2033 C   0  0  1  0  0  0  0  0  0  0  0  0
   10.3919  -18.7848   19.7441 C   0  0  0  0  0  0  0  0  0  0  0  0
    9.2801  -18.3156   18.8570 C   0  0  0  0  0  0  0  0  0  0  0  0
    9.6195  -18.4889   17.4124 C   0  0  0  0  0  0  0  0  0  0  0  0
   10.7268  -18.9213   17.0072 O   0  0  0  0  0  0  0  0  0  0  0  0
   10.3555  -17.1851   21.6723 C   0  0  0  0  0  0  0  0  0  0  0  0
   11.4373  -16.5901   21.4554 O   0  0  0  0  0  0  0  0  0  0  0  0
    8.6617  -18.1545   16.4793 O   0  0  0  0  0  0  0  0  0  0  0  0
    7.5103  -13.3647   16.8897 O   0  0  0  0  0  0  0  0  0  0  0  0
    7.6725  -13.6074   18.2532 C   0  0  0  0  0  0  0  0  0  0  0  0
    8.2479  -12.6775   19.0926 C   0  0  0  0  0  0  0  0  0  0  0  0
    8.4115  -12.9132   20.4466 C   0  0  0  0  0  0  0  0  0  0  0  0
    8.0001  -14.1016   21.0154 C   0  0  0  0  0  0  0  0  0  0  0  0
    8.1767  -14.3532   22.4688 C   0  0  0  0  0  0  0  0  0  0  0  0
    9.4159  -15.1275   22.8025 C   0  0  2  0  0  0  0  0  0  0  0  0
    9.3045  -16.5029   22.3755 N   0  0  0  0  0  0  0  0  0  0  0  0
    9.5606  -15.0917   24.2829 C   0  0  0  0  0  0  0  0  0  0  0  0
    9.9726  -14.0520   24.8820 O   0  0  0  0  0  0  0  0  0  0  0  0
    7.4240  -15.0328   20.1757 C   0  0  0  0  0  0  0  0  0  0  0  0
    7.2601  -14.7967   18.8180 C   0  0  0  0  0  0  0  0  0  0  0  0
    9.2245  -16.2591   25.0186 N   0  0  0  0  0  0  0  0  0  0  0  0
    9.3169  -16.2434   26.4729 C   0  0  1  0  0  0  0  0  0  0  0  0
    7.9276  -16.0399   26.9916 C   0  0  0  0  0  0  0  0  0  0  0  0
    7.4172  -14.6719   26.9177 C   0  0  0  0  0  0  0  0  0  0  0  0
    8.0314  -13.5845   27.5155 C   0  0  0  0  0  0  0  0  0  0  0  0
    7.5341  -12.3059   27.4262 C   0  0  0  0  0  0  0  0  0  0  0  0
    6.3814  -12.0799   26.7187 C   0  0  0  0  0  0  0  0  0  0  0  0
    5.7270  -13.1332   26.1010 C   0  0  0  0  0  0  0  0  0  0  0  0
    6.2600  -14.4204   26.2117 C   0  0  0  0  0  0  0  0  0  0  0  0
    9.8797  -17.5406   26.9061 C   0  0  0  0  0  0  0  0  0  0  0  0
   10.2531  -18.5410   26.0101 O   0  0  0  0  0  0  0  0  0  0  0  0
   10.0375  -17.7771   28.1238 O   0  0  0  0  0  0  0  0  0  0  0  0
  2  1  1  6
  3  2  1  0
  4  3  1  0
  5  4  1  0
  5  6  2  0
  7  2  1  0
  7  8  2  0
  9  5  1  0
 10 11  1  0
 11 12  2  0
 12 13  1  0
 14 13  2  0
 14 15  1  0
 16 15  1  1
 16 17  1  0
 17  7  1  0
 18 16  1  0
 19 18  2  0
 20 14  1  0
 21 11  1  0
 21 20  2  0
 22 18  1  0
 23 24  1  1
 23 22  1  0
 24 25  1  0
 25 30  1  0
 26 25  2  0
 26 27  1  0
 27 28  2  0
 28 29  1  0
 30 29  2  0
 31 32  1  0
 31 23  1  0
 33 31  2  0
M  END
$$$$
