QIF.pdb
     RDKit          3D

 29 29  0  0  1  0  0  0  0  0999 V2000
   22.4759  -24.4328  -13.7893 N   0  0  0  0  0  0  0  0  0  0  0  0
   23.1314  -25.4901  -14.4719 C   0  0  0  0  0  0  0  0  0  0  0  0
   22.9223  -26.6633  -14.0752 O   0  0  0  0  0  0  0  0  0  0  0  0
   24.0270  -25.2161  -15.6083 C   0  0  0  0  0  0  0  0  0  0  0  0
   25.3479  -24.6225  -15.1656 C   0  0  0  0  0  0  0  0  0  0  0  0
   25.3766  -23.1892  -15.5969 C   0  0  2  0  0  0  0  0  0  0  0  0
   25.7225  -23.0435  -16.9953 N   0  0  0  0  0  0  0  0  0  0  0  0
   26.2236  -22.3205  -14.7988 C   0  0  0  0  0  0  0  0  0  0  0  0
   27.4740  -22.3785  -14.9346 O   0  0  0  0  0  0  0  0  0  0  0  0
   25.4798  -18.0574  -15.5130 C   0  0  0  0  0  0  0  0  0  0  0  0
   26.6603  -18.6424  -14.7727 C   0  0  0  0  0  0  0  0  0  0  0  0
   26.2636  -19.0519  -13.3555 C   0  0  2  0  0  0  0  0  0  0  0  0
   27.0336  -18.1290  -12.4434 C   0  0  0  0  0  0  0  0  0  0  0  0
   26.6714  -20.4939  -13.1002 C   0  0  2  0  0  0  0  0  0  0  0  0
   25.7450  -21.3774  -13.8439 N   0  0  0  0  0  0  0  0  0  0  0  0
   26.4641  -20.7902  -11.6639 C   0  0  0  0  0  0  0  0  0  0  0  0
   25.2784  -21.0961  -11.2993 O   0  0  0  0  0  0  0  0  0  0  0  0
   27.4624  -20.7644  -10.6758 N   0  0  0  0  0  0  0  0  0  0  0  0
   27.0917  -21.0294   -9.2780 C   0  0  1  0  0  0  0  0  0  0  0  0
   28.3209  -21.0086   -8.4111 C   0  0  0  0  0  0  0  0  0  0  0  0
   27.9507  -20.6421   -7.0318 C   0  0  0  0  0  0  0  0  0  0  0  0
   27.3337  -21.5607   -6.1777 C   0  0  0  0  0  0  0  0  0  0  0  0
   27.0322  -21.1736   -4.8989 C   0  0  0  0  0  0  0  0  0  0  0  0
   27.3242  -19.8999   -4.4381 C   0  0  0  0  0  0  0  0  0  0  0  0
   27.9329  -18.9937   -5.2804 C   0  0  0  0  0  0  0  0  0  0  0  0
   28.2350  -19.3728   -6.5527 C   0  0  0  0  0  0  0  0  0  0  0  0
   26.0724  -20.0502   -8.8733 C   0  0  0  0  0  0  0  0  0  0  0  0
   24.9424  -20.4095   -8.1582 O   0  0  0  0  0  0  0  0  0  0  0  0
   26.2077  -18.8248   -9.1796 O   0  0  0  0  0  0  0  0  0  0  0  0
  2  3  2  0
  2  1  1  0
  4  2  1  0
  5  6  1  0
  5  4  1  0
  6  8  1  0
  6  7  1  6
  8  9  2  0
 10 11  1  0
 12 11  1  0
 12 13  1  1
 12 14  1  0
 14 15  1  6
 15  8  1  0
 16 14  1  0
 16 17  2  0
 18 16  1  0
 19 18  1  0
 19 27  1  0
 19 20  1  1
 21 20  1  0
 21 26  2  0
 22 21  1  0
 23 22  2  0
 23 24  1  0
 24 25  2  0
 25 26  1  0
 27 29  2  0
 27 28  1  0
M  END
$$$$
