QIF.pdb
     RDKit          3D

 29 29  0  0  1  0  0  0  0  0999 V2000
   17.2728  -11.5144  -21.2812 N   0  0  0  0  0  0  0  0  0  0  0  0
   16.5694  -12.4285  -20.4547 C   0  0  0  0  0  0  0  0  0  0  0  0
   15.4893  -12.9004  -20.8884 O   0  0  0  0  0  0  0  0  0  0  0  0
   17.0927  -12.8088  -19.1318 C   0  0  0  0  0  0  0  0  0  0  0  0
   18.3679  -12.0688  -18.7865 C   0  0  0  0  0  0  0  0  0  0  0  0
   18.7871  -12.4894  -17.4123 C   0  0  2  0  0  0  0  0  0  0  0  0
   17.8268  -13.3789  -16.7935 N   0  0  0  0  0  0  0  0  0  0  0  0
   19.0934  -11.4021  -16.4997 C   0  0  0  0  0  0  0  0  0  0  0  0
   18.3446  -11.1949  -15.5088 O   0  0  0  0  0  0  0  0  0  0  0  0
   23.8971  -10.8275  -14.4961 C   0  0  0  0  0  0  0  0  0  0  0  0
   22.4120  -10.8129  -14.7760 C   0  0  0  0  0  0  0  0  0  0  0  0
   21.9813   -9.4649  -15.3513 C   0  0  2  0  0  0  0  0  0  0  0  0
   22.3029   -8.4528  -14.2796 C   0  0  0  0  0  0  0  0  0  0  0  0
   20.4862   -9.4736  -15.6261 C   0  0  2  0  0  0  0  0  0  0  0  0
   20.2050  -10.5209  -16.6340 N   0  0  0  0  0  0  0  0  0  0  0  0
   20.1198   -8.1836  -16.2547 C   0  0  0  0  0  0  0  0  0  0  0  0
   20.6674   -7.9074  -17.3755 O   0  0  0  0  0  0  0  0  0  0  0  0
   19.2208   -7.2450  -15.7211 N   0  0  0  0  0  0  0  0  0  0  0  0
   19.0072   -5.9757  -16.4315 C   0  0  1  0  0  0  0  0  0  0  0  0
   17.5687   -5.8647  -16.8572 C   0  0  0  0  0  0  0  0  0  0  0  0
   17.3866   -6.5131  -18.1687 C   0  0  0  0  0  0  0  0  0  0  0  0
   17.7546   -5.8694  -19.3537 C   0  0  0  0  0  0  0  0  0  0  0  0
   17.5842   -6.5276  -20.5428 C   0  0  0  0  0  0  0  0  0  0  0  0
   17.0586   -7.8086  -20.5946 C   0  0  0  0  0  0  0  0  0  0  0  0
   16.6956   -8.4438  -19.4258 C   0  0  0  0  0  0  0  0  0  0  0  0
   16.8627   -7.7944  -18.2408 C   0  0  0  0  0  0  0  0  0  0  0  0
   19.4474   -4.8756  -15.5610 C   0  0  0  0  0  0  0  0  0  0  0  0
   19.4459   -3.5551  -15.9776 O   0  0  0  0  0  0  0  0  0  0  0  0
   19.8503   -5.1180  -14.3808 O   0  0  0  0  0  0  0  0  0  0  0  0
  2  3  2  0
  2  1  1  0
  4  2  1  0
  5  6  1  0
  5  4  1  0
  6  8  1  0
  6  7  1  1
  8  9  2  0
 10 11  1  0
 12 11  1  0
 12 13  1  1
 12 14  1  0
 14 15  1  6
 15  8  1  0
 16 14  1  0
 16 17  2  0
 18 16  1  0
 19 18  1  0
 19 27  1  0
 19 20  1  1
 21 20  1  0
 21 26  2  0
 22 21  1  0
 23 22  2  0
 23 24  1  0
 24 25  2  0
 25 26  1  0
 27 29  2  0
 27 28  1  0
M  END
$$$$
