QIF.pdb
     RDKit          3D

 29 29  0  0  1  0  0  0  0  0999 V2000
   16.7970  -11.6358    5.5098 N   0  0  0  0  0  0  0  0  0  0  0  0
   15.7497  -11.6320    4.5523 C   0  0  0  0  0  0  0  0  0  0  0  0
   15.4056  -10.5276    4.0632 O   0  0  0  0  0  0  0  0  0  0  0  0
   15.0902  -12.8852    4.1481 C   0  0  0  0  0  0  0  0  0  0  0  0
   15.7129  -14.0979    4.8074 C   0  0  0  0  0  0  0  0  0  0  0  0
   15.0549  -15.3182    4.2425 C   0  0  2  0  0  0  0  0  0  0  0  0
   13.6923  -15.4721    4.7071 N   0  0  0  0  0  0  0  0  0  0  0  0
   15.7769  -16.5612    4.4490 C   0  0  0  0  0  0  0  0  0  0  0  0
   15.3020  -17.4326    5.2238 O   0  0  0  0  0  0  0  0  0  0  0  0
   18.0736  -19.2427    0.5426 C   0  0  0  0  0  0  0  0  0  0  0  0
   17.4060  -18.9442    1.8651 C   0  0  0  0  0  0  0  0  0  0  0  0
   18.4463  -18.6472    2.9435 C   0  0  2  0  0  0  0  0  0  0  0  0
   19.1041  -19.9726    3.2389 C   0  0  0  0  0  0  0  0  0  0  0  0
   17.7602  -18.1179    4.1925 C   0  0  2  0  0  0  0  0  0  0  0  0
   17.0173  -16.8897    3.8295 N   0  0  0  0  0  0  0  0  0  0  0  0
   18.8039  -17.7017    5.1575 C   0  0  0  0  0  0  0  0  0  0  0  0
   19.7107  -16.9113    4.7271 O   0  0  0  0  0  0  0  0  0  0  0  0
   18.8748  -18.1024    6.5021 N   0  0  0  0  0  0  0  0  0  0  0  0
   20.0673  -17.7565    7.2892 C   0  0  1  0  0  0  0  0  0  0  0  0
   19.7304  -16.6735    8.2773 C   0  0  0  0  0  0  0  0  0  0  0  0
   19.9342  -15.3521    7.6559 C   0  0  0  0  0  0  0  0  0  0  0  0
   21.2016  -14.7652    7.5982 C   0  0  0  0  0  0  0  0  0  0  0  0
   21.3372  -13.5459    6.9889 C   0  0  0  0  0  0  0  0  0  0  0  0
   20.2521  -12.8876    6.4329 C   0  0  0  0  0  0  0  0  0  0  0  0
   19.0019  -13.4663    6.4897 C   0  0  0  0  0  0  0  0  0  0  0  0
   18.8610  -14.6783    7.0941 C   0  0  0  0  0  0  0  0  0  0  0  0
   20.5827  -18.9824    7.9163 C   0  0  0  0  0  0  0  0  0  0  0  0
   19.9022  -20.1870    7.8578 O   0  0  0  0  0  0  0  0  0  0  0  0
   21.6881  -18.9629    8.5419 O   0  0  0  0  0  0  0  0  0  0  0  0
  2  3  2  0
  2  1  1  0
  4  2  1  0
  5  6  1  0
  5  4  1  0
  6  8  1  0
  6  7  1  1
  8  9  2  0
 10 11  1  0
 12 11  1  0
 12 13  1  1
 12 14  1  0
 14 15  1  6
 15  8  1  0
 16 14  1  0
 16 17  2  0
 18 16  1  0
 19 18  1  0
 19 27  1  0
 19 20  1  1
 21 20  1  0
 21 26  2  0
 22 21  1  0
 23 22  2  0
 23 24  1  0
 24 25  2  0
 25 26  1  0
 27 29  2  0
 27 28  1  0
M  END
$$$$
