QIF.pdb
     RDKit          3D

 29 29  0  0  1  0  0  0  0  0999 V2000
   28.6919  -19.9736  -18.0022 N   0  0  0  0  0  0  0  0  0  0  0  0
   28.6801  -18.6001  -17.6456 C   0  0  0  0  0  0  0  0  0  0  0  0
   29.7756  -17.9859  -17.6401 O   0  0  0  0  0  0  0  0  0  0  0  0
   27.4216  -17.9210  -17.2941 C   0  0  0  0  0  0  0  0  0  0  0  0
   27.2325  -17.8059  -15.7962 C   0  0  0  0  0  0  0  0  0  0  0  0
   26.7323  -19.1238  -15.2922 C   0  0  2  0  0  0  0  0  0  0  0  0
   25.8955  -19.8003  -16.2609 N   0  0  0  0  0  0  0  0  0  0  0  0
   26.0459  -19.0762  -14.0133 C   0  0  0  0  0  0  0  0  0  0  0  0
   25.5409  -17.9916  -13.6208 O   0  0  0  0  0  0  0  0  0  0  0  0
   21.8302  -21.7242  -13.3602 C   0  0  0  0  0  0  0  0  0  0  0  0
   22.9479  -20.7193  -13.2027 C   0  0  0  0  0  0  0  0  0  0  0  0
   23.9111  -21.1476  -12.0971 C   0  0  2  0  0  0  0  0  0  0  0  0
   23.0774  -21.2018  -10.8407 C   0  0  0  0  0  0  0  0  0  0  0  0
   25.0153  -20.1141  -11.9438 C   0  0  2  0  0  0  0  0  0  0  0  0
   25.8899  -20.1881  -13.1361 N   0  0  0  0  0  0  0  0  0  0  0  0
   25.8570  -20.4985  -10.7873 C   0  0  0  0  0  0  0  0  0  0  0  0
   26.4929  -21.6032  -10.8735 O   0  0  0  0  0  0  0  0  0  0  0  0
   26.0132  -19.7482   -9.6099 N   0  0  0  0  0  0  0  0  0  0  0  0
   26.8302  -20.2950   -8.5168 C   0  0  1  0  0  0  0  0  0  0  0  0
   27.9434  -19.3395   -8.1841 C   0  0  0  0  0  0  0  0  0  0  0  0
   28.4658  -19.6337   -6.8372 C   0  0  0  0  0  0  0  0  0  0  0  0
   29.4350  -20.6204   -6.6345 C   0  0  0  0  0  0  0  0  0  0  0  0
   29.9015  -20.8365   -5.3649 C   0  0  0  0  0  0  0  0  0  0  0  0
   29.4358  -20.1026   -4.2858 C   0  0  0  0  0  0  0  0  0  0  0  0
   28.4799  -19.1293   -4.4855 C   0  0  0  0  0  0  0  0  0  0  0  0
   28.0124  -18.9100   -5.7454 C   0  0  0  0  0  0  0  0  0  0  0  0
   25.9479  -20.5865   -7.3774 C   0  0  0  0  0  0  0  0  0  0  0  0
   26.2500  -21.5552   -6.4351 O   0  0  0  0  0  0  0  0  0  0  0  0
   24.8626  -19.9428   -7.2298 O   0  0  0  0  0  0  0  0  0  0  0  0
  2  3  2  0
  2  1  1  0
  4  2  1  0
  5  6  1  0
  5  4  1  0
  6  8  1  0
  6  7  1  6
  8  9  2  0
 10 11  1  0
 12 11  1  0
 12 13  1  1
 12 14  1  0
 14 15  1  6
 15  8  1  0
 16 14  1  0
 16 17  2  0
 18 16  1  0
 19 18  1  0
 19 27  1  0
 19 20  1  1
 21 20  1  0
 21 26  2  0
 22 21  1  0
 23 22  2  0
 23 24  1  0
 24 25  2  0
 25 26  1  0
 27 29  2  0
 27 28  1  0
M  END
$$$$
