QIF.pdb
     RDKit          3D

 29 29  0  0  1  0  0  0  0  0999 V2000
   26.3352  -27.4128  -16.4159 N   0  0  0  0  0  0  0  0  0  0  0  0
   27.2446  -27.1745  -17.4788 C   0  0  0  0  0  0  0  0  0  0  0  0
   26.8075  -27.2517  -18.6536 O   0  0  0  0  0  0  0  0  0  0  0  0
   28.6548  -26.8474  -17.2083 C   0  0  0  0  0  0  0  0  0  0  0  0
   28.8127  -25.4886  -16.5590 C   0  0  0  0  0  0  0  0  0  0  0  0
   28.6864  -24.4491  -17.6289 C   0  0  2  0  0  0  0  0  0  0  0  0
   29.8301  -24.4331  -18.5166 N   0  0  0  0  0  0  0  0  0  0  0  0
   28.4271  -23.1015  -17.1538 C   0  0  0  0  0  0  0  0  0  0  0  0
   29.3860  -22.3897  -16.7548 O   0  0  0  0  0  0  0  0  0  0  0  0
   26.7374  -20.9521  -19.8279 C   0  0  0  0  0  0  0  0  0  0  0  0
   26.6804  -19.8870  -18.7572 C   0  0  0  0  0  0  0  0  0  0  0  0
   25.9641  -20.4067  -17.5122 C   0  0  2  0  0  0  0  0  0  0  0  0
   25.4173  -19.1797  -16.8252 C   0  0  0  0  0  0  0  0  0  0  0  0
   26.9555  -21.1136  -16.6020 C   0  0  2  0  0  0  0  0  0  0  0  0
   27.1384  -22.4962  -17.0988 N   0  0  0  0  0  0  0  0  0  0  0  0
   26.3498  -21.2331  -15.2557 C   0  0  0  0  0  0  0  0  0  0  0  0
   25.3152  -21.9750  -15.1481 O   0  0  0  0  0  0  0  0  0  0  0  0
   26.8209  -20.6011  -14.0928 N   0  0  0  0  0  0  0  0  0  0  0  0
   26.1004  -20.8033  -12.8274 C   0  0  1  0  0  0  0  0  0  0  0  0
   26.9072  -20.2474  -11.6860 C   0  0  0  0  0  0  0  0  0  0  0  0
   26.1607  -20.4074  -10.4246 C   0  0  0  0  0  0  0  0  0  0  0  0
   26.3665  -21.5136   -9.5951 C   0  0  0  0  0  0  0  0  0  0  0  0
   25.6621  -21.6002   -8.4236 C   0  0  0  0  0  0  0  0  0  0  0  0
   24.7568  -20.6211   -8.0468 C   0  0  0  0  0  0  0  0  0  0  0  0
   24.5538  -19.5300   -8.8649 C   0  0  0  0  0  0  0  0  0  0  0  0
   25.2511  -19.4384  -10.0307 C   0  0  0  0  0  0  0  0  0  0  0  0
   24.7655  -20.1994  -12.9503 C   0  0  0  0  0  0  0  0  0  0  0  0
   23.6171  -20.8483  -12.5291 O   0  0  0  0  0  0  0  0  0  0  0  0
   24.6328  -19.0432  -13.4595 O   0  0  0  0  0  0  0  0  0  0  0  0
  2  3  2  0
  2  1  1  0
  4  2  1  0
  5  6  1  0
  5  4  1  0
  6  8  1  0
  6  7  1  1
  8  9  2  0
 10 11  1  0
 12 11  1  0
 12 13  1  1
 12 14  1  0
 14 15  1  6
 15  8  1  0
 16 14  1  0
 16 17  2  0
 18 16  1  0
 19 18  1  0
 19 27  1  0
 19 20  1  1
 21 20  1  0
 21 26  2  0
 22 21  1  0
 23 22  2  0
 23 24  1  0
 24 25  2  0
 25 26  1  0
 27 29  2  0
 27 28  1  0
M  END
$$$$
