QIF.pdb
     RDKit          3D

 29 29  0  0  1  0  0  0  0  0999 V2000
   19.5172  -16.8798  -16.4221 N   0  0  0  0  0  0  0  0  0  0  0  0
   20.0216  -16.6929  -17.7352 C   0  0  0  0  0  0  0  0  0  0  0  0
   19.4724  -17.3262  -18.6704 O   0  0  0  0  0  0  0  0  0  0  0  0
   21.1528  -15.7847  -17.9885 C   0  0  0  0  0  0  0  0  0  0  0  0
   21.5702  -15.0297  -16.7440 C   0  0  0  0  0  0  0  0  0  0  0  0
   23.0347  -15.2596  -16.5350 C   0  0  2  0  0  0  0  0  0  0  0  0
   23.3094  -16.5573  -15.9546 N   0  0  0  0  0  0  0  0  0  0  0  0
   23.7177  -14.2343  -15.7660 C   0  0  0  0  0  0  0  0  0  0  0  0
   23.5693  -14.1948  -14.5163 O   0  0  0  0  0  0  0  0  0  0  0  0
   28.2569  -13.7776  -16.6685 C   0  0  0  0  0  0  0  0  0  0  0  0
   27.4551  -13.2469  -15.5025 C   0  0  0  0  0  0  0  0  0  0  0  0
   26.6382  -12.0245  -15.9171 C   0  0  2  0  0  0  0  0  0  0  0  0
   27.2654  -10.8605  -15.1903 C   0  0  0  0  0  0  0  0  0  0  0  0
   25.1931  -12.1943  -15.4769 C   0  0  2  0  0  0  0  0  0  0  0  0
   24.5690  -13.2367  -16.3230 N   0  0  0  0  0  0  0  0  0  0  0  0
   24.4666  -10.9362  -15.7649 C   0  0  0  0  0  0  0  0  0  0  0  0
   24.1272  -10.7264  -16.9786 O   0  0  0  0  0  0  0  0  0  0  0  0
   24.1205   -9.9610  -14.8148 N   0  0  0  0  0  0  0  0  0  0  0  0
   23.3822   -8.7672  -15.2520 C   0  0  1  0  0  0  0  0  0  0  0  0
   22.4790   -8.2923  -14.1468 C   0  0  0  0  0  0  0  0  0  0  0  0
   21.8336   -7.0266  -14.5409 C   0  0  0  0  0  0  0  0  0  0  0  0
   22.3852   -5.7910  -14.1904 C   0  0  0  0  0  0  0  0  0  0  0  0
   21.7558   -4.6464  -14.6025 C   0  0  0  0  0  0  0  0  0  0  0  0
   20.5923   -4.6881  -15.3540 C   0  0  0  0  0  0  0  0  0  0  0  0
   20.0481   -5.9068  -15.6998 C   0  0  0  0  0  0  0  0  0  0  0  0
   20.6694   -7.0480  -15.2931 C   0  0  0  0  0  0  0  0  0  0  0  0
   24.3533   -7.7545  -15.6913 C   0  0  0  0  0  0  0  0  0  0  0  0
   24.1058   -6.9026  -16.7545 O   0  0  0  0  0  0  0  0  0  0  0  0
   25.4677   -7.6372  -15.0928 O   0  0  0  0  0  0  0  0  0  0  0  0
  2  3  2  0
  2  1  1  0
  4  2  1  0
  5  6  1  0
  5  4  1  0
  6  8  1  0
  6  7  1  1
  8  9  2  0
 10 11  1  0
 12 11  1  0
 12 13  1  1
 12 14  1  0
 14 15  1  6
 15  8  1  0
 16 14  1  0
 16 17  2  0
 18 16  1  0
 19 18  1  0
 19 27  1  0
 19 20  1  1
 21 20  1  0
 21 26  2  0
 22 21  1  0
 23 22  2  0
 23 24  1  0
 24 25  2  0
 25 26  1  0
 27 29  2  0
 27 28  1  0
M  END
$$$$
