QIF.pdb
     RDKit          3D

 29 29  0  0  1  0  0  0  0  0999 V2000
   20.1425  -17.7017  -15.9583 N   0  0  0  0  0  0  0  0  0  0  0  0
   20.6977  -16.4017  -16.0815 C   0  0  0  0  0  0  0  0  0  0  0  0
   20.1282  -15.4605  -15.4756 O   0  0  0  0  0  0  0  0  0  0  0  0
   21.9031  -16.1682  -16.8947 C   0  0  0  0  0  0  0  0  0  0  0  0
   23.1281  -15.9132  -16.0420 C   0  0  0  0  0  0  0  0  0  0  0  0
   24.2935  -16.5878  -16.6961 C   0  0  2  0  0  0  0  0  0  0  0  0
   24.1179  -16.7221  -18.1270 N   0  0  0  0  0  0  0  0  0  0  0  0
   24.6577  -17.8760  -16.1331 C   0  0  0  0  0  0  0  0  0  0  0  0
   23.7613  -18.7327  -15.9145 O   0  0  0  0  0  0  0  0  0  0  0  0
   28.7667  -20.6951  -18.1036 C   0  0  0  0  0  0  0  0  0  0  0  0
   27.4515  -20.3091  -17.4669 C   0  0  0  0  0  0  0  0  0  0  0  0
   27.6271  -20.0526  -15.9713 C   0  0  2  0  0  0  0  0  0  0  0  0
   28.0813  -21.3694  -15.3914 C   0  0  0  0  0  0  0  0  0  0  0  0
   26.2978  -19.6451  -15.3567 C   0  0  2  0  0  0  0  0  0  0  0  0
   25.9861  -18.2660  -15.7960 N   0  0  0  0  0  0  0  0  0  0  0  0
   26.4625  -19.5849  -13.8860 C   0  0  0  0  0  0  0  0  0  0  0  0
   27.2771  -18.7136  -13.4281 O   0  0  0  0  0  0  0  0  0  0  0  0
   25.7963  -20.4034  -12.9587 N   0  0  0  0  0  0  0  0  0  0  0  0
   26.2597  -20.4271  -11.5637 C   0  0  1  0  0  0  0  0  0  0  0  0
   25.2694  -19.7134  -10.6846 C   0  0  0  0  0  0  0  0  0  0  0  0
   25.6870  -19.8221   -9.2747 C   0  0  0  0  0  0  0  0  0  0  0  0
   26.5860  -18.9116   -8.7120 C   0  0  0  0  0  0  0  0  0  0  0  0
   26.9219  -19.0463   -7.3909 C   0  0  0  0  0  0  0  0  0  0  0  0
   26.3926  -20.0589   -6.6070 C   0  0  0  0  0  0  0  0  0  0  0  0
   25.5058  -20.9571   -7.1618 C   0  0  0  0  0  0  0  0  0  0  0  0
   25.1682  -20.8281   -8.4746 C   0  0  0  0  0  0  0  0  0  0  0  0
   26.4886  -21.8260  -11.1732 C   0  0  0  0  0  0  0  0  0  0  0  0
   27.5270  -22.2016  -10.3378 O   0  0  0  0  0  0  0  0  0  0  0  0
   25.7224  -22.7425  -11.6053 O   0  0  0  0  0  0  0  0  0  0  0  0
  2  3  2  0
  2  1  1  0
  4  2  1  0
  5  6  1  0
  5  4  1  0
  6  8  1  0
  6  7  1  6
  8  9  2  0
 10 11  1  0
 12 11  1  0
 12 13  1  1
 12 14  1  0
 14 15  1  6
 15  8  1  0
 16 14  1  0
 16 17  2  0
 18 16  1  0
 19 18  1  0
 19 27  1  0
 19 20  1  1
 21 20  1  0
 21 26  2  0
 22 21  1  0
 23 22  2  0
 23 24  1  0
 24 25  2  0
 25 26  1  0
 27 29  2  0
 27 28  1  0
M  END
$$$$
