QIF.pdb
     RDKit          3D

 29 29  0  0  1  0  0  0  0  0999 V2000
   23.4151  -37.3087  -15.1393 N   0  0  0  0  0  0  0  0  0  0  0  0
   24.2379  -36.2117  -15.5042 C   0  0  0  0  0  0  0  0  0  0  0  0
   25.4735  -36.4127  -15.6046 O   0  0  0  0  0  0  0  0  0  0  0  0
   23.6572  -34.8820  -15.7562 C   0  0  0  0  0  0  0  0  0  0  0  0
   24.1343  -33.8503  -14.7557 C   0  0  0  0  0  0  0  0  0  0  0  0
   23.1639  -33.8305  -13.6160 C   0  0  2  0  0  0  0  0  0  0  0  0
   21.8743  -33.2975  -14.0021 N   0  0  0  0  0  0  0  0  0  0  0  0
   23.6281  -33.1484  -12.4209 C   0  0  0  0  0  0  0  0  0  0  0  0
   24.8566  -33.1481  -12.1450 O   0  0  0  0  0  0  0  0  0  0  0  0
   21.1369  -28.7221  -10.3461 C   0  0  0  0  0  0  0  0  0  0  0  0
   22.2203  -29.6938  -10.7535 C   0  0  0  0  0  0  0  0  0  0  0  0
   22.3301  -30.8376   -9.7469 C   0  0  2  0  0  0  0  0  0  0  0  0
   22.8485  -30.2048   -8.4791 C   0  0  0  0  0  0  0  0  0  0  0  0
   23.3185  -31.8770  -10.2506 C   0  0  2  0  0  0  0  0  0  0  0  0
   22.7847  -32.4569  -11.5039 N   0  0  0  0  0  0  0  0  0  0  0  0
   23.3706  -32.9854   -9.2696 C   0  0  0  0  0  0  0  0  0  0  0  0
   22.3817  -33.7943   -9.2543 O   0  0  0  0  0  0  0  0  0  0  0  0
   24.4161  -33.2188   -8.3608 N   0  0  0  0  0  0  0  0  0  0  0  0
   24.3268  -34.3678   -7.4480 C   0  0  1  0  0  0  0  0  0  0  0  0
   24.9675  -35.5731   -8.0801 C   0  0  0  0  0  0  0  0  0  0  0  0
   24.8762  -36.7237   -7.1626 C   0  0  0  0  0  0  0  0  0  0  0  0
   23.7075  -37.4846   -7.0672 C   0  0  0  0  0  0  0  0  0  0  0  0
   23.6856  -38.5567   -6.2151 C   0  0  0  0  0  0  0  0  0  0  0  0
   24.7899  -38.8998   -5.4515 C   0  0  0  0  0  0  0  0  0  0  0  0
   25.9428  -38.1494   -5.5456 C   0  0  0  0  0  0  0  0  0  0  0  0
   25.9705  -37.0825   -6.3911 C   0  0  0  0  0  0  0  0  0  0  0  0
   24.9314  -33.9889   -6.1625 C   0  0  0  0  0  0  0  0  0  0  0  0
   24.5058  -34.5223   -4.9576 O   0  0  0  0  0  0  0  0  0  0  0  0
   25.8783  -33.1426   -6.1276 O   0  0  0  0  0  0  0  0  0  0  0  0
  2  3  2  0
  2  1  1  0
  4  2  1  0
  5  6  1  0
  5  4  1  0
  6  8  1  0
  6  7  1  6
  8  9  2  0
 10 11  1  0
 12 11  1  0
 12 13  1  1
 12 14  1  0
 14 15  1  6
 15  8  1  0
 16 14  1  0
 16 17  2  0
 18 16  1  0
 19 18  1  0
 19 27  1  0
 19 20  1  6
 21 20  1  0
 21 26  2  0
 22 21  1  0
 23 22  2  0
 23 24  1  0
 24 25  2  0
 25 26  1  0
 27 29  2  0
 27 28  1  0
M  END
$$$$
