QIF.pdb
     RDKit          3D

 29 29  0  0  1  0  0  0  0  0999 V2000
   19.4043  -20.0158  -14.8860 N   0  0  0  0  0  0  0  0  0  0  0  0
   19.5016  -19.0553  -13.8460 C   0  0  0  0  0  0  0  0  0  0  0  0
   18.9605  -17.9366  -14.0279 O   0  0  0  0  0  0  0  0  0  0  0  0
   20.2150  -19.3646  -12.5954 C   0  0  0  0  0  0  0  0  0  0  0  0
   20.8357  -20.7456  -12.6172 C   0  0  0  0  0  0  0  0  0  0  0  0
   22.1116  -20.6651  -13.3960 C   0  0  2  0  0  0  0  0  0  0  0  0
   21.9820  -21.2315  -14.7222 N   0  0  0  0  0  0  0  0  0  0  0  0
   23.2735  -21.2380  -12.7397 C   0  0  0  0  0  0  0  0  0  0  0  0
   23.3061  -22.4746  -12.5052 O   0  0  0  0  0  0  0  0  0  0  0  0
   29.3012  -20.9990  -12.8073 C   0  0  0  0  0  0  0  0  0  0  0  0
   28.0742  -21.4414  -12.0438 C   0  0  0  0  0  0  0  0  0  0  0  0
   26.8276  -20.7225  -12.5562 C   0  0  2  0  0  0  0  0  0  0  0  0
   27.0885  -19.2551  -12.3211 C   0  0  0  0  0  0  0  0  0  0  0  0
   25.6103  -21.1676  -11.7617 C   0  0  2  0  0  0  0  0  0  0  0  0
   24.4170  -20.4961  -12.3247 N   0  0  0  0  0  0  0  0  0  0  0  0
   25.7509  -20.6694  -10.3741 C   0  0  0  0  0  0  0  0  0  0  0  0
   25.3351  -19.4847  -10.1375 O   0  0  0  0  0  0  0  0  0  0  0  0
   26.3001  -21.3923   -9.3020 N   0  0  0  0  0  0  0  0  0  0  0  0
   26.5544  -20.7013   -8.0295 C   0  0  1  0  0  0  0  0  0  0  0  0
   27.3751  -21.5806   -7.1261 C   0  0  0  0  0  0  0  0  0  0  0  0
   27.8185  -20.8097   -5.9501 C   0  0  0  0  0  0  0  0  0  0  0  0
   27.0578  -20.7727   -4.7780 C   0  0  0  0  0  0  0  0  0  0  0  0
   27.5287  -20.0590   -3.7079 C   0  0  0  0  0  0  0  0  0  0  0  0
   28.7343  -19.3783   -3.7632 C   0  0  0  0  0  0  0  0  0  0  0  0
   29.4848  -19.4148   -4.9192 C   0  0  0  0  0  0  0  0  0  0  0  0
   29.0219  -20.1227   -5.9863 C   0  0  0  0  0  0  0  0  0  0  0  0
   27.1881  -19.4071   -8.3214 C   0  0  0  0  0  0  0  0  0  0  0  0
   26.7567  -18.2242   -7.7452 O   0  0  0  0  0  0  0  0  0  0  0  0
   28.1666  -19.3436   -9.1291 O   0  0  0  0  0  0  0  0  0  0  0  0
  2  3  2  0
  2  1  1  0
  4  2  1  0
  5  6  1  0
  5  4  1  0
  6  8  1  0
  6  7  1  6
  8  9  2  0
 10 11  1  0
 12 11  1  0
 12 13  1  1
 12 14  1  0
 14 15  1  6
 15  8  1  0
 16 14  1  0
 16 17  2  0
 18 16  1  0
 19 18  1  0
 19 27  1  0
 19 20  1  1
 21 20  1  0
 21 26  2  0
 22 21  1  0
 23 22  2  0
 23 24  1  0
 24 25  2  0
 25 26  1  0
 27 29  2  0
 27 28  1  0
M  END
$$$$
