QIF.pdb
     RDKit          3D

 29 29  0  0  1  0  0  0  0  0999 V2000
   18.1163  -19.7845  -11.4707 N   0  0  0  0  0  0  0  0  0  0  0  0
   18.4279  -18.6086  -12.2012 C   0  0  0  0  0  0  0  0  0  0  0  0
   17.4757  -17.8780  -12.5712 O   0  0  0  0  0  0  0  0  0  0  0  0
   19.8243  -18.2599  -12.5132 C   0  0  0  0  0  0  0  0  0  0  0  0
   20.8108  -19.1874  -11.8353 C   0  0  0  0  0  0  0  0  0  0  0  0
   21.7358  -19.7222  -12.8838 C   0  0  2  0  0  0  0  0  0  0  0  0
   21.0339  -20.4720  -13.9045 N   0  0  0  0  0  0  0  0  0  0  0  0
   22.8457  -20.5137  -12.3832 C   0  0  0  0  0  0  0  0  0  0  0  0
   22.6128  -21.5592  -11.7214 O   0  0  0  0  0  0  0  0  0  0  0  0
   26.8636  -21.9285  -15.5180 C   0  0  0  0  0  0  0  0  0  0  0  0
   25.8479  -21.9348  -14.3989 C   0  0  0  0  0  0  0  0  0  0  0  0
   26.3696  -21.1636  -13.1879 C   0  0  2  0  0  0  0  0  0  0  0  0
   27.5524  -21.9567  -12.6893 C   0  0  0  0  0  0  0  0  0  0  0  0
   25.2963  -21.1001  -12.1133 C   0  0  2  0  0  0  0  0  0  0  0  0
   24.2207  -20.1980  -12.5835 N   0  0  0  0  0  0  0  0  0  0  0  0
   25.8777  -20.4608  -10.9103 C   0  0  0  0  0  0  0  0  0  0  0  0
   26.2294  -19.2371  -11.0156 O   0  0  0  0  0  0  0  0  0  0  0  0
   26.0701  -21.0885   -9.6683 N   0  0  0  0  0  0  0  0  0  0  0  0
   26.9702  -20.4678   -8.6854 C   0  0  1  0  0  0  0  0  0  0  0  0
   26.3968  -20.6166   -7.3027 C   0  0  0  0  0  0  0  0  0  0  0  0
   27.3217  -20.0313   -6.3149 C   0  0  0  0  0  0  0  0  0  0  0  0
   27.4397  -18.6468   -6.1627 C   0  0  0  0  0  0  0  0  0  0  0  0
   28.2979  -18.1579   -5.2137 C   0  0  0  0  0  0  0  0  0  0  0  0
   29.0457  -19.0012   -4.4078 C   0  0  0  0  0  0  0  0  0  0  0  0
   28.9295  -20.3669   -4.5577 C   0  0  0  0  0  0  0  0  0  0  0  0
   28.0779  -20.8587   -5.4994 C   0  0  0  0  0  0  0  0  0  0  0  0
   28.3050  -21.0660   -8.8340 C   0  0  0  0  0  0  0  0  0  0  0  0
   29.4669  -20.3197   -8.7325 O   0  0  0  0  0  0  0  0  0  0  0  0
   28.4247  -22.3092   -9.0662 O   0  0  0  0  0  0  0  0  0  0  0  0
  2  3  2  0
  2  1  1  0
  4  2  1  0
  5  6  1  0
  5  4  1  0
  6  8  1  0
  6  7  1  6
  8  9  2  0
 10 11  1  0
 12 11  1  0
 12 13  1  1
 12 14  1  0
 14 15  1  6
 15  8  1  0
 16 14  1  0
 16 17  2  0
 18 16  1  0
 19 18  1  0
 19 27  1  0
 19 20  1  1
 21 20  1  0
 21 26  2  0
 22 21  1  0
 23 22  2  0
 23 24  1  0
 24 25  2  0
 25 26  1  0
 27 29  2  0
 27 28  1  0
M  END
$$$$
