QIF.pdb
     RDKit          3D

 29 29  0  0  1  0  0  0  0  0999 V2000
   23.8760  -17.7848  -19.6501 N   0  0  0  0  0  0  0  0  0  0  0  0
   25.2864  -17.8106  -19.8044 C   0  0  0  0  0  0  0  0  0  0  0  0
   25.7673  -17.3724  -20.8787 O   0  0  0  0  0  0  0  0  0  0  0  0
   26.1544  -18.3352  -18.7367 C   0  0  0  0  0  0  0  0  0  0  0  0
   25.3602  -18.8472  -17.5534 C   0  0  0  0  0  0  0  0  0  0  0  0
   26.1910  -19.8757  -16.8512 C   0  0  2  0  0  0  0  0  0  0  0  0
   26.7914  -20.8184  -17.7717 N   0  0  0  0  0  0  0  0  0  0  0  0
   25.5109  -20.6025  -15.7937 C   0  0  0  0  0  0  0  0  0  0  0  0
   24.7371  -21.5502  -16.0914 O   0  0  0  0  0  0  0  0  0  0  0  0
   25.3793  -21.4521   -9.6124 C   0  0  0  0  0  0  0  0  0  0  0  0
   24.6766  -21.5233  -10.9485 C   0  0  0  0  0  0  0  0  0  0  0  0
   25.5711  -20.9811  -12.0618 C   0  0  2  0  0  0  0  0  0  0  0  0
   25.8518  -19.5472  -11.6853 C   0  0  0  0  0  0  0  0  0  0  0  0
   24.8340  -21.0348  -13.3902 C   0  0  2  0  0  0  0  0  0  0  0  0
   25.6489  -20.3259  -14.4028 N   0  0  0  0  0  0  0  0  0  0  0  0
   23.5757  -20.2648  -13.2571 C   0  0  0  0  0  0  0  0  0  0  0  0
   23.6807  -18.9976  -13.1327 O   0  0  0  0  0  0  0  0  0  0  0  0
   22.2824  -20.8134  -13.2591 N   0  0  0  0  0  0  0  0  0  0  0  0
   21.1303  -19.9286  -13.0329 C   0  0  1  0  0  0  0  0  0  0  0  0
   21.0353  -18.9197  -14.1446 C   0  0  0  0  0  0  0  0  0  0  0  0
   20.7476  -19.6069  -15.4169 C   0  0  0  0  0  0  0  0  0  0  0  0
   19.4515  -20.0157  -15.7438 C   0  0  0  0  0  0  0  0  0  0  0  0
   19.2373  -20.6296  -16.9494 C   0  0  0  0  0  0  0  0  0  0  0  0
   20.2714  -20.8520  -17.8446 C   0  0  0  0  0  0  0  0  0  0  0  0
   21.5499  -20.4488  -17.5223 C   0  0  0  0  0  0  0  0  0  0  0  0
   21.7688  -19.8379  -16.3253 C   0  0  0  0  0  0  0  0  0  0  0  0
   19.9259  -20.7600  -12.8914 C   0  0  0  0  0  0  0  0  0  0  0  0
   18.6813  -20.2202  -12.6139 O   0  0  0  0  0  0  0  0  0  0  0  0
   20.0025  -22.0214  -13.0214 O   0  0  0  0  0  0  0  0  0  0  0  0
  2  3  2  0
  2  1  1  0
  4  2  1  0
  5  6  1  0
  5  4  1  0
  6  8  1  0
  6  7  1  6
  8  9  2  0
 10 11  1  0
 12 11  1  0
 12 13  1  1
 12 14  1  0
 14 15  1  6
 15  8  1  0
 16 14  1  0
 16 17  2  0
 18 16  1  0
 19 18  1  0
 19 27  1  0
 19 20  1  6
 21 20  1  0
 21 26  2  0
 22 21  1  0
 23 22  2  0
 23 24  1  0
 24 25  2  0
 25 26  1  0
 27 29  2  0
 27 28  1  0
M  END
$$$$
