QIF.pdb
     RDKit          3D

 29 29  0  0  1  0  0  0  0  0999 V2000
   20.3271  -17.3421  -11.3129 N   0  0  0  0  0  0  0  0  0  0  0  0
   19.8730  -17.7684  -12.5879 C   0  0  0  0  0  0  0  0  0  0  0  0
   19.6481  -16.8883  -13.4552 O   0  0  0  0  0  0  0  0  0  0  0  0
   19.6734  -19.1979  -12.8805 C   0  0  0  0  0  0  0  0  0  0  0  0
   20.7343  -20.0669  -12.2384 C   0  0  0  0  0  0  0  0  0  0  0  0
   22.0065  -19.8839  -13.0059 C   0  0  2  0  0  0  0  0  0  0  0  0
   21.8561  -20.2196  -14.4062 N   0  0  0  0  0  0  0  0  0  0  0  0
   23.1602  -20.5809  -12.4653 C   0  0  0  0  0  0  0  0  0  0  0  0
   23.0353  -21.7679  -12.0641 O   0  0  0  0  0  0  0  0  0  0  0  0
   27.8319  -20.5662  -14.9598 C   0  0  0  0  0  0  0  0  0  0  0  0
   26.6149  -20.8841  -14.1220 C   0  0  0  0  0  0  0  0  0  0  0  0
   26.8323  -20.4668  -12.6687 C   0  0  2  0  0  0  0  0  0  0  0  0
   28.0180  -21.2712  -12.1959 C   0  0  0  0  0  0  0  0  0  0  0  0
   25.6052  -20.8145  -11.8415 C   0  0  2  0  0  0  0  0  0  0  0  0
   24.4637  -20.0181  -12.3460 N   0  0  0  0  0  0  0  0  0  0  0  0
   25.8394  -20.3680  -10.4488 C   0  0  0  0  0  0  0  0  0  0  0  0
   26.3147  -19.1930  -10.2879 O   0  0  0  0  0  0  0  0  0  0  0  0
   25.5799  -21.1283   -9.2963 N   0  0  0  0  0  0  0  0  0  0  0  0
   26.4430  -20.9583   -8.1184 C   0  0  1  0  0  0  0  0  0  0  0  0
   26.4362  -19.5181   -7.6841 C   0  0  0  0  0  0  0  0  0  0  0  0
   27.3107  -19.3487   -6.5092 C   0  0  0  0  0  0  0  0  0  0  0  0
   28.6009  -18.8254   -6.6345 C   0  0  0  0  0  0  0  0  0  0  0  0
   29.3619  -18.6685   -5.5065 C   0  0  0  0  0  0  0  0  0  0  0  0
   28.8827  -19.0152   -4.2534 C   0  0  0  0  0  0  0  0  0  0  0  0
   27.6101  -19.5313   -4.1296 C   0  0  0  0  0  0  0  0  0  0  0  0
   26.8489  -19.6895   -5.2474 C   0  0  0  0  0  0  0  0  0  0  0  0
   25.9915  -21.8880   -7.0727 C   0  0  0  0  0  0  0  0  0  0  0  0
   24.6869  -22.3468   -7.0022 O   0  0  0  0  0  0  0  0  0  0  0  0
   26.8064  -22.2988   -6.1890 O   0  0  0  0  0  0  0  0  0  0  0  0
  2  3  2  0
  2  1  1  0
  4  2  1  0
  5  6  1  0
  5  4  1  0
  6  8  1  0
  6  7  1  6
  8  9  2  0
 10 11  1  0
 12 11  1  0
 12 13  1  1
 12 14  1  0
 14 15  1  6
 15  8  1  0
 16 14  1  0
 16 17  2  0
 18 16  1  0
 19 18  1  0
 19 27  1  0
 19 20  1  1
 21 20  1  0
 21 26  2  0
 22 21  1  0
 23 22  2  0
 23 24  1  0
 24 25  2  0
 25 26  1  0
 27 29  2  0
 27 28  1  0
M  END
$$$$
