QIF.pdb
     RDKit          3D

 29 29  0  0  1  0  0  0  0  0999 V2000
   22.5787  -15.1249  -15.9467 N   0  0  0  0  0  0  0  0  0  0  0  0
   21.5257  -15.1380  -16.8978 C   0  0  0  0  0  0  0  0  0  0  0  0
   21.0269  -14.0362  -17.2363 O   0  0  0  0  0  0  0  0  0  0  0  0
   21.0366  -16.4052  -17.4669 C   0  0  0  0  0  0  0  0  0  0  0  0
   21.7514  -17.6070  -16.8859 C   0  0  0  0  0  0  0  0  0  0  0  0
   22.9281  -17.9104  -17.7602 C   0  0  2  0  0  0  0  0  0  0  0  0
   22.5364  -18.5022  -19.0222 N   0  0  0  0  0  0  0  0  0  0  0  0
   23.9603  -18.7267  -17.1458 C   0  0  0  0  0  0  0  0  0  0  0  0
   23.9055  -19.9800  -17.2536 O   0  0  0  0  0  0  0  0  0  0  0  0
   29.3078  -18.0710  -17.5248 C   0  0  0  0  0  0  0  0  0  0  0  0
   27.9375  -18.6844  -17.3518 C   0  0  0  0  0  0  0  0  0  0  0  0
   27.4330  -18.4916  -15.9229 C   0  0  2  0  0  0  0  0  0  0  0  0
   28.4252  -19.2176  -15.0482 C   0  0  0  0  0  0  0  0  0  0  0  0
   26.0544  -19.1145  -15.7724 C   0  0  2  0  0  0  0  0  0  0  0  0
   25.0657  -18.2139  -16.4075 N   0  0  0  0  0  0  0  0  0  0  0  0
   25.7147  -19.1535  -14.3313 C   0  0  0  0  0  0  0  0  0  0  0  0
   25.2716  -18.0747  -13.8097 O   0  0  0  0  0  0  0  0  0  0  0  0
   25.8377  -20.2769  -13.4968 N   0  0  0  0  0  0  0  0  0  0  0  0
   25.0724  -20.3228  -12.2423 C   0  0  1  0  0  0  0  0  0  0  0  0
   23.6097  -20.1197  -12.5289 C   0  0  0  0  0  0  0  0  0  0  0  0
   22.8404  -20.2049  -11.2740 C   0  0  0  0  0  0  0  0  0  0  0  0
   22.3455  -19.0577  -10.6472 C   0  0  0  0  0  0  0  0  0  0  0  0
   21.6177  -19.1969   -9.4951 C   0  0  0  0  0  0  0  0  0  0  0  0
   21.3640  -20.4421   -8.9428 C   0  0  0  0  0  0  0  0  0  0  0  0
   21.8521  -21.5738   -9.5610 C   0  0  0  0  0  0  0  0  0  0  0  0
   22.5762  -21.4416  -10.7065 C   0  0  0  0  0  0  0  0  0  0  0  0
   25.3659  -21.5941  -11.5645 C   0  0  0  0  0  0  0  0  0  0  0  0
   25.4108  -22.8014  -12.2411 O   0  0  0  0  0  0  0  0  0  0  0  0
   25.5879  -21.6138  -10.3139 O   0  0  0  0  0  0  0  0  0  0  0  0
  2  3  2  0
  2  1  1  0
  4  2  1  0
  5  6  1  0
  5  4  1  0
  6  8  1  0
  6  7  1  6
  8  9  2  0
 10 11  1  0
 12 11  1  0
 12 13  1  1
 12 14  1  0
 14 15  1  6
 15  8  1  0
 16 14  1  0
 16 17  2  0
 18 16  1  0
 19 18  1  0
 19 27  1  0
 19 20  1  6
 21 20  1  0
 21 26  2  0
 22 21  1  0
 23 22  2  0
 23 24  1  0
 24 25  2  0
 25 26  1  0
 27 29  2  0
 27 28  1  0
M  END
$$$$
