VWA.pdb
     RDKit          3D

 27 28  0  0  1  0  0  0  0  0999 V2000
    9.1497  -18.0751   19.5779 C   0  0  0  0  0  0  0  0  0  0  0  0
    8.1318  -17.0371   19.2426 C   0  0  1  0  0  0  0  0  0  0  0  0
    7.2060  -17.3636   18.1275 C   0  0  0  0  0  0  0  0  0  0  0  0
    7.3612  -16.5184   20.4375 C   0  0  2  0  0  0  0  0  0  0  0  0
    6.5312  -15.3643   20.0232 N   0  0  0  0  0  0  0  0  0  0  0  0
    8.2316  -15.9997   21.5206 C   0  0  0  0  0  0  0  0  0  0  0  0
    8.8690  -14.9045   21.3635 O   0  0  0  0  0  0  0  0  0  0  0  0
    8.4461  -16.6102   22.7715 N   0  0  0  0  0  0  0  0  0  0  0  0
    9.3900  -16.0582   23.7677 C   0  0  1  0  0  0  0  0  0  0  0  0
    8.7186  -16.2654   25.0750 C   0  0  0  0  0  0  0  0  0  0  0  0
    7.5651  -15.4454   25.4121 C   0  0  0  0  0  0  0  0  0  0  0  0
    6.2248  -15.7928   25.4599 C   0  0  0  0  0  0  0  0  0  0  0  0
    5.5480  -14.7036   25.7804 N   0  0  0  0  0  0  0  0  0  0  0  0
    6.3718  -13.6483   25.9493 C   0  0  0  0  0  0  0  0  0  0  0  0
    6.1627  -12.3220   26.2974 C   0  0  0  0  0  0  0  0  0  0  0  0
    7.2255  -11.4590   26.4158 C   0  0  0  0  0  0  0  0  0  0  0  0
    8.5191  -11.8920   26.1919 C   0  0  0  0  0  0  0  0  0  0  0  0
    8.7330  -13.2002   25.8469 C   0  0  0  0  0  0  0  0  0  0  0  0
    7.6601  -14.0843   25.7232 C   0  0  0  0  0  0  0  0  0  0  0  0
   10.7063  -16.6930   23.7220 C   0  0  0  0  0  0  0  0  0  0  0  0
   10.7289  -17.9645   23.7986 O   0  0  0  0  0  0  0  0  0  0  0  0
   14.2974  -16.0455   22.9262 C   0  0  0  0  0  0  0  0  0  0  0  0
   13.1794  -16.8057   23.5928 C   0  0  2  0  0  0  0  0  0  0  0  0
   11.9535  -16.0393   23.6014 N   0  0  0  0  0  0  0  0  0  0  0  0
   13.6144  -17.1647   24.9662 C   0  0  0  0  0  0  0  0  0  0  0  0
   14.6786  -17.7851   25.1949 O   0  0  0  0  0  0  0  0  0  0  0  0
   12.8209  -16.8047   26.0426 O   0  0  0  0  0  0  0  0  0  0  0  0
  2  4  1  0
  2  1  1  1
  2  3  1  0
  4  5  1  6
  6  4  1  0
  6  7  2  0
  8  6  1  0
  9  8  1  0
  9 10  1  1
 11 19  1  0
 11 10  1  0
 12 11  2  0
 13 12  1  0
 13 14  1  0
 14 15  1  0
 14 19  2  0
 15 16  2  0
 16 17  1  0
 18 17  2  0
 19 18  1  0
 20 24  1  0
 20  9  1  0
 21 20  2  0
 23 22  1  1
 23 24  1  0
 23 25  1  0
 25 27  1  0
 26 25  2  0
M  END
$$$$
