VWA.pdb
     RDKit          3D

 27 28  0  0  1  0  0  0  0  0999 V2000
   10.1416  -18.6427   19.4831 C   0  0  0  0  0  0  0  0  0  0  0  0
   10.3255  -17.5529   18.4808 C   0  0  1  0  0  0  0  0  0  0  0  0
   10.3466  -17.9707   17.0553 C   0  0  0  0  0  0  0  0  0  0  0  0
    9.3981  -16.3726   18.6742 C   0  0  2  0  0  0  0  0  0  0  0  0
    9.8366  -15.2563   17.8058 N   0  0  0  0  0  0  0  0  0  0  0  0
    9.4221  -15.8232   20.0517 C   0  0  0  0  0  0  0  0  0  0  0  0
   10.4487  -15.1920   20.4737 O   0  0  0  0  0  0  0  0  0  0  0  0
    8.3844  -15.9228   20.9987 N   0  0  0  0  0  0  0  0  0  0  0  0
    8.5501  -15.4808   22.4005 C   0  0  1  0  0  0  0  0  0  0  0  0
    7.1651  -15.2995   22.9023 C   0  0  0  0  0  0  0  0  0  0  0  0
    6.9602  -14.9974   24.3107 C   0  0  0  0  0  0  0  0  0  0  0  0
    6.5361  -15.8290   25.3343 C   0  0  0  0  0  0  0  0  0  0  0  0
    6.4678  -15.0966   26.4325 N   0  0  0  0  0  0  0  0  0  0  0  0
    6.8263  -13.8185   26.1906 C   0  0  0  0  0  0  0  0  0  0  0  0
    6.9350  -12.6911   26.9914 C   0  0  0  0  0  0  0  0  0  0  0  0
    7.3562  -11.4973   26.4569 C   0  0  0  0  0  0  0  0  0  0  0  0
    7.6790  -11.3948   25.1167 C   0  0  0  0  0  0  0  0  0  0  0  0
    7.5731  -12.5038   24.3196 C   0  0  0  0  0  0  0  0  0  0  0  0
    7.1455  -13.7206   24.8529 C   0  0  0  0  0  0  0  0  0  0  0  0
    9.3070  -16.4307   23.2144 C   0  0  0  0  0  0  0  0  0  0  0  0
    8.9661  -17.6551   23.1265 O   0  0  0  0  0  0  0  0  0  0  0  0
   12.5171  -16.8856   24.9782 C   0  0  0  0  0  0  0  0  0  0  0  0
   11.0496  -17.1849   24.8083 C   0  0  2  0  0  0  0  0  0  0  0  0
   10.3766  -16.1279   24.0871 N   0  0  0  0  0  0  0  0  0  0  0  0
   10.4585  -17.3968   26.1538 C   0  0  0  0  0  0  0  0  0  0  0  0
   10.5125  -18.4990   26.7468 O   0  0  0  0  0  0  0  0  0  0  0  0
    9.8213  -16.3423   26.7861 O   0  0  0  0  0  0  0  0  0  0  0  0
  2  4  1  0
  2  1  1  1
  2  3  1  0
  4  5  1  6
  6  4  1  0
  6  7  2  0
  8  6  1  0
  9  8  1  0
  9 10  1  1
 11 19  1  0
 11 10  1  0
 12 11  2  0
 13 12  1  0
 13 14  1  0
 14 15  1  0
 14 19  2  0
 15 16  2  0
 16 17  1  0
 18 17  2  0
 19 18  1  0
 20 24  1  0
 20  9  1  0
 21 20  2  0
 23 22  1  1
 23 24  1  0
 23 25  1  0
 25 27  1  0
 26 25  2  0
M  END
$$$$
