VWA.pdb
     RDKit          3D

 27 28  0  0  1  0  0  0  0  0999 V2000
    9.0131  -16.6108   19.2902 C   0  0  0  0  0  0  0  0  0  0  0  0
    8.2531  -15.3303   19.1967 C   0  0  1  0  0  0  0  0  0  0  0  0
    7.4366  -15.1412   17.9702 C   0  0  0  0  0  0  0  0  0  0  0  0
    7.4407  -15.0024   20.4308 C   0  0  2  0  0  0  0  0  0  0  0  0
    6.8781  -13.6390   20.3003 N   0  0  0  0  0  0  0  0  0  0  0  0
    8.2461  -14.9707   21.6759 C   0  0  0  0  0  0  0  0  0  0  0  0
    9.0094  -13.9772   21.9220 O   0  0  0  0  0  0  0  0  0  0  0  0
    8.2651  -15.9655   22.6727 N   0  0  0  0  0  0  0  0  0  0  0  0
    9.1527  -15.8832   23.8531 C   0  0  1  0  0  0  0  0  0  0  0  0
    8.2625  -16.1490   25.0106 C   0  0  0  0  0  0  0  0  0  0  0  0
    7.2432  -15.1695   25.3546 C   0  0  0  0  0  0  0  0  0  0  0  0
    5.8635  -15.2829   25.3023 C   0  0  0  0  0  0  0  0  0  0  0  0
    5.3593  -14.1201   25.6777 N   0  0  0  0  0  0  0  0  0  0  0  0
    6.3355  -13.2383   25.9782 C   0  0  0  0  0  0  0  0  0  0  0  0
    6.3295  -11.9254   26.4255 C   0  0  0  0  0  0  0  0  0  0  0  0
    7.5119  -11.2700   26.6722 C   0  0  0  0  0  0  0  0  0  0  0  0
    8.7263  -11.9019   26.4808 C   0  0  0  0  0  0  0  0  0  0  0  0
    8.7400  -13.1982   26.0383 C   0  0  0  0  0  0  0  0  0  0  0  0
    7.5445  -13.8721   25.7841 C   0  0  0  0  0  0  0  0  0  0  0  0
   10.2705  -16.8239   23.7953 C   0  0  0  0  0  0  0  0  0  0  0  0
   10.0038  -18.0018   23.3897 O   0  0  0  0  0  0  0  0  0  0  0  0
   13.9574  -17.0196   23.6462 C   0  0  0  0  0  0  0  0  0  0  0  0
   12.6158  -17.5942   24.0232 C   0  0  2  0  0  0  0  0  0  0  0  0
   11.6143  -16.5584   24.1432 N   0  0  0  0  0  0  0  0  0  0  0  0
   12.7742  -18.3567   25.2874 C   0  0  0  0  0  0  0  0  0  0  0  0
   12.3942  -17.9108   26.3947 O   0  0  0  0  0  0  0  0  0  0  0  0
   13.3630  -19.6097   25.2519 O   0  0  0  0  0  0  0  0  0  0  0  0
  2  4  1  0
  2  1  1  1
  2  3  1  0
  4  5  1  6
  6  4  1  0
  6  7  2  0
  8  6  1  0
  9  8  1  0
  9 10  1  1
 11 19  1  0
 11 10  1  0
 12 11  2  0
 13 12  1  0
 13 14  1  0
 14 15  1  0
 14 19  2  0
 15 16  2  0
 16 17  1  0
 18 17  2  0
 19 18  1  0
 20 24  1  0
 20  9  1  0
 21 20  2  0
 23 22  1  1
 23 24  1  0
 23 25  1  0
 25 27  1  0
 26 25  2  0
M  END
$$$$
