VWA.pdb
     RDKit          3D

 27 28  0  0  1  0  0  0  0  0999 V2000
    7.3278  -13.3106   18.9331 C   0  0  0  0  0  0  0  0  0  0  0  0
    8.0399  -13.5207   20.2272 C   0  0  1  0  0  0  0  0  0  0  0  0
    7.3575  -13.0048   21.4417 C   0  0  0  0  0  0  0  0  0  0  0  0
    8.5144  -14.9408   20.4479 C   0  0  2  0  0  0  0  0  0  0  0  0
    7.3479  -15.8528   20.4546 N   0  0  0  0  0  0  0  0  0  0  0  0
    9.1725  -15.1453   21.7613 C   0  0  0  0  0  0  0  0  0  0  0  0
   10.2388  -14.5059   22.0520 O   0  0  0  0  0  0  0  0  0  0  0  0
    8.7307  -16.0110   22.7805 N   0  0  0  0  0  0  0  0  0  0  0  0
    9.3918  -16.0765   24.1021 C   0  0  1  0  0  0  0  0  0  0  0  0
    8.3032  -16.4252   25.0488 C   0  0  0  0  0  0  0  0  0  0  0  0
    7.2692  -15.4402   25.3267 C   0  0  0  0  0  0  0  0  0  0  0  0
    5.8967  -15.5390   25.1663 C   0  0  0  0  0  0  0  0  0  0  0  0
    5.3755  -14.3763   25.5179 N   0  0  0  0  0  0  0  0  0  0  0  0
    6.3333  -13.5085   25.9054 C   0  0  0  0  0  0  0  0  0  0  0  0
    6.3045  -12.2016   26.3693 C   0  0  0  0  0  0  0  0  0  0  0  0
    7.4700  -11.5616   26.7159 C   0  0  0  0  0  0  0  0  0  0  0  0
    8.6899  -12.2030   26.6101 C   0  0  0  0  0  0  0  0  0  0  0  0
    8.7262  -13.4933   26.1518 C   0  0  0  0  0  0  0  0  0  0  0  0
    7.5480  -14.1518   25.7965 C   0  0  0  0  0  0  0  0  0  0  0  0
   10.4867  -17.0445   24.1469 C   0  0  0  0  0  0  0  0  0  0  0  0
   10.2711  -18.1747   23.5999 O   0  0  0  0  0  0  0  0  0  0  0  0
   14.1378  -17.3791   24.8194 C   0  0  0  0  0  0  0  0  0  0  0  0
   12.7338  -17.9191   24.7225 C   0  0  2  0  0  0  0  0  0  0  0  0
   11.7575  -16.8528   24.7347 N   0  0  0  0  0  0  0  0  0  0  0  0
   12.5230  -18.8721   25.8413 C   0  0  0  0  0  0  0  0  0  0  0  0
   13.2453  -19.8815   26.0111 O   0  0  0  0  0  0  0  0  0  0  0  0
   11.4914  -18.6456   26.7371 O   0  0  0  0  0  0  0  0  0  0  0  0
  2  4  1  0
  2  1  1  6
  2  3  1  0
  4  5  1  1
  6  4  1  0
  6  7  2  0
  8  6  1  0
  9  8  1  0
  9 10  1  1
 11 19  1  0
 11 10  1  0
 12 11  2  0
 13 12  1  0
 13 14  1  0
 14 15  1  0
 14 19  2  0
 15 16  2  0
 16 17  1  0
 18 17  2  0
 19 18  1  0
 20 24  1  0
 20  9  1  0
 21 20  2  0
 23 22  1  1
 23 24  1  0
 23 25  1  0
 25 27  1  0
 26 25  2  0
M  END
$$$$
