VWA.pdb
     RDKit          3D

 27 28  0  0  1  0  0  0  0  0999 V2000
    8.1653  -15.7320   16.2243 C   0  0  0  0  0  0  0  0  0  0  0  0
    8.5972  -15.5556   17.6414 C   0  0  1  0  0  0  0  0  0  0  0  0
   10.0631  -15.5205   17.8799 C   0  0  0  0  0  0  0  0  0  0  0  0
    7.9155  -14.4096   18.3571 C   0  0  2  0  0  0  0  0  0  0  0  0
    8.3732  -13.1265   17.7768 N   0  0  0  0  0  0  0  0  0  0  0  0
    8.2583  -14.3265   19.7978 C   0  0  0  0  0  0  0  0  0  0  0  0
    9.2069  -13.5669   20.1895 O   0  0  0  0  0  0  0  0  0  0  0  0
    7.6211  -15.0273   20.8401 N   0  0  0  0  0  0  0  0  0  0  0  0
    8.0321  -14.8845   22.2538 C   0  0  1  0  0  0  0  0  0  0  0  0
    6.7628  -14.9433   23.0207 C   0  0  0  0  0  0  0  0  0  0  0  0
    6.8132  -14.8691   24.4728 C   0  0  0  0  0  0  0  0  0  0  0  0
    6.6577  -15.8780   25.4094 C   0  0  0  0  0  0  0  0  0  0  0  0
    6.7500  -15.3217   26.6049 N   0  0  0  0  0  0  0  0  0  0  0  0
    6.9603  -13.9922   26.5104 C   0  0  0  0  0  0  0  0  0  0  0  0
    7.1393  -12.9864   27.4486 C   0  0  0  0  0  0  0  0  0  0  0  0
    7.3603  -11.6914   27.0453 C   0  0  0  0  0  0  0  0  0  0  0  0
    7.4087  -11.3652   25.7029 C   0  0  0  0  0  0  0  0  0  0  0  0
    7.2319  -12.3532   24.7707 C   0  0  0  0  0  0  0  0  0  0  0  0
    7.0060  -13.6712   25.1703 C   0  0  0  0  0  0  0  0  0  0  0  0
    8.9779  -15.9141   22.6816 C   0  0  0  0  0  0  0  0  0  0  0  0
    8.7066  -17.1126   22.3452 O   0  0  0  0  0  0  0  0  0  0  0  0
   12.4678  -16.4942   23.5629 C   0  0  0  0  0  0  0  0  0  0  0  0
   11.0124  -16.8348   23.7581 C   0  0  2  0  0  0  0  0  0  0  0  0
   10.1605  -15.7140   23.4291 N   0  0  0  0  0  0  0  0  0  0  0  0
   10.8221  -17.2780   25.1623 C   0  0  0  0  0  0  0  0  0  0  0  0
   10.0011  -16.7321   25.9353 O   0  0  0  0  0  0  0  0  0  0  0  0
   11.5757  -18.3345   25.6459 O   0  0  0  0  0  0  0  0  0  0  0  0
  2  4  1  0
  2  1  1  6
  2  3  1  0
  4  5  1  6
  6  4  1  0
  6  7  2  0
  8  6  1  0
  9  8  1  0
  9 10  1  1
 11 19  1  0
 11 10  1  0
 12 11  2  0
 13 12  1  0
 13 14  1  0
 14 15  1  0
 14 19  2  0
 15 16  2  0
 16 17  1  0
 18 17  2  0
 19 18  1  0
 20 24  1  0
 20  9  1  0
 21 20  2  0
 23 22  1  1
 23 24  1  0
 23 25  1  0
 25 27  1  0
 26 25  2  0
M  END
$$$$
