VWA.pdb
     RDKit          3D

 27 28  0  0  1  0  0  0  0  0999 V2000
    8.1480  -18.4064   18.8408 C   0  0  0  0  0  0  0  0  0  0  0  0
    8.9389  -17.8457   19.9749 C   0  0  1  0  0  0  0  0  0  0  0  0
   10.3795  -17.5981   19.7096 C   0  0  0  0  0  0  0  0  0  0  0  0
    8.3054  -16.6390   20.6330 C   0  0  2  0  0  0  0  0  0  0  0  0
    8.3699  -15.4847   19.7079 N   0  0  0  0  0  0  0  0  0  0  0  0
    9.0155  -16.1939   21.8567 C   0  0  0  0  0  0  0  0  0  0  0  0
    9.8829  -15.2591   21.7919 O   0  0  0  0  0  0  0  0  0  0  0  0
    8.8313  -16.7124   23.1532 N   0  0  0  0  0  0  0  0  0  0  0  0
    9.6263  -16.2460   24.3101 C   0  0  1  0  0  0  0  0  0  0  0  0
    8.7313  -16.4322   25.4793 C   0  0  0  0  0  0  0  0  0  0  0  0
    7.5538  -15.5873   25.6065 C   0  0  0  0  0  0  0  0  0  0  0  0
    6.2153  -15.9221   25.4818 C   0  0  0  0  0  0  0  0  0  0  0  0
    5.5159  -14.8126   25.6462 N   0  0  0  0  0  0  0  0  0  0  0  0
    6.3228  -13.7557   25.8752 C   0  0  0  0  0  0  0  0  0  0  0  0
    6.0861  -12.4112   26.1208 C   0  0  0  0  0  0  0  0  0  0  0  0
    7.1339  -11.5507   26.3437 C   0  0  0  0  0  0  0  0  0  0  0  0
    8.4397  -12.0041   26.3282 C   0  0  0  0  0  0  0  0  0  0  0  0
    8.6811  -13.3304   26.0853 C   0  0  0  0  0  0  0  0  0  0  0  0
    7.6237  -14.2122   25.8568 C   0  0  0  0  0  0  0  0  0  0  0  0
   10.8878  -16.9685   24.4662 C   0  0  0  0  0  0  0  0  0  0  0  0
   10.8289  -18.2394   24.3991 O   0  0  0  0  0  0  0  0  0  0  0  0
   14.5925  -16.5511   24.5211 C   0  0  0  0  0  0  0  0  0  0  0  0
   13.3122  -17.2506   24.9003 C   0  0  2  0  0  0  0  0  0  0  0  0
   12.1633  -16.4001   24.6834 N   0  0  0  0  0  0  0  0  0  0  0  0
   13.4189  -17.6819   26.3170 C   0  0  0  0  0  0  0  0  0  0  0  0
   12.6117  -17.3055   27.1980 O   0  0  0  0  0  0  0  0  0  0  0  0
   14.4463  -18.5327   26.6891 O   0  0  0  0  0  0  0  0  0  0  0  0
  2  4  1  0
  2  1  1  6
  2  3  1  0
  4  5  1  6
  6  4  1  0
  6  7  2  0
  8  6  1  0
  9  8  1  0
  9 10  1  1
 11 19  1  0
 11 10  1  0
 12 11  2  0
 13 12  1  0
 13 14  1  0
 14 15  1  0
 14 19  2  0
 15 16  2  0
 16 17  1  0
 18 17  2  0
 19 18  1  0
 20 24  1  0
 20  9  1  0
 21 20  2  0
 23 22  1  1
 23 24  1  0
 23 25  1  0
 25 27  1  0
 26 25  2  0
M  END
$$$$
