VWA.pdb
     RDKit          3D

 27 28  0  0  1  0  0  0  0  0999 V2000
    7.3318  -13.5189   19.2309 C   0  0  0  0  0  0  0  0  0  0  0  0
    8.0006  -13.6668   20.5564 C   0  0  1  0  0  0  0  0  0  0  0  0
    7.1986  -13.2708   21.7425 C   0  0  0  0  0  0  0  0  0  0  0  0
    8.6423  -15.0195   20.7772 C   0  0  2  0  0  0  0  0  0  0  0  0
    7.5908  -16.0612   20.8170 N   0  0  0  0  0  0  0  0  0  0  0  0
    9.3479  -15.1325   22.0769 C   0  0  0  0  0  0  0  0  0  0  0  0
   10.2929  -14.3243   22.3672 O   0  0  0  0  0  0  0  0  0  0  0  0
    9.0788  -16.0806   23.0830 N   0  0  0  0  0  0  0  0  0  0  0  0
    9.8218  -16.1070   24.3617 C   0  0  1  0  0  0  0  0  0  0  0  0
    8.7874  -16.3791   25.3906 C   0  0  0  0  0  0  0  0  0  0  0  0
    7.6643  -15.4633   25.5196 C   0  0  0  0  0  0  0  0  0  0  0  0
    6.3250  -15.6705   25.2325 C   0  0  0  0  0  0  0  0  0  0  0  0
    5.6911  -14.5363   25.4756 N   0  0  0  0  0  0  0  0  0  0  0  0
    6.5424  -13.5844   25.9113 C   0  0  0  0  0  0  0  0  0  0  0  0
    6.3760  -12.2653   26.3067 C   0  0  0  0  0  0  0  0  0  0  0  0
    7.4534  -11.5265   26.7328 C   0  0  0  0  0  0  0  0  0  0  0  0
    8.7197  -12.0792   26.7763 C   0  0  0  0  0  0  0  0  0  0  0  0
    8.8918  -13.3810   26.3864 C   0  0  0  0  0  0  0  0  0  0  0  0
    7.8040  -14.1394   25.9513 C   0  0  0  0  0  0  0  0  0  0  0  0
   10.8899  -17.1053   24.3824 C   0  0  0  0  0  0  0  0  0  0  0  0
   10.5998  -18.2601   23.9293 O   0  0  0  0  0  0  0  0  0  0  0  0
   14.5635  -17.4815   24.5535 C   0  0  0  0  0  0  0  0  0  0  0  0
   13.1669  -17.9993   24.7850 C   0  0  2  0  0  0  0  0  0  0  0  0
   12.2092  -16.9183   24.8535 N   0  0  0  0  0  0  0  0  0  0  0  0
   13.1711  -18.8113   26.0279 C   0  0  0  0  0  0  0  0  0  0  0  0
   13.8562  -19.8532   26.1492 O   0  0  0  0  0  0  0  0  0  0  0  0
   12.3917  -18.4104   27.1002 O   0  0  0  0  0  0  0  0  0  0  0  0
  2  4  1  0
  2  1  1  6
  2  3  1  0
  4  5  1  1
  6  4  1  0
  6  7  2  0
  8  6  1  0
  9  8  1  0
  9 10  1  1
 11 19  1  0
 11 10  1  0
 12 11  2  0
 13 12  1  0
 13 14  1  0
 14 15  1  0
 14 19  2  0
 15 16  2  0
 16 17  1  0
 18 17  2  0
 19 18  1  0
 20 24  1  0
 20  9  1  0
 21 20  2  0
 23 22  1  1
 23 24  1  0
 23 25  1  0
 25 27  1  0
 26 25  2  0
M  END
$$$$
