VWA.pdb
     RDKit          3D

 27 28  0  0  1  0  0  0  0  0999 V2000
    9.4380  -17.3733   19.8194 C   0  0  0  0  0  0  0  0  0  0  0  0
    8.4094  -16.3463   19.4829 C   0  0  1  0  0  0  0  0  0  0  0  0
    7.6009  -16.6039   18.2635 C   0  0  0  0  0  0  0  0  0  0  0  0
    7.5144  -15.9650   20.6423 C   0  0  2  0  0  0  0  0  0  0  0  0
    6.7037  -14.7836   20.2689 N   0  0  0  0  0  0  0  0  0  0  0  0
    8.2630  -15.5527   21.8545 C   0  0  0  0  0  0  0  0  0  0  0  0
    8.7757  -14.3855   21.9268 O   0  0  0  0  0  0  0  0  0  0  0  0
    8.4840  -16.3448   22.9979 N   0  0  0  0  0  0  0  0  0  0  0  0
    9.3726  -15.9118   24.0983 C   0  0  1  0  0  0  0  0  0  0  0  0
    8.5741  -16.1257   25.3309 C   0  0  0  0  0  0  0  0  0  0  0  0
    7.3885  -15.3119   25.5521 C   0  0  0  0  0  0  0  0  0  0  0  0
    6.0520  -15.6662   25.4661 C   0  0  0  0  0  0  0  0  0  0  0  0
    5.3410  -14.5808   25.7183 N   0  0  0  0  0  0  0  0  0  0  0  0
    6.1384  -13.5215   25.9689 C   0  0  0  0  0  0  0  0  0  0  0  0
    5.8889  -12.1966   26.2951 C   0  0  0  0  0  0  0  0  0  0  0  0
    6.9302  -11.3284   26.5191 C   0  0  0  0  0  0  0  0  0  0  0  0
    8.2418  -11.7545   26.4247 C   0  0  0  0  0  0  0  0  0  0  0  0
    8.4957  -13.0612   26.1021 C   0  0  0  0  0  0  0  0  0  0  0  0
    7.4451  -13.9506   25.8718 C   0  0  0  0  0  0  0  0  0  0  0  0
   10.6385  -16.6425   24.1329 C   0  0  0  0  0  0  0  0  0  0  0  0
   10.5624  -17.9141   24.1519 O   0  0  0  0  0  0  0  0  0  0  0  0
   14.2906  -16.1790   23.5196 C   0  0  0  0  0  0  0  0  0  0  0  0
   13.0990  -16.9340   24.0507 C   0  0  2  0  0  0  0  0  0  0  0  0
   11.9355  -16.0813   24.1471 N   0  0  0  0  0  0  0  0  0  0  0  0
   13.4655  -17.5170   25.3661 C   0  0  0  0  0  0  0  0  0  0  0  0
   14.4248  -18.3103   25.5073 O   0  0  0  0  0  0  0  0  0  0  0  0
   12.7251  -17.1772   26.4861 O   0  0  0  0  0  0  0  0  0  0  0  0
  2  4  1  0
  2  1  1  1
  2  3  1  0
  4  5  1  6
  6  4  1  0
  6  7  2  0
  8  6  1  0
  9  8  1  0
  9 10  1  1
 11 19  1  0
 11 10  1  0
 12 11  2  0
 13 12  1  0
 13 14  1  0
 14 15  1  0
 14 19  2  0
 15 16  2  0
 16 17  1  0
 18 17  2  0
 19 18  1  0
 20 24  1  0
 20  9  1  0
 21 20  2  0
 23 22  1  1
 23 24  1  0
 23 25  1  0
 25 27  1  0
 26 25  2  0
M  END
$$$$
