VWA.pdb
     RDKit          3D

 27 28  0  0  1  0  0  0  0  0999 V2000
    8.9112  -16.4775   18.0427 C   0  0  0  0  0  0  0  0  0  0  0  0
    8.8039  -15.0851   17.5176 C   0  0  1  0  0  0  0  0  0  0  0  0
    8.4874  -14.9527   16.0721 C   0  0  0  0  0  0  0  0  0  0  0  0
    7.9121  -14.1811   18.3410 C   0  0  2  0  0  0  0  0  0  0  0  0
    8.0847  -12.7805   17.8928 N   0  0  0  0  0  0  0  0  0  0  0  0
    8.2547  -14.1702   19.7840 C   0  0  0  0  0  0  0  0  0  0  0  0
    9.2562  -13.4971   20.2014 O   0  0  0  0  0  0  0  0  0  0  0  0
    7.5627  -14.8542   20.8023 N   0  0  0  0  0  0  0  0  0  0  0  0
    7.9708  -14.7786   22.2221 C   0  0  1  0  0  0  0  0  0  0  0  0
    6.6948  -14.7931   22.9799 C   0  0  0  0  0  0  0  0  0  0  0  0
    6.7386  -14.7544   24.4336 C   0  0  0  0  0  0  0  0  0  0  0  0
    6.6801  -15.7989   25.3418 C   0  0  0  0  0  0  0  0  0  0  0  0
    6.7197  -15.2696   26.5524 N   0  0  0  0  0  0  0  0  0  0  0  0
    6.8024  -13.9240   26.4948 C   0  0  0  0  0  0  0  0  0  0  0  0
    6.8853  -12.9319   27.4607 C   0  0  0  0  0  0  0  0  0  0  0  0
    6.9819  -11.6112   27.0936 C   0  0  0  0  0  0  0  0  0  0  0  0
    6.9985  -11.2450   25.7607 C   0  0  0  0  0  0  0  0  0  0  0  0
    6.9161  -12.2192   24.8014 C   0  0  0  0  0  0  0  0  0  0  0  0
    6.8168  -13.5633   25.1641 C   0  0  0  0  0  0  0  0  0  0  0  0
    8.8569  -15.8707   22.6218 C   0  0  0  0  0  0  0  0  0  0  0  0
    8.4643  -17.0519   22.3503 O   0  0  0  0  0  0  0  0  0  0  0  0
   12.3696  -16.6473   23.2236 C   0  0  0  0  0  0  0  0  0  0  0  0
   10.9167  -16.9182   23.5196 C   0  0  2  0  0  0  0  0  0  0  0  0
   10.1028  -15.7480   23.2776 N   0  0  0  0  0  0  0  0  0  0  0  0
   10.8067  -17.3849   24.9248 C   0  0  0  0  0  0  0  0  0  0  0  0
   11.4689  -18.3522   25.3668 O   0  0  0  0  0  0  0  0  0  0  0  0
    9.9421  -16.7328   25.7881 O   0  0  0  0  0  0  0  0  0  0  0  0
  2  4  1  0
  2  1  1  1
  2  3  1  0
  4  5  1  6
  6  4  1  0
  6  7  2  0
  8  6  1  0
  9  8  1  0
  9 10  1  1
 11 19  1  0
 11 10  1  0
 12 11  2  0
 13 12  1  0
 13 14  1  0
 14 15  1  0
 14 19  2  0
 15 16  2  0
 16 17  1  0
 18 17  2  0
 19 18  1  0
 20 24  1  0
 20  9  1  0
 21 20  2  0
 23 22  1  1
 23 24  1  0
 23 25  1  0
 25 27  1  0
 26 25  2  0
M  END
$$$$
