VWA.pdb
     RDKit          3D

 27 28  0  0  1  0  0  0  0  0999 V2000
   12.8717  -17.6712   22.2112 C   0  0  0  0  0  0  0  0  0  0  0  0
   11.9858  -17.2186   21.0993 C   0  0  1  0  0  0  0  0  0  0  0  0
   12.2735  -17.7900   19.7585 C   0  0  0  0  0  0  0  0  0  0  0  0
   10.5075  -17.3120   21.4099 C   0  0  2  0  0  0  0  0  0  0  0  0
    9.7317  -16.7596   20.2762 N   0  0  0  0  0  0  0  0  0  0  0  0
   10.1000  -16.5060   22.5864 C   0  0  0  0  0  0  0  0  0  0  0  0
   10.0601  -15.2321   22.5097 O   0  0  0  0  0  0  0  0  0  0  0  0
    9.7306  -17.0135   23.8473 N   0  0  0  0  0  0  0  0  0  0  0  0
    9.4179  -16.1310   24.9925 C   0  0  1  0  0  0  0  0  0  0  0  0
    8.0183  -16.4677   25.3536 C   0  0  0  0  0  0  0  0  0  0  0  0
    6.9821  -15.4634   25.1682 C   0  0  0  0  0  0  0  0  0  0  0  0
    5.7673  -15.5663   24.5102 C   0  0  0  0  0  0  0  0  0  0  0  0
    5.1836  -14.3822   24.5755 N   0  0  0  0  0  0  0  0  0  0  0  0
    5.9496  -13.4961   25.2455 C   0  0  0  0  0  0  0  0  0  0  0  0
    5.7841  -12.1631   25.5916 C   0  0  0  0  0  0  0  0  0  0  0  0
    6.7518  -11.5076   26.3142 C   0  0  0  0  0  0  0  0  0  0  0  0
    7.9050  -12.1592   26.7097 C   0  0  0  0  0  0  0  0  0  0  0  0
    8.0757  -13.4754   26.3706 C   0  0  0  0  0  0  0  0  0  0  0  0
    7.0991  -14.1497   25.6361 C   0  0  0  0  0  0  0  0  0  0  0  0
   10.3320  -16.3104   26.1194 C   0  0  0  0  0  0  0  0  0  0  0  0
   11.0122  -17.3875   26.1359 O   0  0  0  0  0  0  0  0  0  0  0  0
   11.5415  -14.6399   29.2747 C   0  0  0  0  0  0  0  0  0  0  0  0
   11.4049  -15.7715   28.2884 C   0  0  2  0  0  0  0  0  0  0  0  0
   10.5366  -15.4109   27.1901 N   0  0  0  0  0  0  0  0  0  0  0  0
   10.9061  -16.9659   29.0159 C   0  0  0  0  0  0  0  0  0  0  0  0
    9.7835  -17.4731   28.7877 O   0  0  0  0  0  0  0  0  0  0  0  0
   11.7046  -17.5493   29.9854 O   0  0  0  0  0  0  0  0  0  0  0  0
  2  4  1  0
  2  1  1  1
  2  3  1  0
  4  5  1  6
  6  4  1  0
  6  7  2  0
  8  6  1  0
  9  8  1  0
  9 10  1  1
 11 19  1  0
 11 10  1  0
 12 11  2  0
 13 12  1  0
 13 14  1  0
 14 15  1  0
 14 19  2  0
 15 16  2  0
 16 17  1  0
 18 17  2  0
 19 18  1  0
 20 24  1  0
 20  9  1  0
 21 20  2  0
 23 22  1  1
 23 24  1  0
 23 25  1  0
 25 27  1  0
 26 25  2  0
M  END
$$$$
