VWA.pdb
     RDKit          3D

 27 28  0  0  1  0  0  0  0  0999 V2000
    9.2496  -16.9951   19.5242 C   0  0  0  0  0  0  0  0  0  0  0  0
    8.1308  -16.0176   19.3874 C   0  0  1  0  0  0  0  0  0  0  0  0
    7.2805  -16.1603   18.1777 C   0  0  0  0  0  0  0  0  0  0  0  0
    7.2723  -15.8836   20.6267 C   0  0  2  0  0  0  0  0  0  0  0  0
    6.3253  -14.7594   20.4487 N   0  0  0  0  0  0  0  0  0  0  0  0
    8.0461  -15.5479   21.8467 C   0  0  0  0  0  0  0  0  0  0  0  0
    8.4963  -14.3652   22.0166 O   0  0  0  0  0  0  0  0  0  0  0  0
    8.3570  -16.4331   22.8971 N   0  0  0  0  0  0  0  0  0  0  0  0
    9.2392  -16.0469   24.0198 C   0  0  1  0  0  0  0  0  0  0  0  0
    8.4089  -16.2446   25.2339 C   0  0  0  0  0  0  0  0  0  0  0  0
    7.3107  -15.3264   25.4934 C   0  0  0  0  0  0  0  0  0  0  0  0
    5.9457  -15.5381   25.3880 C   0  0  0  0  0  0  0  0  0  0  0  0
    5.3469  -14.3998   25.6927 N   0  0  0  0  0  0  0  0  0  0  0  0
    6.2461  -13.4408   25.9967 C   0  0  0  0  0  0  0  0  0  0  0  0
    6.1303  -12.1150   26.3879 C   0  0  0  0  0  0  0  0  0  0  0  0
    7.2529  -11.3693   26.6563 C   0  0  0  0  0  0  0  0  0  0  0  0
    8.5151  -11.9215   26.5429 C   0  0  0  0  0  0  0  0  0  0  0  0
    8.6371  -13.2299   26.1561 C   0  0  0  0  0  0  0  0  0  0  0  0
    7.5031  -13.9953   25.8804 C   0  0  0  0  0  0  0  0  0  0  0  0
   10.4758  -16.8253   24.0698 C   0  0  0  0  0  0  0  0  0  0  0  0
   10.3567  -18.0908   23.9833 O   0  0  0  0  0  0  0  0  0  0  0  0
   14.2026  -16.5135   23.9255 C   0  0  0  0  0  0  0  0  0  0  0  0
   12.9153  -17.2182   24.2700 C   0  0  2  0  0  0  0  0  0  0  0  0
   11.7873  -16.3162   24.2041 N   0  0  0  0  0  0  0  0  0  0  0  0
   13.0609  -17.8209   25.6192 C   0  0  0  0  0  0  0  0  0  0  0  0
   12.2988  -17.5331   26.5709 O   0  0  0  0  0  0  0  0  0  0  0  0
   14.0744  -18.7373   25.8445 O   0  0  0  0  0  0  0  0  0  0  0  0
  2  4  1  0
  2  1  1  1
  2  3  1  0
  4  5  1  6
  6  4  1  0
  6  7  2  0
  8  6  1  0
  9  8  1  0
  9 10  1  1
 11 19  1  0
 11 10  1  0
 12 11  2  0
 13 12  1  0
 13 14  1  0
 14 15  1  0
 14 19  2  0
 15 16  2  0
 16 17  1  0
 18 17  2  0
 19 18  1  0
 20 24  1  0
 20  9  1  0
 21 20  2  0
 23 22  1  1
 23 24  1  0
 23 25  1  0
 25 27  1  0
 26 25  2  0
M  END
$$$$
