VWA.pdb
     RDKit          3D

 27 28  0  0  1  0  0  0  0  0999 V2000
    7.7826  -15.3202   16.1744 C   0  0  0  0  0  0  0  0  0  0  0  0
    8.3234  -15.2020   17.5599 C   0  0  1  0  0  0  0  0  0  0  0  0
    9.8033  -15.1649   17.6845 C   0  0  0  0  0  0  0  0  0  0  0  0
    7.6941  -14.0940   18.3764 C   0  0  2  0  0  0  0  0  0  0  0  0
    8.1624  -12.7839   17.8696 N   0  0  0  0  0  0  0  0  0  0  0  0
    8.0877  -14.1185   19.8062 C   0  0  0  0  0  0  0  0  0  0  0  0
    9.0632  -13.4039   20.2163 O   0  0  0  0  0  0  0  0  0  0  0  0
    7.4739  -14.8811   20.8188 N   0  0  0  0  0  0  0  0  0  0  0  0
    7.9242  -14.8315   22.2269 C   0  0  1  0  0  0  0  0  0  0  0  0
    6.6725  -14.8842   23.0226 C   0  0  0  0  0  0  0  0  0  0  0  0
    6.7598  -14.8683   24.4747 C   0  0  0  0  0  0  0  0  0  0  0  0
    6.7699  -15.9294   25.3653 C   0  0  0  0  0  0  0  0  0  0  0  0
    6.8266  -15.4193   26.5834 N   0  0  0  0  0  0  0  0  0  0  0  0
    6.8557  -14.0707   26.5476 C   0  0  0  0  0  0  0  0  0  0  0  0
    6.9302  -13.0925   27.5282 C   0  0  0  0  0  0  0  0  0  0  0  0
    6.9645  -11.7631   27.1821 C   0  0  0  0  0  0  0  0  0  0  0  0
    6.9256  -11.3742   25.8562 C   0  0  0  0  0  0  0  0  0  0  0  0
    6.8510  -12.3346   24.8825 C   0  0  0  0  0  0  0  0  0  0  0  0
    6.8148  -13.6875   25.2238 C   0  0  0  0  0  0  0  0  0  0  0  0
    8.8391  -15.9179   22.5737 C   0  0  0  0  0  0  0  0  0  0  0  0
    8.4938  -17.0906   22.2148 O   0  0  0  0  0  0  0  0  0  0  0  0
   12.3310  -16.7020   23.2225 C   0  0  0  0  0  0  0  0  0  0  0  0
   10.8769  -16.9684   23.5171 C   0  0  2  0  0  0  0  0  0  0  0  0
   10.0657  -15.7984   23.2655 N   0  0  0  0  0  0  0  0  0  0  0  0
   10.7630  -17.4255   24.9251 C   0  0  0  0  0  0  0  0  0  0  0  0
   11.4041  -18.4062   25.3686 O   0  0  0  0  0  0  0  0  0  0  0  0
    9.9188  -16.7487   25.7895 O   0  0  0  0  0  0  0  0  0  0  0  0
  2  4  1  0
  2  1  1  6
  2  3  1  0
  4  5  1  6
  6  4  1  0
  6  7  2  0
  8  6  1  0
  9  8  1  0
  9 10  1  1
 11 19  1  0
 11 10  1  0
 12 11  2  0
 13 12  1  0
 13 14  1  0
 14 15  1  0
 14 19  2  0
 15 16  2  0
 16 17  1  0
 18 17  2  0
 19 18  1  0
 20 24  1  0
 20  9  1  0
 21 20  2  0
 23 22  1  1
 23 24  1  0
 23 25  1  0
 25 27  1  0
 26 25  2  0
M  END
$$$$
