VWA.pdb
     RDKit          3D

 27 28  0  0  1  0  0  0  0  0999 V2000
    9.0836  -17.8392   18.7812 C   0  0  0  0  0  0  0  0  0  0  0  0
    8.8783  -16.6152   17.9532 C   0  0  1  0  0  0  0  0  0  0  0  0
    8.5470  -16.8401   16.5226 C   0  0  0  0  0  0  0  0  0  0  0  0
    7.9302  -15.6068   18.5654 C   0  0  2  0  0  0  0  0  0  0  0  0
    8.0072  -14.3373   17.8072 N   0  0  0  0  0  0  0  0  0  0  0  0
    8.2753  -15.2448   19.9617 C   0  0  0  0  0  0  0  0  0  0  0  0
    9.2604  -14.4678   20.1991 O   0  0  0  0  0  0  0  0  0  0  0  0
    7.6029  -15.6835   21.1189 N   0  0  0  0  0  0  0  0  0  0  0  0
    8.0568  -15.3231   22.4798 C   0  0  1  0  0  0  0  0  0  0  0  0
    6.8093  -15.2314   23.2787 C   0  0  0  0  0  0  0  0  0  0  0  0
    6.9068  -15.0250   24.7156 C   0  0  0  0  0  0  0  0  0  0  0  0
    6.8890  -15.9578   25.7397 C   0  0  0  0  0  0  0  0  0  0  0  0
    6.9700  -15.2920   26.8788 N   0  0  0  0  0  0  0  0  0  0  0  0
    7.0417  -13.9619   26.6633 C   0  0  0  0  0  0  0  0  0  0  0  0
    7.1538  -12.8647   27.5046 C   0  0  0  0  0  0  0  0  0  0  0  0
    7.2280  -11.5951   26.9842 C   0  0  0  0  0  0  0  0  0  0  0  0
    7.1927  -11.3852   25.6183 C   0  0  0  0  0  0  0  0  0  0  0  0
    7.0812  -12.4639   24.7816 C   0  0  0  0  0  0  0  0  0  0  0  0
    7.0043  -13.7573   25.3004 C   0  0  0  0  0  0  0  0  0  0  0  0
    8.9979  -16.2894   23.0438 C   0  0  0  0  0  0  0  0  0  0  0  0
    8.7038  -17.5210   22.9023 O   0  0  0  0  0  0  0  0  0  0  0  0
   12.5193  -16.7468   23.7367 C   0  0  0  0  0  0  0  0  0  0  0  0
   11.0950  -17.0611   24.1173 C   0  0  2  0  0  0  0  0  0  0  0  0
   10.1987  -15.9954   23.7287 N   0  0  0  0  0  0  0  0  0  0  0  0
   11.0487  -17.3145   25.5795 C   0  0  0  0  0  0  0  0  0  0  0  0
   10.3743  -16.6082   26.3642 O   0  0  0  0  0  0  0  0  0  0  0  0
   11.7749  -18.3696   26.1063 O   0  0  0  0  0  0  0  0  0  0  0  0
  2  4  1  0
  2  1  1  1
  2  3  1  0
  4  5  1  6
  6  4  1  0
  6  7  2  0
  8  6  1  0
  9  8  1  0
  9 10  1  1
 11 19  1  0
 11 10  1  0
 12 11  2  0
 13 12  1  0
 13 14  1  0
 14 15  1  0
 14 19  2  0
 15 16  2  0
 16 17  1  0
 18 17  2  0
 19 18  1  0
 20 24  1  0
 20  9  1  0
 21 20  2  0
 23 22  1  1
 23 24  1  0
 23 25  1  0
 25 27  1  0
 26 25  2  0
M  END
$$$$
