VWA.pdb
     RDKit          3D

 27 28  0  0  1  0  0  0  0  0999 V2000
    8.5155  -12.4338   20.2707 C   0  0  0  0  0  0  0  0  0  0  0  0
    7.6286  -13.6320   20.2093 C   0  0  1  0  0  0  0  0  0  0  0  0
    6.7104  -13.7083   19.0440 C   0  0  0  0  0  0  0  0  0  0  0  0
    8.3525  -14.9471   20.4017 C   0  0  2  0  0  0  0  0  0  0  0  0
    7.3733  -16.0571   20.3607 N   0  0  0  0  0  0  0  0  0  0  0  0
    9.0175  -15.0667   21.7220 C   0  0  0  0  0  0  0  0  0  0  0  0
    9.9991  -14.3058   22.0181 O   0  0  0  0  0  0  0  0  0  0  0  0
    8.6698  -15.9727   22.7427 N   0  0  0  0  0  0  0  0  0  0  0  0
    9.4352  -16.0717   24.0046 C   0  0  1  0  0  0  0  0  0  0  0  0
    8.4329  -16.4818   25.0195 C   0  0  0  0  0  0  0  0  0  0  0  0
    7.3917  -15.5403   25.4016 C   0  0  0  0  0  0  0  0  0  0  0  0
    6.0157  -15.7003   25.3890 C   0  0  0  0  0  0  0  0  0  0  0  0
    5.4837  -14.5582   25.7888 N   0  0  0  0  0  0  0  0  0  0  0  0
    6.4380  -13.6459   26.0679 C   0  0  0  0  0  0  0  0  0  0  0  0
    6.4007  -12.3373   26.5262 C   0  0  0  0  0  0  0  0  0  0  0  0
    7.5669  -11.6438   26.7435 C   0  0  0  0  0  0  0  0  0  0  0  0
    8.7959  -12.2324   26.5112 C   0  0  0  0  0  0  0  0  0  0  0  0
    8.8404  -13.5241   26.0576 C   0  0  0  0  0  0  0  0  0  0  0  0
    7.6614  -14.2366   25.8330 C   0  0  0  0  0  0  0  0  0  0  0  0
   10.5504  -17.0138   23.9251 C   0  0  0  0  0  0  0  0  0  0  0  0
   10.3149  -18.1293   23.3565 O   0  0  0  0  0  0  0  0  0  0  0  0
   14.2404  -17.2541   24.1120 C   0  0  0  0  0  0  0  0  0  0  0  0
   12.8617  -17.8442   24.2632 C   0  0  2  0  0  0  0  0  0  0  0  0
   11.8608  -16.8120   24.4146 N   0  0  0  0  0  0  0  0  0  0  0  0
   12.8765  -18.7716   25.4226 C   0  0  0  0  0  0  0  0  0  0  0  0
   13.6549  -19.7508   25.4917 O   0  0  0  0  0  0  0  0  0  0  0  0
   12.0005  -18.5547   26.4732 O   0  0  0  0  0  0  0  0  0  0  0  0
  2  4  1  0
  2  1  1  6
  2  3  1  0
  4  5  1  1
  6  4  1  0
  6  7  2  0
  8  6  1  0
  9  8  1  0
  9 10  1  1
 11 19  1  0
 11 10  1  0
 12 11  2  0
 13 12  1  0
 13 14  1  0
 14 15  1  0
 14 19  2  0
 15 16  2  0
 16 17  1  0
 18 17  2  0
 19 18  1  0
 20 24  1  0
 20  9  1  0
 21 20  2  0
 23 22  1  1
 23 24  1  0
 23 25  1  0
 25 27  1  0
 26 25  2  0
M  END
$$$$
