VWA.pdb
     RDKit          3D

 27 28  0  0  1  0  0  0  0  0999 V2000
    9.4200  -17.4581   19.3514 C   0  0  0  0  0  0  0  0  0  0  0  0
    8.2131  -16.5905   19.2220 C   0  0  1  0  0  0  0  0  0  0  0  0
    7.3199  -16.8783   18.0704 C   0  0  0  0  0  0  0  0  0  0  0  0
    7.4088  -16.4566   20.4971 C   0  0  2  0  0  0  0  0  0  0  0  0
    6.3452  -15.4449   20.3026 N   0  0  0  0  0  0  0  0  0  0  0  0
    8.2049  -15.9643   21.6476 C   0  0  0  0  0  0  0  0  0  0  0  0
    8.6296  -14.7603   21.6667 O   0  0  0  0  0  0  0  0  0  0  0  0
    8.5645  -16.7143   22.7842 N   0  0  0  0  0  0  0  0  0  0  0  0
    9.4313  -16.1657   23.8499 C   0  0  1  0  0  0  0  0  0  0  0  0
    8.6733  -16.3961   25.1050 C   0  0  0  0  0  0  0  0  0  0  0  0
    7.5723  -15.5048   25.4366 C   0  0  0  0  0  0  0  0  0  0  0  0
    6.2141  -15.7715   25.4959 C   0  0  0  0  0  0  0  0  0  0  0  0
    5.6048  -14.6399   25.8048 N   0  0  0  0  0  0  0  0  0  0  0  0
    6.4905  -13.6331   25.9549 C   0  0  0  0  0  0  0  0  0  0  0  0
    6.3623  -12.2921   26.2857 C   0  0  0  0  0  0  0  0  0  0  0  0
    7.4750  -11.4921   26.3869 C   0  0  0  0  0  0  0  0  0  0  0  0
    8.7393  -12.0039   26.1625 C   0  0  0  0  0  0  0  0  0  0  0  0
    8.8735  -13.3270   25.8345 C   0  0  0  0  0  0  0  0  0  0  0  0
    7.7495  -14.1476   25.7284 C   0  0  0  0  0  0  0  0  0  0  0  0
   10.7543  -16.7868   23.8880 C   0  0  0  0  0  0  0  0  0  0  0  0
   10.7859  -18.0603   23.9061 O   0  0  0  0  0  0  0  0  0  0  0  0
   14.4081  -16.0614   23.5275 C   0  0  0  0  0  0  0  0  0  0  0  0
   13.2293  -16.8714   24.0034 C   0  0  2  0  0  0  0  0  0  0  0  0
   11.9991  -16.1179   23.9064 N   0  0  0  0  0  0  0  0  0  0  0  0
   13.4978  -17.3111   25.3958 C   0  0  0  0  0  0  0  0  0  0  0  0
   12.7220  -17.0528   26.3450 O   0  0  0  0  0  0  0  0  0  0  0  0
   14.6469  -18.0353   25.6665 O   0  0  0  0  0  0  0  0  0  0  0  0
  2  4  1  0
  2  1  1  1
  2  3  1  0
  4  5  1  6
  6  4  1  0
  6  7  2  0
  8  6  1  0
  9  8  1  0
  9 10  1  1
 11 19  1  0
 11 10  1  0
 12 11  2  0
 13 12  1  0
 13 14  1  0
 14 15  1  0
 14 19  2  0
 15 16  2  0
 16 17  1  0
 18 17  2  0
 19 18  1  0
 20 24  1  0
 20  9  1  0
 21 20  2  0
 23 22  1  1
 23 24  1  0
 23 25  1  0
 25 27  1  0
 26 25  2  0
M  END
$$$$
