VWA.pdb
     RDKit          3D

 27 28  0  0  1  0  0  0  0  0999 V2000
    6.9241  -18.6357   18.8141 C   0  0  0  0  0  0  0  0  0  0  0  0
    7.9132  -18.0838   19.7852 C   0  0  1  0  0  0  0  0  0  0  0  0
    9.3183  -17.9959   19.3106 C   0  0  0  0  0  0  0  0  0  0  0  0
    7.4877  -16.7813   20.4278 C   0  0  2  0  0  0  0  0  0  0  0  0
    7.5274  -15.6994   19.4177 N   0  0  0  0  0  0  0  0  0  0  0  0
    8.3971  -16.3330   21.5103 C   0  0  0  0  0  0  0  0  0  0  0  0
    9.2932  -15.4546   21.2739 O   0  0  0  0  0  0  0  0  0  0  0  0
    8.3835  -16.7898   22.8425 N   0  0  0  0  0  0  0  0  0  0  0  0
    9.3226  -16.2753   23.8630 C   0  0  1  0  0  0  0  0  0  0  0  0
    8.5864  -16.3988   25.1458 C   0  0  0  0  0  0  0  0  0  0  0  0
    7.4617  -15.5118   25.4006 C   0  0  0  0  0  0  0  0  0  0  0  0
    6.1033  -15.7780   25.3441 C   0  0  0  0  0  0  0  0  0  0  0  0
    5.4704  -14.6510   25.6204 N   0  0  0  0  0  0  0  0  0  0  0  0
    6.3405  -13.6477   25.8590 C   0  0  0  0  0  0  0  0  0  0  0  0
    6.1853  -12.3121   26.1999 C   0  0  0  0  0  0  0  0  0  0  0  0
    7.2857  -11.5150   26.4049 C   0  0  0  0  0  0  0  0  0  0  0  0
    8.5643  -12.0244   26.2764 C   0  0  0  0  0  0  0  0  0  0  0  0
    8.7252  -13.3422   25.9390 C   0  0  0  0  0  0  0  0  0  0  0  0
    7.6140  -14.1598   25.7279 C   0  0  0  0  0  0  0  0  0  0  0  0
   10.5924  -16.9995   23.8891 C   0  0  0  0  0  0  0  0  0  0  0  0
   10.5232  -18.2717   23.8918 O   0  0  0  0  0  0  0  0  0  0  0  0
   14.1908  -16.6387   23.1391 C   0  0  0  0  0  0  0  0  0  0  0  0
   13.0554  -17.2819   23.8936 C   0  0  2  0  0  0  0  0  0  0  0  0
   11.8863  -16.4315   23.9114 N   0  0  0  0  0  0  0  0  0  0  0  0
   13.5276  -17.5982   25.2653 C   0  0  0  0  0  0  0  0  0  0  0  0
   14.4956  -18.3626   25.4846 O   0  0  0  0  0  0  0  0  0  0  0  0
   12.8803  -17.0317   26.3506 O   0  0  0  0  0  0  0  0  0  0  0  0
  2  4  1  0
  2  1  1  6
  2  3  1  0
  4  5  1  6
  6  4  1  0
  6  7  2  0
  8  6  1  0
  9  8  1  0
  9 10  1  1
 11 19  1  0
 11 10  1  0
 12 11  2  0
 13 12  1  0
 13 14  1  0
 14 15  1  0
 14 19  2  0
 15 16  2  0
 16 17  1  0
 18 17  2  0
 19 18  1  0
 20 24  1  0
 20  9  1  0
 21 20  2  0
 23 22  1  6
 23 24  1  0
 23 25  1  0
 25 27  1  0
 26 25  2  0
M  END
$$$$
