SSL.pdb
     RDKit          3D

 21 20  0  0  1  0  0  0  0  0999 V2000
    8.0595  -13.7333   19.2654 O   0  0  0  0  0  0  0  0  0  0  0  0
    7.9405  -14.8706   18.5046 C   0  0  0  0  0  0  0  0  0  0  0  0
    8.5041  -16.1027   19.1820 C   0  0  2  0  0  0  0  0  0  0  0  0
    8.3356  -17.2700   18.3384 N   0  0  0  0  0  0  0  0  0  0  0  0
    7.8786  -16.3772   20.4881 C   0  0  0  0  0  0  0  0  0  0  0  0
    6.8879  -17.1356   20.5461 O   0  0  0  0  0  0  0  0  0  0  0  0
    8.0696  -18.3018   24.3424 O   0  0  0  0  0  0  0  0  0  0  0  0
    8.3012  -17.7802   23.0736 C   0  0  0  0  0  0  0  0  0  0  0  0
    8.0197  -16.3137   23.0007 C   0  0  2  0  0  0  0  0  0  0  0  0
    8.3696  -15.8053   21.6789 N   0  0  0  0  0  0  0  0  0  0  0  0
    8.6377  -15.5146   24.0593 C   0  0  0  0  0  0  0  0  0  0  0  0
    9.8937  -15.3419   23.9986 O   0  0  0  0  0  0  0  0  0  0  0  0
    5.6063  -11.8879   26.9347 C   0  0  0  0  0  0  0  0  0  0  0  0
    6.6398  -12.6418   26.0850 C   0  0  1  0  0  0  0  0  0  0  0  0
    7.3992  -11.5371   25.3418 C   0  0  0  0  0  0  0  0  0  0  0  0
    7.6415  -13.3304   26.9670 C   0  0  0  0  0  0  0  0  0  0  0  0
    8.6062  -14.1150   26.1750 C   0  0  2  0  0  0  0  0  0  0  0  0
    7.9758  -14.9209   25.1348 N   0  0  0  0  0  0  0  0  0  0  0  0
    9.3073  -15.0928   27.0438 C   0  0  0  0  0  0  0  0  0  0  0  0
    9.1265  -16.3348   27.0355 O   0  0  0  0  0  0  0  0  0  0  0  0
   10.2783  -14.6922   27.9938 O   0  0  0  0  0  0  0  0  0  0  0  0
  1  2  1  0
  2  3  1  0
  3  4  1  6
  3  5  1  0
  5  6  2  0
  7  8  1  0
  9  8  1  6
 10  5  1  0
 10  9  1  0
 11 18  1  0
 11  9  1  0
 12 11  2  0
 14 13  1  1
 14 15  1  0
 17 16  1  1
 16 14  1  0
 17 18  1  0
 19 21  1  0
 19 17  1  0
 20 19  2  0
M  END
$$$$
