SSL.pdb
     RDKit          3D

 21 20  0  0  1  0  0  0  0  0999 V2000
    5.2217  -15.5161   21.1178 O   0  0  0  0  0  0  0  0  0  0  0  0
    6.2337  -14.8308   20.4911 C   0  0  0  0  0  0  0  0  0  0  0  0
    7.4027  -15.7140   20.1065 C   0  0  2  0  0  0  0  0  0  0  0  0
    6.9973  -16.6937   19.1172 N   0  0  0  0  0  0  0  0  0  0  0  0
    7.9869  -16.4272   21.2565 C   0  0  0  0  0  0  0  0  0  0  0  0
    7.5293  -17.5426   21.5831 O   0  0  0  0  0  0  0  0  0  0  0  0
   11.8374  -16.3865   22.1911 O   0  0  0  0  0  0  0  0  0  0  0  0
   10.9007  -17.2623   22.7308 C   0  0  0  0  0  0  0  0  0  0  0  0
    9.6441  -16.5669   23.1463 C   0  0  2  0  0  0  0  0  0  0  0  0
    9.0524  -15.8833   22.0015 N   0  0  0  0  0  0  0  0  0  0  0  0
    9.7888  -15.6643   24.2890 C   0  0  0  0  0  0  0  0  0  0  0  0
   10.8293  -14.9385   24.3279 O   0  0  0  0  0  0  0  0  0  0  0  0
    5.9047  -12.6534   26.2554 C   0  0  0  0  0  0  0  0  0  0  0  0
    7.2488  -13.2564   25.8214 C   0  0  1  0  0  0  0  0  0  0  0  0
    8.1329  -12.0400   25.5246 C   0  0  0  0  0  0  0  0  0  0  0  0
    7.8919  -13.9829   26.9678 C   0  0  0  0  0  0  0  0  0  0  0  0
    9.1013  -14.7068   26.5354 C   0  0  2  0  0  0  0  0  0  0  0  0
    8.8881  -15.5239   25.3456 N   0  0  0  0  0  0  0  0  0  0  0  0
    9.5279  -15.6649   27.5856 C   0  0  0  0  0  0  0  0  0  0  0  0
    9.9186  -15.3559   28.7376 O   0  0  0  0  0  0  0  0  0  0  0  0
    9.5306  -17.0644   27.3688 O   0  0  0  0  0  0  0  0  0  0  0  0
  1  2  1  0
  2  3  1  0
  3  4  1  6
  3  5  1  0
  5  6  2  0
  7  8  1  0
  9  8  1  6
 10  5  1  0
 10  9  1  0
 11 18  1  0
 11  9  1  0
 12 11  2  0
 14 13  1  1
 14 15  1  0
 17 16  1  1
 16 14  1  0
 17 18  1  0
 19 21  1  0
 19 17  1  0
 20 19  2  0
M  END
$$$$
