SSL.pdb
     RDKit          3D

 21 20  0  0  1  0  0  0  0  0999 V2000
   10.9905  -16.7861   20.8097 O   0  0  0  0  0  0  0  0  0  0  0  0
   10.2425  -17.8514   20.3716 C   0  0  0  0  0  0  0  0  0  0  0  0
    8.7683  -17.5298   20.2382 C   0  0  2  0  0  0  0  0  0  0  0  0
    8.5414  -16.6327   19.1218 N   0  0  0  0  0  0  0  0  0  0  0  0
    8.2019  -16.9154   21.4524 C   0  0  0  0  0  0  0  0  0  0  0  0
    7.8343  -15.7221   21.4214 O   0  0  0  0  0  0  0  0  0  0  0  0
    7.8167  -19.0411   25.1655 O   0  0  0  0  0  0  0  0  0  0  0  0
    6.8067  -18.2495   24.6280 C   0  0  0  0  0  0  0  0  0  0  0  0
    7.3437  -17.1190   23.8102 C   0  0  2  0  0  0  0  0  0  0  0  0
    8.0630  -17.6402   22.6531 N   0  0  0  0  0  0  0  0  0  0  0  0
    8.1560  -16.1539   24.5518 C   0  0  0  0  0  0  0  0  0  0  0  0
    9.4039  -16.1455   24.3201 O   0  0  0  0  0  0  0  0  0  0  0  0
    5.6873  -11.8198   26.8709 C   0  0  0  0  0  0  0  0  0  0  0  0
    6.5769  -12.7894   26.0790 C   0  0  1  0  0  0  0  0  0  0  0  0
    7.1691  -11.9307   24.9558 C   0  0  0  0  0  0  0  0  0  0  0  0
    7.7327  -13.2474   26.9217 C   0  0  0  0  0  0  0  0  0  0  0  0
    8.5155  -14.2933   26.2385 C   0  0  2  0  0  0  0  0  0  0  0  0
    7.6884  -15.2370   25.4942 N   0  0  0  0  0  0  0  0  0  0  0  0
    9.2408  -15.1224   27.2330 C   0  0  0  0  0  0  0  0  0  0  0  0
   10.1265  -14.7073   28.0195 O   0  0  0  0  0  0  0  0  0  0  0  0
    8.9855  -16.5070   27.3854 O   0  0  0  0  0  0  0  0  0  0  0  0
  1  2  1  0
  2  3  1  0
  3  4  1  6
  3  5  1  0
  5  6  2  0
  7  8  1  0
  9  8  1  1
 10  5  1  0
 10  9  1  0
 11 18  1  0
 11  9  1  0
 12 11  2  0
 14 13  1  1
 14 15  1  0
 17 16  1  1
 16 14  1  0
 17 18  1  0
 19 21  1  0
 19 17  1  0
 20 19  2  0
M  END
$$$$
