SSL.pdb
     RDKit          3D

 21 20  0  0  1  0  0  0  0  0999 V2000
   11.2360  -13.6423   20.0789 O   0  0  0  0  0  0  0  0  0  0  0  0
   10.6091  -14.4812   19.1903 C   0  0  0  0  0  0  0  0  0  0  0  0
    9.1341  -14.1789   19.0243 C   0  0  2  0  0  0  0  0  0  0  0  0
    8.9418  -12.8189   18.5593 N   0  0  0  0  0  0  0  0  0  0  0  0
    8.3669  -14.3584   20.2699 C   0  0  0  0  0  0  0  0  0  0  0  0
    7.9030  -13.3566   20.8540 O   0  0  0  0  0  0  0  0  0  0  0  0
    7.9240  -18.1584   22.2787 O   0  0  0  0  0  0  0  0  0  0  0  0
    6.8782  -17.2598   22.0936 C   0  0  0  0  0  0  0  0  0  0  0  0
    7.3498  -15.8425   22.0307 C   0  0  2  0  0  0  0  0  0  0  0  0
    8.1412  -15.6349   20.8230 N   0  0  0  0  0  0  0  0  0  0  0  0
    8.0626  -15.3773   23.2209 C   0  0  0  0  0  0  0  0  0  0  0  0
    9.3231  -15.2564   23.1329 O   0  0  0  0  0  0  0  0  0  0  0  0
    5.5519  -12.2070   26.9461 C   0  0  0  0  0  0  0  0  0  0  0  0
    6.5538  -12.8079   25.9493 C   0  0  1  0  0  0  0  0  0  0  0  0
    7.5284  -11.6626   25.6531 C   0  0  0  0  0  0  0  0  0  0  0  0
    7.3573  -13.8945   26.6045 C   0  0  0  0  0  0  0  0  0  0  0  0
    8.2140  -14.5929   25.6288 C   0  0  2  0  0  0  0  0  0  0  0  0
    7.4871  -15.0518   24.4499 N   0  0  0  0  0  0  0  0  0  0  0  0
    8.7793  -15.8250   26.2329 C   0  0  0  0  0  0  0  0  0  0  0  0
    8.4668  -16.9994   25.9188 O   0  0  0  0  0  0  0  0  0  0  0  0
    9.7580  -15.7790   27.2555 O   0  0  0  0  0  0  0  0  0  0  0  0
  1  2  1  0
  2  3  1  0
  3  4  1  1
  3  5  1  0
  5  6  2  0
  7  8  1  0
  9  8  1  1
 10  5  1  0
 10  9  1  0
 11 18  1  0
 11  9  1  0
 12 11  2  0
 14 13  1  1
 14 15  1  0
 17 16  1  1
 16 14  1  0
 17 18  1  0
 19 21  1  0
 19 17  1  0
 20 19  2  0
M  END
$$$$
