SSL.pdb
     RDKit          3D

 21 20  0  0  1  0  0  0  0  0999 V2000
   11.0060  -12.3371   18.7102 O   0  0  0  0  0  0  0  0  0  0  0  0
    9.9534  -12.5986   19.5529 C   0  0  0  0  0  0  0  0  0  0  0  0
    9.1689  -13.8339   19.1612 C   0  0  2  0  0  0  0  0  0  0  0  0
    8.2803  -13.5429   18.0528 N   0  0  0  0  0  0  0  0  0  0  0  0
    8.3670  -14.3810   20.2702 C   0  0  0  0  0  0  0  0  0  0  0  0
    7.1771  -14.0244   20.4006 O   0  0  0  0  0  0  0  0  0  0  0  0
    9.3539  -17.9079   22.3882 O   0  0  0  0  0  0  0  0  0  0  0  0
    8.0983  -17.3313   22.2250 C   0  0  0  0  0  0  0  0  0  0  0  0
    8.1415  -15.8393   22.3098 C   0  0  2  0  0  0  0  0  0  0  0  0
    8.9079  -15.2997   21.1920 N   0  0  0  0  0  0  0  0  0  0  0  0
    8.6180  -15.3087   23.5876 C   0  0  0  0  0  0  0  0  0  0  0  0
    9.8664  -15.1119   23.7055 O   0  0  0  0  0  0  0  0  0  0  0  0
    5.6559  -11.9210   26.8092 C   0  0  0  0  0  0  0  0  0  0  0  0
    6.7355  -12.6388   25.9861 C   0  0  1  0  0  0  0  0  0  0  0  0
    7.8591  -11.6052   25.8492 C   0  0  0  0  0  0  0  0  0  0  0  0
    7.3066  -13.7910   26.7619 C   0  0  0  0  0  0  0  0  0  0  0  0
    8.3249  -14.5148   25.9792 C   0  0  2  0  0  0  0  0  0  0  0  0
    7.8280  -14.9964   24.6947 N   0  0  0  0  0  0  0  0  0  0  0  0
    8.7563  -15.7357   26.7042 C   0  0  0  0  0  0  0  0  0  0  0  0
    8.3963  -16.9077   26.4353 O   0  0  0  0  0  0  0  0  0  0  0  0
    9.6460  -15.6805   27.8047 O   0  0  0  0  0  0  0  0  0  0  0  0
  1  2  1  0
  2  3  1  0
  3  4  1  6
  3  5  1  0
  5  6  2  0
  7  8  1  0
  9  8  1  1
 10  5  1  0
 10  9  1  0
 11 18  1  0
 11  9  1  0
 12 11  2  0
 14 13  1  1
 14 15  1  0
 17 16  1  1
 16 14  1  0
 17 18  1  0
 19 21  1  0
 19 17  1  0
 20 19  2  0
M  END
$$$$
