SSL.pdb
     RDKit          3D

 21 20  0  0  1  0  0  0  0  0999 V2000
    4.3741  -19.9313   20.7754 O   0  0  0  0  0  0  0  0  0  0  0  0
    3.9738  -19.7651   22.0787 C   0  0  0  0  0  0  0  0  0  0  0  0
    4.2288  -18.3685   22.6070 C   0  0  2  0  0  0  0  0  0  0  0  0
    3.7311  -17.3732   21.6772 N   0  0  0  0  0  0  0  0  0  0  0  0
    5.6564  -18.1003   22.8568 C   0  0  0  0  0  0  0  0  0  0  0  0
    6.3219  -18.9080   23.5386 O   0  0  0  0  0  0  0  0  0  0  0  0
    7.6719  -15.3931   20.5035 O   0  0  0  0  0  0  0  0  0  0  0  0
    8.3451  -16.4005   21.1872 C   0  0  0  0  0  0  0  0  0  0  0  0
    7.7224  -16.7037   22.5122 C   0  0  2  0  0  0  0  0  0  0  0  0
    6.2947  -16.9526   22.3453 N   0  0  0  0  0  0  0  0  0  0  0  0
    7.9707  -15.7048   23.5523 C   0  0  0  0  0  0  0  0  0  0  0  0
    8.1505  -14.5062   23.1756 O   0  0  0  0  0  0  0  0  0  0  0  0
    5.6975  -12.5721   26.5037 C   0  0  0  0  0  0  0  0  0  0  0  0
    6.8089  -13.3070   25.7401 C   0  0  1  0  0  0  0  0  0  0  0  0
    7.8253  -12.2111   25.4005 C   0  0  0  0  0  0  0  0  0  0  0  0
    7.5127  -14.2776   26.6445 C   0  0  0  0  0  0  0  0  0  0  0  0
    8.5612  -15.0220   25.9232 C   0  0  2  0  0  0  0  0  0  0  0  0
    8.0290  -15.9444   24.9259 N   0  0  0  0  0  0  0  0  0  0  0  0
    9.3236  -15.8772   26.8666 C   0  0  0  0  0  0  0  0  0  0  0  0
    9.3208  -17.1323   26.8764 O   0  0  0  0  0  0  0  0  0  0  0  0
   10.1519  -15.3285   27.8758 O   0  0  0  0  0  0  0  0  0  0  0  0
  1  2  1  0
  2  3  1  0
  3  4  1  6
  3  5  1  0
  5  6  2  0
  7  8  1  0
  9  8  1  6
 10  5  1  0
 10  9  1  0
 11 18  1  0
 11  9  1  0
 12 11  2  0
 14 13  1  1
 14 15  1  0
 17 16  1  1
 16 14  1  0
 17 18  1  0
 19 21  1  0
 19 17  1  0
 20 19  2  0
M  END
$$$$
