SSL.pdb
     RDKit          3D

 21 20  0  0  1  0  0  0  0  0999 V2000
   10.7566  -13.3223   19.6901 O   0  0  0  0  0  0  0  0  0  0  0  0
   10.0922  -14.2667   18.9465 C   0  0  0  0  0  0  0  0  0  0  0  0
    8.5850  -14.1497   19.0438 C   0  0  2  0  0  0  0  0  0  0  0  0
    8.1469  -12.8365   18.6124 N   0  0  0  0  0  0  0  0  0  0  0  0
    8.0771  -14.3859   20.4072 C   0  0  0  0  0  0  0  0  0  0  0  0
    7.6953  -13.4163   21.0957 O   0  0  0  0  0  0  0  0  0  0  0  0
    8.1878  -18.1927   22.4494 O   0  0  0  0  0  0  0  0  0  0  0  0
    7.0289  -17.4374   22.3011 C   0  0  0  0  0  0  0  0  0  0  0  0
    7.3122  -15.9726   22.2057 C   0  0  2  0  0  0  0  0  0  0  0  0
    8.0100  -15.6814   20.9582 N   0  0  0  0  0  0  0  0  0  0  0  0
    8.0179  -15.4058   23.3554 C   0  0  0  0  0  0  0  0  0  0  0  0
    9.2344  -15.0837   23.1893 O   0  0  0  0  0  0  0  0  0  0  0  0
    5.5355  -12.2028   27.0007 C   0  0  0  0  0  0  0  0  0  0  0  0
    6.5067  -12.8667   26.0136 C   0  0  1  0  0  0  0  0  0  0  0  0
    7.4716  -11.7438   25.6166 C   0  0  0  0  0  0  0  0  0  0  0  0
    7.3300  -13.9114   26.7109 C   0  0  0  0  0  0  0  0  0  0  0  0
    8.2019  -14.6299   25.7638 C   0  0  2  0  0  0  0  0  0  0  0  0
    7.4795  -15.1838   24.6236 N   0  0  0  0  0  0  0  0  0  0  0  0
    8.8240  -15.8022   26.4282 C   0  0  0  0  0  0  0  0  0  0  0  0
    9.7016  -15.7505   27.3239 O   0  0  0  0  0  0  0  0  0  0  0  0
    8.4664  -17.1314   26.0950 O   0  0  0  0  0  0  0  0  0  0  0  0
  1  2  1  0
  2  3  1  0
  3  4  1  1
  3  5  1  0
  5  6  2  0
  7  8  1  0
  9  8  1  1
 10  5  1  0
 10  9  1  0
 11 18  1  0
 11  9  1  0
 12 11  2  0
 14 13  1  1
 14 15  1  0
 17 16  1  1
 16 14  1  0
 17 18  1  0
 19 21  1  0
 19 17  1  0
 20 19  2  0
M  END
$$$$
