SSL.pdb
     RDKit          3D

 21 20  0  0  1  0  0  0  0  0999 V2000
   10.5723  -12.8040   19.9986 O   0  0  0  0  0  0  0  0  0  0  0  0
    9.5756  -12.6597   19.0647 C   0  0  0  0  0  0  0  0  0  0  0  0
    8.7869  -13.9321   18.8331 C   0  0  2  0  0  0  0  0  0  0  0  0
    7.7843  -13.7302   17.8052 N   0  0  0  0  0  0  0  0  0  0  0  0
    8.1146  -14.4210   20.0503 C   0  0  0  0  0  0  0  0  0  0  0  0
    7.0043  -13.9466   20.3700 O   0  0  0  0  0  0  0  0  0  0  0  0
    9.3669  -17.9551   22.0730 O   0  0  0  0  0  0  0  0  0  0  0  0
    8.0662  -17.4717   21.9725 C   0  0  0  0  0  0  0  0  0  0  0  0
    8.0079  -15.9787   22.0249 C   0  0  2  0  0  0  0  0  0  0  0  0
    8.6923  -15.4135   20.8673 N   0  0  0  0  0  0  0  0  0  0  0  0
    8.4935  -15.3870   23.2720 C   0  0  0  0  0  0  0  0  0  0  0  0
    9.7142  -15.0415   23.3144 O   0  0  0  0  0  0  0  0  0  0  0  0
    5.3413  -12.3294   26.6669 C   0  0  0  0  0  0  0  0  0  0  0  0
    6.4830  -12.8793   25.7994 C   0  0  1  0  0  0  0  0  0  0  0  0
    7.4848  -11.7225   25.7120 C   0  0  0  0  0  0  0  0  0  0  0  0
    7.1861  -14.0013   26.5082 C   0  0  0  0  0  0  0  0  0  0  0  0
    8.2449  -14.5892   25.6673 C   0  0  2  0  0  0  0  0  0  0  0  0
    7.7399  -15.1644   24.4252 N   0  0  0  0  0  0  0  0  0  0  0  0
    8.8935  -15.7201   26.3764 C   0  0  0  0  0  0  0  0  0  0  0  0
    8.7101  -16.9366   26.1277 O   0  0  0  0  0  0  0  0  0  0  0  0
    9.8109  -15.5152   27.4357 O   0  0  0  0  0  0  0  0  0  0  0  0
  1  2  1  0
  2  3  1  0
  3  4  1  6
  3  5  1  0
  5  6  2  0
  7  8  1  0
  9  8  1  1
 10  5  1  0
 10  9  1  0
 11 18  1  0
 11  9  1  0
 12 11  2  0
 14 13  1  1
 14 15  1  0
 17 16  1  1
 16 14  1  0
 17 18  1  0
 19 21  1  0
 19 17  1  0
 20 19  2  0
M  END
$$$$
