SSL.pdb
     RDKit          3D

 21 20  0  0  1  0  0  0  0  0999 V2000
    9.5978  -11.9532   19.6270 O   0  0  0  0  0  0  0  0  0  0  0  0
   10.2491  -13.1119   19.2812 C   0  0  0  0  0  0  0  0  0  0  0  0
    9.3061  -14.2582   18.9788 C   0  0  2  0  0  0  0  0  0  0  0  0
    8.3900  -13.8971   17.9143 N   0  0  0  0  0  0  0  0  0  0  0  0
    8.5168  -14.6776   20.1507 C   0  0  0  0  0  0  0  0  0  0  0  0
    7.3234  -14.3213   20.2455 O   0  0  0  0  0  0  0  0  0  0  0  0
    9.6122  -17.9473   22.5550 O   0  0  0  0  0  0  0  0  0  0  0  0
    8.3290  -17.4513   22.3478 C   0  0  0  0  0  0  0  0  0  0  0  0
    8.2957  -15.9572   22.3074 C   0  0  2  0  0  0  0  0  0  0  0  0
    9.0736  -15.4731   21.1722 N   0  0  0  0  0  0  0  0  0  0  0  0
    8.7001  -15.2984   23.5498 C   0  0  0  0  0  0  0  0  0  0  0  0
    9.9080  -14.9188   23.6395 O   0  0  0  0  0  0  0  0  0  0  0  0
    5.3230  -12.1407   26.5094 C   0  0  0  0  0  0  0  0  0  0  0  0
    6.5264  -12.7414   25.7683 C   0  0  1  0  0  0  0  0  0  0  0  0
    7.5024  -11.5695   25.6156 C   0  0  0  0  0  0  0  0  0  0  0  0
    7.2151  -13.7623   26.6280 C   0  0  0  0  0  0  0  0  0  0  0  0
    8.3118  -14.4267   25.9004 C   0  0  2  0  0  0  0  0  0  0  0  0
    7.8814  -15.0457   24.6513 N   0  0  0  0  0  0  0  0  0  0  0  0
    8.8620  -15.5422   26.7100 C   0  0  0  0  0  0  0  0  0  0  0  0
    9.4547  -15.4204   27.8096 O   0  0  0  0  0  0  0  0  0  0  0  0
    8.7611  -16.8924   26.2946 O   0  0  0  0  0  0  0  0  0  0  0  0
  1  2  1  0
  2  3  1  0
  3  4  1  6
  3  5  1  0
  5  6  2  0
  7  8  1  0
  9  8  1  1
 10  5  1  0
 10  9  1  0
 11 18  1  0
 11  9  1  0
 12 11  2  0
 14 13  1  1
 14 15  1  0
 17 16  1  1
 16 14  1  0
 17 18  1  0
 19 21  1  0
 19 17  1  0
 20 19  2  0
M  END
$$$$
