SSL.pdb
     RDKit          3D

 21 20  0  0  1  0  0  0  0  0999 V2000
    9.5252  -12.0537   18.2606 O   0  0  0  0  0  0  0  0  0  0  0  0
    8.6892  -12.6112   19.1968 C   0  0  0  0  0  0  0  0  0  0  0  0
    8.5896  -14.1186   19.0847 C   0  0  2  0  0  0  0  0  0  0  0  0
    7.8031  -14.4925   17.9252 N   0  0  0  0  0  0  0  0  0  0  0  0
    7.9898  -14.7451   20.2764 C   0  0  0  0  0  0  0  0  0  0  0  0
    6.7473  -14.7557   20.4038 O   0  0  0  0  0  0  0  0  0  0  0  0
    9.7847  -17.7757   22.3706 O   0  0  0  0  0  0  0  0  0  0  0  0
    8.4344  -17.4433   22.4145 C   0  0  0  0  0  0  0  0  0  0  0  0
    8.2131  -15.9657   22.4668 C   0  0  2  0  0  0  0  0  0  0  0  0
    8.7828  -15.3354   21.2809 N   0  0  0  0  0  0  0  0  0  0  0  0
    8.6807  -15.3159   23.6917 C   0  0  0  0  0  0  0  0  0  0  0  0
    9.8984  -14.9602   23.7322 O   0  0  0  0  0  0  0  0  0  0  0  0
    5.6586  -11.9792   26.7556 C   0  0  0  0  0  0  0  0  0  0  0  0
    6.7598  -12.7105   25.9739 C   0  0  1  0  0  0  0  0  0  0  0  0
    7.8150  -11.6318   25.7047 C   0  0  0  0  0  0  0  0  0  0  0  0
    7.4180  -13.7459   26.8401 C   0  0  0  0  0  0  0  0  0  0  0  0
    8.4219  -14.5188   26.0862 C   0  0  2  0  0  0  0  0  0  0  0  0
    7.9126  -15.0481   24.8256 N   0  0  0  0  0  0  0  0  0  0  0  0
    8.8374  -15.7136   26.8623 C   0  0  0  0  0  0  0  0  0  0  0  0
    9.4167  -15.6933   27.9756 O   0  0  0  0  0  0  0  0  0  0  0  0
    8.6066  -17.0303   26.3947 O   0  0  0  0  0  0  0  0  0  0  0  0
  1  2  1  0
  2  3  1  0
  3  4  1  6
  3  5  1  0
  5  6  2  0
  7  8  1  0
  9  8  1  1
 10  5  1  0
 10  9  1  0
 11 18  1  0
 11  9  1  0
 12 11  2  0
 14 13  1  1
 14 15  1  0
 17 16  1  1
 16 14  1  0
 17 18  1  0
 19 21  1  0
 19 17  1  0
 20 19  2  0
M  END
$$$$
