SSL.pdb
     RDKit          3D

 21 20  0  0  1  0  0  0  0  0999 V2000
    9.0928  -12.5059   18.2400 O   0  0  0  0  0  0  0  0  0  0  0  0
    8.5202  -12.9849   19.3929 C   0  0  0  0  0  0  0  0  0  0  0  0
    8.3292  -14.4876   19.3838 C   0  0  2  0  0  0  0  0  0  0  0  0
    7.3149  -14.8664   18.4192 N   0  0  0  0  0  0  0  0  0  0  0  0
    7.9443  -15.0259   20.7007 C   0  0  0  0  0  0  0  0  0  0  0  0
    6.7343  -15.1123   20.9979 O   0  0  0  0  0  0  0  0  0  0  0  0
   10.4661  -17.5423   22.8120 O   0  0  0  0  0  0  0  0  0  0  0  0
    9.0794  -17.4959   22.9139 C   0  0  0  0  0  0  0  0  0  0  0  0
    8.5536  -16.0965   22.8962 C   0  0  2  0  0  0  0  0  0  0  0  0
    8.9081  -15.4481   21.6384 N   0  0  0  0  0  0  0  0  0  0  0  0
    8.9423  -15.2781   24.0452 C   0  0  0  0  0  0  0  0  0  0  0  0
   10.0936  -14.7445   24.0155 O   0  0  0  0  0  0  0  0  0  0  0  0
    5.5340  -12.0915   26.8466 C   0  0  0  0  0  0  0  0  0  0  0  0
    6.7157  -12.7434   26.1139 C   0  0  1  0  0  0  0  0  0  0  0  0
    7.6202  -11.5670   25.7296 C   0  0  0  0  0  0  0  0  0  0  0  0
    7.5084  -13.6018   27.0575 C   0  0  0  0  0  0  0  0  0  0  0  0
    8.6062  -14.2960   26.3601 C   0  0  2  0  0  0  0  0  0  0  0  0
    8.1650  -15.0262   25.1765 N   0  0  0  0  0  0  0  0  0  0  0  0
    9.2042  -15.3270   27.2445 C   0  0  0  0  0  0  0  0  0  0  0  0
    9.0927  -16.5682   27.0946 O   0  0  0  0  0  0  0  0  0  0  0  0
    9.9821  -14.9850   28.3774 O   0  0  0  0  0  0  0  0  0  0  0  0
  1  2  1  0
  2  3  1  0
  3  4  1  6
  3  5  1  0
  5  6  2  0
  7  8  1  0
  9  8  1  1
 10  5  1  0
 10  9  1  0
 11 18  1  0
 11  9  1  0
 12 11  2  0
 14 13  1  1
 14 15  1  0
 17 16  1  1
 16 14  1  0
 17 18  1  0
 19 21  1  0
 19 17  1  0
 20 19  2  0
M  END
$$$$
