SSL.pdb
     RDKit          3D

 21 20  0  0  1  0  0  0  0  0999 V2000
   12.7970  -16.9043   19.0888 O   0  0  0  0  0  0  0  0  0  0  0  0
   11.7476  -16.2715   19.7089 C   0  0  0  0  0  0  0  0  0  0  0  0
   10.4010  -16.8741   19.3654 C   0  0  2  0  0  0  0  0  0  0  0  0
   10.0634  -16.6108   17.9799 N   0  0  0  0  0  0  0  0  0  0  0  0
    9.3099  -16.3653   20.2157 C   0  0  0  0  0  0  0  0  0  0  0  0
    8.6049  -15.4186   19.8073 O   0  0  0  0  0  0  0  0  0  0  0  0
    7.1945  -18.7841   22.7716 O   0  0  0  0  0  0  0  0  0  0  0  0
    6.8179  -17.5874   22.1704 C   0  0  0  0  0  0  0  0  0  0  0  0
    7.8771  -16.5378   22.2784 C   0  0  2  0  0  0  0  0  0  0  0  0
    9.0385  -16.9199   21.4826 N   0  0  0  0  0  0  0  0  0  0  0  0
    8.2607  -16.1886   23.6466 C   0  0  0  0  0  0  0  0  0  0  0  0
    9.3939  -16.5908   24.0529 O   0  0  0  0  0  0  0  0  0  0  0  0
    5.9159  -11.9656   26.4964 C   0  0  0  0  0  0  0  0  0  0  0  0
    6.9709  -12.9072   25.8974 C   0  0  1  0  0  0  0  0  0  0  0  0
    8.3100  -12.2453   26.2413 C   0  0  0  0  0  0  0  0  0  0  0  0
    6.9541  -14.2314   26.6056 C   0  0  0  0  0  0  0  0  0  0  0  0
    7.8448  -15.2048   25.9478 C   0  0  2  0  0  0  0  0  0  0  0  0
    7.4966  -15.4518   24.5526 N   0  0  0  0  0  0  0  0  0  0  0  0
    7.7348  -16.5287   26.6093 C   0  0  0  0  0  0  0  0  0  0  0  0
    6.9329  -17.4390   26.2875 O   0  0  0  0  0  0  0  0  0  0  0  0
    8.5576  -16.8922   27.7032 O   0  0  0  0  0  0  0  0  0  0  0  0
  1  2  1  0
  2  3  1  0
  3  4  1  6
  3  5  1  0
  5  6  2  0
  7  8  1  0
  9  8  1  1
 10  5  1  0
 10  9  1  0
 11 18  1  0
 11  9  1  0
 12 11  2  0
 14 13  1  1
 14 15  1  0
 17 16  1  1
 16 14  1  0
 17 18  1  0
 19 21  1  0
 19 17  1  0
 20 19  2  0
M  END
$$$$
