SSL.pdb
     RDKit          3D

 21 20  0  0  1  0  0  0  0  0999 V2000
   10.6087  -16.4198   19.9591 O   0  0  0  0  0  0  0  0  0  0  0  0
    9.9326  -17.5699   19.6328 C   0  0  0  0  0  0  0  0  0  0  0  0
    8.4409  -17.3598   19.4738 C   0  0  2  0  0  0  0  0  0  0  0  0
    8.1691  -16.4375   18.3884 N   0  0  0  0  0  0  0  0  0  0  0  0
    7.7999  -16.8427   20.6963 C   0  0  0  0  0  0  0  0  0  0  0  0
    7.1476  -15.7790   20.6435 O   0  0  0  0  0  0  0  0  0  0  0  0
    7.6767  -19.1514   24.2925 O   0  0  0  0  0  0  0  0  0  0  0  0
    6.6326  -18.3749   23.8002 C   0  0  0  0  0  0  0  0  0  0  0  0
    7.1178  -17.1460   23.1004 C   0  0  2  0  0  0  0  0  0  0  0  0
    7.9031  -17.5184   21.9288 N   0  0  0  0  0  0  0  0  0  0  0  0
    7.8433  -16.2001   23.9490 C   0  0  0  0  0  0  0  0  0  0  0  0
    9.1008  -16.1259   23.7930 O   0  0  0  0  0  0  0  0  0  0  0  0
    7.2653  -12.0349   24.6179 C   0  0  0  0  0  0  0  0  0  0  0  0
    7.4821  -12.1683   26.1324 C   0  0  1  0  0  0  0  0  0  0  0  0
    6.3976  -11.2792   26.7512 C   0  0  0  0  0  0  0  0  0  0  0  0
    7.1924  -13.5718   26.5817 C   0  0  0  0  0  0  0  0  0  0  0  0
    8.0323  -14.5498   25.8665 C   0  0  2  0  0  0  0  0  0  0  0  0
    7.2829  -15.3671   24.9182 N   0  0  0  0  0  0  0  0  0  0  0  0
    8.6199  -15.5185   26.8251 C   0  0  0  0  0  0  0  0  0  0  0  0
    9.5434  -15.2696   27.6378 O   0  0  0  0  0  0  0  0  0  0  0  0
    8.1711  -16.8592   26.9080 O   0  0  0  0  0  0  0  0  0  0  0  0
  1  2  1  0
  2  3  1  0
  3  4  1  6
  3  5  1  0
  5  6  2  0
  7  8  1  0
  9  8  1  1
 10  5  1  0
 10  9  1  0
 11 18  1  0
 11  9  1  0
 12 11  2  0
 14 13  1  6
 14 15  1  0
 17 16  1  1
 16 14  1  0
 17 18  1  0
 19 21  1  0
 19 17  1  0
 20 19  2  0
M  END
$$$$
