HLD.pdb
     RDKit          3D

 27 27  0  0  1  0  0  0  0  0999 V2000
   10.2020  -14.5284   20.9401 N   0  0  0  0  0  0  0  0  0  0  0  0
    8.9018  -14.3512   21.5515 C   0  0  1  0  0  0  0  0  0  0  0  0
    7.9030  -15.1593   20.7639 C   0  0  0  0  0  0  0  0  0  0  0  0
    7.9264  -14.6437   19.3501 C   0  0  0  0  0  0  0  0  0  0  0  0
    7.8308  -13.3181   19.0001 C   0  0  0  0  0  0  0  0  0  0  0  0
    7.8883  -13.2366   17.6451 N   0  0  0  0  0  0  0  0  0  0  0  0
    8.0160  -14.4802   17.1741 C   0  0  0  0  0  0  0  0  0  0  0  0
    8.0397  -15.3427   18.2112 N   0  0  0  0  0  0  0  0  0  0  0  0
    8.8854  -14.8183   22.9603 C   0  0  0  0  0  0  0  0  0  0  0  0
    9.6657  -15.6973   23.3464 O   0  0  0  0  0  0  0  0  0  0  0  0
    5.6755  -11.5834   26.2803 C   0  0  0  0  0  0  0  0  0  0  0  0
    6.8820  -12.3479   25.8695 C   0  0  1  0  0  0  0  0  0  0  0  0
    8.1155  -11.9033   26.6443 C   0  0  0  0  0  0  0  0  0  0  0  0
    6.7700  -13.8434   25.9228 C   0  0  0  0  0  0  0  0  0  0  0  0
    7.8663  -14.6069   25.2643 C   0  0  2  0  0  0  0  0  0  0  0  0
    7.9734  -14.2617   23.8812 N   0  0  0  0  0  0  0  0  0  0  0  0
    7.7608  -16.0678   25.4850 C   0  0  0  0  0  0  0  0  0  0  0  0
    6.9776  -16.7419   24.7830 O   0  0  0  0  0  0  0  0  0  0  0  0
    8.5249  -16.7296   26.4734 N   0  0  0  0  0  0  0  0  0  0  0  0
    9.0671  -18.0683   26.2705 C   0  0  1  0  0  0  0  0  0  0  0  0
    9.8813  -18.1579   24.9957 C   0  0  0  0  0  0  0  0  0  0  0  0
   10.4346  -19.5243   24.8316 C   0  0  0  0  0  0  0  0  0  0  0  0
    9.8130  -20.5759   25.0679 O   0  0  0  0  0  0  0  0  0  0  0  0
    9.9393  -18.3865   27.4406 C   0  0  0  0  0  0  0  0  0  0  0  0
   10.7823  -17.4482   28.0221 O   0  0  0  0  0  0  0  0  0  0  0  0
   11.7479  -19.6550   24.3796 O   0  0  0  0  0  0  0  0  0  0  0  0
    9.9419  -19.5370   27.9509 O   0  0  0  0  0  0  0  0  0  0  0  0
  2  3  1  0
  2  1  1  6
  4  8  1  0
  4  3  1  0
  5  4  2  0
  6  5  1  0
  6  7  1  0
  7  8  2  0
  9 10  2  0
  9  2  1  0
 12 14  1  0
 12 11  1  1
 13 12  1  0
 15 14  1  6
 15 16  1  0
 16  9  1  0
 17 18  2  0
 17 15  1  0
 19 17  1  0
 20 19  1  0
 20 21  1  6
 21 22  1  0
 22 26  1  0
 23 22  2  0
 24 25  1  0
 24 20  1  0
 27 24  2  0
M  END
$$$$
