HLD.pdb
     RDKit          3D

 27 27  0  0  1  0  0  0  0  0999 V2000
    9.2410  -18.5440   16.9665 N   0  0  0  0  0  0  0  0  0  0  0  0
   10.5863  -18.0213   17.0789 C   0  0  1  0  0  0  0  0  0  0  0  0
   11.0360  -17.5943   15.7054 C   0  0  0  0  0  0  0  0  0  0  0  0
    9.8230  -17.0798   14.9778 C   0  0  0  0  0  0  0  0  0  0  0  0
    9.2598  -15.8420   15.1758 C   0  0  0  0  0  0  0  0  0  0  0  0
    8.1879  -15.7314   14.3482 N   0  0  0  0  0  0  0  0  0  0  0  0
    8.0946  -16.8721   13.6591 C   0  0  0  0  0  0  0  0  0  0  0  0
    9.0906  -17.6984   14.0400 N   0  0  0  0  0  0  0  0  0  0  0  0
   10.6493  -16.8477   17.9853 C   0  0  0  0  0  0  0  0  0  0  0  0
   11.7291  -16.3010   18.2415 O   0  0  0  0  0  0  0  0  0  0  0  0
    8.9540  -12.2372   20.0799 C   0  0  0  0  0  0  0  0  0  0  0  0
    7.9340  -13.3085   20.2239 C   0  0  1  0  0  0  0  0  0  0  0  0
    6.5223  -12.7612   20.0596 C   0  0  0  0  0  0  0  0  0  0  0  0
    8.1086  -14.5133   19.3465 C   0  0  0  0  0  0  0  0  0  0  0  0
    9.3970  -15.2471   19.4892 C   0  0  2  0  0  0  0  0  0  0  0  0
    9.4703  -16.3390   18.5693 N   0  0  0  0  0  0  0  0  0  0  0  0
    9.6738  -15.6537   20.8863 C   0  0  0  0  0  0  0  0  0  0  0  0
    8.7371  -16.0573   21.6076 O   0  0  0  0  0  0  0  0  0  0  0  0
   10.9758  -15.5992   21.4346 N   0  0  0  0  0  0  0  0  0  0  0  0
   11.3993  -16.4745   22.5217 C   0  0  1  0  0  0  0  0  0  0  0  0
   11.1982  -17.9364   22.1774 C   0  0  0  0  0  0  0  0  0  0  0  0
   11.6881  -18.7987   23.2803 C   0  0  0  0  0  0  0  0  0  0  0  0
   11.3177  -18.7158   24.4653 O   0  0  0  0  0  0  0  0  0  0  0  0
   12.8494  -16.2179   22.7720 C   0  0  0  0  0  0  0  0  0  0  0  0
   13.4456  -16.4381   24.0070 O   0  0  0  0  0  0  0  0  0  0  0  0
   12.6342  -19.7792   22.9815 O   0  0  0  0  0  0  0  0  0  0  0  0
   13.5966  -15.7851   21.8563 O   0  0  0  0  0  0  0  0  0  0  0  0
  2  3  1  0
  2  1  1  6
  4  8  1  0
  4  3  1  0
  5  4  2  0
  6  5  1  0
  6  7  1  0
  7  8  2  0
  9 10  2  0
  9  2  1  0
 12 14  1  0
 12 11  1  6
 13 12  1  0
 15 14  1  1
 15 16  1  0
 16  9  1  0
 17 18  2  0
 17 15  1  0
 19 17  1  0
 20 19  1  0
 20 21  1  6
 21 22  1  0
 22 26  1  0
 23 22  2  0
 24 25  1  0
 24 20  1  0
 27 24  2  0
M  END
$$$$
