HLD.pdb
     RDKit          3D

 27 27  0  0  1  0  0  0  0  0999 V2000
   10.4326  -16.0910   20.9446 N   0  0  0  0  0  0  0  0  0  0  0  0
    9.1371  -15.6798   21.4429 C   0  0  1  0  0  0  0  0  0  0  0  0
    8.1741  -16.8196   21.2320 C   0  0  0  0  0  0  0  0  0  0  0  0
    7.8153  -16.8369   19.7703 C   0  0  0  0  0  0  0  0  0  0  0  0
    8.3903  -16.0335   18.8151 C   0  0  0  0  0  0  0  0  0  0  0  0
    7.8179  -16.3284   17.6187 N   0  0  0  0  0  0  0  0  0  0  0  0
    6.9141  -17.2886   17.8331 C   0  0  0  0  0  0  0  0  0  0  0  0
    6.9088  -17.6024   19.1451 N   0  0  0  0  0  0  0  0  0  0  0  0
    9.1793  -15.3555   22.8907 C   0  0  0  0  0  0  0  0  0  0  0  0
   10.1164  -15.7414   23.6003 O   0  0  0  0  0  0  0  0  0  0  0  0
    7.9007  -11.6144   26.8827 C   0  0  0  0  0  0  0  0  0  0  0  0
    6.8766  -12.5838   26.4134 C   0  0  1  0  0  0  0  0  0  0  0  0
    5.4672  -12.0303   26.5769 C   0  0  0  0  0  0  0  0  0  0  0  0
    7.0493  -13.1080   25.0179 C   0  0  0  0  0  0  0  0  0  0  0  0
    8.1105  -14.1363   24.8304 C   0  0  2  0  0  0  0  0  0  0  0  0
    8.1442  -14.5984   23.4781 N   0  0  0  0  0  0  0  0  0  0  0  0
    8.0186  -15.2411   25.8127 C   0  0  0  0  0  0  0  0  0  0  0  0
    8.1780  -14.9998   27.0280 O   0  0  0  0  0  0  0  0  0  0  0  0
    7.7538  -16.5718   25.4155 N   0  0  0  0  0  0  0  0  0  0  0  0
    7.6205  -17.6593   26.3783 C   0  0  1  0  0  0  0  0  0  0  0  0
    6.7854  -18.7979   25.8285 C   0  0  0  0  0  0  0  0  0  0  0  0
    7.3294  -19.2552   24.5267 C   0  0  0  0  0  0  0  0  0  0  0  0
    8.5400  -19.3275   24.2483 O   0  0  0  0  0  0  0  0  0  0  0  0
    8.9932  -18.1569   26.6935 C   0  0  0  0  0  0  0  0  0  0  0  0
    9.2587  -18.9822   27.7786 O   0  0  0  0  0  0  0  0  0  0  0  0
    6.4288  -19.6354   23.5315 O   0  0  0  0  0  0  0  0  0  0  0  0
    9.9763  -17.8406   25.9741 O   0  0  0  0  0  0  0  0  0  0  0  0
  2  3  1  0
  2  1  1  1
  4  8  1  0
  4  3  1  0
  5  4  2  0
  6  5  1  0
  6  7  1  0
  7  8  2  0
  9 10  2  0
  9  2  1  0
 12 14  1  0
 12 11  1  6
 13 12  1  0
 15 14  1  6
 15 16  1  0
 16  9  1  0
 17 18  2  0
 17 15  1  0
 19 17  1  0
 20 19  1  0
 20 21  1  6
 21 22  1  0
 22 26  1  0
 23 22  2  0
 24 25  1  0
 24 20  1  0
 27 24  2  0
M  END
$$$$
