HLD.pdb
     RDKit          3D

 27 27  0  0  1  0  0  0  0  0999 V2000
    8.3245  -16.0611   19.6901 N   0  0  0  0  0  0  0  0  0  0  0  0
    7.7102  -16.2542   20.9866 C   0  0  1  0  0  0  0  0  0  0  0  0
    7.9406  -17.6842   21.4026 C   0  0  0  0  0  0  0  0  0  0  0  0
    7.1330  -18.5544   20.4775 C   0  0  0  0  0  0  0  0  0  0  0  0
    6.0327  -18.1327   19.7701 C   0  0  0  0  0  0  0  0  0  0  0  0
    5.5689  -19.1862   19.0482 N   0  0  0  0  0  0  0  0  0  0  0  0
    6.3637  -20.2287   19.3053 C   0  0  0  0  0  0  0  0  0  0  0  0
    7.3200  -19.8480   20.1773 N   0  0  0  0  0  0  0  0  0  0  0  0
    8.2978  -15.3599   22.0151 C   0  0  0  0  0  0  0  0  0  0  0  0
    9.4184  -14.8603   21.8562 O   0  0  0  0  0  0  0  0  0  0  0  0
    7.9222  -11.5436   25.9043 C   0  0  0  0  0  0  0  0  0  0  0  0
    7.2064  -12.8115   26.2025 C   0  0  1  0  0  0  0  0  0  0  0  0
    5.9503  -12.5631   27.0270 C   0  0  0  0  0  0  0  0  0  0  0  0
    6.8680  -13.6756   25.0233 C   0  0  0  0  0  0  0  0  0  0  0  0
    8.0229  -14.2140   24.2519 C   0  0  2  0  0  0  0  0  0  0  0  0
    7.5803  -15.0675   23.1939 N   0  0  0  0  0  0  0  0  0  0  0  0
    9.0424  -14.8524   25.1163 C   0  0  0  0  0  0  0  0  0  0  0  0
    9.5225  -14.2142   26.0769 O   0  0  0  0  0  0  0  0  0  0  0  0
    9.4936  -16.1724   24.8869 N   0  0  0  0  0  0  0  0  0  0  0  0
   10.5881  -16.7637   25.6483 C   0  0  1  0  0  0  0  0  0  0  0  0
   10.3278  -18.2221   25.9669 C   0  0  0  0  0  0  0  0  0  0  0  0
    9.4647  -18.3421   27.1672 C   0  0  0  0  0  0  0  0  0  0  0  0
    9.4012  -17.5029   28.0836 O   0  0  0  0  0  0  0  0  0  0  0  0
   11.8282  -16.6489   24.8235 C   0  0  0  0  0  0  0  0  0  0  0  0
   13.0807  -17.0116   25.3019 O   0  0  0  0  0  0  0  0  0  0  0  0
    8.6594  -19.4744   27.2909 O   0  0  0  0  0  0  0  0  0  0  0  0
   11.7819  -16.2116   23.6443 O   0  0  0  0  0  0  0  0  0  0  0  0
  2  3  1  0
  2  1  1  6
  4  8  1  0
  4  3  1  0
  5  4  2  0
  6  5  1  0
  6  7  1  0
  7  8  2  0
  9 10  2  0
  9  2  1  0
 12 14  1  0
 12 11  1  6
 13 12  1  0
 15 14  1  1
 15 16  1  0
 16  9  1  0
 17 18  2  0
 17 15  1  0
 19 17  1  0
 20 19  1  0
 20 21  1  6
 21 22  1  0
 22 26  1  0
 23 22  2  0
 24 25  1  0
 24 20  1  0
 27 24  2  0
M  END
$$$$
