HLD.pdb
     RDKit          3D

 27 27  0  0  1  0  0  0  0  0999 V2000
    7.2933  -15.6693   21.4208 N   0  0  0  0  0  0  0  0  0  0  0  0
    8.5360  -14.9335   21.5199 C   0  0  1  0  0  0  0  0  0  0  0  0
    8.3821  -13.6528   20.7406 C   0  0  0  0  0  0  0  0  0  0  0  0
    8.3342  -14.0203   19.2818 C   0  0  0  0  0  0  0  0  0  0  0  0
    8.4753  -15.2969   18.7926 C   0  0  0  0  0  0  0  0  0  0  0  0
    8.3765  -15.2408   17.4387 N   0  0  0  0  0  0  0  0  0  0  0  0
    8.1797  -13.9624   17.1042 C   0  0  0  0  0  0  0  0  0  0  0  0
    8.1531  -13.2136   18.2260 N   0  0  0  0  0  0  0  0  0  0  0  0
    8.8678  -14.5963   22.9268 C   0  0  0  0  0  0  0  0  0  0  0  0
    9.9440  -14.0575   23.2133 O   0  0  0  0  0  0  0  0  0  0  0  0
    5.4229  -12.1411   26.0355 C   0  0  0  0  0  0  0  0  0  0  0  0
    6.7275  -12.6921   25.5845 C   0  0  1  0  0  0  0  0  0  0  0  0
    7.8790  -11.7589   25.9348 C   0  0  0  0  0  0  0  0  0  0  0  0
    7.0541  -14.0833   26.0422 C   0  0  0  0  0  0  0  0  0  0  0  0
    8.2014  -14.7453   25.3609 C   0  0  2  0  0  0  0  0  0  0  0  0
    7.9535  -14.8886   23.9604 N   0  0  0  0  0  0  0  0  0  0  0  0
    8.5955  -16.0183   26.0076 C   0  0  0  0  0  0  0  0  0  0  0  0
    8.7310  -16.0628   27.2486 O   0  0  0  0  0  0  0  0  0  0  0  0
    8.8253  -17.1951   25.2586 N   0  0  0  0  0  0  0  0  0  0  0  0
    9.2062  -18.4552   25.8868 C   0  0  1  0  0  0  0  0  0  0  0  0
    8.6892  -19.6494   25.1103 C   0  0  0  0  0  0  0  0  0  0  0  0
    7.2237  -19.5397   24.9100 C   0  0  0  0  0  0  0  0  0  0  0  0
    6.4057  -19.2385   25.7978 O   0  0  0  0  0  0  0  0  0  0  0  0
   10.6982  -18.5038   25.9380 C   0  0  0  0  0  0  0  0  0  0  0  0
   11.3900  -19.3140   26.8292 O   0  0  0  0  0  0  0  0  0  0  0  0
    6.7106  -19.7900   23.6372 O   0  0  0  0  0  0  0  0  0  0  0  0
   11.3948  -17.7997   25.1615 O   0  0  0  0  0  0  0  0  0  0  0  0
  2  3  1  0
  2  1  1  1
  4  8  1  0
  4  3  1  0
  5  4  2  0
  6  5  1  0
  6  7  1  0
  7  8  2  0
  9 10  2  0
  9  2  1  0
 12 14  1  0
 12 11  1  1
 13 12  1  0
 15 14  1  1
 15 16  1  0
 16  9  1  0
 17 18  2  0
 17 15  1  0
 19 17  1  0
 20 19  1  0
 20 21  1  6
 21 22  1  0
 22 26  1  0
 23 22  2  0
 24 25  1  0
 24 20  1  0
 27 24  2  0
M  END
$$$$
