HLD.pdb
     RDKit          3D

 27 27  0  0  1  0  0  0  0  0999 V2000
   10.4981  -14.8455   21.3711 N   0  0  0  0  0  0  0  0  0  0  0  0
    9.2992  -14.5311   22.1191 C   0  0  1  0  0  0  0  0  0  0  0  0
    8.1196  -15.0839   21.3616 C   0  0  0  0  0  0  0  0  0  0  0  0
    7.9963  -14.2927   20.0871 C   0  0  0  0  0  0  0  0  0  0  0  0
    8.8462  -13.2804   19.7106 C   0  0  0  0  0  0  0  0  0  0  0  0
    8.4249  -12.8035   18.5102 N   0  0  0  0  0  0  0  0  0  0  0  0
    7.3437  -13.5046   18.1578 C   0  0  0  0  0  0  0  0  0  0  0  0
    7.0781  -14.4149   19.1173 N   0  0  0  0  0  0  0  0  0  0  0  0
    9.3190  -15.1360   23.4744 C   0  0  0  0  0  0  0  0  0  0  0  0
   10.2486  -15.8721   23.8273 O   0  0  0  0  0  0  0  0  0  0  0  0
    5.9206  -12.3681   26.5977 C   0  0  0  0  0  0  0  0  0  0  0  0
    7.0387  -13.0536   25.8986 C   0  0  1  0  0  0  0  0  0  0  0  0
    8.1330  -12.0724   25.4995 C   0  0  0  0  0  0  0  0  0  0  0  0
    7.6511  -14.2224   26.6132 C   0  0  0  0  0  0  0  0  0  0  0  0
    8.2273  -15.2904   25.7495 C   0  0  2  0  0  0  0  0  0  0  0  0
    8.2705  -14.8769   24.3818 N   0  0  0  0  0  0  0  0  0  0  0  0
    7.5588  -16.5994   25.9329 C   0  0  0  0  0  0  0  0  0  0  0  0
    6.5381  -16.6749   26.6492 O   0  0  0  0  0  0  0  0  0  0  0  0
    8.0432  -17.7765   25.3178 N   0  0  0  0  0  0  0  0  0  0  0  0
    9.1624  -18.5357   25.8639 C   0  0  1  0  0  0  0  0  0  0  0  0
   10.4894  -17.8579   25.5881 C   0  0  0  0  0  0  0  0  0  0  0  0
   11.5471  -18.8706   25.3525 C   0  0  0  0  0  0  0  0  0  0  0  0
   11.7901  -19.4021   24.2540 O   0  0  0  0  0  0  0  0  0  0  0  0
    8.9583  -18.6466   27.3394 C   0  0  0  0  0  0  0  0  0  0  0  0
    8.7616  -19.8643   27.9778 O   0  0  0  0  0  0  0  0  0  0  0  0
   12.3355  -19.2658   26.4334 O   0  0  0  0  0  0  0  0  0  0  0  0
    8.9572  -17.6221   28.0706 O   0  0  0  0  0  0  0  0  0  0  0  0
  2  3  1  0
  2  1  1  6
  4  8  1  0
  4  3  1  0
  5  4  2  0
  6  5  1  0
  6  7  1  0
  7  8  2  0
  9 10  2  0
  9  2  1  0
 12 14  1  0
 12 11  1  1
 13 12  1  0
 15 14  1  1
 15 16  1  0
 16  9  1  0
 17 18  2  0
 17 15  1  0
 19 17  1  0
 20 19  1  0
 20 21  1  1
 21 22  1  0
 22 26  1  0
 23 22  2  0
 24 25  1  0
 24 20  1  0
 27 24  2  0
M  END
$$$$
