HLD.pdb
     RDKit          3D

 27 27  0  0  1  0  0  0  0  0999 V2000
    9.1258  -16.1857   19.9244 N   0  0  0  0  0  0  0  0  0  0  0  0
    8.1746  -16.2595   21.0132 C   0  0  1  0  0  0  0  0  0  0  0  0
    7.9015  -17.7145   21.2947 C   0  0  0  0  0  0  0  0  0  0  0  0
    7.0062  -18.2219   20.1963 C   0  0  0  0  0  0  0  0  0  0  0  0
    7.3262  -18.2109   18.8598 C   0  0  0  0  0  0  0  0  0  0  0  0
    6.2817  -18.7443   18.1737 N   0  0  0  0  0  0  0  0  0  0  0  0
    5.3436  -19.0747   19.0657 C   0  0  0  0  0  0  0  0  0  0  0  0
    5.7813  -18.7577   20.3018 N   0  0  0  0  0  0  0  0  0  0  0  0
    8.6995  -15.6271   22.2492 C   0  0  0  0  0  0  0  0  0  0  0  0
    9.9135  -15.6095   22.4867 O   0  0  0  0  0  0  0  0  0  0  0  0
    6.4576  -11.6134   26.4685 C   0  0  0  0  0  0  0  0  0  0  0  0
    7.4711  -12.6205   26.0589 C   0  0  1  0  0  0  0  0  0  0  0  0
    7.8263  -13.5546   27.2082 C   0  0  0  0  0  0  0  0  0  0  0  0
    7.1461  -13.4304   24.8382 C   0  0  0  0  0  0  0  0  0  0  0  0
    8.1857  -14.4034   24.4009 C   0  0  2  0  0  0  0  0  0  0  0  0
    7.8137  -15.0350   23.1736 N   0  0  0  0  0  0  0  0  0  0  0  0
    8.5448  -15.3741   25.4605 C   0  0  0  0  0  0  0  0  0  0  0  0
    7.6686  -16.1372   25.9195 O   0  0  0  0  0  0  0  0  0  0  0  0
    9.8589  -15.4654   25.9738 N   0  0  0  0  0  0  0  0  0  0  0  0
   10.2912  -16.5783   26.8116 C   0  0  1  0  0  0  0  0  0  0  0  0
   11.7314  -16.9620   26.5375 C   0  0  0  0  0  0  0  0  0  0  0  0
   11.8899  -17.3991   25.1290 C   0  0  0  0  0  0  0  0  0  0  0  0
   11.1479  -18.2125   24.5495 O   0  0  0  0  0  0  0  0  0  0  0  0
   10.1528  -16.1536   28.2369 C   0  0  0  0  0  0  0  0  0  0  0  0
   10.3666  -17.0215   29.3000 O   0  0  0  0  0  0  0  0  0  0  0  0
   12.9447  -16.8670   24.3873 O   0  0  0  0  0  0  0  0  0  0  0  0
    9.8317  -14.9728   28.5312 O   0  0  0  0  0  0  0  0  0  0  0  0
  2  3  1  0
  2  1  1  6
  4  8  1  0
  4  3  1  0
  5  4  2  0
  6  5  1  0
  6  7  1  0
  7  8  2  0
  9 10  2  0
  9  2  1  0
 12 14  1  0
 12 11  1  1
 13 12  1  0
 15 14  1  1
 15 16  1  0
 16  9  1  0
 17 18  2  0
 17 15  1  0
 19 17  1  0
 20 19  1  0
 20 21  1  6
 21 22  1  0
 22 26  1  0
 23 22  2  0
 24 25  1  0
 24 20  1  0
 27 24  2  0
M  END
$$$$
