HLD.pdb
     RDKit          3D

 27 27  0  0  1  0  0  0  0  0999 V2000
   10.9514  -18.0961   15.5602 N   0  0  0  0  0  0  0  0  0  0  0  0
    9.7956  -17.8131   16.3846 C   0  0  1  0  0  0  0  0  0  0  0  0
    9.3577  -19.1022   17.0306 C   0  0  0  0  0  0  0  0  0  0  0  0
    8.4819  -19.8230   16.0412 C   0  0  0  0  0  0  0  0  0  0  0  0
    8.1803  -19.3605   14.7827 C   0  0  0  0  0  0  0  0  0  0  0  0
    7.3703  -20.2721   14.1835 N   0  0  0  0  0  0  0  0  0  0  0  0
    7.1789  -21.2694   15.0515 C   0  0  0  0  0  0  0  0  0  0  0  0
    7.8555  -20.9998   16.1870 N   0  0  0  0  0  0  0  0  0  0  0  0
   10.1054  -16.8287   17.4514 C   0  0  0  0  0  0  0  0  0  0  0  0
   11.2559  -16.4003   17.6048 O   0  0  0  0  0  0  0  0  0  0  0  0
    8.7602  -12.1708   19.8180 C   0  0  0  0  0  0  0  0  0  0  0  0
    7.9057  -13.3217   20.2108 C   0  0  1  0  0  0  0  0  0  0  0  0
    6.4674  -12.8889   20.4629 C   0  0  0  0  0  0  0  0  0  0  0  0
    7.9178  -14.5033   19.2859 C   0  0  0  0  0  0  0  0  0  0  0  0
    9.1913  -15.2732   19.2224 C   0  0  2  0  0  0  0  0  0  0  0  0
    9.0846  -16.3673   18.3085 N   0  0  0  0  0  0  0  0  0  0  0  0
    9.6790  -15.6866   20.5586 C   0  0  0  0  0  0  0  0  0  0  0  0
    9.7725  -14.8374   21.4700 O   0  0  0  0  0  0  0  0  0  0  0  0
   10.0453  -17.0232   20.8379 N   0  0  0  0  0  0  0  0  0  0  0  0
   11.1774  -17.3566   21.6950 C   0  0  1  0  0  0  0  0  0  0  0  0
   12.4607  -16.7163   21.2058 C   0  0  0  0  0  0  0  0  0  0  0  0
   13.5875  -17.0664   22.1046 C   0  0  0  0  0  0  0  0  0  0  0  0
   13.5035  -17.8254   23.0869 O   0  0  0  0  0  0  0  0  0  0  0  0
   10.8672  -16.8608   23.0695 C   0  0  0  0  0  0  0  0  0  0  0  0
   10.7842  -15.5087   23.3758 O   0  0  0  0  0  0  0  0  0  0  0  0
   14.8396  -16.5108   21.8410 O   0  0  0  0  0  0  0  0  0  0  0  0
   10.6664  -17.6650   24.0166 O   0  0  0  0  0  0  0  0  0  0  0  0
  2  3  1  0
  2  1  1  1
  4  8  1  0
  4  3  1  0
  5  4  2  0
  6  5  1  0
  6  7  1  0
  7  8  2  0
  9 10  2  0
  9  2  1  0
 12 14  1  0
 12 11  1  6
 13 12  1  0
 15 14  1  1
 15 16  1  0
 16  9  1  0
 17 18  2  0
 17 15  1  0
 19 17  1  0
 20 19  1  0
 20 21  1  6
 21 22  1  0
 22 26  1  0
 23 22  2  0
 24 25  1  0
 24 20  1  0
 27 24  2  0
M  END
$$$$
