HLD.pdb
     RDKit          3D

 27 27  0  0  1  0  0  0  0  0999 V2000
   10.7288  -14.5694   21.1312 N   0  0  0  0  0  0  0  0  0  0  0  0
    9.4568  -14.3027   21.7686 C   0  0  1  0  0  0  0  0  0  0  0  0
    8.4218  -15.1953   21.1338 C   0  0  0  0  0  0  0  0  0  0  0  0
    7.9983  -14.5426   19.8454 C   0  0  0  0  0  0  0  0  0  0  0  0
    8.5797  -13.4176   19.3116 C   0  0  0  0  0  0  0  0  0  0  0  0
    7.9376  -13.1239   18.1507 N   0  0  0  0  0  0  0  0  0  0  0  0
    6.9858  -14.0449   17.9755 C   0  0  0  0  0  0  0  0  0  0  0  0
    7.0190  -14.9131   19.0075 N   0  0  0  0  0  0  0  0  0  0  0  0
    9.4985  -14.5853   23.2252 C   0  0  0  0  0  0  0  0  0  0  0  0
   10.5368  -14.9881   23.7638 O   0  0  0  0  0  0  0  0  0  0  0  0
    5.3168  -12.2188   26.3271 C   0  0  0  0  0  0  0  0  0  0  0  0
    6.6701  -12.6534   25.8929 C   0  0  1  0  0  0  0  0  0  0  0  0
    7.7644  -11.9005   26.6380 C   0  0  0  0  0  0  0  0  0  0  0  0
    6.9455  -14.1272   25.9552 C   0  0  0  0  0  0  0  0  0  0  0  0
    8.2690  -14.5696   25.4341 C   0  0  2  0  0  0  0  0  0  0  0  0
    8.3467  -14.3966   24.0172 N   0  0  0  0  0  0  0  0  0  0  0  0
    8.6262  -15.9408   25.8657 C   0  0  0  0  0  0  0  0  0  0  0  0
    8.5718  -16.2390   27.0776 O   0  0  0  0  0  0  0  0  0  0  0  0
    9.0304  -16.9316   24.9419 N   0  0  0  0  0  0  0  0  0  0  0  0
    9.3994  -18.2797   25.3587 C   0  0  1  0  0  0  0  0  0  0  0  0
    9.1584  -19.2941   24.2590 C   0  0  0  0  0  0  0  0  0  0  0  0
    9.5770  -20.6460   24.7030 C   0  0  0  0  0  0  0  0  0  0  0  0
    9.4252  -21.0948   25.8535 O   0  0  0  0  0  0  0  0  0  0  0  0
   10.8508  -18.2642   25.7112 C   0  0  0  0  0  0  0  0  0  0  0  0
   11.3492  -18.8745   26.8550 O   0  0  0  0  0  0  0  0  0  0  0  0
   10.1872  -21.4871   23.7724 O   0  0  0  0  0  0  0  0  0  0  0  0
   11.6895  -17.6873   24.9711 O   0  0  0  0  0  0  0  0  0  0  0  0
  2  3  1  0
  2  1  1  6
  4  8  1  0
  4  3  1  0
  5  4  2  0
  6  5  1  0
  6  7  1  0
  7  8  2  0
  9 10  2  0
  9  2  1  0
 12 14  1  0
 12 11  1  1
 13 12  1  0
 15 14  1  6
 15 16  1  0
 16  9  1  0
 17 18  2  0
 17 15  1  0
 19 17  1  0
 20 19  1  0
 20 21  1  6
 21 22  1  0
 22 26  1  0
 23 22  2  0
 24 25  1  0
 24 20  1  0
 27 24  2  0
M  END
$$$$
