HLD.pdb
     RDKit          3D

 27 27  0  0  1  0  0  0  0  0999 V2000
    9.9865  -13.8881   20.4731 N   0  0  0  0  0  0  0  0  0  0  0  0
    8.7947  -13.8438   21.2936 C   0  0  1  0  0  0  0  0  0  0  0  0
    7.7973  -14.8160   20.7184 C   0  0  0  0  0  0  0  0  0  0  0  0
    7.6539  -14.4959   19.2547 C   0  0  0  0  0  0  0  0  0  0  0  0
    7.9546  -13.2807   18.6877 C   0  0  0  0  0  0  0  0  0  0  0  0
    7.7016  -13.3652   17.3554 N   0  0  0  0  0  0  0  0  0  0  0  0
    7.2568  -14.6007   17.1098 C   0  0  0  0  0  0  0  0  0  0  0  0
    7.2260  -15.2948   18.2662 N   0  0  0  0  0  0  0  0  0  0  0  0
    9.0767  -14.2285   22.6991 C   0  0  0  0  0  0  0  0  0  0  0  0
   10.1792  -14.6873   23.0223 O   0  0  0  0  0  0  0  0  0  0  0  0
    5.4181  -11.9059   26.2613 C   0  0  0  0  0  0  0  0  0  0  0  0
    6.7013  -12.3395   25.6496 C   0  0  1  0  0  0  0  0  0  0  0  0
    7.8547  -11.4403   26.0748 C   0  0  0  0  0  0  0  0  0  0  0  0
    7.0838  -13.7755   25.8575 C   0  0  0  0  0  0  0  0  0  0  0  0
    8.2700  -14.2552   25.0949 C   0  0  2  0  0  0  0  0  0  0  0  0
    8.0838  -14.0746   23.6891 N   0  0  0  0  0  0  0  0  0  0  0  0
    8.6583  -15.6399   25.4495 C   0  0  0  0  0  0  0  0  0  0  0  0
    8.7587  -15.9628   26.6522 O   0  0  0  0  0  0  0  0  0  0  0  0
    8.9213  -16.6166   24.4619 N   0  0  0  0  0  0  0  0  0  0  0  0
    9.3473  -17.9700   24.8001 C   0  0  1  0  0  0  0  0  0  0  0  0
    9.3407  -18.8807   23.5889 C   0  0  0  0  0  0  0  0  0  0  0  0
    9.8404  -20.2287   23.9540 C   0  0  0  0  0  0  0  0  0  0  0  0
    9.8000  -20.7157   25.0983 O   0  0  0  0  0  0  0  0  0  0  0  0
   10.7333  -17.8851   25.3505 C   0  0  0  0  0  0  0  0  0  0  0  0
   11.1676  -18.6735   26.4082 O   0  0  0  0  0  0  0  0  0  0  0  0
   10.3995  -21.0198   22.9503 O   0  0  0  0  0  0  0  0  0  0  0  0
   11.5726  -17.0816   24.8668 O   0  0  0  0  0  0  0  0  0  0  0  0
  2  3  1  0
  2  1  1  6
  4  8  1  0
  4  3  1  0
  5  4  2  0
  6  5  1  0
  6  7  1  0
  7  8  2  0
  9 10  2  0
  9  2  1  0
 12 14  1  0
 12 11  1  1
 13 12  1  0
 15 14  1  1
 15 16  1  0
 16  9  1  0
 17 18  2  0
 17 15  1  0
 19 17  1  0
 20 19  1  0
 20 21  1  6
 21 22  1  0
 22 26  1  0
 23 22  2  0
 24 25  1  0
 24 20  1  0
 27 24  2  0
M  END
$$$$
