HLD.pdb
     RDKit          3D

 27 27  0  0  1  0  0  0  0  0999 V2000
   10.7142  -15.3902   20.7069 N   0  0  0  0  0  0  0  0  0  0  0  0
    9.5101  -14.8347   21.2875 C   0  0  1  0  0  0  0  0  0  0  0  0
    8.3286  -15.4215   20.5590 C   0  0  0  0  0  0  0  0  0  0  0  0
    8.1148  -14.5978   19.3176 C   0  0  0  0  0  0  0  0  0  0  0  0
    8.9586  -13.6030   18.8850 C   0  0  0  0  0  0  0  0  0  0  0  0
    8.4449  -13.0861   17.7383 N   0  0  0  0  0  0  0  0  0  0  0  0
    7.3142  -13.7462   17.4728 C   0  0  0  0  0  0  0  0  0  0  0  0
    7.1084  -14.6700   18.4341 N   0  0  0  0  0  0  0  0  0  0  0  0
    9.3896  -15.1633   22.7299 C   0  0  0  0  0  0  0  0  0  0  0  0
   10.3129  -15.7250   23.3319 O   0  0  0  0  0  0  0  0  0  0  0  0
    7.4918  -11.2434   26.6271 C   0  0  0  0  0  0  0  0  0  0  0  0
    7.2159  -12.6819   26.3754 C   0  0  1  0  0  0  0  0  0  0  0  0
    5.8234  -13.0750   26.8509 C   0  0  0  0  0  0  0  0  0  0  0  0
    7.4170  -13.1598   24.9672 C   0  0  0  0  0  0  0  0  0  0  0  0
    8.1421  -14.4514   24.8103 C   0  0  2  0  0  0  0  0  0  0  0  0
    8.2127  -14.8367   23.4355 N   0  0  0  0  0  0  0  0  0  0  0  0
    7.6015  -15.5220   25.6797 C   0  0  0  0  0  0  0  0  0  0  0  0
    7.2874  -15.2577   26.8595 O   0  0  0  0  0  0  0  0  0  0  0  0
    7.4280  -16.8450   25.2127 N   0  0  0  0  0  0  0  0  0  0  0  0
    8.3945  -17.9013   25.4913 C   0  0  1  0  0  0  0  0  0  0  0  0
    9.6356  -17.7687   24.6320 C   0  0  0  0  0  0  0  0  0  0  0  0
   10.0044  -19.0829   24.0517 C   0  0  0  0  0  0  0  0  0  0  0  0
   10.6476  -19.2393   22.9981 O   0  0  0  0  0  0  0  0  0  0  0  0
    8.7746  -17.7998   26.9323 C   0  0  0  0  0  0  0  0  0  0  0  0
    9.7310  -16.9037   27.3921 O   0  0  0  0  0  0  0  0  0  0  0  0
    9.6073  -20.2375   24.7263 O   0  0  0  0  0  0  0  0  0  0  0  0
    8.2323  -18.5359   27.7972 O   0  0  0  0  0  0  0  0  0  0  0  0
  2  3  1  0
  2  1  1  6
  4  8  1  0
  4  3  1  0
  5  4  2  0
  6  5  1  0
  6  7  1  0
  7  8  2  0
  9 10  2  0
  9  2  1  0
 12 14  1  0
 12 11  1  6
 13 12  1  0
 15 14  1  6
 15 16  1  0
 16  9  1  0
 17 18  2  0
 17 15  1  0
 19 17  1  0
 20 19  1  0
 20 21  1  6
 21 22  1  0
 22 26  1  0
 23 22  2  0
 24 25  1  0
 24 20  1  0
 27 24  2  0
M  END
$$$$
