HLD.pdb
     RDKit          3D

 27 27  0  0  1  0  0  0  0  0999 V2000
   10.8412  -15.5592   21.3620 N   0  0  0  0  0  0  0  0  0  0  0  0
    9.7221  -14.8650   21.9632 C   0  0  1  0  0  0  0  0  0  0  0  0
    8.4535  -15.5052   21.4616 C   0  0  0  0  0  0  0  0  0  0  0  0
    7.9146  -14.6286   20.3631 C   0  0  0  0  0  0  0  0  0  0  0  0
    8.5418  -13.5043   19.8821 C   0  0  0  0  0  0  0  0  0  0  0  0
    7.7635  -12.9768   18.9012 N   0  0  0  0  0  0  0  0  0  0  0  0
    6.6855  -13.7569   18.7824 C   0  0  0  0  0  0  0  0  0  0  0  0
    6.7732  -14.7666   19.6727 N   0  0  0  0  0  0  0  0  0  0  0  0
    9.7466  -14.9563   23.4445 C   0  0  0  0  0  0  0  0  0  0  0  0
   10.7840  -15.2637   24.0443 O   0  0  0  0  0  0  0  0  0  0  0  0
    5.6630  -12.1236   26.2503 C   0  0  0  0  0  0  0  0  0  0  0  0
    7.0066  -12.6703   25.9266 C   0  0  1  0  0  0  0  0  0  0  0  0
    8.1018  -11.9629   26.7138 C   0  0  0  0  0  0  0  0  0  0  0  0
    7.1699  -14.1554   26.0661 C   0  0  0  0  0  0  0  0  0  0  0  0
    8.4741  -14.7168   25.6159 C   0  0  2  0  0  0  0  0  0  0  0  0
    8.5789  -14.6919   24.1904 N   0  0  0  0  0  0  0  0  0  0  0  0
    8.7513  -16.0543   26.1888 C   0  0  0  0  0  0  0  0  0  0  0  0
    8.7121  -16.2142   27.4272 O   0  0  0  0  0  0  0  0  0  0  0  0
    9.0615  -17.1656   25.3719 N   0  0  0  0  0  0  0  0  0  0  0  0
    9.3180  -18.4905   25.9254 C   0  0  1  0  0  0  0  0  0  0  0  0
    9.3023  -19.5606   24.8526 C   0  0  0  0  0  0  0  0  0  0  0  0
    9.5852  -20.8903   25.4458 C   0  0  0  0  0  0  0  0  0  0  0  0
    9.9003  -21.9049   24.7981 O   0  0  0  0  0  0  0  0  0  0  0  0
   10.6625  -18.4581   26.5753 C   0  0  0  0  0  0  0  0  0  0  0  0
   11.4961  -17.3488   26.5145 O   0  0  0  0  0  0  0  0  0  0  0  0
    9.4953  -21.0281   26.8310 O   0  0  0  0  0  0  0  0  0  0  0  0
   11.0962  -19.4528   27.2129 O   0  0  0  0  0  0  0  0  0  0  0  0
  2  3  1  0
  2  1  1  6
  4  8  1  0
  4  3  1  0
  5  4  2  0
  6  5  1  0
  6  7  1  0
  7  8  2  0
  9 10  2  0
  9  2  1  0
 12 14  1  0
 12 11  1  1
 13 12  1  0
 15 14  1  6
 15 16  1  0
 16  9  1  0
 17 18  2  0
 17 15  1  0
 19 17  1  0
 20 19  1  0
 20 21  1  6
 21 22  1  0
 22 26  1  0
 23 22  2  0
 24 25  1  0
 24 20  1  0
 27 24  2  0
M  END
$$$$
