HLD.pdb
     RDKit          3D

 27 27  0  0  1  0  0  0  0  0999 V2000
    7.5813  -15.5460   21.4765 N   0  0  0  0  0  0  0  0  0  0  0  0
    8.9869  -15.2980   21.7178 C   0  0  1  0  0  0  0  0  0  0  0  0
    9.4072  -14.1309   20.8622 C   0  0  0  0  0  0  0  0  0  0  0  0
    8.6476  -14.2301   19.5666 C   0  0  0  0  0  0  0  0  0  0  0  0
    7.7270  -15.2075   19.2735 C   0  0  0  0  0  0  0  0  0  0  0  0
    7.2512  -14.9743   18.0224 N   0  0  0  0  0  0  0  0  0  0  0  0
    7.8636  -13.8815   17.5583 C   0  0  0  0  0  0  0  0  0  0  0  0
    8.7170  -13.4235   18.4974 N   0  0  0  0  0  0  0  0  0  0  0  0
    9.2531  -14.9646   23.1395 C   0  0  0  0  0  0  0  0  0  0  0  0
   10.3839  -14.6276   23.5113 O   0  0  0  0  0  0  0  0  0  0  0  0
    5.2099  -12.6314   26.1212 C   0  0  0  0  0  0  0  0  0  0  0  0
    6.5533  -13.0301   25.6261 C   0  0  1  0  0  0  0  0  0  0  0  0
    7.5943  -11.9550   25.9086 C   0  0  0  0  0  0  0  0  0  0  0  0
    7.0665  -14.3593   26.0970 C   0  0  0  0  0  0  0  0  0  0  0  0
    8.3506  -14.8165   25.4964 C   0  0  2  0  0  0  0  0  0  0  0  0
    8.2124  -15.0290   24.0895 N   0  0  0  0  0  0  0  0  0  0  0  0
    8.9287  -15.9850   26.1996 C   0  0  0  0  0  0  0  0  0  0  0  0
    9.0344  -15.9647   27.4442 O   0  0  0  0  0  0  0  0  0  0  0  0
    9.3687  -17.1327   25.5011 N   0  0  0  0  0  0  0  0  0  0  0  0
    9.9836  -18.2681   26.1795 C   0  0  1  0  0  0  0  0  0  0  0  0
    9.5878  -19.5851   25.5429 C   0  0  0  0  0  0  0  0  0  0  0  0
   10.2389  -20.7157   26.2483 C   0  0  0  0  0  0  0  0  0  0  0  0
   11.2830  -21.2799   25.8746 O   0  0  0  0  0  0  0  0  0  0  0  0
   11.4653  -18.0999   26.0932 C   0  0  0  0  0  0  0  0  0  0  0  0
   12.0853  -17.4684   25.0227 O   0  0  0  0  0  0  0  0  0  0  0  0
    9.6480  -21.1919   27.4187 O   0  0  0  0  0  0  0  0  0  0  0  0
   12.2189  -18.5322   27.0038 O   0  0  0  0  0  0  0  0  0  0  0  0
  2  3  1  0
  2  1  1  1
  4  8  1  0
  4  3  1  0
  5  4  2  0
  6  5  1  0
  6  7  1  0
  7  8  2  0
  9 10  2  0
  9  2  1  0
 12 14  1  0
 12 11  1  1
 13 12  1  0
 15 14  1  1
 15 16  1  0
 16  9  1  0
 17 18  2  0
 17 15  1  0
 19 17  1  0
 20 19  1  0
 20 21  1  6
 21 22  1  0
 22 26  1  0
 23 22  2  0
 24 25  1  0
 24 20  1  0
 27 24  2  0
M  END
$$$$
