HLD.pdb
     RDKit          3D

 27 27  0  0  1  0  0  0  0  0999 V2000
    7.4580  -16.5930   21.2907 N   0  0  0  0  0  0  0  0  0  0  0  0
    8.9047  -16.5788   21.3395 C   0  0  1  0  0  0  0  0  0  0  0  0
    9.4081  -15.9844   20.0495 C   0  0  0  0  0  0  0  0  0  0  0  0
    8.4552  -14.8858   19.6617 C   0  0  0  0  0  0  0  0  0  0  0  0
    7.3652  -14.4989   20.4039 C   0  0  0  0  0  0  0  0  0  0  0  0
    6.7462  -13.4855   19.7436 N   0  0  0  0  0  0  0  0  0  0  0  0
    7.4381  -13.2553   18.6243 C   0  0  0  0  0  0  0  0  0  0  0  0
    8.4823  -14.1076   18.5698 N   0  0  0  0  0  0  0  0  0  0  0  0
    9.4115  -15.7602   22.4692 C   0  0  0  0  0  0  0  0  0  0  0  0
   10.5339  -15.2419   22.4238 O   0  0  0  0  0  0  0  0  0  0  0  0
    5.7536  -13.1199   25.6658 C   0  0  0  0  0  0  0  0  0  0  0  0
    6.9659  -13.5452   24.9187 C   0  0  1  0  0  0  0  0  0  0  0  0
    7.7483  -12.3477   24.3958 C   0  0  0  0  0  0  0  0  0  0  0  0
    7.8972  -14.4753   25.6393 C   0  0  0  0  0  0  0  0  0  0  0  0
    9.0510  -14.9895   24.8499 C   0  0  2  0  0  0  0  0  0  0  0  0
    8.6136  -15.5628   23.6155 N   0  0  0  0  0  0  0  0  0  0  0  0
    9.9194  -15.9008   25.6304 C   0  0  0  0  0  0  0  0  0  0  0  0
   10.3719  -15.5266   26.7330 O   0  0  0  0  0  0  0  0  0  0  0  0
   10.2557  -17.1922   25.1634 N   0  0  0  0  0  0  0  0  0  0  0  0
   11.1185  -18.0927   25.9197 C   0  0  1  0  0  0  0  0  0  0  0  0
   10.4940  -19.4635   26.0844 C   0  0  0  0  0  0  0  0  0  0  0  0
   10.0812  -19.6768   27.4929 C   0  0  0  0  0  0  0  0  0  0  0  0
   10.2958  -18.8806   28.4247 O   0  0  0  0  0  0  0  0  0  0  0  0
   12.4065  -18.2198   25.1739 C   0  0  0  0  0  0  0  0  0  0  0  0
   13.5333  -18.8172   25.7238 O   0  0  0  0  0  0  0  0  0  0  0  0
    9.4012  -20.8526   27.8109 O   0  0  0  0  0  0  0  0  0  0  0  0
   12.5190  -17.7822   23.9992 O   0  0  0  0  0  0  0  0  0  0  0  0
  2  3  1  0
  2  1  1  6
  4  8  1  0
  4  3  1  0
  5  4  2  0
  6  5  1  0
  6  7  1  0
  7  8  2  0
  9 10  2  0
  9  2  1  0
 12 14  1  0
 12 11  1  1
 13 12  1  0
 15 14  1  1
 15 16  1  0
 16  9  1  0
 17 18  2  0
 17 15  1  0
 19 17  1  0
 20 19  1  0
 20 21  1  6
 21 22  1  0
 22 26  1  0
 23 22  2  0
 24 25  1  0
 24 20  1  0
 27 24  2  0
M  END
$$$$
