HLD.pdb
     RDKit          3D

 27 27  0  0  1  0  0  0  0  0999 V2000
   10.6522  -14.9316   21.3319 N   0  0  0  0  0  0  0  0  0  0  0  0
    9.4601  -14.4800   22.0180 C   0  0  1  0  0  0  0  0  0  0  0  0
    8.2784  -15.1995   21.4205 C   0  0  0  0  0  0  0  0  0  0  0  0
    7.9159  -14.4829   20.1475 C   0  0  0  0  0  0  0  0  0  0  0  0
    8.6533  -13.4691   19.5844 C   0  0  0  0  0  0  0  0  0  0  0  0
    8.0209  -13.0706   18.4497 N   0  0  0  0  0  0  0  0  0  0  0  0
    6.9229  -13.8202   18.3188 C   0  0  0  0  0  0  0  0  0  0  0  0
    6.8544  -14.6839   19.3528 N   0  0  0  0  0  0  0  0  0  0  0  0
    9.5125  -14.7782   23.4711 C   0  0  0  0  0  0  0  0  0  0  0  0
   10.5196  -15.2868   23.9786 O   0  0  0  0  0  0  0  0  0  0  0  0
    5.4712  -12.1314   26.3698 C   0  0  0  0  0  0  0  0  0  0  0  0
    6.8147  -12.6339   25.9807 C   0  0  1  0  0  0  0  0  0  0  0  0
    7.9249  -11.7755   26.5725 C   0  0  0  0  0  0  0  0  0  0  0  0
    7.0920  -14.0798   26.2706 C   0  0  0  0  0  0  0  0  0  0  0  0
    8.3617  -14.6278   25.7171 C   0  0  2  0  0  0  0  0  0  0  0  0
    8.4067  -14.4829   24.2956 N   0  0  0  0  0  0  0  0  0  0  0  0
    8.6298  -16.0150   26.1617 C   0  0  0  0  0  0  0  0  0  0  0  0
    8.5633  -16.2961   27.3771 O   0  0  0  0  0  0  0  0  0  0  0  0
    8.9615  -17.0403   25.2466 N   0  0  0  0  0  0  0  0  0  0  0  0
    9.2661  -18.3998   25.6784 C   0  0  1  0  0  0  0  0  0  0  0  0
    9.3088  -19.3644   24.5104 C   0  0  0  0  0  0  0  0  0  0  0  0
    9.5362  -20.7486   24.9922 C   0  0  0  0  0  0  0  0  0  0  0  0
    9.5829  -21.0858   26.1890 O   0  0  0  0  0  0  0  0  0  0  0  0
   10.5997  -18.3741   26.3507 C   0  0  0  0  0  0  0  0  0  0  0  0
   10.8359  -19.0005   27.5677 O   0  0  0  0  0  0  0  0  0  0  0  0
    9.7123  -21.7570   24.0446 O   0  0  0  0  0  0  0  0  0  0  0  0
   11.5749  -17.7732   25.8293 O   0  0  0  0  0  0  0  0  0  0  0  0
  2  3  1  0
  2  1  1  6
  4  8  1  0
  4  3  1  0
  5  4  2  0
  6  5  1  0
  6  7  1  0
  7  8  2  0
  9 10  2  0
  9  2  1  0
 12 14  1  0
 12 11  1  1
 13 12  1  0
 15 14  1  6
 15 16  1  0
 16  9  1  0
 17 18  2  0
 17 15  1  0
 19 17  1  0
 20 19  1  0
 20 21  1  6
 21 22  1  0
 22 26  1  0
 23 22  2  0
 24 25  1  0
 24 20  1  0
 27 24  2  0
M  END
$$$$
