HLD.pdb
     RDKit          3D

 27 27  0  0  1  0  0  0  0  0999 V2000
    9.8504  -17.3991   17.7433 N   0  0  0  0  0  0  0  0  0  0  0  0
   11.1275  -16.7596   17.9792 C   0  0  1  0  0  0  0  0  0  0  0  0
   11.5018  -15.9948   16.7358 C   0  0  0  0  0  0  0  0  0  0  0  0
   11.7279  -17.0035   15.6418 C   0  0  0  0  0  0  0  0  0  0  0  0
   12.3626  -18.2107   15.8110 C   0  0  0  0  0  0  0  0  0  0  0  0
   12.3798  -18.8476   14.6110 N   0  0  0  0  0  0  0  0  0  0  0  0
   11.7712  -18.0523   13.7267 C   0  0  0  0  0  0  0  0  0  0  0  0
   11.3715  -16.9253   14.3513 N   0  0  0  0  0  0  0  0  0  0  0  0
   11.0685  -15.8117   19.1199 C   0  0  0  0  0  0  0  0  0  0  0  0
   12.0902  -15.2463   19.5286 O   0  0  0  0  0  0  0  0  0  0  0  0
    6.2367  -13.3495   19.7397 C   0  0  0  0  0  0  0  0  0  0  0  0
    7.6962  -13.6298   19.7382 C   0  0  1  0  0  0  0  0  0  0  0  0
    8.5012  -12.3971   19.3484 C   0  0  0  0  0  0  0  0  0  0  0  0
    8.2603  -14.2177   20.9984 C   0  0  0  0  0  0  0  0  0  0  0  0
    9.6572  -14.7280   20.9158 C   0  0  2  0  0  0  0  0  0  0  0  0
    9.8382  -15.5431   19.7555 N   0  0  0  0  0  0  0  0  0  0  0  0
   10.0983  -15.3966   22.1618 C   0  0  0  0  0  0  0  0  0  0  0  0
   10.0213  -14.7861   23.2490 O   0  0  0  0  0  0  0  0  0  0  0  0
   10.6081  -16.7152   22.1601 N   0  0  0  0  0  0  0  0  0  0  0  0
   11.1480  -17.3421   23.3613 C   0  0  1  0  0  0  0  0  0  0  0  0
   10.5868  -18.7342   23.5697 C   0  0  0  0  0  0  0  0  0  0  0  0
   11.1701  -19.3490   24.7869 C   0  0  0  0  0  0  0  0  0  0  0  0
   11.9361  -18.7700   25.5783 O   0  0  0  0  0  0  0  0  0  0  0  0
   12.6311  -17.4226   23.2035 C   0  0  0  0  0  0  0  0  0  0  0  0
   13.5119  -17.0414   24.2076 O   0  0  0  0  0  0  0  0  0  0  0  0
   10.8445  -20.6737   25.0785 O   0  0  0  0  0  0  0  0  0  0  0  0
   13.1454  -17.8464   22.1359 O   0  0  0  0  0  0  0  0  0  0  0  0
  2  3  1  0
  2  1  1  6
  4  8  1  0
  4  3  1  0
  5  4  2  0
  6  5  1  0
  6  7  1  0
  7  8  2  0
  9 10  2  0
  9  2  1  0
 12 14  1  0
 12 11  1  1
 13 12  1  0
 15 14  1  1
 15 16  1  0
 16  9  1  0
 17 18  2  0
 17 15  1  0
 19 17  1  0
 20 19  1  0
 20 21  1  6
 21 22  1  0
 22 26  1  0
 23 22  2  0
 24 25  1  0
 24 20  1  0
 27 24  2  0
M  END
$$$$
