VRP.pdb
     RDKit          3D

 26 26  0  0  1  0  0  0  0  0999 V2000
   17.4527  -18.1021  -16.9879 C   0  0  0  0  0  0  0  0  0  0  0  0
   18.6978  -18.0373  -16.1497 C   0  0  1  0  0  0  0  0  0  0  0  0
   18.9444  -19.4146  -15.5755 C   0  0  0  0  0  0  0  0  0  0  0  0
   19.9259  -17.6665  -16.9919 C   0  0  2  0  0  0  0  0  0  0  0  0
   19.9778  -18.4118  -18.2052 N   0  0  0  0  0  0  0  0  0  0  0  0
   21.1621  -17.7103  -16.2031 C   0  0  0  0  0  0  0  0  0  0  0  0
   21.2417  -16.9426  -15.2025 O   0  0  0  0  0  0  0  0  0  0  0  0
   27.6744  -20.8700  -11.6208 N   0  0  0  0  0  0  0  0  0  0  0  0
   26.2695  -20.8983  -11.2962 C   0  0  0  0  0  0  0  0  0  0  0  0
   25.8639  -20.9057  -10.0749 N   0  0  0  0  0  0  0  0  0  0  0  0
   25.2937  -20.9216  -12.3264 N   0  0  0  0  0  0  0  0  0  0  0  0
   25.6424  -20.9576  -13.7510 C   0  0  0  0  0  0  0  0  0  0  0  0
   25.2173  -19.6856  -14.4188 C   0  0  0  0  0  0  0  0  0  0  0  0
   23.8856  -19.7026  -15.0582 C   0  0  0  0  0  0  0  0  0  0  0  0
   23.5425  -18.4250  -15.7613 C   0  0  2  0  0  0  0  0  0  0  0  0
   22.2760  -18.5340  -16.4588 N   0  0  0  0  0  0  0  0  0  0  0  0
   24.6562  -17.9633  -16.5956 C   0  0  0  0  0  0  0  0  0  0  0  0
   25.0069  -18.6353  -17.6310 O   0  0  0  0  0  0  0  0  0  0  0  0
   24.8462  -20.7890   -9.8305 N   0  0  0  0  0  0  0  0  0  0  0  0
   25.4524  -16.7760  -16.3819 C   0  0  0  0  0  0  0  0  0  0  0  0
   25.4542  -15.9147  -15.2390 C   0  0  0  0  0  0  0  0  0  0  0  0
   26.7242  -15.0571  -15.4081 C   0  0  0  0  0  0  0  0  0  0  0  0
   26.7932  -14.9271  -16.9370 C   0  0  1  0  0  0  0  0  0  0  0  0
   26.4016  -16.2982  -17.3628 C   0  0  0  0  0  0  0  0  0  0  0  0
   27.5548  -17.2085  -17.5098 O   0  0  0  0  0  0  0  0  0  0  0  0
   27.7353  -18.1335  -16.6970 O   0  0  0  0  0  0  0  0  0  0  0  0
  2  3  1  6
  2  1  1  0
  4  2  1  0
  4  5  1  6
  6  7  2  0
  6  4  1  0
  9 10  2  0
  9  8  1  0
 11  9  1  0
 12 11  1  0
 13 12  1  0
 13 14  1  0
 15 14  1  6
 15 16  1  0
 16  6  1  0
 17 15  1  0
 18 17  2  0
 19 20  1  0
 19 17  1  0
 21 20  1  0
 22 23  1  0
 22 21  1  0
 23 19  1  0
 23 24  1  1
 25 24  2  0
 26 24  1  0
M  END
$$$$
