VRP.pdb
     RDKit          3D

 26 26  0  0  1  0  0  0  0  0999 V2000
   19.3254  -12.4734  -22.8221 C   0  0  0  0  0  0  0  0  0  0  0  0
   20.7531  -12.7650  -22.4561 C   0  0  1  0  0  0  0  0  0  0  0  0
   21.5805  -11.5476  -22.8039 C   0  0  0  0  0  0  0  0  0  0  0  0
   20.9103  -13.0094  -20.9493 C   0  0  2  0  0  0  0  0  0  0  0  0
   20.2404  -14.1967  -20.5349 N   0  0  0  0  0  0  0  0  0  0  0  0
   20.5682  -11.8180  -20.1645 C   0  0  0  0  0  0  0  0  0  0  0  0
   19.3797  -11.7173  -19.7473 O   0  0  0  0  0  0  0  0  0  0  0  0
   21.9375   -9.6050  -12.1319 N   0  0  0  0  0  0  0  0  0  0  0  0
   21.3908   -8.4221  -12.7500 C   0  0  0  0  0  0  0  0  0  0  0  0
   20.9685   -7.4319  -12.0448 N   0  0  0  0  0  0  0  0  0  0  0  0
   21.3029   -8.3243  -14.1630 N   0  0  0  0  0  0  0  0  0  0  0  0
   21.6119   -9.4447  -15.0583 C   0  0  0  0  0  0  0  0  0  0  0  0
   21.2401   -9.0972  -16.4674 C   0  0  0  0  0  0  0  0  0  0  0  0
   21.5833  -10.1017  -17.4950 C   0  0  0  0  0  0  0  0  0  0  0  0
   21.1365   -9.7240  -18.8742 C   0  0  2  0  0  0  0  0  0  0  0  0
   21.4470  -10.7688  -19.8304 N   0  0  0  0  0  0  0  0  0  0  0  0
   21.6310   -8.3950  -19.2465 C   0  0  0  0  0  0  0  0  0  0  0  0
   22.8925   -8.1821  -19.3467 O   0  0  0  0  0  0  0  0  0  0  0  0
   20.6754   -6.5232  -12.4892 N   0  0  0  0  0  0  0  0  0  0  0  0
   20.8251   -7.2293  -19.5308 C   0  0  0  0  0  0  0  0  0  0  0  0
   19.3992   -7.1162  -19.4860 C   0  0  0  0  0  0  0  0  0  0  0  0
   19.1344   -5.5977  -19.5204 C   0  0  0  0  0  0  0  0  0  0  0  0
   20.2917   -5.1146  -20.4071 C   0  0  2  0  0  0  0  0  0  0  0  0
   21.4100   -5.9629  -19.9128 C   0  0  0  0  0  0  0  0  0  0  0  0
   22.1604   -5.3403  -18.8040 O   0  0  0  0  0  0  0  0  0  0  0  0
   22.0984   -5.8158  -17.6556 O   0  0  0  0  0  0  0  0  0  0  0  0
  2  3  1  1
  2  1  1  0
  4  2  1  0
  4  5  1  1
  6  7  2  0
  6  4  1  0
  9 10  2  0
  9  8  1  0
 11  9  1  0
 12 11  1  0
 13 12  1  0
 13 14  1  0
 15 14  1  1
 15 16  1  0
 16  6  1  0
 17 15  1  0
 18 17  2  0
 19 20  1  0
 19 17  1  0
 21 20  1  0
 22 23  1  0
 22 21  1  0
 23 19  1  0
 23 24  1  1
 25 24  2  0
 26 24  1  0
M  END
$$$$
