VRP.pdb
     RDKit          3D

 26 26  0  0  1  0  0  0  0  0999 V2000
   17.1657  -18.3026  -14.2896 C   0  0  0  0  0  0  0  0  0  0  0  0
   18.5993  -18.3406  -13.8419 C   0  0  1  0  0  0  0  0  0  0  0  0
   18.8010  -19.6029  -13.0334 C   0  0  0  0  0  0  0  0  0  0  0  0
   19.5614  -18.4039  -15.0358 C   0  0  2  0  0  0  0  0  0  0  0  0
   19.1200  -19.3349  -16.0200 N   0  0  0  0  0  0  0  0  0  0  0  0
   20.9517  -18.5923  -14.6071 C   0  0  0  0  0  0  0  0  0  0  0  0
   21.4964  -17.6489  -13.9668 O   0  0  0  0  0  0  0  0  0  0  0  0
   24.8815  -24.6101  -15.7834 N   0  0  0  0  0  0  0  0  0  0  0  0
   26.1803  -23.9861  -15.7214 C   0  0  0  0  0  0  0  0  0  0  0  0
   27.0743  -24.2090  -16.6198 N   0  0  0  0  0  0  0  0  0  0  0  0
   26.5053  -23.1063  -14.6565 N   0  0  0  0  0  0  0  0  0  0  0  0
   25.5305  -22.6929  -13.6411 C   0  0  0  0  0  0  0  0  0  0  0  0
   25.0340  -21.3103  -13.9348 C   0  0  0  0  0  0  0  0  0  0  0  0
   23.5862  -21.1841  -14.2010 C   0  0  0  0  0  0  0  0  0  0  0  0
   23.1681  -19.8004  -14.5950 C   0  0  2  0  0  0  0  0  0  0  0  0
   21.7413  -19.7348  -14.8441 N   0  0  0  0  0  0  0  0  0  0  0  0
   23.9986  -19.2867  -15.6885 C   0  0  0  0  0  0  0  0  0  0  0  0
   23.8359  -19.7276  -16.8826 O   0  0  0  0  0  0  0  0  0  0  0  0
   28.0331  -23.7769  -16.5636 N   0  0  0  0  0  0  0  0  0  0  0  0
   25.0372  -18.2874  -15.5794 C   0  0  0  0  0  0  0  0  0  0  0  0
   25.5436  -17.6744  -14.3894 C   0  0  0  0  0  0  0  0  0  0  0  0
   26.8484  -16.9869  -14.8384 C   0  0  0  0  0  0  0  0  0  0  0  0
   26.4871  -16.5722  -16.2725 C   0  0  2  0  0  0  0  0  0  0  0  0
   25.7286  -17.7652  -16.7373 C   0  0  0  0  0  0  0  0  0  0  0  0
   26.5872  -18.7818  -17.3773 O   0  0  0  0  0  0  0  0  0  0  0  0
   26.7827  -19.8798  -16.8250 O   0  0  0  0  0  0  0  0  0  0  0  0
  2  3  1  1
  2  1  1  0
  4  2  1  0
  4  5  1  6
  6  7  2  0
  6  4  1  0
  9 10  2  0
  9  8  1  0
 11  9  1  0
 12 11  1  0
 13 12  1  0
 13 14  1  0
 15 14  1  6
 15 16  1  0
 16  6  1  0
 17 15  1  0
 18 17  2  0
 19 20  1  0
 19 17  1  0
 21 20  1  0
 22 23  1  0
 22 21  1  0
 23 19  1  0
 23 24  1  6
 25 24  2  0
 26 24  1  0
M  END
$$$$
