VRP.pdb
     RDKit          3D

 26 26  0  0  1  0  0  0  0  0999 V2000
   29.3407  -20.1234  -18.5155 C   0  0  0  0  0  0  0  0  0  0  0  0
   27.9903  -20.3836  -17.9105 C   0  0  1  0  0  0  0  0  0  0  0  0
   27.1194  -21.0180  -18.9720 C   0  0  0  0  0  0  0  0  0  0  0  0
   28.0779  -21.3722  -16.7401 C   0  0  2  0  0  0  0  0  0  0  0  0
   28.6988  -22.5948  -17.1276 N   0  0  0  0  0  0  0  0  0  0  0  0
   26.7843  -21.5386  -16.0683 C   0  0  0  0  0  0  0  0  0  0  0  0
   26.0363  -22.4748  -16.4691 O   0  0  0  0  0  0  0  0  0  0  0  0
   24.0806  -21.2403   -7.9987 N   0  0  0  0  0  0  0  0  0  0  0  0
   25.1057  -20.7443   -8.8837 C   0  0  0  0  0  0  0  0  0  0  0  0
   26.3166  -20.5792   -8.4806 N   0  0  0  0  0  0  0  0  0  0  0  0
   24.7981  -20.4215  -10.2310 N   0  0  0  0  0  0  0  0  0  0  0  0
   23.6066  -20.9314  -10.9186 C   0  0  0  0  0  0  0  0  0  0  0  0
   23.6333  -20.5322  -12.3623 C   0  0  0  0  0  0  0  0  0  0  0  0
   24.9682  -20.4637  -12.9916 C   0  0  0  0  0  0  0  0  0  0  0  0
   24.9778  -20.9000  -14.4248 C   0  0  2  0  0  0  0  0  0  0  0  0
   26.2951  -20.7466  -15.0108 N   0  0  0  0  0  0  0  0  0  0  0  0
   23.8990  -20.2576  -15.1818 C   0  0  0  0  0  0  0  0  0  0  0  0
   23.9293  -18.9933  -15.3993 O   0  0  0  0  0  0  0  0  0  0  0  0
   27.0461  -20.1308   -9.0936 N   0  0  0  0  0  0  0  0  0  0  0  0
   22.7399  -20.9119  -15.7451 C   0  0  0  0  0  0  0  0  0  0  0  0
   22.4118  -22.3044  -15.7040 C   0  0  0  0  0  0  0  0  0  0  0  0
   20.9308  -22.3613  -16.1287 C   0  0  0  0  0  0  0  0  0  0  0  0
   20.8651  -21.2011  -17.1329 C   0  0  1  0  0  0  0  0  0  0  0  0
   21.7129  -20.1826  -16.4557 C   0  0  0  0  0  0  0  0  0  0  0  0
   20.9441  -19.2929  -15.5627 O   0  0  0  0  0  0  0  0  0  0  0  0
   21.1303  -19.3206  -14.3326 O   0  0  0  0  0  0  0  0  0  0  0  0
  2  3  1  6
  2  1  1  0
  4  2  1  0
  4  5  1  6
  6  7  2  0
  6  4  1  0
  9 10  2  0
  9  8  1  0
 11  9  1  0
 12 11  1  0
 13 12  1  0
 13 14  1  0
 15 14  1  1
 15 16  1  0
 16  6  1  0
 17 15  1  0
 18 17  2  0
 19 20  1  0
 19 17  1  0
 21 20  1  0
 22 23  1  0
 22 21  1  0
 23 19  1  0
 23 24  1  1
 25 24  2  0
 26 24  1  0
M  END
$$$$
