VRP.pdb
     RDKit          3D

 26 26  0  0  1  0  0  0  0  0999 V2000
   19.6959  -19.4604  -13.8709 C   0  0  0  0  0  0  0  0  0  0  0  0
   21.1259  -19.8244  -14.1534 C   0  0  1  0  0  0  0  0  0  0  0  0
   21.8958  -18.5427  -14.3818 C   0  0  0  0  0  0  0  0  0  0  0  0
   21.7722  -20.5394  -12.9592 C   0  0  2  0  0  0  0  0  0  0  0  0
   23.1505  -20.8152  -13.1926 N   0  0  0  0  0  0  0  0  0  0  0  0
   20.9880  -21.7026  -12.5299 C   0  0  0  0  0  0  0  0  0  0  0  0
   21.0751  -22.7528  -13.2271 O   0  0  0  0  0  0  0  0  0  0  0  0
   17.2037  -24.6763   -4.9398 N   0  0  0  0  0  0  0  0  0  0  0  0
   18.1626  -25.4643   -5.6744 C   0  0  0  0  0  0  0  0  0  0  0  0
   18.8293  -26.4079   -5.1076 N   0  0  0  0  0  0  0  0  0  0  0  0
   18.3966  -25.2122   -7.0512 N   0  0  0  0  0  0  0  0  0  0  0  0
   17.7271  -24.1339   -7.7870 C   0  0  0  0  0  0  0  0  0  0  0  0
   18.1956  -24.1114   -9.2098 C   0  0  0  0  0  0  0  0  0  0  0  0
   18.9814  -22.9278   -9.6151 C   0  0  0  0  0  0  0  0  0  0  0  0
   19.3002  -22.8931  -11.0786 C   0  0  2  0  0  0  0  0  0  0  0  0
   20.1413  -21.7582  -11.4053 N   0  0  0  0  0  0  0  0  0  0  0  0
   18.0831  -22.9989  -11.8891 C   0  0  0  0  0  0  0  0  0  0  0  0
   17.2347  -22.0362  -11.9055 O   0  0  0  0  0  0  0  0  0  0  0  0
   19.4878  -27.0230   -5.6528 N   0  0  0  0  0  0  0  0  0  0  0  0
   17.7006  -24.1187  -12.7191 C   0  0  0  0  0  0  0  0  0  0  0  0
   18.3707  -25.3753  -12.8606 C   0  0  0  0  0  0  0  0  0  0  0  0
   17.3416  -26.2806  -13.5664 C   0  0  0  0  0  0  0  0  0  0  0  0
   16.6175  -25.2645  -14.4622 C   0  0  2  0  0  0  0  0  0  0  0  0
   16.5172  -24.0930  -13.5500 C   0  0  0  0  0  0  0  0  0  0  0  0
   15.2763  -24.0888  -12.7499 O   0  0  0  0  0  0  0  0  0  0  0  0
   15.3089  -24.3552  -11.5347 O   0  0  0  0  0  0  0  0  0  0  0  0
  2  3  1  1
  2  1  1  0
  4  2  1  0
  4  5  1  6
  6  7  2  0
  6  4  1  0
  9 10  2  0
  9  8  1  0
 11  9  1  0
 12 11  1  0
 13 12  1  0
 13 14  1  0
 15 14  1  1
 15 16  1  0
 16  6  1  0
 17 15  1  0
 18 17  2  0
 19 20  1  0
 19 17  1  0
 21 20  1  0
 22 23  1  0
 22 21  1  0
 23 19  1  0
 23 24  1  1
 25 24  2  0
 26 24  1  0
M  END
$$$$
