VRP.pdb
     RDKit          3D

 26 26  0  0  1  0  0  0  0  0999 V2000
   26.8301  -34.3865  -16.0717 C   0  0  0  0  0  0  0  0  0  0  0  0
   28.1650  -33.8527  -16.5079 C   0  0  1  0  0  0  0  0  0  0  0  0
   28.0490  -33.4384  -17.9580 C   0  0  0  0  0  0  0  0  0  0  0  0
   28.5629  -32.6060  -15.7066 C   0  0  2  0  0  0  0  0  0  0  0  0
   27.5471  -31.6074  -15.7457 N   0  0  0  0  0  0  0  0  0  0  0  0
   29.8984  -32.1234  -16.0755 C   0  0  0  0  0  0  0  0  0  0  0  0
   29.9748  -30.9932  -16.6355 O   0  0  0  0  0  0  0  0  0  0  0  0
   38.0387  -33.2589  -12.8149 N   0  0  0  0  0  0  0  0  0  0  0  0
   36.6727  -32.9489  -12.4713 C   0  0  0  0  0  0  0  0  0  0  0  0
   36.2586  -33.0055  -11.2542 N   0  0  0  0  0  0  0  0  0  0  0  0
   35.7454  -32.5737  -13.4779 N   0  0  0  0  0  0  0  0  0  0  0  0
   35.9747  -32.8275  -14.9045 C   0  0  0  0  0  0  0  0  0  0  0  0
   34.8342  -32.2907  -15.7142 C   0  0  0  0  0  0  0  0  0  0  0  0
   33.4965  -32.8232  -15.3827 C   0  0  0  0  0  0  0  0  0  0  0  0
   32.4084  -32.3054  -16.2729 C   0  0  2  0  0  0  0  0  0  0  0  0
   31.1116  -32.8071  -15.8620 N   0  0  0  0  0  0  0  0  0  0  0  0
   32.7262  -32.5325  -17.6860 C   0  0  0  0  0  0  0  0  0  0  0  0
   32.5533  -33.6927  -18.2066 O   0  0  0  0  0  0  0  0  0  0  0  0
   35.2443  -32.8633  -11.0091 N   0  0  0  0  0  0  0  0  0  0  0  0
   33.2396  -31.5535  -18.6171 C   0  0  0  0  0  0  0  0  0  0  0  0
   33.5704  -30.1854  -18.3583 C   0  0  0  0  0  0  0  0  0  0  0  0
   34.3901  -29.7502  -19.5895 C   0  0  0  0  0  0  0  0  0  0  0  0
   33.7187  -30.5733  -20.6990 C   0  0  1  0  0  0  0  0  0  0  0  0
   33.4972  -31.8706  -20.0044 C   0  0  0  0  0  0  0  0  0  0  0  0
   34.6268  -32.8088  -20.1596 O   0  0  0  0  0  0  0  0  0  0  0  0
   35.2783  -33.1807  -19.1667 O   0  0  0  0  0  0  0  0  0  0  0  0
  2  3  1  6
  2  1  1  0
  4  2  1  0
  4  5  1  6
  6  7  2  0
  6  4  1  0
  9 10  2  0
  9  8  1  0
 11  9  1  0
 12 11  1  0
 13 12  1  0
 13 14  1  0
 15 14  1  1
 15 16  1  0
 16  6  1  0
 17 15  1  0
 18 17  2  0
 19 20  1  0
 19 17  1  0
 21 20  1  0
 22 23  1  0
 22 21  1  0
 23 19  1  0
 23 24  1  6
 25 24  2  0
 26 24  1  0
M  END
$$$$
