VRP.pdb
     RDKit          3D

 26 26  0  0  1  0  0  0  0  0999 V2000
   19.4990  -21.4235  -13.6235 C   0  0  0  0  0  0  0  0  0  0  0  0
   20.7771  -20.6897  -13.3318 C   0  0  1  0  0  0  0  0  0  0  0  0
   21.7713  -21.6876  -12.7809 C   0  0  0  0  0  0  0  0  0  0  0  0
   21.3878  -20.0921  -14.6065 C   0  0  2  0  0  0  0  0  0  0  0  0
   21.4211  -21.0399  -15.6698 N   0  0  0  0  0  0  0  0  0  0  0  0
   22.6736  -19.4376  -14.3406 C   0  0  0  0  0  0  0  0  0  0  0  0
   22.6837  -18.4935  -13.5008 O   0  0  0  0  0  0  0  0  0  0  0  0
   26.8461  -23.4542  -16.6530 N   0  0  0  0  0  0  0  0  0  0  0  0
   28.1155  -22.8658  -17.0034 C   0  0  0  0  0  0  0  0  0  0  0  0
   28.6871  -23.1256  -18.1268 N   0  0  0  0  0  0  0  0  0  0  0  0
   28.7698  -21.9811  -16.1074 N   0  0  0  0  0  0  0  0  0  0  0  0
   28.1052  -21.4020  -14.9347 C   0  0  0  0  0  0  0  0  0  0  0  0
   26.9208  -20.5898  -15.3611 C   0  0  0  0  0  0  0  0  0  0  0  0
   26.2531  -19.8097  -14.2989 C   0  0  0  0  0  0  0  0  0  0  0  0
   25.1130  -18.9745  -14.7960 C   0  0  2  0  0  0  0  0  0  0  0  0
   23.9064  -19.7658  -14.9384 N   0  0  0  0  0  0  0  0  0  0  0  0
   25.4903  -18.2231  -15.9970 C   0  0  0  0  0  0  0  0  0  0  0  0
   25.4419  -18.7848  -17.1498 O   0  0  0  0  0  0  0  0  0  0  0  0
   29.6679  -22.8032  -18.3346 N   0  0  0  0  0  0  0  0  0  0  0  0
   25.9352  -16.8487  -16.0436 C   0  0  0  0  0  0  0  0  0  0  0  0
   26.3028  -16.0077  -14.9455 C   0  0  0  0  0  0  0  0  0  0  0  0
   27.0212  -14.8123  -15.6027 C   0  0  0  0  0  0  0  0  0  0  0  0
   26.2492  -14.6926  -16.9251 C   0  0  2  0  0  0  0  0  0  0  0  0
   26.0715  -16.1248  -17.2881 C   0  0  0  0  0  0  0  0  0  0  0  0
   27.1728  -16.6507  -18.1192 O   0  0  0  0  0  0  0  0  0  0  0  0
   27.9508  -17.5092  -17.6650 O   0  0  0  0  0  0  0  0  0  0  0  0
  2  3  1  6
  2  1  1  0
  4  2  1  0
  4  5  1  6
  6  7  2  0
  6  4  1  0
  9 10  2  0
  9  8  1  0
 11  9  1  0
 12 11  1  0
 13 12  1  0
 13 14  1  0
 15 14  1  6
 15 16  1  0
 16  6  1  0
 17 15  1  0
 18 17  2  0
 19 20  1  0
 19 17  1  0
 21 20  1  0
 22 23  1  0
 22 21  1  0
 23 19  1  0
 23 24  1  6
 25 24  2  0
 26 24  1  0
M  END
$$$$
