VRP.pdb
     RDKit          3D

 26 26  0  0  1  0  0  0  0  0999 V2000
   21.3941  -19.6709  -16.9211 C   0  0  0  0  0  0  0  0  0  0  0  0
   22.0411  -20.5079  -15.8543 C   0  0  1  0  0  0  0  0  0  0  0  0
   23.1318  -21.3292  -16.5050 C   0  0  0  0  0  0  0  0  0  0  0  0
   22.7045  -19.6369  -14.7791 C   0  0  2  0  0  0  0  0  0  0  0  0
   23.2243  -18.4282  -15.3262 N   0  0  0  0  0  0  0  0  0  0  0  0
   23.6671  -20.3993  -13.9764 C   0  0  0  0  0  0  0  0  0  0  0  0
   23.2318  -21.4025  -13.3432 O   0  0  0  0  0  0  0  0  0  0  0  0
   31.3768  -20.4937  -11.1837 N   0  0  0  0  0  0  0  0  0  0  0  0
   31.2586  -21.9304  -11.1395 C   0  0  0  0  0  0  0  0  0  0  0  0
   31.9318  -22.6325  -10.2970 N   0  0  0  0  0  0  0  0  0  0  0  0
   30.3909  -22.6084  -12.0347 N   0  0  0  0  0  0  0  0  0  0  0  0
   29.5900  -21.9111  -13.0469 C   0  0  0  0  0  0  0  0  0  0  0  0
   28.2113  -21.6482  -12.5232 C   0  0  0  0  0  0  0  0  0  0  0  0
   27.2911  -20.9474  -13.4425 C   0  0  0  0  0  0  0  0  0  0  0  0
   25.9138  -20.7601  -12.8834 C   0  0  2  0  0  0  0  0  0  0  0  0
   25.0408  -20.1156  -13.8451 N   0  0  0  0  0  0  0  0  0  0  0  0
   25.9583  -20.1065  -11.5718 C   0  0  0  0  0  0  0  0  0  0  0  0
   26.4056  -18.9086  -11.4641 O   0  0  0  0  0  0  0  0  0  0  0  0
   31.8887  -23.6848  -10.2964 N   0  0  0  0  0  0  0  0  0  0  0  0
   25.5357  -20.6795  -10.3139 C   0  0  0  0  0  0  0  0  0  0  0  0
   25.0295  -21.9967  -10.0757 C   0  0  0  0  0  0  0  0  0  0  0  0
   25.0938  -22.1603   -8.5441 C   0  0  0  0  0  0  0  0  0  0  0  0
   24.8067  -20.7247   -8.0799 C   0  0  2  0  0  0  0  0  0  0  0  0
   25.5853  -19.9370   -9.0738 C   0  0  0  0  0  0  0  0  0  0  0  0
   26.9715  -19.6703   -8.6409 O   0  0  0  0  0  0  0  0  0  0  0  0
   27.9272  -20.2357   -9.2027 O   0  0  0  0  0  0  0  0  0  0  0  0
  2  3  1  6
  2  1  1  0
  4  2  1  0
  4  5  1  6
  6  7  2  0
  6  4  1  0
  9 10  2  0
  9  8  1  0
 11  9  1  0
 12 11  1  0
 13 12  1  0
 13 14  1  0
 15 14  1  6
 15 16  1  0
 16  6  1  0
 17 15  1  0
 18 17  2  0
 19 20  1  0
 19 17  1  0
 21 20  1  0
 22 23  1  0
 22 21  1  0
 23 19  1  0
 23 24  1  1
 25 24  2  0
 26 24  1  0
M  END
$$$$
