VRP.pdb
     RDKit          3D

 26 26  0  0  1  0  0  0  0  0999 V2000
   11.7066  -21.8489   -4.2639 C   0  0  0  0  0  0  0  0  0  0  0  0
   12.2711  -21.7603   -2.8744 C   0  0  1  0  0  0  0  0  0  0  0  0
   13.5922  -21.0282   -2.9547 C   0  0  0  0  0  0  0  0  0  0  0  0
   11.3563  -20.9519   -1.9446 C   0  0  2  0  0  0  0  0  0  0  0  0
   11.0274  -19.6823   -2.5016 N   0  0  0  0  0  0  0  0  0  0  0  0
   11.8833  -20.8929   -0.5767 C   0  0  0  0  0  0  0  0  0  0  0  0
   12.6106  -19.9046   -0.2753 O   0  0  0  0  0  0  0  0  0  0  0  0
    7.1413  -24.9861    1.1143 N   0  0  0  0  0  0  0  0  0  0  0  0
    8.2055  -25.4104    1.9904 C   0  0  0  0  0  0  0  0  0  0  0  0
    8.3446  -26.6447    2.3267 N   0  0  0  0  0  0  0  0  0  0  0  0
    9.1299  -24.4664    2.5084 N   0  0  0  0  0  0  0  0  0  0  0  0
    9.0307  -23.0273    2.2411 C   0  0  0  0  0  0  0  0  0  0  0  0
   10.0863  -22.2866    3.0036 C   0  0  0  0  0  0  0  0  0  0  0  0
   11.4835  -22.6731    2.7188 C   0  0  0  0  0  0  0  0  0  0  0  0
   12.1850  -21.7365    1.7833 C   0  0  2  0  0  0  0  0  0  0  0  0
   11.6523  -21.8416    0.4389 N   0  0  0  0  0  0  0  0  0  0  0  0
   13.6404  -21.8895    1.8723 C   0  0  0  0  0  0  0  0  0  0  0  0
   14.2352  -22.7991    1.1899 O   0  0  0  0  0  0  0  0  0  0  0  0
    9.1033  -26.9544    2.9882 N   0  0  0  0  0  0  0  0  0  0  0  0
   14.5379  -21.0956    2.6806 C   0  0  0  0  0  0  0  0  0  0  0  0
   14.2088  -19.9944    3.5333 C   0  0  0  0  0  0  0  0  0  0  0  0
   15.4704  -19.7872    4.3950 C   0  0  0  0  0  0  0  0  0  0  0  0
   16.5757  -20.1716    3.4002 C   0  0  2  0  0  0  0  0  0  0  0  0
   15.9616  -21.3461    2.7235 C   0  0  0  0  0  0  0  0  0  0  0  0
   16.2809  -22.6264    3.3861 O   0  0  0  0  0  0  0  0  0  0  0  0
   15.3972  -23.2612    3.9902 O   0  0  0  0  0  0  0  0  0  0  0  0
  2  3  1  6
  2  1  1  0
  4  2  1  0
  4  5  1  6
  6  7  2  0
  6  4  1  0
  9 10  2  0
  9  8  1  0
 11  9  1  0
 12 11  1  0
 13 12  1  0
 13 14  1  0
 15 14  1  1
 15 16  1  0
 16  6  1  0
 17 15  1  0
 18 17  2  0
 19 20  1  0
 19 17  1  0
 21 20  1  0
 22 23  1  0
 22 21  1  0
 23 19  1  0
 23 24  1  1
 25 24  2  0
 26 24  1  0
M  END
$$$$
