VRP.pdb
     RDKit          3D

 26 26  0  0  1  0  0  0  0  0999 V2000
   21.8722  -17.6840  -21.0614 C   0  0  0  0  0  0  0  0  0  0  0  0
   22.2421  -18.4501  -19.8231 C   0  0  1  0  0  0  0  0  0  0  0  0
   23.7499  -18.5599  -19.7769 C   0  0  0  0  0  0  0  0  0  0  0  0
   21.7981  -17.7147  -18.5515 C   0  0  2  0  0  0  0  0  0  0  0  0
   22.2232  -16.3547  -18.5530 N   0  0  0  0  0  0  0  0  0  0  0  0
   22.1561  -18.4578  -17.3382 C   0  0  0  0  0  0  0  0  0  0  0  0
   23.1095  -18.0089  -16.6407 O   0  0  0  0  0  0  0  0  0  0  0  0
   18.3119  -24.5717  -12.2813 N   0  0  0  0  0  0  0  0  0  0  0  0
   17.9550  -23.1893  -12.0764 C   0  0  0  0  0  0  0  0  0  0  0  0
   16.8492  -22.8602  -11.5063 N   0  0  0  0  0  0  0  0  0  0  0  0
   18.8224  -22.1515  -12.5058 N   0  0  0  0  0  0  0  0  0  0  0  0
   20.0627  -22.4073  -13.2463 C   0  0  0  0  0  0  0  0  0  0  0  0
   20.7864  -21.1207  -13.5014 C   0  0  0  0  0  0  0  0  0  0  0  0
   20.5564  -20.4981  -14.8214 C   0  0  0  0  0  0  0  0  0  0  0  0
   21.8156  -20.2513  -15.5947 C   0  0  2  0  0  0  0  0  0  0  0  0
   21.5319  -19.6328  -16.8750 N   0  0  0  0  0  0  0  0  0  0  0  0
   22.6345  -21.4646  -15.6758 C   0  0  0  0  0  0  0  0  0  0  0  0
   22.2947  -22.4194  -16.4629 O   0  0  0  0  0  0  0  0  0  0  0  0
   16.5921  -21.8524  -11.3408 N   0  0  0  0  0  0  0  0  0  0  0  0
   23.8468  -21.7315  -14.9353 C   0  0  0  0  0  0  0  0  0  0  0  0
   24.4619  -20.9138  -13.9347 C   0  0  0  0  0  0  0  0  0  0  0  0
   25.4870  -21.8447  -13.2567 C   0  0  0  0  0  0  0  0  0  0  0  0
   25.9205  -22.7215  -14.4410 C   0  0  2  0  0  0  0  0  0  0  0  0
   24.6211  -22.9368  -15.1337 C   0  0  0  0  0  0  0  0  0  0  0  0
   23.9074  -24.1400  -14.6611 O   0  0  0  0  0  0  0  0  0  0  0  0
   22.8040  -24.0367  -14.0950 O   0  0  0  0  0  0  0  0  0  0  0  0
  2  3  1  1
  2  1  1  0
  4  2  1  0
  4  5  1  1
  6  7  2  0
  6  4  1  0
  9 10  2  0
  9  8  1  0
 11  9  1  0
 12 11  1  0
 13 12  1  0
 13 14  1  0
 15 14  1  6
 15 16  1  0
 16  6  1  0
 17 15  1  0
 18 17  2  0
 19 20  1  0
 19 17  1  0
 21 20  1  0
 22 23  1  0
 22 21  1  0
 23 19  1  0
 23 24  1  1
 25 24  2  0
 26 24  1  0
M  END
$$$$
