VRP.pdb
     RDKit          3D

 26 26  0  0  1  0  0  0  0  0999 V2000
   13.4358   -5.6436   -7.7419 C   0  0  0  0  0  0  0  0  0  0  0  0
   14.5493   -6.4045   -8.4041 C   0  0  1  0  0  0  0  0  0  0  0  0
   15.3707   -7.0650   -7.3194 C   0  0  0  0  0  0  0  0  0  0  0  0
   14.0095   -7.5184   -9.3111 C   0  0  2  0  0  0  0  0  0  0  0  0
   13.0841   -8.3561   -8.6240 N   0  0  0  0  0  0  0  0  0  0  0  0
   15.0907   -8.2421   -9.9890 C   0  0  0  0  0  0  0  0  0  0  0  0
   15.1527   -9.4922   -9.8154 O   0  0  0  0  0  0  0  0  0  0  0  0
   14.4400  -13.3458  -15.4228 N   0  0  0  0  0  0  0  0  0  0  0  0
   14.1671  -12.7198  -14.1524 C   0  0  0  0  0  0  0  0  0  0  0  0
   13.0810  -12.9615  -13.5059 N   0  0  0  0  0  0  0  0  0  0  0  0
   15.0980  -11.8125  -13.5832 N   0  0  0  0  0  0  0  0  0  0  0  0
   16.1234  -11.1241  -14.3751 C   0  0  0  0  0  0  0  0  0  0  0  0
   16.8891  -10.1699  -13.5105 C   0  0  0  0  0  0  0  0  0  0  0  0
   16.0895   -9.3752  -12.5557 C   0  0  0  0  0  0  0  0  0  0  0  0
   16.9077   -8.4288  -11.7315 C   0  0  2  0  0  0  0  0  0  0  0  0
   16.0727   -7.6695  -10.8212 N   0  0  0  0  0  0  0  0  0  0  0  0
   17.7833   -7.6107  -12.5762 C   0  0  0  0  0  0  0  0  0  0  0  0
   17.2822   -6.7114  -13.3424 O   0  0  0  0  0  0  0  0  0  0  0  0
   12.8644  -12.4840  -12.5925 N   0  0  0  0  0  0  0  0  0  0  0  0
   19.2238   -7.6986  -12.6557 C   0  0  0  0  0  0  0  0  0  0  0  0
   20.0786   -8.6710  -12.0459 C   0  0  0  0  0  0  0  0  0  0  0  0
   21.4341   -8.4891  -12.7576 C   0  0  0  0  0  0  0  0  0  0  0  0
   21.4304   -6.9760  -13.0211 C   0  0  1  0  0  0  0  0  0  0  0  0
   20.0126   -6.7533  -13.4147 C   0  0  0  0  0  0  0  0  0  0  0  0
   19.7896   -6.8841  -14.8684 O   0  0  0  0  0  0  0  0  0  0  0  0
   19.2336   -7.8963  -15.3323 O   0  0  0  0  0  0  0  0  0  0  0  0
  2  3  1  1
  2  1  1  0
  4  2  1  0
  4  5  1  1
  6  7  2  0
  6  4  1  0
  9 10  2  0
  9  8  1  0
 11  9  1  0
 12 11  1  0
 13 12  1  0
 13 14  1  0
 15 14  1  6
 15 16  1  0
 16  6  1  0
 17 15  1  0
 18 17  2  0
 19 20  1  0
 19 17  1  0
 21 20  1  0
 22 23  1  0
 22 21  1  0
 23 19  1  0
 23 24  1  6
 25 24  2  0
 26 24  1  0
M  END
$$$$
