VRP.pdb
     RDKit          3D

 26 26  0  0  1  0  0  0  0  0999 V2000
   19.8083  -13.6721  -17.9282 C   0  0  0  0  0  0  0  0  0  0  0  0
   19.5641  -12.3285  -17.3019 C   0  0  1  0  0  0  0  0  0  0  0  0
   19.4876  -11.3045  -18.4124 C   0  0  0  0  0  0  0  0  0  0  0  0
   18.2257  -12.2907  -16.5522 C   0  0  2  0  0  0  0  0  0  0  0  0
   17.1467  -12.7209  -17.3774 N   0  0  0  0  0  0  0  0  0  0  0  0
   18.0047  -10.9979  -15.8947 C   0  0  0  0  0  0  0  0  0  0  0  0
   17.2444  -10.1722  -16.4749 O   0  0  0  0  0  0  0  0  0  0  0  0
   14.8289   -7.8680   -8.3871 N   0  0  0  0  0  0  0  0  0  0  0  0
   15.4752   -6.7648   -9.0545 C   0  0  0  0  0  0  0  0  0  0  0  0
   15.3425   -5.5561   -8.6330 N   0  0  0  0  0  0  0  0  0  0  0  0
   16.2773   -6.9896  -10.2034 N   0  0  0  0  0  0  0  0  0  0  0  0
   16.4590   -8.3181  -10.7986 C   0  0  0  0  0  0  0  0  0  0  0  0
   17.2621   -8.2137  -12.0590 C   0  0  0  0  0  0  0  0  0  0  0  0
   17.5165   -9.4820  -12.7727 C   0  0  0  0  0  0  0  0  0  0  0  0
   18.2959   -9.3098  -14.0405 C   0  0  2  0  0  0  0  0  0  0  0  0
   18.5649  -10.5887  -14.6685 N   0  0  0  0  0  0  0  0  0  0  0  0
   19.4842   -8.4790  -13.8238 C   0  0  0  0  0  0  0  0  0  0  0  0
   20.4512   -8.9143  -13.1010 O   0  0  0  0  0  0  0  0  0  0  0  0
   15.8364   -4.7515   -9.0997 N   0  0  0  0  0  0  0  0  0  0  0  0
   19.7125   -7.1544  -14.3552 C   0  0  0  0  0  0  0  0  0  0  0  0
   18.8817   -6.4151  -15.2559 C   0  0  0  0  0  0  0  0  0  0  0  0
   19.4237   -4.9737  -15.1810 C   0  0  0  0  0  0  0  0  0  0  0  0
   20.9214   -5.2310  -14.9582 C   0  0  2  0  0  0  0  0  0  0  0  0
   20.8811   -6.3761  -14.0086 C   0  0  0  0  0  0  0  0  0  0  0  0
   20.8675   -5.9528  -12.5941 O   0  0  0  0  0  0  0  0  0  0  0  0
   19.8350   -6.0735  -11.9099 O   0  0  0  0  0  0  0  0  0  0  0  0
  2  3  1  6
  2  1  1  0
  4  2  1  0
  4  5  1  6
  6  7  2  0
  6  4  1  0
  9 10  2  0
  9  8  1  0
 11  9  1  0
 12 11  1  0
 13 12  1  0
 13 14  1  0
 15 14  1  1
 15 16  1  0
 16  6  1  0
 17 15  1  0
 18 17  2  0
 19 20  1  0
 19 17  1  0
 21 20  1  0
 22 23  1  0
 22 21  1  0
 23 19  1  0
 23 24  1  1
 25 24  2  0
 26 24  1  0
M  END
$$$$
