VRP.pdb
     RDKit          3D

 26 26  0  0  1  0  0  0  0  0999 V2000
   12.6662  -20.2659   -1.6645 C   0  0  0  0  0  0  0  0  0  0  0  0
   13.2502  -21.6067   -2.0086 C   0  0  1  0  0  0  0  0  0  0  0  0
   12.6347  -22.6334   -1.0840 C   0  0  0  0  0  0  0  0  0  0  0  0
   12.9048  -22.0202   -3.4455 C   0  0  2  0  0  0  0  0  0  0  0  0
   11.5057  -21.9276   -3.6991 N   0  0  0  0  0  0  0  0  0  0  0  0
   13.4979  -23.3149   -3.7984 C   0  0  0  0  0  0  0  0  0  0  0  0
   12.8003  -24.3490   -3.5971 O   0  0  0  0  0  0  0  0  0  0  0  0
   17.7965  -24.9513   -9.5633 N   0  0  0  0  0  0  0  0  0  0  0  0
   18.6044  -24.3139   -8.5528 C   0  0  0  0  0  0  0  0  0  0  0  0
   19.3408  -23.2951   -8.8279 N   0  0  0  0  0  0  0  0  0  0  0  0
   18.6072  -24.8026   -7.2205 N   0  0  0  0  0  0  0  0  0  0  0  0
   18.1389  -26.1469   -6.8657 C   0  0  0  0  0  0  0  0  0  0  0  0
   17.1662  -26.0715   -5.7289 C   0  0  0  0  0  0  0  0  0  0  0  0
   16.4511  -24.7883   -5.5714 C   0  0  0  0  0  0  0  0  0  0  0  0
   15.4037  -24.8140   -4.5005 C   0  0  2  0  0  0  0  0  0  0  0  0
   14.7813  -23.5138   -4.3445 N   0  0  0  0  0  0  0  0  0  0  0  0
   15.9298  -25.3872   -3.2579 C   0  0  0  0  0  0  0  0  0  0  0  0
   16.7294  -24.7049   -2.5218 O   0  0  0  0  0  0  0  0  0  0  0  0
   19.9191  -22.8164   -8.0892 N   0  0  0  0  0  0  0  0  0  0  0  0
   15.6410  -26.7017   -2.7307 C   0  0  0  0  0  0  0  0  0  0  0  0
   14.8675  -27.7407   -3.3393 C   0  0  0  0  0  0  0  0  0  0  0  0
   15.2017  -28.9998   -2.5147 C   0  0  0  0  0  0  0  0  0  0  0  0
   15.4038  -28.3946   -1.1176 C   0  0  2  0  0  0  0  0  0  0  0  0
   16.1389  -27.1433   -1.4467 C   0  0  0  0  0  0  0  0  0  0  0  0
   17.6050  -27.3188   -1.4496 O   0  0  0  0  0  0  0  0  0  0  0  0
   18.2330  -27.3584   -2.5233 O   0  0  0  0  0  0  0  0  0  0  0  0
  2  3  1  1
  2  1  1  0
  4  2  1  0
  4  5  1  1
  6  7  2  0
  6  4  1  0
  9 10  2  0
  9  8  1  0
 11  9  1  0
 12 11  1  0
 13 12  1  0
 13 14  1  0
 15 14  1  6
 15 16  1  0
 16  6  1  0
 17 15  1  0
 18 17  2  0
 19 20  1  0
 19 17  1  0
 21 20  1  0
 22 23  1  0
 22 21  1  0
 23 19  1  0
 23 24  1  1
 25 24  2  0
 26 24  1  0
M  END
$$$$
