VRP.pdb
     RDKit          3D

 26 26  0  0  1  0  0  0  0  0999 V2000
   12.0852  -22.9486    0.0116 C   0  0  0  0  0  0  0  0  0  0  0  0
   13.1869  -22.5687    0.9598 C   0  0  1  0  0  0  0  0  0  0  0  0
   13.9797  -23.8173    1.2761 C   0  0  0  0  0  0  0  0  0  0  0  0
   14.1547  -21.5611    0.3249 C   0  0  2  0  0  0  0  0  0  0  0  0
   14.6005  -21.9941   -0.9574 N   0  0  0  0  0  0  0  0  0  0  0  0
   15.2346  -21.1874    1.2450 C   0  0  0  0  0  0  0  0  0  0  0  0
   16.4076  -21.5468    0.9425 O   0  0  0  0  0  0  0  0  0  0  0  0
   17.2502  -13.5594    4.8910 N   0  0  0  0  0  0  0  0  0  0  0  0
   18.0039  -14.0862    3.7799 C   0  0  0  0  0  0  0  0  0  0  0  0
   18.8577  -13.3616    3.1459 N   0  0  0  0  0  0  0  0  0  0  0  0
   17.8166  -15.4273    3.3553 N   0  0  0  0  0  0  0  0  0  0  0  0
   16.8596  -16.3372    3.9943 C   0  0  0  0  0  0  0  0  0  0  0  0
   16.9340  -17.6927    3.3606 C   0  0  0  0  0  0  0  0  0  0  0  0
   15.9738  -18.6969    3.8630 C   0  0  0  0  0  0  0  0  0  0  0  0
   16.1885  -20.0669    3.2961 C   0  0  2  0  0  0  0  0  0  0  0  0
   15.0846  -20.4601    2.4422 N   0  0  0  0  0  0  0  0  0  0  0  0
   16.5128  -21.0324    4.3507 C   0  0  0  0  0  0  0  0  0  0  0  0
   15.5783  -21.5381    5.0702 O   0  0  0  0  0  0  0  0  0  0  0  0
   19.3908  -13.7343    2.3175 N   0  0  0  0  0  0  0  0  0  0  0  0
   17.8314  -21.5113    4.6984 C   0  0  0  0  0  0  0  0  0  0  0  0
   19.0784  -21.1732    4.0828 C   0  0  0  0  0  0  0  0  0  0  0  0
   20.1446  -21.6788    5.0749 C   0  0  0  0  0  0  0  0  0  0  0  0
   19.4525  -22.9261    5.6443 C   0  0  1  0  0  0  0  0  0  0  0  0
   18.0516  -22.4434    5.7820 C   0  0  0  0  0  0  0  0  0  0  0  0
   17.7766  -21.8381    7.1004 O   0  0  0  0  0  0  0  0  0  0  0  0
   17.6967  -22.5512    8.1172 O   0  0  0  0  0  0  0  0  0  0  0  0
  2  3  1  6
  2  1  1  0
  4  2  1  0
  4  5  1  6
  6  7  2  0
  6  4  1  0
  9 10  2  0
  9  8  1  0
 11  9  1  0
 12 11  1  0
 13 12  1  0
 13 14  1  0
 15 14  1  1
 15 16  1  0
 16  6  1  0
 17 15  1  0
 18 17  2  0
 19 20  1  0
 19 17  1  0
 21 20  1  0
 22 23  1  0
 22 21  1  0
 23 19  1  0
 23 24  1  1
 25 24  2  0
 26 24  1  0
M  END
$$$$
