VWT.pdb
     RDKit          3D

 29 30  0  0  1  0  0  0  0  0999 V2000
    7.3770  -13.9421   17.2262 C   0  0  0  0  0  0  0  0  0  0  0  0
    7.4915  -13.7580   18.7500 C   0  0  2  0  0  0  0  0  0  0  0  0
    8.0856  -12.3942   18.9763 C   0  0  0  0  0  0  0  0  0  0  0  0
    8.4307  -14.8479   19.2341 C   0  0  2  0  0  0  0  0  0  0  0  0
    7.7256  -16.1050   18.9437 N   0  0  0  0  0  0  0  0  0  0  0  0
    8.6715  -14.7863   20.6915 C   0  0  0  0  0  0  0  0  0  0  0  0
    9.6325  -14.0973   21.1031 O   0  0  0  0  0  0  0  0  0  0  0  0
    7.8696  -15.4646   21.6658 N   0  0  0  0  0  0  0  0  0  0  0  0
    8.0767  -15.5016   23.0636 C   0  0  1  0  0  0  0  0  0  0  0  0
    6.9255  -15.5305   23.9747 C   0  0  0  0  0  0  0  0  0  0  0  0
    7.2160  -15.1437   25.3789 C   0  0  0  0  0  0  0  0  0  0  0  0
    7.5219  -15.9323   26.4635 C   0  0  0  0  0  0  0  0  0  0  0  0
    7.6976  -15.1381   27.5650 N   0  0  0  0  0  0  0  0  0  0  0  0
    7.5141  -13.8646   27.2242 C   0  0  0  0  0  0  0  0  0  0  0  0
    7.5632  -12.6721   27.9205 C   0  0  0  0  0  0  0  0  0  0  0  0
    7.3158  -11.4833   27.2677 C   0  0  0  0  0  0  0  0  0  0  0  0
    7.0148  -11.4739   25.9052 C   0  0  0  0  0  0  0  0  0  0  0  0
    6.9672  -12.6710   25.2143 C   0  0  0  0  0  0  0  0  0  0  0  0
    7.2162  -13.8346   25.8839 C   0  0  0  0  0  0  0  0  0  0  0  0
    9.0587  -16.5793   23.4619 C   0  0  0  0  0  0  0  0  0  0  0  0
    8.7485  -17.7824   23.2377 O   0  0  0  0  0  0  0  0  0  0  0  0
   13.6475  -18.0451   24.4005 C   0  0  0  0  0  0  0  0  0  0  0  0
   12.6136  -17.0072   24.0131 C   0  0  1  0  0  0  0  0  0  0  0  0
   12.6341  -16.9386   22.6012 O   0  0  0  0  0  0  0  0  0  0  0  0
   11.2222  -17.4306   24.4248 C   0  0  2  0  0  0  0  0  0  0  0  0
   10.2992  -16.3393   24.0675 N   0  0  0  0  0  0  0  0  0  0  0  0
   11.1427  -17.7245   25.8681 C   0  0  0  0  0  0  0  0  0  0  0  0
   11.6506  -18.9077   26.3753 O   0  0  0  0  0  0  0  0  0  0  0  0
   10.6086  -16.8967   26.6552 O   0  0  0  0  0  0  0  0  0  0  0  0
  2  3  1  6
  2  1  1  0
  4  5  1  1
  4  2  1  0
  6  4  1  0
  7  6  2  0
  8  6  1  0
  9  8  1  0
  9 10  1  1
 10 11  1  0
 11 19  1  0
 12 11  2  0
 12 13  1  0
 13 14  1  0
 14 15  1  0
 15 16  2  0
 17 16  1  0
 18 17  2  0
 19 14  2  0
 19 18  1  0
 20  9  1  0
 21 20  2  0
 23 22  1  6
 23 24  1  0
 23 25  1  0
 25 26  1  1
 26 20  1  0
 27 25  1  0
 27 28  1  0
 29 27  2  0
M  END
$$$$
