VWT.pdb
     RDKit          3D

 29 30  0  0  1  0  0  0  0  0999 V2000
    7.0676  -13.2983   21.3996 C   0  0  0  0  0  0  0  0  0  0  0  0
    8.1260  -13.5827   20.3189 C   0  0  2  0  0  0  0  0  0  0  0  0
    7.4255  -13.4790   18.9913 C   0  0  0  0  0  0  0  0  0  0  0  0
    8.6104  -14.9993   20.5696 C   0  0  2  0  0  0  0  0  0  0  0  0
    7.4054  -15.8331   20.4498 N   0  0  0  0  0  0  0  0  0  0  0  0
    9.1575  -15.1815   21.9309 C   0  0  0  0  0  0  0  0  0  0  0  0
   10.2094  -14.5724   22.2315 O   0  0  0  0  0  0  0  0  0  0  0  0
    8.5560  -16.0110   22.9322 N   0  0  0  0  0  0  0  0  0  0  0  0
    9.0467  -16.2694   24.2324 C   0  0  1  0  0  0  0  0  0  0  0  0
    8.1145  -16.3597   25.3632 C   0  0  0  0  0  0  0  0  0  0  0  0
    7.1580  -15.2308   25.4906 C   0  0  0  0  0  0  0  0  0  0  0  0
    5.8336  -15.1543   25.1271 C   0  0  0  0  0  0  0  0  0  0  0  0
    5.3549  -13.9058   25.4223 N   0  0  0  0  0  0  0  0  0  0  0  0
    6.3284  -13.1769   25.9632 C   0  0  0  0  0  0  0  0  0  0  0  0
    6.4024  -11.8801   26.4344 C   0  0  0  0  0  0  0  0  0  0  0  0
    7.5887  -11.4011   26.9481 C   0  0  0  0  0  0  0  0  0  0  0  0
    8.7194  -12.2175   26.9962 C   0  0  0  0  0  0  0  0  0  0  0  0
    8.6384  -13.5144   26.5229 C   0  0  0  0  0  0  0  0  0  0  0  0
    7.4519  -13.9646   26.0191 C   0  0  0  0  0  0  0  0  0  0  0  0
    9.9833  -17.4554   24.2584 C   0  0  0  0  0  0  0  0  0  0  0  0
    9.5427  -18.5729   23.8701 O   0  0  0  0  0  0  0  0  0  0  0  0
   14.2345  -17.1722   24.9492 C   0  0  0  0  0  0  0  0  0  0  0  0
   13.5153  -18.1707   24.0649 C   0  0  1  0  0  0  0  0  0  0  0  0
   14.3395  -19.3182   24.0153 O   0  0  0  0  0  0  0  0  0  0  0  0
   12.1925  -18.5899   24.6644 C   0  0  2  0  0  0  0  0  0  0  0  0
   11.3167  -17.4055   24.6861 N   0  0  0  0  0  0  0  0  0  0  0  0
   12.3556  -19.1386   26.0239 C   0  0  0  0  0  0  0  0  0  0  0  0
   13.0872  -20.2943   26.2342 O   0  0  0  0  0  0  0  0  0  0  0  0
   11.8271  -18.5569   27.0099 O   0  0  0  0  0  0  0  0  0  0  0  0
  2  3  1  6
  2  1  1  0
  4  5  1  1
  4  2  1  0
  6  4  1  0
  7  6  2  0
  8  6  1  0
  9  8  1  0
  9 10  1  1
 10 11  1  0
 11 19  1  0
 12 11  2  0
 12 13  1  0
 13 14  1  0
 14 15  1  0
 15 16  2  0
 17 16  1  0
 18 17  2  0
 19 14  2  0
 19 18  1  0
 20  9  1  0
 21 20  2  0
 23 22  1  1
 23 24  1  0
 23 25  1  0
 25 26  1  1
 26 20  1  0
 27 25  1  0
 27 28  1  0
 29 27  2  0
M  END
$$$$
