VWT.pdb
     RDKit          3D

 29 30  0  0  1  0  0  0  0  0999 V2000
    7.1197  -13.2468   21.3688 C   0  0  0  0  0  0  0  0  0  0  0  0
    8.1271  -13.5377   20.2421 C   0  0  2  0  0  0  0  0  0  0  0  0
    7.3661  -13.4413   18.9476 C   0  0  0  0  0  0  0  0  0  0  0  0
    8.6223  -14.9530   20.4783 C   0  0  2  0  0  0  0  0  0  0  0  0
    7.4058  -15.7786   20.4848 N   0  0  0  0  0  0  0  0  0  0  0  0
    9.2884  -15.1120   21.7887 C   0  0  0  0  0  0  0  0  0  0  0  0
   10.3542  -14.4864   21.9897 O   0  0  0  0  0  0  0  0  0  0  0  0
    8.7874  -15.9367   22.8476 N   0  0  0  0  0  0  0  0  0  0  0  0
    9.4200  -16.2195   24.0796 C   0  0  1  0  0  0  0  0  0  0  0  0
    8.6122  -16.4227   25.2889 C   0  0  0  0  0  0  0  0  0  0  0  0
    7.5419  -15.4181   25.5148 C   0  0  0  0  0  0  0  0  0  0  0  0
    6.1861  -15.5143   25.3043 C   0  0  0  0  0  0  0  0  0  0  0  0
    5.5906  -14.3283   25.6414 N   0  0  0  0  0  0  0  0  0  0  0  0
    6.5194  -13.4724   26.0613 C   0  0  0  0  0  0  0  0  0  0  0  0
    6.4825  -12.1660   26.5098 C   0  0  0  0  0  0  0  0  0  0  0  0
    7.6494  -11.5324   26.8806 C   0  0  0  0  0  0  0  0  0  0  0  0
    8.8718  -12.2012   26.8064 C   0  0  0  0  0  0  0  0  0  0  0  0
    8.9017  -13.5087   26.3566 C   0  0  0  0  0  0  0  0  0  0  0  0
    7.7320  -14.1136   25.9955 C   0  0  0  0  0  0  0  0  0  0  0  0
   10.4266  -17.3400   23.9548 C   0  0  0  0  0  0  0  0  0  0  0  0
   10.0185  -18.5271   24.0887 O   0  0  0  0  0  0  0  0  0  0  0  0
   14.8361  -18.9738   22.4088 C   0  0  0  0  0  0  0  0  0  0  0  0
   13.8033  -17.8793   22.5868 C   0  0  1  0  0  0  0  0  0  0  0  0
   13.1896  -17.7077   21.3248 O   0  0  0  0  0  0  0  0  0  0  0  0
   12.7239  -18.2894   23.5622 C   0  0  2  0  0  0  0  0  0  0  0  0
   11.7921  -17.1565   23.6994 N   0  0  0  0  0  0  0  0  0  0  0  0
   13.2836  -18.6616   24.8752 C   0  0  0  0  0  0  0  0  0  0  0  0
   13.7976  -19.9286   25.0885 O   0  0  0  0  0  0  0  0  0  0  0  0
   13.2979  -17.8250   25.8185 O   0  0  0  0  0  0  0  0  0  0  0  0
  2  3  1  6
  2  1  1  0
  4  5  1  1
  4  2  1  0
  6  4  1  0
  7  6  2  0
  8  6  1  0
  9  8  1  0
  9 10  1  1
 10 11  1  0
 11 19  1  0
 12 11  2  0
 12 13  1  0
 13 14  1  0
 14 15  1  0
 15 16  2  0
 17 16  1  0
 18 17  2  0
 19 14  2  0
 19 18  1  0
 20  9  1  0
 21 20  2  0
 23 22  1  6
 23 24  1  0
 23 25  1  0
 25 26  1  1
 26 20  1  0
 27 25  1  0
 27 28  1  0
 29 27  2  0
M  END
$$$$
