VWT.pdb
     RDKit          3D

 29 30  0  0  1  0  0  0  0  0999 V2000
    7.2045  -16.7029   18.4579 C   0  0  0  0  0  0  0  0  0  0  0  0
    8.2509  -16.4005   19.5454 C   0  0  2  0  0  0  0  0  0  0  0  0
    8.9890  -17.6861   19.8032 C   0  0  0  0  0  0  0  0  0  0  0  0
    7.4675  -15.9673   20.7713 C   0  0  2  0  0  0  0  0  0  0  0  0
    6.7390  -14.7641   20.3436 N   0  0  0  0  0  0  0  0  0  0  0  0
    8.3422  -15.5927   21.9030 C   0  0  0  0  0  0  0  0  0  0  0  0
    9.0289  -14.5508   21.7994 O   0  0  0  0  0  0  0  0  0  0  0  0
    8.4509  -16.3472   23.1159 N   0  0  0  0  0  0  0  0  0  0  0  0
    9.3141  -16.0896   24.2053 C   0  0  1  0  0  0  0  0  0  0  0  0
    8.7768  -16.0428   25.5711 C   0  0  0  0  0  0  0  0  0  0  0  0
    7.5165  -15.2739   25.7326 C   0  0  0  0  0  0  0  0  0  0  0  0
    6.2105  -15.6995   25.6594 C   0  0  0  0  0  0  0  0  0  0  0  0
    5.3754  -14.6333   25.8607 N   0  0  0  0  0  0  0  0  0  0  0  0
    6.1017  -13.5358   26.0603 C   0  0  0  0  0  0  0  0  0  0  0  0
    5.7871  -12.2125   26.3036 C   0  0  0  0  0  0  0  0  0  0  0  0
    6.7935  -11.2849   26.4682 C   0  0  0  0  0  0  0  0  0  0  0  0
    8.1319  -11.6721   26.3909 C   0  0  0  0  0  0  0  0  0  0  0  0
    8.4398  -12.9981   26.1472 C   0  0  0  0  0  0  0  0  0  0  0  0
    7.4246  -13.8972   25.9878 C   0  0  0  0  0  0  0  0  0  0  0  0
   10.5391  -16.9744   24.1783 C   0  0  0  0  0  0  0  0  0  0  0  0
   10.3766  -18.2225   24.2766 O   0  0  0  0  0  0  0  0  0  0  0  0
   13.5615  -16.4570   21.8393 C   0  0  0  0  0  0  0  0  0  0  0  0
   14.0928  -16.8103   23.2138 C   0  0  1  0  0  0  0  0  0  0  0  0
   14.4862  -15.5903   23.8097 O   0  0  0  0  0  0  0  0  0  0  0  0
   13.0154  -17.4128   24.0863 C   0  0  2  0  0  0  0  0  0  0  0  0
   11.8540  -16.5071   24.0512 N   0  0  0  0  0  0  0  0  0  0  0  0
   13.4782  -17.6082   25.4732 C   0  0  0  0  0  0  0  0  0  0  0  0
   14.4268  -18.5710   25.7704 O   0  0  0  0  0  0  0  0  0  0  0  0
   13.0109  -16.8970   26.4036 O   0  0  0  0  0  0  0  0  0  0  0  0
  2  3  1  1
  2  1  1  0
  4  5  1  6
  4  2  1  0
  6  4  1  0
  7  6  2  0
  8  6  1  0
  9  8  1  0
  9 10  1  1
 10 11  1  0
 11 19  1  0
 12 11  2  0
 12 13  1  0
 13 14  1  0
 14 15  1  0
 15 16  2  0
 17 16  1  0
 18 17  2  0
 19 14  2  0
 19 18  1  0
 20  9  1  0
 21 20  2  0
 23 22  1  6
 23 24  1  0
 23 25  1  0
 25 26  1  1
 26 20  1  0
 27 25  1  0
 27 28  1  0
 29 27  2  0
M  END
$$$$
