VWT.pdb
     RDKit          3D

 29 30  0  0  1  0  0  0  0  0999 V2000
   10.7955  -18.6933   17.7105 C   0  0  0  0  0  0  0  0  0  0  0  0
   10.7179  -18.2147   19.1713 C   0  0  2  0  0  0  0  0  0  0  0  0
   10.0972  -19.3356   19.9601 C   0  0  0  0  0  0  0  0  0  0  0  0
    9.8190  -16.9914   19.1639 C   0  0  2  0  0  0  0  0  0  0  0  0
   10.4917  -16.0386   18.2689 N   0  0  0  0  0  0  0  0  0  0  0  0
    9.7033  -16.3617   20.4965 C   0  0  0  0  0  0  0  0  0  0  0  0
   10.7544  -15.9970   21.0711 O   0  0  0  0  0  0  0  0  0  0  0  0
    8.4600  -16.1383   21.1723 N   0  0  0  0  0  0  0  0  0  0  0  0
    8.2803  -15.7413   22.5170 C   0  0  1  0  0  0  0  0  0  0  0  0
    6.9530  -15.3251   22.9873 C   0  0  0  0  0  0  0  0  0  0  0  0
    6.8666  -14.9888   24.4313 C   0  0  0  0  0  0  0  0  0  0  0  0
    6.5075  -15.7784   25.4987 C   0  0  0  0  0  0  0  0  0  0  0  0
    6.5581  -15.0358   26.6480 N   0  0  0  0  0  0  0  0  0  0  0  0
    6.9374  -13.7942   26.3543 C   0  0  0  0  0  0  0  0  0  0  0  0
    7.1460  -12.6550   27.1079 C   0  0  0  0  0  0  0  0  0  0  0  0
    7.5455  -11.4871   26.4937 C   0  0  0  0  0  0  0  0  0  0  0  0
    7.7413  -11.4454   25.1128 C   0  0  0  0  0  0  0  0  0  0  0  0
    7.5307  -12.5892   24.3645 C   0  0  0  0  0  0  0  0  0  0  0  0
    7.1354  -13.7330   24.9967 C   0  0  0  0  0  0  0  0  0  0  0  0
    8.8640  -16.7437   23.4859 C   0  0  0  0  0  0  0  0  0  0  0  0
    8.5180  -17.9528   23.3750 O   0  0  0  0  0  0  0  0  0  0  0  0
   12.5551  -18.5839   25.8463 C   0  0  0  0  0  0  0  0  0  0  0  0
   11.7984  -17.6609   24.9127 C   0  0  1  0  0  0  0  0  0  0  0  0
   11.7524  -18.3175   23.6615 O   0  0  0  0  0  0  0  0  0  0  0  0
   10.3718  -17.4585   25.3696 C   0  0  2  0  0  0  0  0  0  0  0  0
    9.7689  -16.4270   24.5077 N   0  0  0  0  0  0  0  0  0  0  0  0
   10.3016  -17.0553   26.7867 C   0  0  0  0  0  0  0  0  0  0  0  0
   10.5022  -17.9829   27.7939 O   0  0  0  0  0  0  0  0  0  0  0  0
   10.0567  -15.8571   27.0936 O   0  0  0  0  0  0  0  0  0  0  0  0
  2  3  1  1
  2  1  1  0
  4  5  1  6
  4  2  1  0
  6  4  1  0
  7  6  2  0
  8  6  1  0
  9  8  1  0
  9 10  1  1
 10 11  1  0
 11 19  1  0
 12 11  2  0
 12 13  1  0
 13 14  1  0
 14 15  1  0
 15 16  2  0
 17 16  1  0
 18 17  2  0
 19 14  2  0
 19 18  1  0
 20  9  1  0
 21 20  2  0
 23 22  1  1
 23 24  1  0
 23 25  1  0
 25 26  1  6
 26 20  1  0
 27 25  1  0
 27 28  1  0
 29 27  2  0
M  END
$$$$
