VWT.pdb
     RDKit          3D

 29 30  0  0  1  0  0  0  0  0999 V2000
    6.7991  -13.4909   21.2939 C   0  0  0  0  0  0  0  0  0  0  0  0
    8.0395  -13.5102   20.3829 C   0  0  2  0  0  0  0  0  0  0  0  0
    7.5376  -13.4058   18.9683 C   0  0  0  0  0  0  0  0  0  0  0  0
    8.7150  -14.8482   20.6234 C   0  0  2  0  0  0  0  0  0  0  0  0
    7.6868  -15.8490   20.3027 N   0  0  0  0  0  0  0  0  0  0  0  0
    9.1132  -15.0396   22.0344 C   0  0  0  0  0  0  0  0  0  0  0  0
    9.9975  -14.2890   22.5059 O   0  0  0  0  0  0  0  0  0  0  0  0
    8.5464  -16.0307   22.8998 N   0  0  0  0  0  0  0  0  0  0  0  0
    8.9747  -16.3689   24.2037 C   0  0  1  0  0  0  0  0  0  0  0  0
    7.9963  -16.4673   25.2942 C   0  0  0  0  0  0  0  0  0  0  0  0
    7.0948  -15.2970   25.4472 C   0  0  0  0  0  0  0  0  0  0  0  0
    5.8151  -15.1050   24.9807 C   0  0  0  0  0  0  0  0  0  0  0  0
    5.3799  -13.8612   25.3525 N   0  0  0  0  0  0  0  0  0  0  0  0
    6.3382  -13.2467   26.0424 C   0  0  0  0  0  0  0  0  0  0  0  0
    6.4392  -12.0054   26.6408 C   0  0  0  0  0  0  0  0  0  0  0  0
    7.5980  -11.6503   27.2979 C   0  0  0  0  0  0  0  0  0  0  0  0
    8.6736  -12.5368   27.3638 C   0  0  0  0  0  0  0  0  0  0  0  0
    8.5659  -13.7776   26.7628 C   0  0  0  0  0  0  0  0  0  0  0  0
    7.4075  -14.1051   26.1183 C   0  0  0  0  0  0  0  0  0  0  0  0
    9.8568  -17.5961   24.2092 C   0  0  0  0  0  0  0  0  0  0  0  0
    9.7960  -18.3797   23.2212 O   0  0  0  0  0  0  0  0  0  0  0  0
   11.7471  -18.6047   22.7427 C   0  0  0  0  0  0  0  0  0  0  0  0
   12.5131  -18.9909   23.9918 C   0  0  1  0  0  0  0  0  0  0  0  0
   13.3922  -17.9173   24.2626 O   0  0  0  0  0  0  0  0  0  0  0  0
   11.5941  -19.1341   25.1833 C   0  0  2  0  0  0  0  0  0  0  0  0
   10.7451  -17.9315   25.2396 N   0  0  0  0  0  0  0  0  0  0  0  0
   12.3477  -19.2956   26.4411 C   0  0  0  0  0  0  0  0  0  0  0  0
   13.0384  -20.4657   26.7034 O   0  0  0  0  0  0  0  0  0  0  0  0
   12.3684  -18.3650   27.2917 O   0  0  0  0  0  0  0  0  0  0  0  0
  2  3  1  6
  2  1  1  0
  4  5  1  1
  4  2  1  0
  6  4  1  0
  7  6  2  0
  8  6  1  0
  9  8  1  0
  9 10  1  1
 10 11  1  0
 11 19  1  0
 12 11  2  0
 12 13  1  0
 13 14  1  0
 14 15  1  0
 15 16  2  0
 17 16  1  0
 18 17  2  0
 19 14  2  0
 19 18  1  0
 20  9  1  0
 21 20  2  0
 23 22  1  6
 23 24  1  0
 23 25  1  0
 25 26  1  1
 26 20  1  0
 27 25  1  0
 27 28  1  0
 29 27  2  0
M  END
$$$$
