VWT.pdb
     RDKit          3D

 29 30  0  0  1  0  0  0  0  0999 V2000
    8.2277  -14.9274   16.1352 C   0  0  0  0  0  0  0  0  0  0  0  0
    8.7558  -15.0216   17.5778 C   0  0  2  0  0  0  0  0  0  0  0  0
    8.6189  -16.4611   17.9942 C   0  0  0  0  0  0  0  0  0  0  0  0
    7.8577  -14.1260   18.4118 C   0  0  2  0  0  0  0  0  0  0  0  0
    8.1339  -12.7653   17.9284 N   0  0  0  0  0  0  0  0  0  0  0  0
    8.1858  -14.1734   19.8526 C   0  0  0  0  0  0  0  0  0  0  0  0
    9.2465  -13.6292   20.2354 O   0  0  0  0  0  0  0  0  0  0  0  0
    7.3620  -14.8016   20.8421 N   0  0  0  0  0  0  0  0  0  0  0  0
    7.6198  -14.8996   22.2284 C   0  0  1  0  0  0  0  0  0  0  0  0
    6.5089  -14.8390   23.1867 C   0  0  0  0  0  0  0  0  0  0  0  0
    6.9030  -14.8493   24.6186 C   0  0  0  0  0  0  0  0  0  0  0  0
    7.1594  -15.9123   25.4531 C   0  0  0  0  0  0  0  0  0  0  0  0
    7.4749  -15.4427   26.7000 N   0  0  0  0  0  0  0  0  0  0  0  0
    7.4291  -14.1124   26.6947 C   0  0  0  0  0  0  0  0  0  0  0  0
    7.6490  -13.1446   27.6561 C   0  0  0  0  0  0  0  0  0  0  0  0
    7.5165  -11.8109   27.3330 C   0  0  0  0  0  0  0  0  0  0  0  0
    7.1608  -11.4287   26.0390 C   0  0  0  0  0  0  0  0  0  0  0  0
    6.9422  -12.4024   25.0815 C   0  0  0  0  0  0  0  0  0  0  0  0
    7.0799  -13.7162   25.4270 C   0  0  0  0  0  0  0  0  0  0  0  0
    8.5023  -16.0816   22.5578 C   0  0  0  0  0  0  0  0  0  0  0  0
    8.0304  -17.2418   22.3996 O   0  0  0  0  0  0  0  0  0  0  0  0
   11.5925  -16.8604   20.9472 C   0  0  0  0  0  0  0  0  0  0  0  0
   11.9159  -16.9993   22.4211 C   0  0  1  0  0  0  0  0  0  0  0  0
   12.5166  -15.7799   22.8093 O   0  0  0  0  0  0  0  0  0  0  0  0
   10.6632  -17.1699   23.2497 C   0  0  2  0  0  0  0  0  0  0  0  0
    9.8178  -15.9836   23.0305 N   0  0  0  0  0  0  0  0  0  0  0  0
   10.9712  -17.3288   24.6835 C   0  0  0  0  0  0  0  0  0  0  0  0
   10.5520  -16.3835   25.6031 O   0  0  0  0  0  0  0  0  0  0  0  0
   11.6223  -18.3313   25.0848 O   0  0  0  0  0  0  0  0  0  0  0  0
  2  3  1  1
  2  1  1  0
  4  5  1  6
  4  2  1  0
  6  4  1  0
  7  6  2  0
  8  6  1  0
  9  8  1  0
  9 10  1  1
 10 11  1  0
 11 19  1  0
 12 11  2  0
 12 13  1  0
 13 14  1  0
 14 15  1  0
 15 16  2  0
 17 16  1  0
 18 17  2  0
 19 14  2  0
 19 18  1  0
 20  9  1  0
 21 20  2  0
 23 22  1  6
 23 24  1  0
 23 25  1  0
 25 26  1  1
 26 20  1  0
 27 25  1  0
 27 28  1  0
 29 27  2  0
M  END
$$$$
