PGS.pdb
     RDKit          3D

 18 18  0  0  1  0  0  0  0  0999 V2000
   18.1368  -12.1583  -15.7572 N   0  0  0  0  0  0  0  0  0  0  0  0
   17.2922  -13.2163  -16.2162 C   0  0  0  0  0  0  0  0  0  0  0  0
   18.1850  -14.2055  -16.9647 C   0  0  0  0  0  0  0  0  0  0  0  0
   19.3168  -13.2651  -17.4001 C   0  0  0  0  0  0  0  0  0  0  0  0
   19.4888  -12.4535  -16.1151 C   0  0  1  0  0  0  0  0  0  0  0  0
   20.2580  -11.2270  -16.3341 C   0  0  0  0  0  0  0  0  0  0  0  0
   21.4773  -11.3142  -16.6279 O   0  0  0  0  0  0  0  0  0  0  0  0
   19.6634   -9.9311  -16.2237 N   0  0  0  0  0  0  0  0  0  0  0  0
   20.4671   -8.7894  -16.5305 C   0  0  0  0  0  0  0  0  0  0  0  0
   20.3354   -7.7330  -15.4639 C   0  0  0  0  0  0  0  0  0  0  0  0
   19.3025   -7.6488  -14.7500 O   0  0  0  0  0  0  0  0  0  0  0  0
   22.6906   -3.9759  -13.3995 O   0  0  0  0  0  0  0  0  0  0  0  0
   22.6391   -4.9910  -14.3384 C   0  0  0  0  0  0  0  0  0  0  0  0
   21.3122   -5.7520  -14.2540 C   0  0  2  0  0  0  0  0  0  0  0  0
   21.3661   -6.7972  -15.2250 N   0  0  0  0  0  0  0  0  0  0  0  0
   20.2303   -4.7705  -14.5190 C   0  0  0  0  0  0  0  0  0  0  0  0
   19.4950   -4.2017  -13.4916 O   0  0  0  0  0  0  0  0  0  0  0  0
   19.9403   -4.4180  -15.6921 O   0  0  0  0  0  0  0  0  0  0  0  0
  1  5  1  0
  1  2  1  0
  2  3  1  0
  4  3  1  0
  5  4  1  0
  6  8  1  0
  5  6  1  6
  7  6  2  0
  9  8  1  0
 10  9  1  0
 11 10  2  0
 12 13  1  0
 14 13  1  6
 14 16  1  0
 14 15  1  0
 15 10  1  0
 16 17  1  0
 18 16  2  0
M  END
$$$$
