PGS.pdb
     RDKit          3D

 18 18  0  0  1  0  0  0  0  0999 V2000
   18.3866  -11.9632  -16.3345 N   0  0  0  0  0  0  0  0  0  0  0  0
   17.2467  -11.6990  -17.1555 C   0  0  0  0  0  0  0  0  0  0  0  0
   17.7264  -11.7292  -18.6062 C   0  0  0  0  0  0  0  0  0  0  0  0
   19.2029  -11.3623  -18.4055 C   0  0  0  0  0  0  0  0  0  0  0  0
   19.5166  -12.2128  -17.1736 C   0  0  1  0  0  0  0  0  0  0  0  0
   20.7614  -11.8028  -16.5206 C   0  0  0  0  0  0  0  0  0  0  0  0
   21.8528  -11.9799  -17.1189 O   0  0  0  0  0  0  0  0  0  0  0  0
   20.7732  -11.2062  -15.2210 N   0  0  0  0  0  0  0  0  0  0  0  0
   22.0226  -10.7502  -14.6970 C   0  0  0  0  0  0  0  0  0  0  0  0
   22.1191   -9.2476  -14.7596 C   0  0  0  0  0  0  0  0  0  0  0  0
   23.1011   -8.6336  -14.2672 O   0  0  0  0  0  0  0  0  0  0  0  0
   22.0210   -6.8973  -17.6225 O   0  0  0  0  0  0  0  0  0  0  0  0
   20.8872   -6.6360  -16.8736 C   0  0  0  0  0  0  0  0  0  0  0  0
   21.0876   -7.0443  -15.4107 C   0  0  2  0  0  0  0  0  0  0  0  0
   21.1113   -8.4713  -15.3734 N   0  0  0  0  0  0  0  0  0  0  0  0
   19.9604   -6.4635  -14.6386 C   0  0  0  0  0  0  0  0  0  0  0  0
   19.8530   -5.0993  -14.4208 O   0  0  0  0  0  0  0  0  0  0  0  0
   19.0571   -7.1925  -14.1517 O   0  0  0  0  0  0  0  0  0  0  0  0
  1  5  1  0
  1  2  1  0
  2  3  1  0
  4  3  1  0
  5  4  1  0
  6  8  1  0
  5  6  1  1
  7  6  2  0
  9  8  1  0
 10  9  1  0
 11 10  2  0
 12 13  1  0
 14 13  1  6
 14 16  1  0
 14 15  1  0
 15 10  1  0
 16 17  1  0
 18 16  2  0
M  END
$$$$
