PGS.pdb
     RDKit          3D

 18 18  0  0  1  0  0  0  0  0999 V2000
   17.4240  -11.4809  -15.4573 N   0  0  0  0  0  0  0  0  0  0  0  0
   16.2242  -12.1545  -15.8446 C   0  0  0  0  0  0  0  0  0  0  0  0
   16.6046  -13.1426  -16.9467 C   0  0  0  0  0  0  0  0  0  0  0  0
   17.8552  -12.4500  -17.5046 C   0  0  0  0  0  0  0  0  0  0  0  0
   18.5213  -12.0233  -16.1956 C   0  0  1  0  0  0  0  0  0  0  0  0
   19.5647  -11.0181  -16.4077 C   0  0  0  0  0  0  0  0  0  0  0  0
   20.5872  -11.3286  -17.0700 O   0  0  0  0  0  0  0  0  0  0  0  0
   19.4556   -9.6920  -15.8836 N   0  0  0  0  0  0  0  0  0  0  0  0
   20.4533   -8.7357  -16.2490 C   0  0  0  0  0  0  0  0  0  0  0  0
   20.2184   -7.4179  -15.5568 C   0  0  0  0  0  0  0  0  0  0  0  0
   19.1071   -6.8314  -15.6252 O   0  0  0  0  0  0  0  0  0  0  0  0
   22.2690   -4.1485  -12.5708 O   0  0  0  0  0  0  0  0  0  0  0  0
   22.3378   -5.3393  -13.2722 C   0  0  0  0  0  0  0  0  0  0  0  0
   21.1310   -5.5012  -14.2019 C   0  0  2  0  0  0  0  0  0  0  0  0
   21.2367   -6.7908  -14.8051 N   0  0  0  0  0  0  0  0  0  0  0  0
   21.1904   -4.3936  -15.1887 C   0  0  0  0  0  0  0  0  0  0  0  0
   20.4242   -3.2481  -15.0452 O   0  0  0  0  0  0  0  0  0  0  0  0
   21.9425   -4.4552  -16.1962 O   0  0  0  0  0  0  0  0  0  0  0  0
  1  5  1  0
  1  2  1  0
  2  3  1  0
  4  3  1  0
  5  4  1  0
  6  8  1  0
  5  6  1  6
  7  6  2  0
  9  8  1  0
 10  9  1  0
 11 10  2  0
 12 13  1  0
 14 13  1  1
 14 16  1  0
 14 15  1  0
 15 10  1  0
 16 17  1  0
 18 16  2  0
M  END
$$$$
