PGS.pdb
     RDKit          3D

 18 18  0  0  1  0  0  0  0  0999 V2000
   19.8196  -10.8259  -16.9448 N   0  0  0  0  0  0  0  0  0  0  0  0
   18.9797  -11.1991  -18.0395 C   0  0  0  0  0  0  0  0  0  0  0  0
   19.8692  -11.2653  -19.2805 C   0  0  0  0  0  0  0  0  0  0  0  0
   20.9785  -10.2898  -18.8647 C   0  0  0  0  0  0  0  0  0  0  0  0
   21.1674  -10.7171  -17.4083 C   0  0  1  0  0  0  0  0  0  0  0  0
   21.9151   -9.7252  -16.6332 C   0  0  0  0  0  0  0  0  0  0  0  0
   23.1100   -9.4835  -16.9400 O   0  0  0  0  0  0  0  0  0  0  0  0
   21.3263   -9.0219  -15.5359 N   0  0  0  0  0  0  0  0  0  0  0  0
   22.0996   -8.0092  -14.8880 C   0  0  0  0  0  0  0  0  0  0  0  0
   21.7616   -6.6431  -15.4267 C   0  0  0  0  0  0  0  0  0  0  0  0
   22.1944   -6.2539  -16.5426 O   0  0  0  0  0  0  0  0  0  0  0  0
   18.3803   -5.2053  -14.4959 O   0  0  0  0  0  0  0  0  0  0  0  0
   19.2296   -4.1131  -14.4747 C   0  0  0  0  0  0  0  0  0  0  0  0
   20.5683   -4.4436  -15.1421 C   0  0  2  0  0  0  0  0  0  0  0  0
   20.9463   -5.7474  -14.6999 N   0  0  0  0  0  0  0  0  0  0  0  0
   21.5310   -3.3909  -14.7310 C   0  0  0  0  0  0  0  0  0  0  0  0
   21.4562   -2.1004  -15.2297 O   0  0  0  0  0  0  0  0  0  0  0  0
   22.4544   -3.6337  -13.9107 O   0  0  0  0  0  0  0  0  0  0  0  0
  1  5  1  0
  1  2  1  0
  2  3  1  0
  4  3  1  0
  5  4  1  0
  6  8  1  0
  5  6  1  1
  7  6  2  0
  9  8  1  0
 10  9  1  0
 11 10  2  0
 12 13  1  0
 14 13  1  1
 14 16  1  0
 14 15  1  0
 15 10  1  0
 16 17  1  0
 18 16  2  0
M  END
$$$$
