PGS.pdb
     RDKit          3D

 18 18  0  0  1  0  0  0  0  0999 V2000
   27.3174  -20.7241  -15.4972 N   0  0  0  0  0  0  0  0  0  0  0  0
   28.6174  -21.0794  -15.9737 C   0  0  0  0  0  0  0  0  0  0  0  0
   28.4714  -22.4069  -16.7168 C   0  0  0  0  0  0  0  0  0  0  0  0
   27.2281  -22.9692  -16.0148 C   0  0  0  0  0  0  0  0  0  0  0  0
   26.3749  -21.7018  -15.9433 C   0  0  1  0  0  0  0  0  0  0  0  0
   25.2639  -21.8352  -14.9989 C   0  0  0  0  0  0  0  0  0  0  0  0
   24.2930  -22.5758  -15.2977 O   0  0  0  0  0  0  0  0  0  0  0  0
   25.2499  -21.1476  -13.7450 N   0  0  0  0  0  0  0  0  0  0  0  0
   24.0925  -21.2757  -12.9159 C   0  0  0  0  0  0  0  0  0  0  0  0
   22.9392  -20.4800  -13.4706 C   0  0  0  0  0  0  0  0  0  0  0  0
   22.9818  -19.2240  -13.5361 O   0  0  0  0  0  0  0  0  0  0  0  0
   20.5844  -21.9751  -16.3442 O   0  0  0  0  0  0  0  0  0  0  0  0
   19.8402  -21.4761  -15.2898 C   0  0  0  0  0  0  0  0  0  0  0  0
   20.6389  -20.4381  -14.4950 C   0  0  2  0  0  0  0  0  0  0  0  0
   21.7666  -21.1137  -13.9382 N   0  0  0  0  0  0  0  0  0  0  0  0
   19.7269  -19.8853  -13.4621 C   0  0  0  0  0  0  0  0  0  0  0  0
   18.9328  -18.7771  -13.7091 O   0  0  0  0  0  0  0  0  0  0  0  0
   19.6417  -20.4058  -12.3191 O   0  0  0  0  0  0  0  0  0  0  0  0
  1  5  1  0
  1  2  1  0
  2  3  1  0
  4  3  1  0
  5  4  1  0
  6  8  1  0
  5  6  1  1
  7  6  2  0
  9  8  1  0
 10  9  1  0
 11 10  2  0
 12 13  1  0
 14 13  1  1
 14 16  1  0
 14 15  1  0
 15 10  1  0
 16 17  1  0
 18 16  2  0
M  END
$$$$
