PGS.pdb
     RDKit          3D

 18 18  0  0  1  0  0  0  0  0999 V2000
   23.9328  -12.6051  -15.2240 N   0  0  0  0  0  0  0  0  0  0  0  0
   24.2815  -13.9901  -15.1659 C   0  0  0  0  0  0  0  0  0  0  0  0
   23.3515  -14.7239  -16.1314 C   0  0  0  0  0  0  0  0  0  0  0  0
   22.1570  -13.7605  -16.1337 C   0  0  0  0  0  0  0  0  0  0  0  0
   22.9005  -12.4254  -16.1962 C   0  0  1  0  0  0  0  0  0  0  0  0
   22.0375  -11.2947  -15.8487 C   0  0  0  0  0  0  0  0  0  0  0  0
   21.3039  -10.7900  -16.7363 O   0  0  0  0  0  0  0  0  0  0  0  0
   22.0037  -10.7463  -14.5284 N   0  0  0  0  0  0  0  0  0  0  0  0
   21.1105   -9.6608  -14.2691 C   0  0  0  0  0  0  0  0  0  0  0  0
   21.8660   -8.3683  -14.0966 C   0  0  0  0  0  0  0  0  0  0  0  0
   22.8968   -8.3035  -13.3775 O   0  0  0  0  0  0  0  0  0  0  0  0
   20.2079   -5.0008  -15.7599 O   0  0  0  0  0  0  0  0  0  0  0  0
   21.5881   -5.0707  -15.8295 C   0  0  0  0  0  0  0  0  0  0  0  0
   22.1528   -5.9406  -14.7020 C   0  0  2  0  0  0  0  0  0  0  0  0
   21.4459   -7.1805  -14.7352 N   0  0  0  0  0  0  0  0  0  0  0  0
   21.9528   -5.1937  -13.4346 C   0  0  0  0  0  0  0  0  0  0  0  0
   22.6601   -4.0363  -13.1516 O   0  0  0  0  0  0  0  0  0  0  0  0
   21.1297   -5.5866  -12.5671 O   0  0  0  0  0  0  0  0  0  0  0  0
  1  5  1  0
  1  2  1  0
  2  3  1  0
  4  3  1  0
  5  4  1  0
  6  8  1  0
  5  6  1  1
  7  6  2  0
  9  8  1  0
 10  9  1  0
 11 10  2  0
 12 13  1  0
 14 13  1  6
 14 16  1  0
 14 15  1  0
 15 10  1  0
 16 17  1  0
 18 16  2  0
M  END
$$$$
