PGS.pdb
     RDKit          3D

 18 18  0  0  1  0  0  0  0  0999 V2000
   25.6063  -21.0176  -17.4138 N   0  0  0  0  0  0  0  0  0  0  0  0
   24.5236  -20.9133  -18.3412 C   0  0  0  0  0  0  0  0  0  0  0  0
   24.4890  -19.4636  -18.8236 C   0  0  0  0  0  0  0  0  0  0  0  0
   25.1448  -18.7683  -17.6231 C   0  0  0  0  0  0  0  0  0  0  0  0
   26.2759  -19.7571  -17.3364 C   0  0  1  0  0  0  0  0  0  0  0  0
   26.8674  -19.5526  -16.0128 C   0  0  0  0  0  0  0  0  0  0  0  0
   27.2397  -18.3984  -15.6811 O   0  0  0  0  0  0  0  0  0  0  0  0
   27.0348  -20.6274  -15.0844 N   0  0  0  0  0  0  0  0  0  0  0  0
   27.2257  -20.3064  -13.7046 C   0  0  0  0  0  0  0  0  0  0  0  0
   26.1666  -20.9508  -12.8479 C   0  0  0  0  0  0  0  0  0  0  0  0
   25.2662  -21.6715  -13.3516 O   0  0  0  0  0  0  0  0  0  0  0  0
   25.9359  -19.6492   -8.9901 O   0  0  0  0  0  0  0  0  0  0  0  0
   25.5868  -20.9796   -9.1418 C   0  0  0  0  0  0  0  0  0  0  0  0
   25.1295  -21.2686  -10.5751 C   0  0  2  0  0  0  0  0  0  0  0  0
   26.1441  -20.7705  -11.4472 N   0  0  0  0  0  0  0  0  0  0  0  0
   23.8223  -20.5895  -10.7599 C   0  0  0  0  0  0  0  0  0  0  0  0
   22.6474  -21.1201  -10.2522 O   0  0  0  0  0  0  0  0  0  0  0  0
   23.7335  -19.5019  -11.3875 O   0  0  0  0  0  0  0  0  0  0  0  0
  1  5  1  0
  1  2  1  0
  2  3  1  0
  4  3  1  0
  5  4  1  0
  6  8  1  0
  5  6  1  1
  7  6  2  0
  9  8  1  0
 10  9  1  0
 11 10  2  0
 12 13  1  0
 14 13  1  1
 14 16  1  0
 14 15  1  0
 15 10  1  0
 16 17  1  0
 18 16  2  0
M  END
$$$$
