PGS.pdb
     RDKit          3D

 18 18  0  0  1  0  0  0  0  0999 V2000
   24.8184  -21.4498  -16.5339 N   0  0  0  0  0  0  0  0  0  0  0  0
   23.6354  -21.7535  -17.2766 C   0  0  0  0  0  0  0  0  0  0  0  0
   23.0244  -20.4199  -17.7053 C   0  0  0  0  0  0  0  0  0  0  0  0
   23.5781  -19.5073  -16.6027 C   0  0  0  0  0  0  0  0  0  0  0  0
   25.0121  -20.0336  -16.5259 C   0  0  1  0  0  0  0  0  0  0  0  0
   25.6960  -19.6000  -15.3060 C   0  0  0  0  0  0  0  0  0  0  0  0
   25.7130  -18.3767  -15.0164 O   0  0  0  0  0  0  0  0  0  0  0  0
   26.3461  -20.5273  -14.4327 N   0  0  0  0  0  0  0  0  0  0  0  0
   26.7646  -20.0658  -13.1461 C   0  0  0  0  0  0  0  0  0  0  0  0
   26.1153  -20.8664  -12.0469 C   0  0  0  0  0  0  0  0  0  0  0  0
   25.4577  -21.9097  -12.2977 O   0  0  0  0  0  0  0  0  0  0  0  0
   26.4207  -19.2862   -8.3175 O   0  0  0  0  0  0  0  0  0  0  0  0
   26.2867  -20.6634   -8.3207 C   0  0  0  0  0  0  0  0  0  0  0  0
   25.5939  -21.1461   -9.5989 C   0  0  2  0  0  0  0  0  0  0  0  0
   26.2200  -20.4763  -10.6933 N   0  0  0  0  0  0  0  0  0  0  0  0
   24.1531  -20.8143   -9.4646 C   0  0  0  0  0  0  0  0  0  0  0  0
   23.3347  -21.4739   -8.5618 O   0  0  0  0  0  0  0  0  0  0  0  0
   23.6202  -19.9177  -10.1692 O   0  0  0  0  0  0  0  0  0  0  0  0
  1  5  1  0
  1  2  1  0
  2  3  1  0
  4  3  1  0
  5  4  1  0
  6  8  1  0
  5  6  1  1
  7  6  2  0
  9  8  1  0
 10  9  1  0
 11 10  2  0
 12 13  1  0
 14 13  1  1
 14 16  1  0
 14 15  1  0
 15 10  1  0
 16 17  1  0
 18 16  2  0
M  END
$$$$
