PGS.pdb
     RDKit          3D

 18 18  0  0  1  0  0  0  0  0999 V2000
   25.5410  -10.1005  -17.4028 N   0  0  0  0  0  0  0  0  0  0  0  0
   26.9600   -9.9284  -17.4096 C   0  0  0  0  0  0  0  0  0  0  0  0
   27.4964  -10.6059  -16.1490 C   0  0  0  0  0  0  0  0  0  0  0  0
   26.2558  -10.5156  -15.2504 C   0  0  0  0  0  0  0  0  0  0  0  0
   25.1726  -10.8839  -16.2654 C   0  0  1  0  0  0  0  0  0  0  0  0
   23.8310  -10.5345  -15.7943 C   0  0  0  0  0  0  0  0  0  0  0  0
   23.4258  -11.0028  -14.7002 O   0  0  0  0  0  0  0  0  0  0  0  0
   22.9663   -9.6753  -16.5422 N   0  0  0  0  0  0  0  0  0  0  0  0
   21.6994   -9.3315  -15.9765 C   0  0  0  0  0  0  0  0  0  0  0  0
   21.7193   -7.9329  -15.4157 C   0  0  0  0  0  0  0  0  0  0  0  0
   20.7571   -7.4850  -14.7394 O   0  0  0  0  0  0  0  0  0  0  0  0
   24.4577   -3.8887  -15.1619 O   0  0  0  0  0  0  0  0  0  0  0  0
   24.2226   -5.1495  -15.6814 C   0  0  0  0  0  0  0  0  0  0  0  0
   22.9165   -5.7350  -15.1355 C   0  0  2  0  0  0  0  0  0  0  0  0
   22.8185   -7.0715  -15.6278 N   0  0  0  0  0  0  0  0  0  0  0  0
   21.8153   -4.8604  -15.6113 C   0  0  0  0  0  0  0  0  0  0  0  0
   21.2185   -3.9242  -14.7823 O   0  0  0  0  0  0  0  0  0  0  0  0
   21.3819   -4.9379  -16.7906 O   0  0  0  0  0  0  0  0  0  0  0  0
  1  5  1  0
  1  2  1  0
  2  3  1  0
  4  3  1  0
  5  4  1  0
  6  8  1  0
  5  6  1  1
  7  6  2  0
  9  8  1  0
 10  9  1  0
 11 10  2  0
 12 13  1  0
 14 13  1  6
 14 16  1  0
 14 15  1  0
 15 10  1  0
 16 17  1  0
 18 16  2  0
M  END
$$$$
