PGS.pdb
     RDKit          3D

 18 18  0  0  1  0  0  0  0  0999 V2000
   17.8526  -10.5640  -15.1579 N   0  0  0  0  0  0  0  0  0  0  0  0
   17.6575  -11.0328  -16.4940 C   0  0  0  0  0  0  0  0  0  0  0  0
   18.9647  -10.7881  -17.2469 C   0  0  0  0  0  0  0  0  0  0  0  0
   19.5271   -9.6175  -16.4293 C   0  0  0  0  0  0  0  0  0  0  0  0
   19.1993  -10.1058  -15.0175 C   0  0  1  0  0  0  0  0  0  0  0  0
   19.2925   -9.0329  -14.0254 C   0  0  0  0  0  0  0  0  0  0  0  0
   20.4029   -8.4776  -13.8277 O   0  0  0  0  0  0  0  0  0  0  0  0
   18.1569   -8.5970  -13.2734 N   0  0  0  0  0  0  0  0  0  0  0  0
   18.3191   -7.4907  -12.3828 C   0  0  0  0  0  0  0  0  0  0  0  0
   17.0140   -7.1356  -11.7182 C   0  0  0  0  0  0  0  0  0  0  0  0
   15.9217   -7.6096  -12.1255 O   0  0  0  0  0  0  0  0  0  0  0  0
   16.4896   -7.1641   -8.1569 O   0  0  0  0  0  0  0  0  0  0  0  0
   15.3893   -6.8090   -8.9173 C   0  0  0  0  0  0  0  0  0  0  0  0
   15.7703   -5.7869   -9.9929 C   0  0  2  0  0  0  0  0  0  0  0  0
   16.9671   -6.2574  -10.6129 N   0  0  0  0  0  0  0  0  0  0  0  0
   15.9470   -4.4811   -9.3090 C   0  0  0  0  0  0  0  0  0  0  0  0
   14.8888   -3.8318   -8.6939 O   0  0  0  0  0  0  0  0  0  0  0  0
   17.0698   -3.9139   -9.2629 O   0  0  0  0  0  0  0  0  0  0  0  0
  1  5  1  0
  1  2  1  0
  2  3  1  0
  4  3  1  0
  5  4  1  0
  6  8  1  0
  5  6  1  1
  7  6  2  0
  9  8  1  0
 10  9  1  0
 11 10  2  0
 12 13  1  0
 14 13  1  1
 14 16  1  0
 14 15  1  0
 15 10  1  0
 16 17  1  0
 18 16  2  0
M  END
$$$$
