PGS.pdb
     RDKit          3D

 18 18  0  0  1  0  0  0  0  0999 V2000
   25.2439  -18.0479  -15.8663 N   0  0  0  0  0  0  0  0  0  0  0  0
   24.3304  -16.9517  -15.9512 C   0  0  0  0  0  0  0  0  0  0  0  0
   25.1696  -15.6846  -16.1120 C   0  0  0  0  0  0  0  0  0  0  0  0
   26.4740  -16.1434  -15.4464 C   0  0  0  0  0  0  0  0  0  0  0  0
   26.5768  -17.5561  -16.0234 C   0  0  1  0  0  0  0  0  0  0  0  0
   27.5362  -18.3846  -15.2905 C   0  0  0  0  0  0  0  0  0  0  0  0
   28.7377  -18.0197  -15.2293 O   0  0  0  0  0  0  0  0  0  0  0  0
   27.1473  -19.5981  -14.6414 N   0  0  0  0  0  0  0  0  0  0  0  0
   27.6178  -19.8356  -13.3126 C   0  0  0  0  0  0  0  0  0  0  0  0
   26.7436  -20.8350  -12.6000 C   0  0  0  0  0  0  0  0  0  0  0  0
   26.1124  -21.7211  -13.2325 O   0  0  0  0  0  0  0  0  0  0  0  0
   25.8862  -19.6310   -8.8099 O   0  0  0  0  0  0  0  0  0  0  0  0
   25.6890  -20.9872   -9.0016 C   0  0  0  0  0  0  0  0  0  0  0  0
   25.4637  -21.3066  -10.4829 C   0  0  2  0  0  0  0  0  0  0  0  0
   26.5993  -20.8152  -11.1950 N   0  0  0  0  0  0  0  0  0  0  0  0
   24.1974  -20.6431  -10.8833 C   0  0  0  0  0  0  0  0  0  0  0  0
   22.9608  -21.1756  -10.5559 O   0  0  0  0  0  0  0  0  0  0  0  0
   24.2012  -19.5679  -11.5377 O   0  0  0  0  0  0  0  0  0  0  0  0
  1  5  1  0
  1  2  1  0
  2  3  1  0
  4  3  1  0
  5  4  1  0
  6  8  1  0
  5  6  1  1
  7  6  2  0
  9  8  1  0
 10  9  1  0
 11 10  2  0
 12 13  1  0
 14 13  1  1
 14 16  1  0
 14 15  1  0
 15 10  1  0
 16 17  1  0
 18 16  2  0
M  END
$$$$
