PGS.pdb
     RDKit          3D

 18 18  0  0  1  0  0  0  0  0999 V2000
   18.7313   -8.7601  -15.4144 N   0  0  0  0  0  0  0  0  0  0  0  0
   17.9839   -9.0739  -16.5918 C   0  0  0  0  0  0  0  0  0  0  0  0
   18.8669   -9.9777  -17.4516 C   0  0  0  0  0  0  0  0  0  0  0  0
   20.2533   -9.5389  -16.9614 C   0  0  0  0  0  0  0  0  0  0  0  0
   19.9816   -9.4513  -15.4588 C   0  0  1  0  0  0  0  0  0  0  0  0
   21.0239   -8.7056  -14.7507 C   0  0  0  0  0  0  0  0  0  0  0  0
   22.2088   -9.1240  -14.7898 O   0  0  0  0  0  0  0  0  0  0  0  0
   20.7344   -7.5140  -14.0148 N   0  0  0  0  0  0  0  0  0  0  0  0
   21.8268   -6.7847  -13.4508 C   0  0  0  0  0  0  0  0  0  0  0  0
   21.8857   -5.3845  -14.0049 C   0  0  0  0  0  0  0  0  0  0  0  0
   22.6972   -4.5353  -13.5533 O   0  0  0  0  0  0  0  0  0  0  0  0
   19.2353   -4.5158  -17.0003 O   0  0  0  0  0  0  0  0  0  0  0  0
   20.4310   -3.8211  -17.0478 C   0  0  0  0  0  0  0  0  0  0  0  0
   21.0388   -3.6752  -15.6492 C   0  0  2  0  0  0  0  0  0  0  0  0
   21.0322   -4.9720  -15.0521 N   0  0  0  0  0  0  0  0  0  0  0  0
   20.2034   -2.6940  -14.9120 C   0  0  0  0  0  0  0  0  0  0  0  0
   19.3972   -3.0749  -13.8514 O   0  0  0  0  0  0  0  0  0  0  0  0
   20.1971   -1.4749  -15.2252 O   0  0  0  0  0  0  0  0  0  0  0  0
  1  5  1  0
  1  2  1  0
  2  3  1  0
  4  3  1  0
  5  4  1  0
  6  8  1  0
  5  6  1  1
  7  6  2  0
  9  8  1  0
 10  9  1  0
 11 10  2  0
 12 13  1  0
 14 13  1  6
 14 16  1  0
 14 15  1  0
 15 10  1  0
 16 17  1  0
 18 16  2  0
M  END
$$$$
