PGS.pdb
     RDKit          3D

 18 18  0  0  1  0  0  0  0  0999 V2000
   44.4411  -18.0565  -10.1171 N   0  0  0  0  0  0  0  0  0  0  0  0
   43.2263  -18.4222  -10.7757 C   0  0  0  0  0  0  0  0  0  0  0  0
   42.8895  -19.8448  -10.3303 C   0  0  0  0  0  0  0  0  0  0  0  0
   44.2945  -20.3535   -9.9808 C   0  0  0  0  0  0  0  0  0  0  0  0
   44.8428  -19.1238   -9.2553 C   0  0  1  0  0  0  0  0  0  0  0  0
   46.2994  -19.1691   -9.1128 C   0  0  0  0  0  0  0  0  0  0  0  0
   46.8000  -19.8009   -8.1480 O   0  0  0  0  0  0  0  0  0  0  0  0
   47.1710  -18.5154  -10.0391 N   0  0  0  0  0  0  0  0  0  0  0  0
   48.5817  -18.6459   -9.8485 C   0  0  0  0  0  0  0  0  0  0  0  0
   49.1356  -17.4696   -9.0867 C   0  0  0  0  0  0  0  0  0  0  0  0
   50.1809  -16.8789   -9.4637 O   0  0  0  0  0  0  0  0  0  0  0  0
   46.9449  -14.6872   -7.3388 O   0  0  0  0  0  0  0  0  0  0  0  0
   47.7840  -15.2857   -6.4157 C   0  0  0  0  0  0  0  0  0  0  0  0
   48.9953  -15.9225   -7.1044 C   0  0  2  0  0  0  0  0  0  0  0  0
   48.5025  -16.9851   -7.9206 N   0  0  0  0  0  0  0  0  0  0  0  0
   49.9086  -16.3915   -6.0321 C   0  0  0  0  0  0  0  0  0  0  0  0
   50.5274  -15.5068   -5.1636 O   0  0  0  0  0  0  0  0  0  0  0  0
   50.1553  -17.6155   -5.8724 O   0  0  0  0  0  0  0  0  0  0  0  0
  1  5  1  0
  1  2  1  0
  2  3  1  0
  4  3  1  0
  5  4  1  0
  6  8  1  0
  5  6  1  6
  7  6  2  0
  9  8  1  0
 10  9  1  0
 11 10  2  0
 12 13  1  0
 14 13  1  1
 14 16  1  0
 14 15  1  0
 15 10  1  0
 16 17  1  0
 18 16  2  0
M  END
$$$$
