DRN.pdb
     RDKit          3D

 28 27  0  0  1  0  0  0  0  0999 V2000
   12.7112  -18.5929   18.4706 N   0  0  0  0  0  0  0  0  0  0  0  0
   13.6731  -17.8360   19.2732 C   0  0  1  0  0  0  0  0  0  0  0  0
   14.2790  -16.8141   18.3576 C   0  0  0  0  0  0  0  0  0  0  0  0
   15.4816  -17.3635   17.6589 C   0  0  0  0  0  0  0  0  0  0  0  0
   15.8139  -18.5652   17.7857 O   0  0  0  0  0  0  0  0  0  0  0  0
   13.0363  -17.2827   20.4633 C   0  0  0  0  0  0  0  0  0  0  0  0
   13.7560  -16.6105   21.2718 O   0  0  0  0  0  0  0  0  0  0  0  0
   16.2397  -16.5267   16.8602 O   0  0  0  0  0  0  0  0  0  0  0  0
    7.6999  -12.5392   21.5393 N   0  0  0  0  0  0  0  0  0  0  0  0
    7.7793  -12.9097   20.1687 C   0  0  0  0  0  0  0  0  0  0  0  0
    8.0786  -12.0471   19.2450 N   0  0  0  0  0  0  0  0  0  0  0  0
    7.5428  -14.2406   19.7238 N   0  0  0  0  0  0  0  0  0  0  0  0
    7.8786  -15.3505   20.5775 C   0  0  0  0  0  0  0  0  0  0  0  0
    9.3822  -15.4096   20.8616 C   0  0  0  0  0  0  0  0  0  0  0  0
    9.5806  -16.6455   21.6860 C   0  0  0  0  0  0  0  0  0  0  0  0
   11.0117  -16.9059   21.9391 C   0  0  2  0  0  0  0  0  0  0  0  0
   11.6716  -17.4546   20.7571 N   0  0  0  0  0  0  0  0  0  0  0  0
   11.2258  -17.8380   23.0494 C   0  0  0  0  0  0  0  0  0  0  0  0
   10.9428  -19.0698   22.8947 O   0  0  0  0  0  0  0  0  0  0  0  0
    8.1405  -12.2502   18.2405 N   0  0  0  0  0  0  0  0  0  0  0  0
   12.1139  -20.2571   27.2972 C   0  0  0  0  0  0  0  0  0  0  0  0
   13.3218  -19.5804   26.9688 O   0  0  0  0  0  0  0  0  0  0  0  0
   14.3762  -19.8474   27.5673 C   0  0  0  0  0  0  0  0  0  0  0  0
   13.2713  -18.5606   25.9008 C   0  0  1  0  0  0  0  0  0  0  0  0
   11.8587  -18.4296   25.3542 N   0  0  0  0  0  0  0  0  0  0  0  0
   11.7434  -17.4338   24.3166 C   0  0  0  0  0  0  0  0  0  0  0  0
   10.9598  -18.1044   26.4643 O   0  0  0  0  0  0  0  0  0  0  0  0
   10.6802  -19.0108   27.4832 O   0  0  0  0  0  0  0  0  0  0  0  0
  2  1  1  6
  2  3  1  0
  3  4  1  0
  4  8  1  0
  5  4  2  0
  6  2  1  0
  6  7  2  0
  9 10  1  0
 10 12  1  0
 10 11  2  0
 12 13  1  0
 13 14  1  0
 16 15  1  6
 15 14  1  0
 16 17  1  0
 17  6  1  0
 18 16  1  0
 19 18  2  0
 20 21  1  0
 21 22  2  0
 21 23  1  0
 24 23  1  6
 24 26  1  0
 24 25  1  0
 25 18  1  0
 26 27  1  0
 28 26  2  0
M  END
$$$$
