DRN.pdb
     RDKit          3D

 28 27  0  0  1  0  0  0  0  0999 V2000
   12.9988  -17.5882   17.2534 N   0  0  0  0  0  0  0  0  0  0  0  0
   12.4833  -18.3350   18.4019 C   0  0  1  0  0  0  0  0  0  0  0  0
   13.4328  -19.4738   18.6285 C   0  0  0  0  0  0  0  0  0  0  0  0
   13.4373  -20.4106   17.4629 C   0  0  0  0  0  0  0  0  0  0  0  0
   14.4840  -21.0019   17.1089 O   0  0  0  0  0  0  0  0  0  0  0  0
   12.3016  -17.4582   19.5535 C   0  0  0  0  0  0  0  0  0  0  0  0
   13.3393  -16.9514   20.0919 O   0  0  0  0  0  0  0  0  0  0  0  0
   12.2631  -20.6247   16.7640 O   0  0  0  0  0  0  0  0  0  0  0  0
    7.8675  -12.6915   17.2634 N   0  0  0  0  0  0  0  0  0  0  0  0
    7.8122  -12.8970   18.6694 C   0  0  0  0  0  0  0  0  0  0  0  0
    8.5152  -12.1786   19.4920 N   0  0  0  0  0  0  0  0  0  0  0  0
    6.9856  -13.8920   19.2626 N   0  0  0  0  0  0  0  0  0  0  0  0
    7.5132  -14.7302   20.3078 C   0  0  0  0  0  0  0  0  0  0  0  0
    9.0194  -14.9541   20.1460 C   0  0  0  0  0  0  0  0  0  0  0  0
    9.4190  -15.8116   21.3084 C   0  0  0  0  0  0  0  0  0  0  0  0
   10.8308  -16.2328   21.2130 C   0  0  2  0  0  0  0  0  0  0  0  0
   11.0407  -17.1468   20.0932 N   0  0  0  0  0  0  0  0  0  0  0  0
   11.3034  -16.8957   22.4316 C   0  0  0  0  0  0  0  0  0  0  0  0
   10.9268  -18.0860   22.6817 O   0  0  0  0  0  0  0  0  0  0  0  0
    8.6322  -12.3674   20.4944 N   0  0  0  0  0  0  0  0  0  0  0  0
   15.4325  -15.5185   23.3663 C   0  0  0  0  0  0  0  0  0  0  0  0
   14.9611  -16.7348   23.9345 O   0  0  0  0  0  0  0  0  0  0  0  0
   15.3750  -17.8277   23.5156 C   0  0  0  0  0  0  0  0  0  0  0  0
   13.9722  -16.6461   25.0287 C   0  0  2  0  0  0  0  0  0  0  0  0
   12.5873  -17.0247   24.5285 N   0  0  0  0  0  0  0  0  0  0  0  0
   12.1781  -16.2693   23.3695 C   0  0  0  0  0  0  0  0  0  0  0  0
   11.6300  -16.8278   25.6198 O   0  0  0  0  0  0  0  0  0  0  0  0
   10.4828  -16.0535   25.4704 O   0  0  0  0  0  0  0  0  0  0  0  0
  2  1  1  6
  2  3  1  0
  3  4  1  0
  4  8  1  0
  5  4  2  0
  6  2  1  0
  6  7  2  0
  9 10  1  0
 10 12  1  0
 10 11  2  0
 12 13  1  0
 13 14  1  0
 16 15  1  1
 15 14  1  0
 16 17  1  0
 17  6  1  0
 18 16  1  0
 19 18  2  0
 20 21  1  0
 21 22  2  0
 21 23  1  0
 24 23  1  6
 24 26  1  0
 24 25  1  0
 25 18  1  0
 26 27  1  0
 28 26  2  0
M  END
$$$$
