DRN.pdb
     RDKit          3D

 28 27  0  0  1  0  0  0  0  0999 V2000
   13.0580  -15.6480   17.6853 N   0  0  0  0  0  0  0  0  0  0  0  0
   13.8724  -15.1221   18.7818 C   0  0  1  0  0  0  0  0  0  0  0  0
   14.6871  -14.0019   18.2062 C   0  0  0  0  0  0  0  0  0  0  0  0
   15.7666  -14.5254   17.3136 C   0  0  0  0  0  0  0  0  0  0  0  0
   15.5392  -14.8023   16.1127 O   0  0  0  0  0  0  0  0  0  0  0  0
   13.0363  -14.7436   19.9158 C   0  0  0  0  0  0  0  0  0  0  0  0
   13.6131  -14.3681   20.9881 O   0  0  0  0  0  0  0  0  0  0  0  0
   17.0380  -14.7076   17.8267 O   0  0  0  0  0  0  0  0  0  0  0  0
    7.7707  -15.6786   17.2860 N   0  0  0  0  0  0  0  0  0  0  0  0
    7.5925  -14.4026   16.6842 C   0  0  0  0  0  0  0  0  0  0  0  0
    7.3493  -14.2750   15.4147 N   0  0  0  0  0  0  0  0  0  0  0  0
    7.6635  -13.1919   17.4287 N   0  0  0  0  0  0  0  0  0  0  0  0
    7.9542  -13.2350   18.8384 C   0  0  0  0  0  0  0  0  0  0  0  0
    9.2655  -13.9733   19.1222 C   0  0  0  0  0  0  0  0  0  0  0  0
    9.5545  -13.7232   20.5714 C   0  0  0  0  0  0  0  0  0  0  0  0
   10.7739  -14.4292   21.0120 C   0  0  2  0  0  0  0  0  0  0  0  0
   11.6306  -14.7725   19.8798 N   0  0  0  0  0  0  0  0  0  0  0  0
   10.4758  -15.6636   21.7433 C   0  0  0  0  0  0  0  0  0  0  0  0
   10.2885  -16.7439   21.0958 O   0  0  0  0  0  0  0  0  0  0  0  0
    7.3450  -13.3883   14.8973 N   0  0  0  0  0  0  0  0  0  0  0  0
   12.5932  -19.3255   24.7958 C   0  0  0  0  0  0  0  0  0  0  0  0
   12.0764  -18.1731   25.4512 O   0  0  0  0  0  0  0  0  0  0  0  0
   11.7559  -18.2206   26.6497 C   0  0  0  0  0  0  0  0  0  0  0  0
   11.9382  -16.9339   24.6586 C   0  0  1  0  0  0  0  0  0  0  0  0
   10.6731  -16.9772   23.8165 N   0  0  0  0  0  0  0  0  0  0  0  0
   10.3827  -15.7224   23.1664 C   0  0  0  0  0  0  0  0  0  0  0  0
    9.5547  -17.3664   24.6789 O   0  0  0  0  0  0  0  0  0  0  0  0
    8.4405  -16.5523   24.8627 O   0  0  0  0  0  0  0  0  0  0  0  0
  2  1  1  6
  2  3  1  0
  3  4  1  0
  4  8  1  0
  5  4  2  0
  6  2  1  0
  6  7  2  0
  9 10  1  0
 10 12  1  0
 10 11  2  0
 12 13  1  0
 13 14  1  0
 16 15  1  6
 15 14  1  0
 16 17  1  0
 17  6  1  0
 18 16  1  0
 19 18  2  0
 20 21  1  0
 21 22  2  0
 21 23  1  0
 24 23  1  6
 24 26  1  0
 24 25  1  0
 25 18  1  0
 26 27  1  0
 28 26  2  0
M  END
$$$$
