DRN.pdb
     RDKit          3D

 28 27  0  0  1  0  0  0  0  0999 V2000
   15.8386  -15.6208   15.9852 N   0  0  0  0  0  0  0  0  0  0  0  0
   14.9032  -16.5709   16.5892 C   0  0  1  0  0  0  0  0  0  0  0  0
   15.6637  -17.8487   16.7859 C   0  0  0  0  0  0  0  0  0  0  0  0
   15.7731  -18.6123   15.5049 C   0  0  0  0  0  0  0  0  0  0  0  0
   16.4111  -18.1543   14.5282 O   0  0  0  0  0  0  0  0  0  0  0  0
   14.3160  -16.0208   17.8060 C   0  0  0  0  0  0  0  0  0  0  0  0
   15.0124  -15.2037   18.4924 O   0  0  0  0  0  0  0  0  0  0  0  0
   15.1562  -19.8457   15.3990 O   0  0  0  0  0  0  0  0  0  0  0  0
    6.5262  -13.2297   19.2296 N   0  0  0  0  0  0  0  0  0  0  0  0
    7.7133  -12.5248   19.5700 C   0  0  0  0  0  0  0  0  0  0  0  0
    7.7612  -11.2268   19.5655 N   0  0  0  0  0  0  0  0  0  0  0  0
    8.9156  -13.1903   19.9399 N   0  0  0  0  0  0  0  0  0  0  0  0
    8.9236  -14.6225   20.0891 C   0  0  0  0  0  0  0  0  0  0  0  0
   10.2943  -15.1357   20.5395 C   0  0  0  0  0  0  0  0  0  0  0  0
   10.9376  -15.6838   19.3018 C   0  0  0  0  0  0  0  0  0  0  0  0
   12.4030  -15.7853   19.4503 C   0  0  2  0  0  0  0  0  0  0  0  0
   13.0233  -16.3476   18.2534 N   0  0  0  0  0  0  0  0  0  0  0  0
   12.7963  -16.6130   20.5940 C   0  0  0  0  0  0  0  0  0  0  0  0
   12.8682  -17.8767   20.4555 O   0  0  0  0  0  0  0  0  0  0  0  0
    8.5957  -10.6628   19.7643 N   0  0  0  0  0  0  0  0  0  0  0  0
   14.7307  -14.7049   22.3679 C   0  0  0  0  0  0  0  0  0  0  0  0
   15.5692  -15.7461   22.8551 O   0  0  0  0  0  0  0  0  0  0  0  0
   16.7974  -15.5821   22.9317 C   0  0  0  0  0  0  0  0  0  0  0  0
   14.9278  -17.0138   23.2608 C   0  0  1  0  0  0  0  0  0  0  0  0
   13.4419  -16.9867   22.9405 N   0  0  0  0  0  0  0  0  0  0  0  0
   13.1088  -16.0707   21.8767 C   0  0  0  0  0  0  0  0  0  0  0  0
   12.7110  -16.6286   24.1585 O   0  0  0  0  0  0  0  0  0  0  0  0
   12.7964  -17.3839   25.3248 O   0  0  0  0  0  0  0  0  0  0  0  0
  2  1  1  1
  2  3  1  0
  3  4  1  0
  4  8  1  0
  5  4  2  0
  6  2  1  0
  6  7  2  0
  9 10  1  0
 10 12  1  0
 10 11  2  0
 12 13  1  0
 13 14  1  0
 16 15  1  6
 15 14  1  0
 16 17  1  0
 17  6  1  0
 18 16  1  0
 19 18  2  0
 20 21  1  0
 21 22  2  0
 21 23  1  0
 24 23  1  6
 24 26  1  0
 24 25  1  0
 25 18  1  0
 26 27  1  0
 28 26  2  0
M  END
$$$$
