DRN.pdb
     RDKit          3D

 28 27  0  0  1  0  0  0  0  0999 V2000
    9.9547  -17.0781   18.2146 N   0  0  0  0  0  0  0  0  0  0  0  0
   10.2188  -17.9728   19.3425 C   0  0  1  0  0  0  0  0  0  0  0  0
   11.2872  -18.9231   18.8894 C   0  0  0  0  0  0  0  0  0  0  0  0
   10.8996  -19.5996   17.6133 C   0  0  0  0  0  0  0  0  0  0  0  0
    9.7028  -19.8722   17.3602 O   0  0  0  0  0  0  0  0  0  0  0  0
   10.5518  -17.2129   20.5424 C   0  0  0  0  0  0  0  0  0  0  0  0
   11.7003  -16.6649   20.6065 O   0  0  0  0  0  0  0  0  0  0  0  0
   11.8828  -19.9306   16.6987 O   0  0  0  0  0  0  0  0  0  0  0  0
    5.2650  -12.9533   26.2522 N   0  0  0  0  0  0  0  0  0  0  0  0
    6.5826  -12.4236   26.3256 C   0  0  0  0  0  0  0  0  0  0  0  0
    6.8137  -11.2304   26.7837 N   0  0  0  0  0  0  0  0  0  0  0  0
    7.7256  -13.1624   25.9098 N   0  0  0  0  0  0  0  0  0  0  0  0
    7.5928  -14.1736   24.8933 C   0  0  0  0  0  0  0  0  0  0  0  0
    8.9410  -14.8178   24.5580 C   0  0  0  0  0  0  0  0  0  0  0  0
    8.6761  -15.6952   23.3722 C   0  0  0  0  0  0  0  0  0  0  0  0
    9.9300  -16.2038   22.7816 C   0  0  2  0  0  0  0  0  0  0  0  0
    9.6680  -17.0569   21.6253 N   0  0  0  0  0  0  0  0  0  0  0  0
   10.7307  -16.9730   23.7381 C   0  0  0  0  0  0  0  0  0  0  0  0
   11.2301  -18.0883   23.3805 O   0  0  0  0  0  0  0  0  0  0  0  0
    7.7431  -10.8141   26.9137 N   0  0  0  0  0  0  0  0  0  0  0  0
   10.3806  -21.0130   26.6553 C   0  0  0  0  0  0  0  0  0  0  0  0
   10.1996  -19.6497   27.0204 O   0  0  0  0  0  0  0  0  0  0  0  0
   10.1598  -19.3177   28.2160 C   0  0  0  0  0  0  0  0  0  0  0  0
   10.0625  -18.6581   25.9337 C   0  0  2  0  0  0  0  0  0  0  0  0
   11.0621  -17.5268   26.1141 N   0  0  0  0  0  0  0  0  0  0  0  0
   10.9859  -16.5326   25.0715 C   0  0  0  0  0  0  0  0  0  0  0  0
   12.4089  -18.1010   26.1630 O   0  0  0  0  0  0  0  0  0  0  0  0
   13.3194  -17.7745   27.1642 O   0  0  0  0  0  0  0  0  0  0  0  0
  2  1  1  6
  2  3  1  0
  3  4  1  0
  4  8  1  0
  5  4  2  0
  6  2  1  0
  6  7  2  0
  9 10  1  0
 10 12  1  0
 10 11  2  0
 12 13  1  0
 13 14  1  0
 16 15  1  1
 15 14  1  0
 16 17  1  0
 17  6  1  0
 18 16  1  0
 19 18  2  0
 20 21  1  0
 21 22  2  0
 21 23  1  0
 24 23  1  1
 24 26  1  0
 24 25  1  0
 25 18  1  0
 26 27  1  0
 28 26  2  0
M  END
$$$$
