DRN.pdb
     RDKit          3D

 28 27  0  0  1  0  0  0  0  0999 V2000
   12.1889  -15.7082   18.7853 N   0  0  0  0  0  0  0  0  0  0  0  0
   13.1593  -15.5533   19.8700 C   0  0  1  0  0  0  0  0  0  0  0  0
   13.9871  -14.3495   19.5303 C   0  0  0  0  0  0  0  0  0  0  0  0
   14.6720  -14.5221   18.2123 C   0  0  0  0  0  0  0  0  0  0  0  0
   15.4926  -15.4504   18.0233 O   0  0  0  0  0  0  0  0  0  0  0  0
   12.4875  -15.4824   21.1630 C   0  0  0  0  0  0  0  0  0  0  0  0
   13.1905  -15.2126   22.1908 O   0  0  0  0  0  0  0  0  0  0  0  0
   14.3938  -13.6381   17.1856 O   0  0  0  0  0  0  0  0  0  0  0  0
    9.1128  -13.7009   17.5531 N   0  0  0  0  0  0  0  0  0  0  0  0
    8.5570  -12.9829   18.6474 C   0  0  0  0  0  0  0  0  0  0  0  0
    8.9334  -11.7725   18.9308 N   0  0  0  0  0  0  0  0  0  0  0  0
    7.5563  -13.5374   19.4937 N   0  0  0  0  0  0  0  0  0  0  0  0
    7.8922  -14.6156   20.3871 C   0  0  0  0  0  0  0  0  0  0  0  0
    8.7337  -14.1276   21.5699 C   0  0  0  0  0  0  0  0  0  0  0  0
    8.9677  -15.3419   22.4165 C   0  0  0  0  0  0  0  0  0  0  0  0
   10.4084  -15.6029   22.6058 C   0  0  2  0  0  0  0  0  0  0  0  0
   11.1069  -15.6954   21.3263 N   0  0  0  0  0  0  0  0  0  0  0  0
   10.6629  -16.8397   23.3496 C   0  0  0  0  0  0  0  0  0  0  0  0
   10.8145  -17.9319   22.7129 O   0  0  0  0  0  0  0  0  0  0  0  0
    8.5476  -11.1920   19.6847 N   0  0  0  0  0  0  0  0  0  0  0  0
   12.1973  -20.2623   26.6473 C   0  0  0  0  0  0  0  0  0  0  0  0
   13.1514  -19.5754   25.8458 O   0  0  0  0  0  0  0  0  0  0  0  0
   14.3104  -20.0067   25.7375 C   0  0  0  0  0  0  0  0  0  0  0  0
   12.7129  -18.3442   25.1566 C   0  0  2  0  0  0  0  0  0  0  0  0
   11.2291  -18.1042   25.3850 N   0  0  0  0  0  0  0  0  0  0  0  0
   10.7518  -16.8878   24.7733 C   0  0  0  0  0  0  0  0  0  0  0  0
   10.9812  -18.0710   26.8284 O   0  0  0  0  0  0  0  0  0  0  0  0
   11.1879  -19.1809   27.6430 O   0  0  0  0  0  0  0  0  0  0  0  0
  2  1  1  6
  2  3  1  0
  3  4  1  0
  4  8  1  0
  5  4  2  0
  6  2  1  0
  6  7  2  0
  9 10  1  0
 10 12  1  0
 10 11  2  0
 12 13  1  0
 13 14  1  0
 16 15  1  6
 15 14  1  0
 16 17  1  0
 17  6  1  0
 18 16  1  0
 19 18  2  0
 20 21  1  0
 21 22  2  0
 21 23  1  0
 24 23  1  6
 24 26  1  0
 24 25  1  0
 25 18  1  0
 26 27  1  0
 28 26  2  0
M  END
$$$$
