DRN.pdb
     RDKit          3D

 28 27  0  0  1  0  0  0  0  0999 V2000
   12.2021  -18.6138   17.6221 N   0  0  0  0  0  0  0  0  0  0  0  0
   13.2867  -18.0841   18.4499 C   0  0  1  0  0  0  0  0  0  0  0  0
   14.0791  -17.1616   17.5720 C   0  0  0  0  0  0  0  0  0  0  0  0
   14.7330  -17.9112   16.4554 C   0  0  0  0  0  0  0  0  0  0  0  0
   14.8609  -19.1572   16.4969 O   0  0  0  0  0  0  0  0  0  0  0  0
   12.7614  -17.4656   19.6622 C   0  0  0  0  0  0  0  0  0  0  0  0
   13.5932  -16.9960   20.5054 O   0  0  0  0  0  0  0  0  0  0  0  0
   15.2056  -17.2131   15.3590 O   0  0  0  0  0  0  0  0  0  0  0  0
    7.8222  -12.4862   20.2189 N   0  0  0  0  0  0  0  0  0  0  0  0
    7.5758  -13.2027   19.0155 C   0  0  0  0  0  0  0  0  0  0  0  0
    7.7996  -12.6757   17.8497 N   0  0  0  0  0  0  0  0  0  0  0  0
    7.0766  -14.5354   19.0103 N   0  0  0  0  0  0  0  0  0  0  0  0
    7.5337  -15.4744   20.0017 C   0  0  0  0  0  0  0  0  0  0  0  0
    9.0614  -15.4845   20.1078 C   0  0  0  0  0  0  0  0  0  0  0  0
    9.3836  -16.5872   21.0703 C   0  0  0  0  0  0  0  0  0  0  0  0
   10.8395  -16.8078   21.1763 C   0  0  2  0  0  0  0  0  0  0  0  0
   11.3867  -17.3630   19.9410 N   0  0  0  0  0  0  0  0  0  0  0  0
   11.1928  -17.7128   22.2735 C   0  0  0  0  0  0  0  0  0  0  0  0
   11.2190  -18.9685   22.0640 O   0  0  0  0  0  0  0  0  0  0  0  0
    7.6534  -13.1448   16.9482 N   0  0  0  0  0  0  0  0  0  0  0  0
   13.0080  -20.1833   23.2228 C   0  0  0  0  0  0  0  0  0  0  0  0
   13.8517  -19.4937   24.1379 O   0  0  0  0  0  0  0  0  0  0  0  0
   15.0430  -19.8191   24.2641 C   0  0  0  0  0  0  0  0  0  0  0  0
   13.2606  -18.3894   24.9215 C   0  0  2  0  0  0  0  0  0  0  0  0
   11.7808  -18.2427   24.6050 N   0  0  0  0  0  0  0  0  0  0  0  0
   11.5149  -17.2558   23.5867 C   0  0  0  0  0  0  0  0  0  0  0  0
   11.0746  -17.8927   25.8398 O   0  0  0  0  0  0  0  0  0  0  0  0
   11.1033  -18.7078   26.9680 O   0  0  0  0  0  0  0  0  0  0  0  0
  2  1  1  6
  2  3  1  0
  3  4  1  0
  4  8  1  0
  5  4  2  0
  6  2  1  0
  6  7  2  0
  9 10  1  0
 10 12  1  0
 10 11  2  0
 12 13  1  0
 13 14  1  0
 16 15  1  6
 15 14  1  0
 16 17  1  0
 17  6  1  0
 18 16  1  0
 19 18  2  0
 20 21  1  0
 21 22  2  0
 21 23  1  0
 24 23  1  6
 24 26  1  0
 24 25  1  0
 25 18  1  0
 26 27  1  0
 28 26  2  0
M  END
$$$$
