DRN.pdb
     RDKit          3D

 28 27  0  0  1  0  0  0  0  0999 V2000
   13.1399  -16.1592   16.5973 N   0  0  0  0  0  0  0  0  0  0  0  0
   14.0387  -15.2693   17.3339 C   0  0  1  0  0  0  0  0  0  0  0  0
   14.2995  -14.0940   16.4393 C   0  0  0  0  0  0  0  0  0  0  0  0
   15.2426  -14.4560   15.3366 C   0  0  0  0  0  0  0  0  0  0  0  0
   15.7482  -15.6004   15.2639 O   0  0  0  0  0  0  0  0  0  0  0  0
   13.4795  -14.9275   18.6371 C   0  0  0  0  0  0  0  0  0  0  0  0
   14.1149  -14.0957   19.3636 O   0  0  0  0  0  0  0  0  0  0  0  0
   15.5619  -13.5072   14.3823 O   0  0  0  0  0  0  0  0  0  0  0  0
    7.4169  -12.3114   19.1356 N   0  0  0  0  0  0  0  0  0  0  0  0
    7.6562  -13.1605   18.0203 C   0  0  0  0  0  0  0  0  0  0  0  0
    7.6403  -12.7084   16.8028 N   0  0  0  0  0  0  0  0  0  0  0  0
    7.9317  -14.5492   18.1647 N   0  0  0  0  0  0  0  0  0  0  0  0
    8.2421  -15.0856   19.4644 C   0  0  0  0  0  0  0  0  0  0  0  0
    9.4890  -14.4286   20.0633 C   0  0  0  0  0  0  0  0  0  0  0  0
   10.3288  -15.5621   20.5696 C   0  0  0  0  0  0  0  0  0  0  0  0
   11.7697  -15.2538   20.4781 C   0  0  2  0  0  0  0  0  0  0  0  0
   12.2771  -15.4696   19.1255 N   0  0  0  0  0  0  0  0  0  0  0  0
   12.5768  -16.0609   21.3973 C   0  0  0  0  0  0  0  0  0  0  0  0
   12.7674  -17.2940   21.1435 O   0  0  0  0  0  0  0  0  0  0  0  0
    7.7920  -13.2720   15.9582 N   0  0  0  0  0  0  0  0  0  0  0  0
   15.4657  -15.9863   21.2976 C   0  0  0  0  0  0  0  0  0  0  0  0
   16.0596  -15.6347   22.5419 O   0  0  0  0  0  0  0  0  0  0  0  0
   17.1791  -15.0992   22.5765 C   0  0  0  0  0  0  0  0  0  0  0  0
   15.3005  -15.9286   23.7748 C   0  0  2  0  0  0  0  0  0  0  0  0
   13.9064  -16.4319   23.4361 N   0  0  0  0  0  0  0  0  0  0  0  0
   13.1715  -15.5311   22.5817 C   0  0  0  0  0  0  0  0  0  0  0  0
   13.1742  -16.6471   24.6866 O   0  0  0  0  0  0  0  0  0  0  0  0
   13.6295  -17.5173   25.6732 O   0  0  0  0  0  0  0  0  0  0  0  0
  2  1  1  6
  2  3  1  0
  3  4  1  0
  4  8  1  0
  5  4  2  0
  6  2  1  0
  6  7  2  0
  9 10  1  0
 10 12  1  0
 10 11  2  0
 12 13  1  0
 13 14  1  0
 16 15  1  6
 15 14  1  0
 16 17  1  0
 17  6  1  0
 18 16  1  0
 19 18  2  0
 20 21  1  0
 21 22  2  0
 21 23  1  0
 24 23  1  6
 24 26  1  0
 24 25  1  0
 25 18  1  0
 26 27  1  0
 28 26  2  0
M  END
$$$$
