DRN.pdb
     RDKit          3D

 28 27  0  0  1  0  0  0  0  0999 V2000
   13.9999  -16.2976   16.4985 N   0  0  0  0  0  0  0  0  0  0  0  0
   14.8543  -15.3033   17.1494 C   0  0  1  0  0  0  0  0  0  0  0  0
   14.8092  -14.0759   16.2885 C   0  0  0  0  0  0  0  0  0  0  0  0
   15.3831  -14.3471   14.9345 C   0  0  0  0  0  0  0  0  0  0  0  0
   15.0157  -15.3373   14.2598 O   0  0  0  0  0  0  0  0  0  0  0  0
   14.4430  -15.0896   18.5326 C   0  0  0  0  0  0  0  0  0  0  0  0
   15.2760  -14.5473   19.3298 O   0  0  0  0  0  0  0  0  0  0  0  0
   16.3380  -13.4883   14.4213 O   0  0  0  0  0  0  0  0  0  0  0  0
    7.7207  -14.1341   17.6822 N   0  0  0  0  0  0  0  0  0  0  0  0
    8.0748  -12.9590   18.4005 C   0  0  0  0  0  0  0  0  0  0  0  0
    7.1781  -12.1125   18.8083 N   0  0  0  0  0  0  0  0  0  0  0  0
    9.4238  -12.6391   18.7213 N   0  0  0  0  0  0  0  0  0  0  0  0
   10.0972  -13.3530   19.7749 C   0  0  0  0  0  0  0  0  0  0  0  0
   10.5340  -14.7490   19.3216 C   0  0  0  0  0  0  0  0  0  0  0  0
   11.2506  -15.3405   20.4976 C   0  0  0  0  0  0  0  0  0  0  0  0
   12.7132  -15.1756   20.3818 C   0  0  2  0  0  0  0  0  0  0  0  0
   13.1756  -15.4511   19.0239 N   0  0  0  0  0  0  0  0  0  0  0  0
   13.4518  -16.0502   21.2966 C   0  0  0  0  0  0  0  0  0  0  0  0
   13.6850  -17.2551   20.9575 O   0  0  0  0  0  0  0  0  0  0  0  0
    7.3738  -11.2182   19.2731 N   0  0  0  0  0  0  0  0  0  0  0  0
   17.3305  -18.2438   23.7036 C   0  0  0  0  0  0  0  0  0  0  0  0
   16.9472  -17.0214   24.3228 O   0  0  0  0  0  0  0  0  0  0  0  0
   17.2581  -16.7880   25.5019 C   0  0  0  0  0  0  0  0  0  0  0  0
   16.1745  -16.0537   23.5169 C   0  0  1  0  0  0  0  0  0  0  0  0
   14.7425  -16.5317   23.3374 N   0  0  0  0  0  0  0  0  0  0  0  0
   13.9328  -15.6177   22.5690 C   0  0  0  0  0  0  0  0  0  0  0  0
   14.1512  -16.7340   24.6624 O   0  0  0  0  0  0  0  0  0  0  0  0
   14.4065  -17.8712   25.4236 O   0  0  0  0  0  0  0  0  0  0  0  0
  2  1  1  6
  2  3  1  0
  3  4  1  0
  4  8  1  0
  5  4  2  0
  6  2  1  0
  6  7  2  0
  9 10  1  0
 10 12  1  0
 10 11  2  0
 12 13  1  0
 13 14  1  0
 16 15  1  6
 15 14  1  0
 16 17  1  0
 17  6  1  0
 18 16  1  0
 19 18  2  0
 20 21  1  0
 21 22  2  0
 21 23  1  0
 24 23  1  6
 24 26  1  0
 24 25  1  0
 25 18  1  0
 26 27  1  0
 28 26  2  0
M  END
$$$$
