DRN.pdb
     RDKit          3D

 28 27  0  0  1  0  0  0  0  0999 V2000
   14.2961  -15.6077   16.5835 N   0  0  0  0  0  0  0  0  0  0  0  0
   14.9413  -14.7752   17.6000 C   0  0  1  0  0  0  0  0  0  0  0  0
   15.3584  -13.5102   16.9105 C   0  0  0  0  0  0  0  0  0  0  0  0
   16.2786  -13.7988   15.7675 C   0  0  0  0  0  0  0  0  0  0  0  0
   16.4192  -12.9844   14.8253 O   0  0  0  0  0  0  0  0  0  0  0  0
   14.0614  -14.5793   18.7470 C   0  0  0  0  0  0  0  0  0  0  0  0
   14.4470  -13.7921   19.6718 O   0  0  0  0  0  0  0  0  0  0  0  0
   16.9844  -14.9881   15.7524 O   0  0  0  0  0  0  0  0  0  0  0  0
    7.2802  -12.4078   19.9107 N   0  0  0  0  0  0  0  0  0  0  0  0
    7.6488  -13.1801   18.7749 C   0  0  0  0  0  0  0  0  0  0  0  0
    7.6655  -12.6712   17.5801 N   0  0  0  0  0  0  0  0  0  0  0  0
    8.0254  -14.5489   18.8734 N   0  0  0  0  0  0  0  0  0  0  0  0
    8.1563  -15.1634   20.1690 C   0  0  0  0  0  0  0  0  0  0  0  0
    9.5602  -14.9667   20.7481 C   0  0  0  0  0  0  0  0  0  0  0  0
   10.4971  -15.2013   19.6020 C   0  0  0  0  0  0  0  0  0  0  0  0
   11.9053  -15.0143   20.0043 C   0  0  2  0  0  0  0  0  0  0  0  0
   12.8134  -15.2144   18.8778 N   0  0  0  0  0  0  0  0  0  0  0  0
   12.3094  -15.9266   21.0776 C   0  0  0  0  0  0  0  0  0  0  0  0
   12.3510  -17.1788   20.8508 O   0  0  0  0  0  0  0  0  0  0  0  0
    7.9801  -13.1571   16.7322 N   0  0  0  0  0  0  0  0  0  0  0  0
   16.0815  -14.6279   22.9507 C   0  0  0  0  0  0  0  0  0  0  0  0
   15.5016  -15.9178   23.1078 O   0  0  0  0  0  0  0  0  0  0  0  0
   15.9287  -16.8841   22.4558 C   0  0  0  0  0  0  0  0  0  0  0  0
   14.3854  -16.0590   24.0654 C   0  0  2  0  0  0  0  0  0  0  0  0
   13.1103  -16.4640   23.3430 N   0  0  0  0  0  0  0  0  0  0  0  0
   12.6654  -15.4805   22.3858 C   0  0  0  0  0  0  0  0  0  0  0  0
   12.0657  -16.7002   24.3425 O   0  0  0  0  0  0  0  0  0  0  0  0
   10.8142  -16.0955   24.2656 O   0  0  0  0  0  0  0  0  0  0  0  0
  2  1  1  6
  2  3  1  0
  3  4  1  0
  4  8  1  0
  5  4  2  0
  6  2  1  0
  6  7  2  0
  9 10  1  0
 10 12  1  0
 10 11  2  0
 12 13  1  0
 13 14  1  0
 16 15  1  6
 15 14  1  0
 16 17  1  0
 17  6  1  0
 18 16  1  0
 19 18  2  0
 20 21  1  0
 21 22  2  0
 21 23  1  0
 24 23  1  6
 24 26  1  0
 24 25  1  0
 25 18  1  0
 26 27  1  0
 28 26  2  0
M  END
$$$$
