DRN.pdb
     RDKit          3D

 28 27  0  0  1  0  0  0  0  0999 V2000
   13.4836  -18.8904   19.2555 N   0  0  0  0  0  0  0  0  0  0  0  0
   14.3700  -17.7305   19.1499 C   0  0  1  0  0  0  0  0  0  0  0  0
   14.3301  -17.2949   17.7152 C   0  0  0  0  0  0  0  0  0  0  0  0
   15.5880  -17.6760   17.0020 C   0  0  0  0  0  0  0  0  0  0  0  0
   16.4964  -18.3143   17.5835 O   0  0  0  0  0  0  0  0  0  0  0  0
   13.9918  -16.6977   20.1082 C   0  0  0  0  0  0  0  0  0  0  0  0
   14.3240  -15.4938   19.8558 O   0  0  0  0  0  0  0  0  0  0  0  0
   15.7493  -17.3142   15.6769 O   0  0  0  0  0  0  0  0  0  0  0  0
    7.9000  -13.0062   18.0654 N   0  0  0  0  0  0  0  0  0  0  0  0
    7.7461  -12.8970   19.4749 C   0  0  0  0  0  0  0  0  0  0  0  0
    7.1136  -11.9004   20.0169 N   0  0  0  0  0  0  0  0  0  0  0  0
    8.2667  -13.8675   20.3761 N   0  0  0  0  0  0  0  0  0  0  0  0
    9.4753  -14.5764   20.0440 C   0  0  0  0  0  0  0  0  0  0  0  0
    9.7427  -15.7251   21.0208 C   0  0  0  0  0  0  0  0  0  0  0  0
   11.0504  -16.3158   20.5882 C   0  0  0  0  0  0  0  0  0  0  0  0
   12.0457  -16.2895   21.6783 C   0  0  2  0  0  0  0  0  0  0  0  0
   13.2800  -16.9678   21.2908 N   0  0  0  0  0  0  0  0  0  0  0  0
   11.5514  -16.9180   22.9064 C   0  0  0  0  0  0  0  0  0  0  0  0
   10.7001  -16.3015   23.6250 O   0  0  0  0  0  0  0  0  0  0  0  0
    7.0020  -11.7463   21.0258 N   0  0  0  0  0  0  0  0  0  0  0  0
   12.5576  -21.7889   23.1320 C   0  0  0  0  0  0  0  0  0  0  0  0
   11.5124  -20.9774   23.6552 O   0  0  0  0  0  0  0  0  0  0  0  0
   10.3947  -20.9642   23.1149 C   0  0  0  0  0  0  0  0  0  0  0  0
   11.8068  -20.1618   24.8514 C   0  0  2  0  0  0  0  0  0  0  0  0
   11.4622  -18.7024   24.6005 N   0  0  0  0  0  0  0  0  0  0  0  0
   11.9793  -18.2059   23.3485 C   0  0  0  0  0  0  0  0  0  0  0  0
   11.9858  -17.9043   25.7118 O   0  0  0  0  0  0  0  0  0  0  0  0
   13.1442  -17.1410   25.5966 O   0  0  0  0  0  0  0  0  0  0  0  0
  2  1  1  6
  2  3  1  0
  3  4  1  0
  4  8  1  0
  5  4  2  0
  6  2  1  0
  6  7  2  0
  9 10  1  0
 10 12  1  0
 10 11  2  0
 12 13  1  0
 13 14  1  0
 16 15  1  6
 15 14  1  0
 16 17  1  0
 17  6  1  0
 18 16  1  0
 19 18  2  0
 20 21  1  0
 21 22  2  0
 21 23  1  0
 24 23  1  6
 24 26  1  0
 24 25  1  0
 25 18  1  0
 26 27  1  0
 28 26  2  0
M  END
$$$$
