STF.pdb
     RDKit          3D

 25 25  0  0  1  0  0  0  0  0999 V2000
   10.7120  -13.4571   19.7326 O   0  0  0  0  0  0  0  0  0  0  0  0
   10.1522  -14.2288   18.7340 C   0  0  0  0  0  0  0  0  0  0  0  0
    8.6461  -14.1050   18.6896 C   0  0  2  0  0  0  0  0  0  0  0  0
    8.2792  -12.8370   18.1398 N   0  0  0  0  0  0  0  0  0  0  0  0
    8.1084  -14.3203   20.0542 C   0  0  0  0  0  0  0  0  0  0  0  0
    7.8088  -13.3199   20.7350 O   0  0  0  0  0  0  0  0  0  0  0  0
    5.4411  -17.0919   20.7366 C   0  0  0  0  0  0  0  0  0  0  0  0
    6.5284  -17.1342   21.7918 C   0  0  1  0  0  0  0  0  0  0  0  0
    7.4060  -18.1876   21.5427 O   0  0  0  0  0  0  0  0  0  0  0  0
    7.2854  -15.8090   21.8250 C   0  0  2  0  0  0  0  0  0  0  0  0
    7.9390  -15.6275   20.5720 N   0  0  0  0  0  0  0  0  0  0  0  0
    8.2709  -15.9356   22.9574 C   0  0  0  0  0  0  0  0  0  0  0  0
    9.4991  -16.0706   22.7277 O   0  0  0  0  0  0  0  0  0  0  0  0
    7.8346  -15.9054   24.3128 N   0  0  0  0  0  0  0  0  0  0  0  0
    8.7226  -16.0139   25.4358 C   0  0  1  0  0  0  0  0  0  0  0  0
    9.2568  -14.6613   25.8454 C   0  0  0  0  0  0  0  0  0  0  0  0
    8.1897  -13.6670   26.0649 C   0  0  0  0  0  0  0  0  0  0  0  0
    7.5255  -13.5716   27.2667 C   0  0  0  0  0  0  0  0  0  0  0  0
    6.5189  -12.6323   27.4711 C   0  0  0  0  0  0  0  0  0  0  0  0
    6.1541  -11.7630   26.4688 C   0  0  0  0  0  0  0  0  0  0  0  0
    6.8128  -11.8505   25.2622 C   0  0  0  0  0  0  0  0  0  0  0  0
    7.8092  -12.7889   25.0776 C   0  0  0  0  0  0  0  0  0  0  0  0
    8.0822  -16.7271   26.5668 C   0  0  0  0  0  0  0  0  0  0  0  0
    6.9079  -17.1189   26.5712 O   0  0  0  0  0  0  0  0  0  0  0  0
    8.8479  -16.9738   27.6987 O   0  0  0  0  0  0  0  0  0  0  0  0
  2  1  1  0
  3  2  1  0
  3  4  1  1
  5  3  1  0
  6  5  2  0
  8  7  1  6
  8  9  1  0
  8 10  1  0
 10 11  1  6
 11  5  1  0
 12 10  1  0
 12 14  1  0
 13 12  2  0
 15 14  1  0
 15 23  1  0
 15 16  1  1
 16 17  1  0
 17 18  2  0
 18 19  1  0
 20 19  2  0
 21 22  2  0
 21 20  1  0
 22 17  1  0
 23 25  1  0
 24 23  2  0
M  END
$$$$
