STF.pdb
     RDKit          3D

 25 25  0  0  1  0  0  0  0  0999 V2000
    5.7913  -14.4122   19.6675 O   0  0  0  0  0  0  0  0  0  0  0  0
    6.2962  -15.2509   20.6410 C   0  0  0  0  0  0  0  0  0  0  0  0
    7.6276  -15.8497   20.2482 C   0  0  2  0  0  0  0  0  0  0  0  0
    7.4952  -16.5602   19.0143 N   0  0  0  0  0  0  0  0  0  0  0  0
    8.1132  -16.7046   21.3576 C   0  0  0  0  0  0  0  0  0  0  0  0
    7.4165  -17.6802   21.6993 O   0  0  0  0  0  0  0  0  0  0  0  0
   11.9738  -17.3968   21.8491 C   0  0  0  0  0  0  0  0  0  0  0  0
   10.8641  -18.2067   22.4893 C   0  0  1  0  0  0  0  0  0  0  0  0
   11.3773  -19.0245   23.4940 O   0  0  0  0  0  0  0  0  0  0  0  0
    9.7914  -17.2797   23.0554 C   0  0  2  0  0  0  0  0  0  0  0  0
    9.3363  -16.4215   22.0130 N   0  0  0  0  0  0  0  0  0  0  0  0
   10.4661  -16.5093   24.1603 C   0  0  0  0  0  0  0  0  0  0  0  0
   11.4582  -15.7765   23.9192 O   0  0  0  0  0  0  0  0  0  0  0  0
    9.9962  -16.5932   25.5021 N   0  0  0  0  0  0  0  0  0  0  0  0
   10.5678  -15.8533   26.5918 C   0  0  1  0  0  0  0  0  0  0  0  0
   10.4559  -14.3642   26.3622 C   0  0  0  0  0  0  0  0  0  0  0  0
    9.0672  -13.8747   26.4478 C   0  0  0  0  0  0  0  0  0  0  0  0
    8.7202  -12.8210   27.2627 C   0  0  0  0  0  0  0  0  0  0  0  0
    7.4089  -12.3611   27.3416 C   0  0  0  0  0  0  0  0  0  0  0  0
    6.4108  -12.9513   26.6006 C   0  0  0  0  0  0  0  0  0  0  0  0
    6.7478  -14.0066   25.7820 C   0  0  0  0  0  0  0  0  0  0  0  0
    8.0545  -14.4494   25.7166 C   0  0  0  0  0  0  0  0  0  0  0  0
    9.9838  -16.2633   27.8913 C   0  0  0  0  0  0  0  0  0  0  0  0
    9.0814  -17.1011   28.0190 O   0  0  0  0  0  0  0  0  0  0  0  0
   10.4798  -15.6698   29.0447 O   0  0  0  0  0  0  0  0  0  0  0  0
  2  1  1  0
  3  2  1  0
  3  4  1  6
  5  3  1  0
  6  5  2  0
  8  7  1  1
  8  9  1  0
  8 10  1  0
 10 11  1  6
 11  5  1  0
 12 10  1  0
 12 14  1  0
 13 12  2  0
 15 14  1  0
 15 23  1  0
 15 16  1  6
 16 17  1  0
 17 18  2  0
 18 19  1  0
 20 19  2  0
 21 22  2  0
 21 20  1  0
 22 17  1  0
 23 25  1  0
 24 23  2  0
M  END
$$$$
