STF.pdb
     RDKit          3D

 25 25  0  0  1  0  0  0  0  0999 V2000
    8.9974  -13.3584   20.7964 O   0  0  0  0  0  0  0  0  0  0  0  0
    8.1865  -14.1009   19.9616 C   0  0  0  0  0  0  0  0  0  0  0  0
    8.4515  -15.5850   20.0756 C   0  0  2  0  0  0  0  0  0  0  0  0
    7.6842  -16.2916   19.0975 N   0  0  0  0  0  0  0  0  0  0  0  0
    8.1582  -16.0178   21.4627 C   0  0  0  0  0  0  0  0  0  0  0  0
    6.9780  -16.2882   21.7595 O   0  0  0  0  0  0  0  0  0  0  0  0
    8.5393  -18.9869   22.7903 C   0  0  0  0  0  0  0  0  0  0  0  0
    9.3981  -18.1382   23.7065 C   0  0  1  0  0  0  0  0  0  0  0  0
   10.7339  -18.1992   23.3143 O   0  0  0  0  0  0  0  0  0  0  0  0
    8.9087  -16.6922   23.7013 C   0  0  2  0  0  0  0  0  0  0  0  0
    9.1906  -16.1217   22.4265 N   0  0  0  0  0  0  0  0  0  0  0  0
    9.6711  -16.0043   24.8036 C   0  0  0  0  0  0  0  0  0  0  0  0
   10.7556  -15.4161   24.5640 O   0  0  0  0  0  0  0  0  0  0  0  0
    9.1815  -16.0042   26.1409 N   0  0  0  0  0  0  0  0  0  0  0  0
    9.8811  -15.4062   27.2430 C   0  0  1  0  0  0  0  0  0  0  0  0
    8.9347  -14.6581   28.1526 C   0  0  0  0  0  0  0  0  0  0  0  0
    8.1605  -13.6212   27.4448 C   0  0  0  0  0  0  0  0  0  0  0  0
    8.6644  -12.3574   27.2368 C   0  0  0  0  0  0  0  0  0  0  0  0
    7.9317  -11.3808   26.5685 C   0  0  0  0  0  0  0  0  0  0  0  0
    6.6698  -11.6519   26.0913 C   0  0  0  0  0  0  0  0  0  0  0  0
    6.1563  -12.9138   26.2944 C   0  0  0  0  0  0  0  0  0  0  0  0
    6.8982  -13.8702   26.9598 C   0  0  0  0  0  0  0  0  0  0  0  0
   10.6893  -16.4072   27.9798 C   0  0  0  0  0  0  0  0  0  0  0  0
   10.6567  -17.6261   27.7662 O   0  0  0  0  0  0  0  0  0  0  0  0
   11.5409  -15.9504   28.9771 O   0  0  0  0  0  0  0  0  0  0  0  0
  2  1  1  0
  3  2  1  0
  3  4  1  6
  5  3  1  0
  6  5  2  0
  8  7  1  6
  8  9  1  0
  8 10  1  0
 10 11  1  6
 11  5  1  0
 12 10  1  0
 12 14  1  0
 13 12  2  0
 15 14  1  0
 15 23  1  0
 15 16  1  1
 16 17  1  0
 17 18  2  0
 18 19  1  0
 20 19  2  0
 21 22  2  0
 21 20  1  0
 22 17  1  0
 23 25  1  0
 24 23  2  0
M  END
$$$$
