STF.pdb
     RDKit          3D

 25 25  0  0  1  0  0  0  0  0999 V2000
    9.2055  -11.5636   19.2641 O   0  0  0  0  0  0  0  0  0  0  0  0
    8.4363  -12.5374   19.8690 C   0  0  0  0  0  0  0  0  0  0  0  0
    8.4973  -13.8563   19.1324 C   0  0  2  0  0  0  0  0  0  0  0  0
    7.6966  -13.7892   17.9496 N   0  0  0  0  0  0  0  0  0  0  0  0
    8.0766  -14.9384   20.0540 C   0  0  0  0  0  0  0  0  0  0  0  0
    7.2027  -15.7380   19.6655 O   0  0  0  0  0  0  0  0  0  0  0  0
    9.0578  -18.6700   22.2181 C   0  0  0  0  0  0  0  0  0  0  0  0
    9.1461  -17.4073   21.3843 C   0  0  1  0  0  0  0  0  0  0  0  0
    8.5844  -17.6159   20.1262 O   0  0  0  0  0  0  0  0  0  0  0  0
    8.4431  -16.2536   22.0950 C   0  0  2  0  0  0  0  0  0  0  0  0
    8.6516  -15.0618   21.3424 N   0  0  0  0  0  0  0  0  0  0  0  0
    9.0783  -16.1728   23.4587 C   0  0  0  0  0  0  0  0  0  0  0  0
   10.2860  -15.8495   23.5865 O   0  0  0  0  0  0  0  0  0  0  0  0
    8.3261  -16.4605   24.6333 N   0  0  0  0  0  0  0  0  0  0  0  0
    8.7648  -16.1268   25.9591 C   0  0  1  0  0  0  0  0  0  0  0  0
    7.6124  -15.6579   26.8164 C   0  0  0  0  0  0  0  0  0  0  0  0
    7.3008  -14.2291   26.6245 C   0  0  0  0  0  0  0  0  0  0  0  0
    6.0041  -13.7781   26.5252 C   0  0  0  0  0  0  0  0  0  0  0  0
    5.7128  -12.4292   26.3442 C   0  0  0  0  0  0  0  0  0  0  0  0
    6.7216  -11.4973   26.2582 C   0  0  0  0  0  0  0  0  0  0  0  0
    8.0228  -11.9384   26.3564 C   0  0  0  0  0  0  0  0  0  0  0  0
    8.2927  -13.2810   26.5359 C   0  0  0  0  0  0  0  0  0  0  0  0
    9.5051  -17.2490   26.5842 C   0  0  0  0  0  0  0  0  0  0  0  0
   10.2098  -17.1438   27.5965 O   0  0  0  0  0  0  0  0  0  0  0  0
    9.4035  -18.5035   25.9974 O   0  0  0  0  0  0  0  0  0  0  0  0
  2  1  1  0
  3  2  1  0
  3  4  1  6
  5  3  1  0
  6  5  2  0
  8  7  1  1
  8  9  1  0
  8 10  1  0
 10 11  1  6
 11  5  1  0
 12 10  1  0
 12 14  1  0
 13 12  2  0
 15 14  1  0
 15 23  1  0
 15 16  1  1
 16 17  1  0
 17 18  2  0
 18 19  1  0
 20 19  2  0
 21 22  2  0
 21 20  1  0
 22 17  1  0
 23 25  1  0
 24 23  2  0
M  END
$$$$
