STF.pdb
     RDKit          3D

 25 25  0  0  1  0  0  0  0  0999 V2000
   13.2167  -19.0751   20.5849 O   0  0  0  0  0  0  0  0  0  0  0  0
   12.1251  -19.3784   19.7960 C   0  0  0  0  0  0  0  0  0  0  0  0
   11.6901  -18.2076   18.9441 C   0  0  2  0  0  0  0  0  0  0  0  0
   12.7727  -17.7846   18.1112 N   0  0  0  0  0  0  0  0  0  0  0  0
   11.1891  -17.1309   19.8313 C   0  0  0  0  0  0  0  0  0  0  0  0
   11.9066  -16.1261   20.0030 O   0  0  0  0  0  0  0  0  0  0  0  0
    7.4866  -15.6061   19.8482 C   0  0  0  0  0  0  0  0  0  0  0  0
    7.9303  -16.1345   21.1978 C   0  0  1  0  0  0  0  0  0  0  0  0
    7.4054  -17.4064   21.4178 O   0  0  0  0  0  0  0  0  0  0  0  0
    9.4544  -16.1678   21.2780 C   0  0  2  0  0  0  0  0  0  0  0  0
    9.9286  -17.2397   20.4678 N   0  0  0  0  0  0  0  0  0  0  0  0
    9.7772  -16.3813   22.7339 C   0  0  0  0  0  0  0  0  0  0  0  0
   10.1105  -17.5163   23.1581 O   0  0  0  0  0  0  0  0  0  0  0  0
    9.7125  -15.3034   23.6625 N   0  0  0  0  0  0  0  0  0  0  0  0
    9.9051  -15.4603   25.0766 C   0  0  1  0  0  0  0  0  0  0  0  0
    9.8827  -14.1258   25.7847 C   0  0  0  0  0  0  0  0  0  0  0  0
   10.0680  -14.2485   27.2428 C   0  0  0  0  0  0  0  0  0  0  0  0
   11.2318  -14.7442   27.7853 C   0  0  0  0  0  0  0  0  0  0  0  0
   11.4040  -14.8588   29.1617 C   0  0  0  0  0  0  0  0  0  0  0  0
   10.4068  -14.4767   30.0295 C   0  0  0  0  0  0  0  0  0  0  0  0
    9.2380  -13.9793   29.4964 C   0  0  0  0  0  0  0  0  0  0  0  0
    9.0851  -13.8728   28.1279 C   0  0  0  0  0  0  0  0  0  0  0  0
    8.9293  -16.4153   25.6543 C   0  0  0  0  0  0  0  0  0  0  0  0
    7.7146  -16.4036   25.4160 O   0  0  0  0  0  0  0  0  0  0  0  0
    9.4064  -17.3896   26.5213 O   0  0  0  0  0  0  0  0  0  0  0  0
  2  1  1  0
  3  2  1  0
  3  4  1  1
  5  3  1  0
  6  5  2  0
  8  7  1  6
  8  9  1  0
  8 10  1  0
 10 11  1  6
 11  5  1  0
 12 10  1  0
 12 14  1  0
 13 12  2  0
 15 14  1  0
 15 23  1  0
 15 16  1  1
 16 17  1  0
 17 18  2  0
 18 19  1  0
 20 19  2  0
 21 22  2  0
 21 20  1  0
 22 17  1  0
 23 25  1  0
 24 23  2  0
M  END
$$$$
