STF.pdb
     RDKit          3D

 25 25  0  0  1  0  0  0  0  0999 V2000
    6.8732  -17.4129   19.2702 O   0  0  0  0  0  0  0  0  0  0  0  0
    8.0433  -16.8997   18.7474 C   0  0  0  0  0  0  0  0  0  0  0  0
    9.0912  -17.9676   18.5299 C   0  0  2  0  0  0  0  0  0  0  0  0
    8.5934  -18.9596   17.6283 N   0  0  0  0  0  0  0  0  0  0  0  0
    9.4835  -18.5273   19.8452 C   0  0  0  0  0  0  0  0  0  0  0  0
    9.4898  -19.7665   19.9811 O   0  0  0  0  0  0  0  0  0  0  0  0
   11.5674  -19.9585   20.7007 C   0  0  0  0  0  0  0  0  0  0  0  0
   11.7620  -18.8633   21.7303 C   0  0  1  0  0  0  0  0  0  0  0  0
   12.6343  -17.8907   21.2456 O   0  0  0  0  0  0  0  0  0  0  0  0
   10.4190  -18.2369   22.0969 C   0  0  2  0  0  0  0  0  0  0  0  0
    9.8421  -17.6779   20.9202 N   0  0  0  0  0  0  0  0  0  0  0  0
   10.7336  -17.1796   23.1229 C   0  0  0  0  0  0  0  0  0  0  0  0
   10.6250  -15.9595   22.8418 O   0  0  0  0  0  0  0  0  0  0  0  0
   11.1609  -17.5373   24.4336 N   0  0  0  0  0  0  0  0  0  0  0  0
   11.2078  -16.6153   25.5331 C   0  0  1  0  0  0  0  0  0  0  0  0
    9.8419  -16.4285   26.1512 C   0  0  0  0  0  0  0  0  0  0  0  0
    9.8414  -15.4478   27.2528 C   0  0  0  0  0  0  0  0  0  0  0  0
    9.3505  -14.1726   27.0864 C   0  0  0  0  0  0  0  0  0  0  0  0
    9.3513  -13.2491   28.1277 C   0  0  0  0  0  0  0  0  0  0  0  0
    9.8474  -13.5860   29.3662 C   0  0  0  0  0  0  0  0  0  0  0  0
   10.3410  -14.8598   29.5430 C   0  0  0  0  0  0  0  0  0  0  0  0
   10.3321  -15.7629   28.4980 C   0  0  0  0  0  0  0  0  0  0  0  0
   12.2239  -17.0173   26.5352 C   0  0  0  0  0  0  0  0  0  0  0  0
   12.3080  -18.1489   27.0302 O   0  0  0  0  0  0  0  0  0  0  0  0
   13.1444  -16.0632   26.9485 O   0  0  0  0  0  0  0  0  0  0  0  0
  2  1  1  0
  3  2  1  0
  3  4  1  6
  5  3  1  0
  6  5  2  0
  8  7  1  6
  8  9  1  0
  8 10  1  0
 10 11  1  6
 11  5  1  0
 12 10  1  0
 12 14  1  0
 13 12  2  0
 15 14  1  0
 15 23  1  0
 15 16  1  1
 16 17  1  0
 17 18  2  0
 18 19  1  0
 20 19  2  0
 21 22  2  0
 21 20  1  0
 22 17  1  0
 23 25  1  0
 24 23  2  0
M  END
$$$$
