STF.pdb
     RDKit          3D

 25 25  0  0  1  0  0  0  0  0999 V2000
    9.6406  -12.2403   19.9801 O   0  0  0  0  0  0  0  0  0  0  0  0
    8.7972  -12.4247   18.9029 C   0  0  0  0  0  0  0  0  0  0  0  0
    8.6366  -13.8843   18.5432 C   0  0  2  0  0  0  0  0  0  0  0  0
    7.8476  -14.0081   17.3571 N   0  0  0  0  0  0  0  0  0  0  0  0
    8.0531  -14.6008   19.7024 C   0  0  0  0  0  0  0  0  0  0  0  0
    6.8176  -14.5569   19.8623 O   0  0  0  0  0  0  0  0  0  0  0  0
    7.7351  -17.9502   20.0961 C   0  0  0  0  0  0  0  0  0  0  0  0
    8.4820  -17.5593   21.3557 C   0  0  1  0  0  0  0  0  0  0  0  0
    9.8394  -17.8457   21.2240 O   0  0  0  0  0  0  0  0  0  0  0  0
    8.2788  -16.0757   21.6526 C   0  0  2  0  0  0  0  0  0  0  0  0
    8.8765  -15.3167   20.6053 N   0  0  0  0  0  0  0  0  0  0  0  0
    8.9554  -15.8328   22.9765 C   0  0  0  0  0  0  0  0  0  0  0  0
   10.1449  -15.4301   23.0254 O   0  0  0  0  0  0  0  0  0  0  0  0
    8.2641  -16.0534   24.2019 N   0  0  0  0  0  0  0  0  0  0  0  0
    8.8066  -15.7258   25.4902 C   0  0  1  0  0  0  0  0  0  0  0  0
    7.7132  -15.3826   26.4748 C   0  0  0  0  0  0  0  0  0  0  0  0
    7.2408  -13.9915   26.3436 C   0  0  0  0  0  0  0  0  0  0  0  0
    8.1076  -12.9240   26.4048 C   0  0  0  0  0  0  0  0  0  0  0  0
    7.6592  -11.6123   26.2806 C   0  0  0  0  0  0  0  0  0  0  0  0
    6.3236  -11.3406   26.0912 C   0  0  0  0  0  0  0  0  0  0  0  0
    5.4479  -12.4021   26.0284 C   0  0  0  0  0  0  0  0  0  0  0  0
    5.9112  -13.6972   26.1538 C   0  0  0  0  0  0  0  0  0  0  0  0
    9.6945  -16.8008   25.9943 C   0  0  0  0  0  0  0  0  0  0  0  0
    9.7265  -17.9517   25.5395 O   0  0  0  0  0  0  0  0  0  0  0  0
   10.5488  -16.5000   27.0470 O   0  0  0  0  0  0  0  0  0  0  0  0
  2  1  1  0
  3  2  1  0
  3  4  1  6
  5  3  1  0
  6  5  2  0
  8  7  1  6
  8  9  1  0
  8 10  1  0
 10 11  1  6
 11  5  1  0
 12 10  1  0
 12 14  1  0
 13 12  2  0
 15 14  1  0
 15 23  1  0
 15 16  1  1
 16 17  1  0
 17 18  2  0
 18 19  1  0
 20 19  2  0
 21 22  2  0
 21 20  1  0
 22 17  1  0
 23 25  1  0
 24 23  2  0
M  END
$$$$
