STF.pdb
     RDKit          3D

 25 25  0  0  1  0  0  0  0  0999 V2000
   10.4825  -13.1594   19.7358 O   0  0  0  0  0  0  0  0  0  0  0  0
   10.3724  -14.1487   18.7791 C   0  0  0  0  0  0  0  0  0  0  0  0
    8.9461  -14.3444   18.3177 C   0  0  2  0  0  0  0  0  0  0  0  0
    8.4983  -13.1806   17.6178 N   0  0  0  0  0  0  0  0  0  0  0  0
    8.1041  -14.6712   19.4931 C   0  0  0  0  0  0  0  0  0  0  0  0
    6.8659  -14.5904   19.3729 O   0  0  0  0  0  0  0  0  0  0  0  0
    8.0138  -17.8183   20.7658 C   0  0  0  0  0  0  0  0  0  0  0  0
    7.0693  -16.7451   21.2693 C   0  0  1  0  0  0  0  0  0  0  0  0
    6.2542  -17.2508   22.2800 O   0  0  0  0  0  0  0  0  0  0  0  0
    7.8588  -15.5409   21.7763 C   0  0  2  0  0  0  0  0  0  0  0  0
    8.6895  -15.0652   20.7210 N   0  0  0  0  0  0  0  0  0  0  0  0
    8.6686  -16.0503   22.9400 C   0  0  0  0  0  0  0  0  0  0  0  0
    9.6844  -16.7657   22.7513 O   0  0  0  0  0  0  0  0  0  0  0  0
    8.3025  -15.7336   24.2794 N   0  0  0  0  0  0  0  0  0  0  0  0
    9.2337  -15.7052   25.3719 C   0  0  1  0  0  0  0  0  0  0  0  0
    9.5220  -14.2884   25.8104 C   0  0  0  0  0  0  0  0  0  0  0  0
    8.3077  -13.5574   26.2185 C   0  0  0  0  0  0  0  0  0  0  0  0
    7.3562  -13.1669   25.3037 C   0  0  0  0  0  0  0  0  0  0  0  0
    6.2113  -12.4771   25.6916 C   0  0  0  0  0  0  0  0  0  0  0  0
    5.9940  -12.1618   27.0133 C   0  0  0  0  0  0  0  0  0  0  0  0
    6.9404  -12.5482   27.9367 C   0  0  0  0  0  0  0  0  0  0  0  0
    8.0705  -13.2321   27.5332 C   0  0  0  0  0  0  0  0  0  0  0  0
    8.7762  -16.5556   26.4969 C   0  0  0  0  0  0  0  0  0  0  0  0
    7.6791  -17.1277   26.5396 O   0  0  0  0  0  0  0  0  0  0  0  0
    9.6331  -16.7240   27.5767 O   0  0  0  0  0  0  0  0  0  0  0  0
  2  1  1  0
  3  2  1  0
  3  4  1  1
  5  3  1  0
  6  5  2  0
  8  7  1  1
  8  9  1  0
  8 10  1  0
 10 11  1  6
 11  5  1  0
 12 10  1  0
 12 14  1  0
 13 12  2  0
 15 14  1  0
 15 23  1  0
 15 16  1  1
 16 17  1  0
 17 18  2  0
 18 19  1  0
 20 19  2  0
 21 22  2  0
 21 20  1  0
 22 17  1  0
 23 25  1  0
 24 23  2  0
M  END
$$$$
