STF.pdb
     RDKit          3D

 25 25  0  0  1  0  0  0  0  0999 V2000
   13.1917  -14.3267   19.1300 O   0  0  0  0  0  0  0  0  0  0  0  0
   12.2114  -14.8987   19.9160 C   0  0  0  0  0  0  0  0  0  0  0  0
   10.9189  -15.1072   19.1600 C   0  0  2  0  0  0  0  0  0  0  0  0
   10.8199  -14.1565   18.0965 N   0  0  0  0  0  0  0  0  0  0  0  0
    9.7881  -15.0255   20.1149 C   0  0  0  0  0  0  0  0  0  0  0  0
    8.9987  -14.0659   20.0141 O   0  0  0  0  0  0  0  0  0  0  0  0
    6.9467  -16.7831   20.0988 C   0  0  0  0  0  0  0  0  0  0  0  0
    7.4992  -17.0933   21.4757 C   0  0  1  0  0  0  0  0  0  0  0  0
    8.1645  -18.3176   21.4675 O   0  0  0  0  0  0  0  0  0  0  0  0
    8.4399  -15.9807   21.9313 C   0  0  2  0  0  0  0  0  0  0  0  0
    9.6079  -16.0110   21.1159 N   0  0  0  0  0  0  0  0  0  0  0  0
    8.7554  -16.2843   23.3728 C   0  0  0  0  0  0  0  0  0  0  0  0
    9.9018  -16.6726   23.7113 O   0  0  0  0  0  0  0  0  0  0  0  0
    7.7636  -16.1387   24.3844 N   0  0  0  0  0  0  0  0  0  0  0  0
    8.0412  -16.2388   25.7895 C   0  0  1  0  0  0  0  0  0  0  0  0
    6.9871  -15.5312   26.6087 C   0  0  0  0  0  0  0  0  0  0  0  0
    6.9811  -14.0718   26.3959 C   0  0  0  0  0  0  0  0  0  0  0  0
    5.8239  -13.3886   26.0979 C   0  0  0  0  0  0  0  0  0  0  0  0
    5.8211  -12.0112   25.8976 C   0  0  0  0  0  0  0  0  0  0  0  0
    6.9857  -11.2844   25.9923 C   0  0  0  0  0  0  0  0  0  0  0  0
    8.1493  -11.9588   26.2900 C   0  0  0  0  0  0  0  0  0  0  0  0
    8.1328  -13.3260   26.4856 C   0  0  0  0  0  0  0  0  0  0  0  0
    8.2196  -17.6498   26.2081 C   0  0  0  0  0  0  0  0  0  0  0  0
    7.8394  -18.6274   25.5506 O   0  0  0  0  0  0  0  0  0  0  0  0
    8.8553  -17.8950   27.4181 O   0  0  0  0  0  0  0  0  0  0  0  0
  2  1  1  0
  3  2  1  0
  3  4  1  6
  5  3  1  0
  6  5  2  0
  8  7  1  6
  8  9  1  0
  8 10  1  0
 10 11  1  6
 11  5  1  0
 12 10  1  0
 12 14  1  0
 13 12  2  0
 15 14  1  0
 15 23  1  0
 15 16  1  1
 16 17  1  0
 17 18  2  0
 18 19  1  0
 20 19  2  0
 21 22  2  0
 21 20  1  0
 22 17  1  0
 23 25  1  0
 24 23  2  0
M  END
$$$$
