STF.pdb
     RDKit          3D

 25 25  0  0  1  0  0  0  0  0999 V2000
   11.2689  -12.6519   18.9557 O   0  0  0  0  0  0  0  0  0  0  0  0
   10.2020  -12.8590   19.8071 C   0  0  0  0  0  0  0  0  0  0  0  0
    9.1253  -13.7151   19.1798 C   0  0  2  0  0  0  0  0  0  0  0  0
    8.3755  -12.9407   18.2402 N   0  0  0  0  0  0  0  0  0  0  0  0
    8.2840  -14.2899   20.2565 C   0  0  0  0  0  0  0  0  0  0  0  0
    7.2539  -13.6739   20.5930 O   0  0  0  0  0  0  0  0  0  0  0  0
    6.8084  -17.7097   20.4204 C   0  0  0  0  0  0  0  0  0  0  0  0
    7.5928  -17.5042   21.7009 C   0  0  1  0  0  0  0  0  0  0  0  0
    8.8071  -18.1852   21.6412 O   0  0  0  0  0  0  0  0  0  0  0  0
    7.8301  -16.0158   21.9432 C   0  0  2  0  0  0  0  0  0  0  0  0
    8.6400  -15.5070   20.8871 N   0  0  0  0  0  0  0  0  0  0  0  0
    8.5284  -15.9301   23.2753 C   0  0  0  0  0  0  0  0  0  0  0  0
    9.7670  -15.7271   23.3392 O   0  0  0  0  0  0  0  0  0  0  0  0
    7.8025  -16.0770   24.4918 N   0  0  0  0  0  0  0  0  0  0  0  0
    8.4013  -15.9689   25.7922 C   0  0  1  0  0  0  0  0  0  0  0  0
    7.4275  -15.4029   26.7992 C   0  0  0  0  0  0  0  0  0  0  0  0
    7.1895  -13.9588   26.6162 C   0  0  0  0  0  0  0  0  0  0  0  0
    5.9183  -13.4314   26.5975 C   0  0  0  0  0  0  0  0  0  0  0  0
    5.6966  -12.0683   26.4246 C   0  0  0  0  0  0  0  0  0  0  0  0
    6.7513  -11.1988   26.2657 C   0  0  0  0  0  0  0  0  0  0  0  0
    8.0276  -11.7168   26.2828 C   0  0  0  0  0  0  0  0  0  0  0  0
    8.2282  -13.0723   26.4556 C   0  0  0  0  0  0  0  0  0  0  0  0
    8.9735  -17.2628   26.2352 C   0  0  0  0  0  0  0  0  0  0  0  0
    9.6719  -17.4086   27.2470 O   0  0  0  0  0  0  0  0  0  0  0  0
    8.7106  -18.3888   25.4662 O   0  0  0  0  0  0  0  0  0  0  0  0
  2  1  1  0
  3  2  1  0
  3  4  1  6
  5  3  1  0
  6  5  2  0
  8  7  1  6
  8  9  1  0
  8 10  1  0
 10 11  1  6
 11  5  1  0
 12 10  1  0
 12 14  1  0
 13 12  2  0
 15 14  1  0
 15 23  1  0
 15 16  1  1
 16 17  1  0
 17 18  2  0
 18 19  1  0
 20 19  2  0
 21 22  2  0
 21 20  1  0
 22 17  1  0
 23 25  1  0
 24 23  2  0
M  END
$$$$
