STF.pdb
     RDKit          3D

 25 25  0  0  1  0  0  0  0  0999 V2000
    9.9856  -19.1082   20.4030 O   0  0  0  0  0  0  0  0  0  0  0  0
    9.0752  -18.6216   19.4863 C   0  0  0  0  0  0  0  0  0  0  0  0
    9.5457  -17.3411   18.8348 C   0  0  2  0  0  0  0  0  0  0  0  0
   10.7498  -17.5830   18.1024 N   0  0  0  0  0  0  0  0  0  0  0  0
    9.7047  -16.3029   19.8809 C   0  0  0  0  0  0  0  0  0  0  0  0
   10.8590  -16.0018   20.2430 O   0  0  0  0  0  0  0  0  0  0  0  0
    7.7330  -12.7933   20.3532 C   0  0  0  0  0  0  0  0  0  0  0  0
    7.5930  -13.7564   21.5151 C   0  0  1  0  0  0  0  0  0  0  0  0
    6.3788  -14.4359   21.4389 O   0  0  0  0  0  0  0  0  0  0  0  0
    8.7554  -14.7459   21.5253 C   0  0  2  0  0  0  0  0  0  0  0  0
    8.5758  -15.6689   20.4549 N   0  0  0  0  0  0  0  0  0  0  0  0
    8.6940  -15.4266   22.8679 C   0  0  0  0  0  0  0  0  0  0  0  0
    8.1221  -16.5380   22.9988 O   0  0  0  0  0  0  0  0  0  0  0  0
    9.2816  -14.8276   24.0186 N   0  0  0  0  0  0  0  0  0  0  0  0
    9.0824  -15.3116   25.3555 C   0  0  1  0  0  0  0  0  0  0  0  0
    7.6272  -15.2367   25.7549 C   0  0  0  0  0  0  0  0  0  0  0  0
    7.2289  -13.8940   26.2172 C   0  0  0  0  0  0  0  0  0  0  0  0
    5.9136  -13.5759   26.4693 C   0  0  0  0  0  0  0  0  0  0  0  0
    5.5405  -12.3079   26.9055 C   0  0  0  0  0  0  0  0  0  0  0  0
    6.4840  -11.3252   27.0996 C   0  0  0  0  0  0  0  0  0  0  0  0
    7.8031  -11.6335   26.8501 C   0  0  0  0  0  0  0  0  0  0  0  0
    8.1546  -12.8972   26.4177 C   0  0  0  0  0  0  0  0  0  0  0  0
    9.6391  -16.6748   25.5276 C   0  0  0  0  0  0  0  0  0  0  0  0
   10.1581  -17.3377   24.6199 O   0  0  0  0  0  0  0  0  0  0  0  0
    9.5759  -17.2498   26.7900 O   0  0  0  0  0  0  0  0  0  0  0  0
  2  1  1  0
  3  2  1  0
  3  4  1  1
  5  3  1  0
  6  5  2  0
  8  7  1  6
  8  9  1  0
  8 10  1  0
 10 11  1  6
 11  5  1  0
 12 10  1  0
 12 14  1  0
 13 12  2  0
 15 14  1  0
 15 23  1  0
 15 16  1  6
 16 17  1  0
 17 18  2  0
 18 19  1  0
 20 19  2  0
 21 22  2  0
 21 20  1  0
 22 17  1  0
 23 25  1  0
 24 23  2  0
M  END
$$$$
