STF.pdb
     RDKit          3D

 25 25  0  0  1  0  0  0  0  0999 V2000
    6.2771  -19.5373   22.9445 O   0  0  0  0  0  0  0  0  0  0  0  0
    5.1694  -18.7135   22.9615 C   0  0  0  0  0  0  0  0  0  0  0  0
    4.9967  -17.9576   21.6637 C   0  0  2  0  0  0  0  0  0  0  0  0
    4.6070  -18.8596   20.6247 N   0  0  0  0  0  0  0  0  0  0  0  0
    6.2552  -17.2357   21.3598 C   0  0  0  0  0  0  0  0  0  0  0  0
    6.6852  -17.2658   20.1902 O   0  0  0  0  0  0  0  0  0  0  0  0
    8.3172  -13.2543   21.2377 C   0  0  0  0  0  0  0  0  0  0  0  0
    7.3159  -14.3853   21.3628 C   0  0  1  0  0  0  0  0  0  0  0  0
    6.8000  -14.7178   20.1118 O   0  0  0  0  0  0  0  0  0  0  0  0
    7.9718  -15.6038   22.0076 C   0  0  2  0  0  0  0  0  0  0  0  0
    6.9518  -16.5298   22.3709 N   0  0  0  0  0  0  0  0  0  0  0  0
    8.7048  -15.0765   23.2136 C   0  0  0  0  0  0  0  0  0  0  0  0
    8.8134  -13.8398   23.4091 O   0  0  0  0  0  0  0  0  0  0  0  0
    9.2909  -15.9657   24.1590 N   0  0  0  0  0  0  0  0  0  0  0  0
    9.1800  -15.7994   25.5808 C   0  0  1  0  0  0  0  0  0  0  0  0
    7.7440  -15.5824   25.9975 C   0  0  0  0  0  0  0  0  0  0  0  0
    7.4367  -14.1671   26.2763 C   0  0  0  0  0  0  0  0  0  0  0  0
    6.1707  -13.6542   26.1058 C   0  0  0  0  0  0  0  0  0  0  0  0
    5.8834  -12.3182   26.3696 C   0  0  0  0  0  0  0  0  0  0  0  0
    6.8652  -11.4620   26.8130 C   0  0  0  0  0  0  0  0  0  0  0  0
    8.1355  -11.9655   26.9868 C   0  0  0  0  0  0  0  0  0  0  0  0
    8.4020  -13.2942   26.7199 C   0  0  0  0  0  0  0  0  0  0  0  0
    9.8085  -16.9273   26.3096 C   0  0  0  0  0  0  0  0  0  0  0  0
    9.7608  -18.1090   25.9439 O   0  0  0  0  0  0  0  0  0  0  0  0
   10.4975  -16.6427   27.4812 O   0  0  0  0  0  0  0  0  0  0  0  0
  2  1  1  0
  3  2  1  0
  3  4  1  6
  5  3  1  0
  6  5  2  0
  8  7  1  6
  8  9  1  0
  8 10  1  0
 10 11  1  1
 11  5  1  0
 12 10  1  0
 12 14  1  0
 13 12  2  0
 15 14  1  0
 15 23  1  0
 15 16  1  6
 16 17  1  0
 17 18  2  0
 18 19  1  0
 20 19  2  0
 21 22  2  0
 21 20  1  0
 22 17  1  0
 23 25  1  0
 24 23  2  0
M  END
$$$$
