STF.pdb
     RDKit          3D

 25 25  0  0  1  0  0  0  0  0999 V2000
   10.3508  -13.8454   19.2568 O   0  0  0  0  0  0  0  0  0  0  0  0
    9.4422  -14.5258   18.4711 C   0  0  0  0  0  0  0  0  0  0  0  0
    8.0256  -14.0417   18.6821 C   0  0  2  0  0  0  0  0  0  0  0  0
    7.9592  -12.6288   18.4720 N   0  0  0  0  0  0  0  0  0  0  0  0
    7.5790  -14.4459   20.0365 C   0  0  0  0  0  0  0  0  0  0  0  0
    7.4155  -13.5560   20.8941 O   0  0  0  0  0  0  0  0  0  0  0  0
    5.9985  -18.0188   23.0437 C   0  0  0  0  0  0  0  0  0  0  0  0
    6.4794  -17.6160   21.6639 C   0  0  1  0  0  0  0  0  0  0  0  0
    5.4595  -17.7765   20.7281 O   0  0  0  0  0  0  0  0  0  0  0  0
    6.9672  -16.1695   21.6749 C   0  0  2  0  0  0  0  0  0  0  0  0
    7.3439  -15.8069   20.3495 N   0  0  0  0  0  0  0  0  0  0  0  0
    8.1427  -16.1473   22.6169 C   0  0  0  0  0  0  0  0  0  0  0  0
    9.2721  -16.5533   22.2442 O   0  0  0  0  0  0  0  0  0  0  0  0
    8.0019  -15.6662   23.9500 N   0  0  0  0  0  0  0  0  0  0  0  0
    9.0978  -15.5400   24.8689 C   0  0  1  0  0  0  0  0  0  0  0  0
    9.4537  -14.0903   25.1025 C   0  0  0  0  0  0  0  0  0  0  0  0
    8.3338  -13.3087   25.6594 C   0  0  0  0  0  0  0  0  0  0  0  0
    8.2705  -12.9859   26.9959 C   0  0  0  0  0  0  0  0  0  0  0  0
    7.2125  -12.2481   27.5189 C   0  0  0  0  0  0  0  0  0  0  0  0
    6.1885  -11.8151   26.7079 C   0  0  0  0  0  0  0  0  0  0  0  0
    6.2425  -12.1329   25.3688 C   0  0  0  0  0  0  0  0  0  0  0  0
    7.3004  -12.8660   24.8677 C   0  0  0  0  0  0  0  0  0  0  0  0
    8.8285  -16.2600   26.1366 C   0  0  0  0  0  0  0  0  0  0  0  0
    9.6534  -16.4024   27.0486 O   0  0  0  0  0  0  0  0  0  0  0  0
    7.5673  -16.8129   26.3165 O   0  0  0  0  0  0  0  0  0  0  0  0
  2  1  1  0
  3  2  1  0
  3  4  1  1
  5  3  1  0
  6  5  2  0
  8  7  1  1
  8  9  1  0
  8 10  1  0
 10 11  1  6
 11  5  1  0
 12 10  1  0
 12 14  1  0
 13 12  2  0
 15 14  1  0
 15 23  1  0
 15 16  1  1
 16 17  1  0
 17 18  2  0
 18 19  1  0
 20 19  2  0
 21 22  2  0
 21 20  1  0
 22 17  1  0
 23 25  1  0
 24 23  2  0
M  END
$$$$
