PFD.pdb
     RDKit          3D

 27 28  0  0  1  0  0  0  0  0999 V2000
    7.0264  -14.6305   20.4958 N   0  0  0  0  0  0  0  0  0  0  0  0
    6.5776  -13.6325   19.5380 C   0  0  0  0  0  0  0  0  0  0  0  0
    7.2646  -12.3862   20.1033 C   0  0  0  0  0  0  0  0  0  0  0  0
    8.6699  -12.9186   20.3198 C   0  0  0  0  0  0  0  0  0  0  0  0
    8.4514  -14.3760   20.5936 C   0  0  1  0  0  0  0  0  0  0  0  0
    8.9518  -14.6856   21.9562 C   0  0  0  0  0  0  0  0  0  0  0  0
   10.1676  -14.5063   22.1972 O   0  0  0  0  0  0  0  0  0  0  0  0
    8.0417  -15.1712   22.9338 N   0  0  0  0  0  0  0  0  0  0  0  0
    8.4457  -15.4467   24.2745 C   0  0  1  0  0  0  0  0  0  0  0  0
    7.3376  -15.3010   25.2944 C   0  0  0  0  0  0  0  0  0  0  0  0
    7.1854  -13.8845   25.7132 C   0  0  0  0  0  0  0  0  0  0  0  0
    8.2486  -13.2333   26.3359 C   0  0  0  0  0  0  0  0  0  0  0  0
    8.0522  -11.9221   26.7016 C   0  0  0  0  0  0  0  0  0  0  0  0
    6.8681  -11.2697   26.4707 C   0  0  0  0  0  0  0  0  0  0  0  0
    5.8373  -11.9345   25.8558 C   0  0  0  0  0  0  0  0  0  0  0  0
    5.9919  -13.2614   25.4688 C   0  0  0  0  0  0  0  0  0  0  0  0
    9.1215  -16.7624   24.4158 C   0  0  0  0  0  0  0  0  0  0  0  0
    8.5452  -17.7706   23.9820 O   0  0  0  0  0  0  0  0  0  0  0  0
   10.3752  -16.8872   25.0184 N   0  0  0  0  0  0  0  0  0  0  0  0
   11.1398  -18.1294   25.0970 C   0  0  1  0  0  0  0  0  0  0  0  0
   12.6107  -17.8863   24.9775 C   0  0  0  0  0  0  0  0  0  0  0  0
   13.3431  -19.1533   25.1586 C   0  0  0  0  0  0  0  0  0  0  0  0
   13.2059  -20.1222   24.3308 O   0  0  0  0  0  0  0  0  0  0  0  0
   10.8584  -18.6657   26.4457 C   0  0  0  0  0  0  0  0  0  0  0  0
   10.3630  -17.9234   27.3164 O   0  0  0  0  0  0  0  0  0  0  0  0
   14.2183  -19.4260   26.1977 O   0  0  0  0  0  0  0  0  0  0  0  0
   11.1289  -19.9709   26.7723 O   0  0  0  0  0  0  0  0  0  0  0  0
  1  2  1  0
  3  2  1  0
  4  5  1  0
  4  3  1  0
  5  6  1  1
  5  1  1  0
  6  7  2  0
  8  9  1  0
  8  6  1  0
 10 11  1  0
  9 10  1  1
 11 16  2  0
 12 13  2  0
 12 11  1  0
 13 14  1  0
 14 15  2  0
 16 15  1  0
 17 18  2  0
 17  9  1  0
 19 17  1  0
 20 24  1  0
 20 19  1  0
 20 21  1  1
 22 21  1  0
 22 26  1  0
 23 22  2  0
 24 27  1  0
 25 24  2  0
M  END
$$$$
