PFD.pdb
     RDKit          3D

 27 28  0  0  1  0  0  0  0  0999 V2000
    7.0734  -14.9726   20.5962 N   0  0  0  0  0  0  0  0  0  0  0  0
    6.3680  -14.1277   19.6457 C   0  0  0  0  0  0  0  0  0  0  0  0
    6.9001  -12.7526   20.0587 C   0  0  0  0  0  0  0  0  0  0  0  0
    8.3883  -13.0433   20.1366 C   0  0  0  0  0  0  0  0  0  0  0  0
    8.4402  -14.4935   20.5119 C   0  0  1  0  0  0  0  0  0  0  0  0
    9.1279  -14.6231   21.8208 C   0  0  0  0  0  0  0  0  0  0  0  0
   10.3563  -14.3841   21.8724 O   0  0  0  0  0  0  0  0  0  0  0  0
    8.3755  -15.0109   22.9624 N   0  0  0  0  0  0  0  0  0  0  0  0
    8.9479  -15.0520   24.2690 C   0  0  1  0  0  0  0  0  0  0  0  0
    7.9731  -14.7268   25.3795 C   0  0  0  0  0  0  0  0  0  0  0  0
    8.6878  -14.4855   26.6586 C   0  0  0  0  0  0  0  0  0  0  0  0
    9.0378  -15.5665   27.4655 C   0  0  0  0  0  0  0  0  0  0  0  0
    9.6989  -15.2846   28.6381 C   0  0  0  0  0  0  0  0  0  0  0  0
   10.0076  -14.0015   29.0114 C   0  0  0  0  0  0  0  0  0  0  0  0
    9.6513  -12.9554   28.1982 C   0  0  0  0  0  0  0  0  0  0  0  0
    8.9815  -13.1941   27.0030 C   0  0  0  0  0  0  0  0  0  0  0  0
    9.6585  -16.3266   24.5490 C   0  0  0  0  0  0  0  0  0  0  0  0
    9.0019  -17.3780   24.5567 O   0  0  0  0  0  0  0  0  0  0  0  0
   11.0318  -16.3662   24.8003 N   0  0  0  0  0  0  0  0  0  0  0  0
   11.7990  -17.5868   25.0355 C   0  0  1  0  0  0  0  0  0  0  0  0
   13.2656  -17.3689   24.8396 C   0  0  0  0  0  0  0  0  0  0  0  0
   13.5268  -16.9424   23.4524 C   0  0  0  0  0  0  0  0  0  0  0  0
   12.9569  -17.5233   22.4621 O   0  0  0  0  0  0  0  0  0  0  0  0
   11.5572  -17.9215   26.4551 C   0  0  0  0  0  0  0  0  0  0  0  0
   11.1678  -19.0649   26.7641 O   0  0  0  0  0  0  0  0  0  0  0  0
   14.3803  -15.9157   23.0820 O   0  0  0  0  0  0  0  0  0  0  0  0
   11.7507  -17.0014   27.4548 O   0  0  0  0  0  0  0  0  0  0  0  0
  1  2  1  0
  3  2  1  0
  4  5  1  0
  4  3  1  0
  5  6  1  1
  5  1  1  0
  6  7  2  0
  8  9  1  0
  8  6  1  0
 10 11  1  0
  9 10  1  1
 11 16  2  0
 12 13  2  0
 12 11  1  0
 13 14  1  0
 14 15  2  0
 16 15  1  0
 17 18  2  0
 17  9  1  0
 19 17  1  0
 20 24  1  0
 20 19  1  0
 20 21  1  1
 22 21  1  0
 22 26  1  0
 23 22  2  0
 24 27  1  0
 25 24  2  0
M  END
$$$$
