PFD.pdb
     RDKit          3D

 27 28  0  0  1  0  0  0  0  0999 V2000
    7.2310  -15.0060   20.4228 N   0  0  0  0  0  0  0  0  0  0  0  0
    6.6576  -14.1931   19.3621 C   0  0  0  0  0  0  0  0  0  0  0  0
    7.0421  -12.7950   19.8543 C   0  0  0  0  0  0  0  0  0  0  0  0
    8.5076  -13.0117   20.1870 C   0  0  0  0  0  0  0  0  0  0  0  0
    8.5665  -14.4592   20.5717 C   0  0  1  0  0  0  0  0  0  0  0  0
    9.0256  -14.5602   21.9796 C   0  0  0  0  0  0  0  0  0  0  0  0
   10.1887  -14.1847   22.2532 O   0  0  0  0  0  0  0  0  0  0  0  0
    8.1371  -15.0755   22.9618 N   0  0  0  0  0  0  0  0  0  0  0  0
    8.5402  -15.2797   24.3155 C   0  0  1  0  0  0  0  0  0  0  0  0
    7.4079  -15.1939   25.3154 C   0  0  0  0  0  0  0  0  0  0  0  0
    7.1755  -13.7882   25.7337 C   0  0  0  0  0  0  0  0  0  0  0  0
    8.2145  -13.0622   26.3132 C   0  0  0  0  0  0  0  0  0  0  0  0
    7.9432  -11.7649   26.6805 C   0  0  0  0  0  0  0  0  0  0  0  0
    6.7097  -11.1958   26.4917 C   0  0  0  0  0  0  0  0  0  0  0  0
    5.7043  -11.9330   25.9188 C   0  0  0  0  0  0  0  0  0  0  0  0
    5.9341  -13.2490   25.5319 C   0  0  0  0  0  0  0  0  0  0  0  0
    9.3158  -16.5329   24.5049 C   0  0  0  0  0  0  0  0  0  0  0  0
    8.8064  -17.6022   24.1391 O   0  0  0  0  0  0  0  0  0  0  0  0
   10.5893  -16.5332   25.0783 N   0  0  0  0  0  0  0  0  0  0  0  0
   11.3962  -17.7285   25.3103 C   0  0  1  0  0  0  0  0  0  0  0  0
   12.8607  -17.4267   25.2771 C   0  0  0  0  0  0  0  0  0  0  0  0
   13.2309  -16.8910   23.9540 C   0  0  0  0  0  0  0  0  0  0  0  0
   13.9231  -15.8180   23.8435 O   0  0  0  0  0  0  0  0  0  0  0  0
   11.0369  -18.1725   26.6740 C   0  0  0  0  0  0  0  0  0  0  0  0
   10.2903  -17.4653   27.3788 O   0  0  0  0  0  0  0  0  0  0  0  0
   12.8849  -17.4601   22.7390 O   0  0  0  0  0  0  0  0  0  0  0  0
   11.5054  -19.3530   27.1936 O   0  0  0  0  0  0  0  0  0  0  0  0
  1  2  1  0
  3  2  1  0
  4  5  1  0
  4  3  1  0
  5  6  1  1
  5  1  1  0
  6  7  2  0
  8  9  1  0
  8  6  1  0
 10 11  1  0
  9 10  1  1
 11 16  2  0
 12 13  2  0
 12 11  1  0
 13 14  1  0
 14 15  2  0
 16 15  1  0
 17 18  2  0
 17  9  1  0
 19 17  1  0
 20 24  1  0
 20 19  1  0
 20 21  1  1
 22 21  1  0
 22 26  1  0
 23 22  2  0
 24 27  1  0
 25 24  2  0
M  END
$$$$
