PFD.pdb
     RDKit          3D

 27 28  0  0  1  0  0  0  0  0999 V2000
    7.0326  -14.8481   20.2380 N   0  0  0  0  0  0  0  0  0  0  0  0
    6.5132  -13.9406   19.2273 C   0  0  0  0  0  0  0  0  0  0  0  0
    7.0015  -12.6021   19.7883 C   0  0  0  0  0  0  0  0  0  0  0  0
    8.4494  -12.9415   20.0943 C   0  0  0  0  0  0  0  0  0  0  0  0
    8.4053  -14.4079   20.4019 C   0  0  1  0  0  0  0  0  0  0  0  0
    8.8647  -14.6165   21.7977 C   0  0  0  0  0  0  0  0  0  0  0  0
   10.0477  -14.3211   22.0839 O   0  0  0  0  0  0  0  0  0  0  0  0
    7.9540  -15.1402   22.7549 N   0  0  0  0  0  0  0  0  0  0  0  0
    8.3227  -15.3457   24.1182 C   0  0  1  0  0  0  0  0  0  0  0  0
    7.1665  -15.2544   25.0899 C   0  0  0  0  0  0  0  0  0  0  0  0
    7.0941  -13.9036   25.7023 C   0  0  0  0  0  0  0  0  0  0  0  0
    8.2100  -13.3839   26.3558 C   0  0  0  0  0  0  0  0  0  0  0  0
    8.0867  -12.1285   26.9037 C   0  0  0  0  0  0  0  0  0  0  0  0
    6.9236  -11.4066   26.8193 C   0  0  0  0  0  0  0  0  0  0  0  0
    5.8398  -11.9420   26.1702 C   0  0  0  0  0  0  0  0  0  0  0  0
    5.9198  -13.2086   25.6012 C   0  0  0  0  0  0  0  0  0  0  0  0
    9.0878  -16.6022   24.3269 C   0  0  0  0  0  0  0  0  0  0  0  0
    8.5440  -17.6782   24.0381 O   0  0  0  0  0  0  0  0  0  0  0  0
   10.3889  -16.5985   24.8345 N   0  0  0  0  0  0  0  0  0  0  0  0
   11.2327  -17.7834   24.9676 C   0  0  1  0  0  0  0  0  0  0  0  0
   12.6873  -17.4409   24.9057 C   0  0  0  0  0  0  0  0  0  0  0  0
   13.4959  -18.6386   25.1994 C   0  0  0  0  0  0  0  0  0  0  0  0
   13.3794  -19.7050   24.4980 O   0  0  0  0  0  0  0  0  0  0  0  0
   10.9307  -18.3176   26.3127 C   0  0  0  0  0  0  0  0  0  0  0  0
   11.1835  -19.5095   26.5768 O   0  0  0  0  0  0  0  0  0  0  0  0
   14.4261  -18.7408   26.2212 O   0  0  0  0  0  0  0  0  0  0  0  0
   10.3741  -17.5323   27.2909 O   0  0  0  0  0  0  0  0  0  0  0  0
  1  2  1  0
  3  2  1  0
  4  5  1  0
  4  3  1  0
  5  6  1  1
  5  1  1  0
  6  7  2  0
  8  9  1  0
  8  6  1  0
 10 11  1  0
  9 10  1  1
 11 16  2  0
 12 13  2  0
 12 11  1  0
 13 14  1  0
 14 15  2  0
 16 15  1  0
 17 18  2  0
 17  9  1  0
 19 17  1  0
 20 24  1  0
 20 19  1  0
 20 21  1  1
 22 21  1  0
 22 26  1  0
 23 22  2  0
 24 27  1  0
 25 24  2  0
M  END
$$$$
