PFD.pdb
     RDKit          3D

 27 28  0  0  1  0  0  0  0  0999 V2000
    7.0680  -14.7841   20.5051 N   0  0  0  0  0  0  0  0  0  0  0  0
    6.5342  -13.8955   19.4852 C   0  0  0  0  0  0  0  0  0  0  0  0
    7.0479  -12.5491   20.0031 C   0  0  0  0  0  0  0  0  0  0  0  0
    8.4991  -12.8958   20.2842 C   0  0  0  0  0  0  0  0  0  0  0  0
    8.4482  -14.3540   20.6273 C   0  0  1  0  0  0  0  0  0  0  0  0
    8.9374  -14.5343   22.0170 C   0  0  0  0  0  0  0  0  0  0  0  0
   10.1370  -14.2719   22.2629 O   0  0  0  0  0  0  0  0  0  0  0  0
    8.0352  -14.9949   23.0139 N   0  0  0  0  0  0  0  0  0  0  0  0
    8.4746  -15.3672   24.3196 C   0  0  1  0  0  0  0  0  0  0  0  0
    7.4009  -15.2727   25.3815 C   0  0  0  0  0  0  0  0  0  0  0  0
    7.2009  -13.8649   25.8093 C   0  0  0  0  0  0  0  0  0  0  0  0
    5.9824  -13.2364   25.5593 C   0  0  0  0  0  0  0  0  0  0  0  0
    5.8525  -11.9328   25.9779 C   0  0  0  0  0  0  0  0  0  0  0  0
    6.8680  -11.2664   26.6148 C   0  0  0  0  0  0  0  0  0  0  0  0
    8.0577  -11.9088   26.8484 C   0  0  0  0  0  0  0  0  0  0  0  0
    8.2331  -13.2273   26.4423 C   0  0  0  0  0  0  0  0  0  0  0  0
    9.1297  -16.7005   24.3508 C   0  0  0  0  0  0  0  0  0  0  0  0
    8.4529  -17.6968   24.0575 O   0  0  0  0  0  0  0  0  0  0  0  0
   10.4736  -16.8545   24.6984 N   0  0  0  0  0  0  0  0  0  0  0  0
   11.1728  -18.1352   24.7680 C   0  0  1  0  0  0  0  0  0  0  0  0
   12.4311  -18.1271   23.9596 C   0  0  0  0  0  0  0  0  0  0  0  0
   13.1143  -16.8291   24.1111 C   0  0  0  0  0  0  0  0  0  0  0  0
   13.5963  -16.4618   25.2405 O   0  0  0  0  0  0  0  0  0  0  0  0
   11.5290  -18.2983   26.1936 C   0  0  0  0  0  0  0  0  0  0  0  0
   11.2963  -17.3758   26.9995 O   0  0  0  0  0  0  0  0  0  0  0  0
   13.2998  -15.9034   23.0970 O   0  0  0  0  0  0  0  0  0  0  0  0
   12.1147  -19.4473   26.6624 O   0  0  0  0  0  0  0  0  0  0  0  0
  1  2  1  0
  3  2  1  0
  4  5  1  0
  4  3  1  0
  5  6  1  1
  5  1  1  0
  6  7  2  0
  8  9  1  0
  8  6  1  0
 10 11  1  0
  9 10  1  1
 11 16  2  0
 12 13  2  0
 12 11  1  0
 13 14  1  0
 14 15  2  0
 16 15  1  0
 17 18  2  0
 17  9  1  0
 19 17  1  0
 20 24  1  0
 20 19  1  0
 20 21  1  6
 22 21  1  0
 22 26  1  0
 23 22  2  0
 24 27  1  0
 25 24  2  0
M  END
$$$$
