PFD.pdb
     RDKit          3D

 27 28  0  0  1  0  0  0  0  0999 V2000
    6.9091  -14.9595   20.3048 N   0  0  0  0  0  0  0  0  0  0  0  0
    6.3719  -14.1213   19.2448 C   0  0  0  0  0  0  0  0  0  0  0  0
    7.0616  -12.7941   19.5731 C   0  0  0  0  0  0  0  0  0  0  0  0
    8.4917  -13.2656   19.7674 C   0  0  0  0  0  0  0  0  0  0  0  0
    8.3302  -14.6700   20.2656 C   0  0  1  0  0  0  0  0  0  0  0  0
    8.9274  -14.7669   21.6209 C   0  0  0  0  0  0  0  0  0  0  0  0
   10.1750  -14.7302   21.7241 O   0  0  0  0  0  0  0  0  0  0  0  0
    8.0703  -14.8971   22.7471 N   0  0  0  0  0  0  0  0  0  0  0  0
    8.5744  -14.9472   24.0812 C   0  0  1  0  0  0  0  0  0  0  0  0
    7.6083  -14.4310   25.1250 C   0  0  0  0  0  0  0  0  0  0  0  0
    8.2907  -14.2378   26.4296 C   0  0  0  0  0  0  0  0  0  0  0  0
    8.4125  -15.3129   27.3080 C   0  0  0  0  0  0  0  0  0  0  0  0
    9.0542  -15.0770   28.5014 C   0  0  0  0  0  0  0  0  0  0  0  0
    9.5578  -13.8438   28.8277 C   0  0  0  0  0  0  0  0  0  0  0  0
    9.4242  -12.8023   27.9445 C   0  0  0  0  0  0  0  0  0  0  0  0
    8.7824  -12.9956   26.7259 C   0  0  0  0  0  0  0  0  0  0  0  0
    9.0855  -16.2911   24.4559 C   0  0  0  0  0  0  0  0  0  0  0  0
    8.2805  -17.2318   24.5173 O   0  0  0  0  0  0  0  0  0  0  0  0
   10.4351  -16.5156   24.7368 N   0  0  0  0  0  0  0  0  0  0  0  0
   11.0065  -17.8133   25.0876 C   0  0  1  0  0  0  0  0  0  0  0  0
   12.1255  -18.1949   24.1714 C   0  0  0  0  0  0  0  0  0  0  0  0
   13.0197  -17.0403   23.9666 C   0  0  0  0  0  0  0  0  0  0  0  0
   13.6624  -16.5183   24.9450 O   0  0  0  0  0  0  0  0  0  0  0  0
   11.5525  -17.6340   26.4498 C   0  0  0  0  0  0  0  0  0  0  0  0
   11.6292  -16.4905   26.9406 O   0  0  0  0  0  0  0  0  0  0  0  0
   13.2515  -16.4181   22.7505 O   0  0  0  0  0  0  0  0  0  0  0  0
   11.9824  -18.7002   27.1992 O   0  0  0  0  0  0  0  0  0  0  0  0
  1  2  1  0
  3  2  1  0
  4  5  1  0
  4  3  1  0
  5  6  1  1
  5  1  1  0
  6  7  2  0
  8  9  1  0
  8  6  1  0
 10 11  1  0
  9 10  1  1
 11 16  2  0
 12 13  2  0
 12 11  1  0
 13 14  1  0
 14 15  2  0
 16 15  1  0
 17 18  2  0
 17  9  1  0
 19 17  1  0
 20 24  1  0
 20 19  1  0
 20 21  1  6
 22 21  1  0
 22 26  1  0
 23 22  2  0
 24 27  1  0
 25 24  2  0
M  END
$$$$
