PFD.pdb
     RDKit          3D

 27 28  0  0  1  0  0  0  0  0999 V2000
    7.2375  -15.0783   20.2983 N   0  0  0  0  0  0  0  0  0  0  0  0
    6.7507  -14.2804   19.1843 C   0  0  0  0  0  0  0  0  0  0  0  0
    7.1523  -12.8806   19.6577 C   0  0  0  0  0  0  0  0  0  0  0  0
    8.5892  -13.1322   20.0789 C   0  0  0  0  0  0  0  0  0  0  0  0
    8.5797  -14.5686   20.5072 C   0  0  1  0  0  0  0  0  0  0  0  0
    8.9560  -14.6413   21.9410 C   0  0  0  0  0  0  0  0  0  0  0  0
   10.1167  -14.3030   22.2682 O   0  0  0  0  0  0  0  0  0  0  0  0
    7.9944  -15.0887   22.8870 N   0  0  0  0  0  0  0  0  0  0  0  0
    8.3200  -15.2875   24.2622 C   0  0  1  0  0  0  0  0  0  0  0  0
    7.1436  -15.1376   25.2020 C   0  0  0  0  0  0  0  0  0  0  0  0
    7.0610  -13.7527   25.7311 C   0  0  0  0  0  0  0  0  0  0  0  0
    8.2205  -13.1106   26.1620 C   0  0  0  0  0  0  0  0  0  0  0  0
    8.0852  -11.8288   26.6418 C   0  0  0  0  0  0  0  0  0  0  0  0
    6.8697  -11.1961   26.7003 C   0  0  0  0  0  0  0  0  0  0  0  0
    5.7437  -11.8513   26.2696 C   0  0  0  0  0  0  0  0  0  0  0  0
    5.8340  -13.1487   25.7767 C   0  0  0  0  0  0  0  0  0  0  0  0
    9.0305  -16.5690   24.5086 C   0  0  0  0  0  0  0  0  0  0  0  0
    8.4907  -17.6225   24.1407 O   0  0  0  0  0  0  0  0  0  0  0  0
   10.2770  -16.6127   25.1372 N   0  0  0  0  0  0  0  0  0  0  0  0
   11.0540  -17.8296   25.3586 C   0  0  1  0  0  0  0  0  0  0  0  0
   12.5252  -17.5601   25.3501 C   0  0  0  0  0  0  0  0  0  0  0  0
   12.9373  -17.0775   24.0190 C   0  0  0  0  0  0  0  0  0  0  0  0
   13.2433  -15.8480   23.8254 O   0  0  0  0  0  0  0  0  0  0  0  0
   10.6665  -18.2891   26.7094 C   0  0  0  0  0  0  0  0  0  0  0  0
    9.9159  -17.5836   27.4118 O   0  0  0  0  0  0  0  0  0  0  0  0
   13.0320  -17.8625   22.8812 O   0  0  0  0  0  0  0  0  0  0  0  0
   11.1129  -19.4822   27.2196 O   0  0  0  0  0  0  0  0  0  0  0  0
  1  2  1  0
  3  2  1  0
  4  5  1  0
  4  3  1  0
  5  6  1  1
  5  1  1  0
  6  7  2  0
  8  9  1  0
  8  6  1  0
 10 11  1  0
  9 10  1  1
 11 16  2  0
 12 13  2  0
 12 11  1  0
 13 14  1  0
 14 15  2  0
 16 15  1  0
 17 18  2  0
 17  9  1  0
 19 17  1  0
 20 24  1  0
 20 19  1  0
 20 21  1  1
 22 21  1  0
 22 26  1  0
 23 22  2  0
 24 27  1  0
 25 24  2  0
M  END
$$$$
