PFD.pdb
     RDKit          3D

 27 28  0  0  1  0  0  0  0  0999 V2000
    7.6471  -17.1286   20.3769 N   0  0  0  0  0  0  0  0  0  0  0  0
    6.9412  -17.2216   19.1089 C   0  0  0  0  0  0  0  0  0  0  0  0
    6.6549  -15.7400   18.8488 C   0  0  0  0  0  0  0  0  0  0  0  0
    8.0228  -15.1411   19.1233 C   0  0  0  0  0  0  0  0  0  0  0  0
    8.6122  -16.0715   20.1399 C   0  0  1  0  0  0  0  0  0  0  0  0
    8.8791  -15.3098   21.3855 C   0  0  0  0  0  0  0  0  0  0  0  0
    9.7667  -14.4265   21.3627 O   0  0  0  0  0  0  0  0  0  0  0  0
    8.1245  -15.6060   22.5528 N   0  0  0  0  0  0  0  0  0  0  0  0
    8.2403  -14.8323   23.7464 C   0  0  1  0  0  0  0  0  0  0  0  0
    6.9640  -14.7521   24.5551 C   0  0  0  0  0  0  0  0  0  0  0  0
    7.0636  -13.7017   25.6000 C   0  0  0  0  0  0  0  0  0  0  0  0
    6.7862  -12.3760   25.2713 C   0  0  0  0  0  0  0  0  0  0  0  0
    6.8936  -11.4455   26.2784 C   0  0  0  0  0  0  0  0  0  0  0  0
    7.2565  -11.7906   27.5551 C   0  0  0  0  0  0  0  0  0  0  0  0
    7.5242  -13.1033   27.8516 C   0  0  0  0  0  0  0  0  0  0  0  0
    7.4281  -14.0779   26.8641 C   0  0  0  0  0  0  0  0  0  0  0  0
    9.3794  -15.2555   24.6014 C   0  0  0  0  0  0  0  0  0  0  0  0
    9.5608  -14.6652   25.6763 O   0  0  0  0  0  0  0  0  0  0  0  0
   10.2393  -16.2900   24.2261 N   0  0  0  0  0  0  0  0  0  0  0  0
   11.3707  -16.7604   25.0215 C   0  0  1  0  0  0  0  0  0  0  0  0
   11.3403  -18.2438   25.2099 C   0  0  0  0  0  0  0  0  0  0  0  0
   10.4456  -18.5872   26.3307 C   0  0  0  0  0  0  0  0  0  0  0  0
    9.3720  -19.2607   26.1392 O   0  0  0  0  0  0  0  0  0  0  0  0
   12.5673  -16.4102   24.2269 C   0  0  0  0  0  0  0  0  0  0  0  0
   12.5027  -16.4000   22.9818 O   0  0  0  0  0  0  0  0  0  0  0  0
   10.6545  -18.2335   27.6539 O   0  0  0  0  0  0  0  0  0  0  0  0
   13.7609  -16.0924   24.8249 O   0  0  0  0  0  0  0  0  0  0  0  0
  1  2  1  0
  3  2  1  0
  4  5  1  0
  4  3  1  0
  5  6  1  1
  5  1  1  0
  6  7  2  0
  8  9  1  0
  8  6  1  0
 10 11  1  0
  9 10  1  1
 11 16  2  0
 12 13  2  0
 12 11  1  0
 13 14  1  0
 14 15  2  0
 16 15  1  0
 17 18  2  0
 17  9  1  0
 19 17  1  0
 20 24  1  0
 20 19  1  0
 20 21  1  6
 22 21  1  0
 22 26  1  0
 23 22  2  0
 24 27  1  0
 25 24  2  0
M  END
$$$$
