PFD.pdb
     RDKit          3D

 27 28  0  0  1  0  0  0  0  0999 V2000
    7.4276  -14.9432   18.9756 N   0  0  0  0  0  0  0  0  0  0  0  0
    7.0452  -14.3391   17.7093 C   0  0  0  0  0  0  0  0  0  0  0  0
    7.3464  -12.8679   18.0091 C   0  0  0  0  0  0  0  0  0  0  0  0
    8.7335  -12.9869   18.6147 C   0  0  0  0  0  0  0  0  0  0  0  0
    8.7209  -14.3450   19.2488 C   0  0  1  0  0  0  0  0  0  0  0  0
    8.9347  -14.1914   20.7095 C   0  0  0  0  0  0  0  0  0  0  0  0
   10.0650  -13.8293   21.1093 O   0  0  0  0  0  0  0  0  0  0  0  0
    7.8582  -14.4583   21.5983 N   0  0  0  0  0  0  0  0  0  0  0  0
    7.9838  -14.2963   23.0106 C   0  0  1  0  0  0  0  0  0  0  0  0
    6.7391  -13.7588   23.6824 C   0  0  0  0  0  0  0  0  0  0  0  0
    7.0029  -13.4375   25.1079 C   0  0  0  0  0  0  0  0  0  0  0  0
    6.6418  -14.3505   26.0970 C   0  0  0  0  0  0  0  0  0  0  0  0
    6.9104  -14.0013   27.3999 C   0  0  0  0  0  0  0  0  0  0  0  0
    7.5067  -12.8107   27.7280 C   0  0  0  0  0  0  0  0  0  0  0  0
    7.8520  -11.9297   26.7345 C   0  0  0  0  0  0  0  0  0  0  0  0
    7.5991  -12.2417   25.4029 C   0  0  0  0  0  0  0  0  0  0  0  0
    8.4608  -15.5267   23.6934 C   0  0  0  0  0  0  0  0  0  0  0  0
    7.8167  -16.5744   23.5380 O   0  0  0  0  0  0  0  0  0  0  0  0
    9.6039  -15.5295   24.4959 N   0  0  0  0  0  0  0  0  0  0  0  0
   10.4361  -16.7020   24.7532 C   0  0  1  0  0  0  0  0  0  0  0  0
   11.8684  -16.4568   24.3988 C   0  0  0  0  0  0  0  0  0  0  0  0
   12.6825  -17.6298   24.7677 C   0  0  0  0  0  0  0  0  0  0  0  0
   12.4430  -18.7859   24.2689 O   0  0  0  0  0  0  0  0  0  0  0  0
   10.3424  -16.9236   26.2120 C   0  0  0  0  0  0  0  0  0  0  0  0
   10.8573  -17.9399   26.7183 O   0  0  0  0  0  0  0  0  0  0  0  0
   13.7457  -17.6139   25.6560 O   0  0  0  0  0  0  0  0  0  0  0  0
    9.6984  -16.0344   27.0352 O   0  0  0  0  0  0  0  0  0  0  0  0
  1  2  1  0
  3  2  1  0
  4  5  1  0
  4  3  1  0
  5  6  1  1
  5  1  1  0
  6  7  2  0
  8  9  1  0
  8  6  1  0
 10 11  1  0
  9 10  1  1
 11 16  2  0
 12 13  2  0
 12 11  1  0
 13 14  1  0
 14 15  2  0
 16 15  1  0
 17 18  2  0
 17  9  1  0
 19 17  1  0
 20 24  1  0
 20 19  1  0
 20 21  1  1
 22 21  1  0
 22 26  1  0
 23 22  2  0
 24 27  1  0
 25 24  2  0
M  END
$$$$
