PFD.pdb
     RDKit          3D

 27 28  0  0  1  0  0  0  0  0999 V2000
    6.9097  -14.7790   20.2146 N   0  0  0  0  0  0  0  0  0  0  0  0
    6.3125  -13.8768   19.2429 C   0  0  0  0  0  0  0  0  0  0  0  0
    6.8430  -12.5354   19.7569 C   0  0  0  0  0  0  0  0  0  0  0  0
    8.3105  -12.8735   19.9503 C   0  0  0  0  0  0  0  0  0  0  0  0
    8.2910  -14.3382   20.2681 C   0  0  1  0  0  0  0  0  0  0  0  0
    8.8583  -14.5394   21.6248 C   0  0  0  0  0  0  0  0  0  0  0  0
   10.0771  -14.3094   21.7988 O   0  0  0  0  0  0  0  0  0  0  0  0
    8.0064  -14.9830   22.6723 N   0  0  0  0  0  0  0  0  0  0  0  0
    8.4840  -15.1896   24.0012 C   0  0  1  0  0  0  0  0  0  0  0  0
    7.3929  -15.2326   25.0485 C   0  0  0  0  0  0  0  0  0  0  0  0
    7.1781  -13.8900   25.6456 C   0  0  0  0  0  0  0  0  0  0  0  0
    5.9685  -13.2300   25.4373 C   0  0  0  0  0  0  0  0  0  0  0  0
    5.8241  -11.9900   26.0143 C   0  0  0  0  0  0  0  0  0  0  0  0
    6.8173  -11.4143   26.7647 C   0  0  0  0  0  0  0  0  0  0  0  0
    7.9987  -12.0859   26.9541 C   0  0  0  0  0  0  0  0  0  0  0  0
    8.1881  -13.3425   26.3890 C   0  0  0  0  0  0  0  0  0  0  0  0
    9.3729  -16.3745   24.1182 C   0  0  0  0  0  0  0  0  0  0  0  0
    8.9496  -17.4702   23.7222 O   0  0  0  0  0  0  0  0  0  0  0  0
   10.6580  -16.2826   24.6573 N   0  0  0  0  0  0  0  0  0  0  0  0
   11.6850  -17.3146   24.5384 C   0  0  1  0  0  0  0  0  0  0  0  0
   13.0468  -16.7257   24.3496 C   0  0  0  0  0  0  0  0  0  0  0  0
   14.0580  -17.7990   24.3352 C   0  0  0  0  0  0  0  0  0  0  0  0
   14.6974  -18.1212   25.3983 O   0  0  0  0  0  0  0  0  0  0  0  0
   11.6563  -18.0318   25.8310 C   0  0  0  0  0  0  0  0  0  0  0  0
   11.0430  -17.5399   26.7986 O   0  0  0  0  0  0  0  0  0  0  0  0
   14.4151  -18.5421   23.2217 O   0  0  0  0  0  0  0  0  0  0  0  0
   12.2916  -19.2364   26.0002 O   0  0  0  0  0  0  0  0  0  0  0  0
  1  2  1  0
  3  2  1  0
  4  5  1  0
  4  3  1  0
  5  6  1  1
  5  1  1  0
  6  7  2  0
  8  9  1  0
  8  6  1  0
 10 11  1  0
  9 10  1  1
 11 16  2  0
 12 13  2  0
 12 11  1  0
 13 14  1  0
 14 15  2  0
 16 15  1  0
 17 18  2  0
 17  9  1  0
 19 17  1  0
 20 24  1  0
 20 19  1  0
 20 21  1  1
 22 21  1  0
 22 26  1  0
 23 22  2  0
 24 27  1  0
 25 24  2  0
M  END
$$$$
