PFD.pdb
     RDKit          3D

 27 28  0  0  1  0  0  0  0  0999 V2000
    6.8870  -14.5981   20.2511 N   0  0  0  0  0  0  0  0  0  0  0  0
    6.3529  -13.6305   19.3059 C   0  0  0  0  0  0  0  0  0  0  0  0
    7.0237  -12.3528   19.8180 C   0  0  0  0  0  0  0  0  0  0  0  0
    8.4567  -12.8323   19.9662 C   0  0  0  0  0  0  0  0  0  0  0  0
    8.3052  -14.2923   20.2697 C   0  0  1  0  0  0  0  0  0  0  0  0
    8.8874  -14.5643   21.6076 C   0  0  0  0  0  0  0  0  0  0  0  0
   10.1146  -14.3747   21.7708 O   0  0  0  0  0  0  0  0  0  0  0  0
    8.0396  -15.0270   22.6502 N   0  0  0  0  0  0  0  0  0  0  0  0
    8.5006  -15.1735   23.9929 C   0  0  1  0  0  0  0  0  0  0  0  0
    7.3994  -15.1382   25.0299 C   0  0  0  0  0  0  0  0  0  0  0  0
    7.1924  -13.7578   25.5365 C   0  0  0  0  0  0  0  0  0  0  0  0
    8.2943  -12.9866   25.9016 C   0  0  0  0  0  0  0  0  0  0  0  0
    8.0438  -11.7155   26.3633 C   0  0  0  0  0  0  0  0  0  0  0  0
    6.7714  -11.2140   26.4658 C   0  0  0  0  0  0  0  0  0  0  0  0
    5.7042  -11.9947   26.0995 C   0  0  0  0  0  0  0  0  0  0  0  0
    5.9110  -13.2863   25.6271 C   0  0  0  0  0  0  0  0  0  0  0  0
    9.3625  -16.3691   24.1808 C   0  0  0  0  0  0  0  0  0  0  0  0
    8.8800  -17.4864   23.9453 O   0  0  0  0  0  0  0  0  0  0  0  0
   10.6870  -16.2638   24.6112 N   0  0  0  0  0  0  0  0  0  0  0  0
   11.6377  -17.3720   24.6542 C   0  0  1  0  0  0  0  0  0  0  0  0
   13.0469  -16.9039   24.4747 C   0  0  0  0  0  0  0  0  0  0  0  0
   13.9726  -18.0446   24.6027 C   0  0  0  0  0  0  0  0  0  0  0  0
   13.6163  -19.2284   24.2643 O   0  0  0  0  0  0  0  0  0  0  0  0
   11.4990  -17.9410   26.0118 C   0  0  0  0  0  0  0  0  0  0  0  0
   11.0743  -17.2276   26.9418 O   0  0  0  0  0  0  0  0  0  0  0  0
   15.2697  -17.9678   25.0838 O   0  0  0  0  0  0  0  0  0  0  0  0
   11.8273  -19.2457   26.2824 O   0  0  0  0  0  0  0  0  0  0  0  0
  1  2  1  0
  3  2  1  0
  4  5  1  0
  4  3  1  0
  5  6  1  1
  5  1  1  0
  6  7  2  0
  8  9  1  0
  8  6  1  0
 10 11  1  0
  9 10  1  1
 11 16  2  0
 12 13  2  0
 12 11  1  0
 13 14  1  0
 14 15  2  0
 16 15  1  0
 17 18  2  0
 17  9  1  0
 19 17  1  0
 20 24  1  0
 20 19  1  0
 20 21  1  1
 22 21  1  0
 22 26  1  0
 23 22  2  0
 24 27  1  0
 25 24  2  0
M  END
$$$$
