PFD.pdb
     RDKit          3D

 27 28  0  0  1  0  0  0  0  0999 V2000
    6.8845  -14.8158   20.3627 N   0  0  0  0  0  0  0  0  0  0  0  0
    6.3370  -13.8743   19.3990 C   0  0  0  0  0  0  0  0  0  0  0  0
    6.9240  -12.5656   19.9353 C   0  0  0  0  0  0  0  0  0  0  0  0
    8.3729  -12.9732   20.1351 C   0  0  0  0  0  0  0  0  0  0  0  0
    8.2839  -14.4395   20.4326 C   0  0  1  0  0  0  0  0  0  0  0  0
    8.8305  -14.6847   21.7906 C   0  0  0  0  0  0  0  0  0  0  0  0
   10.0501  -14.4778   21.9861 O   0  0  0  0  0  0  0  0  0  0  0  0
    7.9584  -15.1423   22.8153 N   0  0  0  0  0  0  0  0  0  0  0  0
    8.3998  -15.3256   24.1600 C   0  0  1  0  0  0  0  0  0  0  0  0
    7.2938  -15.2397   25.1888 C   0  0  0  0  0  0  0  0  0  0  0  0
    7.0966  -13.8386   25.6395 C   0  0  0  0  0  0  0  0  0  0  0  0
    8.1761  -13.1234   26.1548 C   0  0  0  0  0  0  0  0  0  0  0  0
    7.9362  -11.8300   26.5560 C   0  0  0  0  0  0  0  0  0  0  0  0
    6.6951  -11.2545   26.4598 C   0  0  0  0  0  0  0  0  0  0  0  0
    5.6494  -11.9812   25.9487 C   0  0  0  0  0  0  0  0  0  0  0  0
    5.8465  -13.2929   25.5306 C   0  0  0  0  0  0  0  0  0  0  0  0
    9.1939  -16.5680   24.3434 C   0  0  0  0  0  0  0  0  0  0  0  0
    8.6523  -17.6555   24.0970 O   0  0  0  0  0  0  0  0  0  0  0  0
   10.5198  -16.5385   24.7813 N   0  0  0  0  0  0  0  0  0  0  0  0
   11.4098  -17.6963   24.8159 C   0  0  1  0  0  0  0  0  0  0  0  0
   12.8425  -17.3025   24.6451 C   0  0  0  0  0  0  0  0  0  0  0  0
   13.7081  -18.4864   24.7996 C   0  0  0  0  0  0  0  0  0  0  0  0
   13.2094  -19.6613   24.9158 O   0  0  0  0  0  0  0  0  0  0  0  0
   11.2362  -18.2705   26.1672 C   0  0  0  0  0  0  0  0  0  0  0  0
   11.6448  -19.4237   26.4072 O   0  0  0  0  0  0  0  0  0  0  0  0
   15.0929  -18.4611   24.8377 O   0  0  0  0  0  0  0  0  0  0  0  0
   10.6320  -17.5647   27.1771 O   0  0  0  0  0  0  0  0  0  0  0  0
  1  2  1  0
  3  2  1  0
  4  5  1  0
  4  3  1  0
  5  6  1  1
  5  1  1  0
  6  7  2  0
  8  9  1  0
  8  6  1  0
 10 11  1  0
  9 10  1  1
 11 16  2  0
 12 13  2  0
 12 11  1  0
 13 14  1  0
 14 15  2  0
 16 15  1  0
 17 18  2  0
 17  9  1  0
 19 17  1  0
 20 24  1  0
 20 19  1  0
 20 21  1  1
 22 21  1  0
 22 26  1  0
 23 22  2  0
 24 27  1  0
 25 24  2  0
M  END
$$$$
