GTK.pdb
     RDKit          3D

 21 20  0  0  1  0  0  0  0  0999 V2000
    7.6424  -13.1048   17.3046 N   0  0  0  0  0  0  0  0  0  0  0  0
    8.6541  -12.7399   18.2701 C   0  0  0  0  0  0  0  0  0  0  0  0
    9.2607  -14.0004   18.7732 C   0  0  0  0  0  0  0  0  0  0  0  0
    8.5952  -15.0728   18.9013 O   0  0  0  0  0  0  0  0  0  0  0  0
   11.5798  -15.8272   17.1607 C   0  0  0  0  0  0  0  0  0  0  0  0
   12.2856  -15.6852   18.4921 C   0  0  1  0  0  0  0  0  0  0  0  0
   13.2648  -14.7164   18.3735 O   0  0  0  0  0  0  0  0  0  0  0  0
   11.2645  -15.2974   19.5703 C   0  0  2  0  0  0  0  0  0  0  0  0
   10.6427  -14.0843   19.1474 N   0  0  0  0  0  0  0  0  0  0  0  0
   11.9493  -15.1859   20.8779 C   0  0  0  0  0  0  0  0  0  0  0  0
   12.5625  -14.1322   21.1693 O   0  0  0  0  0  0  0  0  0  0  0  0
   11.9274  -16.2418   21.8060 N   0  0  0  0  0  0  0  0  0  0  0  0
   12.6076  -16.1752   23.1105 C   0  0  1  0  0  0  0  0  0  0  0  0
   12.1552  -17.3766   23.8610 C   0  0  0  0  0  0  0  0  0  0  0  0
   12.7045  -17.5692   25.2267 C   0  0  0  0  0  0  0  0  0  0  0  0
   12.2242  -18.9572   25.6800 C   0  0  0  0  0  0  0  0  0  0  0  0
   12.6834  -19.2505   27.0858 C   0  0  0  0  0  0  0  0  0  0  0  0
   11.5684  -19.8754   27.7735 N   0  0  0  0  0  0  0  0  0  0  0  0
   14.0787  -16.2447   22.9325 C   0  0  0  0  0  0  0  0  0  0  0  0
   14.5182  -16.8428   21.9184 O   0  0  0  0  0  0  0  0  0  0  0  0
   14.9958  -15.7014   23.7974 O   0  0  0  0  0  0  0  0  0  0  0  0
  1  2  1  0
  2  3  1  0
  3  4  2  0
  6  5  1  6
  6  8  1  0
  7  6  1  0
  8 10  1  0
  9  3  1  0
  8  9  1  6
 10 12  1  0
 10 11  2  0
 12 13  1  0
 13 19  1  0
 13 14  1  1
 14 15  1  0
 15 16  1  0
 16 17  1  0
 17 18  1  0
 19 21  1  0
 20 19  2  0
M  END
$$$$
