GTK.pdb
     RDKit          3D

 21 20  0  0  1  0  0  0  0  0999 V2000
   11.7521  -15.4145   16.8501 N   0  0  0  0  0  0  0  0  0  0  0  0
   10.7214  -16.0731   17.6201 C   0  0  0  0  0  0  0  0  0  0  0  0
   10.4936  -15.2583   18.8425 C   0  0  0  0  0  0  0  0  0  0  0  0
   11.4257  -14.6187   19.4182 O   0  0  0  0  0  0  0  0  0  0  0  0
    7.3741  -12.9302   19.6551 C   0  0  0  0  0  0  0  0  0  0  0  0
    7.5362  -13.9954   20.7182 C   0  0  1  0  0  0  0  0  0  0  0  0
    6.6518  -15.0244   20.4530 O   0  0  0  0  0  0  0  0  0  0  0  0
    8.9835  -14.5063   20.7098 C   0  0  2  0  0  0  0  0  0  0  0  0
    9.2000  -15.1432   19.4510 N   0  0  0  0  0  0  0  0  0  0  0  0
    9.1950  -15.4016   21.8695 C   0  0  0  0  0  0  0  0  0  0  0  0
    9.2914  -16.6382   21.6890 O   0  0  0  0  0  0  0  0  0  0  0  0
    9.2907  -14.8930   23.1767 N   0  0  0  0  0  0  0  0  0  0  0  0
    9.4747  -15.7523   24.3585 C   0  0  1  0  0  0  0  0  0  0  0  0
    9.6984  -14.8244   25.4987 C   0  0  0  0  0  0  0  0  0  0  0  0
    9.9297  -15.4333   26.8328 C   0  0  0  0  0  0  0  0  0  0  0  0
   10.0468  -14.2574   27.8159 C   0  0  0  0  0  0  0  0  0  0  0  0
   10.3720  -14.7493   29.2035 C   0  0  0  0  0  0  0  0  0  0  0  0
   10.4004  -13.5849   30.0694 N   0  0  0  0  0  0  0  0  0  0  0  0
    8.2491  -16.5468   24.6180 C   0  0  0  0  0  0  0  0  0  0  0  0
    7.1563  -16.0922   24.1957 O   0  0  0  0  0  0  0  0  0  0  0  0
    8.2231  -17.7450   25.2871 O   0  0  0  0  0  0  0  0  0  0  0  0
  1  2  1  0
  2  3  1  0
  3  4  2  0
  6  5  1  6
  6  8  1  0
  7  6  1  0
  8 10  1  0
  9  3  1  0
  8  9  1  6
 10 12  1  0
 10 11  2  0
 12 13  1  0
 13 19  1  0
 13 14  1  1
 14 15  1  0
 15 16  1  0
 16 17  1  0
 17 18  1  0
 19 21  1  0
 20 19  2  0
M  END
$$$$
