GTK.pdb
     RDKit          3D

 21 20  0  0  1  0  0  0  0  0999 V2000
    1.8193  -19.7528   20.8691 N   0  0  0  0  0  0  0  0  0  0  0  0
    2.3398  -18.4451   21.1970 C   0  0  0  0  0  0  0  0  0  0  0  0
    3.7730  -18.6160   21.5532 C   0  0  0  0  0  0  0  0  0  0  0  0
    4.3429  -19.7493   21.5590 O   0  0  0  0  0  0  0  0  0  0  0  0
    6.5127  -16.6096   20.0771 C   0  0  0  0  0  0  0  0  0  0  0  0
    6.7516  -16.5217   21.5692 C   0  0  1  0  0  0  0  0  0  0  0  0
    6.3289  -15.2826   22.0135 O   0  0  0  0  0  0  0  0  0  0  0  0
    5.9797  -17.6450   22.2749 C   0  0  2  0  0  0  0  0  0  0  0  0
    4.6057  -17.5055   21.9143 N   0  0  0  0  0  0  0  0  0  0  0  0
    6.2190  -17.5643   23.7335 C   0  0  0  0  0  0  0  0  0  0  0  0
    5.5279  -16.7875   24.4335 O   0  0  0  0  0  0  0  0  0  0  0  0
    7.2102  -18.3440   24.3550 N   0  0  0  0  0  0  0  0  0  0  0  0
    7.5609  -18.2068   25.7787 C   0  0  1  0  0  0  0  0  0  0  0  0
    7.3785  -19.5592   26.3693 C   0  0  0  0  0  0  0  0  0  0  0  0
    7.7814  -19.7398   27.7868 C   0  0  0  0  0  0  0  0  0  0  0  0
    7.5154  -21.2181   28.1133 C   0  0  0  0  0  0  0  0  0  0  0  0
    7.8490  -21.5174   29.5529 C   0  0  0  0  0  0  0  0  0  0  0  0
    8.5180  -22.8053   29.5733 N   0  0  0  0  0  0  0  0  0  0  0  0
    8.9812  -17.8047   25.9266 C   0  0  0  0  0  0  0  0  0  0  0  0
    9.3975  -17.5402   27.0824 O   0  0  0  0  0  0  0  0  0  0  0  0
    9.8748  -17.7011   24.8898 O   0  0  0  0  0  0  0  0  0  0  0  0
  1  2  1  0
  2  3  1  0
  3  4  2  0
  6  5  1  6
  6  8  1  0
  7  6  1  0
  8 10  1  0
  9  3  1  0
  8  9  1  1
 10 12  1  0
 10 11  2  0
 12 13  1  0
 13 19  1  0
 13 14  1  1
 14 15  1  0
 15 16  1  0
 16 17  1  0
 17 18  1  0
 19 21  1  0
 20 19  2  0
M  END
$$$$
