GTK.pdb
     RDKit          3D

 21 20  0  0  1  0  0  0  0  0999 V2000
    3.4406  -18.7544   21.4795 N   0  0  0  0  0  0  0  0  0  0  0  0
    3.9840  -17.4487   21.7768 C   0  0  0  0  0  0  0  0  0  0  0  0
    5.4442  -17.5044   21.5035 C   0  0  0  0  0  0  0  0  0  0  0  0
    6.0453  -18.5878   21.2308 O   0  0  0  0  0  0  0  0  0  0  0  0
    7.0088  -15.5182   18.9487 C   0  0  0  0  0  0  0  0  0  0  0  0
    7.8891  -15.2526   20.1509 C   0  0  1  0  0  0  0  0  0  0  0  0
    7.5758  -14.0073   20.6632 O   0  0  0  0  0  0  0  0  0  0  0  0
    7.6584  -16.3470   21.2021 C   0  0  2  0  0  0  0  0  0  0  0  0
    6.2695  -16.3318   21.5308 N   0  0  0  0  0  0  0  0  0  0  0  0
    8.5435  -16.1065   22.3640 C   0  0  0  0  0  0  0  0  0  0  0  0
    8.2198  -15.2546   23.2246 O   0  0  0  0  0  0  0  0  0  0  0  0
    9.7463  -16.8164   22.5248 N   0  0  0  0  0  0  0  0  0  0  0  0
   10.7310  -16.4961   23.5721 C   0  0  1  0  0  0  0  0  0  0  0  0
   10.9415  -17.7607   24.3256 C   0  0  0  0  0  0  0  0  0  0  0  0
   10.7943  -17.7027   25.8017 C   0  0  0  0  0  0  0  0  0  0  0  0
   11.0940  -19.1224   26.3091 C   0  0  0  0  0  0  0  0  0  0  0  0
   10.8869  -19.2135   27.7997 C   0  0  0  0  0  0  0  0  0  0  0  0
   11.1933  -20.5784   28.1869 N   0  0  0  0  0  0  0  0  0  0  0  0
   12.0180  -16.0786   22.9637 C   0  0  0  0  0  0  0  0  0  0  0  0
   12.8689  -15.5333   23.7106 O   0  0  0  0  0  0  0  0  0  0  0  0
   12.3466  -16.2457   21.6415 O   0  0  0  0  0  0  0  0  0  0  0  0
  1  2  1  0
  2  3  1  0
  3  4  2  0
  6  5  1  6
  6  8  1  0
  7  6  1  0
  8 10  1  0
  9  3  1  0
  8  9  1  1
 10 12  1  0
 10 11  2  0
 12 13  1  0
 13 19  1  0
 13 14  1  1
 14 15  1  0
 15 16  1  0
 16 17  1  0
 17 18  1  0
 19 21  1  0
 20 19  2  0
M  END
$$$$
