GTK.pdb
     RDKit          3D

 21 20  0  0  1  0  0  0  0  0999 V2000
    7.0885  -17.5841   16.7810 N   0  0  0  0  0  0  0  0  0  0  0  0
    6.5847  -17.0341   18.0190 C   0  0  0  0  0  0  0  0  0  0  0  0
    7.7446  -16.4654   18.7548 C   0  0  0  0  0  0  0  0  0  0  0  0
    8.9379  -16.8368   18.5369 O   0  0  0  0  0  0  0  0  0  0  0  0
    7.8075  -12.6788   19.7980 C   0  0  0  0  0  0  0  0  0  0  0  0
    8.2475  -13.5148   20.9806 C   0  0  1  0  0  0  0  0  0  0  0  0
    7.1918  -13.6184   21.8673 O   0  0  0  0  0  0  0  0  0  0  0  0
    8.6832  -14.9020   20.4891 C   0  0  2  0  0  0  0  0  0  0  0  0
    7.5873  -15.4566   19.7620 N   0  0  0  0  0  0  0  0  0  0  0  0
    9.1012  -15.7244   21.6467 C   0  0  0  0  0  0  0  0  0  0  0  0
    8.2374  -16.3396   22.3148 O   0  0  0  0  0  0  0  0  0  0  0  0
   10.4536  -15.8316   22.0159 N   0  0  0  0  0  0  0  0  0  0  0  0
   10.9076  -16.6242   23.1710 C   0  0  1  0  0  0  0  0  0  0  0  0
   11.1512  -17.9943   22.6470 C   0  0  0  0  0  0  0  0  0  0  0  0
   11.6395  -19.0119   23.6114 C   0  0  0  0  0  0  0  0  0  0  0  0
   11.8870  -20.2858   22.7875 C   0  0  0  0  0  0  0  0  0  0  0  0
   12.4105  -21.3965   23.6623 C   0  0  0  0  0  0  0  0  0  0  0  0
   12.4713  -22.5905   22.8393 N   0  0  0  0  0  0  0  0  0  0  0  0
   12.1801  -16.0802   23.7054 C   0  0  0  0  0  0  0  0  0  0  0  0
   12.6050  -16.5454   24.7927 O   0  0  0  0  0  0  0  0  0  0  0  0
   12.9282  -15.1037   23.0961 O   0  0  0  0  0  0  0  0  0  0  0  0
  1  2  1  0
  2  3  1  0
  3  4  2  0
  6  5  1  6
  6  8  1  0
  7  6  1  0
  8 10  1  0
  9  3  1  0
  8  9  1  1
 10 12  1  0
 10 11  2  0
 12 13  1  0
 13 19  1  0
 13 14  1  6
 14 15  1  0
 15 16  1  0
 16 17  1  0
 17 18  1  0
 19 21  1  0
 20 19  2  0
M  END
$$$$
