GTK.pdb
     RDKit          3D

 21 20  0  0  1  0  0  0  0  0999 V2000
    2.6718  -19.6360   21.8986 N   0  0  0  0  0  0  0  0  0  0  0  0
    3.0884  -18.2694   22.1166 C   0  0  0  0  0  0  0  0  0  0  0  0
    4.5744  -18.2609   22.1569 C   0  0  0  0  0  0  0  0  0  0  0  0
    5.2606  -19.3269   22.2034 O   0  0  0  0  0  0  0  0  0  0  0  0
    6.5150  -16.5314   19.6508 C   0  0  0  0  0  0  0  0  0  0  0  0
    7.1354  -16.0481   20.9441 C   0  0  1  0  0  0  0  0  0  0  0  0
    6.6752  -14.7710   21.2062 O   0  0  0  0  0  0  0  0  0  0  0  0
    6.7551  -17.0073   22.0803 C   0  0  2  0  0  0  0  0  0  0  0  0
    5.3297  -17.0418   22.1456 N   0  0  0  0  0  0  0  0  0  0  0  0
    7.3937  -16.5570   23.3376 C   0  0  0  0  0  0  0  0  0  0  0  0
    6.8319  -15.6851   24.0411 O   0  0  0  0  0  0  0  0  0  0  0  0
    8.6239  -17.0887   23.7628 N   0  0  0  0  0  0  0  0  0  0  0  0
    9.3561  -16.5756   24.9330 C   0  0  1  0  0  0  0  0  0  0  0  0
    9.7442  -17.7750   25.7215 C   0  0  0  0  0  0  0  0  0  0  0  0
    8.8761  -18.1422   26.8685 C   0  0  0  0  0  0  0  0  0  0  0  0
    9.4378  -19.4655   27.4127 C   0  0  0  0  0  0  0  0  0  0  0  0
    8.5617  -20.0070   28.5138 C   0  0  0  0  0  0  0  0  0  0  0  0
    9.0673  -21.3261   28.8469 N   0  0  0  0  0  0  0  0  0  0  0  0
   10.5848  -15.8631   24.5045 C   0  0  0  0  0  0  0  0  0  0  0  0
   11.2730  -15.2977   25.3910 O   0  0  0  0  0  0  0  0  0  0  0  0
   11.0247  -15.7774   23.2071 O   0  0  0  0  0  0  0  0  0  0  0  0
  1  2  1  0
  2  3  1  0
  3  4  2  0
  6  5  1  6
  6  8  1  0
  7  6  1  0
  8 10  1  0
  9  3  1  0
  8  9  1  1
 10 12  1  0
 10 11  2  0
 12 13  1  0
 13 19  1  0
 13 14  1  1
 14 15  1  0
 15 16  1  0
 16 17  1  0
 17 18  1  0
 19 21  1  0
 20 19  2  0
M  END
$$$$
