GTK.pdb
     RDKit          3D

 21 20  0  0  1  0  0  0  0  0999 V2000
    3.7770  -15.7191   19.9886 N   0  0  0  0  0  0  0  0  0  0  0  0
    5.1179  -15.1811   19.9559 C   0  0  0  0  0  0  0  0  0  0  0  0
    5.9754  -16.0802   20.7722 C   0  0  0  0  0  0  0  0  0  0  0  0
    5.4956  -16.9917   21.5126 O   0  0  0  0  0  0  0  0  0  0  0  0
    9.7986  -16.9972   19.6224 C   0  0  0  0  0  0  0  0  0  0  0  0
    8.9493  -17.7840   20.5974 C   0  0  1  0  0  0  0  0  0  0  0  0
    9.7653  -18.6589   21.2902 O   0  0  0  0  0  0  0  0  0  0  0  0
    8.2498  -16.8145   21.5600 C   0  0  2  0  0  0  0  0  0  0  0  0
    7.4056  -15.9736   20.7743 N   0  0  0  0  0  0  0  0  0  0  0  0
    9.2687  -16.0711   22.3348 C   0  0  0  0  0  0  0  0  0  0  0  0
    9.9700  -15.2027   21.7646 O   0  0  0  0  0  0  0  0  0  0  0  0
    9.4688  -16.3187   23.7043 N   0  0  0  0  0  0  0  0  0  0  0  0
   10.4727  -15.6022   24.5090 C   0  0  1  0  0  0  0  0  0  0  0  0
    9.9484  -15.6051   25.9005 C   0  0  0  0  0  0  0  0  0  0  0  0
   10.8151  -15.0168   26.9526 C   0  0  0  0  0  0  0  0  0  0  0  0
   10.0525  -15.1997   28.2747 C   0  0  0  0  0  0  0  0  0  0  0  0
   10.8577  -14.6722   29.4351 C   0  0  0  0  0  0  0  0  0  0  0  0
   10.0459  -14.8431   30.6260 N   0  0  0  0  0  0  0  0  0  0  0  0
   11.7693  -16.3224   24.4819 C   0  0  0  0  0  0  0  0  0  0  0  0
   12.7954  -15.6947   24.8458 O   0  0  0  0  0  0  0  0  0  0  0  0
   11.9289  -17.6275   24.0875 O   0  0  0  0  0  0  0  0  0  0  0  0
  1  2  1  0
  2  3  1  0
  3  4  2  0
  6  5  1  6
  6  8  1  0
  7  6  1  0
  8 10  1  0
  9  3  1  0
  8  9  1  6
 10 12  1  0
 10 11  2  0
 12 13  1  0
 13 19  1  0
 13 14  1  1
 14 15  1  0
 15 16  1  0
 16 17  1  0
 17 18  1  0
 19 21  1  0
 20 19  2  0
M  END
$$$$
