GTK.pdb
     RDKit          3D

 21 20  0  0  1  0  0  0  0  0999 V2000
    3.6836  -18.6543   20.7491 N   0  0  0  0  0  0  0  0  0  0  0  0
    4.1207  -17.3241   21.1074 C   0  0  0  0  0  0  0  0  0  0  0  0
    5.5979  -17.2850   20.9447 C   0  0  0  0  0  0  0  0  0  0  0  0
    6.2932  -18.3335   20.7821 O   0  0  0  0  0  0  0  0  0  0  0  0
    7.1930  -14.8804   18.6380 C   0  0  0  0  0  0  0  0  0  0  0  0
    8.0454  -14.7877   19.8853 C   0  0  1  0  0  0  0  0  0  0  0  0
    7.7563  -13.6007   20.5325 O   0  0  0  0  0  0  0  0  0  0  0  0
    7.7497  -15.9888   20.7940 C   0  0  2  0  0  0  0  0  0  0  0  0
    6.3337  -16.0540   20.9614 N   0  0  0  0  0  0  0  0  0  0  0  0
    8.4889  -15.8352   22.0673 C   0  0  0  0  0  0  0  0  0  0  0  0
    7.9938  -15.1510   22.9935 O   0  0  0  0  0  0  0  0  0  0  0  0
    9.7415  -16.4432   22.2622 N   0  0  0  0  0  0  0  0  0  0  0  0
   10.5227  -16.2876   23.5008 C   0  0  1  0  0  0  0  0  0  0  0  0
   10.5732  -17.6403   24.1163 C   0  0  0  0  0  0  0  0  0  0  0  0
   11.3361  -17.7810   25.3821 C   0  0  0  0  0  0  0  0  0  0  0  0
   11.1600  -19.2447   25.8174 C   0  0  0  0  0  0  0  0  0  0  0  0
   11.7280  -19.4657   27.1964 C   0  0  0  0  0  0  0  0  0  0  0  0
   11.5485  -20.8719   27.5077 N   0  0  0  0  0  0  0  0  0  0  0  0
   11.9053  -15.8483   23.1904 C   0  0  0  0  0  0  0  0  0  0  0  0
   12.6614  -15.5693   24.1546 O   0  0  0  0  0  0  0  0  0  0  0  0
   12.4187  -15.7249   21.9233 O   0  0  0  0  0  0  0  0  0  0  0  0
  1  2  1  0
  2  3  1  0
  3  4  2  0
  6  5  1  6
  6  8  1  0
  7  6  1  0
  8 10  1  0
  9  3  1  0
  8  9  1  1
 10 12  1  0
 10 11  2  0
 12 13  1  0
 13 19  1  0
 13 14  1  6
 14 15  1  0
 15 16  1  0
 16 17  1  0
 17 18  1  0
 19 21  1  0
 20 19  2  0
M  END
$$$$
