GTK.pdb
     RDKit          3D

 21 20  0  0  1  0  0  0  0  0999 V2000
    2.2648  -19.0252   21.1101 N   0  0  0  0  0  0  0  0  0  0  0  0
    2.8573  -17.7251   21.3280 C   0  0  0  0  0  0  0  0  0  0  0  0
    4.3315  -17.9119   21.3691 C   0  0  0  0  0  0  0  0  0  0  0  0
    4.8719  -19.0590   21.4069 O   0  0  0  0  0  0  0  0  0  0  0  0
    6.6282  -16.5899   18.9357 C   0  0  0  0  0  0  0  0  0  0  0  0
    7.2291  -16.1184   20.2424 C   0  0  1  0  0  0  0  0  0  0  0  0
    6.9266  -14.7801   20.4121 O   0  0  0  0  0  0  0  0  0  0  0  0
    6.6590  -16.9554   21.3958 C   0  0  2  0  0  0  0  0  0  0  0  0
    5.2402  -16.8023   21.3685 N   0  0  0  0  0  0  0  0  0  0  0  0
    7.2760  -16.5213   22.6694 C   0  0  0  0  0  0  0  0  0  0  0  0
    6.7570  -15.5863   23.3232 O   0  0  0  0  0  0  0  0  0  0  0  0
    8.4382  -17.1380   23.1652 N   0  0  0  0  0  0  0  0  0  0  0  0
    9.1962  -16.6118   24.3129 C   0  0  1  0  0  0  0  0  0  0  0  0
    9.0524  -17.6279   25.3890 C   0  0  0  0  0  0  0  0  0  0  0  0
    9.7783  -17.3771   26.6595 C   0  0  0  0  0  0  0  0  0  0  0  0
    9.5681  -18.6347   27.5180 C   0  0  0  0  0  0  0  0  0  0  0  0
   10.0937  -18.4238   28.9152 C   0  0  0  0  0  0  0  0  0  0  0  0
    9.6890  -19.5769   29.6982 N   0  0  0  0  0  0  0  0  0  0  0  0
   10.6326  -16.4765   23.9677 C   0  0  0  0  0  0  0  0  0  0  0  0
   11.0497  -17.0833   22.9494 O   0  0  0  0  0  0  0  0  0  0  0  0
   11.5401  -15.7345   24.6819 O   0  0  0  0  0  0  0  0  0  0  0  0
  1  2  1  0
  2  3  1  0
  3  4  2  0
  6  5  1  6
  6  8  1  0
  7  6  1  0
  8 10  1  0
  9  3  1  0
  8  9  1  1
 10 12  1  0
 10 11  2  0
 12 13  1  0
 13 19  1  0
 13 14  1  1
 14 15  1  0
 15 16  1  0
 16 17  1  0
 17 18  1  0
 19 21  1  0
 20 19  2  0
M  END
$$$$
