GTK.pdb
     RDKit          3D

 21 20  0  0  1  0  0  0  0  0999 V2000
   13.7223  -14.0311   18.1405 N   0  0  0  0  0  0  0  0  0  0  0  0
   12.5363  -14.8514   18.2372 C   0  0  0  0  0  0  0  0  0  0  0  0
   11.8024  -14.4259   19.4580 C   0  0  0  0  0  0  0  0  0  0  0  0
   12.3722  -13.8306   20.4225 O   0  0  0  0  0  0  0  0  0  0  0  0
    7.9555  -13.1710   19.4319 C   0  0  0  0  0  0  0  0  0  0  0  0
    8.1918  -14.2716   20.4438 C   0  0  1  0  0  0  0  0  0  0  0  0
    7.7861  -15.4736   19.8941 O   0  0  0  0  0  0  0  0  0  0  0  0
    9.6819  -14.3158   20.8087 C   0  0  2  0  0  0  0  0  0  0  0  0
   10.3976  -14.6626   19.6235 N   0  0  0  0  0  0  0  0  0  0  0  0
    9.8867  -15.2684   21.9230 C   0  0  0  0  0  0  0  0  0  0  0  0
   10.3044  -16.4252   21.6814 O   0  0  0  0  0  0  0  0  0  0  0  0
    9.6215  -14.9027   23.2544 N   0  0  0  0  0  0  0  0  0  0  0  0
    9.8703  -15.7995   24.3957 C   0  0  1  0  0  0  0  0  0  0  0  0
    9.8469  -14.9303   25.6020 C   0  0  0  0  0  0  0  0  0  0  0  0
   10.1512  -15.5719   26.9057 C   0  0  0  0  0  0  0  0  0  0  0  0
   10.0541  -14.4539   27.9561 C   0  0  0  0  0  0  0  0  0  0  0  0
   10.4723  -14.9569   29.3145 C   0  0  0  0  0  0  0  0  0  0  0  0
   10.3898  -13.8310   30.2266 N   0  0  0  0  0  0  0  0  0  0  0  0
    8.7883  -16.8081   24.5083 C   0  0  0  0  0  0  0  0  0  0  0  0
    7.6713  -16.5272   24.0056 O   0  0  0  0  0  0  0  0  0  0  0  0
    8.9201  -18.0284   25.1229 O   0  0  0  0  0  0  0  0  0  0  0  0
  1  2  1  0
  2  3  1  0
  3  4  2  0
  6  5  1  6
  6  8  1  0
  7  6  1  0
  8 10  1  0
  9  3  1  0
  8  9  1  6
 10 12  1  0
 10 11  2  0
 12 13  1  0
 13 19  1  0
 13 14  1  1
 14 15  1  0
 15 16  1  0
 16 17  1  0
 17 18  1  0
 19 21  1  0
 20 19  2  0
M  END
$$$$
