GTK.pdb
     RDKit          3D

 21 20  0  0  1  0  0  0  0  0999 V2000
    8.3375  -16.5019   15.5359 N   0  0  0  0  0  0  0  0  0  0  0  0
    7.5414  -16.4265   16.7397 C   0  0  0  0  0  0  0  0  0  0  0  0
    8.4258  -15.9252   17.8244 C   0  0  0  0  0  0  0  0  0  0  0  0
    9.6826  -16.0973   17.8126 O   0  0  0  0  0  0  0  0  0  0  0  0
    7.6579  -12.5561   19.7700 C   0  0  0  0  0  0  0  0  0  0  0  0
    7.9776  -13.6533   20.7625 C   0  0  1  0  0  0  0  0  0  0  0  0
    6.7942  -14.1188   21.3049 O   0  0  0  0  0  0  0  0  0  0  0  0
    8.7295  -14.7837   20.0465 C   0  0  2  0  0  0  0  0  0  0  0  0
    7.9120  -15.2122   18.9578 N   0  0  0  0  0  0  0  0  0  0  0  0
    9.0360  -15.8603   21.0151 C   0  0  0  0  0  0  0  0  0  0  0  0
    8.2447  -16.8240   21.1424 O   0  0  0  0  0  0  0  0  0  0  0  0
   10.2018  -15.8259   21.8002 N   0  0  0  0  0  0  0  0  0  0  0  0
   10.5797  -16.9121   22.7201 C   0  0  1  0  0  0  0  0  0  0  0  0
   12.0473  -17.0857   22.5550 C   0  0  0  0  0  0  0  0  0  0  0  0
   12.5307  -18.4342   22.1654 C   0  0  0  0  0  0  0  0  0  0  0  0
   13.7549  -18.1973   21.2665 C   0  0  0  0  0  0  0  0  0  0  0  0
   14.3284  -19.5064   20.7862 C   0  0  0  0  0  0  0  0  0  0  0  0
   15.3558  -19.1863   19.8123 N   0  0  0  0  0  0  0  0  0  0  0  0
   10.2959  -16.5253   24.1238 C   0  0  0  0  0  0  0  0  0  0  0  0
    9.9833  -15.3292   24.3499 O   0  0  0  0  0  0  0  0  0  0  0  0
   10.3498  -17.3817   25.1953 O   0  0  0  0  0  0  0  0  0  0  0  0
  1  2  1  0
  2  3  1  0
  3  4  2  0
  6  5  1  6
  6  8  1  0
  7  6  1  0
  8 10  1  0
  9  3  1  0
  8  9  1  6
 10 12  1  0
 10 11  2  0
 12 13  1  0
 13 19  1  0
 13 14  1  1
 14 15  1  0
 15 16  1  0
 16 17  1  0
 17 18  1  0
 19 21  1  0
 20 19  2  0
M  END
$$$$
