YNG.pdb
     RDKit          3D

 25 25  0  0  1  0  0  0  0  0999 V2000
    5.9298  -10.9130   28.3495 O   0  0  0  0  0  0  0  0  0  0  0  0
    6.3860  -11.9019   27.4905 C   0  0  0  0  0  0  0  0  0  0  0  0
    7.7006  -11.9633   27.0983 C   0  0  0  0  0  0  0  0  0  0  0  0
    8.1348  -12.9490   26.2478 C   0  0  0  0  0  0  0  0  0  0  0  0
    7.2771  -13.9221   25.7470 C   0  0  0  0  0  0  0  0  0  0  0  0
    7.7823  -14.9778   24.8250 C   0  0  0  0  0  0  0  0  0  0  0  0
    8.0590  -14.3186   23.4860 C   0  0  2  0  0  0  0  0  0  0  0  0
    6.7945  -13.8298   22.9704 N   0  0  0  0  0  0  0  0  0  0  0  0
    8.6216  -15.2689   22.5048 C   0  0  0  0  0  0  0  0  0  0  0  0
    8.6940  -16.4840   22.8106 O   0  0  0  0  0  0  0  0  0  0  0  0
    5.9537  -13.8400   26.1572 C   0  0  0  0  0  0  0  0  0  0  0  0
    5.5215  -12.8433   27.0152 C   0  0  0  0  0  0  0  0  0  0  0  0
    8.4068  -13.4066   18.1105 N   0  0  0  0  0  0  0  0  0  0  0  0
    8.6789  -14.7609   18.3739 C   0  0  0  0  0  0  0  0  0  0  0  0
    7.8293  -15.6309   18.1101 O   0  0  0  0  0  0  0  0  0  0  0  0
    9.9684  -15.1536   18.9620 C   0  0  0  0  0  0  0  0  0  0  0  0
    9.7989  -15.7720   20.3371 C   0  0  2  0  0  0  0  0  0  0  0  0
    9.0857  -14.8684   21.2257 N   0  0  0  0  0  0  0  0  0  0  0  0
   11.0766  -16.1499   20.9461 C   0  0  0  0  0  0  0  0  0  0  0  0
   11.8453  -15.2714   21.3864 O   0  0  0  0  0  0  0  0  0  0  0  0
   11.4432  -17.5075   21.0371 N   0  0  0  0  0  0  0  0  0  0  0  0
   12.5842  -17.9920   21.7634 C   0  0  0  0  0  0  0  0  0  0  0  0
   13.8131  -17.7400   20.9828 C   0  0  0  0  0  0  0  0  0  0  0  0
   14.1274  -18.5786   19.9218 O   0  0  0  0  0  0  0  0  0  0  0  0
   14.6011  -16.7914   21.2327 O   0  0  0  0  0  0  0  0  0  0  0  0
  2  3  2  0
  2  1  1  0
  4  3  1  0
  5  4  2  0
  6  5  1  0
  6  7  1  0
  7  8  1  6
  9 18  1  0
  9  7  1  0
 10  9  2  0
 11  5  1  0
 11 12  2  0
 12  2  1  0
 14 13  1  0
 15 14  2  0
 16 14  1  0
 17 16  1  6
 17 19  1  0
 17 18  1  0
 19 20  2  0
 21 22  1  0
 21 19  1  0
 22 23  1  0
 23 25  2  0
 23 24  1  0
M  END
$$$$
