YNG.pdb
     RDKit          3D

 25 25  0  0  1  0  0  0  0  0999 V2000
    6.1101  -10.2380   26.5264 O   0  0  0  0  0  0  0  0  0  0  0  0
    6.3666  -11.4923   25.9925 C   0  0  0  0  0  0  0  0  0  0  0  0
    7.5707  -11.7904   25.4036 C   0  0  0  0  0  0  0  0  0  0  0  0
    7.8077  -13.0370   24.8806 C   0  0  0  0  0  0  0  0  0  0  0  0
    6.8531  -14.0473   24.9202 C   0  0  0  0  0  0  0  0  0  0  0  0
    7.1438  -15.3895   24.3423 C   0  0  0  0  0  0  0  0  0  0  0  0
    7.3398  -16.3512   25.5002 C   0  0  2  0  0  0  0  0  0  0  0  0
    7.7379  -15.5688   26.6549 N   0  0  0  0  0  0  0  0  0  0  0  0
    8.4004  -17.3422   25.2258 C   0  0  0  0  0  0  0  0  0  0  0  0
    8.2053  -18.2090   24.3394 O   0  0  0  0  0  0  0  0  0  0  0  0
    5.6444  -13.7230   25.5202 C   0  0  0  0  0  0  0  0  0  0  0  0
    5.4112  -12.4637   26.0459 C   0  0  0  0  0  0  0  0  0  0  0  0
   11.3736  -17.7150   22.9337 N   0  0  0  0  0  0  0  0  0  0  0  0
   11.7635  -17.2216   24.1915 C   0  0  0  0  0  0  0  0  0  0  0  0
   12.0097  -16.0107   24.3379 O   0  0  0  0  0  0  0  0  0  0  0  0
   11.8813  -18.1349   25.3382 C   0  0  0  0  0  0  0  0  0  0  0  0
   10.5249  -18.5092   25.9058 C   0  0  2  0  0  0  0  0  0  0  0  0
    9.6360  -17.3584   25.9220 N   0  0  0  0  0  0  0  0  0  0  0  0
   10.6154  -19.0766   27.2535 C   0  0  0  0  0  0  0  0  0  0  0  0
   11.6893  -19.0209   27.8862 O   0  0  0  0  0  0  0  0  0  0  0  0
    9.4900  -19.6882   27.8410 N   0  0  0  0  0  0  0  0  0  0  0  0
    9.4836  -20.2910   29.1451 C   0  0  0  0  0  0  0  0  0  0  0  0
    9.8942  -21.7065   29.0396 C   0  0  0  0  0  0  0  0  0  0  0  0
    9.8769  -22.5049   30.1754 O   0  0  0  0  0  0  0  0  0  0  0  0
   10.2640  -22.2339   27.9586 O   0  0  0  0  0  0  0  0  0  0  0  0
  2  3  2  0
  2  1  1  0
  4  3  1  0
  5  4  2  0
  6  5  1  0
  6  7  1  0
  7  8  1  1
  9 18  1  0
  9  7  1  0
 10  9  2  0
 11  5  1  0
 11 12  2  0
 12  2  1  0
 14 13  1  0
 15 14  2  0
 16 14  1  0
 17 16  1  1
 17 19  1  0
 17 18  1  0
 19 20  2  0
 21 22  1  0
 21 19  1  0
 22 23  1  0
 23 25  2  0
 23 24  1  0
M  END
$$$$
