YNG.pdb
     RDKit          3D

 25 25  0  0  1  0  0  0  0  0999 V2000
    5.2749  -11.1737   27.4064 O   0  0  0  0  0  0  0  0  0  0  0  0
    6.2259  -12.0168   26.8509 C   0  0  0  0  0  0  0  0  0  0  0  0
    7.0835  -12.7488   27.6347 C   0  0  0  0  0  0  0  0  0  0  0  0
    8.0185  -13.5785   27.0682 C   0  0  0  0  0  0  0  0  0  0  0  0
    8.1428  -13.7178   25.6902 C   0  0  0  0  0  0  0  0  0  0  0  0
    9.1696  -14.6276   25.1088 C   0  0  0  0  0  0  0  0  0  0  0  0
    8.4546  -15.5769   24.1645 C   0  0  2  0  0  0  0  0  0  0  0  0
    7.5968  -16.4275   24.9674 N   0  0  0  0  0  0  0  0  0  0  0  0
    9.3982  -16.4394   23.4243 C   0  0  0  0  0  0  0  0  0  0  0  0
    9.5651  -17.6230   23.8067 O   0  0  0  0  0  0  0  0  0  0  0  0
    7.2656  -12.9687   24.9185 C   0  0  0  0  0  0  0  0  0  0  0  0
    6.3246  -12.1333   25.4958 C   0  0  0  0  0  0  0  0  0  0  0  0
    9.3441  -18.2268   19.4933 N   0  0  0  0  0  0  0  0  0  0  0  0
    9.7882  -16.8933   19.4476 C   0  0  0  0  0  0  0  0  0  0  0  0
    9.1109  -16.0297   18.8614 O   0  0  0  0  0  0  0  0  0  0  0  0
   11.0546  -16.5149   20.0926 C   0  0  0  0  0  0  0  0  0  0  0  0
   11.0563  -16.8443   21.5737 C   0  0  2  0  0  0  0  0  0  0  0  0
   10.1277  -15.9883   22.2946 N   0  0  0  0  0  0  0  0  0  0  0  0
   12.3886  -16.7355   22.1734 C   0  0  0  0  0  0  0  0  0  0  0  0
   13.3469  -17.3723   21.6911 O   0  0  0  0  0  0  0  0  0  0  0  0
   12.5935  -15.9111   23.2977 N   0  0  0  0  0  0  0  0  0  0  0  0
   13.8727  -15.6765   23.9083 C   0  0  0  0  0  0  0  0  0  0  0  0
   14.4103  -16.9469   24.4378 C   0  0  0  0  0  0  0  0  0  0  0  0
   15.4314  -17.5904   23.7514 O   0  0  0  0  0  0  0  0  0  0  0  0
   13.9852  -17.4838   25.4934 O   0  0  0  0  0  0  0  0  0  0  0  0
  2  3  2  0
  2  1  1  0
  4  3  1  0
  5  4  2  0
  6  5  1  0
  6  7  1  0
  7  8  1  1
  9 18  1  0
  9  7  1  0
 10  9  2  0
 11  5  1  0
 11 12  2  0
 12  2  1  0
 14 13  1  0
 15 14  2  0
 16 14  1  0
 17 16  1  6
 17 19  1  0
 17 18  1  0
 19 20  2  0
 21 22  1  0
 21 19  1  0
 22 23  1  0
 23 25  2  0
 23 24  1  0
M  END
$$$$
