YNG.pdb
     RDKit          3D

 25 25  0  0  1  0  0  0  0  0999 V2000
    6.4552  -11.2704   27.7374 O   0  0  0  0  0  0  0  0  0  0  0  0
    6.6777  -12.1474   26.6860 C   0  0  0  0  0  0  0  0  0  0  0  0
    5.9844  -13.3276   26.5753 C   0  0  0  0  0  0  0  0  0  0  0  0
    6.2171  -14.1836   25.5281 C   0  0  0  0  0  0  0  0  0  0  0  0
    7.1540  -13.9027   24.5397 C   0  0  0  0  0  0  0  0  0  0  0  0
    7.3815  -14.8551   23.4167 C   0  0  0  0  0  0  0  0  0  0  0  0
    8.3554  -15.9117   23.9059 C   0  0  2  0  0  0  0  0  0  0  0  0
    9.5919  -15.2381   24.2540 N   0  0  0  0  0  0  0  0  0  0  0  0
    8.6539  -16.9164   22.8649 C   0  0  0  0  0  0  0  0  0  0  0  0
    7.7694  -17.1938   22.0188 O   0  0  0  0  0  0  0  0  0  0  0  0
    7.8421  -12.7047   24.6725 C   0  0  0  0  0  0  0  0  0  0  0  0
    7.6031  -11.8453   25.7312 C   0  0  0  0  0  0  0  0  0  0  0  0
   10.3158  -19.0438   19.2214 N   0  0  0  0  0  0  0  0  0  0  0  0
    9.8179  -17.7287   19.2300 C   0  0  0  0  0  0  0  0  0  0  0  0
    9.2538  -17.2684   18.2210 O   0  0  0  0  0  0  0  0  0  0  0  0
    9.9619  -16.8930   20.4316 C   0  0  0  0  0  0  0  0  0  0  0  0
   10.6792  -17.6270   21.5492 C   0  0  2  0  0  0  0  0  0  0  0  0
    9.9017  -17.5851   22.7774 N   0  0  0  0  0  0  0  0  0  0  0  0
   12.0212  -17.0959   21.8012 C   0  0  0  0  0  0  0  0  0  0  0  0
   12.9565  -17.3587   21.0184 O   0  0  0  0  0  0  0  0  0  0  0  0
   12.2617  -16.2862   22.9291 N   0  0  0  0  0  0  0  0  0  0  0  0
   12.8483  -16.7556   24.1536 C   0  0  0  0  0  0  0  0  0  0  0  0
   14.3143  -16.8528   23.9963 C   0  0  0  0  0  0  0  0  0  0  0  0
   15.1023  -15.7450   24.2784 O   0  0  0  0  0  0  0  0  0  0  0  0
   14.8944  -17.9022   23.6147 O   0  0  0  0  0  0  0  0  0  0  0  0
  2  3  2  0
  2  1  1  0
  4  3  1  0
  5  4  2  0
  6  5  1  0
  6  7  1  0
  7  8  1  6
  9 18  1  0
  9  7  1  0
 10  9  2  0
 11  5  1  0
 11 12  2  0
 12  2  1  0
 14 13  1  0
 15 14  2  0
 16 14  1  0
 17 16  1  6
 17 19  1  0
 17 18  1  0
 19 20  2  0
 21 22  1  0
 21 19  1  0
 22 23  1  0
 23 25  2  0
 23 24  1  0
M  END
$$$$
