YNG.pdb
     RDKit          3D

 25 25  0  0  1  0  0  0  0  0999 V2000
    6.8755  -12.1088   18.3820 O   0  0  0  0  0  0  0  0  0  0  0  0
    7.6188  -12.8579   19.2822 C   0  0  0  0  0  0  0  0  0  0  0  0
    8.9845  -12.9583   19.1788 C   0  0  0  0  0  0  0  0  0  0  0  0
    9.7044  -13.7037   20.0785 C   0  0  0  0  0  0  0  0  0  0  0  0
    9.0954  -14.3858   21.1261 C   0  0  0  0  0  0  0  0  0  0  0  0
    9.9077  -15.1864   22.0848 C   0  0  0  0  0  0  0  0  0  0  0  0
   10.5649  -16.3071   21.2998 C   0  0  2  0  0  0  0  0  0  0  0  0
    9.5078  -17.1464   20.7689 N   0  0  0  0  0  0  0  0  0  0  0  0
   11.4362  -17.1439   22.1500 C   0  0  0  0  0  0  0  0  0  0  0  0
   10.9106  -17.8626   23.0344 O   0  0  0  0  0  0  0  0  0  0  0  0
    7.7149  -14.2696   21.2106 C   0  0  0  0  0  0  0  0  0  0  0  0
    6.9941  -13.5163   20.2999 C   0  0  0  0  0  0  0  0  0  0  0  0
   12.6136  -20.2880   21.7144 N   0  0  0  0  0  0  0  0  0  0  0  0
   13.9572  -20.0205   21.3971 C   0  0  0  0  0  0  0  0  0  0  0  0
   14.5796  -20.7765   20.6293 O   0  0  0  0  0  0  0  0  0  0  0  0
   14.6314  -18.8463   21.9713 C   0  0  0  0  0  0  0  0  0  0  0  0
   13.6947  -18.0211   22.8338 C   0  0  2  0  0  0  0  0  0  0  0  0
   12.8475  -17.1725   22.0110 N   0  0  0  0  0  0  0  0  0  0  0  0
   14.4092  -17.1975   23.8124 C   0  0  0  0  0  0  0  0  0  0  0  0
   14.4998  -17.5714   24.9993 O   0  0  0  0  0  0  0  0  0  0  0  0
   14.9970  -15.9792   23.4176 N   0  0  0  0  0  0  0  0  0  0  0  0
   15.6993  -15.0933   24.3042 C   0  0  0  0  0  0  0  0  0  0  0  0
   17.1172  -15.4998   24.3915 C   0  0  0  0  0  0  0  0  0  0  0  0
   17.9946  -14.7430   25.1564 O   0  0  0  0  0  0  0  0  0  0  0  0
   17.5778  -16.5107   23.8003 O   0  0  0  0  0  0  0  0  0  0  0  0
  2  3  2  0
  2  1  1  0
  4  3  1  0
  5  4  2  0
  6  5  1  0
  6  7  1  0
  7  8  1  1
  9 18  1  0
  9  7  1  0
 10  9  2  0
 11  5  1  0
 11 12  2  0
 12  2  1  0
 14 13  1  0
 15 14  2  0
 16 14  1  0
 17 16  1  6
 17 19  1  0
 17 18  1  0
 19 20  2  0
 21 22  1  0
 21 19  1  0
 22 23  1  0
 23 25  2  0
 23 24  1  0
M  END
$$$$
