YNG.pdb
     RDKit          3D

 25 25  0  0  1  0  0  0  0  0999 V2000
    5.5068  -11.2675   27.5944 O   0  0  0  0  0  0  0  0  0  0  0  0
    6.0482  -11.9282   26.5015 C   0  0  0  0  0  0  0  0  0  0  0  0
    6.9979  -11.3392   25.7035 C   0  0  0  0  0  0  0  0  0  0  0  0
    7.5231  -12.0076   24.6261 C   0  0  0  0  0  0  0  0  0  0  0  0
    7.1253  -13.2977   24.2927 C   0  0  0  0  0  0  0  0  0  0  0  0
    7.7163  -13.9940   23.1155 C   0  0  0  0  0  0  0  0  0  0  0  0
    8.2900  -15.3109   23.6060 C   0  0  2  0  0  0  0  0  0  0  0  0
    9.1423  -15.0193   24.7429 N   0  0  0  0  0  0  0  0  0  0  0  0
    9.1092  -15.9787   22.5739 C   0  0  0  0  0  0  0  0  0  0  0  0
    8.5771  -16.2769   21.4771 O   0  0  0  0  0  0  0  0  0  0  0  0
    6.1649  -13.8724   25.1134 C   0  0  0  0  0  0  0  0  0  0  0  0
    5.6387  -13.1931   26.1987 C   0  0  0  0  0  0  0  0  0  0  0  0
   11.9077  -14.0264   20.4578 N   0  0  0  0  0  0  0  0  0  0  0  0
   11.8508  -15.4068   20.1958 C   0  0  0  0  0  0  0  0  0  0  0  0
   11.3800  -15.8190   19.1203 O   0  0  0  0  0  0  0  0  0  0  0  0
   12.3478  -16.3680   21.1918 C   0  0  0  0  0  0  0  0  0  0  0  0
   11.2180  -17.1435   21.8432 C   0  0  2  0  0  0  0  0  0  0  0  0
   10.4772  -16.2996   22.7672 N   0  0  0  0  0  0  0  0  0  0  0  0
   11.6878  -18.3414   22.5438 C   0  0  0  0  0  0  0  0  0  0  0  0
   12.2414  -19.2620   21.9093 O   0  0  0  0  0  0  0  0  0  0  0  0
   11.5164  -18.4592   23.9376 N   0  0  0  0  0  0  0  0  0  0  0  0
   11.7860  -19.6534   24.6893 C   0  0  0  0  0  0  0  0  0  0  0  0
   13.0716  -19.5106   25.4035 C   0  0  0  0  0  0  0  0  0  0  0  0
   13.9000  -18.4378   25.1024 O   0  0  0  0  0  0  0  0  0  0  0  0
   13.4606  -20.3220   26.2832 O   0  0  0  0  0  0  0  0  0  0  0  0
  2  3  2  0
  2  1  1  0
  4  3  1  0
  5  4  2  0
  6  5  1  0
  6  7  1  0
  7  8  1  1
  9 18  1  0
  9  7  1  0
 10  9  2  0
 11  5  1  0
 11 12  2  0
 12  2  1  0
 14 13  1  0
 15 14  2  0
 16 14  1  0
 17 16  1  1
 17 19  1  0
 17 18  1  0
 19 20  2  0
 21 22  1  0
 21 19  1  0
 22 23  1  0
 23 25  2  0
 23 24  1  0
M  END
$$$$
