YNG.pdb
     RDKit          3D

 25 25  0  0  1  0  0  0  0  0999 V2000
    7.0279  -12.6889   17.6707 O   0  0  0  0  0  0  0  0  0  0  0  0
    7.5203  -13.0996   18.9007 C   0  0  0  0  0  0  0  0  0  0  0  0
    8.8539  -13.3688   19.0878 C   0  0  0  0  0  0  0  0  0  0  0  0
    9.3240  -13.7739   20.3118 C   0  0  0  0  0  0  0  0  0  0  0  0
    8.4849  -13.9302   21.4096 C   0  0  0  0  0  0  0  0  0  0  0  0
    9.0291  -14.3722   22.7243 C   0  0  0  0  0  0  0  0  0  0  0  0
    9.2358  -15.8741   22.6498 C   0  0  2  0  0  0  0  0  0  0  0  0
    7.9280  -16.4984   22.7117 N   0  0  0  0  0  0  0  0  0  0  0  0
   10.0432  -16.3803   23.7786 C   0  0  0  0  0  0  0  0  0  0  0  0
    9.5858  -16.2818   24.9431 O   0  0  0  0  0  0  0  0  0  0  0  0
    7.1418  -13.6524   21.1968 C   0  0  0  0  0  0  0  0  0  0  0  0
    6.6735  -13.2442   19.9597 C   0  0  0  0  0  0  0  0  0  0  0  0
   11.6254  -20.3279   22.7331 N   0  0  0  0  0  0  0  0  0  0  0  0
   12.5356  -19.5369   23.4564 C   0  0  0  0  0  0  0  0  0  0  0  0
   13.6711  -19.3152   22.9983 O   0  0  0  0  0  0  0  0  0  0  0  0
   12.1487  -18.9687   24.7566 C   0  0  0  0  0  0  0  0  0  0  0  0
   12.1154  -17.4521   24.7245 C   0  0  2  0  0  0  0  0  0  0  0  0
   11.3186  -16.9762   23.6050 N   0  0  0  0  0  0  0  0  0  0  0  0
   13.4543  -16.8607   24.6586 C   0  0  0  0  0  0  0  0  0  0  0  0
   14.2194  -16.9306   25.6416 O   0  0  0  0  0  0  0  0  0  0  0  0
   13.8836  -16.2101   23.4847 N   0  0  0  0  0  0  0  0  0  0  0  0
   15.0659  -15.3989   23.3939 C   0  0  0  0  0  0  0  0  0  0  0  0
   15.8413  -15.7842   22.1965 C   0  0  0  0  0  0  0  0  0  0  0  0
   17.0322  -15.1268   21.9184 O   0  0  0  0  0  0  0  0  0  0  0  0
   15.4737  -16.6901   21.4044 O   0  0  0  0  0  0  0  0  0  0  0  0
  2  3  2  0
  2  1  1  0
  4  3  1  0
  5  4  2  0
  6  5  1  0
  6  7  1  0
  7  8  1  1
  9 18  1  0
  9  7  1  0
 10  9  2  0
 11  5  1  0
 11 12  2  0
 12  2  1  0
 14 13  1  0
 15 14  2  0
 16 14  1  0
 17 16  1  6
 17 19  1  0
 17 18  1  0
 19 20  2  0
 21 22  1  0
 21 19  1  0
 22 23  1  0
 23 25  2  0
 23 24  1  0
M  END
$$$$
