FHG.pdb
     RDKit          3D

 26 27  0  0  1  0  0  0  0  0999 V2000
   28.8526  -19.7956  -13.0349 N   0  0  0  0  0  0  0  0  0  0  0  0
   27.7538  -20.6432  -12.7164 C   0  0  1  0  0  0  0  0  0  0  0  0
   27.6523  -21.0180  -11.2732 C   0  0  0  0  0  0  0  0  0  0  0  0
   28.8993  -21.3773  -10.6261 C   0  0  0  0  0  0  0  0  0  0  0  0
   29.9381  -22.0432  -11.2628 C   0  0  0  0  0  0  0  0  0  0  0  0
   31.0973  -22.3545  -10.5884 C   0  0  0  0  0  0  0  0  0  0  0  0
   31.2391  -22.0048   -9.2630 C   0  0  0  0  0  0  0  0  0  0  0  0
   30.2198  -21.3425   -8.6100 C   0  0  0  0  0  0  0  0  0  0  0  0
   29.0566  -21.0300   -9.2859 C   0  0  0  0  0  0  0  0  0  0  0  0
   26.4972  -19.9557  -13.0930 C   0  0  0  0  0  0  0  0  0  0  0  0
   26.4555  -18.7059  -13.0435 O   0  0  0  0  0  0  0  0  0  0  0  0
   25.3365  -20.6515  -13.5081 N   0  0  0  0  0  0  0  0  0  0  0  0
   24.2130  -19.8942  -14.0159 C   0  0  1  0  0  0  0  0  0  0  0  0
   23.7950  -20.4484  -15.3602 C   0  0  0  0  0  0  0  0  0  0  0  0
   24.6970  -20.0748  -16.4624 C   0  0  0  0  0  0  0  0  0  0  0  0
   25.4468  -18.8969  -16.5436 C   0  0  0  0  0  0  0  0  0  0  0  0
   26.1512  -18.8801  -17.6691 N   0  0  0  0  0  0  0  0  0  0  0  0
   25.8899  -20.0161  -18.3393 C   0  0  0  0  0  0  0  0  0  0  0  0
   25.0163  -20.7260  -17.6068 N   0  0  0  0  0  0  0  0  0  0  0  0
   23.0447  -19.9807  -13.0977 C   0  0  0  0  0  0  0  0  0  0  0  0
   21.9991  -19.3458  -13.3603 O   0  0  0  0  0  0  0  0  0  0  0  0
   23.0617  -20.7656  -11.9144 N   0  0  0  0  0  0  0  0  0  0  0  0
   21.8870  -20.8365  -11.0323 C   0  0  0  0  0  0  0  0  0  0  0  0
   20.7297  -21.3829  -11.7465 C   0  0  0  0  0  0  0  0  0  0  0  0
   19.9722  -20.5344  -12.5353 O   0  0  0  0  0  0  0  0  0  0  0  0
   20.4049  -22.5913  -11.6661 O   0  0  0  0  0  0  0  0  0  0  0  0
  2  1  1  1
  2 10  1  0
  3  2  1  0
  4  9  1  0
  4  3  1  0
  5  4  2  0
  6  7  2  0
  6  5  1  0
  7  8  1  0
  8  9  2  0
 10 11  2  0
 10 12  1  0
 12 13  1  0
 13 14  1  6
 14 15  1  0
 15 16  2  0
 15 19  1  0
 16 17  1  0
 17 18  1  0
 19 18  2  0
 20 21  2  0
 20 13  1  0
 22 20  1  0
 23 22  1  0
 23 24  1  0
 24 25  1  0
 26 24  2  0
M  END
$$$$
