FHG.pdb
     RDKit          3D

 26 27  0  0  1  0  0  0  0  0999 V2000
   27.2742  -22.4812  -11.2132 N   0  0  0  0  0  0  0  0  0  0  0  0
   27.0535  -21.1802  -10.6785 C   0  0  1  0  0  0  0  0  0  0  0  0
   28.2785  -20.3298  -10.5796 C   0  0  0  0  0  0  0  0  0  0  0  0
   29.3775  -20.8938   -9.8199 C   0  0  0  0  0  0  0  0  0  0  0  0
   29.4515  -20.8728   -8.4335 C   0  0  0  0  0  0  0  0  0  0  0  0
   30.5252  -21.4275   -7.7740 C   0  0  0  0  0  0  0  0  0  0  0  0
   31.5461  -22.0141   -8.4900 C   0  0  0  0  0  0  0  0  0  0  0  0
   31.4938  -22.0464   -9.8685 C   0  0  0  0  0  0  0  0  0  0  0  0
   30.4170  -21.4902  -10.5308 C   0  0  0  0  0  0  0  0  0  0  0  0
   26.0803  -20.4701  -11.5401 C   0  0  0  0  0  0  0  0  0  0  0  0
   25.8077  -19.2757  -11.2841 O   0  0  0  0  0  0  0  0  0  0  0  0
   25.4421  -21.0839  -12.6443 N   0  0  0  0  0  0  0  0  0  0  0  0
   24.5118  -20.3061  -13.4337 C   0  0  1  0  0  0  0  0  0  0  0  0
   24.7864  -20.5287  -14.9048 C   0  0  0  0  0  0  0  0  0  0  0  0
   25.9901  -19.8367  -15.3950 C   0  0  0  0  0  0  0  0  0  0  0  0
   26.7445  -18.9003  -14.6807 C   0  0  0  0  0  0  0  0  0  0  0  0
   27.7626  -18.4743  -15.4191 N   0  0  0  0  0  0  0  0  0  0  0  0
   27.7056  -19.1027  -16.6065 C   0  0  0  0  0  0  0  0  0  0  0  0
   26.6385  -19.9179  -16.5818 N   0  0  0  0  0  0  0  0  0  0  0  0
   23.1049  -20.7081  -13.1610 C   0  0  0  0  0  0  0  0  0  0  0  0
   22.8500  -21.8828  -12.8137 O   0  0  0  0  0  0  0  0  0  0  0  0
   22.0171  -19.8030  -13.2787 N   0  0  0  0  0  0  0  0  0  0  0  0
   20.6630  -20.1817  -12.8473 C   0  0  0  0  0  0  0  0  0  0  0  0
   19.9937  -20.9862  -13.8734 C   0  0  0  0  0  0  0  0  0  0  0  0
   18.6943  -21.4064  -13.6480 O   0  0  0  0  0  0  0  0  0  0  0  0
   20.5592  -21.3051  -14.9461 O   0  0  0  0  0  0  0  0  0  0  0  0
  2  1  1  6
  2 10  1  0
  3  2  1  0
  4  9  1  0
  4  3  1  0
  5  4  2  0
  6  7  2  0
  6  5  1  0
  7  8  1  0
  8  9  2  0
 10 11  2  0
 10 12  1  0
 12 13  1  0
 13 14  1  6
 14 15  1  0
 15 16  2  0
 15 19  1  0
 16 17  1  0
 17 18  1  0
 19 18  2  0
 20 21  2  0
 20 13  1  0
 22 20  1  0
 23 22  1  0
 23 24  1  0
 24 25  1  0
 26 24  2  0
M  END
$$$$
