FHG.pdb
     RDKit          3D

 26 27  0  0  1  0  0  0  0  0999 V2000
   23.1064  -20.7896  -16.5296 N   0  0  0  0  0  0  0  0  0  0  0  0
   22.1285  -19.7924  -16.8060 C   0  0  1  0  0  0  0  0  0  0  0  0
   21.4688  -19.9181  -18.1412 C   0  0  0  0  0  0  0  0  0  0  0  0
   22.3438  -19.7922  -19.2907 C   0  0  0  0  0  0  0  0  0  0  0  0
   22.8657  -18.5858  -19.7380 C   0  0  0  0  0  0  0  0  0  0  0  0
   23.6920  -18.5370  -20.8383 C   0  0  0  0  0  0  0  0  0  0  0  0
   24.0118  -19.6957  -21.5122 C   0  0  0  0  0  0  0  0  0  0  0  0
   23.5047  -20.9060  -21.0856 C   0  0  0  0  0  0  0  0  0  0  0  0
   22.6758  -20.9556  -19.9820 C   0  0  0  0  0  0  0  0  0  0  0  0
   21.0704  -19.8636  -15.7721 C   0  0  0  0  0  0  0  0  0  0  0  0
   20.8837  -20.9469  -15.1739 O   0  0  0  0  0  0  0  0  0  0  0  0
   20.2574  -18.7569  -15.4287 N   0  0  0  0  0  0  0  0  0  0  0  0
   19.2496  -18.9225  -14.4038 C   0  0  1  0  0  0  0  0  0  0  0  0
   19.5777  -18.0356  -13.2229 C   0  0  0  0  0  0  0  0  0  0  0  0
   20.3277  -18.7205  -12.1568 C   0  0  0  0  0  0  0  0  0  0  0  0
   20.6476  -20.0817  -12.1252 C   0  0  0  0  0  0  0  0  0  0  0  0
   21.3295  -20.3656  -11.0217 N   0  0  0  0  0  0  0  0  0  0  0  0
   21.4720  -19.2288  -10.3179 C   0  0  0  0  0  0  0  0  0  0  0  0
   20.8674  -18.2476  -11.0076 N   0  0  0  0  0  0  0  0  0  0  0  0
   17.9012  -18.5417  -14.9063 C   0  0  0  0  0  0  0  0  0  0  0  0
   17.7956  -17.8770  -15.9611 O   0  0  0  0  0  0  0  0  0  0  0  0
   16.7058  -18.9046  -14.2314 N   0  0  0  0  0  0  0  0  0  0  0  0
   15.3892  -18.4966  -14.7445 C   0  0  0  0  0  0  0  0  0  0  0  0
   14.3113  -19.1234  -13.9743 C   0  0  0  0  0  0  0  0  0  0  0  0
   13.5160  -18.3253  -13.1702 O   0  0  0  0  0  0  0  0  0  0  0  0
   14.0872  -20.3562  -14.0205 O   0  0  0  0  0  0  0  0  0  0  0  0
  2  1  1  1
  2 10  1  0
  3  2  1  0
  4  9  1  0
  4  3  1  0
  5  4  2  0
  6  7  2  0
  6  5  1  0
  7  8  1  0
  8  9  2  0
 10 11  2  0
 10 12  1  0
 12 13  1  0
 13 14  1  1
 14 15  1  0
 15 16  2  0
 15 19  1  0
 16 17  1  0
 17 18  1  0
 19 18  2  0
 20 21  2  0
 20 13  1  0
 22 20  1  0
 23 22  1  0
 23 24  1  0
 24 25  1  0
 26 24  2  0
M  END
$$$$
