FHG.pdb
     RDKit          3D

 26 27  0  0  1  0  0  0  0  0999 V2000
   25.9589   -7.3757  -20.3505 N   0  0  0  0  0  0  0  0  0  0  0  0
   26.0477   -7.3578  -18.9296 C   0  0  1  0  0  0  0  0  0  0  0  0
   26.9630   -6.3149  -18.3744 C   0  0  0  0  0  0  0  0  0  0  0  0
   28.3622   -6.4503  -18.7305 C   0  0  0  0  0  0  0  0  0  0  0  0
   29.0316   -5.5826  -19.5831 C   0  0  0  0  0  0  0  0  0  0  0  0
   30.3631   -5.7692  -19.8796 C   0  0  0  0  0  0  0  0  0  0  0  0
   31.0504   -6.8286  -19.3279 C   0  0  0  0  0  0  0  0  0  0  0  0
   30.4055   -7.7036  -18.4779 C   0  0  0  0  0  0  0  0  0  0  0  0
   29.0699   -7.5170  -18.1800 C   0  0  0  0  0  0  0  0  0  0  0  0
   24.6975   -7.1158  -18.3711 C   0  0  0  0  0  0  0  0  0  0  0  0
   23.8132   -6.6379  -19.1168 O   0  0  0  0  0  0  0  0  0  0  0  0
   24.3607   -7.4020  -17.0263 N   0  0  0  0  0  0  0  0  0  0  0  0
   22.9954   -7.2020  -16.5910 C   0  0  1  0  0  0  0  0  0  0  0  0
   22.4912   -8.4570  -15.9130 C   0  0  0  0  0  0  0  0  0  0  0  0
   22.3347   -9.6021  -16.8252 C   0  0  0  0  0  0  0  0  0  0  0  0
   23.2427  -10.6543  -16.9820 C   0  0  0  0  0  0  0  0  0  0  0  0
   22.7914  -11.5168  -17.8851 N   0  0  0  0  0  0  0  0  0  0  0  0
   21.6066  -11.0663  -18.3336 C   0  0  0  0  0  0  0  0  0  0  0  0
   21.3416   -9.9169  -17.6914 N   0  0  0  0  0  0  0  0  0  0  0  0
   22.8983   -6.0805  -15.6171 C   0  0  0  0  0  0  0  0  0  0  0  0
   23.7878   -5.9313  -14.7499 O   0  0  0  0  0  0  0  0  0  0  0  0
   21.8223   -5.1540  -15.6264 N   0  0  0  0  0  0  0  0  0  0  0  0
   21.8288   -3.9727  -14.7502 C   0  0  0  0  0  0  0  0  0  0  0  0
   20.6248   -3.1629  -14.9565 C   0  0  0  0  0  0  0  0  0  0  0  0
   19.7625   -3.5012  -15.9851 O   0  0  0  0  0  0  0  0  0  0  0  0
   20.3517   -2.1760  -14.2329 O   0  0  0  0  0  0  0  0  0  0  0  0
  2  1  1  6
  2 10  1  0
  3  2  1  0
  4  9  1  0
  4  3  1  0
  5  4  2  0
  6  7  2  0
  6  5  1  0
  7  8  1  0
  8  9  2  0
 10 11  2  0
 10 12  1  0
 12 13  1  0
 13 14  1  1
 14 15  1  0
 15 16  2  0
 15 19  1  0
 16 17  1  0
 17 18  1  0
 19 18  2  0
 20 21  2  0
 20 13  1  0
 22 20  1  0
 23 22  1  0
 23 24  1  0
 24 25  1  0
 26 24  2  0
M  END
$$$$
