FHG.pdb
     RDKit          3D

 26 27  0  0  1  0  0  0  0  0999 V2000
   28.4224  -21.6943  -12.1941 N   0  0  0  0  0  0  0  0  0  0  0  0
   27.2824  -21.2352  -11.4754 C   0  0  1  0  0  0  0  0  0  0  0  0
   27.4703  -19.9280  -10.7756 C   0  0  0  0  0  0  0  0  0  0  0  0
   27.6741  -20.0043   -9.3419 C   0  0  0  0  0  0  0  0  0  0  0  0
   26.6484  -19.9290   -8.4091 C   0  0  0  0  0  0  0  0  0  0  0  0
   26.9119  -20.0085   -7.0601 C   0  0  0  0  0  0  0  0  0  0  0  0
   28.2080  -20.1650   -6.6188 C   0  0  0  0  0  0  0  0  0  0  0  0
   29.2432  -20.2422   -7.5278 C   0  0  0  0  0  0  0  0  0  0  0  0
   28.9796  -20.1625   -8.8812 C   0  0  0  0  0  0  0  0  0  0  0  0
   26.1531  -21.0817  -12.4213 C   0  0  0  0  0  0  0  0  0  0  0  0
   26.3120  -20.3722  -13.4400 O   0  0  0  0  0  0  0  0  0  0  0  0
   24.8970  -21.7038  -12.2243 N   0  0  0  0  0  0  0  0  0  0  0  0
   23.8619  -21.5166  -13.2178 C   0  0  1  0  0  0  0  0  0  0  0  0
   23.2620  -22.8567  -13.5827 C   0  0  0  0  0  0  0  0  0  0  0  0
   24.0685  -23.6254  -14.5453 C   0  0  0  0  0  0  0  0  0  0  0  0
   25.1989  -23.1585  -15.2239 C   0  0  0  0  0  0  0  0  0  0  0  0
   25.6830  -24.1094  -16.0141 N   0  0  0  0  0  0  0  0  0  0  0  0
   24.9044  -25.1973  -15.8794 C   0  0  0  0  0  0  0  0  0  0  0  0
   23.9386  -24.8965  -14.9958 N   0  0  0  0  0  0  0  0  0  0  0  0
   22.7695  -20.6472  -12.7016 C   0  0  0  0  0  0  0  0  0  0  0  0
   22.6561  -20.4562  -11.4703 O   0  0  0  0  0  0  0  0  0  0  0  0
   21.8318  -20.0120  -13.5581 N   0  0  0  0  0  0  0  0  0  0  0  0
   20.9614  -18.9336  -13.0657 C   0  0  0  0  0  0  0  0  0  0  0  0
   20.0733  -18.4531  -14.1279 C   0  0  0  0  0  0  0  0  0  0  0  0
   18.8192  -17.9786  -13.7840 O   0  0  0  0  0  0  0  0  0  0  0  0
   20.4123  -18.4580  -15.3351 O   0  0  0  0  0  0  0  0  0  0  0  0
  2  1  1  6
  2 10  1  0
  3  2  1  0
  4  9  1  0
  4  3  1  0
  5  4  2  0
  6  7  2  0
  6  5  1  0
  7  8  1  0
  8  9  2  0
 10 11  2  0
 10 12  1  0
 12 13  1  0
 13 14  1  1
 14 15  1  0
 15 16  2  0
 15 19  1  0
 16 17  1  0
 17 18  1  0
 19 18  2  0
 20 21  2  0
 20 13  1  0
 22 20  1  0
 23 22  1  0
 23 24  1  0
 24 25  1  0
 26 24  2  0
M  END
$$$$
