FHG.pdb
     RDKit          3D

 26 27  0  0  1  0  0  0  0  0999 V2000
   28.9985  -20.9935   -8.7787 N   0  0  0  0  0  0  0  0  0  0  0  0
   27.5967  -20.8299   -8.5910 C   0  0  1  0  0  0  0  0  0  0  0  0
   27.2145  -19.6908   -7.7023 C   0  0  0  0  0  0  0  0  0  0  0  0
   27.7332  -19.7456   -6.3491 C   0  0  0  0  0  0  0  0  0  0  0  0
   28.9435  -19.1869   -5.9607 C   0  0  0  0  0  0  0  0  0  0  0  0
   29.3774  -19.2753   -4.6571 C   0  0  0  0  0  0  0  0  0  0  0  0
   28.6077  -19.9251   -3.7168 C   0  0  0  0  0  0  0  0  0  0  0  0
   27.4013  -20.4879   -4.0801 C   0  0  0  0  0  0  0  0  0  0  0  0
   26.9654  -20.3996   -5.3876 C   0  0  0  0  0  0  0  0  0  0  0  0
   26.9627  -20.6045   -9.9104 C   0  0  0  0  0  0  0  0  0  0  0  0
   27.6655  -20.1709  -10.8508 O   0  0  0  0  0  0  0  0  0  0  0  0
   25.5921  -20.8584  -10.1566 N   0  0  0  0  0  0  0  0  0  0  0  0
   25.0783  -20.6764  -11.4969 C   0  0  1  0  0  0  0  0  0  0  0  0
   25.4394  -21.8762  -12.3449 C   0  0  0  0  0  0  0  0  0  0  0  0
   24.9575  -21.7880  -13.7335 C   0  0  0  0  0  0  0  0  0  0  0  0
   25.3959  -20.8728  -14.6960 C   0  0  0  0  0  0  0  0  0  0  0  0
   24.7536  -21.0708  -15.8411 N   0  0  0  0  0  0  0  0  0  0  0  0
   23.8988  -22.0939  -15.6661 C   0  0  0  0  0  0  0  0  0  0  0  0
   24.0290  -22.5171  -14.3981 N   0  0  0  0  0  0  0  0  0  0  0  0
   23.5958  -20.5434  -11.4931 C   0  0  0  0  0  0  0  0  0  0  0  0
   22.9178  -21.1664  -10.6459 O   0  0  0  0  0  0  0  0  0  0  0  0
   22.9014  -19.7266  -12.4243 N   0  0  0  0  0  0  0  0  0  0  0  0
   21.4815  -19.3943  -12.2331 C   0  0  0  0  0  0  0  0  0  0  0  0
   20.6286  -20.2500  -13.0628 C   0  0  0  0  0  0  0  0  0  0  0  0
   21.1357  -21.4546  -13.5186 O   0  0  0  0  0  0  0  0  0  0  0  0
   19.4573  -19.9265  -13.3720 O   0  0  0  0  0  0  0  0  0  0  0  0
  2  1  1  6
  2 10  1  0
  3  2  1  0
  4  9  1  0
  4  3  1  0
  5  4  2  0
  6  7  2  0
  6  5  1  0
  7  8  1  0
  8  9  2  0
 10 11  2  0
 10 12  1  0
 12 13  1  0
 13 14  1  6
 14 15  1  0
 15 16  2  0
 15 19  1  0
 16 17  1  0
 17 18  1  0
 19 18  2  0
 20 21  2  0
 20 13  1  0
 22 20  1  0
 23 22  1  0
 23 24  1  0
 24 25  1  0
 26 24  2  0
M  END
$$$$
