FHG.pdb
     RDKit          3D

 26 27  0  0  1  0  0  0  0  0999 V2000
   33.2509  -10.1827  -19.1224 N   0  0  0  0  0  0  0  0  0  0  0  0
   32.2568  -10.7360  -18.2664 C   0  0  1  0  0  0  0  0  0  0  0  0
   31.5012   -9.7324  -17.4568 C   0  0  0  0  0  0  0  0  0  0  0  0
   32.3074   -8.7485  -16.7606 C   0  0  0  0  0  0  0  0  0  0  0  0
   32.0491   -7.3843  -16.7768 C   0  0  0  0  0  0  0  0  0  0  0  0
   32.8562   -6.5034  -16.0927 C   0  0  0  0  0  0  0  0  0  0  0  0
   33.9380   -6.9714  -15.3787 C   0  0  0  0  0  0  0  0  0  0  0  0
   34.2139   -8.3231  -15.3485 C   0  0  0  0  0  0  0  0  0  0  0  0
   33.4047   -9.2073  -16.0345 C   0  0  0  0  0  0  0  0  0  0  0  0
   31.2770  -11.4786  -19.0923 C   0  0  0  0  0  0  0  0  0  0  0  0
   31.3870  -11.4404  -20.3384 O   0  0  0  0  0  0  0  0  0  0  0  0
   30.2175  -12.2327  -18.5334 N   0  0  0  0  0  0  0  0  0  0  0  0
   29.2747  -12.8768  -19.4221 C   0  0  1  0  0  0  0  0  0  0  0  0
   28.9512  -14.2599  -18.9010 C   0  0  0  0  0  0  0  0  0  0  0  0
   30.0090  -15.2521  -19.1554 C   0  0  0  0  0  0  0  0  0  0  0  0
   31.2457  -14.9950  -19.7559 C   0  0  0  0  0  0  0  0  0  0  0  0
   31.9585  -16.1128  -19.8312 N   0  0  0  0  0  0  0  0  0  0  0  0
   31.2285  -17.1074  -19.2965 C   0  0  0  0  0  0  0  0  0  0  0  0
   30.0605  -16.5804  -18.8940 N   0  0  0  0  0  0  0  0  0  0  0  0
   28.0033  -12.1076  -19.5094 C   0  0  0  0  0  0  0  0  0  0  0  0
   27.0519  -12.5540  -20.1883 O   0  0  0  0  0  0  0  0  0  0  0  0
   27.8162  -10.8667  -18.8450 N   0  0  0  0  0  0  0  0  0  0  0  0
   26.5766  -10.0934  -19.0139 C   0  0  0  0  0  0  0  0  0  0  0  0
   26.7373   -9.0683  -20.0489 C   0  0  0  0  0  0  0  0  0  0  0  0
   25.7535   -8.1050  -20.1909 O   0  0  0  0  0  0  0  0  0  0  0  0
   27.7350   -9.0360  -20.8077 O   0  0  0  0  0  0  0  0  0  0  0  0
  2  1  1  6
  2 10  1  0
  3  2  1  0
  4  9  1  0
  4  3  1  0
  5  4  2  0
  6  7  2  0
  6  5  1  0
  7  8  1  0
  8  9  2  0
 10 11  2  0
 10 12  1  0
 12 13  1  0
 13 14  1  1
 14 15  1  0
 15 16  2  0
 15 19  1  0
 16 17  1  0
 17 18  1  0
 19 18  2  0
 20 21  2  0
 20 13  1  0
 22 20  1  0
 23 22  1  0
 23 24  1  0
 24 25  1  0
 26 24  2  0
M  END
$$$$
