FHG.pdb
     RDKit          3D

 26 27  0  0  1  0  0  0  0  0999 V2000
   32.4197  -29.2853  -18.7108 N   0  0  0  0  0  0  0  0  0  0  0  0
   31.0799  -29.5141  -19.1346 C   0  0  1  0  0  0  0  0  0  0  0  0
   30.9086  -30.6698  -20.0666 C   0  0  0  0  0  0  0  0  0  0  0  0
   31.3387  -30.4463  -21.4333 C   0  0  0  0  0  0  0  0  0  0  0  0
   32.4600  -31.0387  -21.9988 C   0  0  0  0  0  0  0  0  0  0  0  0
   32.8126  -30.7827  -23.3048 C   0  0  0  0  0  0  0  0  0  0  0  0
   32.0489  -29.9284  -24.0703 C   0  0  0  0  0  0  0  0  0  0  0  0
   30.9303  -29.3284  -23.5293 C   0  0  0  0  0  0  0  0  0  0  0  0
   30.5761  -29.5847  -22.2192 C   0  0  0  0  0  0  0  0  0  0  0  0
   30.2399  -29.7689  -17.9417 C   0  0  0  0  0  0  0  0  0  0  0  0
   30.8012  -30.0200  -16.8515 O   0  0  0  0  0  0  0  0  0  0  0  0
   28.8252  -29.7412  -17.9791 N   0  0  0  0  0  0  0  0  0  0  0  0
   28.0921  -29.8346  -16.7351 C   0  0  1  0  0  0  0  0  0  0  0  0
   26.8403  -28.9893  -16.8204 C   0  0  0  0  0  0  0  0  0  0  0  0
   27.1057  -27.5445  -16.9215 C   0  0  0  0  0  0  0  0  0  0  0  0
   28.3653  -26.9381  -16.8773 C   0  0  0  0  0  0  0  0  0  0  0  0
   28.2433  -25.6213  -16.9969 N   0  0  0  0  0  0  0  0  0  0  0  0
   26.9352  -25.3352  -17.1195 C   0  0  0  0  0  0  0  0  0  0  0  0
   26.2612  -26.4960  -17.0730 N   0  0  0  0  0  0  0  0  0  0  0  0
   27.6831  -31.2378  -16.4539 C   0  0  0  0  0  0  0  0  0  0  0  0
   27.3170  -31.9789  -17.3931 O   0  0  0  0  0  0  0  0  0  0  0  0
   27.6890  -31.7855  -15.1437 N   0  0  0  0  0  0  0  0  0  0  0  0
   27.4306  -33.2154  -14.9163 C   0  0  0  0  0  0  0  0  0  0  0  0
   26.0023  -33.5156  -15.0496 C   0  0  0  0  0  0  0  0  0  0  0  0
   25.5740  -34.8172  -14.8535 O   0  0  0  0  0  0  0  0  0  0  0  0
   25.1581  -32.6334  -15.3347 O   0  0  0  0  0  0  0  0  0  0  0  0
  2  1  1  1
  2 10  1  0
  3  2  1  0
  4  9  1  0
  4  3  1  0
  5  4  2  0
  6  7  2  0
  6  5  1  0
  7  8  1  0
  8  9  2  0
 10 11  2  0
 10 12  1  0
 12 13  1  0
 13 14  1  6
 14 15  1  0
 15 16  2  0
 15 19  1  0
 16 17  1  0
 17 18  1  0
 19 18  2  0
 20 21  2  0
 20 13  1  0
 22 20  1  0
 23 22  1  0
 23 24  1  0
 24 25  1  0
 26 24  2  0
M  END
$$$$
