FHG.pdb
     RDKit          3D

 26 27  0  0  1  0  0  0  0  0999 V2000
   26.5400  -18.3581   -7.9164 N   0  0  0  0  0  0  0  0  0  0  0  0
   26.9836  -19.6607   -8.2820 C   0  0  1  0  0  0  0  0  0  0  0  0
   26.9373  -20.6683   -7.1791 C   0  0  0  0  0  0  0  0  0  0  0  0
   27.7647  -20.3772   -6.0244 C   0  0  0  0  0  0  0  0  0  0  0  0
   27.2688  -20.2149   -4.7377 C   0  0  0  0  0  0  0  0  0  0  0  0
   28.1114  -19.9393   -3.6843 C   0  0  0  0  0  0  0  0  0  0  0  0
   29.4674  -19.8207   -3.8990 C   0  0  0  0  0  0  0  0  0  0  0  0
   29.9827  -19.9780   -5.1693 C   0  0  0  0  0  0  0  0  0  0  0  0
   29.1380  -20.2545   -6.2264 C   0  0  0  0  0  0  0  0  0  0  0  0
   26.1323  -20.1613   -9.3858 C   0  0  0  0  0  0  0  0  0  0  0  0
   24.9229  -19.8402   -9.4077 O   0  0  0  0  0  0  0  0  0  0  0  0
   26.6271  -20.9899  -10.4212 N   0  0  0  0  0  0  0  0  0  0  0  0
   26.5266  -20.5318  -11.7900 C   0  0  1  0  0  0  0  0  0  0  0  0
   27.7090  -21.0431  -12.5833 C   0  0  0  0  0  0  0  0  0  0  0  0
   27.7301  -20.5811  -13.9812 C   0  0  0  0  0  0  0  0  0  0  0  0
   26.7976  -19.7242  -14.5747 C   0  0  0  0  0  0  0  0  0  0  0  0
   27.1152  -19.5134  -15.8467 N   0  0  0  0  0  0  0  0  0  0  0  0
   28.2349  -20.2076  -16.1154 C   0  0  0  0  0  0  0  0  0  0  0  0
   28.5957  -20.8449  -14.9896 N   0  0  0  0  0  0  0  0  0  0  0  0
   25.2843  -21.0349  -12.4375 C   0  0  0  0  0  0  0  0  0  0  0  0
   25.0959  -20.8378  -13.6586 O   0  0  0  0  0  0  0  0  0  0  0  0
   24.2834  -21.7418  -11.7201 N   0  0  0  0  0  0  0  0  0  0  0  0
   23.0822  -22.2545  -12.3964 C   0  0  0  0  0  0  0  0  0  0  0  0
   22.1112  -21.1802  -12.6220 C   0  0  0  0  0  0  0  0  0  0  0  0
   20.8950  -21.4929  -13.2044 O   0  0  0  0  0  0  0  0  0  0  0  0
   22.3463  -19.9901  -12.3050 O   0  0  0  0  0  0  0  0  0  0  0  0
  2  1  1  1
  2 10  1  0
  3  2  1  0
  4  9  1  0
  4  3  1  0
  5  4  2  0
  6  7  2  0
  6  5  1  0
  7  8  1  0
  8  9  2  0
 10 11  2  0
 10 12  1  0
 12 13  1  0
 13 14  1  6
 14 15  1  0
 15 16  2  0
 15 19  1  0
 16 17  1  0
 17 18  1  0
 19 18  2  0
 20 21  2  0
 20 13  1  0
 22 20  1  0
 23 22  1  0
 23 24  1  0
 24 25  1  0
 26 24  2  0
M  END
$$$$
