FHG.pdb
     RDKit          3D

 26 27  0  0  1  0  0  0  0  0999 V2000
   17.8724  -23.3799    2.5973 N   0  0  0  0  0  0  0  0  0  0  0  0
   18.6747  -24.2118    3.4287 C   0  0  1  0  0  0  0  0  0  0  0  0
   20.1436  -24.1252    3.1671 C   0  0  0  0  0  0  0  0  0  0  0  0
   20.5966  -24.7068    1.9183 C   0  0  0  0  0  0  0  0  0  0  0  0
   19.9129  -25.7039    1.2355 C   0  0  0  0  0  0  0  0  0  0  0  0
   20.3998  -26.2127    0.0525 C   0  0  0  0  0  0  0  0  0  0  0  0
   21.5811  -25.7328   -0.4701 C   0  0  0  0  0  0  0  0  0  0  0  0
   22.2776  -24.7420    0.1912 C   0  0  0  0  0  0  0  0  0  0  0  0
   21.7898  -24.2312    1.3780 C   0  0  0  0  0  0  0  0  0  0  0  0
   18.4458  -23.8346    4.8425 C   0  0  0  0  0  0  0  0  0  0  0  0
   18.1107  -22.6578    5.1059 O   0  0  0  0  0  0  0  0  0  0  0  0
   18.5896  -24.7487    5.9136 N   0  0  0  0  0  0  0  0  0  0  0  0
   18.2454  -24.3167    7.2510 C   0  0  1  0  0  0  0  0  0  0  0  0
   17.1555  -25.2072    7.8060 C   0  0  0  0  0  0  0  0  0  0  0  0
   15.8738  -25.0925    7.0905 C   0  0  0  0  0  0  0  0  0  0  0  0
   15.4237  -23.9677    6.3917 C   0  0  0  0  0  0  0  0  0  0  0  0
   14.2276  -24.2045    5.8659 N   0  0  0  0  0  0  0  0  0  0  0  0
   13.8697  -25.4577    6.1964 C   0  0  0  0  0  0  0  0  0  0  0  0
   14.8642  -25.9819    6.9312 N   0  0  0  0  0  0  0  0  0  0  0  0
   19.4184  -24.3995    8.1635 C   0  0  0  0  0  0  0  0  0  0  0  0
   20.2771  -25.2934    7.9928 O   0  0  0  0  0  0  0  0  0  0  0  0
   19.6122  -23.4938    9.2398 N   0  0  0  0  0  0  0  0  0  0  0  0
   20.7984  -23.5837   10.1048 C   0  0  0  0  0  0  0  0  0  0  0  0
   20.6910  -24.7220   11.0217 C   0  0  0  0  0  0  0  0  0  0  0  0
   21.7021  -24.9326   11.9433 O   0  0  0  0  0  0  0  0  0  0  0  0
   19.7152  -25.5089   10.9981 O   0  0  0  0  0  0  0  0  0  0  0  0
  2  1  1  6
  2 10  1  0
  3  2  1  0
  4  9  1  0
  4  3  1  0
  5  4  2  0
  6  7  2  0
  6  5  1  0
  7  8  1  0
  8  9  2  0
 10 11  2  0
 10 12  1  0
 12 13  1  0
 13 14  1  1
 14 15  1  0
 15 16  2  0
 15 19  1  0
 16 17  1  0
 17 18  1  0
 19 18  2  0
 20 21  2  0
 20 13  1  0
 22 20  1  0
 23 22  1  0
 23 24  1  0
 24 25  1  0
 26 24  2  0
M  END
$$$$
