KGR.pdb
     RDKit          3D

 25 24  0  0  1  0  0  0  0  0999 V2000
    8.8382  -17.2454   27.4464 N   0  0  0  0  0  0  0  0  0  0  0  0
    7.9334  -16.1975   27.1008 C   0  0  1  0  0  0  0  0  0  0  0  0
    8.5998  -14.8888   26.8851 C   0  0  0  0  0  0  0  0  0  0  0  0
    9.6916  -14.5231   27.8248 C   0  0  0  0  0  0  0  0  0  0  0  0
    9.6075  -15.1386   29.1932 C   0  0  0  0  0  0  0  0  0  0  0  0
   10.7487  -14.5003   30.0024 C   0  0  0  0  0  0  0  0  0  0  0  0
   10.7656  -15.0204   31.3493 N   0  0  0  0  0  0  0  0  0  0  0  0
    7.1721  -16.6493   25.8970 C   0  0  0  0  0  0  0  0  0  0  0  0
    6.4148  -15.8755   25.2472 O   0  0  0  0  0  0  0  0  0  0  0  0
    7.2741  -17.9821   25.4340 N   0  0  0  0  0  0  0  0  0  0  0  0
    6.6184  -18.4087   24.2359 C   0  0  0  0  0  0  0  0  0  0  0  0
    7.4815  -18.1603   23.0394 C   0  0  0  0  0  0  0  0  0  0  0  0
    7.1242  -18.5304   21.8807 O   0  0  0  0  0  0  0  0  0  0  0  0
    7.8136  -12.0245   19.1696 N   0  0  0  0  0  0  0  0  0  0  0  0
    7.8586  -13.0651   18.1618 C   0  0  0  0  0  0  0  0  0  0  0  0
    8.3109  -12.7504   16.9977 N   0  0  0  0  0  0  0  0  0  0  0  0
    7.4152  -14.3570   18.4805 N   0  0  0  0  0  0  0  0  0  0  0  0
    7.2674  -14.7566   19.9024 C   0  0  0  0  0  0  0  0  0  0  0  0
    8.6144  -15.0755   20.4141 C   0  0  0  0  0  0  0  0  0  0  0  0
    8.8639  -15.6716   21.7078 C   0  0  0  0  0  0  0  0  0  0  0  0
    9.4153  -17.0515   21.8509 C   0  0  2  0  0  0  0  0  0  0  0  0
    8.7271  -17.5075   23.1341 N   0  0  0  0  0  0  0  0  0  0  0  0
   10.8524  -17.0233   22.1741 C   0  0  0  0  0  0  0  0  0  0  0  0
   11.8880  -17.1182   21.3103 O   0  0  0  0  0  0  0  0  0  0  0  0
   11.1707  -16.9016   23.4105 O   0  0  0  0  0  0  0  0  0  0  0  0
  2  1  1  6
  3  2  1  0
  4  3  1  0
  5  4  1  0
  5  6  1  0
  6  7  1  0
  8  9  2  0
  8  2  1  0
 10  8  1  0
 11 10  1  0
 12 11  1  0
 12 22  1  0
 13 12  2  0
 15 14  1  0
 16 15  2  0
 17 15  1  0
 18 17  1  0
 19 18  1  0
 21 20  1  1
 20 19  1  0
 21 22  1  0
 23 21  1  0
 24 23  1  0
 25 23  2  0
M  END
$$$$
