KGR.pdb
     RDKit          3D

 25 24  0  0  1  0  0  0  0  0999 V2000
    7.2482  -16.6241   19.9210 N   0  0  0  0  0  0  0  0  0  0  0  0
    8.3388  -15.7122   20.0444 C   0  0  1  0  0  0  0  0  0  0  0  0
    8.1126  -14.4225   19.3454 C   0  0  0  0  0  0  0  0  0  0  0  0
    7.8891  -14.4795   17.8771 C   0  0  0  0  0  0  0  0  0  0  0  0
    7.7746  -13.1515   17.1830 C   0  0  0  0  0  0  0  0  0  0  0  0
    7.5359  -13.4814   15.7002 C   0  0  0  0  0  0  0  0  0  0  0  0
    7.3669  -12.2696   14.9336 N   0  0  0  0  0  0  0  0  0  0  0  0
    8.5969  -15.5261   21.5045 C   0  0  0  0  0  0  0  0  0  0  0  0
    9.6522  -14.9867   21.9404 O   0  0  0  0  0  0  0  0  0  0  0  0
    7.6527  -15.9542   22.4669 N   0  0  0  0  0  0  0  0  0  0  0  0
    7.9044  -15.8239   23.8694 C   0  0  0  0  0  0  0  0  0  0  0  0
    8.7332  -16.9647   24.3696 C   0  0  0  0  0  0  0  0  0  0  0  0
    8.6000  -18.1333   23.8965 O   0  0  0  0  0  0  0  0  0  0  0  0
   11.8686  -19.9137   21.6825 N   0  0  0  0  0  0  0  0  0  0  0  0
   13.2799  -19.7591   21.9743 C   0  0  0  0  0  0  0  0  0  0  0  0
   14.0439  -20.7789   21.7876 N   0  0  0  0  0  0  0  0  0  0  0  0
   13.7588  -18.5270   22.4431 N   0  0  0  0  0  0  0  0  0  0  0  0
   12.8461  -17.6081   23.1682 C   0  0  0  0  0  0  0  0  0  0  0  0
   12.8040  -18.0474   24.5764 C   0  0  0  0  0  0  0  0  0  0  0  0
   11.9183  -17.4821   25.5700 C   0  0  0  0  0  0  0  0  0  0  0  0
   10.5395  -18.0092   25.7935 C   0  0  2  0  0  0  0  0  0  0  0  0
    9.6980  -16.8039   25.3843 N   0  0  0  0  0  0  0  0  0  0  0  0
   10.2653  -18.2007   27.2283 C   0  0  0  0  0  0  0  0  0  0  0  0
   10.5161  -19.3028   27.9699 O   0  0  0  0  0  0  0  0  0  0  0  0
    9.7222  -17.2223   27.8549 O   0  0  0  0  0  0  0  0  0  0  0  0
  2  1  1  1
  3  2  1  0
  4  3  1  0
  5  4  1  0
  5  6  1  0
  6  7  1  0
  8  9  2  0
  8  2  1  0
 10  8  1  0
 11 10  1  0
 12 11  1  0
 12 22  1  0
 13 12  2  0
 15 14  1  0
 16 15  2  0
 17 15  1  0
 18 17  1  0
 19 18  1  0
 21 20  1  1
 20 19  1  0
 21 22  1  0
 23 21  1  0
 24 23  1  0
 25 23  2  0
M  END
$$$$
