KGR.pdb
     RDKit          3D

 25 24  0  0  1  0  0  0  0  0999 V2000
    9.9985  -18.5203   19.8586 N   0  0  0  0  0  0  0  0  0  0  0  0
   11.0762  -17.7706   19.2993 C   0  0  1  0  0  0  0  0  0  0  0  0
   10.6568  -16.4623   18.7374 C   0  0  0  0  0  0  0  0  0  0  0  0
    9.4093  -16.4421   17.9298 C   0  0  0  0  0  0  0  0  0  0  0  0
    8.9783  -15.0921   17.4295 C   0  0  0  0  0  0  0  0  0  0  0  0
    7.6487  -15.3308   16.6948 C   0  0  0  0  0  0  0  0  0  0  0  0
    7.1447  -14.0936   16.1471 N   0  0  0  0  0  0  0  0  0  0  0  0
   12.1120  -17.6217   20.3660 C   0  0  0  0  0  0  0  0  0  0  0  0
   13.1374  -16.9003   20.2156 O   0  0  0  0  0  0  0  0  0  0  0  0
   11.9790  -18.2944   21.6032 N   0  0  0  0  0  0  0  0  0  0  0  0
   12.8791  -18.0478   22.6878 C   0  0  0  0  0  0  0  0  0  0  0  0
   12.1338  -17.6095   23.9088 C   0  0  0  0  0  0  0  0  0  0  0  0
   12.7384  -17.1196   24.9097 O   0  0  0  0  0  0  0  0  0  0  0  0
    6.0530  -13.4198   23.0343 N   0  0  0  0  0  0  0  0  0  0  0  0
    7.3498  -13.0145   22.5296 C   0  0  0  0  0  0  0  0  0  0  0  0
    7.3925  -12.4618   21.3672 N   0  0  0  0  0  0  0  0  0  0  0  0
    8.4952  -13.2343   23.3086 N   0  0  0  0  0  0  0  0  0  0  0  0
    8.4464  -14.1972   24.4372 C   0  0  0  0  0  0  0  0  0  0  0  0
    8.5120  -15.5550   23.8627 C   0  0  0  0  0  0  0  0  0  0  0  0
    8.7095  -16.7529   24.6483 C   0  0  0  0  0  0  0  0  0  0  0  0
   10.0383  -17.1097   25.2280 C   0  0  2  0  0  0  0  0  0  0  0  0
   10.7322  -17.7163   24.0120 N   0  0  0  0  0  0  0  0  0  0  0  0
    9.9214  -18.2146   26.1954 C   0  0  0  0  0  0  0  0  0  0  0  0
    9.7462  -18.1174   27.5324 O   0  0  0  0  0  0  0  0  0  0  0  0
    9.9989  -19.4078   25.7315 O   0  0  0  0  0  0  0  0  0  0  0  0
  2  1  1  1
  3  2  1  0
  4  3  1  0
  5  4  1  0
  5  6  1  0
  6  7  1  0
  8  9  2  0
  8  2  1  0
 10  8  1  0
 11 10  1  0
 12 11  1  0
 12 22  1  0
 13 12  2  0
 15 14  1  0
 16 15  2  0
 17 15  1  0
 18 17  1  0
 19 18  1  0
 21 20  1  6
 20 19  1  0
 21 22  1  0
 23 21  1  0
 24 23  1  0
 25 23  2  0
M  END
$$$$
