KGR.pdb
     RDKit          3D

 25 24  0  0  1  0  0  0  0  0999 V2000
   11.5910  -17.4452   16.7247 N   0  0  0  0  0  0  0  0  0  0  0  0
   10.3575  -17.3572   17.4366 C   0  0  1  0  0  0  0  0  0  0  0  0
    9.2345  -18.0545   16.7611 C   0  0  0  0  0  0  0  0  0  0  0  0
    9.1507  -17.9265   15.2828 C   0  0  0  0  0  0  0  0  0  0  0  0
    8.5282  -16.6575   14.7725 C   0  0  0  0  0  0  0  0  0  0  0  0
    8.3505  -16.8658   13.2594 C   0  0  0  0  0  0  0  0  0  0  0  0
    7.7336  -15.7068   12.6586 N   0  0  0  0  0  0  0  0  0  0  0  0
   10.6028  -17.8829   18.8137 C   0  0  0  0  0  0  0  0  0  0  0  0
    9.6987  -17.9169   19.6946 O   0  0  0  0  0  0  0  0  0  0  0  0
   11.8775  -18.3699   19.1862 N   0  0  0  0  0  0  0  0  0  0  0  0
   12.1360  -18.8506   20.5089 C   0  0  0  0  0  0  0  0  0  0  0  0
   12.1600  -17.7216   21.4904 C   0  0  0  0  0  0  0  0  0  0  0  0
   13.0699  -16.8394   21.4581 O   0  0  0  0  0  0  0  0  0  0  0  0
    6.0623  -13.5044   20.3083 N   0  0  0  0  0  0  0  0  0  0  0  0
    7.3493  -13.4294   19.6460 C   0  0  0  0  0  0  0  0  0  0  0  0
    7.3849  -12.9146   18.4660 N   0  0  0  0  0  0  0  0  0  0  0  0
    8.4929  -13.9120   20.2989 N   0  0  0  0  0  0  0  0  0  0  0  0
    8.3596  -14.6075   21.6034 C   0  0  0  0  0  0  0  0  0  0  0  0
    9.7182  -14.9694   22.0520 C   0  0  0  0  0  0  0  0  0  0  0  0
    9.9947  -15.7242   23.2541 C   0  0  0  0  0  0  0  0  0  0  0  0
   11.3004  -16.4140   23.4734 C   0  0  2  0  0  0  0  0  0  0  0  0
   11.1815  -17.5785   22.4947 N   0  0  0  0  0  0  0  0  0  0  0  0
   11.3598  -17.0368   24.8073 C   0  0  0  0  0  0  0  0  0  0  0  0
   11.8047  -16.4758   25.9539 O   0  0  0  0  0  0  0  0  0  0  0  0
   10.9526  -18.2491   24.9045 O   0  0  0  0  0  0  0  0  0  0  0  0
  2  1  1  6
  3  2  1  0
  4  3  1  0
  5  4  1  0
  5  6  1  0
  6  7  1  0
  8  9  2  0
  8  2  1  0
 10  8  1  0
 11 10  1  0
 12 11  1  0
 12 22  1  0
 13 12  2  0
 15 14  1  0
 16 15  2  0
 17 15  1  0
 18 17  1  0
 19 18  1  0
 21 20  1  1
 20 19  1  0
 21 22  1  0
 23 21  1  0
 24 23  1  0
 25 23  2  0
M  END
$$$$
