KGR.pdb
     RDKit          3D

 25 24  0  0  1  0  0  0  0  0999 V2000
    9.1471  -15.3401   18.4589 N   0  0  0  0  0  0  0  0  0  0  0  0
    8.6791  -14.2948   19.3101 C   0  0  1  0  0  0  0  0  0  0  0  0
    7.5160  -13.5577   18.7559 C   0  0  0  0  0  0  0  0  0  0  0  0
    7.2288  -13.7376   17.3088 C   0  0  0  0  0  0  0  0  0  0  0  0
    8.4065  -13.5899   16.3871 C   0  0  0  0  0  0  0  0  0  0  0  0
    7.8475  -13.7941   14.9692 C   0  0  0  0  0  0  0  0  0  0  0  0
    8.8973  -13.6568   13.9874 N   0  0  0  0  0  0  0  0  0  0  0  0
    8.3786  -14.9077   20.6394 C   0  0  0  0  0  0  0  0  0  0  0  0
    7.8968  -14.2407   21.5972 O   0  0  0  0  0  0  0  0  0  0  0  0
    8.6267  -16.2800   20.8766 N   0  0  0  0  0  0  0  0  0  0  0  0
    8.2981  -16.8931   22.1269 C   0  0  0  0  0  0  0  0  0  0  0  0
    9.3165  -16.5550   23.1695 C   0  0  0  0  0  0  0  0  0  0  0  0
   10.4540  -16.0925   22.8542 O   0  0  0  0  0  0  0  0  0  0  0  0
    5.6579  -11.2092   27.3654 N   0  0  0  0  0  0  0  0  0  0  0  0
    6.3589  -12.3062   26.7284 C   0  0  0  0  0  0  0  0  0  0  0  0
    5.6670  -13.1198   26.0087 N   0  0  0  0  0  0  0  0  0  0  0  0
    7.7422  -12.4445   26.9139 N   0  0  0  0  0  0  0  0  0  0  0  0
    8.2842  -13.6821   27.5286 C   0  0  0  0  0  0  0  0  0  0  0  0
    8.9968  -14.4252   26.4713 C   0  0  0  0  0  0  0  0  0  0  0  0
    9.4886  -15.7760   26.6284 C   0  0  0  0  0  0  0  0  0  0  0  0
   10.2082  -16.4894   25.5321 C   0  0  2  0  0  0  0  0  0  0  0  0
    9.0692  -16.7305   24.5459 N   0  0  0  0  0  0  0  0  0  0  0  0
   10.6386  -17.8322   25.9588 C   0  0  0  0  0  0  0  0  0  0  0  0
   11.7678  -18.1561   26.6278 O   0  0  0  0  0  0  0  0  0  0  0  0
    9.8678  -18.8138   25.6636 O   0  0  0  0  0  0  0  0  0  0  0  0
  2  1  1  6
  3  2  1  0
  4  3  1  0
  5  4  1  0
  5  6  1  0
  6  7  1  0
  8  9  2  0
  8  2  1  0
 10  8  1  0
 11 10  1  0
 12 11  1  0
 12 22  1  0
 13 12  2  0
 15 14  1  0
 16 15  2  0
 17 15  1  0
 18 17  1  0
 19 18  1  0
 21 20  1  1
 20 19  1  0
 21 22  1  0
 23 21  1  0
 24 23  1  0
 25 23  2  0
M  END
$$$$
