KGR.pdb
     RDKit          3D

 25 24  0  0  1  0  0  0  0  0999 V2000
    8.4916  -15.9647   18.3708 N   0  0  0  0  0  0  0  0  0  0  0  0
    8.7854  -14.7179   18.9996 C   0  0  1  0  0  0  0  0  0  0  0  0
    7.8377  -13.6349   18.6357 C   0  0  0  0  0  0  0  0  0  0  0  0
    7.9237  -13.0979   17.2525 C   0  0  0  0  0  0  0  0  0  0  0  0
    7.4162  -14.0060   16.1679 C   0  0  0  0  0  0  0  0  0  0  0  0
    7.6786  -13.2590   14.8497 C   0  0  0  0  0  0  0  0  0  0  0  0
    7.1420  -14.0007   13.7331 N   0  0  0  0  0  0  0  0  0  0  0  0
    8.8240  -14.9637   20.4730 C   0  0  0  0  0  0  0  0  0  0  0  0
    9.1701  -14.0722   21.2976 O   0  0  0  0  0  0  0  0  0  0  0  0
    8.4682  -16.2247   21.0062 N   0  0  0  0  0  0  0  0  0  0  0  0
    8.5054  -16.4777   22.4140 C   0  0  0  0  0  0  0  0  0  0  0  0
    9.7493  -17.2198   22.7888 C   0  0  0  0  0  0  0  0  0  0  0  0
   10.0160  -18.3539   22.2890 O   0  0  0  0  0  0  0  0  0  0  0  0
   15.1195  -14.8334   18.9069 N   0  0  0  0  0  0  0  0  0  0  0  0
   13.8454  -14.5157   19.5205 C   0  0  0  0  0  0  0  0  0  0  0  0
   12.8297  -14.3630   18.7436 N   0  0  0  0  0  0  0  0  0  0  0  0
   13.7617  -14.3859   20.9145 N   0  0  0  0  0  0  0  0  0  0  0  0
   14.3658  -15.4216   21.7896 C   0  0  0  0  0  0  0  0  0  0  0  0
   13.2757  -16.3064   22.2444 C   0  0  0  0  0  0  0  0  0  0  0  0
   13.0092  -16.6067   23.6336 C   0  0  0  0  0  0  0  0  0  0  0  0
   11.9165  -17.5360   24.0475 C   0  0  2  0  0  0  0  0  0  0  0  0
   10.6835  -16.7034   23.7091 N   0  0  0  0  0  0  0  0  0  0  0  0
   11.8795  -17.7013   25.5110 C   0  0  0  0  0  0  0  0  0  0  0  0
   12.5533  -18.6113   26.2496 O   0  0  0  0  0  0  0  0  0  0  0  0
   11.1224  -16.9030   26.1700 O   0  0  0  0  0  0  0  0  0  0  0  0
  2  1  1  6
  3  2  1  0
  4  3  1  0
  5  4  1  0
  5  6  1  0
  6  7  1  0
  8  9  2  0
  8  2  1  0
 10  8  1  0
 11 10  1  0
 12 11  1  0
 12 22  1  0
 13 12  2  0
 15 14  1  0
 16 15  2  0
 17 15  1  0
 18 17  1  0
 19 18  1  0
 21 20  1  1
 20 19  1  0
 21 22  1  0
 23 21  1  0
 24 23  1  0
 25 23  2  0
M  END
$$$$
