KGR.pdb
     RDKit          3D

 25 24  0  0  1  0  0  0  0  0999 V2000
    6.3478  -23.3305   24.6080 N   0  0  0  0  0  0  0  0  0  0  0  0
    5.4624  -22.4793   23.8817 C   0  0  1  0  0  0  0  0  0  0  0  0
    4.0281  -22.7514   24.1505 C   0  0  0  0  0  0  0  0  0  0  0  0
    3.6542  -24.1545   24.4676 C   0  0  0  0  0  0  0  0  0  0  0  0
    2.5157  -24.7224   23.6677 C   0  0  0  0  0  0  0  0  0  0  0  0
    2.4096  -26.1965   24.0923 C   0  0  0  0  0  0  0  0  0  0  0  0
    1.2910  -26.8321   23.4367 N   0  0  0  0  0  0  0  0  0  0  0  0
    5.8402  -21.0698   24.2035 C   0  0  0  0  0  0  0  0  0  0  0  0
    5.2590  -20.0785   23.6801 O   0  0  0  0  0  0  0  0  0  0  0  0
    6.8796  -20.7905   25.1215 N   0  0  0  0  0  0  0  0  0  0  0  0
    7.1403  -19.4576   25.5715 C   0  0  0  0  0  0  0  0  0  0  0  0
    7.9887  -18.7190   24.5850 C   0  0  0  0  0  0  0  0  0  0  0  0
    8.6188  -19.3298   23.6701 O   0  0  0  0  0  0  0  0  0  0  0  0
    7.2041  -14.2870   19.0855 N   0  0  0  0  0  0  0  0  0  0  0  0
    7.8746  -13.0491   19.4298 C   0  0  0  0  0  0  0  0  0  0  0  0
    8.4603  -12.4032   18.4820 N   0  0  0  0  0  0  0  0  0  0  0  0
    7.8652  -12.6035   20.7596 N   0  0  0  0  0  0  0  0  0  0  0  0
    7.2131  -13.4263   21.8090 C   0  0  0  0  0  0  0  0  0  0  0  0
    8.1722  -14.4745   22.2080 C   0  0  0  0  0  0  0  0  0  0  0  0
    7.8713  -15.5211   23.1595 C   0  0  0  0  0  0  0  0  0  0  0  0
    8.8334  -16.6240   23.4543 C   0  0  2  0  0  0  0  0  0  0  0  0
    8.1323  -17.3173   24.6187 N   0  0  0  0  0  0  0  0  0  0  0  0
   10.0905  -16.1019   24.0179 C   0  0  0  0  0  0  0  0  0  0  0  0
   11.2107  -15.7597   23.3428 O   0  0  0  0  0  0  0  0  0  0  0  0
   10.1439  -15.9566   25.2910 O   0  0  0  0  0  0  0  0  0  0  0  0
  2  1  1  1
  3  2  1  0
  4  3  1  0
  5  4  1  0
  5  6  1  0
  6  7  1  0
  8  9  2  0
  8  2  1  0
 10  8  1  0
 11 10  1  0
 12 11  1  0
 12 22  1  0
 13 12  2  0
 15 14  1  0
 16 15  2  0
 17 15  1  0
 18 17  1  0
 19 18  1  0
 21 20  1  1
 20 19  1  0
 21 22  1  0
 23 21  1  0
 24 23  1  0
 25 23  2  0
M  END
$$$$
