KGR.pdb
     RDKit          3D

 25 24  0  0  1  0  0  0  0  0999 V2000
   10.3649  -17.8129   16.1877 N   0  0  0  0  0  0  0  0  0  0  0  0
    9.0029  -18.2093   16.0332 C   0  0  1  0  0  0  0  0  0  0  0  0
    8.8449  -19.5907   15.5135 C   0  0  0  0  0  0  0  0  0  0  0  0
    9.7936  -20.6163   16.0205 C   0  0  0  0  0  0  0  0  0  0  0  0
    9.5577  -22.0190   15.5355 C   0  0  0  0  0  0  0  0  0  0  0  0
   10.5966  -22.8868   16.2651 C   0  0  0  0  0  0  0  0  0  0  0  0
   10.4168  -24.2797   15.9298 N   0  0  0  0  0  0  0  0  0  0  0  0
    8.3351  -18.0236   17.3570 C   0  0  0  0  0  0  0  0  0  0  0  0
    7.1038  -18.2447   17.5292 O   0  0  0  0  0  0  0  0  0  0  0  0
    9.0703  -17.5867   18.4838 N   0  0  0  0  0  0  0  0  0  0  0  0
    8.4796  -17.5329   19.7859 C   0  0  0  0  0  0  0  0  0  0  0  0
    9.4916  -17.1349   20.8134 C   0  0  0  0  0  0  0  0  0  0  0  0
   10.6787  -16.8327   20.4869 O   0  0  0  0  0  0  0  0  0  0  0  0
    9.0713  -13.4526   28.7356 N   0  0  0  0  0  0  0  0  0  0  0  0
    9.9340  -14.5914   28.9799 C   0  0  0  0  0  0  0  0  0  0  0  0
   10.4700  -14.6956   30.1463 N   0  0  0  0  0  0  0  0  0  0  0  0
   10.1543  -15.5250   27.9567 N   0  0  0  0  0  0  0  0  0  0  0  0
    9.8570  -15.1607   26.5488 C   0  0  0  0  0  0  0  0  0  0  0  0
   10.1443  -16.3446   25.7159 C   0  0  0  0  0  0  0  0  0  0  0  0
    9.5037  -16.6110   24.4471 C   0  0  0  0  0  0  0  0  0  0  0  0
   10.2623  -16.6106   23.1613 C   0  0  2  0  0  0  0  0  0  0  0  0
    9.1833  -17.0749   22.1874 N   0  0  0  0  0  0  0  0  0  0  0  0
   11.2824  -17.6734   23.1408 C   0  0  0  0  0  0  0  0  0  0  0  0
   11.1042  -18.9732   22.8148 O   0  0  0  0  0  0  0  0  0  0  0  0
   12.4763  -17.3435   23.4733 O   0  0  0  0  0  0  0  0  0  0  0  0
  2  1  1  1
  3  2  1  0
  4  3  1  0
  5  4  1  0
  5  6  1  0
  6  7  1  0
  8  9  2  0
  8  2  1  0
 10  8  1  0
 11 10  1  0
 12 11  1  0
 12 22  1  0
 13 12  2  0
 15 14  1  0
 16 15  2  0
 17 15  1  0
 18 17  1  0
 19 18  1  0
 21 20  1  1
 20 19  1  0
 21 22  1  0
 23 21  1  0
 24 23  1  0
 25 23  2  0
M  END
$$$$
