KGR.pdb
     RDKit          3D

 25 24  0  0  1  0  0  0  0  0999 V2000
    5.6640  -20.7787   19.4210 N   0  0  0  0  0  0  0  0  0  0  0  0
    6.4434  -19.5976   19.6050 C   0  0  1  0  0  0  0  0  0  0  0  0
    6.2627  -18.5962   18.5244 C   0  0  0  0  0  0  0  0  0  0  0  0
    7.1333  -18.7290   17.3271 C   0  0  0  0  0  0  0  0  0  0  0  0
    6.8456  -17.7743   16.2027 C   0  0  0  0  0  0  0  0  0  0  0  0
    7.8584  -18.1214   15.0989 C   0  0  0  0  0  0  0  0  0  0  0  0
    7.6836  -17.2505   13.9606 N   0  0  0  0  0  0  0  0  0  0  0  0
    6.0996  -19.0458   20.9504 C   0  0  0  0  0  0  0  0  0  0  0  0
    5.4247  -17.9883   21.0942 O   0  0  0  0  0  0  0  0  0  0  0  0
    6.5245  -19.6990   22.1310 N   0  0  0  0  0  0  0  0  0  0  0  0
    6.1980  -19.1869   23.4265 C   0  0  0  0  0  0  0  0  0  0  0  0
    7.3793  -18.5068   24.0433 C   0  0  0  0  0  0  0  0  0  0  0  0
    8.5070  -18.4905   23.4643 O   0  0  0  0  0  0  0  0  0  0  0  0
    5.1173  -11.3841   27.0008 N   0  0  0  0  0  0  0  0  0  0  0  0
    6.3977  -11.2784   26.3301 C   0  0  0  0  0  0  0  0  0  0  0  0
    6.8703  -10.0977   26.1272 N   0  0  0  0  0  0  0  0  0  0  0  0
    7.0678  -12.4437   25.9299 N   0  0  0  0  0  0  0  0  0  0  0  0
    6.3921  -13.7603   26.0461 C   0  0  0  0  0  0  0  0  0  0  0  0
    7.3341  -14.7852   25.5560 C   0  0  0  0  0  0  0  0  0  0  0  0
    7.8464  -15.8637   26.3718 C   0  0  0  0  0  0  0  0  0  0  0  0
    8.5126  -17.0597   25.7761 C   0  0  2  0  0  0  0  0  0  0  0  0
    7.3036  -17.8533   25.2898 N   0  0  0  0  0  0  0  0  0  0  0  0
    9.1324  -17.9005   26.8150 C   0  0  0  0  0  0  0  0  0  0  0  0
    8.6581  -19.0616   27.3195 O   0  0  0  0  0  0  0  0  0  0  0  0
   10.2438  -17.4940   27.3092 O   0  0  0  0  0  0  0  0  0  0  0  0
  2  1  1  6
  3  2  1  0
  4  3  1  0
  5  4  1  0
  5  6  1  0
  6  7  1  0
  8  9  2  0
  8  2  1  0
 10  8  1  0
 11 10  1  0
 12 11  1  0
 12 22  1  0
 13 12  2  0
 15 14  1  0
 16 15  2  0
 17 15  1  0
 18 17  1  0
 19 18  1  0
 21 20  1  1
 20 19  1  0
 21 22  1  0
 23 21  1  0
 24 23  1  0
 25 23  2  0
M  END
$$$$
