KGR.pdb
     RDKit          3D

 25 24  0  0  1  0  0  0  0  0999 V2000
    7.7837  -20.9493   26.5422 N   0  0  0  0  0  0  0  0  0  0  0  0
    7.0025  -19.7604   26.6535 C   0  0  1  0  0  0  0  0  0  0  0  0
    7.6054  -18.7387   27.5457 C   0  0  0  0  0  0  0  0  0  0  0  0
    8.8410  -19.1238   28.2764 C   0  0  0  0  0  0  0  0  0  0  0  0
    9.3725  -18.1022   29.2420 C   0  0  0  0  0  0  0  0  0  0  0  0
   10.5789  -18.7689   29.9236 C   0  0  0  0  0  0  0  0  0  0  0  0
   11.2039  -17.8556   30.8510 N   0  0  0  0  0  0  0  0  0  0  0  0
    6.7837  -19.2433   25.2687 C   0  0  0  0  0  0  0  0  0  0  0  0
    6.0648  -18.2329   25.0309 O   0  0  0  0  0  0  0  0  0  0  0  0
    7.3844  -19.8773   24.1559 N   0  0  0  0  0  0  0  0  0  0  0  0
    7.2331  -19.3602   22.8304 C   0  0  0  0  0  0  0  0  0  0  0  0
    8.1310  -18.1835   22.6124 C   0  0  0  0  0  0  0  0  0  0  0  0
    8.2691  -17.6636   21.4645 O   0  0  0  0  0  0  0  0  0  0  0  0
    8.4551  -11.8072   19.5602 N   0  0  0  0  0  0  0  0  0  0  0  0
    7.7993  -13.0202   19.1138 C   0  0  0  0  0  0  0  0  0  0  0  0
    7.7520  -13.2420   17.8461 N   0  0  0  0  0  0  0  0  0  0  0  0
    7.2466  -13.8964   20.0593 N   0  0  0  0  0  0  0  0  0  0  0  0
    7.5993  -13.7520   21.4939 C   0  0  0  0  0  0  0  0  0  0  0  0
    8.6406  -14.7533   21.7958 C   0  0  0  0  0  0  0  0  0  0  0  0
    8.8446  -15.3330   23.1049 C   0  0  0  0  0  0  0  0  0  0  0  0
    9.8140  -16.4445   23.3365 C   0  0  2  0  0  0  0  0  0  0  0  0
    8.8652  -17.5943   23.6614 N   0  0  0  0  0  0  0  0  0  0  0  0
   10.5926  -16.2282   24.5683 C   0  0  0  0  0  0  0  0  0  0  0  0
   11.8351  -15.7052   24.6706 O   0  0  0  0  0  0  0  0  0  0  0  0
   10.0446  -16.5764   25.6744 O   0  0  0  0  0  0  0  0  0  0  0  0
  2  1  1  6
  3  2  1  0
  4  3  1  0
  5  4  1  0
  5  6  1  0
  6  7  1  0
  8  9  2  0
  8  2  1  0
 10  8  1  0
 11 10  1  0
 12 11  1  0
 12 22  1  0
 13 12  2  0
 15 14  1  0
 16 15  2  0
 17 15  1  0
 18 17  1  0
 19 18  1  0
 21 20  1  1
 20 19  1  0
 21 22  1  0
 23 21  1  0
 24 23  1  0
 25 23  2  0
M  END
$$$$
