KGR.pdb
     RDKit          3D

 25 24  0  0  1  0  0  0  0  0999 V2000
    8.0299  -21.5598   19.0967 N   0  0  0  0  0  0  0  0  0  0  0  0
    7.6725  -20.2203   18.7590 C   0  0  1  0  0  0  0  0  0  0  0  0
    6.4608  -20.1291   17.9066 C   0  0  0  0  0  0  0  0  0  0  0  0
    6.2654  -21.1982   16.8928 C   0  0  0  0  0  0  0  0  0  0  0  0
    4.8943  -21.8119   16.8484 C   0  0  0  0  0  0  0  0  0  0  0  0
    4.9864  -22.9507   15.8192 C   0  0  0  0  0  0  0  0  0  0  0  0
    3.7196  -23.6345   15.7073 N   0  0  0  0  0  0  0  0  0  0  0  0
    7.5203  -19.4666   20.0403 C   0  0  0  0  0  0  0  0  0  0  0  0
    7.1600  -18.2568   20.0734 O   0  0  0  0  0  0  0  0  0  0  0  0
    7.7782  -20.0914   21.2829 N   0  0  0  0  0  0  0  0  0  0  0  0
    7.5446  -19.4148   22.5218 C   0  0  0  0  0  0  0  0  0  0  0  0
    8.6585  -18.4638   22.8271 C   0  0  0  0  0  0  0  0  0  0  0  0
    9.8214  -18.6368   22.3530 O   0  0  0  0  0  0  0  0  0  0  0  0
    7.1266  -12.2746   20.6449 N   0  0  0  0  0  0  0  0  0  0  0  0
    8.2046  -12.8599   19.8729 C   0  0  0  0  0  0  0  0  0  0  0  0
    8.2900  -12.5404   18.6282 N   0  0  0  0  0  0  0  0  0  0  0  0
    9.1025  -13.7400   20.4945 N   0  0  0  0  0  0  0  0  0  0  0  0
    8.5979  -14.9855   21.1249 C   0  0  0  0  0  0  0  0  0  0  0  0
    8.1589  -14.6426   22.4914 C   0  0  0  0  0  0  0  0  0  0  0  0
    8.8677  -15.0388   23.6880 C   0  0  0  0  0  0  0  0  0  0  0  0
    9.6168  -16.3272   23.7748 C   0  0  2  0  0  0  0  0  0  0  0  0
    8.4775  -17.3345   23.6508 N   0  0  0  0  0  0  0  0  0  0  0  0
   10.1696  -16.5357   25.1244 C   0  0  0  0  0  0  0  0  0  0  0  0
   11.3926  -16.1744   25.5732 O   0  0  0  0  0  0  0  0  0  0  0  0
    9.4193  -17.1309   25.9774 O   0  0  0  0  0  0  0  0  0  0  0  0
  2  1  1  1
  3  2  1  0
  4  3  1  0
  5  4  1  0
  5  6  1  0
  6  7  1  0
  8  9  2  0
  8  2  1  0
 10  8  1  0
 11 10  1  0
 12 11  1  0
 12 22  1  0
 13 12  2  0
 15 14  1  0
 16 15  2  0
 17 15  1  0
 18 17  1  0
 19 18  1  0
 21 20  1  1
 20 19  1  0
 21 22  1  0
 23 21  1  0
 24 23  1  0
 25 23  2  0
M  END
$$$$
