KGR.pdb
     RDKit          3D

 25 24  0  0  1  0  0  0  0  0999 V2000
   13.7113  -15.2048   18.3270 N   0  0  0  0  0  0  0  0  0  0  0  0
   12.4815  -14.8699   18.9686 C   0  0  1  0  0  0  0  0  0  0  0  0
   11.4730  -14.2899   18.0467 C   0  0  0  0  0  0  0  0  0  0  0  0
   10.1596  -13.9137   18.6318 C   0  0  0  0  0  0  0  0  0  0  0  0
    9.1850  -13.2698   17.6862 C   0  0  0  0  0  0  0  0  0  0  0  0
    7.9505  -12.9285   18.5371 C   0  0  0  0  0  0  0  0  0  0  0  0
    6.9172  -12.3425   17.7162 N   0  0  0  0  0  0  0  0  0  0  0  0
   11.9843  -16.1062   19.6449 C   0  0  0  0  0  0  0  0  0  0  0  0
   11.6293  -17.1323   19.0003 O   0  0  0  0  0  0  0  0  0  0  0  0
   11.8922  -16.1728   21.0549 N   0  0  0  0  0  0  0  0  0  0  0  0
   11.0928  -17.1657   21.7049 C   0  0  0  0  0  0  0  0  0  0  0  0
   11.0915  -16.9614   23.1871 C   0  0  0  0  0  0  0  0  0  0  0  0
   11.9153  -16.1756   23.7448 O   0  0  0  0  0  0  0  0  0  0  0  0
    8.2104  -12.4188   26.7218 N   0  0  0  0  0  0  0  0  0  0  0  0
    6.8443  -12.8941   26.6298 C   0  0  0  0  0  0  0  0  0  0  0  0
    5.9886  -12.4185   27.4665 N   0  0  0  0  0  0  0  0  0  0  0  0
    6.5050  -13.8399   25.6514 N   0  0  0  0  0  0  0  0  0  0  0  0
    7.5635  -14.6831   25.0415 C   0  0  0  0  0  0  0  0  0  0  0  0
    7.3260  -16.0733   25.4759 C   0  0  0  0  0  0  0  0  0  0  0  0
    8.2679  -17.1519   25.2739 C   0  0  0  0  0  0  0  0  0  0  0  0
    9.7440  -16.9340   25.3236 C   0  0  2  0  0  0  0  0  0  0  0  0
   10.1830  -17.6250   24.0360 N   0  0  0  0  0  0  0  0  0  0  0  0
   10.3643  -17.7132   26.4092 C   0  0  0  0  0  0  0  0  0  0  0  0
   10.7373  -17.2651   27.6289 O   0  0  0  0  0  0  0  0  0  0  0  0
   10.5866  -18.9559   26.1830 O   0  0  0  0  0  0  0  0  0  0  0  0
  2  1  1  6
  3  2  1  0
  4  3  1  0
  5  4  1  0
  5  6  1  0
  6  7  1  0
  8  9  2  0
  8  2  1  0
 10  8  1  0
 11 10  1  0
 12 11  1  0
 12 22  1  0
 13 12  2  0
 15 14  1  0
 16 15  2  0
 17 15  1  0
 18 17  1  0
 19 18  1  0
 21 20  1  1
 20 19  1  0
 21 22  1  0
 23 21  1  0
 24 23  1  0
 25 23  2  0
M  END
$$$$
