KGR.pdb
     RDKit          3D

 25 24  0  0  1  0  0  0  0  0999 V2000
    4.8699  -23.0791   23.0838 N   0  0  0  0  0  0  0  0  0  0  0  0
    6.1151  -22.3825   23.0655 C   0  0  1  0  0  0  0  0  0  0  0  0
    6.5950  -22.0661   21.6969 C   0  0  0  0  0  0  0  0  0  0  0  0
    5.6858  -22.3964   20.5685 C   0  0  0  0  0  0  0  0  0  0  0  0
    6.2377  -22.1491   19.1928 C   0  0  0  0  0  0  0  0  0  0  0  0
    5.1583  -22.6520   18.2199 C   0  0  0  0  0  0  0  0  0  0  0  0
    5.5398  -22.3758   16.8550 N   0  0  0  0  0  0  0  0  0  0  0  0
    5.9488  -21.1567   23.9036 C   0  0  0  0  0  0  0  0  0  0  0  0
    5.8216  -21.2090   25.1589 O   0  0  0  0  0  0  0  0  0  0  0  0
    5.9279  -19.8722   23.3116 N   0  0  0  0  0  0  0  0  0  0  0  0
    5.8422  -18.6851   24.1058 C   0  0  0  0  0  0  0  0  0  0  0  0
    7.0945  -17.8748   23.9888 C   0  0  0  0  0  0  0  0  0  0  0  0
    8.1959  -18.4079   23.6573 O   0  0  0  0  0  0  0  0  0  0  0  0
    9.0137  -14.3896   19.3102 N   0  0  0  0  0  0  0  0  0  0  0  0
    8.1459  -13.2288   19.2948 C   0  0  0  0  0  0  0  0  0  0  0  0
    8.0457  -12.5723   18.1914 N   0  0  0  0  0  0  0  0  0  0  0  0
    7.4572  -12.8639   20.4609 N   0  0  0  0  0  0  0  0  0  0  0  0
    7.1498  -13.8904   21.4881 C   0  0  0  0  0  0  0  0  0  0  0  0
    7.8558  -13.5031   22.7248 C   0  0  0  0  0  0  0  0  0  0  0  0
    7.8767  -14.3084   23.9258 C   0  0  0  0  0  0  0  0  0  0  0  0
    8.3934  -15.7090   23.9312 C   0  0  2  0  0  0  0  0  0  0  0  0
    7.1179  -16.4879   24.2384 N   0  0  0  0  0  0  0  0  0  0  0  0
    9.2781  -15.9492   25.0845 C   0  0  0  0  0  0  0  0  0  0  0  0
   10.6263  -16.0490   25.0756 O   0  0  0  0  0  0  0  0  0  0  0  0
    8.7193  -16.0869   26.2307 O   0  0  0  0  0  0  0  0  0  0  0  0
  2  1  1  6
  3  2  1  0
  4  3  1  0
  5  4  1  0
  5  6  1  0
  6  7  1  0
  8  9  2  0
  8  2  1  0
 10  8  1  0
 11 10  1  0
 12 11  1  0
 12 22  1  0
 13 12  2  0
 15 14  1  0
 16 15  2  0
 17 15  1  0
 18 17  1  0
 19 18  1  0
 21 20  1  1
 20 19  1  0
 21 22  1  0
 23 21  1  0
 24 23  1  0
 25 23  2  0
M  END
$$$$
