KGR.pdb
     RDKit          3D

 25 24  0  0  1  0  0  0  0  0999 V2000
    8.7959  -12.9089   19.1385 N   0  0  0  0  0  0  0  0  0  0  0  0
    7.4333  -13.2732   18.9227 C   0  0  1  0  0  0  0  0  0  0  0  0
    7.1614  -13.7544   17.5451 C   0  0  0  0  0  0  0  0  0  0  0  0
    8.3338  -13.9436   16.6514 C   0  0  0  0  0  0  0  0  0  0  0  0
    8.3194  -15.1902   15.8122 C   0  0  0  0  0  0  0  0  0  0  0  0
    9.6568  -15.1907   15.0533 C   0  0  0  0  0  0  0  0  0  0  0  0
    9.7350  -16.3286   14.1679 N   0  0  0  0  0  0  0  0  0  0  0  0
    7.0782  -14.2912   19.9574 C   0  0  0  0  0  0  0  0  0  0  0  0
    5.9493  -14.8559   19.9897 O   0  0  0  0  0  0  0  0  0  0  0  0
    8.0095  -14.6654   20.9543 N   0  0  0  0  0  0  0  0  0  0  0  0
    7.7121  -15.6908   21.9068 C   0  0  0  0  0  0  0  0  0  0  0  0
    8.8861  -15.9459   22.7984 C   0  0  0  0  0  0  0  0  0  0  0  0
   10.0745  -15.8388   22.3702 O   0  0  0  0  0  0  0  0  0  0  0  0
    7.1634  -11.0950   26.3416 N   0  0  0  0  0  0  0  0  0  0  0  0
    6.4843  -12.3418   26.6331 C   0  0  0  0  0  0  0  0  0  0  0  0
    5.2036  -12.3698   26.5002 N   0  0  0  0  0  0  0  0  0  0  0  0
    7.2298  -13.4565   27.0439 N   0  0  0  0  0  0  0  0  0  0  0  0
    8.7129  -13.3962   27.0352 C   0  0  0  0  0  0  0  0  0  0  0  0
    9.1841  -14.2658   25.9399 C   0  0  0  0  0  0  0  0  0  0  0  0
    9.7118  -15.5974   26.1394 C   0  0  0  0  0  0  0  0  0  0  0  0
    9.9888  -16.5187   24.9978 C   0  0  2  0  0  0  0  0  0  0  0  0
    8.7364  -16.3156   24.1502 N   0  0  0  0  0  0  0  0  0  0  0  0
    9.9411  -17.9284   25.4233 C   0  0  0  0  0  0  0  0  0  0  0  0
   10.9412  -18.6514   25.9752 O   0  0  0  0  0  0  0  0  0  0  0  0
    8.8345  -18.5534   25.2510 O   0  0  0  0  0  0  0  0  0  0  0  0
  2  1  1  6
  3  2  1  0
  4  3  1  0
  5  4  1  0
  5  6  1  0
  6  7  1  0
  8  9  2  0
  8  2  1  0
 10  8  1  0
 11 10  1  0
 12 11  1  0
 12 22  1  0
 13 12  2  0
 15 14  1  0
 16 15  2  0
 17 15  1  0
 18 17  1  0
 19 18  1  0
 21 20  1  1
 20 19  1  0
 21 22  1  0
 23 21  1  0
 24 23  1  0
 25 23  2  0
M  END
$$$$
