YQI.pdb
     RDKit          3D

 30 30  0  0  1  0  0  0  0  0999 V2000
    7.3030  -11.8829   16.6401 O   0  0  0  0  0  0  0  0  0  0  0  0
    7.4128  -12.6205   17.8247 C   0  0  0  0  0  0  0  0  0  0  0  0
    8.6100  -12.6211   18.5067 C   0  0  0  0  0  0  0  0  0  0  0  0
    8.7126  -13.3536   19.6779 C   0  0  0  0  0  0  0  0  0  0  0  0
    7.6522  -14.0842   20.1849 C   0  0  0  0  0  0  0  0  0  0  0  0
    7.8629  -14.8264   21.4585 C   0  0  0  0  0  0  0  0  0  0  0  0
    8.5105  -16.1304   21.1162 C   0  0  2  0  0  0  0  0  0  0  0  0
    7.6101  -16.9596   20.3190 N   0  0  0  0  0  0  0  0  0  0  0  0
    8.9648  -16.9120   22.3113 C   0  0  0  0  0  0  0  0  0  0  0  0
    8.1723  -17.3924   23.1342 O   0  0  0  0  0  0  0  0  0  0  0  0
    6.4667  -14.0710   19.4909 C   0  0  0  0  0  0  0  0  0  0  0  0
    6.3551  -13.3340   18.3070 C   0  0  0  0  0  0  0  0  0  0  0  0
   14.3166  -20.3838   22.9723 N   0  0  0  0  0  0  0  0  0  0  0  0
   13.8219  -20.2216   24.2908 C   0  0  0  0  0  0  0  0  0  0  0  0
   14.3786  -20.8520   25.2248 O   0  0  0  0  0  0  0  0  0  0  0  0
   12.6785  -19.3412   24.5667 C   0  0  0  0  0  0  0  0  0  0  0  0
   12.1249  -18.6789   23.3142 C   0  0  0  0  0  0  0  0  0  0  0  0
   10.9494  -17.7916   23.6542 C   0  0  2  0  0  0  0  0  0  0  0  0
   10.3680  -17.1225   22.5321 N   0  0  0  0  0  0  0  0  0  0  0  0
   11.1847  -16.8930   24.7985 C   0  0  0  0  0  0  0  0  0  0  0  0
   12.0358  -15.9526   24.7523 O   0  0  0  0  0  0  0  0  0  0  0  0
    9.4706  -12.6675   28.4179 C   0  0  0  0  0  0  0  0  0  0  0  0
   10.2893  -13.9133   28.3253 C   0  0  0  0  0  0  0  0  0  0  0  0
    9.9518  -14.8433   27.2089 C   0  0  2  0  0  0  0  0  0  0  0  0
    8.4505  -15.1750   27.2103 C   0  0  0  0  0  0  0  0  0  0  0  0
   10.7305  -16.0909   27.1355 C   0  0  2  0  0  0  0  0  0  0  0  0
   10.4815  -16.9937   26.0601 N   0  0  0  0  0  0  0  0  0  0  0  0
   10.8532  -16.7798   28.4789 C   0  0  0  0  0  0  0  0  0  0  0  0
   10.3960  -17.9094   28.6872 O   0  0  0  0  0  0  0  0  0  0  0  0
   11.5169  -16.0550   29.4546 O   0  0  0  0  0  0  0  0  0  0  0  0
  1  2  1  0
  2 12  2  0
  3  4  2  0
  3  2  1  0
  4  5  1  0
  5  6  1  0
  5 11  2  0
  7  8  1  1
  7  6  1  0
  9  7  1  0
  9 10  2  0
 12 11  1  0
 13 14  1  0
 14 15  2  0
 16 17  1  0
 16 14  1  0
 18 17  1  6
 18 19  1  0
 18 20  1  0
 19  9  1  0
 20 27  1  0
 21 20  2  0
 22 23  1  0
 23 24  1  0
 24 25  1  1
 24 26  1  0
 26 28  1  0
 26 27  1  6
 28 29  2  0
 28 30  1  0
M  END
$$$$
