YQI.pdb
     RDKit          3D

 30 30  0  0  1  0  0  0  0  0999 V2000
    8.2616  -13.5667   15.4086 O   0  0  0  0  0  0  0  0  0  0  0  0
    7.8071  -13.8800   16.6949 C   0  0  0  0  0  0  0  0  0  0  0  0
    8.1903  -13.0865   17.7541 C   0  0  0  0  0  0  0  0  0  0  0  0
    7.7379  -13.4021   19.0248 C   0  0  0  0  0  0  0  0  0  0  0  0
    6.9139  -14.4879   19.2645 C   0  0  0  0  0  0  0  0  0  0  0  0
    6.4728  -14.7321   20.6656 C   0  0  0  0  0  0  0  0  0  0  0  0
    7.6312  -15.3230   21.4044 C   0  0  2  0  0  0  0  0  0  0  0  0
    8.1149  -16.5244   20.7287 N   0  0  0  0  0  0  0  0  0  0  0  0
    7.3308  -15.6544   22.8345 C   0  0  0  0  0  0  0  0  0  0  0  0
    6.8265  -14.8359   23.6167 O   0  0  0  0  0  0  0  0  0  0  0  0
    6.5426  -15.2670   18.1957 C   0  0  0  0  0  0  0  0  0  0  0  0
    6.9955  -14.9551   16.9093 C   0  0  0  0  0  0  0  0  0  0  0  0
    7.1424  -21.6286   25.4505 N   0  0  0  0  0  0  0  0  0  0  0  0
    6.9914  -20.7157   26.5243 C   0  0  0  0  0  0  0  0  0  0  0  0
    6.7236  -21.1677   27.6660 O   0  0  0  0  0  0  0  0  0  0  0  0
    7.1373  -19.2690   26.3134 C   0  0  0  0  0  0  0  0  0  0  0  0
    7.3259  -18.8996   24.8500 C   0  0  0  0  0  0  0  0  0  0  0  0
    7.4608  -17.4027   24.6900 C   0  0  2  0  0  0  0  0  0  0  0  0
    7.6329  -16.9642   23.3398 N   0  0  0  0  0  0  0  0  0  0  0  0
    8.4201  -16.7818   25.6209 C   0  0  0  0  0  0  0  0  0  0  0  0
    9.6653  -17.0206   25.5630 O   0  0  0  0  0  0  0  0  0  0  0  0
    6.9208  -11.9962   27.3495 C   0  0  0  0  0  0  0  0  0  0  0  0
    8.0452  -12.8504   26.8627 C   0  0  0  0  0  0  0  0  0  0  0  0
    8.6660  -13.7604   27.8684 C   0  0  2  0  0  0  0  0  0  0  0  0
    9.9015  -13.1054   28.5075 C   0  0  0  0  0  0  0  0  0  0  0  0
    9.0128  -15.1139   27.4035 C   0  0  2  0  0  0  0  0  0  0  0  0
    8.0425  -15.8576   26.6695 N   0  0  0  0  0  0  0  0  0  0  0  0
    9.7146  -15.9323   28.4675 C   0  0  0  0  0  0  0  0  0  0  0  0
    9.2129  -16.9508   28.9568 O   0  0  0  0  0  0  0  0  0  0  0  0
   10.9589  -15.4596   28.8496 O   0  0  0  0  0  0  0  0  0  0  0  0
  1  2  1  0
  2 12  2  0
  3  4  2  0
  3  2  1  0
  4  5  1  0
  5  6  1  0
  5 11  2  0
  7  8  1  6
  7  6  1  0
  9  7  1  0
  9 10  2  0
 12 11  1  0
 13 14  1  0
 14 15  2  0
 16 17  1  0
 16 14  1  0
 18 17  1  6
 18 19  1  0
 18 20  1  0
 19  9  1  0
 20 27  1  0
 21 20  2  0
 22 23  1  0
 23 24  1  0
 24 25  1  6
 24 26  1  0
 26 28  1  0
 26 27  1  1
 28 29  2  0
 28 30  1  0
M  END
$$$$
