YQI.pdb
     RDKit          3D

 30 30  0  0  1  0  0  0  0  0999 V2000
    8.7357  -12.9292   16.2161 O   0  0  0  0  0  0  0  0  0  0  0  0
    8.0450  -13.4901   17.2966 C   0  0  0  0  0  0  0  0  0  0  0  0
    8.3243  -13.0515   18.5726 C   0  0  0  0  0  0  0  0  0  0  0  0
    7.6380  -13.6110   19.6379 C   0  0  0  0  0  0  0  0  0  0  0  0
    6.6814  -14.5956   19.4620 C   0  0  0  0  0  0  0  0  0  0  0  0
    5.9916  -15.1212   20.6725 C   0  0  0  0  0  0  0  0  0  0  0  0
    6.7532  -16.3216   21.1374 C   0  0  2  0  0  0  0  0  0  0  0  0
    6.5623  -17.4409   20.2184 N   0  0  0  0  0  0  0  0  0  0  0  0
    6.3985  -16.7626   22.5248 C   0  0  0  0  0  0  0  0  0  0  0  0
    5.3323  -17.3362   22.7899 O   0  0  0  0  0  0  0  0  0  0  0  0
    6.4168  -15.0197   18.1825 C   0  0  0  0  0  0  0  0  0  0  0  0
    7.1058  -14.4598   17.1013 C   0  0  0  0  0  0  0  0  0  0  0  0
    6.9659  -21.4578   24.9954 N   0  0  0  0  0  0  0  0  0  0  0  0
    6.9834  -20.7279   26.2104 C   0  0  0  0  0  0  0  0  0  0  0  0
    6.8361  -21.3531   27.2908 O   0  0  0  0  0  0  0  0  0  0  0  0
    7.1635  -19.2698   26.2144 C   0  0  0  0  0  0  0  0  0  0  0  0
    7.2028  -18.6738   24.8155 C   0  0  0  0  0  0  0  0  0  0  0  0
    7.2980  -17.1667   24.8793 C   0  0  2  0  0  0  0  0  0  0  0  0
    7.3136  -16.5193   23.6044 N   0  0  0  0  0  0  0  0  0  0  0  0
    8.3453  -16.6676   25.7883 C   0  0  0  0  0  0  0  0  0  0  0  0
    9.5807  -16.8166   25.5384 O   0  0  0  0  0  0  0  0  0  0  0  0
    6.8364  -11.9482   27.4141 C   0  0  0  0  0  0  0  0  0  0  0  0
    7.9700  -12.8301   27.0042 C   0  0  0  0  0  0  0  0  0  0  0  0
    8.5106  -13.7411   28.0544 C   0  0  2  0  0  0  0  0  0  0  0  0
    9.6076  -13.0402   28.8723 C   0  0  0  0  0  0  0  0  0  0  0  0
    9.0007  -15.0523   27.5973 C   0  0  2  0  0  0  0  0  0  0  0  0
    8.0717  -15.9727   27.0287 N   0  0  0  0  0  0  0  0  0  0  0  0
    9.9508  -15.6952   28.5865 C   0  0  0  0  0  0  0  0  0  0  0  0
    9.6970  -16.7681   29.1458 O   0  0  0  0  0  0  0  0  0  0  0  0
   11.1242  -14.9966   28.8162 O   0  0  0  0  0  0  0  0  0  0  0  0
  1  2  1  0
  2 12  2  0
  3  4  2  0
  3  2  1  0
  4  5  1  0
  5  6  1  0
  5 11  2  0
  7  8  1  6
  7  6  1  0
  9  7  1  0
  9 10  2  0
 12 11  1  0
 13 14  1  0
 14 15  2  0
 16 17  1  0
 16 14  1  0
 18 17  1  6
 18 19  1  0
 18 20  1  0
 19  9  1  0
 20 27  1  0
 21 20  2  0
 22 23  1  0
 23 24  1  0
 24 25  1  6
 24 26  1  0
 26 28  1  0
 26 27  1  1
 28 29  2  0
 28 30  1  0
M  END
$$$$
