YQI.pdb
     RDKit          3D

 30 30  0  0  1  0  0  0  0  0999 V2000
    6.8214  -12.3800   16.2637 O   0  0  0  0  0  0  0  0  0  0  0  0
    6.9958  -13.1304   17.4324 C   0  0  0  0  0  0  0  0  0  0  0  0
    7.4491  -12.5026   18.5720 C   0  0  0  0  0  0  0  0  0  0  0  0
    7.6204  -13.2507   19.7252 C   0  0  0  0  0  0  0  0  0  0  0  0
    7.3509  -14.6075   19.7695 C   0  0  0  0  0  0  0  0  0  0  0  0
    7.5555  -15.3166   21.0628 C   0  0  0  0  0  0  0  0  0  0  0  0
    9.0303  -15.4295   21.2845 C   0  0  2  0  0  0  0  0  0  0  0  0
    9.6806  -16.0379   20.1265 N   0  0  0  0  0  0  0  0  0  0  0  0
    9.3996  -16.2021   22.5141 C   0  0  0  0  0  0  0  0  0  0  0  0
    8.7318  -16.1544   23.5570 O   0  0  0  0  0  0  0  0  0  0  0  0
    6.8996  -15.2155   18.6233 C   0  0  0  0  0  0  0  0  0  0  0  0
    6.7244  -14.4670   17.4545 C   0  0  0  0  0  0  0  0  0  0  0  0
   14.4460  -19.9499   22.1189 N   0  0  0  0  0  0  0  0  0  0  0  0
   13.1485  -20.2494   21.6333 C   0  0  0  0  0  0  0  0  0  0  0  0
   13.0325  -21.0811   20.6981 O   0  0  0  0  0  0  0  0  0  0  0  0
   11.9594  -19.6005   22.2022 C   0  0  0  0  0  0  0  0  0  0  0  0
   12.2957  -18.6143   23.3103 C   0  0  0  0  0  0  0  0  0  0  0  0
   11.1033  -17.7418   23.6289 C   0  0  2  0  0  0  0  0  0  0  0  0
   10.5698  -17.0344   22.5065 N   0  0  0  0  0  0  0  0  0  0  0  0
   11.2847  -16.8838   24.8135 C   0  0  0  0  0  0  0  0  0  0  0  0
   12.2425  -16.0561   24.9052 O   0  0  0  0  0  0  0  0  0  0  0  0
    9.5504  -12.8284   28.7878 C   0  0  0  0  0  0  0  0  0  0  0  0
   10.3377  -14.0738   28.5425 C   0  0  0  0  0  0  0  0  0  0  0  0
    9.9407  -14.8820   27.3533 C   0  0  2  0  0  0  0  0  0  0  0  0
    8.4313  -15.1743   27.3718 C   0  0  0  0  0  0  0  0  0  0  0  0
   10.6812  -16.1359   27.1346 C   0  0  2  0  0  0  0  0  0  0  0  0
   10.4052  -16.9012   25.9635 N   0  0  0  0  0  0  0  0  0  0  0  0
   10.7826  -16.9779   28.3897 C   0  0  0  0  0  0  0  0  0  0  0  0
   10.2190  -18.0728   28.4989 O   0  0  0  0  0  0  0  0  0  0  0  0
   11.5541  -16.4347   29.4033 O   0  0  0  0  0  0  0  0  0  0  0  0
  1  2  1  0
  2 12  2  0
  3  4  2  0
  3  2  1  0
  4  5  1  0
  5  6  1  0
  5 11  2  0
  7  8  1  6
  7  6  1  0
  9  7  1  0
  9 10  2  0
 12 11  1  0
 13 14  1  0
 14 15  2  0
 16 17  1  0
 16 14  1  0
 18 17  1  6
 18 19  1  0
 18 20  1  0
 19  9  1  0
 20 27  1  0
 21 20  2  0
 22 23  1  0
 23 24  1  0
 24 25  1  1
 24 26  1  0
 26 28  1  0
 26 27  1  6
 28 29  2  0
 28 30  1  0
M  END
$$$$
