YQI.pdb
     RDKit          3D

 30 30  0  0  1  0  0  0  0  0999 V2000
    5.7090  -23.5922   29.1171 O   0  0  0  0  0  0  0  0  0  0  0  0
    6.0985  -22.4504   28.4071 C   0  0  0  0  0  0  0  0  0  0  0  0
    7.2617  -21.8032   28.7624 C   0  0  0  0  0  0  0  0  0  0  0  0
    7.6415  -20.6734   28.0565 C   0  0  0  0  0  0  0  0  0  0  0  0
    6.8907  -20.1743   27.0065 C   0  0  0  0  0  0  0  0  0  0  0  0
    7.3943  -18.9615   26.3044 C   0  0  0  0  0  0  0  0  0  0  0  0
    7.6996  -19.3539   24.8938 C   0  0  2  0  0  0  0  0  0  0  0  0
    8.4730  -20.5927   24.8592 N   0  0  0  0  0  0  0  0  0  0  0  0
    8.4298  -18.3004   24.1177 C   0  0  0  0  0  0  0  0  0  0  0  0
    9.6644  -18.1936   24.1370 O   0  0  0  0  0  0  0  0  0  0  0  0
    5.7342  -20.8334   26.6670 C   0  0  0  0  0  0  0  0  0  0  0  0
    5.3437  -21.9750   27.3753 C   0  0  0  0  0  0  0  0  0  0  0  0
    5.8413  -14.0518   19.8470 N   0  0  0  0  0  0  0  0  0  0  0  0
    7.1297  -13.5629   20.1791 C   0  0  0  0  0  0  0  0  0  0  0  0
    7.5561  -12.5388   19.5882 O   0  0  0  0  0  0  0  0  0  0  0  0
    7.9579  -14.2377   21.1877 C   0  0  0  0  0  0  0  0  0  0  0  0
    7.3053  -15.4925   21.7472 C   0  0  0  0  0  0  0  0  0  0  0  0
    8.1844  -16.1281   22.7998 C   0  0  2  0  0  0  0  0  0  0  0  0
    7.6900  -17.3666   23.3159 N   0  0  0  0  0  0  0  0  0  0  0  0
    8.6230  -15.2005   23.8579 C   0  0  0  0  0  0  0  0  0  0  0  0
    9.1805  -14.0916   23.5927 O   0  0  0  0  0  0  0  0  0  0  0  0
    5.8640  -11.8143   25.8120 C   0  0  0  0  0  0  0  0  0  0  0  0
    7.0223  -12.6959   25.4776 C   0  0  0  0  0  0  0  0  0  0  0  0
    7.5468  -13.5453   26.5860 C   0  0  2  0  0  0  0  0  0  0  0  0
    7.9253  -12.6832   27.8015 C   0  0  0  0  0  0  0  0  0  0  0  0
    8.6658  -14.4425   26.2526 C   0  0  2  0  0  0  0  0  0  0  0  0
    8.4628  -15.4591   25.2734 N   0  0  0  0  0  0  0  0  0  0  0  0
    9.4034  -14.9338   27.4811 C   0  0  0  0  0  0  0  0  0  0  0  0
    9.8120  -14.1650   28.3588 O   0  0  0  0  0  0  0  0  0  0  0  0
    9.5836  -16.3050   27.5514 O   0  0  0  0  0  0  0  0  0  0  0  0
  1  2  1  0
  2 12  2  0
  3  4  2  0
  3  2  1  0
  4  5  1  0
  5  6  1  0
  5 11  2  0
  7  8  1  1
  7  6  1  0
  9  7  1  0
  9 10  2  0
 12 11  1  0
 13 14  1  0
 14 15  2  0
 16 17  1  0
 16 14  1  0
 18 17  1  1
 18 19  1  0
 18 20  1  0
 19  9  1  0
 20 27  1  0
 21 20  2  0
 22 23  1  0
 23 24  1  0
 24 25  1  1
 24 26  1  0
 26 28  1  0
 26 27  1  1
 28 29  2  0
 28 30  1  0
M  END
$$$$
