YQI.pdb
     RDKit          3D

 30 30  0  0  1  0  0  0  0  0999 V2000
    9.1797  -13.3363   16.4562 O   0  0  0  0  0  0  0  0  0  0  0  0
    8.5963  -13.7249   17.6678 C   0  0  0  0  0  0  0  0  0  0  0  0
    7.2815  -13.3959   17.9159 C   0  0  0  0  0  0  0  0  0  0  0  0
    6.7100  -13.7827   19.1170 C   0  0  0  0  0  0  0  0  0  0  0  0
    7.4165  -14.4885   20.0751 C   0  0  0  0  0  0  0  0  0  0  0  0
    6.7048  -14.8679   21.3269 C   0  0  0  0  0  0  0  0  0  0  0  0
    6.6399  -16.3615   21.3712 C   0  0  2  0  0  0  0  0  0  0  0  0
    5.5575  -16.8559   20.5238 N   0  0  0  0  0  0  0  0  0  0  0  0
    6.4727  -16.9188   22.7521 C   0  0  0  0  0  0  0  0  0  0  0  0
    5.3810  -16.9302   23.3386 O   0  0  0  0  0  0  0  0  0  0  0  0
    8.7260  -14.8075   19.8094 C   0  0  0  0  0  0  0  0  0  0  0  0
    9.3106  -14.4202   18.5989 C   0  0  0  0  0  0  0  0  0  0  0  0
    6.9835  -21.6890   26.1247 N   0  0  0  0  0  0  0  0  0  0  0  0
    7.4216  -20.7274   27.0695 C   0  0  0  0  0  0  0  0  0  0  0  0
    7.2671  -20.9710   28.2927 O   0  0  0  0  0  0  0  0  0  0  0  0
    8.0389  -19.4669   26.6351 C   0  0  0  0  0  0  0  0  0  0  0  0
    7.9274  -19.2384   25.1355 C   0  0  0  0  0  0  0  0  0  0  0  0
    7.6716  -17.7794   24.8349 C   0  0  2  0  0  0  0  0  0  0  0  0
    7.6084  -17.4636   23.4417 N   0  0  0  0  0  0  0  0  0  0  0  0
    8.5257  -16.8494   25.5951 C   0  0  0  0  0  0  0  0  0  0  0  0
    9.7846  -16.8100   25.4381 O   0  0  0  0  0  0  0  0  0  0  0  0
    7.2021  -11.6541   26.1762 C   0  0  0  0  0  0  0  0  0  0  0  0
    7.9492  -12.9398   26.0361 C   0  0  0  0  0  0  0  0  0  0  0  0
    8.4389  -13.5597   27.3014 C   0  0  2  0  0  0  0  0  0  0  0  0
    9.5599  -12.7126   27.9256 C   0  0  0  0  0  0  0  0  0  0  0  0
    8.8726  -14.9646   27.2193 C   0  0  2  0  0  0  0  0  0  0  0  0
    8.0215  -15.9095   26.5742 N   0  0  0  0  0  0  0  0  0  0  0  0
    9.4496  -15.4724   28.5246 C   0  0  0  0  0  0  0  0  0  0  0  0
   10.3708  -14.8925   29.1105 O   0  0  0  0  0  0  0  0  0  0  0  0
    8.8688  -16.6299   29.0151 O   0  0  0  0  0  0  0  0  0  0  0  0
  1  2  1  0
  2 12  2  0
  3  4  2  0
  3  2  1  0
  4  5  1  0
  5  6  1  0
  5 11  2  0
  7  8  1  6
  7  6  1  0
  9  7  1  0
  9 10  2  0
 12 11  1  0
 13 14  1  0
 14 15  2  0
 16 17  1  0
 16 14  1  0
 18 17  1  6
 18 19  1  0
 18 20  1  0
 19  9  1  0
 20 27  1  0
 21 20  2  0
 22 23  1  0
 23 24  1  0
 24 25  1  6
 24 26  1  0
 26 28  1  0
 26 27  1  1
 28 29  2  0
 28 30  1  0
M  END
$$$$
