YQI.pdb
     RDKit          3D

 30 30  0  0  1  0  0  0  0  0999 V2000
    8.9723  -13.0550   16.7046 O   0  0  0  0  0  0  0  0  0  0  0  0
    8.4429  -13.4616   17.9350 C   0  0  0  0  0  0  0  0  0  0  0  0
    9.2402  -14.1686   18.8083 C   0  0  0  0  0  0  0  0  0  0  0  0
    8.7103  -14.5689   20.0240 C   0  0  0  0  0  0  0  0  0  0  0  0
    7.4068  -14.2815   20.3894 C   0  0  0  0  0  0  0  0  0  0  0  0
    6.9389  -14.7458   21.7247 C   0  0  0  0  0  0  0  0  0  0  0  0
    6.8108  -16.2347   21.6626 C   0  0  2  0  0  0  0  0  0  0  0  0
    5.7691  -16.6234   20.7151 N   0  0  0  0  0  0  0  0  0  0  0  0
    6.5281  -16.8730   22.9885 C   0  0  0  0  0  0  0  0  0  0  0  0
    5.4566  -17.4432   23.2389 O   0  0  0  0  0  0  0  0  0  0  0  0
    6.6274  -13.5755   19.5055 C   0  0  0  0  0  0  0  0  0  0  0  0
    7.1551  -13.1680   18.2756 C   0  0  0  0  0  0  0  0  0  0  0  0
    7.3022  -21.1564   26.8104 N   0  0  0  0  0  0  0  0  0  0  0  0
    8.0338  -20.9991   25.6066 C   0  0  0  0  0  0  0  0  0  0  0  0
    8.8270  -21.9105   25.2604 O   0  0  0  0  0  0  0  0  0  0  0  0
    7.8781  -19.7955   24.7786 C   0  0  0  0  0  0  0  0  0  0  0  0
    6.8556  -18.8189   25.3392 C   0  0  0  0  0  0  0  0  0  0  0  0
    7.4005  -17.4091   25.3268 C   0  0  2  0  0  0  0  0  0  0  0  0
    7.5221  -16.8322   24.0240 N   0  0  0  0  0  0  0  0  0  0  0  0
    8.6082  -17.2234   26.1509 C   0  0  0  0  0  0  0  0  0  0  0  0
    9.7691  -17.4932   25.7146 O   0  0  0  0  0  0  0  0  0  0  0  0
    7.8762  -12.5501   28.3300 C   0  0  0  0  0  0  0  0  0  0  0  0
    8.1385  -13.9632   27.9237 C   0  0  0  0  0  0  0  0  0  0  0  0
    9.4535  -14.5349   28.3347 C   0  0  2  0  0  0  0  0  0  0  0  0
   10.6128  -13.7158   27.7438 C   0  0  0  0  0  0  0  0  0  0  0  0
    9.6662  -15.9638   28.0496 C   0  0  2  0  0  0  0  0  0  0  0  0
    8.5876  -16.7245   27.5099 N   0  0  0  0  0  0  0  0  0  0  0  0
   10.4014  -16.6764   29.1659 C   0  0  0  0  0  0  0  0  0  0  0  0
    9.9419  -17.6777   29.7268 O   0  0  0  0  0  0  0  0  0  0  0  0
   11.6255  -16.1278   29.5098 O   0  0  0  0  0  0  0  0  0  0  0  0
  1  2  1  0
  2 12  2  0
  3  4  2  0
  3  2  1  0
  4  5  1  0
  5  6  1  0
  5 11  2  0
  7  8  1  6
  7  6  1  0
  9  7  1  0
  9 10  2  0
 12 11  1  0
 13 14  1  0
 14 15  2  0
 16 17  1  0
 16 14  1  0
 18 17  1  6
 18 19  1  0
 18 20  1  0
 19  9  1  0
 20 27  1  0
 21 20  2  0
 22 23  1  0
 23 24  1  0
 24 25  1  6
 24 26  1  0
 26 28  1  0
 26 27  1  1
 28 29  2  0
 28 30  1  0
M  END
$$$$
