YQI.pdb
     RDKit          3D

 30 30  0  0  1  0  0  0  0  0999 V2000
    7.7179  -12.3741   15.8048 O   0  0  0  0  0  0  0  0  0  0  0  0
    7.5393  -13.0712   17.0054 C   0  0  0  0  0  0  0  0  0  0  0  0
    6.9110  -14.2973   16.9828 C   0  0  0  0  0  0  0  0  0  0  0  0
    6.7365  -14.9819   18.1743 C   0  0  0  0  0  0  0  0  0  0  0  0
    7.1727  -14.4746   19.3857 C   0  0  0  0  0  0  0  0  0  0  0  0
    6.9480  -15.2966   20.6069 C   0  0  0  0  0  0  0  0  0  0  0  0
    8.0556  -16.2988   20.6833 C   0  0  2  0  0  0  0  0  0  0  0  0
    7.8815  -17.3379   19.6714 N   0  0  0  0  0  0  0  0  0  0  0  0
    8.1946  -16.9450   22.0281 C   0  0  0  0  0  0  0  0  0  0  0  0
    7.3883  -17.7863   22.4500 O   0  0  0  0  0  0  0  0  0  0  0  0
    7.7969  -13.2509   19.3879 C   0  0  0  0  0  0  0  0  0  0  0  0
    7.9767  -12.5530   18.1888 C   0  0  0  0  0  0  0  0  0  0  0  0
   11.7593  -20.8218   23.2365 N   0  0  0  0  0  0  0  0  0  0  0  0
   12.2224  -19.5138   22.9466 C   0  0  0  0  0  0  0  0  0  0  0  0
   13.4398  -19.3512   22.6797 O   0  0  0  0  0  0  0  0  0  0  0  0
   11.3054  -18.3660   22.9619 C   0  0  0  0  0  0  0  0  0  0  0  0
   10.4787  -18.2851   24.2361 C   0  0  0  0  0  0  0  0  0  0  0  0
    9.5418  -17.0998   24.1908 C   0  0  2  0  0  0  0  0  0  0  0  0
    9.2959  -16.5888   22.8781 N   0  0  0  0  0  0  0  0  0  0  0  0
    9.8610  -16.0426   25.1669 C   0  0  0  0  0  0  0  0  0  0  0  0
   10.8126  -15.2228   24.9845 O   0  0  0  0  0  0  0  0  0  0  0  0
    6.2897  -12.5665   26.7933 C   0  0  0  0  0  0  0  0  0  0  0  0
    7.4838  -13.3936   26.4458 C   0  0  0  0  0  0  0  0  0  0  0  0
    8.3742  -13.7764   27.5797 C   0  0  2  0  0  0  0  0  0  0  0  0
    9.0001  -12.5299   28.2265 C   0  0  0  0  0  0  0  0  0  0  0  0
    9.4304  -14.7585   27.2827 C   0  0  2  0  0  0  0  0  0  0  0  0
    9.1341  -15.8407   26.4027 N   0  0  0  0  0  0  0  0  0  0  0  0
   10.1928  -15.1850   28.5202 C   0  0  0  0  0  0  0  0  0  0  0  0
   10.2722  -16.3669   28.8736 O   0  0  0  0  0  0  0  0  0  0  0  0
   10.7964  -14.1565   29.2243 O   0  0  0  0  0  0  0  0  0  0  0  0
  1  2  1  0
  2 12  2  0
  3  4  2  0
  3  2  1  0
  4  5  1  0
  5  6  1  0
  5 11  2  0
  7  8  1  6
  7  6  1  0
  9  7  1  0
  9 10  2  0
 12 11  1  0
 13 14  1  0
 14 15  2  0
 16 17  1  0
 16 14  1  0
 18 17  1  6
 18 19  1  0
 18 20  1  0
 19  9  1  0
 20 27  1  0
 21 20  2  0
 22 23  1  0
 23 24  1  0
 24 25  1  6
 24 26  1  0
 26 28  1  0
 26 27  1  1
 28 29  2  0
 28 30  1  0
M  END
$$$$
