YQI.pdb
     RDKit          3D

 30 30  0  0  1  0  0  0  0  0999 V2000
   13.1898  -13.2281   17.7800 O   0  0  0  0  0  0  0  0  0  0  0  0
   11.9087  -13.4796   18.2848 C   0  0  0  0  0  0  0  0  0  0  0  0
   11.7784  -14.0418   19.5360 C   0  0  0  0  0  0  0  0  0  0  0  0
   10.5080  -14.2890   20.0297 C   0  0  0  0  0  0  0  0  0  0  0  0
    9.3662  -13.9897   19.3074 C   0  0  0  0  0  0  0  0  0  0  0  0
    8.0478  -14.2826   19.9348 C   0  0  0  0  0  0  0  0  0  0  0  0
    7.8714  -15.7678   19.9358 C   0  0  2  0  0  0  0  0  0  0  0  0
    7.0295  -16.1878   18.8183 N   0  0  0  0  0  0  0  0  0  0  0  0
    7.2969  -16.3076   21.2102 C   0  0  0  0  0  0  0  0  0  0  0  0
    6.0954  -16.2040   21.4962 O   0  0  0  0  0  0  0  0  0  0  0  0
    9.5164  -13.4295   18.0620 C   0  0  0  0  0  0  0  0  0  0  0  0
   10.7960  -13.1770   17.5561 C   0  0  0  0  0  0  0  0  0  0  0  0
    5.5603  -19.2152   25.1384 N   0  0  0  0  0  0  0  0  0  0  0  0
    5.8094  -19.7655   23.8560 C   0  0  0  0  0  0  0  0  0  0  0  0
    4.9001  -20.4307   23.2989 O   0  0  0  0  0  0  0  0  0  0  0  0
    7.1036  -19.5716   23.1881 C   0  0  0  0  0  0  0  0  0  0  0  0
    8.0381  -18.6542   23.9619 C   0  0  0  0  0  0  0  0  0  0  0  0
    7.8563  -17.2177   23.5285 C   0  0  2  0  0  0  0  0  0  0  0  0
    8.1539  -16.9719   22.1516 N   0  0  0  0  0  0  0  0  0  0  0  0
    8.4759  -16.2330   24.4334 C   0  0  0  0  0  0  0  0  0  0  0  0
    9.7303  -16.1865   24.6206 O   0  0  0  0  0  0  0  0  0  0  0  0
    6.9675  -11.1241   27.5116 C   0  0  0  0  0  0  0  0  0  0  0  0
    6.8709  -12.4960   26.9290 C   0  0  0  0  0  0  0  0  0  0  0  0
    7.9917  -12.9152   26.0384 C   0  0  2  0  0  0  0  0  0  0  0  0
    7.7173  -12.4992   24.5839 C   0  0  0  0  0  0  0  0  0  0  0  0
    8.3662  -14.3387   26.0798 C   0  0  2  0  0  0  0  0  0  0  0  0
    7.7286  -15.2431   25.1804 N   0  0  0  0  0  0  0  0  0  0  0  0
    8.4672  -14.8726   27.4938 C   0  0  0  0  0  0  0  0  0  0  0  0
    7.7277  -15.7682   27.9171 O   0  0  0  0  0  0  0  0  0  0  0  0
    9.4491  -14.2878   28.2759 O   0  0  0  0  0  0  0  0  0  0  0  0
  1  2  1  0
  2 12  2  0
  3  4  2  0
  3  2  1  0
  4  5  1  0
  5  6  1  0
  5 11  2  0
  7  8  1  6
  7  6  1  0
  9  7  1  0
  9 10  2  0
 12 11  1  0
 13 14  1  0
 14 15  2  0
 16 17  1  0
 16 14  1  0
 18 17  1  1
 18 19  1  0
 18 20  1  0
 19  9  1  0
 20 27  1  0
 21 20  2  0
 22 23  1  0
 23 24  1  0
 24 25  1  6
 24 26  1  0
 26 28  1  0
 26 27  1  6
 28 29  2  0
 28 30  1  0
M  END
$$$$
