YQI.pdb
     RDKit          3D

 30 30  0  0  1  0  0  0  0  0999 V2000
    9.1387  -13.5273   16.5409 O   0  0  0  0  0  0  0  0  0  0  0  0
    8.5233  -13.8626   17.7526 C   0  0  0  0  0  0  0  0  0  0  0  0
    9.0909  -14.8342   18.5476 C   0  0  0  0  0  0  0  0  0  0  0  0
    8.4767  -15.1621   19.7452 C   0  0  0  0  0  0  0  0  0  0  0  0
    7.3122  -14.5457   20.1685 C   0  0  0  0  0  0  0  0  0  0  0  0
    6.7400  -14.9619   21.4788 C   0  0  0  0  0  0  0  0  0  0  0  0
    6.5340  -16.4425   21.4285 C   0  0  2  0  0  0  0  0  0  0  0  0
    5.4304  -16.7793   20.5325 N   0  0  0  0  0  0  0  0  0  0  0  0
    6.2822  -17.0638   22.7686 C   0  0  0  0  0  0  0  0  0  0  0  0
    5.1749  -17.0249   23.3240 O   0  0  0  0  0  0  0  0  0  0  0  0
    6.7615  -13.5793   19.3623 C   0  0  0  0  0  0  0  0  0  0  0  0
    7.3755  -13.2427   18.1512 C   0  0  0  0  0  0  0  0  0  0  0  0
    8.3545  -21.7542   26.4958 N   0  0  0  0  0  0  0  0  0  0  0  0
    8.1133  -20.6704   27.3770 C   0  0  0  0  0  0  0  0  0  0  0  0
    8.0905  -20.8933   28.6137 O   0  0  0  0  0  0  0  0  0  0  0  0
    7.8876  -19.3129   26.8623 C   0  0  0  0  0  0  0  0  0  0  0  0
    7.8349  -19.2563   25.3432 C   0  0  0  0  0  0  0  0  0  0  0  0
    7.4874  -17.8628   24.8722 C   0  0  2  0  0  0  0  0  0  0  0  0
    7.3516  -17.7329   23.4547 N   0  0  0  0  0  0  0  0  0  0  0  0
    8.3185  -16.8013   25.4680 C   0  0  0  0  0  0  0  0  0  0  0  0
    9.4629  -16.5037   25.0070 O   0  0  0  0  0  0  0  0  0  0  0  0
    6.3713  -11.8982   26.7484 C   0  0  0  0  0  0  0  0  0  0  0  0
    7.1954  -13.0803   26.3556 C   0  0  0  0  0  0  0  0  0  0  0  0
    8.0740  -13.6540   27.4158 C   0  0  2  0  0  0  0  0  0  0  0  0
    9.1410  -12.6357   27.8499 C   0  0  0  0  0  0  0  0  0  0  0  0
    8.7198  -14.9411   27.1079 C   0  0  2  0  0  0  0  0  0  0  0  0
    7.9175  -16.0110   26.6129 N   0  0  0  0  0  0  0  0  0  0  0  0
    9.6969  -15.3731   28.1817 C   0  0  0  0  0  0  0  0  0  0  0  0
    9.5974  -16.4559   28.7698 O   0  0  0  0  0  0  0  0  0  0  0  0
   10.7106  -14.4697   28.4543 O   0  0  0  0  0  0  0  0  0  0  0  0
  1  2  1  0
  2 12  2  0
  3  4  2  0
  3  2  1  0
  4  5  1  0
  5  6  1  0
  5 11  2  0
  7  8  1  6
  7  6  1  0
  9  7  1  0
  9 10  2  0
 12 11  1  0
 13 14  1  0
 14 15  2  0
 16 17  1  0
 16 14  1  0
 18 17  1  6
 18 19  1  0
 18 20  1  0
 19  9  1  0
 20 27  1  0
 21 20  2  0
 22 23  1  0
 23 24  1  0
 24 25  1  6
 24 26  1  0
 26 28  1  0
 26 27  1  1
 28 29  2  0
 28 30  1  0
M  END
$$$$
