YQI.pdb
     RDKit          3D

 30 30  0  0  1  0  0  0  0  0999 V2000
   10.4748  -11.7152   20.4009 O   0  0  0  0  0  0  0  0  0  0  0  0
    9.4653  -12.6655   20.2078 C   0  0  0  0  0  0  0  0  0  0  0  0
    9.5755  -13.5598   19.1654 C   0  0  0  0  0  0  0  0  0  0  0  0
    8.5729  -14.4973   18.9791 C   0  0  0  0  0  0  0  0  0  0  0  0
    7.4650  -14.5648   19.8056 C   0  0  0  0  0  0  0  0  0  0  0  0
    6.4509  -15.6191   19.5271 C   0  0  0  0  0  0  0  0  0  0  0  0
    7.0552  -16.9340   19.9048 C   0  0  2  0  0  0  0  0  0  0  0  0
    6.1851  -18.0360   19.5019 N   0  0  0  0  0  0  0  0  0  0  0  0
    7.3602  -17.0617   21.3663 C   0  0  0  0  0  0  0  0  0  0  0  0
    6.4743  -17.1886   22.2236 O   0  0  0  0  0  0  0  0  0  0  0  0
    7.3730  -13.6649   20.8395 C   0  0  0  0  0  0  0  0  0  0  0  0
    8.3813  -12.7147   21.0342 C   0  0  0  0  0  0  0  0  0  0  0  0
   12.1497  -20.3039   23.7975 N   0  0  0  0  0  0  0  0  0  0  0  0
   11.6732  -19.5560   24.9033 C   0  0  0  0  0  0  0  0  0  0  0  0
   12.1231  -19.8189   26.0470 O   0  0  0  0  0  0  0  0  0  0  0  0
   10.6696  -18.4979   24.7248 C   0  0  0  0  0  0  0  0  0  0  0  0
   10.2993  -18.2723   23.2669 C   0  0  0  0  0  0  0  0  0  0  0  0
    9.1740  -17.2699   23.1504 C   0  0  2  0  0  0  0  0  0  0  0  0
    8.7247  -17.0362   21.8131 N   0  0  0  0  0  0  0  0  0  0  0  0
    9.3969  -16.0243   23.9061 C   0  0  0  0  0  0  0  0  0  0  0  0
   10.2716  -15.1730   23.5582 O   0  0  0  0  0  0  0  0  0  0  0  0
    6.1468  -12.1433   25.5608 C   0  0  0  0  0  0  0  0  0  0  0  0
    7.3437  -12.9523   25.1817 C   0  0  0  0  0  0  0  0  0  0  0  0
    8.1239  -13.5440   26.3070 C   0  0  2  0  0  0  0  0  0  0  0  0
    8.8453  -12.4467   27.1067 C   0  0  0  0  0  0  0  0  0  0  0  0
    9.0817  -14.6056   25.9552 C   0  0  2  0  0  0  0  0  0  0  0  0
    8.6542  -15.6585   25.0938 N   0  0  0  0  0  0  0  0  0  0  0  0
    9.8731  -15.0945   27.1506 C   0  0  0  0  0  0  0  0  0  0  0  0
    9.8398  -16.2706   27.5298 O   0  0  0  0  0  0  0  0  0  0  0  0
   10.6384  -14.1304   27.7852 O   0  0  0  0  0  0  0  0  0  0  0  0
  1  2  1  0
  2 12  2  0
  3  4  2  0
  3  2  1  0
  4  5  1  0
  5  6  1  0
  5 11  2  0
  7  8  1  1
  7  6  1  0
  9  7  1  0
  9 10  2  0
 12 11  1  0
 13 14  1  0
 14 15  2  0
 16 17  1  0
 16 14  1  0
 18 17  1  6
 18 19  1  0
 18 20  1  0
 19  9  1  0
 20 27  1  0
 21 20  2  0
 22 23  1  0
 23 24  1  0
 24 25  1  6
 24 26  1  0
 26 28  1  0
 26 27  1  1
 28 29  2  0
 28 30  1  0
M  END
$$$$
