YQI.pdb
     RDKit          3D

 30 30  0  0  1  0  0  0  0  0999 V2000
    5.3405  -11.9118   26.5454 O   0  0  0  0  0  0  0  0  0  0  0  0
    6.0715  -12.3955   25.4540 C   0  0  0  0  0  0  0  0  0  0  0  0
    6.3599  -11.5451   24.4091 C   0  0  0  0  0  0  0  0  0  0  0  0
    7.0830  -12.0299   23.3316 C   0  0  0  0  0  0  0  0  0  0  0  0
    7.5248  -13.3400   23.2709 C   0  0  0  0  0  0  0  0  0  0  0  0
    8.3062  -13.7572   22.0739 C   0  0  0  0  0  0  0  0  0  0  0  0
    7.9501  -15.1795   21.7789 C   0  0  2  0  0  0  0  0  0  0  0  0
    6.5007  -15.3412   21.6939 N   0  0  0  0  0  0  0  0  0  0  0  0
    8.4932  -16.1580   22.7754 C   0  0  0  0  0  0  0  0  0  0  0  0
    7.7937  -16.6582   23.6678 O   0  0  0  0  0  0  0  0  0  0  0  0
    7.2276  -14.1726   24.3224 C   0  0  0  0  0  0  0  0  0  0  0  0
    6.4975  -13.6907   25.4141 C   0  0  0  0  0  0  0  0  0  0  0  0
   14.6103  -20.0132   23.8741 N   0  0  0  0  0  0  0  0  0  0  0  0
   13.2902  -20.0837   23.3625 C   0  0  0  0  0  0  0  0  0  0  0  0
   13.0584  -20.8554   22.3980 O   0  0  0  0  0  0  0  0  0  0  0  0
   12.2112  -19.2698   23.9388 C   0  0  0  0  0  0  0  0  0  0  0  0
   11.6364  -18.2641   22.9530 C   0  0  0  0  0  0  0  0  0  0  0  0
   10.5313  -17.4577   23.5957 C   0  0  2  0  0  0  0  0  0  0  0  0
    9.8752  -16.5432   22.7137 N   0  0  0  0  0  0  0  0  0  0  0  0
   10.9040  -16.8447   24.8832 C   0  0  0  0  0  0  0  0  0  0  0  0
   11.8201  -15.9709   24.9728 O   0  0  0  0  0  0  0  0  0  0  0  0
    9.2586  -13.1489   27.6841 C   0  0  0  0  0  0  0  0  0  0  0  0
    9.9312  -14.3380   27.0805 C   0  0  0  0  0  0  0  0  0  0  0  0
   10.1628  -15.4976   27.9898 C   0  0  2  0  0  0  0  0  0  0  0  0
   10.9730  -15.0691   29.2243 C   0  0  0  0  0  0  0  0  0  0  0  0
   10.7796  -16.6914   27.3876 C   0  0  2  0  0  0  0  0  0  0  0  0
   10.2734  -17.1730   26.1445 N   0  0  0  0  0  0  0  0  0  0  0  0
   11.0273  -17.7912   28.3993 C   0  0  0  0  0  0  0  0  0  0  0  0
   10.3614  -18.8326   28.4205 O   0  0  0  0  0  0  0  0  0  0  0  0
   12.0545  -17.5474   29.2954 O   0  0  0  0  0  0  0  0  0  0  0  0
  1  2  1  0
  2 12  2  0
  3  4  2  0
  3  2  1  0
  4  5  1  0
  5  6  1  0
  5 11  2  0
  7  8  1  1
  7  6  1  0
  9  7  1  0
  9 10  2  0
 12 11  1  0
 13 14  1  0
 14 15  2  0
 16 17  1  0
 16 14  1  0
 18 17  1  6
 18 19  1  0
 18 20  1  0
 19  9  1  0
 20 27  1  0
 21 20  2  0
 22 23  1  0
 23 24  1  0
 24 25  1  1
 24 26  1  0
 26 28  1  0
 26 27  1  6
 28 29  2  0
 28 30  1  0
M  END
$$$$
