GYY.pdb
     RDKit          3D

 29 30  0  0  1  0  0  0  0  0999 V2000
   28.4507  -21.9601  -16.8043 N   0  0  0  0  0  0  0  0  0  0  0  0
   27.0807  -22.0138  -17.2717 C   0  0  0  0  0  0  0  0  0  0  0  0
   26.2634  -21.0826  -16.4460 C   0  0  0  0  0  0  0  0  0  0  0  0
   26.6237  -20.7576  -15.2853 O   0  0  0  0  0  0  0  0  0  0  0  0
   28.1792  -14.8775  -17.7750 O   0  0  0  0  0  0  0  0  0  0  0  0
   27.1012  -15.7450  -17.5488 C   0  0  0  0  0  0  0  0  0  0  0  0
   26.3323  -15.6677  -16.4128 C   0  0  0  0  0  0  0  0  0  0  0  0
   25.2770  -16.5353  -16.2171 C   0  0  0  0  0  0  0  0  0  0  0  0
   24.9457  -17.5077  -17.1360 C   0  0  0  0  0  0  0  0  0  0  0  0
   23.8121  -18.4089  -16.8850 C   0  0  0  0  0  0  0  0  0  0  0  0
   24.1878  -19.6611  -16.1253 C   0  0  2  0  0  0  0  0  0  0  0  0
   25.0482  -20.5210  -16.9241 N   0  0  0  0  0  0  0  0  0  0  0  0
   23.0242  -20.4022  -15.5968 C   0  0  0  0  0  0  0  0  0  0  0  0
   22.4099  -21.1736  -16.3901 O   0  0  0  0  0  0  0  0  0  0  0  0
   25.7195  -17.5790  -18.2702 C   0  0  0  0  0  0  0  0  0  0  0  0
   26.7891  -16.7090  -18.4814 C   0  0  0  0  0  0  0  0  0  0  0  0
   25.2143  -20.5131   -8.6853 O   0  0  0  0  0  0  0  0  0  0  0  0
   24.4102  -20.9396   -9.7559 C   0  0  0  0  0  0  0  0  0  0  0  0
   24.9748  -21.2807  -10.9536 C   0  0  0  0  0  0  0  0  0  0  0  0
   24.2253  -21.7035  -12.0284 C   0  0  0  0  0  0  0  0  0  0  0  0
   22.8564  -21.7870  -11.8952 C   0  0  0  0  0  0  0  0  0  0  0  0
   21.9593  -22.2201  -12.9751 C   0  0  0  0  0  0  0  0  0  0  0  0
   21.3961  -21.0753  -13.7978 C   0  0  2  0  0  0  0  0  0  0  0  0
   22.5422  -20.3228  -14.2805 N   0  0  0  0  0  0  0  0  0  0  0  0
   20.4413  -20.2595  -13.0523 C   0  0  0  0  0  0  0  0  0  0  0  0
   20.6850  -19.0974  -12.6557 O   0  0  0  0  0  0  0  0  0  0  0  0
   22.2767  -21.4447  -10.6898 C   0  0  0  0  0  0  0  0  0  0  0  0
   23.0424  -21.0263   -9.6329 C   0  0  0  0  0  0  0  0  0  0  0  0
   19.1891  -20.7719  -12.7532 O   0  0  0  0  0  0  0  0  0  0  0  0
  1  2  1  0
  3  4  2  0
  3  2  1  0
  6  5  1  0
  6 16  2  0
  7  6  1  0
  8  7  2  0
  8  9  1  0
  9 15  2  0
 10  9  1  0
 11 10  1  6
 11 12  1  0
 12  3  1  0
 13 24  1  0
 13 11  1  0
 14 13  2  0
 15 16  1  0
 18 28  2  0
 18 17  1  0
 19 18  1  0
 20 21  1  0
 20 19  2  0
 21 27  2  0
 22 21  1  0
 23 22  1  1
 23 24  1  0
 25 29  1  0
 25 23  1  0
 26 25  2  0
 27 28  1  0
M  END
$$$$
