GYY.pdb
     RDKit          3D

 29 30  0  0  1  0  0  0  0  0999 V2000
   29.5927  -22.3264  -18.3598 N   0  0  0  0  0  0  0  0  0  0  0  0
   28.1534  -22.2814  -18.2036 C   0  0  0  0  0  0  0  0  0  0  0  0
   27.8363  -21.5081  -16.9714 C   0  0  0  0  0  0  0  0  0  0  0  0
   28.6885  -21.3659  -16.0569 O   0  0  0  0  0  0  0  0  0  0  0  0
   29.7655  -15.6812  -18.5773 O   0  0  0  0  0  0  0  0  0  0  0  0
   28.7780  -16.4391  -17.9319 C   0  0  0  0  0  0  0  0  0  0  0  0
   27.9912  -17.3370  -18.6116 C   0  0  0  0  0  0  0  0  0  0  0  0
   27.0267  -18.0695  -17.9498 C   0  0  0  0  0  0  0  0  0  0  0  0
   26.8070  -17.9398  -16.5953 C   0  0  0  0  0  0  0  0  0  0  0  0
   25.7688  -18.7421  -15.9329 C   0  0  0  0  0  0  0  0  0  0  0  0
   26.2167  -20.1419  -15.5777 C   0  0  2  0  0  0  0  0  0  0  0  0
   26.5679  -20.8987  -16.7701 N   0  0  0  0  0  0  0  0  0  0  0  0
   25.2483  -20.8762  -14.7378 C   0  0  0  0  0  0  0  0  0  0  0  0
   24.2124  -21.3356  -15.3013 O   0  0  0  0  0  0  0  0  0  0  0  0
   27.5981  -17.0395  -15.9218 C   0  0  0  0  0  0  0  0  0  0  0  0
   28.5767  -16.2924  -16.5774 C   0  0  0  0  0  0  0  0  0  0  0  0
   26.9354  -18.5830   -7.6659 O   0  0  0  0  0  0  0  0  0  0  0  0
   26.4975  -19.5434   -8.5935 C   0  0  0  0  0  0  0  0  0  0  0  0
   25.2390  -20.0705   -8.5035 C   0  0  0  0  0  0  0  0  0  0  0  0
   24.7691  -21.0131   -9.3902 C   0  0  0  0  0  0  0  0  0  0  0  0
   25.5946  -21.4428  -10.4063 C   0  0  0  0  0  0  0  0  0  0  0  0
   25.2008  -22.4462  -11.4046 C   0  0  0  0  0  0  0  0  0  0  0  0
   24.4252  -21.8711  -12.5761 C   0  0  2  0  0  0  0  0  0  0  0  0
   25.3834  -21.1094  -13.3599 N   0  0  0  0  0  0  0  0  0  0  0  0
   23.2673  -21.0860  -12.1568 C   0  0  0  0  0  0  0  0  0  0  0  0
   22.1861  -21.5932  -11.7814 O   0  0  0  0  0  0  0  0  0  0  0  0
   26.8672  -20.9167  -10.5058 C   0  0  0  0  0  0  0  0  0  0  0  0
   27.3143  -19.9790   -9.6116 C   0  0  0  0  0  0  0  0  0  0  0  0
   23.3390  -19.7022  -12.1635 O   0  0  0  0  0  0  0  0  0  0  0  0
  1  2  1  0
  3  4  2  0
  3  2  1  0
  6  5  1  0
  6 16  2  0
  7  6  1  0
  8  7  2  0
  8  9  1  0
  9 15  2  0
 10  9  1  0
 11 10  1  6
 11 12  1  0
 12  3  1  0
 13 24  1  0
 13 11  1  0
 14 13  2  0
 15 16  1  0
 18 28  2  0
 18 17  1  0
 19 18  1  0
 20 21  1  0
 20 19  2  0
 21 27  2  0
 22 21  1  0
 23 22  1  1
 23 24  1  0
 25 29  1  0
 25 23  1  0
 26 25  2  0
 27 28  1  0
M  END
$$$$
