GYY.pdb
     RDKit          3D

 29 30  0  0  1  0  0  0  0  0999 V2000
   28.3953  -19.8500  -14.6622 N   0  0  0  0  0  0  0  0  0  0  0  0
   27.7139  -19.2446  -13.5364 C   0  0  0  0  0  0  0  0  0  0  0  0
   26.7115  -20.2140  -13.0145 C   0  0  0  0  0  0  0  0  0  0  0  0
   26.4996  -21.3072  -13.6000 O   0  0  0  0  0  0  0  0  0  0  0  0
   30.1775  -20.7194   -7.6132 O   0  0  0  0  0  0  0  0  0  0  0  0
   28.8878  -20.7629   -8.1615 C   0  0  0  0  0  0  0  0  0  0  0  0
   28.5961  -21.5146   -9.2739 C   0  0  0  0  0  0  0  0  0  0  0  0
   27.3170  -21.5382   -9.7916 C   0  0  0  0  0  0  0  0  0  0  0  0
   26.2836  -20.8206   -9.2286 C   0  0  0  0  0  0  0  0  0  0  0  0
   24.9369  -20.8774   -9.8144 C   0  0  0  0  0  0  0  0  0  0  0  0
   24.9301  -20.8530  -11.3262 C   0  0  2  0  0  0  0  0  0  0  0  0
   25.9527  -19.9544  -11.8408 N   0  0  0  0  0  0  0  0  0  0  0  0
   23.6051  -20.5516  -11.9058 C   0  0  0  0  0  0  0  0  0  0  0  0
   23.1496  -19.3808  -11.7519 O   0  0  0  0  0  0  0  0  0  0  0  0
   26.5830  -20.0709   -8.1158 C   0  0  0  0  0  0  0  0  0  0  0  0
   27.8710  -20.0374   -7.5815 C   0  0  0  0  0  0  0  0  0  0  0  0
   26.0812  -20.9458  -17.7893 O   0  0  0  0  0  0  0  0  0  0  0  0
   25.0208  -20.7126  -16.8973 C   0  0  0  0  0  0  0  0  0  0  0  0
   24.0041  -21.6191  -16.7772 C   0  0  0  0  0  0  0  0  0  0  0  0
   22.9462  -21.4311  -15.9164 C   0  0  0  0  0  0  0  0  0  0  0  0
   22.9077  -20.2888  -15.1466 C   0  0  0  0  0  0  0  0  0  0  0  0
   21.8270  -19.9826  -14.1997 C   0  0  0  0  0  0  0  0  0  0  0  0
   21.5327  -21.1073  -13.2235 C   0  0  2  0  0  0  0  0  0  0  0  0
   22.8062  -21.4601  -12.6181 N   0  0  0  0  0  0  0  0  0  0  0  0
   20.8582  -22.2398  -13.8525 C   0  0  0  0  0  0  0  0  0  0  0  0
   19.7035  -22.1785  -14.3320 O   0  0  0  0  0  0  0  0  0  0  0  0
   23.9295  -19.3673  -15.2606 C   0  0  0  0  0  0  0  0  0  0  0  0
   24.9732  -19.5752  -16.1243 C   0  0  0  0  0  0  0  0  0  0  0  0
   21.5063  -23.4616  -13.9384 O   0  0  0  0  0  0  0  0  0  0  0  0
  1  2  1  0
  3  4  2  0
  3  2  1  0
  6  5  1  0
  6 16  2  0
  7  6  1  0
  8  7  2  0
  8  9  1  0
  9 15  2  0
 10  9  1  0
 11 10  1  1
 11 12  1  0
 12  3  1  0
 13 24  1  0
 13 11  1  0
 14 13  2  0
 15 16  1  0
 18 28  2  0
 18 17  1  0
 19 18  1  0
 20 21  1  0
 20 19  2  0
 21 27  2  0
 22 21  1  0
 23 22  1  6
 23 24  1  0
 25 29  1  0
 25 23  1  0
 26 25  2  0
 27 28  1  0
M  END
$$$$
