GYY.pdb
     RDKit          3D

 29 30  0  0  1  0  0  0  0  0999 V2000
   29.9847  -21.7801  -12.1596 N   0  0  0  0  0  0  0  0  0  0  0  0
   29.5492  -20.6323  -11.3909 C   0  0  0  0  0  0  0  0  0  0  0  0
   28.2381  -20.9545  -10.7632 C   0  0  0  0  0  0  0  0  0  0  0  0
   27.6530  -22.0420  -11.0035 O   0  0  0  0  0  0  0  0  0  0  0  0
   29.6749  -20.4510   -3.9349 O   0  0  0  0  0  0  0  0  0  0  0  0
   28.7650  -20.1930   -4.9700 C   0  0  0  0  0  0  0  0  0  0  0  0
   28.5239  -18.9192   -5.4248 C   0  0  0  0  0  0  0  0  0  0  0  0
   27.6224  -18.6955   -6.4456 C   0  0  0  0  0  0  0  0  0  0  0  0
   26.9292  -19.7215   -7.0512 C   0  0  0  0  0  0  0  0  0  0  0  0
   25.9796  -19.4351   -8.1357 C   0  0  0  0  0  0  0  0  0  0  0  0
   26.2284  -20.2417   -9.3902 C   0  0  2  0  0  0  0  0  0  0  0  0
   27.5898  -20.0580   -9.8705 N   0  0  0  0  0  0  0  0  0  0  0  0
   25.2400  -19.9906  -10.4592 C   0  0  0  0  0  0  0  0  0  0  0  0
   25.6166  -19.3127  -11.4593 O   0  0  0  0  0  0  0  0  0  0  0  0
   27.1758  -20.9932   -6.5908 C   0  0  0  0  0  0  0  0  0  0  0  0
   28.0840  -21.2344   -5.5600 C   0  0  0  0  0  0  0  0  0  0  0  0
   21.0074  -22.9118  -17.2569 O   0  0  0  0  0  0  0  0  0  0  0  0
   21.7163  -22.5554  -16.0971 C   0  0  0  0  0  0  0  0  0  0  0  0
   22.4316  -21.3909  -16.0525 C   0  0  0  0  0  0  0  0  0  0  0  0
   23.1401  -21.0028  -14.9378 C   0  0  0  0  0  0  0  0  0  0  0  0
   23.1301  -21.8153  -13.8249 C   0  0  0  0  0  0  0  0  0  0  0  0
   23.8526  -21.5039  -12.5842 C   0  0  0  0  0  0  0  0  0  0  0  0
   23.1019  -20.5627  -11.6596 C   0  0  2  0  0  0  0  0  0  0  0  0
   23.9118  -20.4454  -10.4583 N   0  0  0  0  0  0  0  0  0  0  0  0
   21.7345  -21.0020  -11.3943 C   0  0  0  0  0  0  0  0  0  0  0  0
   20.7785  -20.8005  -12.1769 O   0  0  0  0  0  0  0  0  0  0  0  0
   22.4108  -22.9934  -13.8599 C   0  0  0  0  0  0  0  0  0  0  0  0
   21.7125  -23.3599  -14.9808 C   0  0  0  0  0  0  0  0  0  0  0  0
   21.4488  -21.6817  -10.2211 O   0  0  0  0  0  0  0  0  0  0  0  0
  1  2  1  0
  3  4  2  0
  3  2  1  0
  6  5  1  0
  6 16  2  0
  7  6  1  0
  8  7  2  0
  8  9  1  0
  9 15  2  0
 10  9  1  0
 11 10  1  1
 11 12  1  0
 12  3  1  0
 13 24  1  0
 13 11  1  0
 14 13  2  0
 15 16  1  0
 18 28  2  0
 18 17  1  0
 19 18  1  0
 20 21  1  0
 20 19  2  0
 21 27  2  0
 22 21  1  0
 23 22  1  6
 23 24  1  0
 25 29  1  0
 25 23  1  0
 26 25  2  0
 27 28  1  0
M  END
$$$$
