GYY.pdb
     RDKit          3D

 29 30  0  0  1  0  0  0  0  0999 V2000
   14.7019  -14.2155    3.3828 N   0  0  0  0  0  0  0  0  0  0  0  0
   15.9866  -14.7341    2.9600 C   0  0  0  0  0  0  0  0  0  0  0  0
   16.2903  -15.9525    3.7602 C   0  0  0  0  0  0  0  0  0  0  0  0
   15.5067  -16.3498    4.6607 O   0  0  0  0  0  0  0  0  0  0  0  0
   15.2257  -21.9364    0.2304 O   0  0  0  0  0  0  0  0  0  0  0  0
   16.0636  -21.1801    1.0623 C   0  0  0  0  0  0  0  0  0  0  0  0
   16.9714  -20.2818    0.5560 C   0  0  0  0  0  0  0  0  0  0  0  0
   17.7834  -19.5510    1.3994 C   0  0  0  0  0  0  0  0  0  0  0  0
   17.7261  -19.6827    2.7703 C   0  0  0  0  0  0  0  0  0  0  0  0
   18.6103  -18.8821    3.6291 C   0  0  0  0  0  0  0  0  0  0  0  0
   17.8879  -17.8105    4.4140 C   0  0  2  0  0  0  0  0  0  0  0  0
   17.4687  -16.7187    3.5479 N   0  0  0  0  0  0  0  0  0  0  0  0
   18.6520  -17.3144    5.5770 C   0  0  0  0  0  0  0  0  0  0  0  0
   19.7964  -16.8197    5.3597 O   0  0  0  0  0  0  0  0  0  0  0  0
   16.8154  -20.5834    3.2695 C   0  0  0  0  0  0  0  0  0  0  0  0
   15.9883  -21.3288    2.4293 C   0  0  0  0  0  0  0  0  0  0  0  0
   21.0900  -11.2262    5.7858 O   0  0  0  0  0  0  0  0  0  0  0  0
   20.4422  -12.2894    6.4372 C   0  0  0  0  0  0  0  0  0  0  0  0
   21.0561  -12.9496    7.4653 C   0  0  0  0  0  0  0  0  0  0  0  0
   20.4586  -13.9961    8.1311 C   0  0  0  0  0  0  0  0  0  0  0  0
   19.1960  -14.3950    7.7498 C   0  0  0  0  0  0  0  0  0  0  0  0
   18.4661  -15.5005    8.3851 C   0  0  0  0  0  0  0  0  0  0  0  0
   19.0073  -16.8738    8.0305 C   0  0  2  0  0  0  0  0  0  0  0  0
   18.2108  -17.3447    6.9095 N   0  0  0  0  0  0  0  0  0  0  0  0
   19.0069  -17.7922    9.1661 C   0  0  0  0  0  0  0  0  0  0  0  0
   18.3391  -18.8505    9.2003 O   0  0  0  0  0  0  0  0  0  0  0  0
   18.5676  -13.7348    6.7127 C   0  0  0  0  0  0  0  0  0  0  0  0
   19.1815  -12.6953    6.0639 C   0  0  0  0  0  0  0  0  0  0  0  0
   19.7782  -17.5039   10.2806 O   0  0  0  0  0  0  0  0  0  0  0  0
  1  2  1  0
  3  4  2  0
  3  2  1  0
  6  5  1  0
  6 16  2  0
  7  6  1  0
  8  7  2  0
  8  9  1  0
  9 15  2  0
 10  9  1  0
 11 10  1  6
 11 12  1  0
 12  3  1  0
 13 24  1  0
 13 11  1  0
 14 13  2  0
 15 16  1  0
 18 28  2  0
 18 17  1  0
 19 18  1  0
 20 21  1  0
 20 19  2  0
 21 27  2  0
 22 21  1  0
 23 22  1  1
 23 24  1  0
 25 29  1  0
 25 23  1  0
 26 25  2  0
 27 28  1  0
M  END
$$$$
