GYY.pdb
     RDKit          3D

 29 30  0  0  1  0  0  0  0  0999 V2000
   31.5753    3.0994   -7.5791 N   0  0  0  0  0  0  0  0  0  0  0  0
   30.5712    2.0589   -7.6632 C   0  0  0  0  0  0  0  0  0  0  0  0
   29.2647    2.6277   -7.2313 C   0  0  0  0  0  0  0  0  0  0  0  0
   29.2087    3.6974   -6.5715 O   0  0  0  0  0  0  0  0  0  0  0  0
   20.7813    5.0040   -7.1389 O   0  0  0  0  0  0  0  0  0  0  0  0
   22.0181    4.4133   -7.4346 C   0  0  0  0  0  0  0  0  0  0  0  0
   23.0554    5.1322   -7.9773 C   0  0  0  0  0  0  0  0  0  0  0  0
   24.2620    4.5239   -8.2581 C   0  0  0  0  0  0  0  0  0  0  0  0
   24.4845    3.1860   -8.0126 C   0  0  0  0  0  0  0  0  0  0  0  0
   25.7867    2.5815   -8.3271 C   0  0  0  0  0  0  0  0  0  0  0  0
   26.7319    2.5267   -7.1483 C   0  0  2  0  0  0  0  0  0  0  0  0
   28.0292    1.9962   -7.5403 N   0  0  0  0  0  0  0  0  0  0  0  0
   26.1820    1.8026   -5.9839 C   0  0  0  0  0  0  0  0  0  0  0  0
   26.3668    0.5518   -5.9296 O   0  0  0  0  0  0  0  0  0  0  0  0
   23.4419    2.4731   -7.4695 C   0  0  0  0  0  0  0  0  0  0  0  0
   22.2170    3.0745   -7.1805 C   0  0  0  0  0  0  0  0  0  0  0  0
   25.0090   -1.8023    1.6169 O   0  0  0  0  0  0  0  0  0  0  0  0
   25.3096   -1.0905    0.4433 C   0  0  0  0  0  0  0  0  0  0  0  0
   25.7757    0.1932    0.5116 C   0  0  0  0  0  0  0  0  0  0  0  0
   26.0827    0.9272   -0.6121 C   0  0  0  0  0  0  0  0  0  0  0  0
   25.9152    0.3498   -1.8520 C   0  0  0  0  0  0  0  0  0  0  0  0
   26.2058    1.0397   -3.1161 C   0  0  0  0  0  0  0  0  0  0  0  0
   24.9814    1.6480   -3.7760 C   0  0  2  0  0  0  0  0  0  0  0  0
   25.4694    2.3902   -4.9265 N   0  0  0  0  0  0  0  0  0  0  0  0
   24.1891    2.4610   -2.8572 C   0  0  0  0  0  0  0  0  0  0  0  0
   24.4285    3.6660   -2.6166 O   0  0  0  0  0  0  0  0  0  0  0  0
   25.4451   -0.9459   -1.9316 C   0  0  0  0  0  0  0  0  0  0  0  0
   25.1458   -1.6581   -0.7995 C   0  0  0  0  0  0  0  0  0  0  0  0
   23.1070    1.8961   -2.2014 O   0  0  0  0  0  0  0  0  0  0  0  0
  1  2  1  0
  3  4  2  0
  3  2  1  0
  6  5  1  0
  6 16  2  0
  7  6  1  0
  8  7  2  0
  8  9  1  0
  9 15  2  0
 10  9  1  0
 11 10  1  6
 11 12  1  0
 12  3  1  0
 13 24  1  0
 13 11  1  0
 14 13  2  0
 15 16  1  0
 18 28  2  0
 18 17  1  0
 19 18  1  0
 20 21  1  0
 20 19  2  0
 21 27  2  0
 22 21  1  0
 23 22  1  1
 23 24  1  0
 25 29  1  0
 25 23  1  0
 26 25  2  0
 27 28  1  0
M  END
$$$$
