GYY.pdb
     RDKit          3D

 29 30  0  0  1  0  0  0  0  0999 V2000
   30.9980   -1.4637  -17.8278 N   0  0  0  0  0  0  0  0  0  0  0  0
   29.9738   -1.8463  -18.7779 C   0  0  0  0  0  0  0  0  0  0  0  0
   28.9277   -2.6229  -18.0570 C   0  0  0  0  0  0  0  0  0  0  0  0
   28.5999   -2.3314  -16.8779 O   0  0  0  0  0  0  0  0  0  0  0  0
   21.2942   -5.7472  -15.6356 O   0  0  0  0  0  0  0  0  0  0  0  0
   22.4632   -5.1621  -16.1429 C   0  0  0  0  0  0  0  0  0  0  0  0
   23.5731   -4.9590  -15.3592 C   0  0  0  0  0  0  0  0  0  0  0  0
   24.7101   -4.3806  -15.8860 C   0  0  0  0  0  0  0  0  0  0  0  0
   24.7890   -3.9837  -17.2036 C   0  0  0  0  0  0  0  0  0  0  0  0
   26.0217   -3.3728  -17.7208 C   0  0  0  0  0  0  0  0  0  0  0  0
   27.0958   -4.3767  -18.0737 C   0  0  2  0  0  0  0  0  0  0  0  0
   28.2549   -3.7205  -18.6599 N   0  0  0  0  0  0  0  0  0  0  0  0
   26.6130   -5.4827  -18.9259 C   0  0  0  0  0  0  0  0  0  0  0  0
   26.3818   -5.2275  -20.1437 O   0  0  0  0  0  0  0  0  0  0  0  0
   23.6745   -4.1901  -17.9816 C   0  0  0  0  0  0  0  0  0  0  0  0
   22.5186   -4.7735  -17.4629 C   0  0  0  0  0  0  0  0  0  0  0  0
   24.8264  -13.6683  -21.8303 O   0  0  0  0  0  0  0  0  0  0  0  0
   25.2224  -12.5454  -21.0841 C   0  0  0  0  0  0  0  0  0  0  0  0
   24.4552  -12.0988  -20.0440 C   0  0  0  0  0  0  0  0  0  0  0  0
   24.8049  -11.0035  -19.2868 C   0  0  0  0  0  0  0  0  0  0  0  0
   25.9699  -10.3308  -19.5854 C   0  0  0  0  0  0  0  0  0  0  0  0
   26.4380   -9.1489  -18.8489 C   0  0  0  0  0  0  0  0  0  0  0  0
   25.8457   -7.8434  -19.3484 C   0  0  2  0  0  0  0  0  0  0  0  0
   26.3901   -6.8002  -18.4950 N   0  0  0  0  0  0  0  0  0  0  0  0
   24.3857   -7.8605  -19.3805 C   0  0  0  0  0  0  0  0  0  0  0  0
   23.6684   -7.6246  -18.3820 O   0  0  0  0  0  0  0  0  0  0  0  0
   26.7515  -10.7739  -20.6337 C   0  0  0  0  0  0  0  0  0  0  0  0
   26.3838  -11.8670  -21.3743 C   0  0  0  0  0  0  0  0  0  0  0  0
   23.7299   -8.1499  -20.5664 O   0  0  0  0  0  0  0  0  0  0  0  0
  1  2  1  0
  3  4  2  0
  3  2  1  0
  6  5  1  0
  6 16  2  0
  7  6  1  0
  8  7  2  0
  8  9  1  0
  9 15  2  0
 10  9  1  0
 11 10  1  6
 11 12  1  0
 12  3  1  0
 13 24  1  0
 13 11  1  0
 14 13  2  0
 15 16  1  0
 18 28  2  0
 18 17  1  0
 19 18  1  0
 20 21  1  0
 20 19  2  0
 21 27  2  0
 22 21  1  0
 23 22  1  1
 23 24  1  0
 25 29  1  0
 25 23  1  0
 26 25  2  0
 27 28  1  0
M  END
$$$$
