GYY.pdb
     RDKit          3D

 29 30  0  0  1  0  0  0  0  0999 V2000
   15.2010   -8.1238  -18.1360 N   0  0  0  0  0  0  0  0  0  0  0  0
   16.2489   -8.9639  -17.5936 C   0  0  0  0  0  0  0  0  0  0  0  0
   15.8907  -10.3870  -17.8453 C   0  0  0  0  0  0  0  0  0  0  0  0
   14.7440  -10.7055  -18.2530 O   0  0  0  0  0  0  0  0  0  0  0  0
   16.5888  -19.2446  -18.6129 O   0  0  0  0  0  0  0  0  0  0  0  0
   16.8599  -17.8747  -18.4869 C   0  0  0  0  0  0  0  0  0  0  0  0
   17.5069  -17.3601  -17.3896 C   0  0  0  0  0  0  0  0  0  0  0  0
   17.7603  -16.0068  -17.2928 C   0  0  0  0  0  0  0  0  0  0  0  0
   17.3834  -15.1171  -18.2756 C   0  0  0  0  0  0  0  0  0  0  0  0
   17.6755  -13.6841  -18.1294 C   0  0  0  0  0  0  0  0  0  0  0  0
   16.4708  -12.8540  -17.7477 C   0  0  2  0  0  0  0  0  0  0  0  0
   16.8177  -11.4448  -17.6392 N   0  0  0  0  0  0  0  0  0  0  0  0
   15.7831  -13.3359  -16.5322 C   0  0  0  0  0  0  0  0  0  0  0  0
   16.0925  -12.7966  -15.4298 O   0  0  0  0  0  0  0  0  0  0  0  0
   16.7364  -15.6393  -19.3705 C   0  0  0  0  0  0  0  0  0  0  0  0
   16.4736  -17.0047  -19.4820 C   0  0  0  0  0  0  0  0  0  0  0  0
    9.0846  -14.3403  -11.2461 O   0  0  0  0  0  0  0  0  0  0  0  0
   10.1379  -14.1201  -12.1499 C   0  0  0  0  0  0  0  0  0  0  0  0
   11.4363  -14.1542  -11.7225 C   0  0  0  0  0  0  0  0  0  0  0  0
   12.4985  -13.9442  -12.5729 C   0  0  0  0  0  0  0  0  0  0  0  0
   12.2471  -13.6903  -13.9038 C   0  0  0  0  0  0  0  0  0  0  0  0
   13.3007  -13.4472  -14.8983 C   0  0  0  0  0  0  0  0  0  0  0  0
   14.0575  -14.6987  -15.3053 C   0  0  2  0  0  0  0  0  0  0  0  0
   14.8087  -14.3462  -16.4987 N   0  0  0  0  0  0  0  0  0  0  0  0
   13.1822  -15.8527  -15.4931 C   0  0  0  0  0  0  0  0  0  0  0  0
   12.7086  -16.1892  -16.6019 O   0  0  0  0  0  0  0  0  0  0  0  0
   10.9394  -13.6538  -14.3452 C   0  0  0  0  0  0  0  0  0  0  0  0
    9.8972  -13.8658  -13.4806 C   0  0  0  0  0  0  0  0  0  0  0  0
   12.8401  -16.6375  -14.4035 O   0  0  0  0  0  0  0  0  0  0  0  0
  1  2  1  0
  3  4  2  0
  3  2  1  0
  6  5  1  0
  6 16  2  0
  7  6  1  0
  8  7  2  0
  8  9  1  0
  9 15  2  0
 10  9  1  0
 11 10  1  1
 11 12  1  0
 12  3  1  0
 13 24  1  0
 13 11  1  0
 14 13  2  0
 15 16  1  0
 18 28  2  0
 18 17  1  0
 19 18  1  0
 20 21  1  0
 20 19  2  0
 21 27  2  0
 22 21  1  0
 23 22  1  6
 23 24  1  0
 25 29  1  0
 25 23  1  0
 26 25  2  0
 27 28  1  0
M  END
$$$$
