GYY.pdb
     RDKit          3D

 29 30  0  0  1  0  0  0  0  0999 V2000
   28.6891  -23.2399  -17.2300 N   0  0  0  0  0  0  0  0  0  0  0  0
   28.2778  -21.9266  -16.7782 C   0  0  0  0  0  0  0  0  0  0  0  0
   27.4497  -22.0875  -15.5513 C   0  0  0  0  0  0  0  0  0  0  0  0
   26.9175  -23.1915  -15.2674 O   0  0  0  0  0  0  0  0  0  0  0  0
   23.1194  -20.2962   -7.9913 O   0  0  0  0  0  0  0  0  0  0  0  0
   24.0047  -20.2765   -9.0784 C   0  0  0  0  0  0  0  0  0  0  0  0
   23.6739  -19.6867  -10.2742 C   0  0  0  0  0  0  0  0  0  0  0  0
   24.5659  -19.6827  -11.3274 C   0  0  0  0  0  0  0  0  0  0  0  0
   25.8138  -20.2606  -11.2348 C   0  0  0  0  0  0  0  0  0  0  0  0
   26.7310  -20.2309  -12.3829 C   0  0  0  0  0  0  0  0  0  0  0  0
   26.2662  -21.0667  -13.5540 C   0  0  2  0  0  0  0  0  0  0  0  0
   27.2224  -21.0122  -14.6497 N   0  0  0  0  0  0  0  0  0  0  0  0
   24.9013  -20.7343  -14.0115 C   0  0  0  0  0  0  0  0  0  0  0  0
   24.7526  -19.6825  -14.6995 O   0  0  0  0  0  0  0  0  0  0  0  0
   26.1378  -20.8488  -10.0352 C   0  0  0  0  0  0  0  0  0  0  0  0
   25.2465  -20.8605   -8.9623 C   0  0  0  0  0  0  0  0  0  0  0  0
   22.3641  -27.4483  -15.2410 O   0  0  0  0  0  0  0  0  0  0  0  0
   22.3146  -26.0454  -15.3038 C   0  0  0  0  0  0  0  0  0  0  0  0
   21.2062  -25.3710  -14.8722 C   0  0  0  0  0  0  0  0  0  0  0  0
   21.1149  -23.9979  -14.9154 C   0  0  0  0  0  0  0  0  0  0  0  0
   22.1776  -23.2742  -15.4110 C   0  0  0  0  0  0  0  0  0  0  0  0
   22.1883  -21.8083  -15.5084 C   0  0  0  0  0  0  0  0  0  0  0  0
   22.4172  -21.1093  -14.1805 C   0  0  2  0  0  0  0  0  0  0  0  0
   23.7502  -21.4932  -13.7464 N   0  0  0  0  0  0  0  0  0  0  0  0
   21.3801  -21.4099  -13.1971 C   0  0  0  0  0  0  0  0  0  0  0  0
   21.5907  -22.0514  -12.1430 O   0  0  0  0  0  0  0  0  0  0  0  0
   23.3015  -23.9459  -15.8493 C   0  0  0  0  0  0  0  0  0  0  0  0
   23.3705  -25.3137  -15.7969 C   0  0  0  0  0  0  0  0  0  0  0  0
   20.0828  -20.9740  -13.4145 O   0  0  0  0  0  0  0  0  0  0  0  0
  1  2  1  0
  3  4  2  0
  3  2  1  0
  6  5  1  0
  6 16  2  0
  7  6  1  0
  8  7  2  0
  8  9  1  0
  9 15  2  0
 10  9  1  0
 11 10  1  1
 11 12  1  0
 12  3  1  0
 13 24  1  0
 13 11  1  0
 14 13  2  0
 15 16  1  0
 18 28  2  0
 18 17  1  0
 19 18  1  0
 20 21  1  0
 20 19  2  0
 21 27  2  0
 22 21  1  0
 23 22  1  6
 23 24  1  0
 25 29  1  0
 25 23  1  0
 26 25  2  0
 27 28  1  0
M  END
$$$$
