GYY.pdb
     RDKit          3D

 29 30  0  0  1  0  0  0  0  0999 V2000
   28.4549  -24.2025  -16.1778 N   0  0  0  0  0  0  0  0  0  0  0  0
   28.2220  -22.7921  -16.4112 C   0  0  0  0  0  0  0  0  0  0  0  0
   27.1861  -22.3196  -15.4517 C   0  0  0  0  0  0  0  0  0  0  0  0
   26.3452  -23.1158  -14.9602 O   0  0  0  0  0  0  0  0  0  0  0  0
   29.1515  -21.5019   -8.6154 O   0  0  0  0  0  0  0  0  0  0  0  0
   28.5171  -20.9805   -9.7519 C   0  0  0  0  0  0  0  0  0  0  0  0
   27.1683  -20.7207   -9.7761 C   0  0  0  0  0  0  0  0  0  0  0  0
   26.5708  -20.2073  -10.9094 C   0  0  0  0  0  0  0  0  0  0  0  0
   27.2850  -19.9335  -12.0561 C   0  0  0  0  0  0  0  0  0  0  0  0
   26.6058  -19.3862  -13.2390 C   0  0  0  0  0  0  0  0  0  0  0  0
   26.0581  -20.4447  -14.1694 C   0  0  2  0  0  0  0  0  0  0  0  0
   27.0976  -20.9594  -15.0482 N   0  0  0  0  0  0  0  0  0  0  0  0
   24.8742  -20.0026  -14.9346 C   0  0  0  0  0  0  0  0  0  0  0  0
   25.0669  -19.2371  -15.9239 O   0  0  0  0  0  0  0  0  0  0  0  0
   28.6341  -20.1961  -12.0244 C   0  0  0  0  0  0  0  0  0  0  0  0
   29.2514  -20.7149  -10.8862 C   0  0  0  0  0  0  0  0  0  0  0  0
   18.3783  -22.7893  -11.3611 O   0  0  0  0  0  0  0  0  0  0  0  0
   19.1692  -22.3782  -12.4474 C   0  0  0  0  0  0  0  0  0  0  0  0
   18.6670  -21.5176  -13.3838 C   0  0  0  0  0  0  0  0  0  0  0  0
   19.4063  -21.0890  -14.4633 C   0  0  0  0  0  0  0  0  0  0  0  0
   20.6995  -21.5422  -14.6081 C   0  0  0  0  0  0  0  0  0  0  0  0
   21.5767  -21.1555  -15.7214 C   0  0  0  0  0  0  0  0  0  0  0  0
   22.4093  -19.9173  -15.4418 C   0  0  2  0  0  0  0  0  0  0  0  0
   23.5468  -20.3646  -14.6551 N   0  0  0  0  0  0  0  0  0  0  0  0
   21.6429  -18.8542  -14.7973 C   0  0  0  0  0  0  0  0  0  0  0  0
   21.7702  -18.5424  -13.5916 O   0  0  0  0  0  0  0  0  0  0  0  0
   21.2158  -22.4115  -13.6679 C   0  0  0  0  0  0  0  0  0  0  0  0
   20.4616  -22.8250  -12.6008 C   0  0  0  0  0  0  0  0  0  0  0  0
   20.7172  -18.1334  -15.5346 O   0  0  0  0  0  0  0  0  0  0  0  0
  1  2  1  0
  3  4  2  0
  3  2  1  0
  6  5  1  0
  6 16  2  0
  7  6  1  0
  8  7  2  0
  8  9  1  0
  9 15  2  0
 10  9  1  0
 11 10  1  6
 11 12  1  0
 12  3  1  0
 13 24  1  0
 13 11  1  0
 14 13  2  0
 15 16  1  0
 18 28  2  0
 18 17  1  0
 19 18  1  0
 20 21  1  0
 20 19  2  0
 21 27  2  0
 22 21  1  0
 23 22  1  1
 23 24  1  0
 25 29  1  0
 25 23  1  0
 26 25  2  0
 27 28  1  0
M  END
$$$$
