GYY.pdb
     RDKit          3D

 29 30  0  0  1  0  0  0  0  0999 V2000
   25.4098   -3.8108  -23.9358 N   0  0  0  0  0  0  0  0  0  0  0  0
   25.3508   -3.4249  -22.5409 C   0  0  0  0  0  0  0  0  0  0  0  0
   24.5205   -4.4216  -21.8101 C   0  0  0  0  0  0  0  0  0  0  0  0
   23.9959   -5.3947  -22.4107 O   0  0  0  0  0  0  0  0  0  0  0  0
   20.8725  -10.6086  -17.1710 O   0  0  0  0  0  0  0  0  0  0  0  0
   21.6469   -9.6385  -17.8230 C   0  0  0  0  0  0  0  0  0  0  0  0
   21.1698   -8.9312  -18.8998 C   0  0  0  0  0  0  0  0  0  0  0  0
   21.9550   -7.9819  -19.5220 C   0  0  0  0  0  0  0  0  0  0  0  0
   23.2370   -7.6995  -19.1018 C   0  0  0  0  0  0  0  0  0  0  0  0
   24.0359   -6.6789  -19.7950 C   0  0  0  0  0  0  0  0  0  0  0  0
   23.4814   -5.2787  -19.6612 C   0  0  2  0  0  0  0  0  0  0  0  0
   24.2824   -4.3234  -20.4121 N   0  0  0  0  0  0  0  0  0  0  0  0
   23.2993   -4.8472  -18.2600 C   0  0  0  0  0  0  0  0  0  0  0  0
   24.3034   -4.3651  -17.6591 O   0  0  0  0  0  0  0  0  0  0  0  0
   23.7076   -8.4111  -18.0238 C   0  0  0  0  0  0  0  0  0  0  0  0
   22.9254   -9.3734  -17.3852 C   0  0  0  0  0  0  0  0  0  0  0  0
   23.5722  -10.7767  -15.4986 O   0  0  0  0  0  0  0  0  0  0  0  0
   23.4756   -9.3750  -15.4820 C   0  0  0  0  0  0  0  0  0  0  0  0
   22.3415   -8.7638  -15.0237 C   0  0  0  0  0  0  0  0  0  0  0  0
   22.2041   -7.3944  -14.9896 C   0  0  0  0  0  0  0  0  0  0  0  0
   23.2454   -6.6084  -15.4329 C   0  0  0  0  0  0  0  0  0  0  0  0
   23.2070   -5.1398  -15.4467 C   0  0  0  0  0  0  0  0  0  0  0  0
   21.9804   -4.5669  -16.1336 C   0  0  2  0  0  0  0  0  0  0  0  0
   22.0985   -4.9265  -17.5369 N   0  0  0  0  0  0  0  0  0  0  0  0
   21.8293   -3.1307  -15.9156 C   0  0  0  0  0  0  0  0  0  0  0  0
   21.7011   -2.2995  -16.8428 O   0  0  0  0  0  0  0  0  0  0  0  0
   24.3949   -7.2159  -15.8977 C   0  0  0  0  0  0  0  0  0  0  0  0
   24.5099   -8.5814  -15.9225 C   0  0  0  0  0  0  0  0  0  0  0  0
   21.8232   -2.6309  -14.6232 O   0  0  0  0  0  0  0  0  0  0  0  0
  1  2  1  0
  3  4  2  0
  3  2  1  0
  6  5  1  0
  6 16  2  0
  7  6  1  0
  8  7  2  0
  8  9  1  0
  9 15  2  0
 10  9  1  0
 11 10  1  1
 11 12  1  0
 12  3  1  0
 13 24  1  0
 13 11  1  0
 14 13  2  0
 15 16  1  0
 18 28  2  0
 18 17  1  0
 19 18  1  0
 20 21  1  0
 20 19  2  0
 21 27  2  0
 22 21  1  0
 23 22  1  1
 23 24  1  0
 25 29  1  0
 25 23  1  0
 26 25  2  0
 27 28  1  0
M  END
$$$$
