IFL.pdb
     RDKit          3D

 28 28  0  0  1  0  0  0  0  0999 V2000
   28.4713  -19.4410  -17.4270 C   0  0  0  0  0  0  0  0  0  0  0  0
   27.2434  -19.5291  -16.5687 C   0  0  0  0  0  0  0  0  0  0  0  0
   26.3437  -20.6884  -16.9023 C   0  0  2  0  0  0  0  0  0  0  0  0
   25.9438  -20.6010  -18.3625 C   0  0  0  0  0  0  0  0  0  0  0  0
   25.1315  -20.8089  -16.0077 C   0  0  2  0  0  0  0  0  0  0  0  0
   24.4356  -19.4930  -16.0737 N   0  0  0  0  0  0  0  0  0  0  0  0
   25.4198  -21.0346  -14.5946 C   0  0  0  0  0  0  0  0  0  0  0  0
   25.2792  -22.2194  -14.1185 O   0  0  0  0  0  0  0  0  0  0  0  0
   25.8528  -20.0803  -13.6442 N   0  0  0  0  0  0  0  0  0  0  0  0
   25.9823  -20.3488  -12.2344 C   0  0  1  0  0  0  0  0  0  0  0  0
   27.0105  -19.3940  -11.6671 C   0  0  0  0  0  0  0  0  0  0  0  0
   27.2168  -19.6475  -10.2176 C   0  0  0  0  0  0  0  0  0  0  0  0
   26.5942  -18.8632   -9.2625 C   0  0  0  0  0  0  0  0  0  0  0  0
   26.8012  -19.1182   -7.9394 C   0  0  0  0  0  0  0  0  0  0  0  0
   27.6354  -20.1634   -7.5583 C   0  0  0  0  0  0  0  0  0  0  0  0
   28.2469  -20.9338   -8.5239 C   0  0  0  0  0  0  0  0  0  0  0  0
   28.0500  -20.6915   -9.8641 C   0  0  0  0  0  0  0  0  0  0  0  0
   24.7228  -20.1460  -11.4845 C   0  0  0  0  0  0  0  0  0  0  0  0
   24.0301  -19.1047  -11.5437 O   0  0  0  0  0  0  0  0  0  0  0  0
   20.1054  -21.6762  -12.3551 C   0  0  0  0  0  0  0  0  0  0  0  0
   21.1262  -20.9121  -11.5843 C   0  0  1  0  0  0  0  0  0  0  0  0
   20.3954  -19.7307  -10.9459 C   0  0  0  0  0  0  0  0  0  0  0  0
   21.9432  -21.6630  -10.6272 C   0  0  0  0  0  0  0  0  0  0  0  0
   23.0331  -21.0474   -9.8646 C   0  0  2  0  0  0  0  0  0  0  0  0
   24.2828  -21.2035  -10.6502 N   0  0  0  0  0  0  0  0  0  0  0  0
   23.2774  -21.3899   -8.4783 C   0  0  0  0  0  0  0  0  0  0  0  0
   24.1905  -22.2685   -7.9620 O   0  0  0  0  0  0  0  0  0  0  0  0
   22.5494  -20.8118   -7.5752 O   0  0  0  0  0  0  0  0  0  0  0  0
  2  1  1  0
  3  2  1  0
  3  4  1  6
  5  3  1  0
  5  6  1  1
  7  5  1  0
  8  7  2  0
  9  7  1  0
 10  9  1  0
 11 12  1  0
 10 11  1  1
 12 13  2  0
 13 14  1  0
 15 14  2  0
 16 15  1  0
 17 12  1  0
 17 16  2  0
 18 10  1  0
 18 19  2  0
 21 20  1  1
 22 21  1  0
 24 23  1  6
 23 21  1  0
 24 25  1  0
 25 18  1  0
 26 24  1  0
 27 26  1  0
 28 26  2  0
M  END
$$$$
