IFL.pdb
     RDKit          3D

 28 28  0  0  1  0  0  0  0  0999 V2000
   25.6154  -19.3216  -16.0201 C   0  0  0  0  0  0  0  0  0  0  0  0
   26.8662  -19.4802  -15.2061 C   0  0  0  0  0  0  0  0  0  0  0  0
   26.6187  -19.8228  -13.7618 C   0  0  2  0  0  0  0  0  0  0  0  0
   25.6476  -18.8174  -13.1735 C   0  0  0  0  0  0  0  0  0  0  0  0
   27.8738  -19.9271  -12.9262 C   0  0  2  0  0  0  0  0  0  0  0  0
   28.6766  -21.0325  -13.5209 N   0  0  0  0  0  0  0  0  0  0  0  0
   27.6638  -20.2965  -11.5296 C   0  0  0  0  0  0  0  0  0  0  0  0
   27.3423  -21.5094  -11.2546 O   0  0  0  0  0  0  0  0  0  0  0  0
   27.7747  -19.4592  -10.3946 N   0  0  0  0  0  0  0  0  0  0  0  0
   27.5326  -19.8975   -9.0435 C   0  0  1  0  0  0  0  0  0  0  0  0
   28.2329  -18.9376   -8.1059 C   0  0  0  0  0  0  0  0  0  0  0  0
   28.2004  -19.4503   -6.7117 C   0  0  0  0  0  0  0  0  0  0  0  0
   28.9717  -20.5356   -6.3346 C   0  0  0  0  0  0  0  0  0  0  0  0
   28.9226  -20.9850   -5.0485 C   0  0  0  0  0  0  0  0  0  0  0  0
   28.0989  -20.3509   -4.1248 C   0  0  0  0  0  0  0  0  0  0  0  0
   27.3380  -19.2713   -4.5188 C   0  0  0  0  0  0  0  0  0  0  0  0
   27.3745  -18.8036   -5.8124 C   0  0  0  0  0  0  0  0  0  0  0  0
   26.0976  -19.9075   -8.6824 C   0  0  0  0  0  0  0  0  0  0  0  0
   25.3752  -18.8854   -8.6469 O   0  0  0  0  0  0  0  0  0  0  0  0
   22.7904  -22.5782  -11.3990 C   0  0  0  0  0  0  0  0  0  0  0  0
   23.3235  -21.5912  -10.4184 C   0  0  1  0  0  0  0  0  0  0  0  0
   22.5274  -20.3019  -10.6216 C   0  0  0  0  0  0  0  0  0  0  0  0
   23.3864  -22.0085   -9.0151 C   0  0  0  0  0  0  0  0  0  0  0  0
   24.0793  -21.2251   -7.9880 C   0  0  2  0  0  0  0  0  0  0  0  0
   25.5151  -21.1580   -8.3585 N   0  0  0  0  0  0  0  0  0  0  0  0
   23.9487  -21.5364   -6.5792 C   0  0  0  0  0  0  0  0  0  0  0  0
   24.8605  -22.1225   -5.7442 O   0  0  0  0  0  0  0  0  0  0  0  0
   22.8299  -21.2404   -5.9956 O   0  0  0  0  0  0  0  0  0  0  0  0
  2  1  1  0
  3  2  1  0
  3  4  1  1
  5  3  1  0
  5  6  1  6
  7  5  1  0
  8  7  2  0
  9  7  1  0
 10  9  1  0
 11 12  1  0
 10 11  1  1
 12 13  2  0
 13 14  1  0
 15 14  2  0
 16 15  1  0
 17 12  1  0
 17 16  2  0
 18 10  1  0
 18 19  2  0
 21 20  1  6
 22 21  1  0
 24 23  1  6
 23 21  1  0
 24 25  1  0
 25 18  1  0
 26 24  1  0
 27 26  1  0
 28 26  2  0
M  END
$$$$
