IFL.pdb
     RDKit          3D

 28 28  0  0  1  0  0  0  0  0999 V2000
   30.2873  -21.6079  -18.8363 C   0  0  0  0  0  0  0  0  0  0  0  0
   29.8697  -22.6027  -17.7930 C   0  0  0  0  0  0  0  0  0  0  0  0
   28.3792  -22.7608  -17.6581 C   0  0  2  0  0  0  0  0  0  0  0  0
   27.7428  -21.3884  -17.5533 C   0  0  0  0  0  0  0  0  0  0  0  0
   27.9521  -23.6525  -16.5149 C   0  0  2  0  0  0  0  0  0  0  0  0
   28.5069  -25.0028  -16.8131 N   0  0  0  0  0  0  0  0  0  0  0  0
   26.5110  -23.8380  -16.3741 C   0  0  0  0  0  0  0  0  0  0  0  0
   25.8463  -24.2858  -17.3780 O   0  0  0  0  0  0  0  0  0  0  0  0
   25.7205  -23.5802  -15.2295 N   0  0  0  0  0  0  0  0  0  0  0  0
   24.2887  -23.7362  -15.1875 C   0  0  1  0  0  0  0  0  0  0  0  0
   23.9136  -24.2633  -13.8193 C   0  0  0  0  0  0  0  0  0  0  0  0
   22.4488  -24.4963  -13.7314 C   0  0  0  0  0  0  0  0  0  0  0  0
   21.6260  -23.6080  -13.0615 C   0  0  0  0  0  0  0  0  0  0  0  0
   20.2853  -23.8465  -12.9966 C   0  0  0  0  0  0  0  0  0  0  0  0
   19.7537  -24.9792  -13.6031 C   0  0  0  0  0  0  0  0  0  0  0  0
   20.5889  -25.8526  -14.2659 C   0  0  0  0  0  0  0  0  0  0  0  0
   21.9445  -25.6286  -14.3420 C   0  0  0  0  0  0  0  0  0  0  0  0
   23.5579  -22.4658  -15.3924 C   0  0  0  0  0  0  0  0  0  0  0  0
   23.8025  -21.4068  -14.7710 O   0  0  0  0  0  0  0  0  0  0  0  0
   23.0144  -20.8301  -20.1297 C   0  0  0  0  0  0  0  0  0  0  0  0
   23.0660  -20.7713  -18.6418 C   0  0  1  0  0  0  0  0  0  0  0  0
   23.9046  -19.5444  -18.2833 C   0  0  0  0  0  0  0  0  0  0  0  0
   21.7888  -20.8195  -17.9249 C   0  0  0  0  0  0  0  0  0  0  0  0
   21.6834  -21.2438  -16.5259 C   0  0  2  0  0  0  0  0  0  0  0  0
   22.5179  -22.4594  -16.3550 N   0  0  0  0  0  0  0  0  0  0  0  0
   20.3980  -21.4355  -15.8857 C   0  0  0  0  0  0  0  0  0  0  0  0
   19.5941  -20.5055  -15.2848 O   0  0  0  0  0  0  0  0  0  0  0  0
   19.9124  -22.6367  -15.8516 O   0  0  0  0  0  0  0  0  0  0  0  0
  2  1  1  0
  3  2  1  0
  3  4  1  1
  5  3  1  0
  5  6  1  6
  7  5  1  0
  8  7  2  0
  9  7  1  0
 10  9  1  0
 11 12  1  0
 10 11  1  1
 12 13  2  0
 13 14  1  0
 15 14  2  0
 16 15  1  0
 17 12  1  0
 17 16  2  0
 18 10  1  0
 18 19  2  0
 21 20  1  6
 22 21  1  0
 24 23  1  6
 23 21  1  0
 24 25  1  0
 25 18  1  0
 26 24  1  0
 27 26  1  0
 28 26  2  0
M  END
$$$$
