IFL.pdb
     RDKit          3D

 28 28  0  0  1  0  0  0  0  0999 V2000
   25.7711  -14.4425  -16.0096 C   0  0  0  0  0  0  0  0  0  0  0  0
   26.3861  -15.7919  -16.2398 C   0  0  0  0  0  0  0  0  0  0  0  0
   26.0428  -16.8102  -15.1863 C   0  0  2  0  0  0  0  0  0  0  0  0
   26.5614  -16.3293  -13.8448 C   0  0  0  0  0  0  0  0  0  0  0  0
   26.5298  -18.2076  -15.4938 C   0  0  2  0  0  0  0  0  0  0  0  0
   25.9366  -18.5724  -16.8110 N   0  0  0  0  0  0  0  0  0  0  0  0
   26.0893  -19.2404  -14.5609 C   0  0  0  0  0  0  0  0  0  0  0  0
   24.8316  -19.4801  -14.4556 O   0  0  0  0  0  0  0  0  0  0  0  0
   26.9001  -20.0448  -13.7260 N   0  0  0  0  0  0  0  0  0  0  0  0
   26.3860  -21.0462  -12.8265 C   0  0  1  0  0  0  0  0  0  0  0  0
   26.8294  -22.4026  -13.3309 C   0  0  0  0  0  0  0  0  0  0  0  0
   26.0370  -22.8027  -14.5225 C   0  0  0  0  0  0  0  0  0  0  0  0
   24.8561  -23.5111  -14.3864 C   0  0  0  0  0  0  0  0  0  0  0  0
   24.1489  -23.8652  -15.4969 C   0  0  0  0  0  0  0  0  0  0  0  0
   24.6181  -23.5128  -16.7576 C   0  0  0  0  0  0  0  0  0  0  0  0
   25.7964  -22.8071  -16.8733 C   0  0  0  0  0  0  0  0  0  0  0  0
   26.5237  -22.4410  -15.7640 C   0  0  0  0  0  0  0  0  0  0  0  0
   26.8876  -20.8988  -11.4421 C   0  0  0  0  0  0  0  0  0  0  0  0
   28.0853  -20.6822  -11.1485 O   0  0  0  0  0  0  0  0  0  0  0  0
   26.9206  -18.1929   -6.8331 C   0  0  0  0  0  0  0  0  0  0  0  0
   27.7640  -19.0667   -7.6963 C   0  0  1  0  0  0  0  0  0  0  0  0
   28.2964  -20.1832   -6.7978 C   0  0  0  0  0  0  0  0  0  0  0  0
   27.1607  -19.5684   -8.9340 C   0  0  0  0  0  0  0  0  0  0  0  0
   26.3815  -20.8088   -8.9870 C   0  0  2  0  0  0  0  0  0  0  0  0
   25.9441  -21.0116  -10.3909 N   0  0  0  0  0  0  0  0  0  0  0  0
   25.2720  -21.0474   -8.0866 C   0  0  0  0  0  0  0  0  0  0  0  0
   25.2874  -21.6116   -6.8401 O   0  0  0  0  0  0  0  0  0  0  0  0
   24.0875  -20.6985   -8.4807 O   0  0  0  0  0  0  0  0  0  0  0  0
  2  1  1  0
  3  2  1  0
  3  4  1  1
  5  3  1  0
  5  6  1  6
  7  5  1  0
  8  7  2  0
  9  7  1  0
 10  9  1  0
 11 12  1  0
 10 11  1  6
 12 13  2  0
 13 14  1  0
 15 14  2  0
 16 15  1  0
 17 12  1  0
 17 16  2  0
 18 10  1  0
 18 19  2  0
 21 20  1  1
 22 21  1  0
 24 23  1  6
 23 21  1  0
 24 25  1  0
 25 18  1  0
 26 24  1  0
 27 26  1  0
 28 26  2  0
M  END
$$$$
