IFL.pdb
     RDKit          3D

 28 28  0  0  1  0  0  0  0  0999 V2000
   26.4639  -37.9805  -13.4205 C   0  0  0  0  0  0  0  0  0  0  0  0
   25.6544  -36.7167  -13.4233 C   0  0  0  0  0  0  0  0  0  0  0  0
   25.9685  -35.7847  -12.2842 C   0  0  2  0  0  0  0  0  0  0  0  0
   25.8802  -36.5507  -10.9784 C   0  0  0  0  0  0  0  0  0  0  0  0
   25.1125  -34.5395  -12.2489 C   0  0  2  0  0  0  0  0  0  0  0  0
   25.4907  -33.7427  -13.4498 N   0  0  0  0  0  0  0  0  0  0  0  0
   25.3361  -33.6618  -11.1041 C   0  0  0  0  0  0  0  0  0  0  0  0
   26.3495  -32.8726  -11.1213 O   0  0  0  0  0  0  0  0  0  0  0  0
   24.5492  -33.5624   -9.9326 N   0  0  0  0  0  0  0  0  0  0  0  0
   24.8952  -32.7462   -8.7966 C   0  0  1  0  0  0  0  0  0  0  0  0
   23.6431  -32.0349   -8.3307 C   0  0  0  0  0  0  0  0  0  0  0  0
   23.9515  -31.1156   -7.2048 C   0  0  0  0  0  0  0  0  0  0  0  0
   23.8882  -31.5512   -5.8929 C   0  0  0  0  0  0  0  0  0  0  0  0
   24.1764  -30.6863   -4.8792 C   0  0  0  0  0  0  0  0  0  0  0  0
   24.5317  -29.3737   -5.1695 C   0  0  0  0  0  0  0  0  0  0  0  0
   24.5893  -28.9579   -6.4824 C   0  0  0  0  0  0  0  0  0  0  0  0
   24.3019  -29.8165   -7.5186 C   0  0  0  0  0  0  0  0  0  0  0  0
   25.4158  -33.5289   -7.6537 C   0  0  0  0  0  0  0  0  0  0  0  0
   24.9573  -34.6373   -7.2947 O   0  0  0  0  0  0  0  0  0  0  0  0
   30.7450  -34.1622   -7.3684 C   0  0  0  0  0  0  0  0  0  0  0  0
   29.2766  -34.3709   -7.2255 C   0  0  1  0  0  0  0  0  0  0  0  0
   29.0470  -35.8821   -7.2520 C   0  0  0  0  0  0  0  0  0  0  0  0
   28.6132  -33.7121   -6.0971 C   0  0  0  0  0  0  0  0  0  0  0  0
   27.1662  -33.7897   -5.8762 C   0  0  2  0  0  0  0  0  0  0  0  0
   26.5014  -32.9796   -6.9274 N   0  0  0  0  0  0  0  0  0  0  0  0
   26.5788  -33.4974   -4.5846 C   0  0  0  0  0  0  0  0  0  0  0  0
   26.1851  -32.2891   -4.0772 O   0  0  0  0  0  0  0  0  0  0  0  0
   26.3899  -34.4863   -3.7683 O   0  0  0  0  0  0  0  0  0  0  0  0
  2  1  1  0
  3  2  1  0
  3  4  1  1
  5  3  1  0
  5  6  1  6
  7  5  1  0
  8  7  2  0
  9  7  1  0
 10  9  1  0
 11 12  1  0
 10 11  1  1
 12 13  2  0
 13 14  1  0
 15 14  2  0
 16 15  1  0
 17 12  1  0
 17 16  2  0
 18 10  1  0
 18 19  2  0
 21 20  1  1
 22 21  1  0
 24 23  1  1
 23 21  1  0
 24 25  1  0
 25 18  1  0
 26 24  1  0
 27 26  1  0
 28 26  2  0
M  END
$$$$
