IFL.pdb
     RDKit          3D

 28 28  0  0  1  0  0  0  0  0999 V2000
   30.3512  -19.7949  -15.0453 C   0  0  0  0  0  0  0  0  0  0  0  0
   30.5891  -20.0296  -13.5823 C   0  0  0  0  0  0  0  0  0  0  0  0
   29.3416  -20.3410  -12.8002 C   0  0  2  0  0  0  0  0  0  0  0  0
   28.3052  -19.2679  -13.0728 C   0  0  0  0  0  0  0  0  0  0  0  0
   29.5692  -20.5197  -11.3167 C   0  0  2  0  0  0  0  0  0  0  0  0
   30.4794  -21.6909  -11.1756 N   0  0  0  0  0  0  0  0  0  0  0  0
   28.3784  -20.8469  -10.5385 C   0  0  0  0  0  0  0  0  0  0  0  0
   27.9420  -22.0550  -10.5581 O   0  0  0  0  0  0  0  0  0  0  0  0
   27.6132  -19.9719   -9.7320 N   0  0  0  0  0  0  0  0  0  0  0  0
   26.3122  -20.2944   -9.2032 C   0  0  1  0  0  0  0  0  0  0  0  0
   26.0347  -19.3662   -8.0403 C   0  0  0  0  0  0  0  0  0  0  0  0
   26.9249  -19.6830   -6.8936 C   0  0  0  0  0  0  0  0  0  0  0  0
   26.7886  -20.8688   -6.1935 C   0  0  0  0  0  0  0  0  0  0  0  0
   27.6192  -21.1338   -5.1454 C   0  0  0  0  0  0  0  0  0  0  0  0
   28.5968  -20.2122   -4.7869 C   0  0  0  0  0  0  0  0  0  0  0  0
   28.7175  -19.0365   -5.4961 C   0  0  0  0  0  0  0  0  0  0  0  0
   27.8884  -18.7517   -6.5567 C   0  0  0  0  0  0  0  0  0  0  0  0
   25.2221  -20.1152  -10.1877 C   0  0  0  0  0  0  0  0  0  0  0  0
   25.0564  -19.0793  -10.8712 O   0  0  0  0  0  0  0  0  0  0  0  0
   22.7079  -21.7582  -14.5645 C   0  0  0  0  0  0  0  0  0  0  0  0
   22.4818  -22.6036  -13.3585 C   0  0  1  0  0  0  0  0  0  0  0  0
   22.5240  -24.0569  -13.8314 C   0  0  0  0  0  0  0  0  0  0  0  0
   23.3396  -22.3560  -12.1966 C   0  0  0  0  0  0  0  0  0  0  0  0
   23.2792  -21.1142  -11.4200 C   0  0  2  0  0  0  0  0  0  0  0  0
   24.3148  -21.1901  -10.3594 N   0  0  0  0  0  0  0  0  0  0  0  0
   22.0346  -20.6299  -10.8586 C   0  0  0  0  0  0  0  0  0  0  0  0
   21.6010  -20.6871   -9.5621 O   0  0  0  0  0  0  0  0  0  0  0  0
   21.1883  -20.0650  -11.6615 O   0  0  0  0  0  0  0  0  0  0  0  0
  2  1  1  0
  3  2  1  0
  3  4  1  1
  5  3  1  0
  5  6  1  6
  7  5  1  0
  8  7  2  0
  9  7  1  0
 10  9  1  0
 11 12  1  0
 10 11  1  1
 12 13  2  0
 13 14  1  0
 15 14  2  0
 16 15  1  0
 17 12  1  0
 17 16  2  0
 18 10  1  0
 18 19  2  0
 21 20  1  6
 22 21  1  0
 24 23  1  1
 23 21  1  0
 24 25  1  0
 25 18  1  0
 26 24  1  0
 27 26  1  0
 28 26  2  0
M  END
$$$$
