IFL.pdb
     RDKit          3D

 28 28  0  0  1  0  0  0  0  0999 V2000
   26.3309  -18.8359  -20.2014 C   0  0  0  0  0  0  0  0  0  0  0  0
   24.9560  -18.5646  -19.6646 C   0  0  0  0  0  0  0  0  0  0  0  0
   24.8439  -18.6974  -18.1698 C   0  0  2  0  0  0  0  0  0  0  0  0
   25.2932  -20.0869  -17.7608 C   0  0  0  0  0  0  0  0  0  0  0  0
   23.4717  -18.3808  -17.6211 C   0  0  2  0  0  0  0  0  0  0  0  0
   23.2141  -16.9505  -17.9498 N   0  0  0  0  0  0  0  0  0  0  0  0
   23.3413  -18.4841  -16.1709 C   0  0  0  0  0  0  0  0  0  0  0  0
   23.8748  -17.5740  -15.4377 O   0  0  0  0  0  0  0  0  0  0  0  0
   22.6756  -19.4955  -15.4391 N   0  0  0  0  0  0  0  0  0  0  0  0
   22.6574  -19.5692  -14.0001 C   0  0  1  0  0  0  0  0  0  0  0  0
   21.3366  -20.1755  -13.5777 C   0  0  0  0  0  0  0  0  0  0  0  0
   21.2387  -20.2371  -12.0964 C   0  0  0  0  0  0  0  0  0  0  0  0
   21.7279  -21.3255  -11.3957 C   0  0  0  0  0  0  0  0  0  0  0  0
   21.6250  -21.3557  -10.0366 C   0  0  0  0  0  0  0  0  0  0  0  0
   21.0299  -20.2942   -9.3639 C   0  0  0  0  0  0  0  0  0  0  0  0
   20.5483  -19.2186  -10.0788 C   0  0  0  0  0  0  0  0  0  0  0  0
   20.6433  -19.1704  -11.4507 C   0  0  0  0  0  0  0  0  0  0  0  0
   23.7358  -20.4180  -13.4465 C   0  0  0  0  0  0  0  0  0  0  0  0
   24.0803  -21.5203  -13.9304 O   0  0  0  0  0  0  0  0  0  0  0  0
   29.2599  -20.1214  -12.8911 C   0  0  0  0  0  0  0  0  0  0  0  0
   28.1124  -20.7542  -12.1819 C   0  0  1  0  0  0  0  0  0  0  0  0
   28.4917  -20.8086  -10.7018 C   0  0  0  0  0  0  0  0  0  0  0  0
   26.7843  -20.1787  -12.4103 C   0  0  0  0  0  0  0  0  0  0  0  0
   25.5756  -20.6997  -11.7650 C   0  0  2  0  0  0  0  0  0  0  0  0
   24.4142  -19.9435  -12.2965 N   0  0  0  0  0  0  0  0  0  0  0  0
   25.4724  -20.8114  -10.3244 C   0  0  0  0  0  0  0  0  0  0  0  0
   25.7269  -21.8959   -9.5297 O   0  0  0  0  0  0  0  0  0  0  0  0
   25.0843  -19.7665   -9.6629 O   0  0  0  0  0  0  0  0  0  0  0  0
  2  1  1  0
  3  2  1  0
  3  4  1  6
  5  3  1  0
  5  6  1  1
  7  5  1  0
  8  7  2  0
  9  7  1  0
 10  9  1  0
 11 12  1  0
 10 11  1  6
 12 13  2  0
 13 14  1  0
 15 14  2  0
 16 15  1  0
 17 12  1  0
 17 16  2  0
 18 10  1  0
 18 19  2  0
 21 20  1  6
 22 21  1  0
 24 23  1  1
 23 21  1  0
 24 25  1  0
 25 18  1  0
 26 24  1  0
 27 26  1  0
 28 26  2  0
M  END
$$$$
