IFL.pdb
     RDKit          3D

 28 28  0  0  1  0  0  0  0  0999 V2000
   22.4458  -21.8232  -15.5842 C   0  0  0  0  0  0  0  0  0  0  0  0
   22.5870  -21.0448  -14.3089 C   0  0  0  0  0  0  0  0  0  0  0  0
   23.6950  -21.5301  -13.4137 C   0  0  2  0  0  0  0  0  0  0  0  0
   23.4648  -22.9935  -13.0891 C   0  0  0  0  0  0  0  0  0  0  0  0
   23.8787  -20.7116  -12.1564 C   0  0  2  0  0  0  0  0  0  0  0  0
   24.1238  -19.3122  -12.6054 N   0  0  0  0  0  0  0  0  0  0  0  0
   25.0333  -21.0740  -11.3399 C   0  0  0  0  0  0  0  0  0  0  0  0
   24.9754  -22.1438  -10.6311 O   0  0  0  0  0  0  0  0  0  0  0  0
   26.2568  -20.3732  -11.2250 N   0  0  0  0  0  0  0  0  0  0  0  0
   27.3289  -20.7630  -10.3446 C   0  0  1  0  0  0  0  0  0  0  0  0
   28.6394  -20.4294  -11.0242 C   0  0  0  0  0  0  0  0  0  0  0  0
   29.7862  -20.9416  -10.2302 C   0  0  0  0  0  0  0  0  0  0  0  0
   30.3177  -22.1955  -10.4754 C   0  0  0  0  0  0  0  0  0  0  0  0
   31.3701  -22.6404   -9.7317 C   0  0  0  0  0  0  0  0  0  0  0  0
   31.9022  -21.8324   -8.7328 C   0  0  0  0  0  0  0  0  0  0  0  0
   31.3595  -20.5864   -8.5031 C   0  0  0  0  0  0  0  0  0  0  0  0
   30.2973  -20.1205   -9.2435 C   0  0  0  0  0  0  0  0  0  0  0  0
   27.3050  -20.0521   -9.0470 C   0  0  0  0  0  0  0  0  0  0  0  0
   26.8801  -18.8843   -8.8937 O   0  0  0  0  0  0  0  0  0  0  0  0
   27.8593  -22.0337   -3.2015 C   0  0  0  0  0  0  0  0  0  0  0  0
   27.7397  -20.8734   -4.1286 C   0  0  1  0  0  0  0  0  0  0  0  0
   28.7461  -19.8273   -3.6490 C   0  0  0  0  0  0  0  0  0  0  0  0
   27.8432  -21.1496   -5.5640 C   0  0  0  0  0  0  0  0  0  0  0  0
   27.7548  -20.0965   -6.5797 C   0  0  2  0  0  0  0  0  0  0  0  0
   27.7963  -20.7464   -7.9136 N   0  0  0  0  0  0  0  0  0  0  0  0
   28.6400  -18.9499   -6.5633 C   0  0  0  0  0  0  0  0  0  0  0  0
   28.4718  -17.7478   -5.9316 O   0  0  0  0  0  0  0  0  0  0  0  0
   29.7486  -19.0321   -7.2297 O   0  0  0  0  0  0  0  0  0  0  0  0
  2  1  1  0
  3  2  1  0
  3  4  1  1
  5  3  1  0
  5  6  1  6
  7  5  1  0
  8  7  2  0
  9  7  1  0
 10  9  1  0
 11 12  1  0
 10 11  1  6
 12 13  2  0
 13 14  1  0
 15 14  2  0
 16 15  1  0
 17 12  1  0
 17 16  2  0
 18 10  1  0
 18 19  2  0
 21 20  1  1
 22 21  1  0
 24 23  1  1
 23 21  1  0
 24 25  1  0
 25 18  1  0
 26 24  1  0
 27 26  1  0
 28 26  2  0
M  END
$$$$
