IFL.pdb
     RDKit          3D

 28 28  0  0  1  0  0  0  0  0999 V2000
   25.4360  -21.8446   -2.4517 C   0  0  0  0  0  0  0  0  0  0  0  0
   24.7766  -22.2840   -3.7262 C   0  0  0  0  0  0  0  0  0  0  0  0
   24.5655  -21.1750   -4.7215 C   0  0  2  0  0  0  0  0  0  0  0  0
   23.7363  -20.0814   -4.0763 C   0  0  0  0  0  0  0  0  0  0  0  0
   23.9574  -21.6249   -6.0301 C   0  0  2  0  0  0  0  0  0  0  0  0
   24.4417  -23.0158   -6.2553 N   0  0  0  0  0  0  0  0  0  0  0  0
   24.3739  -20.8648   -7.2047 C   0  0  0  0  0  0  0  0  0  0  0  0
   23.8599  -19.7041   -7.4018 O   0  0  0  0  0  0  0  0  0  0  0  0
   25.3086  -21.2553   -8.1923 N   0  0  0  0  0  0  0  0  0  0  0  0
   25.7104  -20.4207   -9.2960 C   0  0  1  0  0  0  0  0  0  0  0  0
   27.2228  -20.4147   -9.3539 C   0  0  0  0  0  0  0  0  0  0  0  0
   27.7929  -19.8737   -8.0929 C   0  0  0  0  0  0  0  0  0  0  0  0
   27.4665  -18.6032   -7.6522 C   0  0  0  0  0  0  0  0  0  0  0  0
   28.0042  -18.1320   -6.4914 C   0  0  0  0  0  0  0  0  0  0  0  0
   28.8759  -18.9298   -5.7585 C   0  0  0  0  0  0  0  0  0  0  0  0
   29.1892  -20.1927   -6.2133 C   0  0  0  0  0  0  0  0  0  0  0  0
   28.6565  -20.6853   -7.3825 C   0  0  0  0  0  0  0  0  0  0  0  0
   25.2154  -20.9056  -10.6036 C   0  0  0  0  0  0  0  0  0  0  0  0
   25.1761  -22.1120  -10.9361 O   0  0  0  0  0  0  0  0  0  0  0  0
   20.3812  -21.8824  -11.0543 C   0  0  0  0  0  0  0  0  0  0  0  0
   21.7657  -21.8374  -11.6030 C   0  0  1  0  0  0  0  0  0  0  0  0
   21.6994  -22.4483  -13.0029 C   0  0  0  0  0  0  0  0  0  0  0  0
   22.4551  -20.5446  -11.5760 C   0  0  0  0  0  0  0  0  0  0  0  0
   23.6159  -20.2502  -12.4213 C   0  0  2  0  0  0  0  0  0  0  0  0
   24.7597  -19.9344  -11.5295 N   0  0  0  0  0  0  0  0  0  0  0  0
   23.5466  -19.2800  -13.4948 C   0  0  0  0  0  0  0  0  0  0  0  0
   23.9278  -17.9659  -13.4866 O   0  0  0  0  0  0  0  0  0  0  0  0
   23.0582  -19.6687  -14.6307 O   0  0  0  0  0  0  0  0  0  0  0  0
  2  1  1  0
  3  2  1  0
  3  4  1  1
  5  3  1  0
  5  6  1  6
  7  5  1  0
  8  7  2  0
  9  7  1  0
 10  9  1  0
 11 12  1  0
 10 11  1  6
 12 13  2  0
 13 14  1  0
 15 14  2  0
 16 15  1  0
 17 12  1  0
 17 16  2  0
 18 10  1  0
 18 19  2  0
 21 20  1  6
 22 21  1  0
 24 23  1  1
 23 21  1  0
 24 25  1  0
 25 18  1  0
 26 24  1  0
 27 26  1  0
 28 26  2  0
M  END
$$$$
