IFL.pdb
     RDKit          3D

 28 28  0  0  1  0  0  0  0  0999 V2000
   29.9666  -21.4969  -17.8699 C   0  0  0  0  0  0  0  0  0  0  0  0
   28.6315  -21.1070  -18.4336 C   0  0  0  0  0  0  0  0  0  0  0  0
   27.6811  -20.5324  -17.4180 C   0  0  2  0  0  0  0  0  0  0  0  0
   27.5606  -21.4947  -16.2521 C   0  0  0  0  0  0  0  0  0  0  0  0
   26.3230  -20.1724  -17.9751 C   0  0  2  0  0  0  0  0  0  0  0  0
   26.5536  -19.0664  -18.9464 N   0  0  0  0  0  0  0  0  0  0  0  0
   25.3679  -19.6524  -17.0013 C   0  0  0  0  0  0  0  0  0  0  0  0
   25.5940  -18.5058  -16.4680 O   0  0  0  0  0  0  0  0  0  0  0  0
   24.1773  -20.2709  -16.5524 N   0  0  0  0  0  0  0  0  0  0  0  0
   23.3283  -19.7308  -15.5210 C   0  0  1  0  0  0  0  0  0  0  0  0
   22.0067  -19.3497  -16.1524 C   0  0  0  0  0  0  0  0  0  0  0  0
   22.1517  -18.1142  -16.9651 C   0  0  0  0  0  0  0  0  0  0  0  0
   22.4902  -18.1798  -18.3052 C   0  0  0  0  0  0  0  0  0  0  0  0
   22.6164  -17.0303  -19.0272 C   0  0  0  0  0  0  0  0  0  0  0  0
   22.4045  -15.8007  -18.4133 C   0  0  0  0  0  0  0  0  0  0  0  0
   22.0680  -15.7553  -17.0774 C   0  0  0  0  0  0  0  0  0  0  0  0
   21.9361  -16.9048  -16.3327 C   0  0  0  0  0  0  0  0  0  0  0  0
   23.0431  -20.6962  -14.4362 C   0  0  0  0  0  0  0  0  0  0  0  0
   22.7540  -21.8996  -14.6252 O   0  0  0  0  0  0  0  0  0  0  0  0
   25.8535  -20.2436   -9.7647 C   0  0  0  0  0  0  0  0  0  0  0  0
   25.0987  -20.7006  -10.9653 C   0  0  1  0  0  0  0  0  0  0  0  0
   25.7338  -22.0208  -11.4024 C   0  0  0  0  0  0  0  0  0  0  0  0
   23.6400  -20.7792  -10.8496 C   0  0  0  0  0  0  0  0  0  0  0  0
   22.7753  -21.1295  -11.9802 C   0  0  2  0  0  0  0  0  0  0  0  0
   23.1040  -20.2172  -13.1040 N   0  0  0  0  0  0  0  0  0  0  0  0
   21.3377  -21.2311  -11.8332 C   0  0  0  0  0  0  0  0  0  0  0  0
   20.5964  -22.2876  -11.3787 O   0  0  0  0  0  0  0  0  0  0  0  0
   20.6211  -20.2059  -12.1730 O   0  0  0  0  0  0  0  0  0  0  0  0
  2  1  1  0
  3  2  1  0
  3  4  1  1
  5  3  1  0
  5  6  1  6
  7  5  1  0
  8  7  2  0
  9  7  1  0
 10  9  1  0
 11 12  1  0
 10 11  1  6
 12 13  2  0
 13 14  1  0
 15 14  2  0
 16 15  1  0
 17 12  1  0
 17 16  2  0
 18 10  1  0
 18 19  2  0
 21 20  1  1
 22 21  1  0
 24 23  1  1
 23 21  1  0
 24 25  1  0
 25 18  1  0
 26 24  1  0
 27 26  1  0
 28 26  2  0
M  END
$$$$
