IFL.pdb
     RDKit          3D

 28 28  0  0  1  0  0  0  0  0999 V2000
   33.3511  -22.5706  -10.0434 C   0  0  0  0  0  0  0  0  0  0  0  0
   32.5950  -22.3760  -11.3250 C   0  0  0  0  0  0  0  0  0  0  0  0
   31.2293  -21.7697  -11.1455 C   0  0  2  0  0  0  0  0  0  0  0  0
   30.4505  -22.5928  -10.1377 C   0  0  0  0  0  0  0  0  0  0  0  0
   30.4536  -21.5993  -12.4314 C   0  0  2  0  0  0  0  0  0  0  0  0
   31.2238  -20.6241  -13.2536 N   0  0  0  0  0  0  0  0  0  0  0  0
   29.1192  -21.0262  -12.2830 C   0  0  0  0  0  0  0  0  0  0  0  0
   29.0095  -19.7594  -12.0996 O   0  0  0  0  0  0  0  0  0  0  0  0
   27.8822  -21.7117  -12.3181 N   0  0  0  0  0  0  0  0  0  0  0  0
   26.6129  -21.0992  -12.0182 C   0  0  1  0  0  0  0  0  0  0  0  0
   25.5960  -21.6141  -13.0140 C   0  0  0  0  0  0  0  0  0  0  0  0
   24.3139  -20.8748  -12.8828 C   0  0  0  0  0  0  0  0  0  0  0  0
   23.2074  -21.4672  -12.3000 C   0  0  0  0  0  0  0  0  0  0  0  0
   22.0435  -20.7656  -12.1924 C   0  0  0  0  0  0  0  0  0  0  0  0
   21.9755  -19.4607  -12.6682 C   0  0  0  0  0  0  0  0  0  0  0  0
   23.0880  -18.8873  -13.2457 C   0  0  0  0  0  0  0  0  0  0  0  0
   24.2713  -19.5799  -13.3630 C   0  0  0  0  0  0  0  0  0  0  0  0
   26.1149  -21.4238  -10.6630 C   0  0  0  0  0  0  0  0  0  0  0  0
   25.8805  -22.5860  -10.2607 O   0  0  0  0  0  0  0  0  0  0  0  0
   27.5723  -18.1710   -6.4043 C   0  0  0  0  0  0  0  0  0  0  0  0
   27.1942  -19.3998   -7.1574 C   0  0  1  0  0  0  0  0  0  0  0  0
   27.7309  -20.5850   -6.3546 C   0  0  0  0  0  0  0  0  0  0  0  0
   25.7843  -19.5517   -7.5268 C   0  0  0  0  0  0  0  0  0  0  0  0
   25.3135  -20.6041   -8.4320 C   0  0  2  0  0  0  0  0  0  0  0  0
   25.8932  -20.3434   -9.7733 N   0  0  0  0  0  0  0  0  0  0  0  0
   23.9061  -20.9234   -8.5578 C   0  0  0  0  0  0  0  0  0  0  0  0
   23.0254  -20.5401   -9.5324 O   0  0  0  0  0  0  0  0  0  0  0  0
   23.3698  -21.6653   -7.6403 O   0  0  0  0  0  0  0  0  0  0  0  0
  2  1  1  0
  3  2  1  0
  3  4  1  1
  5  3  1  0
  5  6  1  6
  7  5  1  0
  8  7  2  0
  9  7  1  0
 10  9  1  0
 11 12  1  0
 10 11  1  6
 12 13  2  0
 13 14  1  0
 15 14  2  0
 16 15  1  0
 17 12  1  0
 17 16  2  0
 18 10  1  0
 18 19  2  0
 21 20  1  1
 22 21  1  0
 24 23  1  1
 23 21  1  0
 24 25  1  0
 25 18  1  0
 26 24  1  0
 27 26  1  0
 28 26  2  0
M  END
$$$$
