IFL.pdb
     RDKit          3D

 28 28  0  0  1  0  0  0  0  0999 V2000
   31.1713  -19.0114  -14.3329 C   0  0  0  0  0  0  0  0  0  0  0  0
   29.7118  -18.6642  -14.3729 C   0  0  0  0  0  0  0  0  0  0  0  0
   28.8374  -19.5974  -13.5795 C   0  0  2  0  0  0  0  0  0  0  0  0
   29.0844  -21.0206  -14.0415 C   0  0  0  0  0  0  0  0  0  0  0  0
   27.3661  -19.2541  -13.6228 C   0  0  2  0  0  0  0  0  0  0  0  0
   27.2493  -17.8650  -13.0969 N   0  0  0  0  0  0  0  0  0  0  0  0
   26.5096  -20.0739  -12.7711 C   0  0  0  0  0  0  0  0  0  0  0  0
   26.2975  -21.2962  -13.1046 O   0  0  0  0  0  0  0  0  0  0  0  0
   25.8587  -19.6819  -11.5777 N   0  0  0  0  0  0  0  0  0  0  0  0
   24.8135  -20.4437  -10.9425 C   0  0  1  0  0  0  0  0  0  0  0  0
   24.7308  -20.0111   -9.4945 C   0  0  0  0  0  0  0  0  0  0  0  0
   26.0487  -20.1656   -8.8258 C   0  0  0  0  0  0  0  0  0  0  0  0
   26.6037  -19.1271   -8.0989 C   0  0  0  0  0  0  0  0  0  0  0  0
   27.8144  -19.2964   -7.4955 C   0  0  0  0  0  0  0  0  0  0  0  0
   28.4831  -20.5099   -7.6140 C   0  0  0  0  0  0  0  0  0  0  0  0
   27.9145  -21.5328   -8.3422 C   0  0  0  0  0  0  0  0  0  0  0  0
   26.6935  -21.3804   -8.9582 C   0  0  0  0  0  0  0  0  0  0  0  0
   23.4820  -20.2261  -11.5504 C   0  0  0  0  0  0  0  0  0  0  0  0
   22.9753  -19.0980  -11.7460 O   0  0  0  0  0  0  0  0  0  0  0  0
   22.1551  -22.7845  -16.0322 C   0  0  0  0  0  0  0  0  0  0  0  0
   22.2254  -21.8033  -14.9131 C   0  0  1  0  0  0  0  0  0  0  0  0
   22.0177  -20.4210  -15.5323 C   0  0  0  0  0  0  0  0  0  0  0  0
   21.3615  -22.0458  -13.7545 C   0  0  0  0  0  0  0  0  0  0  0  0
   21.4034  -21.2125  -12.5493 C   0  0  2  0  0  0  0  0  0  0  0  0
   22.7432  -21.3737  -11.9311 N   0  0  0  0  0  0  0  0  0  0  0  0
   20.3775  -21.2997  -11.5303 C   0  0  0  0  0  0  0  0  0  0  0  0
   20.4907  -21.7311  -10.2366 O   0  0  0  0  0  0  0  0  0  0  0  0
   19.1755  -20.9346  -11.8493 O   0  0  0  0  0  0  0  0  0  0  0  0
  2  1  1  0
  3  2  1  0
  3  4  1  6
  5  3  1  0
  5  6  1  1
  7  5  1  0
  8  7  2  0
  9  7  1  0
 10  9  1  0
 11 12  1  0
 10 11  1  1
 12 13  2  0
 13 14  1  0
 15 14  2  0
 16 15  1  0
 17 12  1  0
 17 16  2  0
 18 10  1  0
 18 19  2  0
 21 20  1  6
 22 21  1  0
 24 23  1  6
 23 21  1  0
 24 25  1  0
 25 18  1  0
 26 24  1  0
 27 26  1  0
 28 26  2  0
M  END
$$$$
