MNL.pdb
     RDKit          3D

 25 24  0  0  1  0  0  0  0  0999 V2000
   27.7969  -19.5667   -3.8144 C   0  0  0  0  0  0  0  0  0  0  0  0
   29.1632  -19.4470   -4.9707 S   0  0  0  0  0  0  0  0  0  0  0  0
   28.5937  -18.7226   -6.5411 C   0  0  0  0  0  0  0  0  0  0  0  0
   27.7771  -19.7690   -7.2688 C   0  0  0  0  0  0  0  0  0  0  0  0
   27.3777  -19.2688   -8.6462 C   0  0  2  0  0  0  0  0  0  0  0  0
   26.8072  -17.9482   -8.4580 N   0  0  0  0  0  0  0  0  0  0  0  0
   26.3235  -20.2115   -9.1688 C   0  0  0  0  0  0  0  0  0  0  0  0
   26.2968  -21.3918   -8.7212 O   0  0  0  0  0  0  0  0  0  0  0  0
   24.1618  -21.5908   -6.9696 N   0  0  0  0  0  0  0  0  0  0  0  0
   24.3499  -21.8354   -8.3558 C   0  0  0  0  0  0  0  0  0  0  0  0
   25.2681  -22.6230   -8.6864 O   0  0  0  0  0  0  0  0  0  0  0  0
   23.5032  -21.1933   -9.3864 C   0  0  0  0  0  0  0  0  0  0  0  0
   24.3030  -20.6681  -10.5388 C   0  0  2  0  0  0  0  0  0  0  0  0
   25.3813  -19.8097  -10.1317 N   0  0  0  0  0  0  0  0  0  0  0  0
   23.4239  -19.9953  -11.5514 C   0  0  0  0  0  0  0  0  0  0  0  0
   22.8417  -18.9208  -11.2576 O   0  0  0  0  0  0  0  0  0  0  0  0
   24.0936  -17.7703  -15.4296 C   0  0  0  0  0  0  0  0  0  0  0  0
   24.0428  -19.2423  -15.4899 C   0  0  2  0  0  0  0  0  0  0  0  0
   24.5474  -19.6807  -16.8973 C   0  0  0  0  0  0  0  0  0  0  0  0
   22.8191  -19.9725  -15.1399 C   0  0  0  0  0  0  0  0  0  0  0  0
   22.2922  -19.8206  -13.7735 C   0  0  2  0  0  0  0  0  0  0  0  0
   23.2255  -20.5358  -12.8416 N   0  0  0  0  0  0  0  0  0  0  0  0
   20.9996  -20.4624  -13.5444 C   0  0  0  0  0  0  0  0  0  0  0  0
   20.8920  -21.6019  -13.0491 O   0  0  0  0  0  0  0  0  0  0  0  0
   19.8238  -19.7532  -13.9018 O   0  0  0  0  0  0  0  0  0  0  0  0
  2  1  1  0
  3  2  1  0
  4  3  1  0
  5  4  1  0
  5  6  1  1
  7  8  2  0
  7  5  1  0
  9 10  1  0
 10 12  1  0
 10 11  2  0
 13 12  1  1
 13 14  1  0
 14  7  1  0
 15 16  2  0
 15 13  1  0
 18 17  1  6
 18 20  1  0
 18 19  1  0
 21 20  1  6
 21 22  1  0
 22 15  1  0
 23 21  1  0
 24 23  2  0
 25 23  1  0
M  END
$$$$
