MNL.pdb
     RDKit          3D

 25 24  0  0  1  0  0  0  0  0999 V2000
   17.5642  -14.8571  -17.9488 C   0  0  0  0  0  0  0  0  0  0  0  0
   18.9485  -15.2735  -19.0112 S   0  0  0  0  0  0  0  0  0  0  0  0
   19.7759  -13.7568  -19.5859 C   0  0  0  0  0  0  0  0  0  0  0  0
   19.5142  -12.6678  -18.5676 C   0  0  0  0  0  0  0  0  0  0  0  0
   20.1608  -11.3647  -19.0042 C   0  0  2  0  0  0  0  0  0  0  0  0
   21.5941  -11.5894  -18.9929 N   0  0  0  0  0  0  0  0  0  0  0  0
   19.7980  -10.3256  -17.9737 C   0  0  0  0  0  0  0  0  0  0  0  0
   18.5891   -9.9760  -17.8721 O   0  0  0  0  0  0  0  0  0  0  0  0
   19.7703   -8.4086  -12.6191 N   0  0  0  0  0  0  0  0  0  0  0  0
   20.5889   -8.1274  -13.7449 C   0  0  0  0  0  0  0  0  0  0  0  0
   21.0440   -6.9641  -13.8549 O   0  0  0  0  0  0  0  0  0  0  0  0
   20.9038   -9.1569  -14.7609 C   0  0  0  0  0  0  0  0  0  0  0  0
   20.4112   -8.7843  -16.1255 C   0  0  2  0  0  0  0  0  0  0  0  0
   20.7646   -9.7451  -17.1341 N   0  0  0  0  0  0  0  0  0  0  0  0
   20.8570   -7.4039  -16.5085 C   0  0  0  0  0  0  0  0  0  0  0  0
   22.0052   -7.2291  -16.9890 O   0  0  0  0  0  0  0  0  0  0  0  0
   21.4895   -3.1333  -19.1551 C   0  0  0  0  0  0  0  0  0  0  0  0
   20.5551   -4.2286  -19.4718 C   0  0  2  0  0  0  0  0  0  0  0  0
   19.1952   -3.5916  -19.8871 C   0  0  0  0  0  0  0  0  0  0  0  0
   20.3319   -5.3299  -18.5283 C   0  0  0  0  0  0  0  0  0  0  0  0
   20.3656   -5.0226  -17.0889 C   0  0  2  0  0  0  0  0  0  0  0  0
   20.0187   -6.2785  -16.3450 N   0  0  0  0  0  0  0  0  0  0  0  0
   19.3597   -4.0586  -16.6482 C   0  0  0  0  0  0  0  0  0  0  0  0
   19.5081   -2.8265  -16.7723 O   0  0  0  0  0  0  0  0  0  0  0  0
   18.1682   -4.5525  -16.0571 O   0  0  0  0  0  0  0  0  0  0  0  0
  2  1  1  0
  3  2  1  0
  4  3  1  0
  5  4  1  0
  5  6  1  1
  7  8  2  0
  7  5  1  0
  9 10  1  0
 10 12  1  0
 10 11  2  0
 13 12  1  1
 13 14  1  0
 14  7  1  0
 15 16  2  0
 15 13  1  0
 18 17  1  1
 18 20  1  0
 18 19  1  0
 21 20  1  6
 21 22  1  0
 22 15  1  0
 23 21  1  0
 24 23  2  0
 25 23  1  0
M  END
$$$$
