MNL.pdb
     RDKit          3D

 25 24  0  0  1  0  0  0  0  0999 V2000
   17.8609  -13.9282  -13.7413 C   0  0  0  0  0  0  0  0  0  0  0  0
   16.8636  -14.0967  -15.2231 S   0  0  0  0  0  0  0  0  0  0  0  0
   16.7283  -12.4924  -16.0733 C   0  0  0  0  0  0  0  0  0  0  0  0
   17.4825  -11.4657  -15.2557 C   0  0  0  0  0  0  0  0  0  0  0  0
   17.3656  -10.0905  -15.8899 C   0  0  2  0  0  0  0  0  0  0  0  0
   17.9016  -10.2069  -17.2330 N   0  0  0  0  0  0  0  0  0  0  0  0
   18.2239   -9.1555  -15.0760 C   0  0  0  0  0  0  0  0  0  0  0  0
   17.9238   -8.9647  -13.8646 O   0  0  0  0  0  0  0  0  0  0  0  0
   21.0323  -10.2935  -14.1707 N   0  0  0  0  0  0  0  0  0  0  0  0
   22.0057   -9.3872  -14.6685 C   0  0  0  0  0  0  0  0  0  0  0  0
   23.1828   -9.8047  -14.7812 O   0  0  0  0  0  0  0  0  0  0  0  0
   21.6617   -7.9977  -15.0455 C   0  0  0  0  0  0  0  0  0  0  0  0
   20.2122   -7.6879  -14.8297 C   0  0  2  0  0  0  0  0  0  0  0  0
   19.3372   -8.4999  -15.6301 N   0  0  0  0  0  0  0  0  0  0  0  0
   19.9312   -6.2274  -15.0265 C   0  0  0  0  0  0  0  0  0  0  0  0
   20.6471   -5.3703  -14.4499 O   0  0  0  0  0  0  0  0  0  0  0  0
   20.0624   -3.0394  -18.4297 C   0  0  0  0  0  0  0  0  0  0  0  0
   18.8973   -3.9425  -18.4206 C   0  0  2  0  0  0  0  0  0  0  0  0
   18.0628   -3.6591  -19.7054 C   0  0  0  0  0  0  0  0  0  0  0  0
   18.0147   -4.0277  -17.2514 C   0  0  0  0  0  0  0  0  0  0  0  0
   18.6295   -4.2993  -15.9415 C   0  0  2  0  0  0  0  0  0  0  0  0
   18.8747   -5.7766  -15.8492 N   0  0  0  0  0  0  0  0  0  0  0  0
   17.7723   -4.0085  -14.7944 C   0  0  0  0  0  0  0  0  0  0  0  0
   16.9249   -4.8166  -14.3651 O   0  0  0  0  0  0  0  0  0  0  0  0
   17.9168   -2.7539  -14.1476 O   0  0  0  0  0  0  0  0  0  0  0  0
  2  1  1  0
  3  2  1  0
  4  3  1  0
  5  4  1  0
  5  6  1  6
  7  8  2  0
  7  5  1  0
  9 10  1  0
 10 12  1  0
 10 11  2  0
 13 12  1  6
 13 14  1  0
 14  7  1  0
 15 16  2  0
 15 13  1  0
 18 17  1  1
 18 20  1  0
 18 19  1  0
 21 20  1  6
 21 22  1  0
 22 15  1  0
 23 21  1  0
 24 23  2  0
 25 23  1  0
M  END
$$$$
