MNL.pdb
     RDKit          3D

 25 24  0  0  1  0  0  0  0  0999 V2000
   29.3510  -20.3780   -6.1646 C   0  0  0  0  0  0  0  0  0  0  0  0
   28.3351  -18.8997   -6.1304 S   0  0  0  0  0  0  0  0  0  0  0  0
   26.6020  -19.3217   -6.4956 C   0  0  0  0  0  0  0  0  0  0  0  0
   26.5620  -20.0021   -7.8472 C   0  0  0  0  0  0  0  0  0  0  0  0
   25.1274  -20.2846   -8.2583 C   0  0  2  0  0  0  0  0  0  0  0  0
   24.5828  -21.1909   -7.2649 N   0  0  0  0  0  0  0  0  0  0  0  0
   25.1803  -20.9691   -9.6006 C   0  0  0  0  0  0  0  0  0  0  0  0
   25.2960  -22.2260   -9.6306 O   0  0  0  0  0  0  0  0  0  0  0  0
   22.3064  -21.6854  -13.6394 N   0  0  0  0  0  0  0  0  0  0  0  0
   21.8466  -21.2606  -12.3647 C   0  0  0  0  0  0  0  0  0  0  0  0
   20.6293  -21.4157  -12.1061 O   0  0  0  0  0  0  0  0  0  0  0  0
   22.7560  -20.6552  -11.3658 C   0  0  0  0  0  0  0  0  0  0  0  0
   24.1753  -20.6018  -11.8418 C   0  0  2  0  0  0  0  0  0  0  0  0
   25.1045  -20.2471  -10.8045 N   0  0  0  0  0  0  0  0  0  0  0  0
   24.3179  -19.7001  -13.0324 C   0  0  0  0  0  0  0  0  0  0  0  0
   23.8457  -18.5359  -12.9944 O   0  0  0  0  0  0  0  0  0  0  0  0
   27.7578  -17.2026  -14.2282 C   0  0  0  0  0  0  0  0  0  0  0  0
   27.8121  -18.6484  -14.5110 C   0  0  2  0  0  0  0  0  0  0  0  0
   29.2725  -19.0001  -14.9241 C   0  0  0  0  0  0  0  0  0  0  0  0
   26.8591  -19.2755  -15.4338 C   0  0  0  0  0  0  0  0  0  0  0  0
   25.4223  -19.0719  -15.1852 C   0  0  2  0  0  0  0  0  0  0  0  0
   24.9738  -20.1209  -14.2107 N   0  0  0  0  0  0  0  0  0  0  0  0
   24.5669  -19.2805  -16.3514 C   0  0  0  0  0  0  0  0  0  0  0  0
   24.2416  -18.3553  -17.1218 O   0  0  0  0  0  0  0  0  0  0  0  0
   24.0921  -20.5920  -16.6113 O   0  0  0  0  0  0  0  0  0  0  0  0
  2  1  1  0
  3  2  1  0
  4  3  1  0
  5  4  1  0
  5  6  1  1
  7  8  2  0
  7  5  1  0
  9 10  1  0
 10 12  1  0
 10 11  2  0
 13 12  1  1
 13 14  1  0
 14  7  1  0
 15 16  2  0
 15 13  1  0
 18 17  1  6
 18 20  1  0
 18 19  1  0
 21 20  1  6
 21 22  1  0
 22 15  1  0
 23 21  1  0
 24 23  2  0
 25 23  1  0
M  END
$$$$
