MNL.pdb
     RDKit          3D

 25 24  0  0  1  0  0  0  0  0999 V2000
   17.0674  -15.1305  -14.6656 C   0  0  0  0  0  0  0  0  0  0  0  0
   15.5618  -14.4497  -15.3642 S   0  0  0  0  0  0  0  0  0  0  0  0
   15.8899  -13.7753  -17.0233 C   0  0  0  0  0  0  0  0  0  0  0  0
   17.0529  -12.8126  -16.9144 C   0  0  0  0  0  0  0  0  0  0  0  0
   17.3579  -12.1916  -18.2665 C   0  0  2  0  0  0  0  0  0  0  0  0
   18.0112  -13.2186  -19.0561 N   0  0  0  0  0  0  0  0  0  0  0  0
   18.3121  -11.0501  -18.0220 C   0  0  0  0  0  0  0  0  0  0  0  0
   19.5464  -11.3041  -17.9445 O   0  0  0  0  0  0  0  0  0  0  0  0
   18.3643   -7.9764  -20.3745 N   0  0  0  0  0  0  0  0  0  0  0  0
   17.9859   -7.0300  -19.3856 C   0  0  0  0  0  0  0  0  0  0  0  0
   17.4921   -5.9464  -19.7788 O   0  0  0  0  0  0  0  0  0  0  0  0
   18.1607   -7.2956  -17.9399 C   0  0  0  0  0  0  0  0  0  0  0  0
   18.7758   -8.6352  -17.6740 C   0  0  2  0  0  0  0  0  0  0  0  0
   17.8627   -9.7256  -17.8803 N   0  0  0  0  0  0  0  0  0  0  0  0
   19.3911   -8.6914  -16.3068 C   0  0  0  0  0  0  0  0  0  0  0  0
   18.6775   -8.9748  -15.3118 O   0  0  0  0  0  0  0  0  0  0  0  0
   21.9904  -11.5820  -14.1362 C   0  0  0  0  0  0  0  0  0  0  0  0
   22.6698  -10.6274  -15.0308 C   0  0  2  0  0  0  0  0  0  0  0  0
   24.1464  -11.0959  -15.1968 C   0  0  0  0  0  0  0  0  0  0  0  0
   22.6218   -9.1836  -14.7739 C   0  0  0  0  0  0  0  0  0  0  0  0
   21.2998   -8.5397  -14.6997 C   0  0  2  0  0  0  0  0  0  0  0  0
   20.7642   -8.4331  -16.0971 N   0  0  0  0  0  0  0  0  0  0  0  0
   21.3206   -7.1596  -14.2202 C   0  0  0  0  0  0  0  0  0  0  0  0
   21.2834   -6.1789  -14.9897 O   0  0  0  0  0  0  0  0  0  0  0  0
   21.3848   -6.9346  -12.8208 O   0  0  0  0  0  0  0  0  0  0  0  0
  2  1  1  0
  3  2  1  0
  4  3  1  0
  5  4  1  0
  5  6  1  6
  7  8  2  0
  7  5  1  0
  9 10  1  0
 10 12  1  0
 10 11  2  0
 13 12  1  1
 13 14  1  0
 14  7  1  0
 15 16  2  0
 15 13  1  0
 18 17  1  1
 18 20  1  0
 18 19  1  0
 21 20  1  6
 21 22  1  0
 22 15  1  0
 23 21  1  0
 24 23  2  0
 25 23  1  0
M  END
$$$$
