MNL.pdb
     RDKit          3D

 25 24  0  0  1  0  0  0  0  0999 V2000
   19.0914  -16.8560  -15.6900 C   0  0  0  0  0  0  0  0  0  0  0  0
   19.1522  -16.7085  -17.4769 S   0  0  0  0  0  0  0  0  0  0  0  0
   18.4807  -15.0977  -17.9960 C   0  0  0  0  0  0  0  0  0  0  0  0
   19.0288  -14.0404  -17.0617 C   0  0  0  0  0  0  0  0  0  0  0  0
   19.5412  -12.8477  -17.8502 C   0  0  2  0  0  0  0  0  0  0  0  0
   20.8301  -13.2331  -18.3935 N   0  0  0  0  0  0  0  0  0  0  0  0
   19.7171  -11.7147  -16.8711 C   0  0  0  0  0  0  0  0  0  0  0  0
   19.3081  -11.8740  -15.6872 O   0  0  0  0  0  0  0  0  0  0  0  0
   21.7379   -7.9278  -13.7378 N   0  0  0  0  0  0  0  0  0  0  0  0
   21.9477   -7.8440  -15.1398 C   0  0  0  0  0  0  0  0  0  0  0  0
   22.2235   -6.7182  -15.6185 O   0  0  0  0  0  0  0  0  0  0  0  0
   21.8487   -9.0308  -16.0189 C   0  0  0  0  0  0  0  0  0  0  0  0
   20.4297   -9.3988  -16.3264 C   0  0  2  0  0  0  0  0  0  0  0  0
   20.3191  -10.5000  -17.2432 N   0  0  0  0  0  0  0  0  0  0  0  0
   19.6496   -8.2104  -16.8061 C   0  0  0  0  0  0  0  0  0  0  0  0
   19.7874   -7.8088  -17.9891 O   0  0  0  0  0  0  0  0  0  0  0  0
   15.9820   -6.5742  -18.9198 C   0  0  0  0  0  0  0  0  0  0  0  0
   15.9445   -7.2047  -17.5879 C   0  0  2  0  0  0  0  0  0  0  0  0
   14.4577   -7.5307  -17.2551 C   0  0  0  0  0  0  0  0  0  0  0  0
   16.5961   -6.5751  -16.4337 C   0  0  0  0  0  0  0  0  0  0  0  0
   18.0433   -6.3173  -16.5144 C   0  0  2  0  0  0  0  0  0  0  0  0
   18.7531   -7.5181  -15.9618 N   0  0  0  0  0  0  0  0  0  0  0  0
   18.5125   -5.2121  -15.6817 C   0  0  0  0  0  0  0  0  0  0  0  0
   18.6770   -5.3197  -14.4501 O   0  0  0  0  0  0  0  0  0  0  0  0
   18.7908   -3.9695  -16.3074 O   0  0  0  0  0  0  0  0  0  0  0  0
  2  1  1  0
  3  2  1  0
  4  3  1  0
  5  4  1  0
  5  6  1  1
  7  8  2  0
  7  5  1  0
  9 10  1  0
 10 12  1  0
 10 11  2  0
 13 12  1  6
 13 14  1  0
 14  7  1  0
 15 16  2  0
 15 13  1  0
 18 17  1  6
 18 20  1  0
 18 19  1  0
 21 20  1  1
 21 22  1  0
 22 15  1  0
 23 21  1  0
 24 23  2  0
 25 23  1  0
M  END
$$$$
