MNL.pdb
     RDKit          3D

 25 24  0  0  1  0  0  0  0  0999 V2000
   10.7753  -11.7318  -14.6571 C   0  0  0  0  0  0  0  0  0  0  0  0
   11.5272  -13.3528  -14.4969 S   0  0  0  0  0  0  0  0  0  0  0  0
   13.2546  -13.3018  -15.0702 C   0  0  0  0  0  0  0  0  0  0  0  0
   13.9976  -12.2902  -14.2240 C   0  0  0  0  0  0  0  0  0  0  0  0
   15.4121  -12.0991  -14.7430 C   0  0  2  0  0  0  0  0  0  0  0  0
   16.1278  -13.3282  -14.4570 N   0  0  0  0  0  0  0  0  0  0  0  0
   16.0182  -10.9608  -13.9616 C   0  0  0  0  0  0  0  0  0  0  0  0
   16.4529  -11.1936  -12.7994 O   0  0  0  0  0  0  0  0  0  0  0  0
   19.5212   -8.1117  -13.3441 N   0  0  0  0  0  0  0  0  0  0  0  0
   18.8712   -7.3990  -14.3864 C   0  0  0  0  0  0  0  0  0  0  0  0
   19.5499   -6.5615  -15.0271 O   0  0  0  0  0  0  0  0  0  0  0  0
   17.4461   -7.6235  -14.7183 C   0  0  0  0  0  0  0  0  0  0  0  0
   16.7916   -8.6066  -13.7970 C   0  0  2  0  0  0  0  0  0  0  0  0
   16.1084   -9.6623  -14.4927 N   0  0  0  0  0  0  0  0  0  0  0  0
   15.8817   -7.9188  -12.8223 C   0  0  0  0  0  0  0  0  0  0  0  0
   14.7239   -7.5835  -13.1782 O   0  0  0  0  0  0  0  0  0  0  0  0
   15.4426   -6.6190   -6.7732 C   0  0  0  0  0  0  0  0  0  0  0  0
   14.8719   -6.6891   -8.1306 C   0  0  2  0  0  0  0  0  0  0  0  0
   13.4225   -7.2482   -8.0114 C   0  0  0  0  0  0  0  0  0  0  0  0
   15.5878   -7.3644   -9.2189 C   0  0  0  0  0  0  0  0  0  0  0  0
   15.3176   -6.9265  -10.5984 C   0  0  2  0  0  0  0  0  0  0  0  0
   16.2878   -7.6313  -11.5000 N   0  0  0  0  0  0  0  0  0  0  0  0
   15.5666   -5.5082  -10.8470 C   0  0  0  0  0  0  0  0  0  0  0  0
   16.7050   -5.0552  -11.0797 O   0  0  0  0  0  0  0  0  0  0  0  0
   14.4628   -4.6170  -10.8218 O   0  0  0  0  0  0  0  0  0  0  0  0
  2  1  1  0
  3  2  1  0
  4  3  1  0
  5  4  1  0
  5  6  1  1
  7  8  2  0
  7  5  1  0
  9 10  1  0
 10 12  1  0
 10 11  2  0
 13 12  1  6
 13 14  1  0
 14  7  1  0
 15 16  2  0
 15 13  1  0
 18 17  1  1
 18 20  1  0
 18 19  1  0
 21 20  1  1
 21 22  1  0
 22 15  1  0
 23 21  1  0
 24 23  2  0
 25 23  1  0
M  END
$$$$
