MNL.pdb
     RDKit          3D

 25 24  0  0  1  0  0  0  0  0999 V2000
   23.0583  -33.5724   -9.5524 C   0  0  0  0  0  0  0  0  0  0  0  0
   24.6805  -33.4695  -10.3115 S   0  0  0  0  0  0  0  0  0  0  0  0
   25.9252  -32.9983   -9.0689 C   0  0  0  0  0  0  0  0  0  0  0  0
   25.1943  -32.4705   -7.8529 C   0  0  0  0  0  0  0  0  0  0  0  0
   26.1831  -32.0360   -6.7851 C   0  0  2  0  0  0  0  0  0  0  0  0
   27.2021  -33.0667   -6.7200 N   0  0  0  0  0  0  0  0  0  0  0  0
   25.4277  -31.9806   -5.4814 C   0  0  0  0  0  0  0  0  0  0  0  0
   24.3758  -31.2847   -5.4249 O   0  0  0  0  0  0  0  0  0  0  0  0
   21.9899  -32.2534   -1.7107 N   0  0  0  0  0  0  0  0  0  0  0  0
   22.8947  -33.2713   -2.1130 C   0  0  0  0  0  0  0  0  0  0  0  0
   23.0175  -34.2681   -1.3619 O   0  0  0  0  0  0  0  0  0  0  0  0
   23.6724  -33.1763   -3.3689 C   0  0  0  0  0  0  0  0  0  0  0  0
   25.0814  -32.7238   -3.1372 C   0  0  2  0  0  0  0  0  0  0  0  0
   25.8640  -32.6784   -4.3416 N   0  0  0  0  0  0  0  0  0  0  0  0
   25.7537  -33.5516   -2.0818 C   0  0  0  0  0  0  0  0  0  0  0  0
   26.1283  -34.7210   -2.3496 O   0  0  0  0  0  0  0  0  0  0  0  0
   27.7433  -34.7235    3.0535 C   0  0  0  0  0  0  0  0  0  0  0  0
   28.3478  -33.8092    2.0678 C   0  0  2  0  0  0  0  0  0  0  0  0
   29.2102  -32.7704    2.8453 C   0  0  0  0  0  0  0  0  0  0  0  0
   27.5247  -33.1316    1.0596 C   0  0  0  0  0  0  0  0  0  0  0  0
   26.6445  -33.9591    0.2181 C   0  0  2  0  0  0  0  0  0  0  0  0
   25.9830  -33.0543   -0.7794 N   0  0  0  0  0  0  0  0  0  0  0  0
   25.5295  -34.5801    0.9296 C   0  0  0  0  0  0  0  0  0  0  0  0
   24.3968  -34.0615    0.9899 O   0  0  0  0  0  0  0  0  0  0  0  0
   25.7524  -35.8241    1.5745 O   0  0  0  0  0  0  0  0  0  0  0  0
  2  1  1  0
  3  2  1  0
  4  3  1  0
  5  4  1  0
  5  6  1  1
  7  8  2  0
  7  5  1  0
  9 10  1  0
 10 12  1  0
 10 11  2  0
 13 12  1  6
 13 14  1  0
 14  7  1  0
 15 16  2  0
 15 13  1  0
 18 17  1  1
 18 20  1  0
 18 19  1  0
 21 20  1  1
 21 22  1  0
 22 15  1  0
 23 21  1  0
 24 23  2  0
 25 23  1  0
M  END
$$$$
