MNL.pdb
     RDKit          3D

 25 24  0  0  1  0  0  0  0  0999 V2000
   28.9137  -18.1361   -4.8583 C   0  0  0  0  0  0  0  0  0  0  0  0
   28.4809  -19.8731   -4.7399 S   0  0  0  0  0  0  0  0  0  0  0  0
   26.8731  -20.1743   -5.5395 C   0  0  0  0  0  0  0  0  0  0  0  0
   26.9792  -19.7305   -6.9828 C   0  0  0  0  0  0  0  0  0  0  0  0
   25.6586  -19.9418   -7.7027 C   0  0  2  0  0  0  0  0  0  0  0  0
   25.2493  -21.3058   -7.4253 N   0  0  0  0  0  0  0  0  0  0  0  0
   25.9294  -19.7791   -9.1770 C   0  0  0  0  0  0  0  0  0  0  0  0
   26.4216  -18.6889   -9.5813 O   0  0  0  0  0  0  0  0  0  0  0  0
   29.0303  -20.5130  -12.4960 N   0  0  0  0  0  0  0  0  0  0  0  0
   28.2265  -21.4014  -11.7335 C   0  0  0  0  0  0  0  0  0  0  0  0
   28.7592  -21.9641  -10.7475 O   0  0  0  0  0  0  0  0  0  0  0  0
   26.8106  -21.6655  -12.0752 C   0  0  0  0  0  0  0  0  0  0  0  0
   25.8829  -20.6354  -11.5078 C   0  0  2  0  0  0  0  0  0  0  0  0
   25.6491  -20.8021  -10.0996 N   0  0  0  0  0  0  0  0  0  0  0  0
   24.5926  -20.5833  -12.2715 C   0  0  0  0  0  0  0  0  0  0  0  0
   23.5534  -21.0891  -11.7776 O   0  0  0  0  0  0  0  0  0  0  0  0
   22.1268  -17.8336  -17.3198 C   0  0  0  0  0  0  0  0  0  0  0  0
   22.0467  -18.5587  -16.0388 C   0  0  2  0  0  0  0  0  0  0  0  0
   20.9935  -17.8368  -15.1460 C   0  0  0  0  0  0  0  0  0  0  0  0
   23.2543  -18.8549  -15.2597 C   0  0  0  0  0  0  0  0  0  0  0  0
   23.1494  -19.8436  -14.1739 C   0  0  2  0  0  0  0  0  0  0  0  0
   24.5048  -19.9768  -13.5444 N   0  0  0  0  0  0  0  0  0  0  0  0
   22.8264  -21.1991  -14.6136 C   0  0  0  0  0  0  0  0  0  0  0  0
   23.6850  -21.9829  -15.0653 O   0  0  0  0  0  0  0  0  0  0  0  0
   21.4792  -21.6340  -14.5187 O   0  0  0  0  0  0  0  0  0  0  0  0
  2  1  1  0
  3  2  1  0
  4  3  1  0
  5  4  1  0
  5  6  1  6
  7  8  2  0
  7  5  1  0
  9 10  1  0
 10 12  1  0
 10 11  2  0
 13 12  1  6
 13 14  1  0
 14  7  1  0
 15 16  2  0
 15 13  1  0
 18 17  1  6
 18 20  1  0
 18 19  1  0
 21 20  1  6
 21 22  1  0
 22 15  1  0
 23 21  1  0
 24 23  2  0
 25 23  1  0
M  END
$$$$
