MNL.pdb
     RDKit          3D

 25 24  0  0  1  0  0  0  0  0999 V2000
   27.7039  -15.2683  -17.8046 C   0  0  0  0  0  0  0  0  0  0  0  0
   28.8682  -16.5253  -18.3365 S   0  0  0  0  0  0  0  0  0  0  0  0
   28.2254  -18.1823  -17.9414 C   0  0  0  0  0  0  0  0  0  0  0  0
   27.2546  -18.0437  -16.7883 C   0  0  0  0  0  0  0  0  0  0  0  0
   27.8751  -18.5671  -15.5046 C   0  0  2  0  0  0  0  0  0  0  0  0
   28.6330  -19.7511  -15.8637 N   0  0  0  0  0  0  0  0  0  0  0  0
   26.7390  -18.9456  -14.5884 C   0  0  0  0  0  0  0  0  0  0  0  0
   25.8908  -18.0610  -14.2851 O   0  0  0  0  0  0  0  0  0  0  0  0
   22.9910  -20.9232  -12.0126 N   0  0  0  0  0  0  0  0  0  0  0  0
   23.3888  -21.8474  -13.0149 C   0  0  0  0  0  0  0  0  0  0  0  0
   22.6093  -22.7956  -13.2716 O   0  0  0  0  0  0  0  0  0  0  0  0
   24.6722  -21.7121  -13.7400 C   0  0  0  0  0  0  0  0  0  0  0  0
   25.5225  -20.6047  -13.1973 C   0  0  2  0  0  0  0  0  0  0  0  0
   26.6056  -20.2460  -14.0711 N   0  0  0  0  0  0  0  0  0  0  0  0
   26.0184  -20.9236  -11.8177 C   0  0  0  0  0  0  0  0  0  0  0  0
   27.1759  -21.3880  -11.6619 O   0  0  0  0  0  0  0  0  0  0  0  0
   27.9189  -19.0091   -7.0565 C   0  0  0  0  0  0  0  0  0  0  0  0
   27.6108  -20.2492   -7.7915 C   0  0  2  0  0  0  0  0  0  0  0  0
   28.9120  -21.1040   -7.8532 C   0  0  0  0  0  0  0  0  0  0  0  0
   26.9683  -20.2079   -9.1100 C   0  0  0  0  0  0  0  0  0  0  0  0
   25.7939  -21.0676   -9.3322 C   0  0  2  0  0  0  0  0  0  0  0  0
   25.2176  -20.7168  -10.6724 N   0  0  0  0  0  0  0  0  0  0  0  0
   24.6905  -20.8440   -8.4008 C   0  0  0  0  0  0  0  0  0  0  0  0
   23.7277  -20.0965   -8.6646 O   0  0  0  0  0  0  0  0  0  0  0  0
   24.7227  -21.5089   -7.1478 O   0  0  0  0  0  0  0  0  0  0  0  0
  2  1  1  0
  3  2  1  0
  4  3  1  0
  5  4  1  0
  5  6  1  6
  7  8  2  0
  7  5  1  0
  9 10  1  0
 10 12  1  0
 10 11  2  0
 13 12  1  6
 13 14  1  0
 14  7  1  0
 15 16  2  0
 15 13  1  0
 18 17  1  6
 18 20  1  0
 18 19  1  0
 21 20  1  1
 21 22  1  0
 22 15  1  0
 23 21  1  0
 24 23  2  0
 25 23  1  0
M  END
$$$$
