MNL.pdb
     RDKit          3D

 25 24  0  0  1  0  0  0  0  0999 V2000
   27.1577  -17.5372  -19.3428 C   0  0  0  0  0  0  0  0  0  0  0  0
   25.7522  -18.4888  -19.9237 S   0  0  0  0  0  0  0  0  0  0  0  0
   24.7491  -19.0507  -18.5119 C   0  0  0  0  0  0  0  0  0  0  0  0
   25.6624  -19.7831  -17.5524 C   0  0  0  0  0  0  0  0  0  0  0  0
   25.1925  -19.5928  -16.1207 C   0  0  2  0  0  0  0  0  0  0  0  0
   25.6873  -18.2985  -15.6908 N   0  0  0  0  0  0  0  0  0  0  0  0
   25.8315  -20.6833  -15.2985 C   0  0  0  0  0  0  0  0  0  0  0  0
   25.4729  -21.8770  -15.5001 O   0  0  0  0  0  0  0  0  0  0  0  0
   30.0539  -19.9665  -11.5196 N   0  0  0  0  0  0  0  0  0  0  0  0
   29.2203  -20.0095  -12.6686 C   0  0  0  0  0  0  0  0  0  0  0  0
   28.7903  -18.9190  -13.1141 O   0  0  0  0  0  0  0  0  0  0  0  0
   28.8620  -21.2850  -13.3289 C   0  0  0  0  0  0  0  0  0  0  0  0
   27.3834  -21.4389  -13.5129 C   0  0  2  0  0  0  0  0  0  0  0  0
   26.8057  -20.4031  -14.3245 N   0  0  0  0  0  0  0  0  0  0  0  0
   26.6784  -21.5539  -12.1936 C   0  0  0  0  0  0  0  0  0  0  0  0
   27.0084  -22.4584  -11.3857 O   0  0  0  0  0  0  0  0  0  0  0  0
   26.4016  -21.6535   -7.7855 C   0  0  0  0  0  0  0  0  0  0  0  0
   26.5914  -20.5005   -8.6841 C   0  0  2  0  0  0  0  0  0  0  0  0
   27.1984  -19.3359   -7.8458 C   0  0  0  0  0  0  0  0  0  0  0  0
   25.4931  -20.0039   -9.5209 C   0  0  0  0  0  0  0  0  0  0  0  0
   24.9266  -20.9160  -10.5282 C   0  0  2  0  0  0  0  0  0  0  0  0
   25.6421  -20.6678  -11.8234 N   0  0  0  0  0  0  0  0  0  0  0  0
   23.5210  -20.6749  -10.8463 C   0  0  0  0  0  0  0  0  0  0  0  0
   22.6099  -20.7938  -10.0030 O   0  0  0  0  0  0  0  0  0  0  0  0
   23.1875  -20.2891  -12.1703 O   0  0  0  0  0  0  0  0  0  0  0  0
  2  1  1  0
  3  2  1  0
  4  3  1  0
  5  4  1  0
  5  6  1  1
  7  8  2  0
  7  5  1  0
  9 10  1  0
 10 12  1  0
 10 11  2  0
 13 12  1  1
 13 14  1  0
 14  7  1  0
 15 16  2  0
 15 13  1  0
 18 17  1  1
 18 20  1  0
 18 19  1  0
 21 20  1  1
 21 22  1  0
 22 15  1  0
 23 21  1  0
 24 23  2  0
 25 23  1  0
M  END
$$$$
