MNL.pdb
     RDKit          3D

 25 24  0  0  1  0  0  0  0  0999 V2000
   27.4765  -19.9061   -7.0330 C   0  0  0  0  0  0  0  0  0  0  0  0
   26.9839  -19.8132   -8.7556 S   0  0  0  0  0  0  0  0  0  0  0  0
   25.2578  -20.3610   -8.9442 C   0  0  0  0  0  0  0  0  0  0  0  0
   24.8633  -20.1707  -10.3932 C   0  0  0  0  0  0  0  0  0  0  0  0
   25.3898  -21.3146  -11.2425 C   0  0  2  0  0  0  0  0  0  0  0  0
   26.8202  -21.1098  -11.3722 N   0  0  0  0  0  0  0  0  0  0  0  0
   24.7320  -21.1988  -12.5942 C   0  0  0  0  0  0  0  0  0  0  0  0
   25.1051  -20.2729  -13.3673 O   0  0  0  0  0  0  0  0  0  0  0  0
   25.1206  -24.9256  -14.9582 N   0  0  0  0  0  0  0  0  0  0  0  0
   24.6393  -23.6414  -15.3271 C   0  0  0  0  0  0  0  0  0  0  0  0
   25.4548  -22.8445  -15.8492 O   0  0  0  0  0  0  0  0  0  0  0  0
   23.2307  -23.2411  -15.1107 C   0  0  0  0  0  0  0  0  0  0  0  0
   23.1099  -21.9861  -14.3020 C   0  0  2  0  0  0  0  0  0  0  0  0
   23.7249  -22.0885  -13.0072 N   0  0  0  0  0  0  0  0  0  0  0  0
   21.6806  -21.5432  -14.1925 C   0  0  0  0  0  0  0  0  0  0  0  0
   20.9188  -22.0921  -13.3570 O   0  0  0  0  0  0  0  0  0  0  0  0
   18.9741  -18.9293  -11.8575 C   0  0  0  0  0  0  0  0  0  0  0  0
   20.0160  -18.3651  -12.7346 C   0  0  2  0  0  0  0  0  0  0  0  0
   20.1282  -16.8423  -12.4249 C   0  0  0  0  0  0  0  0  0  0  0  0
   19.9863  -18.5868  -14.1847 C   0  0  0  0  0  0  0  0  0  0  0  0
   19.8012  -19.9650  -14.6682 C   0  0  2  0  0  0  0  0  0  0  0  0
   21.1548  -20.5160  -15.0076 N   0  0  0  0  0  0  0  0  0  0  0  0
   19.0484  -20.0770  -15.9156 C   0  0  0  0  0  0  0  0  0  0  0  0
   17.8026  -20.0356  -15.9561 O   0  0  0  0  0  0  0  0  0  0  0  0
   19.7717  -20.2379  -17.1256 O   0  0  0  0  0  0  0  0  0  0  0  0
  2  1  1  0
  3  2  1  0
  4  3  1  0
  5  4  1  0
  5  6  1  6
  7  8  2  0
  7  5  1  0
  9 10  1  0
 10 12  1  0
 10 11  2  0
 13 12  1  1
 13 14  1  0
 14  7  1  0
 15 16  2  0
 15 13  1  0
 18 17  1  1
 18 20  1  0
 18 19  1  0
 21 20  1  6
 21 22  1  0
 22 15  1  0
 23 21  1  0
 24 23  2  0
 25 23  1  0
M  END
$$$$
