CFC.pdb
     RDKit          3D

 24 24  0  0  1  0  0  0  0  0999 V2000
   14.8925  -23.2229    1.2700 N   0  0  0  0  0  0  0  0  0  0  0  0
   14.7043  -21.9725    1.9385 C   0  0  1  0  0  0  0  0  0  0  0  0
   13.9893  -22.2022    3.2378 C   0  0  0  0  0  0  0  0  0  0  0  0
   12.2394  -22.5070    2.8673 S   0  0  0  0  0  0  0  0  0  0  0  0
   16.0193  -21.3053    2.1237 C   0  0  0  0  0  0  0  0  0  0  0  0
   17.0684  -21.9894    2.2466 O   0  0  0  0  0  0  0  0  0  0  0  0
   16.1673  -19.8916    2.1719 N   0  0  0  0  0  0  0  0  0  0  0  0
   17.4240  -19.2203    2.3968 C   0  0  1  0  0  0  0  0  0  0  0  0
   17.6536  -18.0884    1.4315 C   0  0  0  0  0  0  0  0  0  0  0  0
   18.9383  -17.4101    1.5949 C   0  0  0  0  0  0  0  0  0  0  0  0
   19.0292  -16.1635    2.1768 C   0  0  0  0  0  0  0  0  0  0  0  0
   20.2559  -15.5190    2.3307 C   0  0  0  0  0  0  0  0  0  0  0  0
   21.4079  -16.1245    1.8990 C   0  0  0  0  0  0  0  0  0  0  0  0
   21.3440  -17.3636    1.3173 C   0  0  0  0  0  0  0  0  0  0  0  0
   20.1083  -17.9985    1.1691 C   0  0  0  0  0  0  0  0  0  0  0  0
   17.6308  -18.8632    3.8111 C   0  0  0  0  0  0  0  0  0  0  0  0
   16.7602  -18.1545    4.4115 O   0  0  0  0  0  0  0  0  0  0  0  0
   18.7571  -19.2635    4.5675 N   0  0  0  0  0  0  0  0  0  0  0  0
   18.9639  -18.8111    5.9499 C   0  0  1  0  0  0  0  0  0  0  0  0
   19.0464  -20.0953    6.7857 C   0  0  0  0  0  0  0  0  0  0  0  0
   17.4952  -20.9961    6.7657 S   0  0  0  0  0  0  0  0  0  0  0  0
   20.2471  -18.1209    6.1214 C   0  0  0  0  0  0  0  0  0  0  0  0
   20.4091  -17.3538    7.2683 O   0  0  0  0  0  0  0  0  0  0  0  0
   21.1664  -18.2058    5.2853 O   0  0  0  0  0  0  0  0  0  0  0  0
  2  5  1  0
  2  1  1  1
  3  2  1  0
  4  3  1  0
  5  7  1  0
  6  5  2  0
  7  8  1  0
  8  9  1  6
  9 10  1  0
 10 15  2  0
 11 10  1  0
 11 12  2  0
 12 13  1  0
 13 14  2  0
 15 14  1  0
 16 17  2  0
 16  8  1  0
 18 16  1  0
 19 18  1  0
 19 22  1  0
 19 20  1  1
 21 20  1  0
 22 23  1  0
 24 22  2  0
M  END
$$$$
