CFC.pdb
     RDKit          3D

 24 24  0  0  1  0  0  0  0  0999 V2000
   26.2214  -12.7467  -19.6996 N   0  0  0  0  0  0  0  0  0  0  0  0
   26.7736  -11.6857  -20.4839 C   0  0  1  0  0  0  0  0  0  0  0  0
   26.3004  -11.8133  -21.9024 C   0  0  0  0  0  0  0  0  0  0  0  0
   27.1253  -10.5302  -22.8850 S   0  0  0  0  0  0  0  0  0  0  0  0
   26.4084  -10.3785  -19.8784 C   0  0  0  0  0  0  0  0  0  0  0  0
   25.2481  -10.1864  -19.4307 O   0  0  0  0  0  0  0  0  0  0  0  0
   27.3237   -9.2952  -19.7715 N   0  0  0  0  0  0  0  0  0  0  0  0
   27.0009   -8.0241  -19.1708 C   0  0  1  0  0  0  0  0  0  0  0  0
   27.7422   -7.7911  -17.8817 C   0  0  0  0  0  0  0  0  0  0  0  0
   27.3768   -8.7084  -16.8036 C   0  0  0  0  0  0  0  0  0  0  0  0
   26.2076   -8.5558  -16.0891 C   0  0  0  0  0  0  0  0  0  0  0  0
   25.8623   -9.4321  -15.0611 C   0  0  0  0  0  0  0  0  0  0  0  0
   26.6929  -10.4748  -14.7405 C   0  0  0  0  0  0  0  0  0  0  0  0
   27.8608  -10.6480  -15.4359 C   0  0  0  0  0  0  0  0  0  0  0  0
   28.1951   -9.7626  -16.4638 C   0  0  0  0  0  0  0  0  0  0  0  0
   27.0828   -6.9074  -20.1284 C   0  0  0  0  0  0  0  0  0  0  0  0
   28.1552   -6.7280  -20.7905 O   0  0  0  0  0  0  0  0  0  0  0  0
   26.0262   -5.9985  -20.3698 N   0  0  0  0  0  0  0  0  0  0  0  0
   26.1445   -4.9154  -21.3553 C   0  0  1  0  0  0  0  0  0  0  0  0
   24.8736   -5.0083  -22.2101 C   0  0  0  0  0  0  0  0  0  0  0  0
   25.0418   -6.2319  -23.5112 S   0  0  0  0  0  0  0  0  0  0  0  0
   26.1265   -3.5897  -20.7273 C   0  0  0  0  0  0  0  0  0  0  0  0
   26.4965   -2.5068  -21.5150 O   0  0  0  0  0  0  0  0  0  0  0  0
   25.7962   -3.4200  -19.5383 O   0  0  0  0  0  0  0  0  0  0  0  0
  2  5  1  0
  2  1  1  1
  3  2  1  0
  4  3  1  0
  5  7  1  0
  6  5  2  0
  7  8  1  0
  8  9  1  1
  9 10  1  0
 10 15  2  0
 11 10  1  0
 11 12  2  0
 12 13  1  0
 13 14  2  0
 15 14  1  0
 16 17  2  0
 16  8  1  0
 18 16  1  0
 19 18  1  0
 19 22  1  0
 19 20  1  6
 21 20  1  0
 22 23  1  0
 24 22  2  0
M  END
$$$$
