CFC.pdb
     RDKit          3D

 24 24  0  0  1  0  0  0  0  0999 V2000
   28.3598  -20.1862  -16.7250 N   0  0  0  0  0  0  0  0  0  0  0  0
   27.8138  -19.3135  -15.7319 C   0  0  1  0  0  0  0  0  0  0  0  0
   27.1030  -18.1746  -16.4027 C   0  0  0  0  0  0  0  0  0  0  0  0
   28.3448  -16.9363  -16.8683 S   0  0  0  0  0  0  0  0  0  0  0  0
   26.9226  -20.0860  -14.8276 C   0  0  0  0  0  0  0  0  0  0  0  0
   26.3997  -21.1626  -15.2165 O   0  0  0  0  0  0  0  0  0  0  0  0
   26.6152  -19.6662  -13.5039 N   0  0  0  0  0  0  0  0  0  0  0  0
   25.7762  -20.4108  -12.5971 C   0  0  1  0  0  0  0  0  0  0  0  0
   26.2563  -20.3331  -11.1726 C   0  0  0  0  0  0  0  0  0  0  0  0
   27.6423  -20.7569  -10.9812 C   0  0  0  0  0  0  0  0  0  0  0  0
   27.9823  -21.7240  -10.0593 C   0  0  0  0  0  0  0  0  0  0  0  0
   29.3052  -22.1256   -9.8788 C   0  0  0  0  0  0  0  0  0  0  0  0
   30.3031  -21.5561  -10.6270 C   0  0  0  0  0  0  0  0  0  0  0  0
   29.9910  -20.5926  -11.5500 C   0  0  0  0  0  0  0  0  0  0  0  0
   28.6613  -20.1992  -11.7209 C   0  0  0  0  0  0  0  0  0  0  0  0
   24.3448  -20.1095  -12.7723 C   0  0  0  0  0  0  0  0  0  0  0  0
   23.8926  -18.9794  -12.3992 O   0  0  0  0  0  0  0  0  0  0  0  0
   23.4146  -21.0107  -13.3412 N   0  0  0  0  0  0  0  0  0  0  0  0
   21.9810  -20.6993  -13.4195 C   0  0  1  0  0  0  0  0  0  0  0  0
   21.6107  -20.8767  -14.8980 C   0  0  0  0  0  0  0  0  0  0  0  0
   22.5403  -19.7594  -15.9494 S   0  0  0  0  0  0  0  0  0  0  0  0
   21.1633  -21.6585  -12.6687 C   0  0  0  0  0  0  0  0  0  0  0  0
   19.9490  -21.2057  -12.1684 O   0  0  0  0  0  0  0  0  0  0  0  0
   21.5245  -22.8350  -12.4764 O   0  0  0  0  0  0  0  0  0  0  0  0
  2  5  1  0
  2  1  1  6
  3  2  1  0
  4  3  1  0
  5  7  1  0
  6  5  2  0
  7  8  1  0
  8  9  1  1
  9 10  1  0
 10 15  2  0
 11 10  1  0
 11 12  2  0
 12 13  1  0
 13 14  2  0
 15 14  1  0
 16 17  2  0
 16  8  1  0
 18 16  1  0
 19 18  1  0
 19 22  1  0
 19 20  1  6
 21 20  1  0
 22 23  1  0
 24 22  2  0
M  END
$$$$
