CFC.pdb
     RDKit          3D

 24 24  0  0  1  0  0  0  0  0999 V2000
   29.1540  -20.9128  -14.0868 N   0  0  0  0  0  0  0  0  0  0  0  0
   28.2183  -19.9326  -13.6290 C   0  0  1  0  0  0  0  0  0  0  0  0
   27.7354  -19.1191  -14.7941 C   0  0  0  0  0  0  0  0  0  0  0  0
   28.5431  -17.4962  -14.7165 S   0  0  0  0  0  0  0  0  0  0  0  0
   27.1076  -20.6056  -12.9065 C   0  0  0  0  0  0  0  0  0  0  0  0
   26.6799  -21.7232  -13.2957 O   0  0  0  0  0  0  0  0  0  0  0  0
   26.4782  -20.0421  -11.7623 N   0  0  0  0  0  0  0  0  0  0  0  0
   25.3003  -20.5927  -11.1377 C   0  0  1  0  0  0  0  0  0  0  0  0
   25.1247  -20.1185   -9.7200 C   0  0  0  0  0  0  0  0  0  0  0  0
   26.3128  -20.2736   -8.8825 C   0  0  0  0  0  0  0  0  0  0  0  0
   26.6416  -19.3482   -7.9148 C   0  0  0  0  0  0  0  0  0  0  0  0
   27.7757  -19.4989   -7.1180 C   0  0  0  0  0  0  0  0  0  0  0  0
   28.5936  -20.5863   -7.2874 C   0  0  0  0  0  0  0  0  0  0  0  0
   28.2884  -21.5202   -8.2424 C   0  0  0  0  0  0  0  0  0  0  0  0
   27.1489  -21.3573   -9.0343 C   0  0  0  0  0  0  0  0  0  0  0  0
   24.0971  -20.4558  -11.9769 C   0  0  0  0  0  0  0  0  0  0  0  0
   23.9130  -19.3830  -12.6370 O   0  0  0  0  0  0  0  0  0  0  0  0
   23.1078  -21.4588  -12.1038 N   0  0  0  0  0  0  0  0  0  0  0  0
   21.9029  -21.2611  -12.9209 C   0  0  1  0  0  0  0  0  0  0  0  0
   21.9613  -22.3547  -13.9957 C   0  0  0  0  0  0  0  0  0  0  0  0
   22.2265  -23.9754  -13.2738 S   0  0  0  0  0  0  0  0  0  0  0  0
   20.6714  -21.4937  -12.1583 C   0  0  0  0  0  0  0  0  0  0  0  0
   19.4659  -21.2761  -12.8137 O   0  0  0  0  0  0  0  0  0  0  0  0
   20.6839  -21.8710  -10.9713 O   0  0  0  0  0  0  0  0  0  0  0  0
  2  5  1  0
  2  1  1  6
  3  2  1  0
  4  3  1  0
  5  7  1  0
  6  5  2  0
  7  8  1  0
  8  9  1  1
  9 10  1  0
 10 15  2  0
 11 10  1  0
 11 12  2  0
 12 13  1  0
 13 14  2  0
 15 14  1  0
 16 17  2  0
 16  8  1  0
 18 16  1  0
 19 18  1  0
 19 22  1  0
 19 20  1  6
 21 20  1  0
 22 23  1  0
 24 22  2  0
M  END
$$$$
