CFC.pdb
     RDKit          3D

 24 24  0  0  1  0  0  0  0  0999 V2000
   18.1159  -13.7039  -16.7493 N   0  0  0  0  0  0  0  0  0  0  0  0
   18.4982  -12.4841  -17.3910 C   0  0  1  0  0  0  0  0  0  0  0  0
   17.3414  -11.5281  -17.3787 C   0  0  0  0  0  0  0  0  0  0  0  0
   16.0525  -12.1953  -18.4677 S   0  0  0  0  0  0  0  0  0  0  0  0
   19.7028  -11.9272  -16.7219 C   0  0  0  0  0  0  0  0  0  0  0  0
   19.7903  -11.9261  -15.4666 O   0  0  0  0  0  0  0  0  0  0  0  0
   20.7996  -11.3769  -17.4409 N   0  0  0  0  0  0  0  0  0  0  0  0
   21.9461  -10.7637  -16.8161 C   0  0  1  0  0  0  0  0  0  0  0  0
   23.2442  -11.1955  -17.4440 C   0  0  0  0  0  0  0  0  0  0  0  0
   24.4372  -10.6960  -16.7625 C   0  0  0  0  0  0  0  0  0  0  0  0
   25.0660   -9.5358  -17.1619 C   0  0  0  0  0  0  0  0  0  0  0  0
   26.2039   -9.0624  -16.5101 C   0  0  0  0  0  0  0  0  0  0  0  0
   26.7226   -9.7540  -15.4459 C   0  0  0  0  0  0  0  0  0  0  0  0
   26.1159  -10.9100  -15.0297 C   0  0  0  0  0  0  0  0  0  0  0  0
   24.9762  -11.3735  -15.6916 C   0  0  0  0  0  0  0  0  0  0  0  0
   21.7989   -9.3052  -16.6685 C   0  0  0  0  0  0  0  0  0  0  0  0
   21.5473   -8.5945  -17.6943 O   0  0  0  0  0  0  0  0  0  0  0  0
   21.9200   -8.6227  -15.4355 N   0  0  0  0  0  0  0  0  0  0  0  0
   21.7137   -7.1721  -15.3282 C   0  0  1  0  0  0  0  0  0  0  0  0
   20.9088   -6.9743  -14.0369 C   0  0  0  0  0  0  0  0  0  0  0  0
   19.2106   -7.5201  -14.2281 S   0  0  0  0  0  0  0  0  0  0  0  0
   22.9747   -6.4445  -15.1470 C   0  0  0  0  0  0  0  0  0  0  0  0
   24.1393   -7.1980  -15.0703 O   0  0  0  0  0  0  0  0  0  0  0  0
   23.0213   -5.2026  -15.0630 O   0  0  0  0  0  0  0  0  0  0  0  0
  2  5  1  0
  2  1  1  1
  3  2  1  0
  4  3  1  0
  5  7  1  0
  6  5  2  0
  7  8  1  0
  8  9  1  6
  9 10  1  0
 10 15  2  0
 11 10  1  0
 11 12  2  0
 12 13  1  0
 13 14  2  0
 15 14  1  0
 16 17  2  0
 16  8  1  0
 18 16  1  0
 19 18  1  0
 19 22  1  0
 19 20  1  1
 21 20  1  0
 22 23  1  0
 24 22  2  0
M  END
$$$$
