CFC.pdb
     RDKit          3D

 24 24  0  0  1  0  0  0  0  0999 V2000
   16.7048  -18.9444    2.3807 N   0  0  0  0  0  0  0  0  0  0  0  0
   16.0311  -17.8781    3.0552 C   0  0  1  0  0  0  0  0  0  0  0  0
   14.9653  -18.4444    3.9473 C   0  0  0  0  0  0  0  0  0  0  0  0
   15.4275  -20.1503    4.3580 S   0  0  0  0  0  0  0  0  0  0  0  0
   17.0210  -17.0587    3.8018 C   0  0  0  0  0  0  0  0  0  0  0  0
   18.1073  -17.5655    4.1847 O   0  0  0  0  0  0  0  0  0  0  0  0
   16.8058  -15.6893    4.1199 N   0  0  0  0  0  0  0  0  0  0  0  0
   17.7175  -14.8912    4.9026 C   0  0  1  0  0  0  0  0  0  0  0  0
   17.7803  -13.4621    4.4342 C   0  0  0  0  0  0  0  0  0  0  0  0
   18.7208  -12.6262    5.1783 C   0  0  0  0  0  0  0  0  0  0  0  0
   20.0663  -12.6078    4.8782 C   0  0  0  0  0  0  0  0  0  0  0  0
   20.9608  -11.8097    5.5901 C   0  0  0  0  0  0  0  0  0  0  0  0
   20.5089  -11.0192    6.6151 C   0  0  0  0  0  0  0  0  0  0  0  0
   19.1760  -11.0197    6.9330 C   0  0  0  0  0  0  0  0  0  0  0  0
   18.2902  -11.8241    6.2116 C   0  0  0  0  0  0  0  0  0  0  0  0
   17.5052  -15.0459    6.3523 C   0  0  0  0  0  0  0  0  0  0  0  0
   16.3276  -14.9503    6.8263 O   0  0  0  0  0  0  0  0  0  0  0  0
   18.5448  -15.3003    7.2772 N   0  0  0  0  0  0  0  0  0  0  0  0
   18.3227  -15.2453    8.7284 C   0  0  1  0  0  0  0  0  0  0  0  0
   18.3335  -16.7077    9.1931 C   0  0  0  0  0  0  0  0  0  0  0  0
   18.6367  -17.8313    7.8279 S   0  0  0  0  0  0  0  0  0  0  0  0
   19.4229  -14.5777    9.4329 C   0  0  0  0  0  0  0  0  0  0  0  0
   19.2821  -14.3914   10.8023 O   0  0  0  0  0  0  0  0  0  0  0  0
   20.4496  -14.1862    8.8462 O   0  0  0  0  0  0  0  0  0  0  0  0
  2  5  1  0
  2  1  1  1
  3  2  1  0
  4  3  1  0
  5  7  1  0
  6  5  2  0
  7  8  1  0
  8  9  1  6
  9 10  1  0
 10 15  2  0
 11 10  1  0
 11 12  2  0
 12 13  1  0
 13 14  2  0
 15 14  1  0
 16 17  2  0
 16  8  1  0
 18 16  1  0
 19 18  1  0
 19 22  1  0
 19 20  1  1
 21 20  1  0
 22 23  1  0
 24 22  2  0
M  END
$$$$
