CFC.pdb
     RDKit          3D

 24 24  0  0  1  0  0  0  0  0999 V2000
   26.3604  -21.9057  -13.6659 N   0  0  0  0  0  0  0  0  0  0  0  0
   26.1993  -20.6993  -12.9146 C   0  0  1  0  0  0  0  0  0  0  0  0
   24.8809  -20.0690  -13.2568 C   0  0  0  0  0  0  0  0  0  0  0  0
   23.5783  -21.2940  -12.9491 S   0  0  0  0  0  0  0  0  0  0  0  0
   26.3277  -20.9964  -11.4641 C   0  0  0  0  0  0  0  0  0  0  0  0
   26.2724  -22.1835  -11.0503 O   0  0  0  0  0  0  0  0  0  0  0  0
   26.5159  -19.9841  -10.4829 N   0  0  0  0  0  0  0  0  0  0  0  0
   26.5733  -20.2382   -9.0642 C   0  0  1  0  0  0  0  0  0  0  0  0
   27.3928  -19.2125   -8.3279 C   0  0  0  0  0  0  0  0  0  0  0  0
   27.6222  -19.5252   -6.9184 C   0  0  0  0  0  0  0  0  0  0  0  0
   28.4813  -20.5317   -6.5313 C   0  0  0  0  0  0  0  0  0  0  0  0
   28.6976  -20.8278   -5.1861 C   0  0  0  0  0  0  0  0  0  0  0  0
   28.0494  -20.1114   -4.2132 C   0  0  0  0  0  0  0  0  0  0  0  0
   27.1904  -19.1060   -4.5722 C   0  0  0  0  0  0  0  0  0  0  0  0
   26.9825  -18.8195   -5.9238 C   0  0  0  0  0  0  0  0  0  0  0  0
   25.2446  -20.4876   -8.4787 C   0  0  0  0  0  0  0  0  0  0  0  0
   24.2724  -19.7249   -8.7849 O   0  0  0  0  0  0  0  0  0  0  0  0
   24.9667  -21.5423   -7.5780 N   0  0  0  0  0  0  0  0  0  0  0  0
   23.6272  -21.7444   -7.0095 C   0  0  1  0  0  0  0  0  0  0  0  0
   23.8492  -22.5846   -5.7448 C   0  0  0  0  0  0  0  0  0  0  0  0
   22.3096  -22.8862   -4.8747 S   0  0  0  0  0  0  0  0  0  0  0  0
   23.0157  -20.4855   -6.5696 C   0  0  0  0  0  0  0  0  0  0  0  0
   21.6341  -20.3801   -6.6685 O   0  0  0  0  0  0  0  0  0  0  0  0
   23.6894  -19.5379   -6.1228 O   0  0  0  0  0  0  0  0  0  0  0  0
  2  5  1  0
  2  1  1  6
  3  2  1  0
  4  3  1  0
  5  7  1  0
  6  5  2  0
  7  8  1  0
  8  9  1  1
  9 10  1  0
 10 15  2  0
 11 10  1  0
 11 12  2  0
 12 13  1  0
 13 14  2  0
 15 14  1  0
 16 17  2  0
 16  8  1  0
 18 16  1  0
 19 18  1  0
 19 22  1  0
 19 20  1  1
 21 20  1  0
 22 23  1  0
 24 22  2  0
M  END
$$$$
