CFC.pdb
     RDKit          3D

 24 24  0  0  1  0  0  0  0  0999 V2000
   21.0900  -11.9856  -17.9831 N   0  0  0  0  0  0  0  0  0  0  0  0
   21.0833  -10.6955  -18.6005 C   0  0  1  0  0  0  0  0  0  0  0  0
   20.0016  -10.6435  -19.6396 C   0  0  0  0  0  0  0  0  0  0  0  0
   20.4329  -11.8159  -20.9555 S   0  0  0  0  0  0  0  0  0  0  0  0
   20.9220   -9.6473  -17.5593 C   0  0  0  0  0  0  0  0  0  0  0  0
   20.1283   -9.8216  -16.5984 O   0  0  0  0  0  0  0  0  0  0  0  0
   21.6357   -8.4174  -17.5856 N   0  0  0  0  0  0  0  0  0  0  0  0
   21.4762   -7.3723  -16.6042 C   0  0  1  0  0  0  0  0  0  0  0  0
   22.6663   -7.2534  -15.6904 C   0  0  0  0  0  0  0  0  0  0  0  0
   22.8446   -8.3868  -14.7845 C   0  0  0  0  0  0  0  0  0  0  0  0
   22.0562   -8.5491  -13.6652 C   0  0  0  0  0  0  0  0  0  0  0  0
   22.2290   -9.6310  -12.8029 C   0  0  0  0  0  0  0  0  0  0  0  0
   23.2005  -10.5640  -13.0591 C   0  0  0  0  0  0  0  0  0  0  0  0
   23.9971  -10.4252  -14.1653 C   0  0  0  0  0  0  0  0  0  0  0  0
   23.8135   -9.3363  -15.0213 C   0  0  0  0  0  0  0  0  0  0  0  0
   21.0383   -6.0977  -17.1995 C   0  0  0  0  0  0  0  0  0  0  0  0
   21.5909   -5.6838  -18.2691 O   0  0  0  0  0  0  0  0  0  0  0  0
   20.0207   -5.2818  -16.6520 N   0  0  0  0  0  0  0  0  0  0  0  0
   19.5592   -4.0605  -17.3255 C   0  0  1  0  0  0  0  0  0  0  0  0
   18.9009   -4.5417  -18.6254 C   0  0  0  0  0  0  0  0  0  0  0  0
   18.0629   -3.2025  -19.4754 S   0  0  0  0  0  0  0  0  0  0  0  0
   18.5148   -3.3675  -16.5630 C   0  0  0  0  0  0  0  0  0  0  0  0
   17.8653   -4.0906  -15.5704 O   0  0  0  0  0  0  0  0  0  0  0  0
   18.2077   -2.1801  -16.7807 O   0  0  0  0  0  0  0  0  0  0  0  0
  2  5  1  0
  2  1  1  1
  3  2  1  0
  4  3  1  0
  5  7  1  0
  6  5  2  0
  7  8  1  0
  8  9  1  6
  9 10  1  0
 10 15  2  0
 11 10  1  0
 11 12  2  0
 12 13  1  0
 13 14  2  0
 15 14  1  0
 16 17  2  0
 16  8  1  0
 18 16  1  0
 19 18  1  0
 19 22  1  0
 19 20  1  6
 21 20  1  0
 22 23  1  0
 24 22  2  0
M  END
$$$$
