CFC.pdb
     RDKit          3D

 24 24  0  0  1  0  0  0  0  0999 V2000
   20.1804  -11.3127  -16.6601 N   0  0  0  0  0  0  0  0  0  0  0  0
   19.1381  -10.3975  -17.0089 C   0  0  1  0  0  0  0  0  0  0  0  0
   17.8361  -11.1370  -17.1109 C   0  0  0  0  0  0  0  0  0  0  0  0
   17.9755  -12.3304  -18.4706 S   0  0  0  0  0  0  0  0  0  0  0  0
   19.0896   -9.2964  -16.0119 C   0  0  0  0  0  0  0  0  0  0  0  0
   18.2679   -8.3527  -16.1452 O   0  0  0  0  0  0  0  0  0  0  0  0
   19.9462   -9.2444  -14.8776 N   0  0  0  0  0  0  0  0  0  0  0  0
   19.9204   -8.1873  -13.8966 C   0  0  1  0  0  0  0  0  0  0  0  0
   20.1381   -8.6951  -12.4964 C   0  0  0  0  0  0  0  0  0  0  0  0
   20.0628   -7.6629  -11.4640 C   0  0  0  0  0  0  0  0  0  0  0  0
   21.1853   -6.9895  -11.0310 C   0  0  0  0  0  0  0  0  0  0  0  0
   21.1102   -6.0059  -10.0457 C   0  0  0  0  0  0  0  0  0  0  0  0
   19.9003   -5.6886   -9.4841 C   0  0  0  0  0  0  0  0  0  0  0  0
   18.7698   -6.3435   -9.8973 C   0  0  0  0  0  0  0  0  0  0  0  0
   18.8590   -7.3272  -10.8855 C   0  0  0  0  0  0  0  0  0  0  0  0
   20.7768   -7.0476  -14.2688 C   0  0  0  0  0  0  0  0  0  0  0  0
   22.0130   -7.2431  -14.5013 O   0  0  0  0  0  0  0  0  0  0  0  0
   20.3091   -5.7181  -14.3894 N   0  0  0  0  0  0  0  0  0  0  0  0
   21.2093   -4.6064  -14.7243 C   0  0  1  0  0  0  0  0  0  0  0  0
   20.5324   -3.8783  -15.8932 C   0  0  0  0  0  0  0  0  0  0  0  0
   21.3774   -2.3477  -16.2949 S   0  0  0  0  0  0  0  0  0  0  0  0
   21.3157   -3.6311  -13.6335 C   0  0  0  0  0  0  0  0  0  0  0  0
   22.5507   -3.0252  -13.4394 O   0  0  0  0  0  0  0  0  0  0  0  0
   20.3509   -3.3439  -12.9000 O   0  0  0  0  0  0  0  0  0  0  0  0
  2  5  1  0
  2  1  1  1
  3  2  1  0
  4  3  1  0
  5  7  1  0
  6  5  2  0
  7  8  1  0
  8  9  1  1
  9 10  1  0
 10 15  2  0
 11 10  1  0
 11 12  2  0
 12 13  1  0
 13 14  2  0
 15 14  1  0
 16 17  2  0
 16  8  1  0
 18 16  1  0
 19 18  1  0
 19 22  1  0
 19 20  1  6
 21 20  1  0
 22 23  1  0
 24 22  2  0
M  END
$$$$
