CFC.pdb
     RDKit          3D

 24 24  0  0  1  0  0  0  0  0999 V2000
   29.3266  -20.6185  -14.4371 N   0  0  0  0  0  0  0  0  0  0  0  0
   28.3444  -19.7172  -13.9189 C   0  0  1  0  0  0  0  0  0  0  0  0
   27.7968  -18.8775  -15.0358 C   0  0  0  0  0  0  0  0  0  0  0  0
   26.6428  -17.6752  -14.3181 S   0  0  0  0  0  0  0  0  0  0  0  0
   27.2858  -20.4872  -13.2151 C   0  0  0  0  0  0  0  0  0  0  0  0
   26.9060  -21.6010  -13.6609 O   0  0  0  0  0  0  0  0  0  0  0  0
   26.6552  -20.0238  -12.0275 N   0  0  0  0  0  0  0  0  0  0  0  0
   25.5965  -20.7308  -11.3491 C   0  0  1  0  0  0  0  0  0  0  0  0
   25.3956  -20.2505   -9.9368 C   0  0  0  0  0  0  0  0  0  0  0  0
   26.6094  -20.2536   -9.1222 C   0  0  0  0  0  0  0  0  0  0  0  0
   27.6708  -21.0857   -9.4087 C   0  0  0  0  0  0  0  0  0  0  0  0
   28.8269  -21.0865   -8.6295 C   0  0  0  0  0  0  0  0  0  0  0  0
   28.9273  -20.2470   -7.5501 C   0  0  0  0  0  0  0  0  0  0  0  0
   27.8861  -19.4103   -7.2445 C   0  0  0  0  0  0  0  0  0  0  0  0
   26.7331  -19.4194   -8.0335 C   0  0  0  0  0  0  0  0  0  0  0  0
   24.3603  -20.8022  -12.1475 C   0  0  0  0  0  0  0  0  0  0  0  0
   23.9055  -19.7458  -12.6930 O   0  0  0  0  0  0  0  0  0  0  0  0
   23.6256  -21.9929  -12.3558 N   0  0  0  0  0  0  0  0  0  0  0  0
   22.4267  -22.0264  -13.2043 C   0  0  1  0  0  0  0  0  0  0  0  0
   22.2541  -23.4990  -13.5994 C   0  0  0  0  0  0  0  0  0  0  0  0
   23.7417  -24.1580  -14.3550 S   0  0  0  0  0  0  0  0  0  0  0  0
   21.2153  -21.6494  -12.4677 C   0  0  0  0  0  0  0  0  0  0  0  0
   20.0187  -21.6380  -13.1732 O   0  0  0  0  0  0  0  0  0  0  0  0
   21.2369  -21.3483  -11.2592 O   0  0  0  0  0  0  0  0  0  0  0  0
  2  5  1  0
  2  1  1  6
  3  2  1  0
  4  3  1  0
  5  7  1  0
  6  5  2  0
  7  8  1  0
  8  9  1  1
  9 10  1  0
 10 15  2  0
 11 10  1  0
 11 12  2  0
 12 13  1  0
 13 14  2  0
 15 14  1  0
 16 17  2  0
 16  8  1  0
 18 16  1  0
 19 18  1  0
 19 22  1  0
 19 20  1  1
 21 20  1  0
 22 23  1  0
 24 22  2  0
M  END
$$$$
