TSK.pdb
     RDKit          3D

 23 22  0  0  1  0  0  0  0  0999 V2000
   21.0821  -18.2239  -17.8812 C   0  0  0  0  0  0  0  0  0  0  0  0
   21.5779  -18.9456  -16.6471 C   0  0  1  0  0  0  0  0  0  0  0  0
   21.5338  -20.3133  -16.8507 O   0  0  0  0  0  0  0  0  0  0  0  0
   22.9758  -18.4706  -16.2768 C   0  0  2  0  0  0  0  0  0  0  0  0
   23.4809  -19.3160  -15.2146 N   0  0  0  0  0  0  0  0  0  0  0  0
   22.9061  -17.0516  -15.8850 C   0  0  0  0  0  0  0  0  0  0  0  0
   21.9795  -16.7087  -15.1096 O   0  0  0  0  0  0  0  0  0  0  0  0
   25.2410  -14.0642  -17.8287 O   0  0  0  0  0  0  0  0  0  0  0  0
   24.8465  -13.8400  -16.5342 C   0  0  0  0  0  0  0  0  0  0  0  0
   23.6627  -14.6602  -16.1105 C   0  0  2  0  0  0  0  0  0  0  0  0
   23.8176  -16.0635  -16.3305 N   0  0  0  0  0  0  0  0  0  0  0  0
   22.4606  -14.1509  -16.8106 C   0  0  0  0  0  0  0  0  0  0  0  0
   22.0905  -14.6706  -17.8939 O   0  0  0  0  0  0  0  0  0  0  0  0
   21.6988  -13.0828  -16.2983 N   0  0  0  0  0  0  0  0  0  0  0  0
   20.4778  -12.6114  -17.0926 C   0  0  1  0  0  0  0  0  0  0  0  0
   19.3745  -12.7254  -16.1234 C   0  0  0  0  0  0  0  0  0  0  0  0
   18.0444  -12.2100  -16.4236 C   0  0  0  0  0  0  0  0  0  0  0  0
   16.9754  -12.4418  -15.4417 C   0  0  0  0  0  0  0  0  0  0  0  0
   15.6214  -11.9426  -16.0148 C   0  0  0  0  0  0  0  0  0  0  0  0
   14.5972  -12.2246  -15.0561 N   0  0  0  0  0  0  0  0  0  0  0  0
   20.8840  -11.2246  -17.4227 C   0  0  0  0  0  0  0  0  0  0  0  0
   21.9947  -10.5429  -16.9961 O   0  0  0  0  0  0  0  0  0  0  0  0
   20.1171  -10.5521  -18.1986 O   0  0  0  0  0  0  0  0  0  0  0  0
  2  1  1  6
  2  4  1  0
  3  2  1  0
  4  5  1  1
  6  4  1  0
  6  7  2  0
  8  9  1  0
 10  9  1  6
 10 11  1  0
 10 12  1  0
 11  6  1  0
 12 14  1  0
 13 12  2  0
 14 15  1  0
 15 21  1  0
 16 17  1  0
 15 16  1  1
 18 19  1  0
 18 17  1  0
 20 19  1  0
 21 23  2  0
 21 22  1  0
M  END
$$$$
