TSK.pdb
     RDKit          3D

 23 22  0  0  1  0  0  0  0  0999 V2000
   16.4719  -10.1613  -14.6842 C   0  0  0  0  0  0  0  0  0  0  0  0
   16.0241  -10.0898  -16.1278 C   0  0  1  0  0  0  0  0  0  0  0  0
   15.1120  -11.0966  -16.3893 O   0  0  0  0  0  0  0  0  0  0  0  0
   15.4568   -8.7128  -16.4427 C   0  0  2  0  0  0  0  0  0  0  0  0
   14.8661   -8.7518  -17.7647 N   0  0  0  0  0  0  0  0  0  0  0  0
   16.5394   -7.7185  -16.3366 C   0  0  0  0  0  0  0  0  0  0  0  0
   17.5704   -7.9073  -17.0284 O   0  0  0  0  0  0  0  0  0  0  0  0
   16.5911   -4.5697  -13.4093 O   0  0  0  0  0  0  0  0  0  0  0  0
   17.1407   -4.3650  -14.6494 C   0  0  0  0  0  0  0  0  0  0  0  0
   17.5433   -5.6300  -15.3504 C   0  0  2  0  0  0  0  0  0  0  0  0
   16.4813   -6.5733  -15.5054 N   0  0  0  0  0  0  0  0  0  0  0  0
   18.6778   -6.2363  -14.6156 C   0  0  0  0  0  0  0  0  0  0  0  0
   18.4719   -7.1382  -13.7645 O   0  0  0  0  0  0  0  0  0  0  0  0
   20.0085   -5.8323  -14.8386 N   0  0  0  0  0  0  0  0  0  0  0  0
   21.1137   -6.4609  -13.9858 C   0  0  1  0  0  0  0  0  0  0  0  0
   21.6281   -7.5463  -14.8383 C   0  0  0  0  0  0  0  0  0  0  0  0
   22.7585   -8.3673  -14.4223 C   0  0  0  0  0  0  0  0  0  0  0  0
   23.1535   -9.4888  -15.2865 C   0  0  0  0  0  0  0  0  0  0  0  0
   24.4058  -10.1898  -14.6942 C   0  0  0  0  0  0  0  0  0  0  0  0
   24.7260  -11.3116  -15.5228 N   0  0  0  0  0  0  0  0  0  0  0  0
   22.0258   -5.3038  -13.8224 C   0  0  0  0  0  0  0  0  0  0  0  0
   22.9893   -5.1133  -12.8655 O   0  0  0  0  0  0  0  0  0  0  0  0
   21.9198   -4.3432  -14.6640 O   0  0  0  0  0  0  0  0  0  0  0  0
  2  1  1  1
  2  4  1  0
  3  2  1  0
  4  5  1  6
  6  4  1  0
  6  7  2  0
  8  9  1  0
 10  9  1  1
 10 11  1  0
 10 12  1  0
 11  6  1  0
 12 14  1  0
 13 12  2  0
 14 15  1  0
 15 21  1  0
 16 17  1  0
 15 16  1  6
 18 19  1  0
 18 17  1  0
 20 19  1  0
 21 23  2  0
 21 22  1  0
M  END
$$$$
