TSK.pdb
     RDKit          3D

 23 22  0  0  1  0  0  0  0  0999 V2000
   24.5884  -11.5079  -20.6437 C   0  0  0  0  0  0  0  0  0  0  0  0
   23.9345  -12.8295  -20.3038 C   0  0  1  0  0  0  0  0  0  0  0  0
   24.0744  -13.7108  -21.3611 O   0  0  0  0  0  0  0  0  0  0  0  0
   24.5111  -13.3937  -19.0131 C   0  0  2  0  0  0  0  0  0  0  0  0
   24.0213  -14.7464  -18.8450 N   0  0  0  0  0  0  0  0  0  0  0  0
   24.1278  -12.5110  -17.8969 C   0  0  0  0  0  0  0  0  0  0  0  0
   22.9054  -12.4180  -17.6243 O   0  0  0  0  0  0  0  0  0  0  0  0
   26.7277   -9.5977  -16.1801 O   0  0  0  0  0  0  0  0  0  0  0  0
   25.8676  -10.2720  -15.3511 C   0  0  0  0  0  0  0  0  0  0  0  0
   24.6944  -10.8823  -16.0616 C   0  0  2  0  0  0  0  0  0  0  0  0
   25.0532  -11.7694  -17.1227 N   0  0  0  0  0  0  0  0  0  0  0  0
   23.8266   -9.7914  -16.5631 C   0  0  0  0  0  0  0  0  0  0  0  0
   23.9946   -9.3293  -17.7201 O   0  0  0  0  0  0  0  0  0  0  0  0
   22.7972   -9.2393  -15.7762 N   0  0  0  0  0  0  0  0  0  0  0  0
   21.9037   -8.1618  -16.3964 C   0  0  1  0  0  0  0  0  0  0  0  0
   20.6306   -8.8651  -16.6286 C   0  0  0  0  0  0  0  0  0  0  0  0
   19.4409   -8.1528  -17.0781 C   0  0  0  0  0  0  0  0  0  0  0  0
   18.1885   -8.9113  -17.2076 C   0  0  0  0  0  0  0  0  0  0  0  0
   17.0545   -7.9695  -17.6953 C   0  0  0  0  0  0  0  0  0  0  0  0
   15.9330   -8.7749  -18.0710 N   0  0  0  0  0  0  0  0  0  0  0  0
   21.8794   -7.1622  -15.3021 C   0  0  0  0  0  0  0  0  0  0  0  0
   21.6523   -5.8129  -15.3922 O   0  0  0  0  0  0  0  0  0  0  0  0
   22.0999   -7.5824  -14.1117 O   0  0  0  0  0  0  0  0  0  0  0  0
  2  1  1  6
  2  4  1  0
  3  2  1  0
  4  5  1  1
  6  4  1  0
  6  7  2  0
  8  9  1  0
 10  9  1  6
 10 11  1  0
 10 12  1  0
 11  6  1  0
 12 14  1  0
 13 12  2  0
 14 15  1  0
 15 21  1  0
 16 17  1  0
 15 16  1  1
 18 19  1  0
 18 17  1  0
 20 19  1  0
 21 23  2  0
 21 22  1  0
M  END
$$$$
