TSK.pdb
     RDKit          3D

 23 22  0  0  1  0  0  0  0  0999 V2000
   17.6250   -9.2669  -17.8970 C   0  0  0  0  0  0  0  0  0  0  0  0
   16.9974  -10.2888  -16.9743 C   0  0  1  0  0  0  0  0  0  0  0  0
   16.0353  -11.0123  -17.6562 O   0  0  0  0  0  0  0  0  0  0  0  0
   18.0655  -11.1902  -16.3712 C   0  0  2  0  0  0  0  0  0  0  0  0
   17.4085  -12.2436  -15.6250 N   0  0  0  0  0  0  0  0  0  0  0  0
   18.9562  -10.3720  -15.5291 C   0  0  0  0  0  0  0  0  0  0  0  0
   18.4346   -9.7368  -14.5794 O   0  0  0  0  0  0  0  0  0  0  0  0
   23.5137   -8.9816  -14.3626 O   0  0  0  0  0  0  0  0  0  0  0  0
   22.6719   -9.8309  -15.0349 C   0  0  0  0  0  0  0  0  0  0  0  0
   21.2240   -9.4442  -14.9474 C   0  0  2  0  0  0  0  0  0  0  0  0
   20.3539  -10.2640  -15.7301 N   0  0  0  0  0  0  0  0  0  0  0  0
   21.0911   -8.0209  -15.3363 C   0  0  0  0  0  0  0  0  0  0  0  0
   21.1413   -7.6877  -16.5474 O   0  0  0  0  0  0  0  0  0  0  0  0
   20.9065   -7.0034  -14.3801 N   0  0  0  0  0  0  0  0  0  0  0  0
   20.8494   -5.5515  -14.8625 C   0  0  1  0  0  0  0  0  0  0  0  0
   19.4692   -5.1419  -14.5517 C   0  0  0  0  0  0  0  0  0  0  0  0
   19.0402   -3.7553  -14.6872 C   0  0  0  0  0  0  0  0  0  0  0  0
   17.6537   -3.4225  -14.3300 C   0  0  0  0  0  0  0  0  0  0  0  0
   17.3894   -1.9175  -14.6052 C   0  0  0  0  0  0  0  0  0  0  0  0
   17.3886   -1.7139  -16.0216 N   0  0  0  0  0  0  0  0  0  0  0  0
   21.8946   -4.9376  -14.0093 C   0  0  0  0  0  0  0  0  0  0  0  0
   22.5274   -5.4818  -12.9213 O   0  0  0  0  0  0  0  0  0  0  0  0
   22.2706   -3.7470  -14.2982 O   0  0  0  0  0  0  0  0  0  0  0  0
  2  1  1  6
  2  4  1  0
  3  2  1  0
  4  5  1  1
  6  4  1  0
  6  7  2  0
  8  9  1  0
 10  9  1  6
 10 11  1  0
 10 12  1  0
 11  6  1  0
 12 14  1  0
 13 12  2  0
 14 15  1  0
 15 21  1  0
 16 17  1  0
 15 16  1  1
 18 19  1  0
 18 17  1  0
 20 19  1  0
 21 23  2  0
 21 22  1  0
M  END
$$$$
