TSK.pdb
     RDKit          3D

 23 22  0  0  1  0  0  0  0  0999 V2000
   26.7435  -14.3798  -16.6000 C   0  0  0  0  0  0  0  0  0  0  0  0
   26.4566  -12.9685  -16.1359 C   0  0  1  0  0  0  0  0  0  0  0  0
   27.3806  -12.0954  -16.6818 O   0  0  0  0  0  0  0  0  0  0  0  0
   25.0278  -12.5733  -16.4812 C   0  0  2  0  0  0  0  0  0  0  0  0
   24.8841  -12.5867  -17.9224 N   0  0  0  0  0  0  0  0  0  0  0  0
   24.7479  -11.2494  -15.8975 C   0  0  0  0  0  0  0  0  0  0  0  0
   24.8274  -11.1372  -14.6492 O   0  0  0  0  0  0  0  0  0  0  0  0
   24.3240   -6.4815  -16.0692 O   0  0  0  0  0  0  0  0  0  0  0  0
   24.7081   -7.6696  -16.6373 C   0  0  0  0  0  0  0  0  0  0  0  0
   23.9699   -8.8631  -16.1043 C   0  0  2  0  0  0  0  0  0  0  0  0
   24.3975  -10.1082  -16.6597 N   0  0  0  0  0  0  0  0  0  0  0  0
   22.5198   -8.6607  -16.3299 C   0  0  0  0  0  0  0  0  0  0  0  0
   22.0405   -8.7488  -17.4887 O   0  0  0  0  0  0  0  0  0  0  0  0
   21.6371   -8.3667  -15.2724 N   0  0  0  0  0  0  0  0  0  0  0  0
   20.1548   -8.1616  -15.5960 C   0  0  1  0  0  0  0  0  0  0  0  0
   19.4890   -9.2428  -14.8496 C   0  0  0  0  0  0  0  0  0  0  0  0
   18.4252  -10.0372  -15.4515 C   0  0  0  0  0  0  0  0  0  0  0  0
   17.7893  -11.0769  -14.6298 C   0  0  0  0  0  0  0  0  0  0  0  0
   16.7793  -11.8807  -15.4927 C   0  0  0  0  0  0  0  0  0  0  0  0
   16.2481  -12.9404  -14.6910 N   0  0  0  0  0  0  0  0  0  0  0  0
   19.9415   -6.7988  -15.0530 C   0  0  0  0  0  0  0  0  0  0  0  0
   20.7914   -6.0539  -14.2763 O   0  0  0  0  0  0  0  0  0  0  0  0
   18.8299   -6.2214  -15.3231 O   0  0  0  0  0  0  0  0  0  0  0  0
  2  1  1  6
  2  4  1  0
  3  2  1  0
  4  5  1  6
  6  4  1  0
  6  7  2  0
  8  9  1  0
 10  9  1  6
 10 11  1  0
 10 12  1  0
 11  6  1  0
 12 14  1  0
 13 12  2  0
 14 15  1  0
 15 21  1  0
 16 17  1  0
 15 16  1  1
 18 19  1  0
 18 17  1  0
 20 19  1  0
 21 23  2  0
 21 22  1  0
M  END
$$$$
