TSK.pdb
     RDKit          3D

 23 22  0  0  1  0  0  0  0  0999 V2000
   17.6524  -14.1444    3.0806 C   0  0  0  0  0  0  0  0  0  0  0  0
   18.5427  -13.1150    3.7417 C   0  0  1  0  0  0  0  0  0  0  0  0
   18.9566  -12.1806    2.8092 O   0  0  0  0  0  0  0  0  0  0  0  0
   17.8261  -12.4661    4.9174 C   0  0  2  0  0  0  0  0  0  0  0  0
   18.7126  -11.4861    5.5104 N   0  0  0  0  0  0  0  0  0  0  0  0
   17.4287  -13.5182    5.8697 C   0  0  0  0  0  0  0  0  0  0  0  0
   18.2672  -13.8595    6.7403 O   0  0  0  0  0  0  0  0  0  0  0  0
   13.9482  -15.9981    5.4470 O   0  0  0  0  0  0  0  0  0  0  0  0
   14.3029  -15.5318    6.6874 C   0  0  0  0  0  0  0  0  0  0  0  0
   15.7501  -15.1489    6.8001 C   0  0  2  0  0  0  0  0  0  0  0  0
   16.1658  -14.1592    5.8571 N   0  0  0  0  0  0  0  0  0  0  0  0
   16.5739  -16.3733    6.6702 C   0  0  0  0  0  0  0  0  0  0  0  0
   17.1341  -16.6471    5.5787 O   0  0  0  0  0  0  0  0  0  0  0  0
   16.7580  -17.2627    7.7466 N   0  0  0  0  0  0  0  0  0  0  0  0
   17.7275  -18.4339    7.5667 C   0  0  1  0  0  0  0  0  0  0  0  0
   18.2988  -18.6147    8.9122 C   0  0  0  0  0  0  0  0  0  0  0  0
   19.1917  -19.7266    9.2146 C   0  0  0  0  0  0  0  0  0  0  0  0
   19.6728  -19.8711   10.5960 C   0  0  0  0  0  0  0  0  0  0  0  0
   20.6134  -21.1023   10.6963 C   0  0  0  0  0  0  0  0  0  0  0  0
   21.0061  -21.2565   12.0637 N   0  0  0  0  0  0  0  0  0  0  0  0
   16.7930  -19.4994    7.1321 C   0  0  0  0  0  0  0  0  0  0  0  0
   15.4988  -19.7071    7.5350 O   0  0  0  0  0  0  0  0  0  0  0  0
   17.2230  -20.3508    6.2763 O   0  0  0  0  0  0  0  0  0  0  0  0
  2  1  1  6
  2  4  1  0
  3  2  1  0
  4  5  1  1
  6  4  1  0
  6  7  2  0
  8  9  1  0
 10  9  1  6
 10 11  1  0
 10 12  1  0
 11  6  1  0
 12 14  1  0
 13 12  2  0
 14 15  1  0
 15 21  1  0
 16 17  1  0
 15 16  1  1
 18 19  1  0
 18 17  1  0
 20 19  1  0
 21 23  2  0
 21 22  1  0
M  END
$$$$
