TSK.pdb
     RDKit          3D

 23 22  0  0  1  0  0  0  0  0999 V2000
   19.8097  -12.1237  -17.3289 C   0  0  0  0  0  0  0  0  0  0  0  0
   18.4690  -12.6853  -16.9085 C   0  0  1  0  0  0  0  0  0  0  0  0
   18.4766  -14.0637  -17.0274 O   0  0  0  0  0  0  0  0  0  0  0  0
   18.1228  -12.2384  -15.4953 C   0  0  2  0  0  0  0  0  0  0  0  0
   16.9056  -12.9093  -15.0876 N   0  0  0  0  0  0  0  0  0  0  0  0
   17.9912  -10.7706  -15.4811 C   0  0  0  0  0  0  0  0  0  0  0  0
   16.8898  -10.2835  -15.8375 O   0  0  0  0  0  0  0  0  0  0  0  0
   17.7171   -6.7759  -13.6427 O   0  0  0  0  0  0  0  0  0  0  0  0
   17.9196   -8.1252  -13.7852 C   0  0  0  0  0  0  0  0  0  0  0  0
   18.8648   -8.4824  -14.8954 C   0  0  2  0  0  0  0  0  0  0  0  0
   19.0282   -9.8883  -15.0914 N   0  0  0  0  0  0  0  0  0  0  0  0
   20.1712   -7.8364  -14.6294 C   0  0  0  0  0  0  0  0  0  0  0  0
   20.9672   -8.3369  -13.7950 O   0  0  0  0  0  0  0  0  0  0  0  0
   20.5650   -6.6565  -15.2900 N   0  0  0  0  0  0  0  0  0  0  0  0
   21.9778   -6.1204  -15.0443 C   0  0  1  0  0  0  0  0  0  0  0  0
   22.2314   -5.2724  -16.2216 C   0  0  0  0  0  0  0  0  0  0  0  0
   23.3787   -4.3748  -16.2776 C   0  0  0  0  0  0  0  0  0  0  0  0
   23.5356   -3.5268  -17.4678 C   0  0  0  0  0  0  0  0  0  0  0  0
   24.8648   -2.7302  -17.3711 C   0  0  0  0  0  0  0  0  0  0  0  0
   24.9969   -1.9329  -18.5520 N   0  0  0  0  0  0  0  0  0  0  0  0
   21.7755   -5.3864  -13.7725 C   0  0  0  0  0  0  0  0  0  0  0  0
   22.6814   -5.1700  -12.7660 O   0  0  0  0  0  0  0  0  0  0  0  0
   20.6165   -4.8841  -13.5569 O   0  0  0  0  0  0  0  0  0  0  0  0
  2  1  1  1
  2  4  1  0
  3  2  1  0
  4  5  1  6
  6  4  1  0
  6  7  2  0
  8  9  1  0
 10  9  1  1
 10 11  1  0
 10 12  1  0
 11  6  1  0
 12 14  1  0
 13 12  2  0
 14 15  1  0
 15 21  1  0
 16 17  1  0
 15 16  1  6
 18 19  1  0
 18 17  1  0
 20 19  1  0
 21 23  2  0
 21 22  1  0
M  END
$$$$
