TSK.pdb
     RDKit          3D

 23 22  0  0  1  0  0  0  0  0999 V2000
   26.7838   -9.5193  -17.4222 C   0  0  0  0  0  0  0  0  0  0  0  0
   26.2162  -10.6626  -18.2348 C   0  0  1  0  0  0  0  0  0  0  0  0
   27.2447  -11.4286  -18.7539 O   0  0  0  0  0  0  0  0  0  0  0  0
   25.2586  -11.4926  -17.3916 C   0  0  2  0  0  0  0  0  0  0  0  0
   24.8594  -12.6536  -18.1603 N   0  0  0  0  0  0  0  0  0  0  0  0
   24.1134  -10.6491  -17.0059 C   0  0  0  0  0  0  0  0  0  0  0  0
   23.4375  -10.1311  -17.9290 O   0  0  0  0  0  0  0  0  0  0  0  0
   23.1193   -9.7722  -12.9249 O   0  0  0  0  0  0  0  0  0  0  0  0
   22.1390   -9.8333  -13.8825 C   0  0  0  0  0  0  0  0  0  0  0  0
   22.6347   -9.5719  -15.2752 C   0  0  2  0  0  0  0  0  0  0  0  0
   23.7371  -10.3932  -15.6647 N   0  0  0  0  0  0  0  0  0  0  0  0
   22.9856   -8.1372  -15.3898 C   0  0  0  0  0  0  0  0  0  0  0  0
   24.1847   -7.7694  -15.3044 O   0  0  0  0  0  0  0  0  0  0  0  0
   22.0057   -7.1466  -15.5955 N   0  0  0  0  0  0  0  0  0  0  0  0
   22.4612   -5.6948  -15.7647 C   0  0  1  0  0  0  0  0  0  0  0  0
   21.3915   -5.0934  -16.5793 C   0  0  0  0  0  0  0  0  0  0  0  0
   21.2746   -3.6483  -16.7315 C   0  0  0  0  0  0  0  0  0  0  0  0
   20.1804   -3.1270  -17.5631 C   0  0  0  0  0  0  0  0  0  0  0  0
   20.3243   -1.5882  -17.7124 C   0  0  0  0  0  0  0  0  0  0  0  0
   19.2277   -1.1092  -18.4970 N   0  0  0  0  0  0  0  0  0  0  0  0
   22.4987   -5.2524  -14.3504 C   0  0  0  0  0  0  0  0  0  0  0  0
   21.8619   -5.8097  -13.2715 O   0  0  0  0  0  0  0  0  0  0  0  0
   23.2030   -4.2186  -14.0721 O   0  0  0  0  0  0  0  0  0  0  0  0
  2  1  1  1
  2  4  1  0
  3  2  1  0
  4  5  1  6
  6  4  1  0
  6  7  2  0
  8  9  1  0
 10  9  1  1
 10 11  1  0
 10 12  1  0
 11  6  1  0
 12 14  1  0
 13 12  2  0
 14 15  1  0
 15 21  1  0
 16 17  1  0
 15 16  1  6
 18 19  1  0
 18 17  1  0
 20 19  1  0
 21 23  2  0
 21 22  1  0
M  END
$$$$
