TSK.pdb
     RDKit          3D

 23 22  0  0  1  0  0  0  0  0999 V2000
   21.6022  -18.2653    6.5258 C   0  0  0  0  0  0  0  0  0  0  0  0
   21.5430  -18.2730    8.0378 C   0  0  1  0  0  0  0  0  0  0  0  0
   22.7900  -17.9794    8.5603 O   0  0  0  0  0  0  0  0  0  0  0  0
   20.4765  -17.3074    8.5348 C   0  0  2  0  0  0  0  0  0  0  0  0
   20.4948  -17.3101    9.9831 N   0  0  0  0  0  0  0  0  0  0  0  0
   19.1721  -17.7178    7.9852 C   0  0  0  0  0  0  0  0  0  0  0  0
   18.7124  -18.8281    8.3500 O   0  0  0  0  0  0  0  0  0  0  0  0
   15.1643  -16.5743    5.4038 O   0  0  0  0  0  0  0  0  0  0  0  0
   16.3589  -16.1900    5.9578 C   0  0  0  0  0  0  0  0  0  0  0  0
   17.1581  -17.3274    6.5246 C   0  0  2  0  0  0  0  0  0  0  0  0
   18.4163  -16.9364    7.0774 N   0  0  0  0  0  0  0  0  0  0  0  0
   17.3462  -18.3461    5.4656 C   0  0  0  0  0  0  0  0  0  0  0  0
   18.2590  -18.2113    4.6119 O   0  0  0  0  0  0  0  0  0  0  0  0
   16.5234  -19.4857    5.3761 N   0  0  0  0  0  0  0  0  0  0  0  0
   16.7415  -20.4523    4.2091 C   0  0  1  0  0  0  0  0  0  0  0  0
   16.9300  -21.7533    4.8732 C   0  0  0  0  0  0  0  0  0  0  0  0
   17.0829  -22.9827    4.1049 C   0  0  0  0  0  0  0  0  0  0  0  0
   17.3268  -24.2318    4.8403 C   0  0  0  0  0  0  0  0  0  0  0  0
   17.2822  -25.4340    3.8587 C   0  0  0  0  0  0  0  0  0  0  0  0
   17.6030  -26.6218    4.5894 N   0  0  0  0  0  0  0  0  0  0  0  0
   15.4593  -20.2977    3.4815 C   0  0  0  0  0  0  0  0  0  0  0  0
   15.1924  -20.5793    2.1663 O   0  0  0  0  0  0  0  0  0  0  0  0
   14.4578  -19.8408    4.1376 O   0  0  0  0  0  0  0  0  0  0  0  0
  2  1  1  6
  2  4  1  0
  3  2  1  0
  4  5  1  1
  6  4  1  0
  6  7  2  0
  8  9  1  0
 10  9  1  6
 10 11  1  0
 10 12  1  0
 11  6  1  0
 12 14  1  0
 13 12  2  0
 14 15  1  0
 15 21  1  0
 16 17  1  0
 15 16  1  1
 18 19  1  0
 18 17  1  0
 20 19  1  0
 21 23  2  0
 21 22  1  0
M  END
$$$$
