TSK.pdb
     RDKit          3D

 23 22  0  0  1  0  0  0  0  0999 V2000
   21.2747   -9.4583  -20.4217 C   0  0  0  0  0  0  0  0  0  0  0  0
   21.7041  -10.8991  -20.2507 C   0  0  1  0  0  0  0  0  0  0  0  0
   22.3098  -11.3517  -21.4093 O   0  0  0  0  0  0  0  0  0  0  0  0
   22.6142  -11.0443  -19.0393 C   0  0  2  0  0  0  0  0  0  0  0  0
   23.1234  -12.4000  -19.0083 N   0  0  0  0  0  0  0  0  0  0  0  0
   21.8493  -10.7001  -17.8276 C   0  0  0  0  0  0  0  0  0  0  0  0
   20.8176  -11.3730  -17.5822 O   0  0  0  0  0  0  0  0  0  0  0  0
   22.7713   -7.3277  -15.2451 O   0  0  0  0  0  0  0  0  0  0  0  0
   22.1675   -8.4700  -14.7843 C   0  0  0  0  0  0  0  0  0  0  0  0
   21.4063   -9.2208  -15.8382 C   0  0  2  0  0  0  0  0  0  0  0  0
   22.2102   -9.6625  -16.9337 N   0  0  0  0  0  0  0  0  0  0  0  0
   20.2948   -8.3662  -16.3167 C   0  0  0  0  0  0  0  0  0  0  0  0
   20.4433   -7.6453  -17.3358 O   0  0  0  0  0  0  0  0  0  0  0  0
   19.0498   -8.3292  -15.6592 N   0  0  0  0  0  0  0  0  0  0  0  0
   17.9998   -7.3253  -16.1426 C   0  0  1  0  0  0  0  0  0  0  0  0
   16.7289   -7.9129  -15.6856 C   0  0  0  0  0  0  0  0  0  0  0  0
   15.6690   -8.2548  -16.6263 C   0  0  0  0  0  0  0  0  0  0  0  0
   14.4379   -8.8546  -16.0925 C   0  0  0  0  0  0  0  0  0  0  0  0
   13.4587   -9.1633  -17.2573 C   0  0  0  0  0  0  0  0  0  0  0  0
   12.2753   -9.7486  -16.7054 N   0  0  0  0  0  0  0  0  0  0  0  0
   18.4279   -6.1079  -15.4132 C   0  0  0  0  0  0  0  0  0  0  0  0
   18.1798   -4.7977  -15.7328 O   0  0  0  0  0  0  0  0  0  0  0  0
   19.1230   -6.2694  -14.3488 O   0  0  0  0  0  0  0  0  0  0  0  0
  2  1  1  6
  2  4  1  0
  3  2  1  0
  4  5  1  1
  6  4  1  0
  6  7  2  0
  8  9  1  0
 10  9  1  1
 10 11  1  0
 10 12  1  0
 11  6  1  0
 12 14  1  0
 13 12  2  0
 14 15  1  0
 15 21  1  0
 16 17  1  0
 15 16  1  1
 18 19  1  0
 18 17  1  0
 20 19  1  0
 21 23  2  0
 21 22  1  0
M  END
$$$$
