TSK.pdb
     RDKit          3D

 23 22  0  0  1  0  0  0  0  0999 V2000
   14.9034  -10.6297  -16.5937 C   0  0  0  0  0  0  0  0  0  0  0  0
   16.0485   -9.8275  -16.0150 C   0  0  1  0  0  0  0  0  0  0  0  0
   15.5712   -8.6475  -15.4727 O   0  0  0  0  0  0  0  0  0  0  0  0
   16.8156  -10.6538  -14.9926 C   0  0  2  0  0  0  0  0  0  0  0  0
   15.9323  -10.9442  -13.8820 N   0  0  0  0  0  0  0  0  0  0  0  0
   18.0146   -9.9029  -14.5796 C   0  0  0  0  0  0  0  0  0  0  0  0
   17.8563   -8.9582  -13.7674 O   0  0  0  0  0  0  0  0  0  0  0  0
   22.8925   -9.4059  -14.6522 O   0  0  0  0  0  0  0  0  0  0  0  0
   21.7798  -10.1138  -15.0300 C   0  0  0  0  0  0  0  0  0  0  0  0
   20.4850   -9.4289  -14.7012 C   0  0  2  0  0  0  0  0  0  0  0  0
   19.3224  -10.1857  -15.0438 N   0  0  0  0  0  0  0  0  0  0  0  0
   20.4657   -8.1084  -15.3723 C   0  0  0  0  0  0  0  0  0  0  0  0
   19.9419   -7.9826  -16.5082 O   0  0  0  0  0  0  0  0  0  0  0  0
   21.0240   -6.9623  -14.7737 N   0  0  0  0  0  0  0  0  0  0  0  0
   21.1085   -5.6762  -15.5999 C   0  0  1  0  0  0  0  0  0  0  0  0
   19.6970   -5.3141  -15.8144 C   0  0  0  0  0  0  0  0  0  0  0  0
   19.3089   -3.9586  -16.1848 C   0  0  0  0  0  0  0  0  0  0  0  0
   17.8786   -3.6751  -16.3696 C   0  0  0  0  0  0  0  0  0  0  0  0
   17.6836   -2.1754  -16.7213 C   0  0  0  0  0  0  0  0  0  0  0  0
   16.2917   -1.9487  -16.9633 N   0  0  0  0  0  0  0  0  0  0  0  0
   21.8480   -4.7966  -14.6636 C   0  0  0  0  0  0  0  0  0  0  0  0
   22.1684   -5.0349  -13.3518 O   0  0  0  0  0  0  0  0  0  0  0  0
   22.2460   -3.6619  -15.1068 O   0  0  0  0  0  0  0  0  0  0  0  0
  2  1  1  1
  2  4  1  0
  3  2  1  0
  4  5  1  1
  6  4  1  0
  6  7  2  0
  8  9  1  0
 10  9  1  6
 10 11  1  0
 10 12  1  0
 11  6  1  0
 12 14  1  0
 13 12  2  0
 14 15  1  0
 15 21  1  0
 16 17  1  0
 15 16  1  1
 18 19  1  0
 18 17  1  0
 20 19  1  0
 21 23  2  0
 21 22  1  0
M  END
$$$$
