VRL.pdb
     RDKit          3D

 27 26  0  0  1  0  0  0  0  0999 V2000
   24.5621  -21.4367  -18.5720 C   0  0  0  0  0  0  0  0  0  0  0  0
   23.3157  -20.7917  -18.0091 C   0  0  2  0  0  0  0  0  0  0  0  0
   22.7362  -19.9157  -19.1077 C   0  0  0  0  0  0  0  0  0  0  0  0
   23.6303  -19.8916  -16.8237 C   0  0  2  0  0  0  0  0  0  0  0  0
   24.4357  -18.7603  -17.2449 N   0  0  0  0  0  0  0  0  0  0  0  0
   24.4155  -20.6555  -15.7907 C   0  0  0  0  0  0  0  0  0  0  0  0
   23.9654  -21.7062  -15.2861 O   0  0  0  0  0  0  0  0  0  0  0  0
   30.7712  -20.4069  -10.8020 N   0  0  0  0  0  0  0  0  0  0  0  0
   31.1436  -21.6911  -11.2737 C   0  0  0  0  0  0  0  0  0  0  0  0
   31.8091  -22.4975  -10.5327 N   0  0  0  0  0  0  0  0  0  0  0  0
   30.7784  -22.0822  -12.5709 N   0  0  0  0  0  0  0  0  0  0  0  0
   30.1510  -21.2113  -13.5345 C   0  0  0  0  0  0  0  0  0  0  0  0
   28.6419  -21.3875  -13.3763 C   0  0  0  0  0  0  0  0  0  0  0  0
   27.8740  -20.5660  -14.3748 C   0  0  0  0  0  0  0  0  0  0  0  0
   26.3946  -20.7514  -14.2763 C   0  0  2  0  0  0  0  0  0  0  0  0
   25.6790  -20.1710  -15.3911 N   0  0  0  0  0  0  0  0  0  0  0  0
   25.8001  -20.3488  -12.9830 C   0  0  0  0  0  0  0  0  0  0  0  0
   25.6012  -19.1640  -12.6339 O   0  0  0  0  0  0  0  0  0  0  0  0
   32.0207  -23.4759  -10.8228 C   0  0  0  0  0  0  0  0  0  0  0  0
   25.9134  -21.6853   -8.2126 C   0  0  2  0  0  0  0  0  0  0  0  0
   26.5933  -20.6888   -9.1617 C   0  0  0  0  0  0  0  0  0  0  0  0
   27.4040  -19.7699   -8.3150 C   0  0  0  0  0  0  0  0  0  0  0  0
   25.5109  -20.0603   -9.9609 C   0  0  2  0  0  0  0  0  0  0  0  0
   24.7344  -21.0113  -10.8408 N   0  0  0  0  0  0  0  0  0  0  0  0
   25.4146  -21.3495  -12.0434 C   0  0  0  0  0  0  0  0  0  0  0  0
   23.3330  -20.5698  -11.0639 O   0  0  0  0  0  0  0  0  0  0  0  0
   22.9812  -19.8455  -12.0248 O   0  0  0  0  0  0  0  0  0  0  0  0
  2  1  1  6
  2  3  1  0
  4  2  1  0
  4  5  1  6
  6  4  1  0
  6  7  2  0
  9 10  2  0
  9  8  1  0
 11  9  1  0
 12 13  1  0
 12 11  1  0
 13 14  1  0
 15 14  1  1
 15 16  1  0
 16  6  1  0
 17 15  1  0
 18 17  2  0
 20 19  1  6
 20 22  1  0
 21 20  1  0
 23 22  1  1
 23 24  1  0
 24 17  1  0
 25 23  1  0
 25 27  1  0
 26 25  2  0
M  END
$$$$
