VRL.pdb
     RDKit          3D

 27 26  0  0  1  0  0  0  0  0999 V2000
   23.9956  -18.8892  -16.3975 C   0  0  0  0  0  0  0  0  0  0  0  0
   22.9634  -18.0945  -17.1652 C   0  0  2  0  0  0  0  0  0  0  0  0
   22.0376  -17.4632  -16.1381 C   0  0  0  0  0  0  0  0  0  0  0  0
   22.1148  -18.9848  -18.0605 C   0  0  2  0  0  0  0  0  0  0  0  0
   21.0835  -18.2058  -18.7205 N   0  0  0  0  0  0  0  0  0  0  0  0
   21.4333  -20.0447  -17.2363 C   0  0  0  0  0  0  0  0  0  0  0  0
   20.3917  -19.7913  -16.5943 O   0  0  0  0  0  0  0  0  0  0  0  0
   22.7168  -27.5631  -14.1457 N   0  0  0  0  0  0  0  0  0  0  0  0
   21.3634  -27.7745  -14.5115 C   0  0  0  0  0  0  0  0  0  0  0  0
   20.5895  -28.4931  -13.7856 N   0  0  0  0  0  0  0  0  0  0  0  0
   20.8666  -27.1889  -15.6859 N   0  0  0  0  0  0  0  0  0  0  0  0
   21.5942  -26.2361  -16.4880 C   0  0  0  0  0  0  0  0  0  0  0  0
   21.2622  -24.8492  -15.9407 C   0  0  0  0  0  0  0  0  0  0  0  0
   21.8515  -23.7561  -16.7889 C   0  0  0  0  0  0  0  0  0  0  0  0
   21.3943  -22.3904  -16.3905 C   0  0  2  0  0  0  0  0  0  0  0  0
   21.9855  -21.3424  -17.1930 N   0  0  0  0  0  0  0  0  0  0  0  0
   21.5040  -22.0927  -14.9457 C   0  0  0  0  0  0  0  0  0  0  0  0
   22.5550  -21.7218  -14.3773 O   0  0  0  0  0  0  0  0  0  0  0  0
   19.6182  -28.7352  -14.0760 C   0  0  0  0  0  0  0  0  0  0  0  0
   19.7383  -18.9400  -10.9754 C   0  0  2  0  0  0  0  0  0  0  0  0
   20.8620  -19.9772  -11.1080 C   0  0  0  0  0  0  0  0  0  0  0  0
   22.1119  -19.3238  -10.6290 C   0  0  0  0  0  0  0  0  0  0  0  0
   20.8579  -20.4263  -12.5235 C   0  0  2  0  0  0  0  0  0  0  0  0
   20.3916  -21.8466  -12.7398 N   0  0  0  0  0  0  0  0  0  0  0  0
   20.3563  -22.2258  -14.1102 C   0  0  0  0  0  0  0  0  0  0  0  0
   19.1313  -22.1522  -12.0140 O   0  0  0  0  0  0  0  0  0  0  0  0
   19.0265  -22.1151  -10.7653 O   0  0  0  0  0  0  0  0  0  0  0  0
  2  1  1  1
  2  3  1  0
  4  2  1  0
  4  5  1  1
  6  4  1  0
  6  7  2  0
  9 10  2  0
  9  8  1  0
 11  9  1  0
 12 13  1  0
 12 11  1  0
 13 14  1  0
 15 14  1  1
 15 16  1  0
 16  6  1  0
 17 15  1  0
 18 17  2  0
 20 19  1  1
 20 22  1  0
 21 20  1  0
 23 22  1  1
 23 24  1  0
 24 17  1  0
 25 23  1  0
 25 27  1  0
 26 25  2  0
M  END
$$$$
