VRL.pdb
     RDKit          3D

 27 26  0  0  1  0  0  0  0  0999 V2000
   19.8316  -28.8320  -11.5776 C   0  0  0  0  0  0  0  0  0  0  0  0
   20.0850  -28.7563  -13.0665 C   0  0  2  0  0  0  0  0  0  0  0  0
   21.3921  -29.4859  -13.3304 C   0  0  0  0  0  0  0  0  0  0  0  0
   20.2585  -27.3206  -13.5387 C   0  0  2  0  0  0  0  0  0  0  0  0
   21.4147  -26.7139  -12.9053 N   0  0  0  0  0  0  0  0  0  0  0  0
   19.0492  -26.5054  -13.1647 C   0  0  0  0  0  0  0  0  0  0  0  0
   17.9183  -26.7855  -13.6162 O   0  0  0  0  0  0  0  0  0  0  0  0
   17.4226  -25.2993   -5.3217 N   0  0  0  0  0  0  0  0  0  0  0  0
   17.7143  -26.4517   -6.0945 C   0  0  0  0  0  0  0  0  0  0  0  0
   17.7281  -27.6166   -5.5605 N   0  0  0  0  0  0  0  0  0  0  0  0
   17.9927  -26.3126   -7.4627 N   0  0  0  0  0  0  0  0  0  0  0  0
   17.8354  -25.0839   -8.2018 C   0  0  0  0  0  0  0  0  0  0  0  0
   18.1473  -25.4013   -9.6631 C   0  0  0  0  0  0  0  0  0  0  0  0
   17.9795  -24.1961  -10.5466 C   0  0  0  0  0  0  0  0  0  0  0  0
   18.1070  -24.5105  -12.0019 C   0  0  2  0  0  0  0  0  0  0  0  0
   19.2031  -25.4091  -12.2897 N   0  0  0  0  0  0  0  0  0  0  0  0
   18.1246  -23.3318  -12.8955 C   0  0  0  0  0  0  0  0  0  0  0  0
   19.1255  -22.6075  -13.0920 O   0  0  0  0  0  0  0  0  0  0  0  0
   17.9544  -28.4767   -6.1039 C   0  0  0  0  0  0  0  0  0  0  0  0
   17.9563  -20.8547  -17.0670 C   0  0  2  0  0  0  0  0  0  0  0  0
   17.3498  -22.2607  -16.9603 C   0  0  0  0  0  0  0  0  0  0  0  0
   16.8179  -22.6053  -18.3082 C   0  0  0  0  0  0  0  0  0  0  0  0
   16.3572  -22.2103  -15.8569 C   0  0  2  0  0  0  0  0  0  0  0  0
   16.9281  -21.8649  -14.5018 N   0  0  0  0  0  0  0  0  0  0  0  0
   16.9400  -22.9635  -13.5984 C   0  0  0  0  0  0  0  0  0  0  0  0
   16.3252  -20.6361  -13.9230 O   0  0  0  0  0  0  0  0  0  0  0  0
   15.3709  -20.6513  -13.1101 O   0  0  0  0  0  0  0  0  0  0  0  0
  2  1  1  1
  2  3  1  0
  4  2  1  0
  4  5  1  1
  6  4  1  0
  6  7  2  0
  9 10  2  0
  9  8  1  0
 11  9  1  0
 12 13  1  0
 12 11  1  0
 13 14  1  0
 15 14  1  1
 15 16  1  0
 16  6  1  0
 17 15  1  0
 18 17  2  0
 20 19  1  6
 20 22  1  0
 21 20  1  0
 23 22  1  6
 23 24  1  0
 24 17  1  0
 25 23  1  0
 25 27  1  0
 26 25  2  0
M  END
$$$$
