VRL.pdb
     RDKit          3D

 27 26  0  0  1  0  0  0  0  0999 V2000
   24.7210  -18.1564  -16.3454 C   0  0  0  0  0  0  0  0  0  0  0  0
   25.3340  -18.8249  -15.1355 C   0  0  2  0  0  0  0  0  0  0  0  0
   26.8390  -18.6415  -15.2437 C   0  0  0  0  0  0  0  0  0  0  0  0
   25.0554  -20.3203  -15.1133 C   0  0  2  0  0  0  0  0  0  0  0  0
   25.5917  -20.9545  -16.3033 N   0  0  0  0  0  0  0  0  0  0  0  0
   23.5703  -20.5675  -15.0906 C   0  0  0  0  0  0  0  0  0  0  0  0
   22.9325  -20.7591  -16.1478 O   0  0  0  0  0  0  0  0  0  0  0  0
   19.9856  -24.3759   -9.1938 N   0  0  0  0  0  0  0  0  0  0  0  0
   19.5710  -23.0202   -9.2089 C   0  0  0  0  0  0  0  0  0  0  0  0
   19.4073  -22.3694   -8.1171 N   0  0  0  0  0  0  0  0  0  0  0  0
   19.3359  -22.3843  -10.4374 N   0  0  0  0  0  0  0  0  0  0  0  0
   19.1889  -23.0765  -11.6943 C   0  0  0  0  0  0  0  0  0  0  0  0
   19.5851  -22.0919  -12.7929 C   0  0  0  0  0  0  0  0  0  0  0  0
   21.0539  -21.7713  -12.7551 C   0  0  0  0  0  0  0  0  0  0  0  0
   21.4612  -20.7560  -13.7731 C   0  0  2  0  0  0  0  0  0  0  0  0
   22.8948  -20.5816  -13.8518 N   0  0  0  0  0  0  0  0  0  0  0  0
   20.7626  -19.4561  -13.6719 C   0  0  0  0  0  0  0  0  0  0  0  0
   21.2080  -18.4589  -13.0615 O   0  0  0  0  0  0  0  0  0  0  0  0
   19.1235  -21.3666   -8.1027 C   0  0  0  0  0  0  0  0  0  0  0  0
   20.4562  -15.7698  -15.7787 C   0  0  2  0  0  0  0  0  0  0  0  0
   21.2320  -17.0247  -16.2022 C   0  0  0  0  0  0  0  0  0  0  0  0
   21.9752  -16.6746  -17.4447 C   0  0  0  0  0  0  0  0  0  0  0  0
   20.2344  -18.1183  -16.3212 C   0  0  2  0  0  0  0  0  0  0  0  0
   19.2437  -18.2033  -15.1842 N   0  0  0  0  0  0  0  0  0  0  0  0
   19.4931  -19.2883  -14.2989 C   0  0  0  0  0  0  0  0  0  0  0  0
   17.8333  -18.1368  -15.6476 O   0  0  0  0  0  0  0  0  0  0  0  0
   17.1783  -19.1408  -16.0145 O   0  0  0  0  0  0  0  0  0  0  0  0
  2  1  1  6
  2  3  1  0
  4  2  1  0
  4  5  1  6
  6  4  1  0
  6  7  2  0
  9 10  2  0
  9  8  1  0
 11  9  1  0
 12 13  1  0
 12 11  1  0
 13 14  1  0
 15 14  1  1
 15 16  1  0
 16  6  1  0
 17 15  1  0
 18 17  2  0
 20 19  1  1
 20 22  1  0
 21 20  1  0
 23 22  1  1
 23 24  1  0
 24 17  1  0
 25 23  1  0
 25 27  1  0
 26 25  2  0
M  END
$$$$
