VRL.pdb
     RDKit          3D

 27 26  0  0  1  0  0  0  0  0999 V2000
   25.8583  -16.4020  -16.4823 C   0  0  0  0  0  0  0  0  0  0  0  0
   26.7174  -17.4422  -15.7994 C   0  0  2  0  0  0  0  0  0  0  0  0
   28.1589  -16.9767  -15.9240 C   0  0  0  0  0  0  0  0  0  0  0  0
   26.6135  -18.7982  -16.4812 C   0  0  2  0  0  0  0  0  0  0  0  0
   27.0296  -18.7025  -17.8681 N   0  0  0  0  0  0  0  0  0  0  0  0
   25.1861  -19.2769  -16.4616 C   0  0  0  0  0  0  0  0  0  0  0  0
   24.3992  -18.9955  -17.3905 O   0  0  0  0  0  0  0  0  0  0  0  0
   19.6199  -22.9848  -11.6430 N   0  0  0  0  0  0  0  0  0  0  0  0
   19.2384  -23.6388  -12.8418 C   0  0  0  0  0  0  0  0  0  0  0  0
   18.0254  -24.0039  -13.0355 N   0  0  0  0  0  0  0  0  0  0  0  0
   20.2043  -23.8898  -13.8282 N   0  0  0  0  0  0  0  0  0  0  0  0
   21.5904  -23.5049  -13.7230 C   0  0  0  0  0  0  0  0  0  0  0  0
   21.7268  -22.1446  -14.4046 C   0  0  0  0  0  0  0  0  0  0  0  0
   23.1540  -21.6716  -14.4310 C   0  0  0  0  0  0  0  0  0  0  0  0
   23.3457  -20.4228  -15.2290 C   0  0  2  0  0  0  0  0  0  0  0  0
   24.7370  -20.0553  -15.3738 N   0  0  0  0  0  0  0  0  0  0  0  0
   22.5245  -19.2721  -14.7937 C   0  0  0  0  0  0  0  0  0  0  0  0
   22.6369  -18.7010  -13.6863 O   0  0  0  0  0  0  0  0  0  0  0  0
   17.7226  -24.4953  -13.9034 C   0  0  0  0  0  0  0  0  0  0  0  0
   22.5828  -15.3247  -14.6866 C   0  0  1  0  0  0  0  0  0  0  0  0
   22.3700  -15.8900  -16.0977 C   0  0  0  0  0  0  0  0  0  0  0  0
   22.6944  -14.7959  -17.0550 C   0  0  0  0  0  0  0  0  0  0  0  0
   20.9786  -16.4074  -16.1403 C   0  0  2  0  0  0  0  0  0  0  0  0
   20.7284  -17.6325  -15.2932 N   0  0  0  0  0  0  0  0  0  0  0  0
   21.5261  -18.7492  -15.6671 C   0  0  0  0  0  0  0  0  0  0  0  0
   19.2836  -17.9586  -15.1709 O   0  0  0  0  0  0  0  0  0  0  0  0
   18.4167  -17.1304  -14.8046 O   0  0  0  0  0  0  0  0  0  0  0  0
  2  1  1  6
  2  3  1  0
  4  2  1  0
  4  5  1  6
  6  4  1  0
  6  7  2  0
  9 10  2  0
  9  8  1  0
 11  9  1  0
 12 13  1  0
 12 11  1  0
 13 14  1  0
 15 14  1  1
 15 16  1  0
 16  6  1  0
 17 15  1  0
 18 17  2  0
 20 19  1  6
 20 22  1  0
 21 20  1  0
 23 22  1  1
 23 24  1  0
 24 17  1  0
 25 23  1  0
 25 27  1  0
 26 25  2  0
M  END
$$$$
