VRL.pdb
     RDKit          3D

 27 26  0  0  1  0  0  0  0  0999 V2000
   24.9972  -25.2811  -16.8303 C   0  0  0  0  0  0  0  0  0  0  0  0
   25.2983  -23.8238  -16.5615 C   0  0  2  0  0  0  0  0  0  0  0  0
   26.7931  -23.7207  -16.3060 C   0  0  0  0  0  0  0  0  0  0  0  0
   24.5850  -23.3190  -15.3162 C   0  0  2  0  0  0  0  0  0  0  0  0
   24.9439  -24.1245  -14.1637 N   0  0  0  0  0  0  0  0  0  0  0  0
   23.0940  -23.4188  -15.5002 C   0  0  0  0  0  0  0  0  0  0  0  0
   22.5131  -22.7885  -16.4092 O   0  0  0  0  0  0  0  0  0  0  0  0
   21.3992  -28.5281  -11.0288 N   0  0  0  0  0  0  0  0  0  0  0  0
   19.9914  -28.3840  -11.1160 C   0  0  0  0  0  0  0  0  0  0  0  0
   19.2494  -28.5265  -10.0809 N   0  0  0  0  0  0  0  0  0  0  0  0
   19.4041  -28.0824  -12.3541 N   0  0  0  0  0  0  0  0  0  0  0  0
   20.1451  -27.8700  -13.5733 C   0  0  0  0  0  0  0  0  0  0  0  0
   20.7309  -26.4613  -13.4978 C   0  0  0  0  0  0  0  0  0  0  0  0
   20.3233  -25.6209  -14.6764 C   0  0  0  0  0  0  0  0  0  0  0  0
   20.9011  -24.2432  -14.6450 C   0  0  2  0  0  0  0  0  0  0  0  0
   22.3473  -24.2395  -14.6284 N   0  0  0  0  0  0  0  0  0  0  0  0
   20.3456  -23.3575  -13.5985 C   0  0  0  0  0  0  0  0  0  0  0  0
   20.6285  -23.4350  -12.3823 O   0  0  0  0  0  0  0  0  0  0  0  0
   18.2087  -28.5053  -10.1333 C   0  0  0  0  0  0  0  0  0  0  0  0
   21.0398  -19.6607  -12.0412 C   0  0  1  0  0  0  0  0  0  0  0  0
   20.4120  -19.5385  -13.4366 C   0  0  0  0  0  0  0  0  0  0  0  0
   20.5980  -18.1262  -13.8719 C   0  0  0  0  0  0  0  0  0  0  0  0
   19.0082  -20.0064  -13.3110 C   0  0  2  0  0  0  0  0  0  0  0  0
   18.8524  -21.4723  -12.9819 N   0  0  0  0  0  0  0  0  0  0  0  0
   19.4218  -22.3335  -13.9603 C   0  0  0  0  0  0  0  0  0  0  0  0
   17.4560  -21.8334  -12.6241 O   0  0  0  0  0  0  0  0  0  0  0  0
   16.7430  -22.6019  -13.3117 O   0  0  0  0  0  0  0  0  0  0  0  0
  2  1  1  1
  2  3  1  0
  4  2  1  0
  4  5  1  1
  6  4  1  0
  6  7  2  0
  9 10  2  0
  9  8  1  0
 11  9  1  0
 12 13  1  0
 12 11  1  0
 13 14  1  0
 15 14  1  1
 15 16  1  0
 16  6  1  0
 17 15  1  0
 18 17  2  0
 20 19  1  6
 20 22  1  0
 21 20  1  0
 23 22  1  1
 23 24  1  0
 24 17  1  0
 25 23  1  0
 25 27  1  0
 26 25  2  0
M  END
$$$$
