VRL.pdb
     RDKit          3D

 27 26  0  0  1  0  0  0  0  0999 V2000
   26.0734  -22.1852  -19.6802 C   0  0  0  0  0  0  0  0  0  0  0  0
   26.2041  -21.5896  -18.2965 C   0  0  2  0  0  0  0  0  0  0  0  0
   25.2010  -20.4511  -18.2084 C   0  0  0  0  0  0  0  0  0  0  0  0
   27.5871  -21.0007  -18.0622 C   0  0  2  0  0  0  0  0  0  0  0  0
   27.8332  -19.9026  -18.9785 N   0  0  0  0  0  0  0  0  0  0  0  0
   28.6412  -22.0478  -18.3062 C   0  0  0  0  0  0  0  0  0  0  0  0
   29.1257  -22.2215  -19.4447 O   0  0  0  0  0  0  0  0  0  0  0  0
   34.3663  -26.5718  -14.4580 N   0  0  0  0  0  0  0  0  0  0  0  0
   34.4316  -26.8362  -15.8495 C   0  0  0  0  0  0  0  0  0  0  0  0
   34.8076  -27.9812  -16.2853 N   0  0  0  0  0  0  0  0  0  0  0  0
   34.0803  -25.8284  -16.7604 N   0  0  0  0  0  0  0  0  0  0  0  0
   33.1849  -24.7385  -16.4591 C   0  0  0  0  0  0  0  0  0  0  0  0
   31.7882  -25.3389  -16.3105 C   0  0  0  0  0  0  0  0  0  0  0  0
   30.7384  -24.2777  -16.1280 C   0  0  0  0  0  0  0  0  0  0  0  0
   30.0768  -23.8780  -17.4068 C   0  0  2  0  0  0  0  0  0  0  0  0
   29.0841  -22.8416  -17.2270 N   0  0  0  0  0  0  0  0  0  0  0  0
   29.5480  -24.9999  -18.2129 C   0  0  0  0  0  0  0  0  0  0  0  0
   28.3596  -25.3900  -18.1892 O   0  0  0  0  0  0  0  0  0  0  0  0
   34.8916  -28.1906  -17.3029 C   0  0  0  0  0  0  0  0  0  0  0  0
   27.4484  -26.3873  -22.8712 C   0  0  1  0  0  0  0  0  0  0  0  0
   28.2638  -27.1720  -21.8342 C   0  0  0  0  0  0  0  0  0  0  0  0
   27.3476  -28.1854  -21.2409 C   0  0  0  0  0  0  0  0  0  0  0  0
   28.8294  -26.1700  -20.8952 C   0  0  2  0  0  0  0  0  0  0  0  0
   29.9239  -26.6892  -19.9930 N   0  0  0  0  0  0  0  0  0  0  0  0
   30.4207  -25.7104  -19.0885 C   0  0  0  0  0  0  0  0  0  0  0  0
   30.9967  -27.3942  -20.7417 O   0  0  0  0  0  0  0  0  0  0  0  0
   32.2129  -27.1068  -20.6414 O   0  0  0  0  0  0  0  0  0  0  0  0
  2  1  1  6
  2  3  1  0
  4  2  1  0
  4  5  1  6
  6  4  1  0
  6  7  2  0
  9 10  2  0
  9  8  1  0
 11  9  1  0
 12 13  1  0
 12 11  1  0
 13 14  1  0
 15 14  1  1
 15 16  1  0
 16  6  1  0
 17 15  1  0
 18 17  2  0
 20 19  1  6
 20 22  1  0
 21 20  1  0
 23 22  1  1
 23 24  1  0
 24 17  1  0
 25 23  1  0
 25 27  1  0
 26 25  2  0
M  END
$$$$
