VRL.pdb
     RDKit          3D

 27 26  0  0  1  0  0  0  0  0999 V2000
   24.7945  -19.8254  -14.8985 C   0  0  0  0  0  0  0  0  0  0  0  0
   26.3047  -19.8549  -14.8275 C   0  0  2  0  0  0  0  0  0  0  0  0
   26.7962  -20.4813  -16.1222 C   0  0  0  0  0  0  0  0  0  0  0  0
   26.8005  -20.7237  -13.6814 C   0  0  2  0  0  0  0  0  0  0  0  0
   26.2295  -22.0549  -13.7694 N   0  0  0  0  0  0  0  0  0  0  0  0
   26.3785  -20.1290  -12.3640 C   0  0  0  0  0  0  0  0  0  0  0  0
   26.7261  -18.9741  -12.0374 O   0  0  0  0  0  0  0  0  0  0  0  0
   20.4680  -20.9092  -13.0880 N   0  0  0  0  0  0  0  0  0  0  0  0
   20.3523  -21.7295  -11.9374 C   0  0  0  0  0  0  0  0  0  0  0  0
   19.8412  -22.9023  -12.0134 N   0  0  0  0  0  0  0  0  0  0  0  0
   20.8031  -21.2483  -10.6988 N   0  0  0  0  0  0  0  0  0  0  0  0
   21.3177  -19.9181  -10.4838 C   0  0  0  0  0  0  0  0  0  0  0  0
   22.7719  -19.9231  -10.9515 C   0  0  0  0  0  0  0  0  0  0  0  0
   23.6736  -20.6208   -9.9708 C   0  0  0  0  0  0  0  0  0  0  0  0
   25.1247  -20.3666  -10.2214 C   0  0  2  0  0  0  0  0  0  0  0  0
   25.5777  -20.8940  -11.4896 N   0  0  0  0  0  0  0  0  0  0  0  0
   26.0268  -20.7615   -9.1177 C   0  0  0  0  0  0  0  0  0  0  0  0
   26.5313  -21.8991   -8.9886 O   0  0  0  0  0  0  0  0  0  0  0  0
   19.7657  -23.5325  -11.1867 C   0  0  0  0  0  0  0  0  0  0  0  0
   29.6246  -20.9941   -5.7914 C   0  0  1  0  0  0  0  0  0  0  0  0
   29.1429  -19.5568   -5.5502 C   0  0  0  0  0  0  0  0  0  0  0  0
   28.4893  -19.5391   -4.2119 C   0  0  0  0  0  0  0  0  0  0  0  0
   28.2808  -19.2004   -6.7057 C   0  0  1  0  0  0  0  0  0  0  0  0
   27.1608  -20.1734   -6.9889 N   0  0  0  0  0  0  0  0  0  0  0  0
   26.3686  -19.8095   -8.1128 C   0  0  0  0  0  0  0  0  0  0  0  0
   26.3551  -20.4864   -5.7800 O   0  0  0  0  0  0  0  0  0  0  0  0
   25.2264  -19.9897   -5.5540 O   0  0  0  0  0  0  0  0  0  0  0  0
  2  1  1  6
  2  3  1  0
  4  2  1  0
  4  5  1  6
  6  4  1  0
  6  7  2  0
  9 10  2  0
  9  8  1  0
 11  9  1  0
 12 13  1  0
 12 11  1  0
 13 14  1  0
 15 14  1  1
 15 16  1  0
 16  6  1  0
 17 15  1  0
 18 17  2  0
 20 19  1  1
 20 22  1  0
 21 20  1  0
 23 22  1  6
 23 24  1  0
 24 17  1  0
 25 23  1  0
 25 27  1  0
 26 25  2  0
M  END
$$$$
