VRL.pdb
     RDKit          3D

 27 26  0  0  1  0  0  0  0  0999 V2000
   20.0089  -14.4022  -20.3540 C   0  0  0  0  0  0  0  0  0  0  0  0
   20.3705  -15.0403  -19.0316 C   0  0  2  0  0  0  0  0  0  0  0  0
   19.7213  -16.4144  -19.0113 C   0  0  0  0  0  0  0  0  0  0  0  0
   19.8155  -14.2541  -17.8534 C   0  0  2  0  0  0  0  0  0  0  0  0
   18.3647  -14.2526  -17.8822 N   0  0  0  0  0  0  0  0  0  0  0  0
   20.2780  -12.8230  -17.9251 C   0  0  0  0  0  0  0  0  0  0  0  0
   21.4864  -12.5293  -17.8038 O   0  0  0  0  0  0  0  0  0  0  0  0
   16.1952   -5.6639  -21.1614 N   0  0  0  0  0  0  0  0  0  0  0  0
   16.4048   -5.7842  -19.7643 C   0  0  0  0  0  0  0  0  0  0  0  0
   15.6860   -5.1269  -18.9315 N   0  0  0  0  0  0  0  0  0  0  0  0
   17.4146   -6.6345  -19.2888 N   0  0  0  0  0  0  0  0  0  0  0  0
   18.3148   -7.3779  -20.1360 C   0  0  0  0  0  0  0  0  0  0  0  0
   19.2415   -8.1684  -19.2142 C   0  0  0  0  0  0  0  0  0  0  0  0
   18.8044   -9.6004  -19.0739 C   0  0  0  0  0  0  0  0  0  0  0  0
   19.7115  -10.4106  -18.2058 C   0  0  2  0  0  0  0  0  0  0  0  0
   19.3258  -11.8026  -18.1330 N   0  0  0  0  0  0  0  0  0  0  0  0
   19.9563   -9.8458  -16.8607 C   0  0  0  0  0  0  0  0  0  0  0  0
   19.0840   -9.7329  -15.9710 O   0  0  0  0  0  0  0  0  0  0  0  0
   15.8063   -5.2146  -17.9000 C   0  0  0  0  0  0  0  0  0  0  0  0
   24.1068  -11.3328  -14.0518 C   0  0  1  0  0  0  0  0  0  0  0  0
   23.3635  -10.5111  -15.1140 C   0  0  0  0  0  0  0  0  0  0  0  0
   24.4014   -9.8542  -15.9565 C   0  0  0  0  0  0  0  0  0  0  0  0
   22.4443   -9.6044  -14.3803 C   0  0  1  0  0  0  0  0  0  0  0  0
   21.5250   -8.7852  -15.2551 N   0  0  0  0  0  0  0  0  0  0  0  0
   21.2619   -9.3877  -16.5164 C   0  0  0  0  0  0  0  0  0  0  0  0
   21.9503   -7.3652  -15.3607 O   0  0  0  0  0  0  0  0  0  0  0  0
   22.0836   -6.6081  -14.3704 O   0  0  0  0  0  0  0  0  0  0  0  0
  2  1  1  6
  2  3  1  0
  4  2  1  0
  4  5  1  6
  6  4  1  0
  6  7  2  0
  9 10  2  0
  9  8  1  0
 11  9  1  0
 12 13  1  0
 12 11  1  0
 13 14  1  0
 15 14  1  1
 15 16  1  0
 16  6  1  0
 17 15  1  0
 18 17  2  0
 20 19  1  6
 20 22  1  0
 21 20  1  0
 23 22  1  1
 23 24  1  0
 24 17  1  0
 25 23  1  0
 25 27  1  0
 26 25  2  0
M  END
$$$$
