VRL.pdb
     RDKit          3D

 27 26  0  0  1  0  0  0  0  0999 V2000
   26.6689  -21.7157  -10.7535 C   0  0  0  0  0  0  0  0  0  0  0  0
   26.2414  -20.4246  -10.0926 C   0  0  2  0  0  0  0  0  0  0  0  0
   26.1988  -20.6867   -8.5960 C   0  0  0  0  0  0  0  0  0  0  0  0
   24.8446  -20.0036  -10.5237 C   0  0  2  0  0  0  0  0  0  0  0  0
   23.8952  -21.0750  -10.2857 N   0  0  0  0  0  0  0  0  0  0  0  0
   24.8308  -19.6964  -11.9976 C   0  0  0  0  0  0  0  0  0  0  0  0
   25.5177  -18.7648  -12.4683 O   0  0  0  0  0  0  0  0  0  0  0  0
   27.8339  -21.9230  -17.2772 N   0  0  0  0  0  0  0  0  0  0  0  0
   27.5103  -23.1324  -16.6118 C   0  0  0  0  0  0  0  0  0  0  0  0
   28.2023  -24.1941  -16.8017 N   0  0  0  0  0  0  0  0  0  0  0  0
   26.4159  -23.1655  -15.7342 N   0  0  0  0  0  0  0  0  0  0  0  0
   25.0525  -23.3943  -16.1459 C   0  0  0  0  0  0  0  0  0  0  0  0
   24.1718  -22.4834  -15.2927 C   0  0  0  0  0  0  0  0  0  0  0  0
   24.7966  -21.1309  -15.0883 C   0  0  0  0  0  0  0  0  0  0  0  0
   23.9494  -20.2079  -14.2738 C   0  0  2  0  0  0  0  0  0  0  0  0
   24.0270  -20.4774  -12.8550 N   0  0  0  0  0  0  0  0  0  0  0  0
   22.5461  -20.0872  -14.7258 C   0  0  0  0  0  0  0  0  0  0  0  0
   21.5961  -20.7638  -14.2732 O   0  0  0  0  0  0  0  0  0  0  0  0
   27.9529  -25.1078  -16.3665 C   0  0  0  0  0  0  0  0  0  0  0  0
   20.1280  -15.5241  -17.5790 C   0  0  1  0  0  0  0  0  0  0  0  0
   20.0171  -16.6596  -16.5520 C   0  0  0  0  0  0  0  0  0  0  0  0
   20.5964  -16.1485  -15.2785 C   0  0  0  0  0  0  0  0  0  0  0  0
   20.6907  -17.8393  -17.1519 C   0  0  2  0  0  0  0  0  0  0  0  0
   20.8780  -19.0100  -16.2161 N   0  0  0  0  0  0  0  0  0  0  0  0
   22.2131  -19.1473  -15.7449 C   0  0  0  0  0  0  0  0  0  0  0  0
   20.3153  -20.2734  -16.7599 O   0  0  0  0  0  0  0  0  0  0  0  0
   20.9694  -21.0712  -17.4721 O   0  0  0  0  0  0  0  0  0  0  0  0
  2  1  1  6
  2  3  1  0
  4  2  1  0
  4  5  1  6
  6  4  1  0
  6  7  2  0
  9 10  2  0
  9  8  1  0
 11  9  1  0
 12 13  1  0
 12 11  1  0
 13 14  1  0
 15 14  1  6
 15 16  1  0
 16  6  1  0
 17 15  1  0
 18 17  2  0
 20 19  1  1
 20 22  1  0
 21 20  1  0
 23 22  1  1
 23 24  1  0
 24 17  1  0
 25 23  1  0
 25 27  1  0
 26 25  2  0
M  END
$$$$
