VRL.pdb
     RDKit          3D

 27 26  0  0  1  0  0  0  0  0999 V2000
   19.5341  -21.6451  -11.3442 C   0  0  0  0  0  0  0  0  0  0  0  0
   20.7713  -20.9050  -11.8003 C   0  0  2  0  0  0  0  0  0  0  0  0
   21.0205  -21.3078  -13.2446 C   0  0  0  0  0  0  0  0  0  0  0  0
   21.9988  -21.3045  -10.9952 C   0  0  2  0  0  0  0  0  0  0  0  0
   21.8261  -20.9528   -9.5979 N   0  0  0  0  0  0  0  0  0  0  0  0
   23.2111  -20.5726  -11.5067 C   0  0  0  0  0  0  0  0  0  0  0  0
   23.3710  -19.3541  -11.2816 O   0  0  0  0  0  0  0  0  0  0  0  0
   31.2983  -20.6386  -11.1221 N   0  0  0  0  0  0  0  0  0  0  0  0
   30.3380  -21.5427  -10.6018 C   0  0  0  0  0  0  0  0  0  0  0  0
   30.4282  -21.9802   -9.4007 N   0  0  0  0  0  0  0  0  0  0  0  0
   29.2754  -21.9641  -11.4156 N   0  0  0  0  0  0  0  0  0  0  0  0
   29.0610  -21.5126  -12.7686 C   0  0  0  0  0  0  0  0  0  0  0  0
   27.8129  -20.6322  -12.7508 C   0  0  0  0  0  0  0  0  0  0  0  0
   26.5515  -21.4462  -12.8398 C   0  0  0  0  0  0  0  0  0  0  0  0
   25.3118  -20.6119  -12.8502 C   0  0  2  0  0  0  0  0  0  0  0  0
   24.1780  -21.2809  -12.2515 N   0  0  0  0  0  0  0  0  0  0  0  0
   24.9639  -20.0281  -14.1640 C   0  0  0  0  0  0  0  0  0  0  0  0
   24.4106  -20.6565  -15.0936 O   0  0  0  0  0  0  0  0  0  0  0  0
   29.7165  -22.6177   -8.9843 C   0  0  0  0  0  0  0  0  0  0  0  0
   26.9033  -15.9467  -15.0374 C   0  0  2  0  0  0  0  0  0  0  0  0
   27.3962  -17.2522  -15.6769 C   0  0  0  0  0  0  0  0  0  0  0  0
   28.6418  -16.9237  -16.4246 C   0  0  0  0  0  0  0  0  0  0  0  0
   26.2670  -17.7802  -16.4839 C   0  0  2  0  0  0  0  0  0  0  0  0
   25.0100  -18.0794  -15.7016 N   0  0  0  0  0  0  0  0  0  0  0  0
   25.2633  -18.6592  -14.4277 C   0  0  0  0  0  0  0  0  0  0  0  0
   24.0050  -18.8302  -16.4983 O   0  0  0  0  0  0  0  0  0  0  0  0
   23.3008  -18.3059  -17.3933 O   0  0  0  0  0  0  0  0  0  0  0  0
  2  1  1  1
  2  3  1  0
  4  2  1  0
  4  5  1  1
  6  4  1  0
  6  7  2  0
  9 10  2  0
  9  8  1  0
 11  9  1  0
 12 13  1  0
 12 11  1  0
 13 14  1  0
 15 14  1  6
 15 16  1  0
 16  6  1  0
 17 15  1  0
 18 17  2  0
 20 19  1  1
 20 22  1  0
 21 20  1  0
 23 22  1  1
 23 24  1  0
 24 17  1  0
 25 23  1  0
 25 27  1  0
 26 25  2  0
M  END
$$$$
