ICP.pdb
     RDKit          3D

 22 22  0  0  1  0  0  0  0  0999 V2000
   11.1402  -15.3494   30.2244 C   0  0  0  0  0  0  0  0  0  0  0  0
    9.8595  -16.0444   29.8998 C   0  0  0  0  0  0  0  0  0  0  0  0
    9.4757  -15.9815   28.4618 C   0  0  2  0  0  0  0  0  0  0  0  0
    9.5895  -14.5461   27.9898 C   0  0  0  0  0  0  0  0  0  0  0  0
    8.1115  -16.5700   28.1850 C   0  0  2  0  0  0  0  0  0  0  0  0
    8.1774  -18.0371   28.2819 N   0  0  0  0  0  0  0  0  0  0  0  0
    7.6311  -16.2765   26.8141 C   0  0  0  0  0  0  0  0  0  0  0  0
    7.7851  -17.2093   25.9552 O   0  0  0  0  0  0  0  0  0  0  0  0
    7.0317  -15.0479   26.4392 N   0  0  0  0  0  0  0  0  0  0  0  0
    6.8084  -14.7788   25.0649 C   0  0  1  0  0  0  0  0  0  0  0  0
    6.2960  -13.3350   24.9648 C   0  0  0  0  0  0  0  0  0  0  0  0
    7.4131  -12.1715   25.7436 S   0  0  0  0  0  0  0  0  0  0  0  0
    7.9417  -14.9763   24.1580 C   0  0  0  0  0  0  0  0  0  0  0  0
    9.0379  -15.2563   24.7610 O   0  0  0  0  0  0  0  0  0  0  0  0
    7.9239  -14.8875   22.7486 N   0  0  0  0  0  0  0  0  0  0  0  0
    6.9274  -14.1065   21.9956 C   0  0  0  0  0  0  0  0  0  0  0  0
    6.4785  -15.1749   20.9892 C   0  0  0  0  0  0  0  0  0  0  0  0
    7.8596  -15.6230   20.4929 C   0  0  0  0  0  0  0  0  0  0  0  0
    8.7551  -15.4561   21.7252 C   0  0  1  0  0  0  0  0  0  0  0  0
    9.8330  -14.5142   21.3106 C   0  0  0  0  0  0  0  0  0  0  0  0
    9.6200  -13.2864   21.4597 O   0  0  0  0  0  0  0  0  0  0  0  0
   11.0272  -14.9464   20.7811 O   0  0  0  0  0  0  0  0  0  0  0  0
  1  2  1  0
  2  3  1  0
  3  4  1  1
  5  6  1  6
  5  3  1  0
  7  5  1  0
  7  9  1  0
  8  7  2  0
 10  9  1  0
 10 11  1  1
 11 12  1  0
 13 10  1  0
 14 13  2  0
 15 13  1  0
 15 16  1  0
 17 16  1  0
 18 19  1  0
 18 17  1  0
 19 20  1  6
 19 15  1  0
 20 22  1  0
 21 20  2  0
M  END
$$$$
