ICP.pdb
     RDKit          3D

 22 22  0  0  1  0  0  0  0  0999 V2000
    9.0947  -22.1413   24.0676 C   0  0  0  0  0  0  0  0  0  0  0  0
    8.1221  -21.1934   24.6875 C   0  0  0  0  0  0  0  0  0  0  0  0
    7.8998  -19.9451   23.9055 C   0  0  2  0  0  0  0  0  0  0  0  0
    9.2344  -19.2598   23.6924 C   0  0  0  0  0  0  0  0  0  0  0  0
    6.8766  -19.0261   24.5320 C   0  0  2  0  0  0  0  0  0  0  0  0
    5.5392  -19.6317   24.4278 N   0  0  0  0  0  0  0  0  0  0  0  0
    6.7838  -17.7192   23.8395 C   0  0  0  0  0  0  0  0  0  0  0  0
    6.0921  -17.7024   22.7658 O   0  0  0  0  0  0  0  0  0  0  0  0
    7.4100  -16.5370   24.3081 N   0  0  0  0  0  0  0  0  0  0  0  0
    7.3960  -15.3773   23.4919 C   0  0  1  0  0  0  0  0  0  0  0  0
    7.6981  -14.1796   24.4037 C   0  0  0  0  0  0  0  0  0  0  0  0
    9.2364  -14.3881   25.2970 S   0  0  0  0  0  0  0  0  0  0  0  0
    8.2942  -15.3702   22.3347 C   0  0  0  0  0  0  0  0  0  0  0  0
    9.1751  -16.3013   22.3639 O   0  0  0  0  0  0  0  0  0  0  0  0
    8.2688  -14.4679   21.2485 N   0  0  0  0  0  0  0  0  0  0  0  0
    7.5151  -13.2023   21.2603 C   0  0  0  0  0  0  0  0  0  0  0  0
    6.7597  -13.3468   19.9321 C   0  0  0  0  0  0  0  0  0  0  0  0
    7.9464  -13.7004   19.0259 C   0  0  0  0  0  0  0  0  0  0  0  0
    8.8816  -14.4874   19.9503 C   0  0  1  0  0  0  0  0  0  0  0  0
   10.1711  -13.7403   19.9433 C   0  0  0  0  0  0  0  0  0  0  0  0
   10.3637  -12.9063   20.8612 O   0  0  0  0  0  0  0  0  0  0  0  0
   11.1327  -13.9370   18.9790 O   0  0  0  0  0  0  0  0  0  0  0  0
  1  2  1  0
  2  3  1  0
  3  4  1  1
  5  6  1  6
  5  3  1  0
  7  5  1  0
  7  9  1  0
  8  7  2  0
 10  9  1  0
 10 11  1  1
 11 12  1  0
 13 10  1  0
 14 13  2  0
 15 13  1  0
 15 16  1  0
 17 16  1  0
 18 19  1  0
 18 17  1  0
 19 20  1  1
 19 15  1  0
 20 22  1  0
 21 20  2  0
M  END
$$$$
