ICP.pdb
     RDKit          3D

 22 22  0  0  1  0  0  0  0  0999 V2000
    7.7115  -12.0844   18.9633 C   0  0  0  0  0  0  0  0  0  0  0  0
    7.7933  -13.5305   19.3252 C   0  0  0  0  0  0  0  0  0  0  0  0
    7.5519  -13.8157   20.7672 C   0  0  2  0  0  0  0  0  0  0  0  0
    8.6119  -13.1088   21.5875 C   0  0  0  0  0  0  0  0  0  0  0  0
    7.4783  -15.2933   21.0761 C   0  0  2  0  0  0  0  0  0  0  0  0
    6.3259  -15.8869   20.3791 N   0  0  0  0  0  0  0  0  0  0  0  0
    7.2631  -15.5649   22.5170 C   0  0  0  0  0  0  0  0  0  0  0  0
    6.1865  -15.0969   23.0203 O   0  0  0  0  0  0  0  0  0  0  0  0
    8.1729  -16.2955   23.3219 N   0  0  0  0  0  0  0  0  0  0  0  0
    8.0040  -16.2957   24.7299 C   0  0  1  0  0  0  0  0  0  0  0  0
    7.3089  -17.6133   25.1013 C   0  0  0  0  0  0  0  0  0  0  0  0
    7.3867  -17.9399   26.8606 S   0  0  0  0  0  0  0  0  0  0  0  0
    9.2094  -16.1143   25.5423 C   0  0  0  0  0  0  0  0  0  0  0  0
   10.2508  -16.6740   25.0463 O   0  0  0  0  0  0  0  0  0  0  0  0
    9.3102  -15.4104   26.7625 N   0  0  0  0  0  0  0  0  0  0  0  0
    8.1581  -14.7952   27.4439 C   0  0  0  0  0  0  0  0  0  0  0  0
    8.7254  -13.3881   27.6766 C   0  0  0  0  0  0  0  0  0  0  0  0
   10.0663  -13.7791   28.3118 C   0  0  0  0  0  0  0  0  0  0  0  0
   10.4187  -15.1007   27.6208 C   0  0  1  0  0  0  0  0  0  0  0  0
   10.5566  -16.1001   28.7177 C   0  0  0  0  0  0  0  0  0  0  0  0
    9.6130  -16.9101   28.8868 O   0  0  0  0  0  0  0  0  0  0  0  0
   11.6657  -16.1558   29.5302 O   0  0  0  0  0  0  0  0  0  0  0  0
  1  2  1  0
  2  3  1  0
  3  4  1  1
  5  6  1  6
  5  3  1  0
  7  5  1  0
  7  9  1  0
  8  7  2  0
 10  9  1  0
 10 11  1  1
 11 12  1  0
 13 10  1  0
 14 13  2  0
 15 13  1  0
 15 16  1  0
 17 16  1  0
 18 19  1  0
 18 17  1  0
 19 20  1  1
 19 15  1  0
 20 22  1  0
 21 20  2  0
M  END
$$$$
