ICP.pdb
     RDKit          3D

 22 22  0  0  1  0  0  0  0  0999 V2000
    9.4090  -12.9716   18.4597 C   0  0  0  0  0  0  0  0  0  0  0  0
    7.9812  -13.4065   18.4309 C   0  0  0  0  0  0  0  0  0  0  0  0
    7.4157  -13.7419   19.7676 C   0  0  2  0  0  0  0  0  0  0  0  0
    7.6879  -12.5905   20.7143 C   0  0  0  0  0  0  0  0  0  0  0  0
    7.9158  -15.0610   20.3099 C   0  0  2  0  0  0  0  0  0  0  0  0
    7.4331  -16.1601   19.4585 N   0  0  0  0  0  0  0  0  0  0  0  0
    7.4044  -15.3490   21.6707 C   0  0  0  0  0  0  0  0  0  0  0  0
    6.1427  -15.2312   21.8311 O   0  0  0  0  0  0  0  0  0  0  0  0
    8.2326  -15.7346   22.7546 N   0  0  0  0  0  0  0  0  0  0  0  0
    7.6893  -15.7609   24.0643 C   0  0  1  0  0  0  0  0  0  0  0  0
    7.2826  -17.2124   24.3555 C   0  0  0  0  0  0  0  0  0  0  0  0
    6.9185  -17.4716   26.0899 S   0  0  0  0  0  0  0  0  0  0  0  0
    8.5360  -15.2475   25.1437 C   0  0  0  0  0  0  0  0  0  0  0  0
    9.7801  -15.5173   24.9917 O   0  0  0  0  0  0  0  0  0  0  0  0
    8.1139  -14.5186   26.2774 N   0  0  0  0  0  0  0  0  0  0  0  0
    6.7035  -14.3903   26.6826 C   0  0  0  0  0  0  0  0  0  0  0  0
    6.6271  -12.8664   26.8490 C   0  0  0  0  0  0  0  0  0  0  0  0
    7.8603  -12.6668   27.7401 C   0  0  0  0  0  0  0  0  0  0  0  0
    8.8237  -13.7618   27.2698 C   0  0  1  0  0  0  0  0  0  0  0  0
    9.1149  -14.5832   28.4787 C   0  0  0  0  0  0  0  0  0  0  0  0
    9.8457  -14.0750   29.3634 O   0  0  0  0  0  0  0  0  0  0  0  0
    8.6148  -15.8542   28.6454 O   0  0  0  0  0  0  0  0  0  0  0  0
  1  2  1  0
  2  3  1  0
  3  4  1  1
  5  6  1  6
  5  3  1  0
  7  5  1  0
  7  9  1  0
  8  7  2  0
 10  9  1  0
 10 11  1  1
 11 12  1  0
 13 10  1  0
 14 13  2  0
 15 13  1  0
 15 16  1  0
 17 16  1  0
 18 19  1  0
 18 17  1  0
 19 20  1  1
 19 15  1  0
 20 22  1  0
 21 20  2  0
M  END
$$$$
