ICP.pdb
     RDKit          3D

 22 22  0  0  1  0  0  0  0  0999 V2000
    6.9677  -12.5006   18.7998 C   0  0  0  0  0  0  0  0  0  0  0  0
    7.3269  -13.8855   19.2262 C   0  0  0  0  0  0  0  0  0  0  0  0
    8.3994  -13.9500   20.2581 C   0  0  2  0  0  0  0  0  0  0  0  0
    9.7405  -14.0556   19.5606 C   0  0  0  0  0  0  0  0  0  0  0  0
    8.1882  -15.0564   21.2657 C   0  0  2  0  0  0  0  0  0  0  0  0
    6.8368  -15.6176   21.1073 N   0  0  0  0  0  0  0  0  0  0  0  0
    8.2648  -14.5756   22.6654 C   0  0  0  0  0  0  0  0  0  0  0  0
    9.0317  -13.5753   22.8725 O   0  0  0  0  0  0  0  0  0  0  0  0
    7.5465  -15.1630   23.7370 N   0  0  0  0  0  0  0  0  0  0  0  0
    7.7413  -14.6697   25.0522 C   0  0  1  0  0  0  0  0  0  0  0  0
    6.3528  -14.3542   25.6265 C   0  0  0  0  0  0  0  0  0  0  0  0
    6.4275  -13.9247   27.3637 S   0  0  0  0  0  0  0  0  0  0  0  0
    8.4879  -15.5254   25.9776 C   0  0  0  0  0  0  0  0  0  0  0  0
    8.3933  -16.7755   25.7092 O   0  0  0  0  0  0  0  0  0  0  0  0
    9.2615  -15.1057   27.0821 N   0  0  0  0  0  0  0  0  0  0  0  0
    9.0449  -13.8318   27.7894 C   0  0  0  0  0  0  0  0  0  0  0  0
   10.4823  -13.2933   27.7837 C   0  0  0  0  0  0  0  0  0  0  0  0
   11.1991  -14.5358   28.3286 C   0  0  0  0  0  0  0  0  0  0  0  0
   10.3663  -15.6996   27.7807 C   0  0  1  0  0  0  0  0  0  0  0  0
    9.9103  -16.4621   28.9772 C   0  0  0  0  0  0  0  0  0  0  0  0
    8.7331  -16.2754   29.3704 O   0  0  0  0  0  0  0  0  0  0  0  0
   10.7276  -17.3444   29.6456 O   0  0  0  0  0  0  0  0  0  0  0  0
  1  2  1  0
  2  3  1  0
  3  4  1  6
  5  6  1  6
  5  3  1  0
  7  5  1  0
  7  9  1  0
  8  7  2  0
 10  9  1  0
 10 11  1  1
 11 12  1  0
 13 10  1  0
 14 13  2  0
 15 13  1  0
 15 16  1  0
 17 16  1  0
 18 19  1  0
 18 17  1  0
 19 20  1  1
 19 15  1  0
 20 22  1  0
 21 20  2  0
M  END
$$$$
