ICP.pdb
     RDKit          3D

 22 22  0  0  1  0  0  0  0  0999 V2000
    5.1462  -20.3263   19.3946 C   0  0  0  0  0  0  0  0  0  0  0  0
    5.2711  -19.0167   20.1004 C   0  0  0  0  0  0  0  0  0  0  0  0
    4.4841  -18.9231   21.3617 C   0  0  2  0  0  0  0  0  0  0  0  0
    3.4507  -17.8251   21.2105 C   0  0  0  0  0  0  0  0  0  0  0  0
    5.3474  -18.7334   22.5876 C   0  0  2  0  0  0  0  0  0  0  0  0
    4.5043  -18.7545   23.7938 N   0  0  0  0  0  0  0  0  0  0  0  0
    6.0395  -17.4231   22.6009 C   0  0  0  0  0  0  0  0  0  0  0  0
    5.2877  -16.3936   22.6815 O   0  0  0  0  0  0  0  0  0  0  0  0
    7.4479  -17.2791   22.5300 N   0  0  0  0  0  0  0  0  0  0  0  0
    7.9989  -16.0038   22.2450 C   0  0  1  0  0  0  0  0  0  0  0  0
    9.2130  -15.8201   23.1665 C   0  0  0  0  0  0  0  0  0  0  0  0
    8.7378  -15.7234   24.8907 S   0  0  0  0  0  0  0  0  0  0  0  0
    8.3761  -15.7404   20.8542 C   0  0  0  0  0  0  0  0  0  0  0  0
    8.3078  -16.7748   20.0999 O   0  0  0  0  0  0  0  0  0  0  0  0
    8.7871  -14.5046   20.3079 N   0  0  0  0  0  0  0  0  0  0  0  0
    9.0478  -13.3032   21.1194 C   0  0  0  0  0  0  0  0  0  0  0  0
    8.1991  -12.2864   20.3437 C   0  0  0  0  0  0  0  0  0  0  0  0
    8.7257  -12.5723   18.9311 C   0  0  0  0  0  0  0  0  0  0  0  0
    9.0458  -14.0706   18.9639 C   0  0  1  0  0  0  0  0  0  0  0  0
   10.4929  -14.1770   18.6242 C   0  0  0  0  0  0  0  0  0  0  0  0
   11.3130  -14.1862   19.5743 O   0  0  0  0  0  0  0  0  0  0  0  0
   10.9419  -14.2633   17.3264 O   0  0  0  0  0  0  0  0  0  0  0  0
  1  2  1  0
  2  3  1  0
  3  4  1  6
  5  6  1  1
  5  3  1  0
  7  5  1  0
  7  9  1  0
  8  7  2  0
 10  9  1  0
 10 11  1  1
 11 12  1  0
 13 10  1  0
 14 13  2  0
 15 13  1  0
 15 16  1  0
 17 16  1  0
 18 19  1  0
 18 17  1  0
 19 20  1  1
 19 15  1  0
 20 22  1  0
 21 20  2  0
M  END
$$$$
