ICP.pdb
     RDKit          3D

 22 22  0  0  1  0  0  0  0  0999 V2000
    5.7694  -19.2773   18.9376 C   0  0  0  0  0  0  0  0  0  0  0  0
    4.9693  -18.9193   20.1461 C   0  0  0  0  0  0  0  0  0  0  0  0
    5.0917  -19.8880   21.2710 C   0  0  2  0  0  0  0  0  0  0  0  0
    4.6610  -21.2568   20.7840 C   0  0  0  0  0  0  0  0  0  0  0  0
    4.3409  -19.4574   22.5099 C   0  0  2  0  0  0  0  0  0  0  0  0
    2.9222  -19.2470   22.1797 N   0  0  0  0  0  0  0  0  0  0  0  0
    4.8260  -18.1659   23.0510 C   0  0  0  0  0  0  0  0  0  0  0  0
    4.2796  -17.1165   22.5695 O   0  0  0  0  0  0  0  0  0  0  0  0
    5.8333  -18.0596   24.0427 N   0  0  0  0  0  0  0  0  0  0  0  0
    6.6035  -16.8715   24.1211 C   0  0  1  0  0  0  0  0  0  0  0  0
    7.1852  -16.8031   25.5402 C   0  0  0  0  0  0  0  0  0  0  0  0
    8.3073  -15.4213   25.7391 S   0  0  0  0  0  0  0  0  0  0  0  0
    7.6694  -16.7059   23.1300 C   0  0  0  0  0  0  0  0  0  0  0  0
    8.2084  -17.8112   22.7673 O   0  0  0  0  0  0  0  0  0  0  0  0
    8.1262  -15.4913   22.5726 N   0  0  0  0  0  0  0  0  0  0  0  0
    7.7473  -14.1655   23.0909 C   0  0  0  0  0  0  0  0  0  0  0  0
    7.2997  -13.5018   21.7813 C   0  0  0  0  0  0  0  0  0  0  0  0
    8.5250  -13.8351   20.9200 C   0  0  0  0  0  0  0  0  0  0  0  0
    8.9887  -15.1903   21.4649 C   0  0  1  0  0  0  0  0  0  0  0  0
   10.3959  -14.9815   21.9088 C   0  0  0  0  0  0  0  0  0  0  0  0
   10.6073  -14.8861   23.1423 O   0  0  0  0  0  0  0  0  0  0  0  0
   11.4441  -14.8929   21.0219 O   0  0  0  0  0  0  0  0  0  0  0  0
  1  2  1  0
  2  3  1  0
  3  4  1  6
  5  6  1  6
  5  3  1  0
  7  5  1  0
  7  9  1  0
  8  7  2  0
 10  9  1  0
 10 11  1  1
 11 12  1  0
 13 10  1  0
 14 13  2  0
 15 13  1  0
 15 16  1  0
 17 16  1  0
 18 19  1  0
 18 17  1  0
 19 20  1  1
 19 15  1  0
 20 22  1  0
 21 20  2  0
M  END
$$$$
