ICP.pdb
     RDKit          3D

 22 22  0  0  1  0  0  0  0  0999 V2000
    9.7259  -21.4794   24.6676 C   0  0  0  0  0  0  0  0  0  0  0  0
    8.7263  -20.5915   25.3317 C   0  0  0  0  0  0  0  0  0  0  0  0
    8.3362  -19.3994   24.5280 C   0  0  2  0  0  0  0  0  0  0  0  0
    9.5870  -18.6213   24.1725 C   0  0  0  0  0  0  0  0  0  0  0  0
    7.2986  -18.5374   25.2093 C   0  0  2  0  0  0  0  0  0  0  0  0
    6.0296  -19.2765   25.3077 N   0  0  0  0  0  0  0  0  0  0  0  0
    6.9905  -17.3049   24.4463 C   0  0  0  0  0  0  0  0  0  0  0  0
    6.2753  -17.4587   23.3992 O   0  0  0  0  0  0  0  0  0  0  0  0
    7.4433  -16.0155   24.8227 N   0  0  0  0  0  0  0  0  0  0  0  0
    7.4059  -14.9647   23.8712 C   0  0  1  0  0  0  0  0  0  0  0  0
    7.7083  -13.6618   24.6249 C   0  0  0  0  0  0  0  0  0  0  0  0
    6.6115  -13.4247   26.0209 S   0  0  0  0  0  0  0  0  0  0  0  0
    8.2877  -15.0916   22.7083 C   0  0  0  0  0  0  0  0  0  0  0  0
    9.1216  -16.0610   22.8007 O   0  0  0  0  0  0  0  0  0  0  0  0
    8.2924  -14.2750   21.5560 N   0  0  0  0  0  0  0  0  0  0  0  0
    7.5270  -13.0213   21.4447 C   0  0  0  0  0  0  0  0  0  0  0  0
    6.8206  -13.2757   20.1060 C   0  0  0  0  0  0  0  0  0  0  0  0
    8.0420  -13.6830   19.2713 C   0  0  0  0  0  0  0  0  0  0  0  0
    8.9511  -14.3859   20.2851 C   0  0  1  0  0  0  0  0  0  0  0  0
   10.2330  -13.6260   20.2657 C   0  0  0  0  0  0  0  0  0  0  0  0
   10.3864  -12.7246   21.1255 O   0  0  0  0  0  0  0  0  0  0  0  0
   11.2286  -13.8815   19.3510 O   0  0  0  0  0  0  0  0  0  0  0  0
  1  2  1  0
  2  3  1  0
  3  4  1  1
  5  6  1  6
  5  3  1  0
  7  5  1  0
  7  9  1  0
  8  7  2  0
 10  9  1  0
 10 11  1  1
 11 12  1  0
 13 10  1  0
 14 13  2  0
 15 13  1  0
 15 16  1  0
 17 16  1  0
 18 19  1  0
 18 17  1  0
 19 20  1  1
 19 15  1  0
 20 22  1  0
 21 20  2  0
M  END
$$$$
