ICP.pdb
     RDKit          3D

 22 22  0  0  1  0  0  0  0  0999 V2000
    8.4745  -18.0485   12.5960 C   0  0  0  0  0  0  0  0  0  0  0  0
    7.9089  -18.8066   13.7510 C   0  0  0  0  0  0  0  0  0  0  0  0
    7.7001  -17.9880   14.9779 C   0  0  2  0  0  0  0  0  0  0  0  0
    8.9885  -17.2594   15.3024 C   0  0  0  0  0  0  0  0  0  0  0  0
    7.1860  -18.7934   16.1489 C   0  0  2  0  0  0  0  0  0  0  0  0
    5.9198  -19.4474   15.7809 N   0  0  0  0  0  0  0  0  0  0  0  0
    6.8782  -17.9516   17.3291 C   0  0  0  0  0  0  0  0  0  0  0  0
    6.4473  -16.7752   17.0806 O   0  0  0  0  0  0  0  0  0  0  0  0
    7.0388  -18.3890   18.6678 N   0  0  0  0  0  0  0  0  0  0  0  0
    6.8489  -17.4629   19.7249 C   0  0  1  0  0  0  0  0  0  0  0  0
    6.2694  -18.2452   20.9121 C   0  0  0  0  0  0  0  0  0  0  0  0
    6.3539  -17.3096   22.4370 S   0  0  0  0  0  0  0  0  0  0  0  0
    8.0205  -16.6936   20.1509 C   0  0  0  0  0  0  0  0  0  0  0  0
    9.1260  -17.3301   20.0227 O   0  0  0  0  0  0  0  0  0  0  0  0
    8.0288  -15.3778   20.6640 N   0  0  0  0  0  0  0  0  0  0  0  0
    6.8076  -14.5860   20.8913 C   0  0  0  0  0  0  0  0  0  0  0  0
    7.2070  -13.2936   20.1660 C   0  0  0  0  0  0  0  0  0  0  0  0
    8.5783  -13.0741   20.8184 C   0  0  0  0  0  0  0  0  0  0  0  0
    9.0866  -14.4972   21.0725 C   0  0  1  0  0  0  0  0  0  0  0  0
    9.3289  -14.5782   22.5407 C   0  0  0  0  0  0  0  0  0  0  0  0
    8.4503  -15.1335   23.2442 O   0  0  0  0  0  0  0  0  0  0  0  0
   10.4643  -14.0717   23.1304 O   0  0  0  0  0  0  0  0  0  0  0  0
  1  2  1  0
  2  3  1  0
  3  4  1  1
  5  6  1  6
  5  3  1  0
  7  5  1  0
  7  9  1  0
  8  7  2  0
 10  9  1  0
 10 11  1  1
 11 12  1  0
 13 10  1  0
 14 13  2  0
 15 13  1  0
 15 16  1  0
 17 16  1  0
 18 19  1  0
 18 17  1  0
 19 20  1  1
 19 15  1  0
 20 22  1  0
 21 20  2  0
M  END
$$$$
