ICP.pdb
     RDKit          3D

 22 22  0  0  1  0  0  0  0  0999 V2000
    7.6391  -22.2993   24.0088 C   0  0  0  0  0  0  0  0  0  0  0  0
    7.5612  -21.1242   23.0913 C   0  0  0  0  0  0  0  0  0  0  0  0
    6.2100  -20.8897   22.5096 C   0  0  2  0  0  0  0  0  0  0  0  0
    6.3725  -20.3156   21.1167 C   0  0  0  0  0  0  0  0  0  0  0  0
    5.3276  -20.0301   23.3851 C   0  0  2  0  0  0  0  0  0  0  0  0
    3.9289  -20.1458   22.9420 N   0  0  0  0  0  0  0  0  0  0  0  0
    5.6630  -18.5895   23.2934 C   0  0  0  0  0  0  0  0  0  0  0  0
    5.3273  -18.0045   22.2087 O   0  0  0  0  0  0  0  0  0  0  0  0
    6.3159  -17.8688   24.3248 N   0  0  0  0  0  0  0  0  0  0  0  0
    6.8271  -16.5755   24.0474 C   0  0  1  0  0  0  0  0  0  0  0  0
    7.2487  -15.9591   25.3888 C   0  0  0  0  0  0  0  0  0  0  0  0
    8.0628  -14.3783   25.1741 S   0  0  0  0  0  0  0  0  0  0  0  0
    7.9277  -16.4900   23.0844 C   0  0  0  0  0  0  0  0  0  0  0  0
    8.6644  -17.5389   23.0537 O   0  0  0  0  0  0  0  0  0  0  0  0
    8.2260  -15.4030   22.2335 N   0  0  0  0  0  0  0  0  0  0  0  0
    7.5416  -14.1007   22.3078 C   0  0  0  0  0  0  0  0  0  0  0  0
    7.1653  -13.9296   20.8296 C   0  0  0  0  0  0  0  0  0  0  0  0
    8.5383  -14.2110   20.2051 C   0  0  0  0  0  0  0  0  0  0  0  0
    9.1633  -15.2345   21.1591 C   0  0  1  0  0  0  0  0  0  0  0  0
   10.4328  -14.6145   21.6335 C   0  0  0  0  0  0  0  0  0  0  0  0
   10.4361  -14.1030   22.7796 O   0  0  0  0  0  0  0  0  0  0  0  0
   11.5740  -14.5894   20.8651 O   0  0  0  0  0  0  0  0  0  0  0  0
  1  2  1  0
  2  3  1  0
  3  4  1  6
  5  6  1  6
  5  3  1  0
  7  5  1  0
  7  9  1  0
  8  7  2  0
 10  9  1  0
 10 11  1  1
 11 12  1  0
 13 10  1  0
 14 13  2  0
 15 13  1  0
 15 16  1  0
 17 16  1  0
 18 19  1  0
 18 17  1  0
 19 20  1  1
 19 15  1  0
 20 22  1  0
 21 20  2  0
M  END
$$$$
