ICP.pdb
     RDKit          3D

 22 22  0  0  1  0  0  0  0  0999 V2000
   10.3876  -14.8384   30.1341 C   0  0  0  0  0  0  0  0  0  0  0  0
   10.8464  -16.1052   29.4910 C   0  0  0  0  0  0  0  0  0  0  0  0
   10.2530  -16.3608   28.1488 C   0  0  2  0  0  0  0  0  0  0  0  0
   10.3888  -15.1065   27.3095 C   0  0  0  0  0  0  0  0  0  0  0  0
    8.8264  -16.8553   28.2147 C   0  0  2  0  0  0  0  0  0  0  0  0
    8.8158  -18.2923   28.5327 N   0  0  0  0  0  0  0  0  0  0  0  0
    8.1162  -16.7223   26.9208 C   0  0  0  0  0  0  0  0  0  0  0  0
    8.5686  -17.4301   25.9585 O   0  0  0  0  0  0  0  0  0  0  0  0
    6.9992  -15.8724   26.7228 N   0  0  0  0  0  0  0  0  0  0  0  0
    6.9631  -15.0333   25.5801 C   0  0  1  0  0  0  0  0  0  0  0  0
    6.9128  -13.5843   26.0851 C   0  0  0  0  0  0  0  0  0  0  0  0
    6.9756  -12.4030   24.7403 S   0  0  0  0  0  0  0  0  0  0  0  0
    8.0465  -15.1915   24.6069 C   0  0  0  0  0  0  0  0  0  0  0  0
    9.1405  -15.6169   25.1225 O   0  0  0  0  0  0  0  0  0  0  0  0
    7.9852  -14.9268   23.2210 N   0  0  0  0  0  0  0  0  0  0  0  0
    6.9819  -14.0407   22.6060 C   0  0  0  0  0  0  0  0  0  0  0  0
    6.4781  -14.9669   21.4906 C   0  0  0  0  0  0  0  0  0  0  0  0
    7.8326  -15.3730   20.8949 C   0  0  0  0  0  0  0  0  0  0  0  0
    8.7707  -15.3770   22.1067 C   0  0  1  0  0  0  0  0  0  0  0  0
    9.8545  -14.4094   21.7754 C   0  0  0  0  0  0  0  0  0  0  0  0
   10.7201  -14.7705   20.9414 O   0  0  0  0  0  0  0  0  0  0  0  0
    9.9285  -13.1600   22.3471 O   0  0  0  0  0  0  0  0  0  0  0  0
  1  2  1  0
  2  3  1  0
  3  4  1  6
  5  6  1  6
  5  3  1  0
  7  5  1  0
  7  9  1  0
  8  7  2  0
 10  9  1  0
 10 11  1  1
 11 12  1  0
 13 10  1  0
 14 13  2  0
 15 13  1  0
 15 16  1  0
 17 16  1  0
 18 19  1  0
 18 17  1  0
 19 20  1  6
 19 15  1  0
 20 22  1  0
 21 20  2  0
M  END
$$$$
