DWN.pdb
     RDKit          3D

 31 32  0  0  1  0  0  0  0  0999 V2000
   28.1460  -22.8451  -16.5579 N   0  0  0  0  0  0  0  0  0  0  0  0
   27.5959  -21.6240  -16.0136 C   0  0  1  0  0  0  0  0  0  0  0  0
   26.6944  -21.0351  -17.0674 C   0  0  0  0  0  0  0  0  0  0  0  0
   27.5156  -20.5272  -18.2034 C   0  0  0  0  0  0  0  0  0  0  0  0
   28.5659  -19.8489  -17.9950 O   0  0  0  0  0  0  0  0  0  0  0  0
   26.7684  -21.8971  -14.8167 C   0  0  0  0  0  0  0  0  0  0  0  0
   26.1912  -22.9971  -14.6741 O   0  0  0  0  0  0  0  0  0  0  0  0
   27.1490  -20.7828  -19.5002 O   0  0  0  0  0  0  0  0  0  0  0  0
   26.6220  -20.9099  -13.8111 N   0  0  0  0  0  0  0  0  0  0  0  0
   25.9056  -21.1337  -12.5981 C   0  0  1  0  0  0  0  0  0  0  0  0
   26.2635  -20.2670  -11.4536 C   0  0  0  0  0  0  0  0  0  0  0  0
   27.4358  -20.6908  -10.6916 C   0  0  0  0  0  0  0  0  0  0  0  0
   28.5959  -21.2243  -11.1869 C   0  0  0  0  0  0  0  0  0  0  0  0
   29.4600  -21.4941  -10.1855 N   0  0  0  0  0  0  0  0  0  0  0  0
   28.8566  -21.1349   -9.0492 C   0  0  0  0  0  0  0  0  0  0  0  0
   29.3442  -21.2208   -7.7557 C   0  0  0  0  0  0  0  0  0  0  0  0
   28.5095  -20.7768   -6.7403 C   0  0  0  0  0  0  0  0  0  0  0  0
   27.2432  -20.2671   -6.9904 C   0  0  0  0  0  0  0  0  0  0  0  0
   26.7825  -20.1935   -8.2898 C   0  0  0  0  0  0  0  0  0  0  0  0
   27.5866  -20.6272   -9.3227 C   0  0  0  0  0  0  0  0  0  0  0  0
   24.4491  -20.8795  -12.9267 C   0  0  0  0  0  0  0  0  0  0  0  0
   24.0874  -19.9750  -13.7126 O   0  0  0  0  0  0  0  0  0  0  0  0
   19.6881  -21.6053  -14.1207 N   0  0  0  0  0  0  0  0  0  0  0  0
   20.0685  -22.7352  -13.3473 C   0  0  0  0  0  0  0  0  0  0  0  0
   19.4176  -23.7949  -13.4452 O   0  0  0  0  0  0  0  0  0  0  0  0
   21.2317  -22.6524  -12.4392 C   0  0  0  0  0  0  0  0  0  0  0  0
   22.0134  -21.3447  -12.6139 C   0  0  2  0  0  0  0  0  0  0  0  0
   23.4072  -21.6639  -12.3540 N   0  0  0  0  0  0  0  0  0  0  0  0
   21.5569  -20.3184  -11.6370 C   0  0  0  0  0  0  0  0  0  0  0  0
   20.6502  -19.3289  -11.9631 O   0  0  0  0  0  0  0  0  0  0  0  0
   21.9803  -20.2862  -10.4282 O   0  0  0  0  0  0  0  0  0  0  0  0
  2  1  1  6
  3  4  1  0
  3  2  1  0
  4  5  2  0
  4  8  1  0
  6  2  1  0
  6  7  2  0
  9  6  1  0
 10  9  1  0
 10 11  1  1
 12 11  1  0
 12 13  2  0
 14 13  1  0
 15 14  1  0
 16 15  2  0
 17 16  1  0
 18 17  2  0
 18 19  1  0
 19 20  2  0
 20 15  1  0
 20 12  1  0
 21 10  1  0
 22 21  2  0
 23 24  1  0
 24 25  2  0
 26 24  1  0
 27 26  1  1
 27 28  1  0
 27 29  1  0
 28 21  1  0
 29 30  1  0
 31 29  2  0
M  END
$$$$
