DWN.pdb
     RDKit          3D

 31 32  0  0  1  0  0  0  0  0999 V2000
   28.4977  -21.5749  -15.7837 N   0  0  0  0  0  0  0  0  0  0  0  0
   27.8226  -20.5577  -15.0095 C   0  0  1  0  0  0  0  0  0  0  0  0
   26.9963  -19.7436  -15.9711 C   0  0  0  0  0  0  0  0  0  0  0  0
   27.8951  -18.9615  -16.8674 C   0  0  0  0  0  0  0  0  0  0  0  0
   27.9438  -19.2021  -18.1110 O   0  0  0  0  0  0  0  0  0  0  0  0
   26.8981  -21.1617  -14.0235 C   0  0  0  0  0  0  0  0  0  0  0  0
   26.3602  -22.2688  -14.2438 O   0  0  0  0  0  0  0  0  0  0  0  0
   28.6909  -17.9649  -16.3626 O   0  0  0  0  0  0  0  0  0  0  0  0
   26.6122  -20.4894  -12.8096 N   0  0  0  0  0  0  0  0  0  0  0  0
   25.7910  -21.0468  -11.7850 C   0  0  1  0  0  0  0  0  0  0  0  0
   26.0175  -20.5413  -10.4131 C   0  0  0  0  0  0  0  0  0  0  0  0
   27.2792  -20.9472   -9.7980 C   0  0  0  0  0  0  0  0  0  0  0  0
   28.2395  -21.7598  -10.3392 C   0  0  0  0  0  0  0  0  0  0  0  0
   29.2710  -21.9121   -9.4818 N   0  0  0  0  0  0  0  0  0  0  0  0
   28.9742  -21.1989   -8.3921 C   0  0  0  0  0  0  0  0  0  0  0  0
   29.7242  -21.0454   -7.2379 C   0  0  0  0  0  0  0  0  0  0  0  0
   29.1851  -20.2438   -6.2420 C   0  0  0  0  0  0  0  0  0  0  0  0
   27.9544  -19.6172   -6.3789 C   0  0  0  0  0  0  0  0  0  0  0  0
   27.2280  -19.7882   -7.5404 C   0  0  0  0  0  0  0  0  0  0  0  0
   27.7346  -20.5793   -8.5498 C   0  0  0  0  0  0  0  0  0  0  0  0
   24.3657  -20.7066  -12.1684 C   0  0  0  0  0  0  0  0  0  0  0  0
   24.0289  -19.5627  -12.5484 O   0  0  0  0  0  0  0  0  0  0  0  0
   19.5817  -22.9535  -14.8043 N   0  0  0  0  0  0  0  0  0  0  0  0
   19.9819  -22.5597  -13.4988 C   0  0  0  0  0  0  0  0  0  0  0  0
   19.1337  -22.1003  -12.7078 O   0  0  0  0  0  0  0  0  0  0  0  0
   21.3933  -22.7013  -13.0835 C   0  0  0  0  0  0  0  0  0  0  0  0
   21.9990  -21.3708  -12.6203 C   0  0  2  0  0  0  0  0  0  0  0  0
   23.3269  -21.6796  -12.1166 N   0  0  0  0  0  0  0  0  0  0  0  0
   21.1885  -20.7708  -11.5252 C   0  0  0  0  0  0  0  0  0  0  0  0
   21.3038  -21.1686  -10.2075 O   0  0  0  0  0  0  0  0  0  0  0  0
   20.3271  -19.8464  -11.7371 O   0  0  0  0  0  0  0  0  0  0  0  0
  2  1  1  6
  3  4  1  0
  3  2  1  0
  4  5  2  0
  4  8  1  0
  6  2  1  0
  6  7  2  0
  9  6  1  0
 10  9  1  0
 10 11  1  1
 12 11  1  0
 12 13  2  0
 14 13  1  0
 15 14  1  0
 16 15  2  0
 17 16  1  0
 18 17  2  0
 18 19  1  0
 19 20  2  0
 20 15  1  0
 20 12  1  0
 21 10  1  0
 22 21  2  0
 23 24  1  0
 24 25  2  0
 26 24  1  0
 27 26  1  1
 27 28  1  0
 27 29  1  0
 28 21  1  0
 29 30  1  0
 31 29  2  0
M  END
$$$$
