DWN.pdb
     RDKit          3D

 31 32  0  0  1  0  0  0  0  0999 V2000
   28.2803  -22.5864  -17.0933 N   0  0  0  0  0  0  0  0  0  0  0  0
   27.9082  -21.3479  -16.4472 C   0  0  1  0  0  0  0  0  0  0  0  0
   27.0032  -20.6065  -17.3967 C   0  0  0  0  0  0  0  0  0  0  0  0
   27.6411  -19.3194  -17.7958 C   0  0  0  0  0  0  0  0  0  0  0  0
   28.6599  -18.8804  -17.1827 O   0  0  0  0  0  0  0  0  0  0  0  0
   27.1440  -21.6013  -15.2048 C   0  0  0  0  0  0  0  0  0  0  0  0
   26.3493  -22.5635  -15.1263 O   0  0  0  0  0  0  0  0  0  0  0  0
   27.1358  -18.5817  -18.8359 O   0  0  0  0  0  0  0  0  0  0  0  0
   27.3071  -20.7528  -14.0820 N   0  0  0  0  0  0  0  0  0  0  0  0
   26.7117  -21.0167  -12.8130 C   0  0  1  0  0  0  0  0  0  0  0  0
   27.3371  -20.3600  -11.6439 C   0  0  0  0  0  0  0  0  0  0  0  0
   26.6584  -20.5768  -10.3684 C   0  0  0  0  0  0  0  0  0  0  0  0
   25.4919  -21.2628  -10.1581 C   0  0  0  0  0  0  0  0  0  0  0  0
   25.1678  -21.2580   -8.8477 N   0  0  0  0  0  0  0  0  0  0  0  0
   26.1238  -20.5705   -8.2173 C   0  0  0  0  0  0  0  0  0  0  0  0
   26.2293  -20.2927   -6.8645 C   0  0  0  0  0  0  0  0  0  0  0  0
   27.3297  -19.5504   -6.4609 C   0  0  0  0  0  0  0  0  0  0  0  0
   28.2895  -19.0998   -7.3562 C   0  0  0  0  0  0  0  0  0  0  0  0
   28.1588  -19.3910   -8.6993 C   0  0  0  0  0  0  0  0  0  0  0  0
   27.0762  -20.1262   -9.1342 C   0  0  0  0  0  0  0  0  0  0  0  0
   25.2870  -20.5123  -12.9132 C   0  0  0  0  0  0  0  0  0  0  0  0
   25.0091  -19.3708  -13.3446 O   0  0  0  0  0  0  0  0  0  0  0  0
   20.0684  -22.3758  -14.4205 N   0  0  0  0  0  0  0  0  0  0  0  0
   20.5776  -22.0398  -13.1369 C   0  0  0  0  0  0  0  0  0  0  0  0
   19.8108  -21.5624  -12.2767 O   0  0  0  0  0  0  0  0  0  0  0  0
   22.0054  -22.2622  -12.8261 C   0  0  0  0  0  0  0  0  0  0  0  0
   22.8308  -20.9741  -12.9325 C   0  0  2  0  0  0  0  0  0  0  0  0
   24.1809  -21.3185  -12.5192 N   0  0  0  0  0  0  0  0  0  0  0  0
   22.2950  -19.9233  -12.0243 C   0  0  0  0  0  0  0  0  0  0  0  0
   21.5165  -18.8747  -12.4737 O   0  0  0  0  0  0  0  0  0  0  0  0
   22.5256  -19.9236  -10.7640 O   0  0  0  0  0  0  0  0  0  0  0  0
  2  1  1  6
  3  4  1  0
  3  2  1  0
  4  5  2  0
  4  8  1  0
  6  2  1  0
  6  7  2  0
  9  6  1  0
 10  9  1  0
 10 11  1  1
 12 11  1  0
 12 13  2  0
 14 13  1  0
 15 14  1  0
 16 15  2  0
 17 16  1  0
 18 17  2  0
 18 19  1  0
 19 20  2  0
 20 15  1  0
 20 12  1  0
 21 10  1  0
 22 21  2  0
 23 24  1  0
 24 25  2  0
 26 24  1  0
 27 26  1  1
 27 28  1  0
 27 29  1  0
 28 21  1  0
 29 30  1  0
 31 29  2  0
M  END
$$$$
