DWN.pdb
     RDKit          3D

 31 32  0  0  1  0  0  0  0  0999 V2000
   31.3389    3.6064  -14.0361 N   0  0  0  0  0  0  0  0  0  0  0  0
   31.7936    3.6230  -12.6640 C   0  0  1  0  0  0  0  0  0  0  0  0
   32.2024    5.0386  -12.3491 C   0  0  0  0  0  0  0  0  0  0  0  0
   33.6557    5.2156  -12.6307 C   0  0  0  0  0  0  0  0  0  0  0  0
   34.4504    4.2287  -12.5951 O   0  0  0  0  0  0  0  0  0  0  0  0
   30.7022    3.2538  -11.7344 C   0  0  0  0  0  0  0  0  0  0  0  0
   29.5809    3.8014  -11.8128 O   0  0  0  0  0  0  0  0  0  0  0  0
   34.1636    6.4534  -12.9327 O   0  0  0  0  0  0  0  0  0  0  0  0
   30.9159    2.2673  -10.7402 N   0  0  0  0  0  0  0  0  0  0  0  0
   29.8909    1.8170   -9.8563 C   0  0  1  0  0  0  0  0  0  0  0  0
   29.8917    0.3741   -9.5293 C   0  0  0  0  0  0  0  0  0  0  0  0
   28.7635   -0.0842   -8.7220 C   0  0  0  0  0  0  0  0  0  0  0  0
   27.5560    0.5408   -8.5576 C   0  0  0  0  0  0  0  0  0  0  0  0
   26.7566   -0.1779   -7.7411 N   0  0  0  0  0  0  0  0  0  0  0  0
   27.4487   -1.2624   -7.3818 C   0  0  0  0  0  0  0  0  0  0  0  0
   27.0505   -2.2967   -6.5510 C   0  0  0  0  0  0  0  0  0  0  0  0
   27.9674   -3.3152   -6.3347 C   0  0  0  0  0  0  0  0  0  0  0  0
   29.2277   -3.3147   -6.9154 C   0  0  0  0  0  0  0  0  0  0  0  0
   29.5982   -2.2705   -7.7391 C   0  0  0  0  0  0  0  0  0  0  0  0
   28.7110   -1.2414   -7.9744 C   0  0  0  0  0  0  0  0  0  0  0  0
   30.0970    2.5793   -8.5638 C   0  0  0  0  0  0  0  0  0  0  0  0
   31.1559    2.5008   -7.9011 O   0  0  0  0  0  0  0  0  0  0  0  0
   28.9189    7.5149   -5.6940 N   0  0  0  0  0  0  0  0  0  0  0  0
   28.5035    6.1621   -5.5637 C   0  0  0  0  0  0  0  0  0  0  0  0
   28.2730    5.6960   -4.4298 O   0  0  0  0  0  0  0  0  0  0  0  0
   28.3412    5.3189   -6.7668 C   0  0  0  0  0  0  0  0  0  0  0  0
   29.2888    4.1132   -6.7637 C   0  0  2  0  0  0  0  0  0  0  0  0
   29.0881    3.4324   -8.0319 N   0  0  0  0  0  0  0  0  0  0  0  0
   28.9586    3.1810   -5.6511 C   0  0  0  0  0  0  0  0  0  0  0  0
   29.8296    2.9223   -4.6108 O   0  0  0  0  0  0  0  0  0  0  0  0
   27.8425    2.5548   -5.5896 O   0  0  0  0  0  0  0  0  0  0  0  0
  2  1  1  6
  3  4  1  0
  3  2  1  0
  4  5  2  0
  4  8  1  0
  6  2  1  0
  6  7  2  0
  9  6  1  0
 10  9  1  0
 10 11  1  1
 12 11  1  0
 12 13  2  0
 14 13  1  0
 15 14  1  0
 16 15  2  0
 17 16  1  0
 18 17  2  0
 18 19  1  0
 19 20  2  0
 20 15  1  0
 20 12  1  0
 21 10  1  0
 22 21  2  0
 23 24  1  0
 24 25  2  0
 26 24  1  0
 27 26  1  6
 27 28  1  0
 27 29  1  0
 28 21  1  0
 29 30  1  0
 31 29  2  0
M  END
$$$$
