DWN.pdb
     RDKit          3D

 31 32  0  0  1  0  0  0  0  0999 V2000
   27.4732  -22.5246  -15.4432 N   0  0  0  0  0  0  0  0  0  0  0  0
   27.6039  -21.3267  -14.6445 C   0  0  1  0  0  0  0  0  0  0  0  0
   26.8957  -20.2212  -15.3837 C   0  0  0  0  0  0  0  0  0  0  0  0
   27.6994  -19.8177  -16.5729 C   0  0  0  0  0  0  0  0  0  0  0  0
   28.8724  -19.3561  -16.4395 O   0  0  0  0  0  0  0  0  0  0  0  0
   26.9402  -21.4849  -13.3307 C   0  0  0  0  0  0  0  0  0  0  0  0
   25.8424  -22.0757  -13.2342 O   0  0  0  0  0  0  0  0  0  0  0  0
   27.1836  -19.9365  -17.8383 O   0  0  0  0  0  0  0  0  0  0  0  0
   27.5463  -20.9677  -12.1592 N   0  0  0  0  0  0  0  0  0  0  0  0
   26.9541  -21.0697  -10.8655 C   0  0  1  0  0  0  0  0  0  0  0  0
   27.7835  -20.6213   -9.7254 C   0  0  0  0  0  0  0  0  0  0  0  0
   27.1074  -20.6021   -8.4303 C   0  0  0  0  0  0  0  0  0  0  0  0
   25.8175  -20.9780   -8.1649 C   0  0  0  0  0  0  0  0  0  0  0  0
   25.5393  -20.8266   -6.8527 N   0  0  0  0  0  0  0  0  0  0  0  0
   26.6478  -20.3546   -6.2761 C   0  0  0  0  0  0  0  0  0  0  0  0
   26.8526  -20.0387   -4.9432 C   0  0  0  0  0  0  0  0  0  0  0  0
   28.1083  -19.5600   -4.5983 C   0  0  0  0  0  0  0  0  0  0  0  0
   29.1231  -19.3994   -5.5311 C   0  0  0  0  0  0  0  0  0  0  0  0
   28.8908  -19.7217   -6.8532 C   0  0  0  0  0  0  0  0  0  0  0  0
   27.6534  -20.1994   -7.2301 C   0  0  0  0  0  0  0  0  0  0  0  0
   25.7202  -20.1923  -10.9067 C   0  0  0  0  0  0  0  0  0  0  0  0
   25.7844  -18.9530  -11.0698 O   0  0  0  0  0  0  0  0  0  0  0  0
   22.4585  -18.1188  -14.2934 N   0  0  0  0  0  0  0  0  0  0  0  0
   22.2798  -19.2197  -13.4127 C   0  0  0  0  0  0  0  0  0  0  0  0
   21.1311  -19.6577  -13.2009 O   0  0  0  0  0  0  0  0  0  0  0  0
   23.4505  -19.8420  -12.7594 C   0  0  0  0  0  0  0  0  0  0  0  0
   23.2509  -20.0113  -11.2483 C   0  0  2  0  0  0  0  0  0  0  0  0
   24.4122  -20.7371  -10.7616 N   0  0  0  0  0  0  0  0  0  0  0  0
   22.0238  -20.8033  -10.9601 C   0  0  0  0  0  0  0  0  0  0  0  0
   20.8223  -20.2176  -10.6121 O   0  0  0  0  0  0  0  0  0  0  0  0
   22.0055  -22.0832  -11.0136 O   0  0  0  0  0  0  0  0  0  0  0  0
  2  1  1  6
  3  4  1  0
  3  2  1  0
  4  5  2  0
  4  8  1  0
  6  2  1  0
  6  7  2  0
  9  6  1  0
 10  9  1  0
 10 11  1  1
 12 11  1  0
 12 13  2  0
 14 13  1  0
 15 14  1  0
 16 15  2  0
 17 16  1  0
 18 17  2  0
 18 19  1  0
 19 20  2  0
 20 15  1  0
 20 12  1  0
 21 10  1  0
 22 21  2  0
 23 24  1  0
 24 25  2  0
 26 24  1  0
 27 26  1  6
 27 28  1  0
 27 29  1  0
 28 21  1  0
 29 30  1  0
 31 29  2  0
M  END
$$$$
