DWN.pdb
     RDKit          3D

 31 32  0  0  1  0  0  0  0  0999 V2000
   28.4103  -21.6474  -15.1141 N   0  0  0  0  0  0  0  0  0  0  0  0
   27.5166  -20.6196  -14.6296 C   0  0  1  0  0  0  0  0  0  0  0  0
   26.7603  -20.0915  -15.8209 C   0  0  0  0  0  0  0  0  0  0  0  0
   27.7057  -19.4196  -16.7576 C   0  0  0  0  0  0  0  0  0  0  0  0
   28.6418  -18.6845  -16.3215 O   0  0  0  0  0  0  0  0  0  0  0  0
   26.5264  -21.1760  -13.6801 C   0  0  0  0  0  0  0  0  0  0  0  0
   25.9537  -22.2626  -13.9147 O   0  0  0  0  0  0  0  0  0  0  0  0
   27.5800  -19.5821  -18.1138 O   0  0  0  0  0  0  0  0  0  0  0  0
   26.2157  -20.4808  -12.4853 N   0  0  0  0  0  0  0  0  0  0  0  0
   25.2604  -20.9510  -11.5362 C   0  0  1  0  0  0  0  0  0  0  0  0
   25.5000  -20.5815  -10.1237 C   0  0  0  0  0  0  0  0  0  0  0  0
   26.8551  -20.8261   -9.6352 C   0  0  0  0  0  0  0  0  0  0  0  0
   27.8669  -21.4742  -10.2923 C   0  0  0  0  0  0  0  0  0  0  0  0
   28.9813  -21.5092   -9.5313 N   0  0  0  0  0  0  0  0  0  0  0  0
   28.6864  -20.8850   -8.3879 C   0  0  0  0  0  0  0  0  0  0  0  0
   29.5072  -20.6682   -7.2935 C   0  0  0  0  0  0  0  0  0  0  0  0
   28.9527  -19.9876   -6.2191 C   0  0  0  0  0  0  0  0  0  0  0  0
   27.6399  -19.5375   -6.2236 C   0  0  0  0  0  0  0  0  0  0  0  0
   26.8442  -19.7680   -7.3280 C   0  0  0  0  0  0  0  0  0  0  0  0
   27.3639  -20.4424   -8.4127 C   0  0  0  0  0  0  0  0  0  0  0  0
   23.9356  -20.3440  -11.9495 C   0  0  0  0  0  0  0  0  0  0  0  0
   23.8569  -19.4026  -12.7704 O   0  0  0  0  0  0  0  0  0  0  0  0
   21.8808  -21.4193  -15.9347 N   0  0  0  0  0  0  0  0  0  0  0  0
   21.3050  -21.0159  -14.6996 C   0  0  0  0  0  0  0  0  0  0  0  0
   20.4354  -20.1216  -14.6894 O   0  0  0  0  0  0  0  0  0  0  0  0
   21.7324  -21.6589  -13.4392 C   0  0  0  0  0  0  0  0  0  0  0  0
   21.4865  -20.7644  -12.2181 C   0  0  2  0  0  0  0  0  0  0  0  0
   22.7007  -20.8181  -11.4212 N   0  0  0  0  0  0  0  0  0  0  0  0
   20.3470  -21.2741  -11.4071 C   0  0  0  0  0  0  0  0  0  0  0  0
   19.1091  -20.6616  -11.3918 O   0  0  0  0  0  0  0  0  0  0  0  0
   20.4439  -22.3152  -10.6667 O   0  0  0  0  0  0  0  0  0  0  0  0
  2  1  1  6
  3  4  1  0
  3  2  1  0
  4  5  2  0
  4  8  1  0
  6  2  1  0
  6  7  2  0
  9  6  1  0
 10  9  1  0
 10 11  1  1
 12 11  1  0
 12 13  2  0
 14 13  1  0
 15 14  1  0
 16 15  2  0
 17 16  1  0
 18 17  2  0
 18 19  1  0
 19 20  2  0
 20 15  1  0
 20 12  1  0
 21 10  1  0
 22 21  2  0
 23 24  1  0
 24 25  2  0
 26 24  1  0
 27 26  1  6
 27 28  1  0
 27 29  1  0
 28 21  1  0
 29 30  1  0
 31 29  2  0
M  END
$$$$
