DWN.pdb
     RDKit          3D

 31 32  0  0  1  0  0  0  0  0999 V2000
   28.1100  -21.9794  -15.3048 N   0  0  0  0  0  0  0  0  0  0  0  0
   27.3625  -20.8578  -14.7823 C   0  0  1  0  0  0  0  0  0  0  0  0
   26.5397  -20.3055  -15.9173 C   0  0  0  0  0  0  0  0  0  0  0  0
   27.4381  -19.6871  -16.9337 C   0  0  0  0  0  0  0  0  0  0  0  0
   27.4591  -20.1114  -18.1280 O   0  0  0  0  0  0  0  0  0  0  0  0
   26.4276  -21.2874  -13.7179 C   0  0  0  0  0  0  0  0  0  0  0  0
   25.7821  -22.3531  -13.8237 O   0  0  0  0  0  0  0  0  0  0  0  0
   28.2636  -18.6451  -16.5955 O   0  0  0  0  0  0  0  0  0  0  0  0
   26.2540  -20.4924  -12.5581 N   0  0  0  0  0  0  0  0  0  0  0  0
   25.4001  -20.8656  -11.4783 C   0  0  1  0  0  0  0  0  0  0  0  0
   25.7521  -20.3282  -10.1455 C   0  0  0  0  0  0  0  0  0  0  0  0
   27.0805  -20.6903   -9.6568 C   0  0  0  0  0  0  0  0  0  0  0  0
   28.0071  -21.4784  -10.2861 C   0  0  0  0  0  0  0  0  0  0  0  0
   29.1228  -21.5918   -9.5348 N   0  0  0  0  0  0  0  0  0  0  0  0
   28.9138  -20.8782   -8.4252 C   0  0  0  0  0  0  0  0  0  0  0  0
   29.7697  -20.6918   -7.3523 C   0  0  0  0  0  0  0  0  0  0  0  0
   29.3076  -19.8981   -6.3124 C   0  0  0  0  0  0  0  0  0  0  0  0
   28.0507  -19.3102   -6.3297 C   0  0  0  0  0  0  0  0  0  0  0  0
   27.2181  -19.5134   -7.4121 C   0  0  0  0  0  0  0  0  0  0  0  0
   27.6461  -20.2978   -8.4623 C   0  0  0  0  0  0  0  0  0  0  0  0
   24.0269  -20.3366  -11.8368 C   0  0  0  0  0  0  0  0  0  0  0  0
   23.8596  -19.2239  -12.3850 O   0  0  0  0  0  0  0  0  0  0  0  0
   19.2955  -20.2969  -13.6947 N   0  0  0  0  0  0  0  0  0  0  0  0
   20.4675  -20.6737  -14.4047 C   0  0  0  0  0  0  0  0  0  0  0  0
   20.4203  -20.8046  -15.6444 O   0  0  0  0  0  0  0  0  0  0  0  0
   21.7329  -20.9016  -13.6757 C   0  0  0  0  0  0  0  0  0  0  0  0
   21.5761  -20.7027  -12.1632 C   0  0  2  0  0  0  0  0  0  0  0  0
   22.8453  -21.0848  -11.5671 N   0  0  0  0  0  0  0  0  0  0  0  0
   20.4993  -21.5762  -11.6214 C   0  0  0  0  0  0  0  0  0  0  0  0
   20.5415  -22.9540  -11.7084 O   0  0  0  0  0  0  0  0  0  0  0  0
   19.4598  -21.1031  -11.0408 O   0  0  0  0  0  0  0  0  0  0  0  0
  2  1  1  6
  3  4  1  0
  3  2  1  0
  4  5  2  0
  4  8  1  0
  6  2  1  0
  6  7  2  0
  9  6  1  0
 10  9  1  0
 10 11  1  1
 12 11  1  0
 12 13  2  0
 14 13  1  0
 15 14  1  0
 16 15  2  0
 17 16  1  0
 18 17  2  0
 18 19  1  0
 19 20  2  0
 20 15  1  0
 20 12  1  0
 21 10  1  0
 22 21  2  0
 23 24  1  0
 24 25  2  0
 26 24  1  0
 27 26  1  6
 27 28  1  0
 27 29  1  0
 28 21  1  0
 29 30  1  0
 31 29  2  0
M  END
$$$$
