DWN.pdb
     RDKit          3D

 31 32  0  0  1  0  0  0  0  0999 V2000
   27.0363  -37.3889  -10.3329 N   0  0  0  0  0  0  0  0  0  0  0  0
   27.5270  -38.4352   -9.4645 C   0  0  1  0  0  0  0  0  0  0  0  0
   28.5231  -39.2400  -10.2583 C   0  0  0  0  0  0  0  0  0  0  0  0
   27.8101  -40.0375  -11.2968 C   0  0  0  0  0  0  0  0  0  0  0  0
   27.8555  -39.7035  -12.5188 O   0  0  0  0  0  0  0  0  0  0  0  0
   28.2371  -37.8702   -8.2947 C   0  0  0  0  0  0  0  0  0  0  0  0
   28.8790  -38.6090   -7.5165 O   0  0  0  0  0  0  0  0  0  0  0  0
   27.0871  -41.1502  -10.9496 O   0  0  0  0  0  0  0  0  0  0  0  0
   28.1996  -36.4765   -8.0431 N   0  0  0  0  0  0  0  0  0  0  0  0
   28.8664  -35.8657   -6.9400 C   0  0  1  0  0  0  0  0  0  0  0  0
   29.1551  -34.4200   -7.0647 C   0  0  0  0  0  0  0  0  0  0  0  0
   28.0724  -33.6123   -7.6215 C   0  0  0  0  0  0  0  0  0  0  0  0
   27.8071  -33.3845   -8.9457 C   0  0  0  0  0  0  0  0  0  0  0  0
   26.7244  -32.5901   -9.0832 N   0  0  0  0  0  0  0  0  0  0  0  0
   26.2948  -32.3081   -7.8503 C   0  0  0  0  0  0  0  0  0  0  0  0
   25.2139  -31.5266   -7.4772 C   0  0  0  0  0  0  0  0  0  0  0  0
   24.9795  -31.3892   -6.1167 C   0  0  0  0  0  0  0  0  0  0  0  0
   25.7794  -31.9992   -5.1607 C   0  0  0  0  0  0  0  0  0  0  0  0
   26.8507  -32.7725   -5.5612 C   0  0  0  0  0  0  0  0  0  0  0  0
   27.1123  -32.9290   -6.9060 C   0  0  0  0  0  0  0  0  0  0  0  0
   27.9467  -36.0477   -5.7503 C   0  0  0  0  0  0  0  0  0  0  0  0
   26.7034  -36.1264   -5.8705 O   0  0  0  0  0  0  0  0  0  0  0  0
   26.1304  -36.9466   -0.9962 N   0  0  0  0  0  0  0  0  0  0  0  0
   27.2479  -37.7714   -1.2970 C   0  0  0  0  0  0  0  0  0  0  0  0
   27.5598  -38.6931   -0.5164 O   0  0  0  0  0  0  0  0  0  0  0  0
   28.0284  -37.5387   -2.5304 C   0  0  0  0  0  0  0  0  0  0  0  0
   27.5502  -36.2986   -3.2955 C   0  0  2  0  0  0  0  0  0  0  0  0
   28.4539  -36.1402   -4.4226 N   0  0  0  0  0  0  0  0  0  0  0  0
   27.6222  -35.0844   -2.4372 C   0  0  0  0  0  0  0  0  0  0  0  0
   28.7601  -34.3080   -2.3367 O   0  0  0  0  0  0  0  0  0  0  0  0
   26.6304  -34.6833   -1.7322 O   0  0  0  0  0  0  0  0  0  0  0  0
  2  1  1  6
  3  4  1  0
  3  2  1  0
  4  5  2  0
  4  8  1  0
  6  2  1  0
  6  7  2  0
  9  6  1  0
 10  9  1  0
 10 11  1  6
 12 11  1  0
 12 13  2  0
 14 13  1  0
 15 14  1  0
 16 15  2  0
 17 16  1  0
 18 17  2  0
 18 19  1  0
 19 20  2  0
 20 15  1  0
 20 12  1  0
 21 10  1  0
 22 21  2  0
 23 24  1  0
 24 25  2  0
 26 24  1  0
 27 26  1  1
 27 28  1  0
 27 29  1  0
 28 21  1  0
 29 30  1  0
 31 29  2  0
M  END
$$$$
