DWN.pdb
     RDKit          3D

 31 32  0  0  1  0  0  0  0  0999 V2000
   29.0074  -23.1249  -17.8542 N   0  0  0  0  0  0  0  0  0  0  0  0
   28.5506  -21.8482  -17.3529 C   0  0  1  0  0  0  0  0  0  0  0  0
   27.6069  -21.2799  -18.3808 C   0  0  0  0  0  0  0  0  0  0  0  0
   28.3748  -20.8526  -19.5851 C   0  0  0  0  0  0  0  0  0  0  0  0
   28.0505  -21.2580  -20.7415 O   0  0  0  0  0  0  0  0  0  0  0  0
   27.7950  -22.0088  -16.0901 C   0  0  0  0  0  0  0  0  0  0  0  0
   27.2845  -23.1084  -15.7840 O   0  0  0  0  0  0  0  0  0  0  0  0
   29.4517  -20.0115  -19.4654 O   0  0  0  0  0  0  0  0  0  0  0  0
   27.6425  -20.9120  -15.2063 N   0  0  0  0  0  0  0  0  0  0  0  0
   27.0949  -21.0380  -13.8953 C   0  0  1  0  0  0  0  0  0  0  0  0
   27.5431  -20.0424  -12.8969 C   0  0  0  0  0  0  0  0  0  0  0  0
   26.9840  -20.2058  -11.5570 C   0  0  0  0  0  0  0  0  0  0  0  0
   25.6822  -20.0178  -11.1753 C   0  0  0  0  0  0  0  0  0  0  0  0
   25.5339  -20.2634   -9.8562 N   0  0  0  0  0  0  0  0  0  0  0  0
   26.7376  -20.6085   -9.3913 C   0  0  0  0  0  0  0  0  0  0  0  0
   27.0903  -20.9508   -8.0964 C   0  0  0  0  0  0  0  0  0  0  0  0
   28.4217  -21.2705   -7.8730 C   0  0  0  0  0  0  0  0  0  0  0  0
   29.3689  -21.2541   -8.8871 C   0  0  0  0  0  0  0  0  0  0  0  0
   28.9894  -20.9085  -10.1687 C   0  0  0  0  0  0  0  0  0  0  0  0
   27.6738  -20.5843  -10.4249 C   0  0  0  0  0  0  0  0  0  0  0  0
   25.5971  -20.8812  -14.0573 C   0  0  0  0  0  0  0  0  0  0  0  0
   25.0900  -19.9758  -14.7570 O   0  0  0  0  0  0  0  0  0  0  0  0
   20.6316  -23.1525  -14.7452 N   0  0  0  0  0  0  0  0  0  0  0  0
   21.1956  -23.0821  -13.4427 C   0  0  0  0  0  0  0  0  0  0  0  0
   20.4441  -23.0624  -12.4473 O   0  0  0  0  0  0  0  0  0  0  0  0
   22.6633  -23.0389  -13.2735 C   0  0  0  0  0  0  0  0  0  0  0  0
   23.2597  -21.6960  -13.7124 C   0  0  2  0  0  0  0  0  0  0  0  0
   24.6811  -21.7640  -13.4169 N   0  0  0  0  0  0  0  0  0  0  0  0
   22.6551  -20.5710  -12.9477 C   0  0  0  0  0  0  0  0  0  0  0  0
   21.7058  -19.7261  -13.4887 O   0  0  0  0  0  0  0  0  0  0  0  0
   22.9806  -20.3125  -11.7358 O   0  0  0  0  0  0  0  0  0  0  0  0
  2  1  1  6
  3  4  1  0
  3  2  1  0
  4  5  2  0
  4  8  1  0
  6  2  1  0
  6  7  2  0
  9  6  1  0
 10  9  1  0
 10 11  1  1
 12 11  1  0
 12 13  2  0
 14 13  1  0
 15 14  1  0
 16 15  2  0
 17 16  1  0
 18 17  2  0
 18 19  1  0
 19 20  2  0
 20 15  1  0
 20 12  1  0
 21 10  1  0
 22 21  2  0
 23 24  1  0
 24 25  2  0
 26 24  1  0
 27 26  1  1
 27 28  1  0
 27 29  1  0
 28 21  1  0
 29 30  1  0
 31 29  2  0
M  END
$$$$
