DWN.pdb
     RDKit          3D

 31 32  0  0  1  0  0  0  0  0999 V2000
   28.3734  -20.8166  -14.5071 N   0  0  0  0  0  0  0  0  0  0  0  0
   27.0001  -21.2662  -14.5492 C   0  0  1  0  0  0  0  0  0  0  0  0
   26.9850  -22.5771  -15.2918 C   0  0  0  0  0  0  0  0  0  0  0  0
   27.9879  -22.5408  -16.3943 C   0  0  0  0  0  0  0  0  0  0  0  0
   28.5061  -21.4457  -16.7669 O   0  0  0  0  0  0  0  0  0  0  0  0
   26.4771  -21.5161  -13.1870 C   0  0  0  0  0  0  0  0  0  0  0  0
   25.4814  -22.2508  -13.0075 O   0  0  0  0  0  0  0  0  0  0  0  0
   28.3696  -23.6945  -17.0305 O   0  0  0  0  0  0  0  0  0  0  0  0
   27.1043  -20.9240  -12.0630 N   0  0  0  0  0  0  0  0  0  0  0  0
   26.5610  -20.9852  -10.7455 C   0  0  1  0  0  0  0  0  0  0  0  0
   27.4165  -20.4641   -9.6566 C   0  0  0  0  0  0  0  0  0  0  0  0
   26.8050  -20.4588   -8.3298 C   0  0  0  0  0  0  0  0  0  0  0  0
   25.5350  -20.8537   -8.0026 C   0  0  0  0  0  0  0  0  0  0  0  0
   25.3197  -20.7106   -6.6777 N   0  0  0  0  0  0  0  0  0  0  0  0
   26.4487  -20.2250   -6.1546 C   0  0  0  0  0  0  0  0  0  0  0  0
   26.7146  -19.9108   -4.8321 C   0  0  0  0  0  0  0  0  0  0  0  0
   27.9790  -19.4156   -4.5475 C   0  0  0  0  0  0  0  0  0  0  0  0
   28.9442  -19.2375   -5.5285 C   0  0  0  0  0  0  0  0  0  0  0  0
   28.6516  -19.5587   -6.8389 C   0  0  0  0  0  0  0  0  0  0  0  0
   27.4038  -20.0525   -7.1563 C   0  0  0  0  0  0  0  0  0  0  0  0
   25.3014  -20.1447  -10.7797 C   0  0  0  0  0  0  0  0  0  0  0  0
   25.3225  -18.9149  -11.0114 O   0  0  0  0  0  0  0  0  0  0  0  0
   21.4631  -17.7629  -12.8790 N   0  0  0  0  0  0  0  0  0  0  0  0
   21.6494  -19.1686  -12.9732 C   0  0  0  0  0  0  0  0  0  0  0  0
   20.7721  -19.8703  -13.5156 O   0  0  0  0  0  0  0  0  0  0  0  0
   22.8785  -19.7896  -12.4364 C   0  0  0  0  0  0  0  0  0  0  0  0
   22.8104  -19.9950  -10.9182 C   0  0  2  0  0  0  0  0  0  0  0  0
   24.0172  -20.7158  -10.5488 N   0  0  0  0  0  0  0  0  0  0  0  0
   21.6215  -20.8094  -10.5452 C   0  0  0  0  0  0  0  0  0  0  0  0
   21.5814  -22.1822  -10.6922 O   0  0  0  0  0  0  0  0  0  0  0  0
   20.5550  -20.2861  -10.0653 O   0  0  0  0  0  0  0  0  0  0  0  0
  2  1  1  1
  3  4  1  0
  3  2  1  0
  4  5  2  0
  4  8  1  0
  6  2  1  0
  6  7  2  0
  9  6  1  0
 10  9  1  0
 10 11  1  1
 12 11  1  0
 12 13  2  0
 14 13  1  0
 15 14  1  0
 16 15  2  0
 17 16  1  0
 18 17  2  0
 18 19  1  0
 19 20  2  0
 20 15  1  0
 20 12  1  0
 21 10  1  0
 22 21  2  0
 23 24  1  0
 24 25  2  0
 26 24  1  0
 27 26  1  6
 27 28  1  0
 27 29  1  0
 28 21  1  0
 29 30  1  0
 31 29  2  0
M  END
$$$$
