DWN.pdb
     RDKit          3D

 31 32  0  0  1  0  0  0  0  0999 V2000
   21.0768  -18.4853  -17.2875 N   0  0  0  0  0  0  0  0  0  0  0  0
   20.5485  -18.6865  -15.9570 C   0  0  1  0  0  0  0  0  0  0  0  0
   21.6650  -19.2499  -15.1167 C   0  0  0  0  0  0  0  0  0  0  0  0
   22.5673  -20.0753  -15.9695 C   0  0  0  0  0  0  0  0  0  0  0  0
   22.3058  -20.2713  -17.1942 O   0  0  0  0  0  0  0  0  0  0  0  0
   20.1316  -17.4034  -15.3474 C   0  0  0  0  0  0  0  0  0  0  0  0
   19.6911  -17.3628  -14.1778 O   0  0  0  0  0  0  0  0  0  0  0  0
   23.7005  -20.6422  -15.4441 O   0  0  0  0  0  0  0  0  0  0  0  0
   20.2297  -16.1983  -16.0858 N   0  0  0  0  0  0  0  0  0  0  0  0
   19.7685  -14.9422  -15.5918 C   0  0  1  0  0  0  0  0  0  0  0  0
   20.3708  -13.7352  -16.1998 C   0  0  0  0  0  0  0  0  0  0  0  0
   19.7898  -12.4644  -15.7731 C   0  0  0  0  0  0  0  0  0  0  0  0
   19.9201  -11.8649  -14.5487 C   0  0  0  0  0  0  0  0  0  0  0  0
   19.2454  -10.6961  -14.5180 N   0  0  0  0  0  0  0  0  0  0  0  0
   18.6827  -10.5449  -15.7200 C   0  0  0  0  0  0  0  0  0  0  0  0
   17.8906   -9.5017  -16.1702 C   0  0  0  0  0  0  0  0  0  0  0  0
   17.4248   -9.5860  -17.4743 C   0  0  0  0  0  0  0  0  0  0  0  0
   17.7287  -10.6569  -18.3029 C   0  0  0  0  0  0  0  0  0  0  0  0
   18.5203  -11.6833  -17.8276 C   0  0  0  0  0  0  0  0  0  0  0  0
   18.9991  -11.6312  -16.5355 C   0  0  0  0  0  0  0  0  0  0  0  0
   18.2820  -14.9065  -15.8802 C   0  0  0  0  0  0  0  0  0  0  0  0
   17.7947  -15.3530  -16.9430 O   0  0  0  0  0  0  0  0  0  0  0  0
   13.1711  -14.1342  -15.4022 N   0  0  0  0  0  0  0  0  0  0  0  0
   13.7270  -15.0927  -14.5123 C   0  0  0  0  0  0  0  0  0  0  0  0
   12.9708  -15.8642  -13.8886 O   0  0  0  0  0  0  0  0  0  0  0  0
   15.1921  -15.1752  -14.3351 C   0  0  0  0  0  0  0  0  0  0  0  0
   15.9464  -14.2412  -15.2893 C   0  0  2  0  0  0  0  0  0  0  0  0
   17.3543  -14.3590  -14.9483 N   0  0  0  0  0  0  0  0  0  0  0  0
   15.5149  -12.8289  -15.1017 C   0  0  0  0  0  0  0  0  0  0  0  0
   14.6157  -12.2052  -15.9445 O   0  0  0  0  0  0  0  0  0  0  0  0
   15.9544  -12.0989  -14.1449 O   0  0  0  0  0  0  0  0  0  0  0  0
  2  1  1  6
  3  4  1  0
  3  2  1  0
  4  5  2  0
  4  8  1  0
  6  2  1  0
  6  7  2  0
  9  6  1  0
 10  9  1  0
 10 11  1  6
 12 11  1  0
 12 13  2  0
 14 13  1  0
 15 14  1  0
 16 15  2  0
 17 16  1  0
 18 17  2  0
 18 19  1  0
 19 20  2  0
 20 15  1  0
 20 12  1  0
 21 10  1  0
 22 21  2  0
 23 24  1  0
 24 25  2  0
 26 24  1  0
 27 26  1  1
 27 28  1  0
 27 29  1  0
 28 21  1  0
 29 30  1  0
 31 29  2  0
M  END
$$$$
