DWN.pdb
     RDKit          3D

 31 32  0  0  1  0  0  0  0  0999 V2000
   28.2446  -22.0084  -14.9783 N   0  0  0  0  0  0  0  0  0  0  0  0
   27.6320  -20.8641  -14.3419 C   0  0  1  0  0  0  0  0  0  0  0  0
   26.8036  -20.1651  -15.3884 C   0  0  0  0  0  0  0  0  0  0  0  0
   27.6971  -19.5916  -16.4351 C   0  0  0  0  0  0  0  0  0  0  0  0
   28.5823  -18.7347  -16.1369 O   0  0  0  0  0  0  0  0  0  0  0  0
   26.7201  -21.2821  -13.2531 C   0  0  0  0  0  0  0  0  0  0  0  0
   26.0172  -22.3101  -13.3652 O   0  0  0  0  0  0  0  0  0  0  0  0
   27.5776  -19.9793  -17.7454 O   0  0  0  0  0  0  0  0  0  0  0  0
   26.6345  -20.5188  -12.0626 N   0  0  0  0  0  0  0  0  0  0  0  0
   25.7344  -20.8299  -11.0007 C   0  0  1  0  0  0  0  0  0  0  0  0
   26.0486  -20.2433   -9.6793 C   0  0  0  0  0  0  0  0  0  0  0  0
   27.3404  -20.6286   -9.1158 C   0  0  0  0  0  0  0  0  0  0  0  0
   28.2824  -21.4423   -9.6870 C   0  0  0  0  0  0  0  0  0  0  0  0
   29.3531  -21.5719   -8.8751 N   0  0  0  0  0  0  0  0  0  0  0  0
   29.0997  -20.8432   -7.7848 C   0  0  0  0  0  0  0  0  0  0  0  0
   29.9000  -20.6644   -6.6685 C   0  0  0  0  0  0  0  0  0  0  0  0
   29.3995  -19.8509   -5.6622 C   0  0  0  0  0  0  0  0  0  0  0  0
   28.1584  -19.2367   -5.7530 C   0  0  0  0  0  0  0  0  0  0  0  0
   27.3815  -19.4329   -6.8773 C   0  0  0  0  0  0  0  0  0  0  0  0
   27.8487  -20.2365   -7.8958 C   0  0  0  0  0  0  0  0  0  0  0  0
   24.3862  -20.2906  -11.4318 C   0  0  0  0  0  0  0  0  0  0  0  0
   24.2693  -19.2551  -12.1250 O   0  0  0  0  0  0  0  0  0  0  0  0
   20.6598  -19.4952  -14.7929 N   0  0  0  0  0  0  0  0  0  0  0  0
   20.7853  -20.5993  -13.9070 C   0  0  0  0  0  0  0  0  0  0  0  0
   19.8233  -21.3790  -13.7557 O   0  0  0  0  0  0  0  0  0  0  0  0
   22.0510  -20.8217  -13.1769 C   0  0  0  0  0  0  0  0  0  0  0  0
   21.9118  -20.5453  -11.6749 C   0  0  2  0  0  0  0  0  0  0  0  0
   23.1720  -20.9403  -11.0681 N   0  0  0  0  0  0  0  0  0  0  0  0
   20.8107  -21.3554  -11.0855 C   0  0  0  0  0  0  0  0  0  0  0  0
   20.9957  -22.6457  -10.6288 O   0  0  0  0  0  0  0  0  0  0  0  0
   19.6166  -20.9064  -10.9673 O   0  0  0  0  0  0  0  0  0  0  0  0
  2  1  1  6
  3  4  1  0
  3  2  1  0
  4  5  2  0
  4  8  1  0
  6  2  1  0
  6  7  2  0
  9  6  1  0
 10  9  1  0
 10 11  1  1
 12 11  1  0
 12 13  2  0
 14 13  1  0
 15 14  1  0
 16 15  2  0
 17 16  1  0
 18 17  2  0
 18 19  1  0
 19 20  2  0
 20 15  1  0
 20 12  1  0
 21 10  1  0
 22 21  2  0
 23 24  1  0
 24 25  2  0
 26 24  1  0
 27 26  1  6
 27 28  1  0
 27 29  1  0
 28 21  1  0
 29 30  1  0
 31 29  2  0
M  END
$$$$
