DWN.pdb
     RDKit          3D

 31 32  0  0  1  0  0  0  0  0999 V2000
   26.9293  -22.6746  -15.6170 N   0  0  0  0  0  0  0  0  0  0  0  0
   26.2719  -21.5204  -15.0465 C   0  0  1  0  0  0  0  0  0  0  0  0
   25.1853  -21.1093  -16.0059 C   0  0  0  0  0  0  0  0  0  0  0  0
   25.7960  -20.5898  -17.2628 C   0  0  0  0  0  0  0  0  0  0  0  0
   26.9271  -20.0178  -17.2488 O   0  0  0  0  0  0  0  0  0  0  0  0
   25.6282  -21.8550  -13.7560 C   0  0  0  0  0  0  0  0  0  0  0  0
   25.1509  -22.9929  -13.5540 O   0  0  0  0  0  0  0  0  0  0  0  0
   25.1436  -20.7189  -18.4625 O   0  0  0  0  0  0  0  0  0  0  0  0
   25.5471  -20.8844  -12.7271 N   0  0  0  0  0  0  0  0  0  0  0  0
   24.9529  -21.1436  -11.4566 C   0  0  1  0  0  0  0  0  0  0  0  0
   25.4318  -20.3182  -10.3259 C   0  0  0  0  0  0  0  0  0  0  0  0
   26.7678  -20.6468   -9.8343 C   0  0  0  0  0  0  0  0  0  0  0  0
   27.7440  -21.3440  -10.4950 C   0  0  0  0  0  0  0  0  0  0  0  0
   28.8505  -21.4529   -9.7294 N   0  0  0  0  0  0  0  0  0  0  0  0
   28.5859  -20.8272   -8.5794 C   0  0  0  0  0  0  0  0  0  0  0  0
   29.4120  -20.6719   -7.4785 C   0  0  0  0  0  0  0  0  0  0  0  0
   28.8920  -19.9740   -6.3981 C   0  0  0  0  0  0  0  0  0  0  0  0
   27.6075  -19.4488   -6.4029 C   0  0  0  0  0  0  0  0  0  0  0  0
   26.8057  -19.6190   -7.5138 C   0  0  0  0  0  0  0  0  0  0  0  0
   27.2914  -20.3086   -8.6046 C   0  0  0  0  0  0  0  0  0  0  0  0
   23.4735  -20.8684  -11.6296 C   0  0  0  0  0  0  0  0  0  0  0  0
   23.0417  -19.9966  -12.4170 O   0  0  0  0  0  0  0  0  0  0  0  0
   19.1056  -21.9867   -8.4157 N   0  0  0  0  0  0  0  0  0  0  0  0
   20.2945  -22.4465   -9.0439 C   0  0  0  0  0  0  0  0  0  0  0  0
   21.2871  -22.7352   -8.3456 O   0  0  0  0  0  0  0  0  0  0  0  0
   20.3478  -22.5859  -10.5144 C   0  0  0  0  0  0  0  0  0  0  0  0
   21.0755  -21.4134  -11.1833 C   0  0  2  0  0  0  0  0  0  0  0  0
   22.4893  -21.5943  -10.8995 N   0  0  0  0  0  0  0  0  0  0  0  0
   20.6252  -20.1140  -10.6133 C   0  0  0  0  0  0  0  0  0  0  0  0
   19.3821  -19.5735  -10.8785 O   0  0  0  0  0  0  0  0  0  0  0  0
   21.3664  -19.4107   -9.8402 O   0  0  0  0  0  0  0  0  0  0  0  0
  2  1  1  6
  3  4  1  0
  3  2  1  0
  4  5  2  0
  4  8  1  0
  6  2  1  0
  6  7  2  0
  9  6  1  0
 10  9  1  0
 10 11  1  1
 12 11  1  0
 12 13  2  0
 14 13  1  0
 15 14  1  0
 16 15  2  0
 17 16  1  0
 18 17  2  0
 18 19  1  0
 19 20  2  0
 20 15  1  0
 20 12  1  0
 21 10  1  0
 22 21  2  0
 23 24  1  0
 24 25  2  0
 26 24  1  0
 27 26  1  1
 27 28  1  0
 27 29  1  0
 28 21  1  0
 29 30  1  0
 31 29  2  0
M  END
$$$$
