DWN.pdb
     RDKit          3D

 31 32  0  0  1  0  0  0  0  0999 V2000
   30.1251  -24.8979  -16.5870 N   0  0  0  0  0  0  0  0  0  0  0  0
   29.3960  -23.9397  -17.3871 C   0  0  1  0  0  0  0  0  0  0  0  0
   28.3629  -24.7091  -18.1686 C   0  0  0  0  0  0  0  0  0  0  0  0
   28.9842  -25.2748  -19.4002 C   0  0  0  0  0  0  0  0  0  0  0  0
   29.6760  -24.5467  -20.1735 O   0  0  0  0  0  0  0  0  0  0  0  0
   28.6791  -22.9655  -16.5334 C   0  0  0  0  0  0  0  0  0  0  0  0
   28.2439  -23.2972  -15.4091 O   0  0  0  0  0  0  0  0  0  0  0  0
   28.8176  -26.5975  -19.7230 O   0  0  0  0  0  0  0  0  0  0  0  0
   28.4788  -21.6367  -16.9820 N   0  0  0  0  0  0  0  0  0  0  0  0
   27.9314  -20.6100  -16.1569 C   0  0  1  0  0  0  0  0  0  0  0  0
   28.1378  -19.2183  -16.6149 C   0  0  0  0  0  0  0  0  0  0  0  0
   27.3791  -18.2026  -15.8887 C   0  0  0  0  0  0  0  0  0  0  0  0
   27.3303  -18.0189  -14.5324 C   0  0  0  0  0  0  0  0  0  0  0  0
   26.5259  -16.9800  -14.2226 N   0  0  0  0  0  0  0  0  0  0  0  0
   26.0590  -16.4972  -15.3771 C   0  0  0  0  0  0  0  0  0  0  0  0
   25.1957  -15.4320  -15.5739 C   0  0  0  0  0  0  0  0  0  0  0  0
   24.8608  -15.1309  -16.8862 C   0  0  0  0  0  0  0  0  0  0  0  0
   25.3580  -15.8514  -17.9629 C   0  0  0  0  0  0  0  0  0  0  0  0
   26.2166  -16.9088  -17.7373 C   0  0  0  0  0  0  0  0  0  0  0  0
   26.5692  -17.2354  -16.4448 C   0  0  0  0  0  0  0  0  0  0  0  0
   26.4385  -20.8629  -16.1200 C   0  0  0  0  0  0  0  0  0  0  0  0
   25.8051  -21.2821  -17.1147 O   0  0  0  0  0  0  0  0  0  0  0  0
   22.0878  -23.4827  -14.1865 N   0  0  0  0  0  0  0  0  0  0  0  0
   22.5641  -22.2494  -13.6654 C   0  0  0  0  0  0  0  0  0  0  0  0
   21.7697  -21.4748  -13.0952 O   0  0  0  0  0  0  0  0  0  0  0  0
   23.9929  -21.8940  -13.7951 C   0  0  0  0  0  0  0  0  0  0  0  0
   24.2417  -20.8911  -14.9283 C   0  0  2  0  0  0  0  0  0  0  0  0
   25.6723  -20.6355  -14.9410 N   0  0  0  0  0  0  0  0  0  0  0  0
   23.5195  -19.6142  -14.6756 C   0  0  0  0  0  0  0  0  0  0  0  0
   22.4037  -19.2330  -15.3949 O   0  0  0  0  0  0  0  0  0  0  0  0
   23.8907  -18.7834  -13.7737 O   0  0  0  0  0  0  0  0  0  0  0  0
  2  1  1  1
  3  4  1  0
  3  2  1  0
  4  5  2  0
  4  8  1  0
  6  2  1  0
  6  7  2  0
  9  6  1  0
 10  9  1  0
 10 11  1  6
 12 11  1  0
 12 13  2  0
 14 13  1  0
 15 14  1  0
 16 15  2  0
 17 16  1  0
 18 17  2  0
 18 19  1  0
 19 20  2  0
 20 15  1  0
 20 12  1  0
 21 10  1  0
 22 21  2  0
 23 24  1  0
 24 25  2  0
 26 24  1  0
 27 26  1  1
 27 28  1  0
 27 29  1  0
 28 21  1  0
 29 30  1  0
 31 29  2  0
M  END
$$$$
