DWN.pdb
     RDKit          3D

 31 32  0  0  1  0  0  0  0  0999 V2000
   22.9990  -20.7338  -13.6497 N   0  0  0  0  0  0  0  0  0  0  0  0
   22.8521  -20.0119  -14.8935 C   0  0  1  0  0  0  0  0  0  0  0  0
   21.3811  -19.9817  -15.2180 C   0  0  0  0  0  0  0  0  0  0  0  0
   20.9033  -21.3634  -15.5101 C   0  0  0  0  0  0  0  0  0  0  0  0
   21.5613  -22.1316  -16.2742 O   0  0  0  0  0  0  0  0  0  0  0  0
   23.3101  -18.6108  -14.7559 C   0  0  0  0  0  0  0  0  0  0  0  0
   22.7880  -17.8454  -13.9163 O   0  0  0  0  0  0  0  0  0  0  0  0
   19.7382  -21.8316  -14.9582 O   0  0  0  0  0  0  0  0  0  0  0  0
   24.3540  -18.1182  -15.5775 N   0  0  0  0  0  0  0  0  0  0  0  0
   24.9202  -16.8182  -15.4222 C   0  0  1  0  0  0  0  0  0  0  0  0
   26.3960  -16.7323  -15.4821 C   0  0  0  0  0  0  0  0  0  0  0  0
   26.9417  -15.3778  -15.5270 C   0  0  0  0  0  0  0  0  0  0  0  0
   26.6742  -14.3491  -14.6633 C   0  0  0  0  0  0  0  0  0  0  0  0
   27.3623  -13.2424  -15.0152 N   0  0  0  0  0  0  0  0  0  0  0  0
   28.0705  -13.5591  -16.1026 C   0  0  0  0  0  0  0  0  0  0  0  0
   28.9295  -12.7526  -16.8307 C   0  0  0  0  0  0  0  0  0  0  0  0
   29.5480  -13.3283  -17.9311 C   0  0  0  0  0  0  0  0  0  0  0  0
   29.3287  -14.6482  -18.2993 C   0  0  0  0  0  0  0  0  0  0  0  0
   28.4668  -15.4291  -17.5554 C   0  0  0  0  0  0  0  0  0  0  0  0
   27.8348  -14.8876  -16.4559 C   0  0  0  0  0  0  0  0  0  0  0  0
   24.3669  -15.9888  -16.5625 C   0  0  0  0  0  0  0  0  0  0  0  0
   24.1941  -16.4579  -17.7099 O   0  0  0  0  0  0  0  0  0  0  0  0
   21.9556  -12.2630  -19.2161 N   0  0  0  0  0  0  0  0  0  0  0  0
   21.5744  -12.2100  -17.8481 C   0  0  0  0  0  0  0  0  0  0  0  0
   20.6671  -11.4314  -17.4922 O   0  0  0  0  0  0  0  0  0  0  0  0
   22.2471  -13.0777  -16.8586 C   0  0  0  0  0  0  0  0  0  0  0  0
   23.4092  -13.8675  -17.4730 C   0  0  2  0  0  0  0  0  0  0  0  0
   24.0112  -14.6210  -16.3859 N   0  0  0  0  0  0  0  0  0  0  0  0
   24.4272  -12.9494  -18.0534 C   0  0  0  0  0  0  0  0  0  0  0  0
   25.4952  -12.4632  -17.3249 O   0  0  0  0  0  0  0  0  0  0  0  0
   24.3748  -12.5480  -19.2690 O   0  0  0  0  0  0  0  0  0  0  0  0
  2  1  1  1
  3  4  1  0
  3  2  1  0
  4  5  2  0
  4  8  1  0
  6  2  1  0
  6  7  2  0
  9  6  1  0
 10  9  1  0
 10 11  1  6
 12 11  1  0
 12 13  2  0
 14 13  1  0
 15 14  1  0
 16 15  2  0
 17 16  1  0
 18 17  2  0
 18 19  1  0
 19 20  2  0
 20 15  1  0
 20 12  1  0
 21 10  1  0
 22 21  2  0
 23 24  1  0
 24 25  2  0
 26 24  1  0
 27 26  1  1
 27 28  1  0
 27 29  1  0
 28 21  1  0
 29 30  1  0
 31 29  2  0
M  END
$$$$
