DWN.pdb
     RDKit          3D

 31 32  0  0  1  0  0  0  0  0999 V2000
   28.1195  -20.0160  -17.3949 N   0  0  0  0  0  0  0  0  0  0  0  0
   27.7418  -21.3984  -17.2048 C   0  0  1  0  0  0  0  0  0  0  0  0
   28.9416  -22.2388  -17.5573 C   0  0  0  0  0  0  0  0  0  0  0  0
   29.4419  -21.8570  -18.9089 C   0  0  0  0  0  0  0  0  0  0  0  0
   29.5451  -20.6390  -19.2445 O   0  0  0  0  0  0  0  0  0  0  0  0
   27.4035  -21.6706  -15.7894 C   0  0  0  0  0  0  0  0  0  0  0  0
   27.2474  -22.8423  -15.3818 O   0  0  0  0  0  0  0  0  0  0  0  0
   29.7996  -22.8186  -19.8193 O   0  0  0  0  0  0  0  0  0  0  0  0
   27.2544  -20.6000  -14.8736 N   0  0  0  0  0  0  0  0  0  0  0  0
   26.7978  -20.7784  -13.5341 C   0  0  1  0  0  0  0  0  0  0  0  0
   27.5985  -20.1268  -12.4742 C   0  0  0  0  0  0  0  0  0  0  0  0
   27.0607  -20.2481  -11.1212 C   0  0  0  0  0  0  0  0  0  0  0  0
   25.7586  -20.0824  -10.7306 C   0  0  0  0  0  0  0  0  0  0  0  0
   25.6337  -20.2746   -9.4003 N   0  0  0  0  0  0  0  0  0  0  0  0
   26.8528  -20.5631   -8.9370 C   0  0  0  0  0  0  0  0  0  0  0  0
   27.2311  -20.8380   -7.6333 C   0  0  0  0  0  0  0  0  0  0  0  0
   28.5742  -21.1080   -7.4141 C   0  0  0  0  0  0  0  0  0  0  0  0
   29.5082  -21.1077   -8.4405 C   0  0  0  0  0  0  0  0  0  0  0  0
   29.1030  -20.8298   -9.7307 C   0  0  0  0  0  0  0  0  0  0  0  0
   27.7753  -20.5563   -9.9831 C   0  0  0  0  0  0  0  0  0  0  0  0
   25.4069  -20.1805  -13.4896 C   0  0  0  0  0  0  0  0  0  0  0  0
   25.1466  -19.0530  -13.9666 O   0  0  0  0  0  0  0  0  0  0  0  0
   20.3845  -19.7651  -13.9446 N   0  0  0  0  0  0  0  0  0  0  0  0
   21.2841  -20.1963  -14.9567 C   0  0  0  0  0  0  0  0  0  0  0  0
   20.8867  -20.2851  -16.1358 O   0  0  0  0  0  0  0  0  0  0  0  0
   22.6817  -20.5304  -14.6106 C   0  0  0  0  0  0  0  0  0  0  0  0
   22.9493  -20.4222  -13.1045 C   0  0  2  0  0  0  0  0  0  0  0  0
   24.3142  -20.8768  -12.8982 N   0  0  0  0  0  0  0  0  0  0  0  0
   22.0216  -21.2968  -12.3361 C   0  0  0  0  0  0  0  0  0  0  0  0
   20.8515  -20.8290  -11.7707 O   0  0  0  0  0  0  0  0  0  0  0  0
   22.2526  -22.5428  -12.1471 O   0  0  0  0  0  0  0  0  0  0  0  0
  2  1  1  1
  3  4  1  0
  3  2  1  0
  4  5  2  0
  4  8  1  0
  6  2  1  0
  6  7  2  0
  9  6  1  0
 10  9  1  0
 10 11  1  1
 12 11  1  0
 12 13  2  0
 14 13  1  0
 15 14  1  0
 16 15  2  0
 17 16  1  0
 18 17  2  0
 18 19  1  0
 19 20  2  0
 20 15  1  0
 20 12  1  0
 21 10  1  0
 22 21  2  0
 23 24  1  0
 24 25  2  0
 26 24  1  0
 27 26  1  6
 27 28  1  0
 27 29  1  0
 28 21  1  0
 29 30  1  0
 31 29  2  0
M  END
$$$$
