DWN.pdb
     RDKit          3D

 31 32  0  0  1  0  0  0  0  0999 V2000
   23.5780  -12.6574  -18.9445 N   0  0  0  0  0  0  0  0  0  0  0  0
   22.8533  -11.4614  -19.3110 C   0  0  1  0  0  0  0  0  0  0  0  0
   21.4776  -11.8928  -19.7485 C   0  0  0  0  0  0  0  0  0  0  0  0
   21.5691  -12.6204  -21.0466 C   0  0  0  0  0  0  0  0  0  0  0  0
   22.6610  -12.6715  -21.6884 O   0  0  0  0  0  0  0  0  0  0  0  0
   22.6919  -10.5571  -18.1500 C   0  0  0  0  0  0  0  0  0  0  0  0
   22.5246  -11.0156  -16.9989 O   0  0  0  0  0  0  0  0  0  0  0  0
   20.4702  -13.2489  -21.5748 O   0  0  0  0  0  0  0  0  0  0  0  0
   22.7280   -9.1523  -18.3304 N   0  0  0  0  0  0  0  0  0  0  0  0
   22.8121   -8.2294  -17.2461 C   0  0  1  0  0  0  0  0  0  0  0  0
   23.9789   -7.3198  -17.2457 C   0  0  0  0  0  0  0  0  0  0  0  0
   25.2829   -7.9762  -17.1880 C   0  0  0  0  0  0  0  0  0  0  0  0
   26.3422   -7.7876  -18.0354 C   0  0  0  0  0  0  0  0  0  0  0  0
   27.3845   -8.5649  -17.6728 N   0  0  0  0  0  0  0  0  0  0  0  0
   26.9961   -9.2515  -16.5948 C   0  0  0  0  0  0  0  0  0  0  0  0
   27.7190  -10.1790  -15.8631 C   0  0  0  0  0  0  0  0  0  0  0  0
   27.0787  -10.7567  -14.7763 C   0  0  0  0  0  0  0  0  0  0  0  0
   25.7762  -10.4323  -14.4241 C   0  0  0  0  0  0  0  0  0  0  0  0
   25.0789   -9.5046  -15.1718 C   0  0  0  0  0  0  0  0  0  0  0  0
   25.6856   -8.9119  -16.2590 C   0  0  0  0  0  0  0  0  0  0  0  0
   21.5652   -7.3741  -17.3351 C   0  0  0  0  0  0  0  0  0  0  0  0
   21.1893   -6.8470  -18.4062 O   0  0  0  0  0  0  0  0  0  0  0  0
   17.1199   -4.9762  -16.2073 N   0  0  0  0  0  0  0  0  0  0  0  0
   17.1760   -6.2555  -15.5910 C   0  0  0  0  0  0  0  0  0  0  0  0
   16.1634   -6.7082  -15.0202 O   0  0  0  0  0  0  0  0  0  0  0  0
   18.4260   -7.0430  -15.6339 C   0  0  0  0  0  0  0  0  0  0  0  0
   19.5747   -6.2743  -16.2983 C   0  0  2  0  0  0  0  0  0  0  0  0
   20.7489   -7.1244  -16.1949 N   0  0  0  0  0  0  0  0  0  0  0  0
   19.8359   -4.9919  -15.5889 C   0  0  0  0  0  0  0  0  0  0  0  0
   21.0539   -4.6943  -15.0095 O   0  0  0  0  0  0  0  0  0  0  0  0
   18.9430   -4.0811  -15.4678 O   0  0  0  0  0  0  0  0  0  0  0  0
  2  1  1  1
  3  4  1  0
  3  2  1  0
  4  5  2  0
  4  8  1  0
  6  2  1  0
  6  7  2  0
  9  6  1  0
 10  9  1  0
 10 11  1  6
 12 11  1  0
 12 13  2  0
 14 13  1  0
 15 14  1  0
 16 15  2  0
 17 16  1  0
 18 17  2  0
 18 19  1  0
 19 20  2  0
 20 15  1  0
 20 12  1  0
 21 10  1  0
 22 21  2  0
 23 24  1  0
 24 25  2  0
 26 24  1  0
 27 26  1  1
 27 28  1  0
 27 29  1  0
 28 21  1  0
 29 30  1  0
 31 29  2  0
M  END
$$$$
