DWN.pdb
     RDKit          3D

 31 32  0  0  1  0  0  0  0  0999 V2000
   27.9180  -23.5950  -16.8963 N   0  0  0  0  0  0  0  0  0  0  0  0
   27.3289  -22.2925  -16.6811 C   0  0  1  0  0  0  0  0  0  0  0  0
   26.3097  -22.0810  -17.7704 C   0  0  0  0  0  0  0  0  0  0  0  0
   27.0043  -21.8223  -19.0640 C   0  0  0  0  0  0  0  0  0  0  0  0
   28.2691  -21.7623  -19.1229 O   0  0  0  0  0  0  0  0  0  0  0  0
   26.6178  -22.2349  -15.3839 C   0  0  0  0  0  0  0  0  0  0  0  0
   26.1497  -23.2709  -14.8631 O   0  0  0  0  0  0  0  0  0  0  0  0
   26.2867  -21.6415  -20.2189 O   0  0  0  0  0  0  0  0  0  0  0  0
   26.4605  -20.9978  -14.7116 N   0  0  0  0  0  0  0  0  0  0  0  0
   25.7964  -20.8726  -13.4555 C   0  0  1  0  0  0  0  0  0  0  0  0
   26.3302  -19.8505  -12.5284 C   0  0  0  0  0  0  0  0  0  0  0  0
   26.6721  -20.3356  -11.1933 C   0  0  0  0  0  0  0  0  0  0  0  0
   25.8455  -20.4118  -10.1040 C   0  0  0  0  0  0  0  0  0  0  0  0
   26.5075  -20.9133   -9.0398 N   0  0  0  0  0  0  0  0  0  0  0  0
   27.7566  -21.1589   -9.4443 C   0  0  0  0  0  0  0  0  0  0  0  0
   28.8093  -21.6772   -8.7084 C   0  0  0  0  0  0  0  0  0  0  0  0
   30.0185  -21.8354   -9.3700 C   0  0  0  0  0  0  0  0  0  0  0  0
   30.1835  -21.4964  -10.7055 C   0  0  0  0  0  0  0  0  0  0  0  0
   29.1169  -20.9813  -11.4147 C   0  0  0  0  0  0  0  0  0  0  0  0
   27.9011  -20.8104  -10.7870 C   0  0  0  0  0  0  0  0  0  0  0  0
   24.3667  -20.4929  -13.7811 C   0  0  0  0  0  0  0  0  0  0  0  0
   24.0364  -20.0142  -14.8893 O   0  0  0  0  0  0  0  0  0  0  0  0
   19.5820  -22.0115  -14.2560 N   0  0  0  0  0  0  0  0  0  0  0  0
   20.7407  -22.8066  -14.4679 C   0  0  0  0  0  0  0  0  0  0  0  0
   20.6354  -23.9039  -15.0516 O   0  0  0  0  0  0  0  0  0  0  0  0
   22.0603  -22.3294  -14.0034 C   0  0  0  0  0  0  0  0  0  0  0  0
   21.9683  -20.9822  -13.2765 C   0  0  2  0  0  0  0  0  0  0  0  0
   23.3157  -20.6632  -12.8350 N   0  0  0  0  0  0  0  0  0  0  0  0
   21.0754  -21.0792  -12.0894 C   0  0  0  0  0  0  0  0  0  0  0  0
   19.8764  -20.3993  -11.9999 O   0  0  0  0  0  0  0  0  0  0  0  0
   21.3652  -21.7996  -11.0703 O   0  0  0  0  0  0  0  0  0  0  0  0
  2  1  1  6
  3  4  1  0
  3  2  1  0
  4  5  2  0
  4  8  1  0
  6  2  1  0
  6  7  2  0
  9  6  1  0
 10  9  1  0
 10 11  1  1
 12 11  1  0
 12 13  2  0
 14 13  1  0
 15 14  1  0
 16 15  2  0
 17 16  1  0
 18 17  2  0
 18 19  1  0
 19 20  2  0
 20 15  1  0
 20 12  1  0
 21 10  1  0
 22 21  2  0
 23 24  1  0
 24 25  2  0
 26 24  1  0
 27 26  1  1
 27 28  1  0
 27 29  1  0
 28 21  1  0
 29 30  1  0
 31 29  2  0
M  END
$$$$
