LFG.pdb
     RDKit          3D

 24 24  0  0  1  0  0  0  0  0999 V2000
    6.0647  -17.8439   19.0990 C   0  0  0  0  0  0  0  0  0  0  0  0
    7.4222  -17.4368   18.6217 C   0  0  2  0  0  0  0  0  0  0  0  0
    8.1075  -18.6457   18.0143 C   0  0  0  0  0  0  0  0  0  0  0  0
    8.2853  -16.8429   19.7033 C   0  0  0  0  0  0  0  0  0  0  0  0
    7.6090  -15.6205   20.2779 C   0  0  2  0  0  0  0  0  0  0  0  0
    7.4653  -14.5747   19.3017 N   0  0  0  0  0  0  0  0  0  0  0  0
    8.2606  -15.1066   21.4769 C   0  0  0  0  0  0  0  0  0  0  0  0
    9.2257  -14.2979   21.4827 O   0  0  0  0  0  0  0  0  0  0  0  0
    7.8007  -15.5265   22.7553 N   0  0  0  0  0  0  0  0  0  0  0  0
    8.4105  -15.0303   23.9988 C   0  0  1  0  0  0  0  0  0  0  0  0
    7.3615  -14.9594   25.0753 C   0  0  0  0  0  0  0  0  0  0  0  0
    7.1695  -13.6738   25.7309 C   0  0  0  0  0  0  0  0  0  0  0  0
    8.2139  -13.0883   26.4626 C   0  0  0  0  0  0  0  0  0  0  0  0
    8.0604  -11.8749   27.0920 C   0  0  0  0  0  0  0  0  0  0  0  0
    6.8673  -11.1928   27.0221 C   0  0  0  0  0  0  0  0  0  0  0  0
    5.8212  -11.7367   26.3134 C   0  0  0  0  0  0  0  0  0  0  0  0
    5.9845  -12.9527   25.6863 C   0  0  0  0  0  0  0  0  0  0  0  0
    9.4653  -16.0025   24.3563 C   0  0  0  0  0  0  0  0  0  0  0  0
    9.2017  -17.2567   24.4231 O   0  0  0  0  0  0  0  0  0  0  0  0
   10.8175  -15.6730   24.6458 N   0  0  0  0  0  0  0  0  0  0  0  0
   11.8042  -16.7153   24.9468 C   0  0  0  0  0  0  0  0  0  0  0  0
   12.7645  -16.8902   23.8467 C   0  0  0  0  0  0  0  0  0  0  0  0
   12.4033  -17.4036   22.7743 O   0  0  0  0  0  0  0  0  0  0  0  0
   14.0653  -16.4820   24.0118 O   0  0  0  0  0  0  0  0  0  0  0  0
  2  1  1  1
  3  2  1  0
  4  2  1  0
  4  5  1  0
  5  6  1  6
  7  5  1  0
  7  8  2  0
  9  7  1  0
 10  9  1  0
 10 11  1  1
 11 12  1  0
 12 17  2  0
 13 12  1  0
 13 14  2  0
 14 15  1  0
 15 16  2  0
 17 16  1  0
 18 10  1  0
 19 18  2  0
 20 18  1  0
 21 22  1  0
 21 20  1  0
 22 24  1  0
 23 22  2  0
M  END
$$$$
