LFG.pdb
     RDKit          3D

 24 24  0  0  1  0  0  0  0  0999 V2000
    8.3094  -15.0209   18.9423 C   0  0  0  0  0  0  0  0  0  0  0  0
    7.4729  -13.9543   19.5741 C   0  0  2  0  0  0  0  0  0  0  0  0
    7.6780  -12.6593   18.8117 C   0  0  0  0  0  0  0  0  0  0  0  0
    7.7696  -13.7459   21.0356 C   0  0  0  0  0  0  0  0  0  0  0  0
    7.4306  -15.0004   21.8058 C   0  0  2  0  0  0  0  0  0  0  0  0
    6.0316  -15.3220   21.7241 N   0  0  0  0  0  0  0  0  0  0  0  0
    7.8592  -14.9595   23.1990 C   0  0  0  0  0  0  0  0  0  0  0  0
    7.3616  -14.2158   24.0849 O   0  0  0  0  0  0  0  0  0  0  0  0
    8.9159  -15.8084   23.6291 N   0  0  0  0  0  0  0  0  0  0  0  0
    9.7124  -15.5061   24.8284 C   0  0  1  0  0  0  0  0  0  0  0  0
    8.9031  -15.8210   26.0573 C   0  0  0  0  0  0  0  0  0  0  0  0
    9.3426  -15.2265   27.3115 C   0  0  0  0  0  0  0  0  0  0  0  0
    9.1712  -13.8532   27.5433 C   0  0  0  0  0  0  0  0  0  0  0  0
    9.5769  -13.2650   28.7187 C   0  0  0  0  0  0  0  0  0  0  0  0
   10.1682  -14.0125   29.7111 C   0  0  0  0  0  0  0  0  0  0  0  0
   10.3524  -15.3622   29.5186 C   0  0  0  0  0  0  0  0  0  0  0  0
    9.9427  -15.9424   28.3378 C   0  0  0  0  0  0  0  0  0  0  0  0
   10.9115  -16.3675   24.7539 C   0  0  0  0  0  0  0  0  0  0  0  0
   10.9786  -17.4533   25.4347 O   0  0  0  0  0  0  0  0  0  0  0  0
   12.0599  -16.1041   23.9586 N   0  0  0  0  0  0  0  0  0  0  0  0
   13.2538  -16.9513   24.0466 C   0  0  0  0  0  0  0  0  0  0  0  0
   14.3273  -16.4731   23.1622 C   0  0  0  0  0  0  0  0  0  0  0  0
   14.9161  -17.2640   22.4061 O   0  0  0  0  0  0  0  0  0  0  0  0
   14.6758  -15.1449   23.1771 O   0  0  0  0  0  0  0  0  0  0  0  0
  2  1  1  6
  3  2  1  0
  4  2  1  0
  4  5  1  0
  5  6  1  1
  7  5  1  0
  7  8  2  0
  9  7  1  0
 10  9  1  0
 10 11  1  1
 11 12  1  0
 12 17  2  0
 13 12  1  0
 13 14  2  0
 14 15  1  0
 15 16  2  0
 17 16  1  0
 18 10  1  0
 19 18  2  0
 20 18  1  0
 21 22  1  0
 21 20  1  0
 22 24  1  0
 23 22  2  0
M  END
$$$$
