LFG.pdb
     RDKit          3D

 24 24  0  0  1  0  0  0  0  0999 V2000
    8.7207  -14.4277   18.4447 C   0  0  0  0  0  0  0  0  0  0  0  0
    7.9227  -13.5906   19.3928 C   0  0  2  0  0  0  0  0  0  0  0  0
    7.7669  -12.2018   18.8035 C   0  0  0  0  0  0  0  0  0  0  0  0
    8.5260  -13.5029   20.7696 C   0  0  0  0  0  0  0  0  0  0  0  0
    8.6742  -14.8906   21.3478 C   0  0  2  0  0  0  0  0  0  0  0  0
    7.4402  -15.6273   21.3048 N   0  0  0  0  0  0  0  0  0  0  0  0
    9.2219  -14.9006   22.6992 C   0  0  0  0  0  0  0  0  0  0  0  0
   10.2940  -14.3391   23.0469 O   0  0  0  0  0  0  0  0  0  0  0  0
    8.5222  -15.5853   23.7306 N   0  0  0  0  0  0  0  0  0  0  0  0
    8.9834  -15.5605   25.1273 C   0  0  1  0  0  0  0  0  0  0  0  0
    7.8079  -15.3260   26.0369 C   0  0  0  0  0  0  0  0  0  0  0  0
    7.4492  -13.9425   26.3143 C   0  0  0  0  0  0  0  0  0  0  0  0
    8.4471  -12.9653   26.4507 C   0  0  0  0  0  0  0  0  0  0  0  0
    8.1370  -11.6511   26.7127 C   0  0  0  0  0  0  0  0  0  0  0  0
    6.8274  -11.2518   26.8501 C   0  0  0  0  0  0  0  0  0  0  0  0
    5.8226  -12.1827   26.7227 C   0  0  0  0  0  0  0  0  0  0  0  0
    6.1430  -13.4969   26.4602 C   0  0  0  0  0  0  0  0  0  0  0  0
    9.5903  -16.8839   25.3838 C   0  0  0  0  0  0  0  0  0  0  0  0
    9.8906  -17.2440   26.5784 O   0  0  0  0  0  0  0  0  0  0  0  0
    9.8883  -17.8540   24.3883 N   0  0  0  0  0  0  0  0  0  0  0  0
   10.4923  -19.1427   24.7422 C   0  0  0  0  0  0  0  0  0  0  0  0
   11.9592  -19.1020   24.6439 C   0  0  0  0  0  0  0  0  0  0  0  0
   12.5377  -18.0494   24.3255 O   0  0  0  0  0  0  0  0  0  0  0  0
   12.6873  -20.2363   24.9065 O   0  0  0  0  0  0  0  0  0  0  0  0
  2  1  1  6
  3  2  1  0
  4  2  1  0
  4  5  1  0
  5  6  1  1
  7  5  1  0
  7  8  2  0
  9  7  1  0
 10  9  1  0
 10 11  1  1
 11 12  1  0
 12 17  2  0
 13 12  1  0
 13 14  2  0
 14 15  1  0
 15 16  2  0
 17 16  1  0
 18 10  1  0
 19 18  2  0
 20 18  1  0
 21 22  1  0
 21 20  1  0
 22 24  1  0
 23 22  2  0
M  END
$$$$
