LFG.pdb
     RDKit          3D

 24 24  0  0  1  0  0  0  0  0999 V2000
    9.3219  -20.8040   20.6518 C   0  0  0  0  0  0  0  0  0  0  0  0
    8.6497  -19.5414   20.2155 C   0  0  2  0  0  0  0  0  0  0  0  0
    8.4590  -19.5859   18.7116 C   0  0  0  0  0  0  0  0  0  0  0  0
    9.4016  -18.2960   20.6042 C   0  0  0  0  0  0  0  0  0  0  0  0
    8.5612  -17.0792   20.2960 C   0  0  2  0  0  0  0  0  0  0  0  0
    8.7274  -16.6390   18.9373 N   0  0  0  0  0  0  0  0  0  0  0  0
    8.7850  -15.9711   21.2172 C   0  0  0  0  0  0  0  0  0  0  0  0
    9.5757  -15.0126   21.0135 O   0  0  0  0  0  0  0  0  0  0  0  0
    8.0756  -15.9338   22.4491 N   0  0  0  0  0  0  0  0  0  0  0  0
    8.2530  -14.8355   23.4116 C   0  0  1  0  0  0  0  0  0  0  0  0
    6.9643  -14.6106   24.1552 C   0  0  0  0  0  0  0  0  0  0  0  0
    6.9546  -13.5603   25.1633 C   0  0  0  0  0  0  0  0  0  0  0  0
    6.9918  -12.2107   24.7811 C   0  0  0  0  0  0  0  0  0  0  0  0
    6.9837  -11.1980   25.7119 C   0  0  0  0  0  0  0  0  0  0  0  0
    6.9384  -11.4808   27.0578 C   0  0  0  0  0  0  0  0  0  0  0  0
    6.9009  -12.7930   27.4694 C   0  0  0  0  0  0  0  0  0  0  0  0
    6.9095  -13.8005   26.5295 C   0  0  0  0  0  0  0  0  0  0  0  0
    9.3241  -15.2664   24.3348 C   0  0  0  0  0  0  0  0  0  0  0  0
    9.8079  -14.4509   25.1996 O   0  0  0  0  0  0  0  0  0  0  0  0
    9.9026  -16.5645   24.3677 N   0  0  0  0  0  0  0  0  0  0  0  0
   10.9567  -16.9008   25.3303 C   0  0  0  0  0  0  0  0  0  0  0  0
   10.4006  -17.4396   26.5807 C   0  0  0  0  0  0  0  0  0  0  0  0
   11.1560  -17.8012   27.4987 O   0  0  0  0  0  0  0  0  0  0  0  0
    9.0391  -17.5411   26.7281 O   0  0  0  0  0  0  0  0  0  0  0  0
  2  1  1  6
  3  2  1  0
  4  2  1  0
  4  5  1  0
  5  6  1  6
  7  5  1  0
  7  8  2  0
  9  7  1  0
 10  9  1  0
 10 11  1  1
 11 12  1  0
 12 17  2  0
 13 12  1  0
 13 14  2  0
 14 15  1  0
 15 16  2  0
 17 16  1  0
 18 10  1  0
 19 18  2  0
 20 18  1  0
 21 22  1  0
 21 20  1  0
 22 24  1  0
 23 22  2  0
M  END
$$$$
