LFG.pdb
     RDKit          3D

 24 24  0  0  1  0  0  0  0  0999 V2000
    8.5574  -14.5284   18.4912 C   0  0  0  0  0  0  0  0  0  0  0  0
    7.7437  -13.7349   19.4632 C   0  0  2  0  0  0  0  0  0  0  0  0
    7.4531  -12.3746   18.8585 C   0  0  0  0  0  0  0  0  0  0  0  0
    8.4041  -13.5725   20.8066 C   0  0  0  0  0  0  0  0  0  0  0  0
    8.6144  -14.9297   21.4357 C   0  0  2  0  0  0  0  0  0  0  0  0
    7.4084  -15.7126   21.4448 N   0  0  0  0  0  0  0  0  0  0  0  0
    9.1856  -14.8658   22.7759 C   0  0  0  0  0  0  0  0  0  0  0  0
   10.1806  -14.1669   23.1030 O   0  0  0  0  0  0  0  0  0  0  0  0
    8.6036  -15.6362   23.8198 N   0  0  0  0  0  0  0  0  0  0  0  0
    9.0880  -15.5523   25.2064 C   0  0  1  0  0  0  0  0  0  0  0  0
    7.9173  -15.3692   26.1338 C   0  0  0  0  0  0  0  0  0  0  0  0
    7.3735  -14.0245   26.2584 C   0  0  0  0  0  0  0  0  0  0  0  0
    8.1677  -12.9826   26.7610 C   0  0  0  0  0  0  0  0  0  0  0  0
    7.6800  -11.7029   26.8895 C   0  0  0  0  0  0  0  0  0  0  0  0
    6.3870  -11.4036   26.5259 C   0  0  0  0  0  0  0  0  0  0  0  0
    5.5793  -12.4003   26.0292 C   0  0  0  0  0  0  0  0  0  0  0  0
    6.0768  -13.6792   25.9041 C   0  0  0  0  0  0  0  0  0  0  0  0
    9.7793  -16.8303   25.4788 C   0  0  0  0  0  0  0  0  0  0  0  0
   10.1125  -17.1501   26.6761 O   0  0  0  0  0  0  0  0  0  0  0  0
   10.1288  -17.7969   24.4967 N   0  0  0  0  0  0  0  0  0  0  0  0
   10.7786  -19.0573   24.8709 C   0  0  0  0  0  0  0  0  0  0  0  0
   12.2404  -18.9796   24.7285 C   0  0  0  0  0  0  0  0  0  0  0  0
   12.7808  -17.9179   24.3753 O   0  0  0  0  0  0  0  0  0  0  0  0
   13.0061  -20.0895   24.9887 O   0  0  0  0  0  0  0  0  0  0  0  0
  2  1  1  6
  3  2  1  0
  4  2  1  0
  4  5  1  0
  5  6  1  1
  7  5  1  0
  7  8  2  0
  9  7  1  0
 10  9  1  0
 10 11  1  1
 11 12  1  0
 12 17  2  0
 13 12  1  0
 13 14  2  0
 14 15  1  0
 15 16  2  0
 17 16  1  0
 18 10  1  0
 19 18  2  0
 20 18  1  0
 21 22  1  0
 21 20  1  0
 22 24  1  0
 23 22  2  0
M  END
$$$$
