LFG.pdb
     RDKit          3D

 24 24  0  0  1  0  0  0  0  0999 V2000
    8.0210  -14.6473   18.1896 C   0  0  0  0  0  0  0  0  0  0  0  0
    7.3255  -13.7271   19.1414 C   0  0  2  0  0  0  0  0  0  0  0  0
    6.9913  -12.4379   18.4157 C   0  0  0  0  0  0  0  0  0  0  0  0
    8.1263  -13.4292   20.3814 C   0  0  0  0  0  0  0  0  0  0  0  0
    8.2529  -14.6817   21.2163 C   0  0  2  0  0  0  0  0  0  0  0  0
    6.9900  -15.3483   21.3837 N   0  0  0  0  0  0  0  0  0  0  0  0
    8.8798  -14.4536   22.5130 C   0  0  0  0  0  0  0  0  0  0  0  0
    9.5196  -13.4172   22.8322 O   0  0  0  0  0  0  0  0  0  0  0  0
    8.7837  -15.4532   23.5199 N   0  0  0  0  0  0  0  0  0  0  0  0
    9.4176  -15.2886   24.8372 C   0  0  1  0  0  0  0  0  0  0  0  0
    8.3623  -15.3392   25.9086 C   0  0  0  0  0  0  0  0  0  0  0  0
    7.7057  -14.0862   26.2528 C   0  0  0  0  0  0  0  0  0  0  0  0
    6.3301  -13.9223   26.0297 C   0  0  0  0  0  0  0  0  0  0  0  0
    5.6840  -12.7497   26.3452 C   0  0  0  0  0  0  0  0  0  0  0  0
    6.3735  -11.6929   26.8940 C   0  0  0  0  0  0  0  0  0  0  0  0
    7.7236  -11.8179   27.1268 C   0  0  0  0  0  0  0  0  0  0  0  0
    8.3621  -12.9964   26.8074 C   0  0  0  0  0  0  0  0  0  0  0  0
   10.3664  -16.4132   24.9806 C   0  0  0  0  0  0  0  0  0  0  0  0
    9.9868  -17.5261   25.4946 O   0  0  0  0  0  0  0  0  0  0  0  0
   11.7307  -16.3885   24.5820 N   0  0  0  0  0  0  0  0  0  0  0  0
   12.5945  -17.5600   24.7616 C   0  0  0  0  0  0  0  0  0  0  0  0
   13.9685  -17.2984   24.3069 C   0  0  0  0  0  0  0  0  0  0  0  0
   14.2764  -17.4615   23.1142 O   0  0  0  0  0  0  0  0  0  0  0  0
   14.9110  -16.8719   25.2100 O   0  0  0  0  0  0  0  0  0  0  0  0
  2  1  1  6
  3  2  1  0
  4  2  1  0
  4  5  1  0
  5  6  1  1
  7  5  1  0
  7  8  2  0
  9  7  1  0
 10  9  1  0
 10 11  1  1
 11 12  1  0
 12 17  2  0
 13 12  1  0
 13 14  2  0
 14 15  1  0
 15 16  2  0
 17 16  1  0
 18 10  1  0
 19 18  2  0
 20 18  1  0
 21 22  1  0
 21 20  1  0
 22 24  1  0
 23 22  2  0
M  END
$$$$
