LFG.pdb
     RDKit          3D

 24 24  0  0  1  0  0  0  0  0999 V2000
    9.1890  -20.8613   21.1234 C   0  0  0  0  0  0  0  0  0  0  0  0
    8.6180  -19.5695   20.6320 C   0  0  2  0  0  0  0  0  0  0  0  0
    8.2779  -19.7158   19.1612 C   0  0  0  0  0  0  0  0  0  0  0  0
    9.5346  -18.3923   20.8356 C   0  0  0  0  0  0  0  0  0  0  0  0
    8.8265  -17.1217   20.4280 C   0  0  2  0  0  0  0  0  0  0  0  0
    9.1670  -16.7201   19.0900 N   0  0  0  0  0  0  0  0  0  0  0  0
    9.0367  -16.0170   21.3562 C   0  0  0  0  0  0  0  0  0  0  0  0
    9.8331  -15.0598   21.1693 O   0  0  0  0  0  0  0  0  0  0  0  0
    8.3059  -15.9816   22.5756 N   0  0  0  0  0  0  0  0  0  0  0  0
    8.3772  -14.8296   23.4878 C   0  0  1  0  0  0  0  0  0  0  0  0
    7.0088  -14.5516   24.0484 C   0  0  0  0  0  0  0  0  0  0  0  0
    6.9030  -13.4997   25.0494 C   0  0  0  0  0  0  0  0  0  0  0  0
    7.1622  -12.1645   24.7044 C   0  0  0  0  0  0  0  0  0  0  0  0
    7.0700  -11.1507   25.6295 C   0  0  0  0  0  0  0  0  0  0  0  0
    6.7176  -11.4181   26.9325 C   0  0  0  0  0  0  0  0  0  0  0  0
    6.4562  -12.7159   27.3067 C   0  0  0  0  0  0  0  0  0  0  0  0
    6.5512  -13.7247   26.3729 C   0  0  0  0  0  0  0  0  0  0  0  0
    9.3173  -15.2132   24.5623 C   0  0  0  0  0  0  0  0  0  0  0  0
    9.5756  -14.4033   25.5237 O   0  0  0  0  0  0  0  0  0  0  0  0
    9.9993  -16.4576   24.6470 N   0  0  0  0  0  0  0  0  0  0  0  0
   10.9690  -16.7196   25.7155 C   0  0  0  0  0  0  0  0  0  0  0  0
   11.5368  -18.0727   25.6159 C   0  0  0  0  0  0  0  0  0  0  0  0
   11.4645  -18.8558   26.5779 O   0  0  0  0  0  0  0  0  0  0  0  0
   12.1487  -18.4663   24.4511 O   0  0  0  0  0  0  0  0  0  0  0  0
  2  1  1  6
  3  2  1  0
  4  2  1  0
  4  5  1  0
  5  6  1  6
  7  5  1  0
  7  8  2  0
  9  7  1  0
 10  9  1  0
 10 11  1  1
 11 12  1  0
 12 17  2  0
 13 12  1  0
 13 14  2  0
 14 15  1  0
 15 16  2  0
 17 16  1  0
 18 10  1  0
 19 18  2  0
 20 18  1  0
 21 22  1  0
 21 20  1  0
 22 24  1  0
 23 22  2  0
M  END
$$$$
