LFG.pdb
     RDKit          3D

 24 24  0  0  1  0  0  0  0  0999 V2000
    8.6613  -14.3453   18.7087 C   0  0  0  0  0  0  0  0  0  0  0  0
    7.7151  -13.7244   19.6863 C   0  0  2  0  0  0  0  0  0  0  0  0
    7.3176  -12.3529   19.1752 C   0  0  0  0  0  0  0  0  0  0  0  0
    8.2778  -13.6137   21.0785 C   0  0  0  0  0  0  0  0  0  0  0  0
    8.6231  -14.9900   21.5969 C   0  0  2  0  0  0  0  0  0  0  0  0
    7.4902  -15.8751   21.5731 N   0  0  0  0  0  0  0  0  0  0  0  0
    9.2254  -14.9756   22.9248 C   0  0  0  0  0  0  0  0  0  0  0  0
   10.2679  -14.3420   23.2369 O   0  0  0  0  0  0  0  0  0  0  0  0
    8.6198  -15.7206   23.9738 N   0  0  0  0  0  0  0  0  0  0  0  0
    9.1363  -15.6796   25.3506 C   0  0  1  0  0  0  0  0  0  0  0  0
    7.9935  -15.4675   26.3063 C   0  0  0  0  0  0  0  0  0  0  0  0
    7.5056  -14.1051   26.4652 C   0  0  0  0  0  0  0  0  0  0  0  0
    8.3805  -13.0802   26.8567 C   0  0  0  0  0  0  0  0  0  0  0  0
    7.9469  -11.7843   27.0145 C   0  0  0  0  0  0  0  0  0  0  0  0
    6.6305  -11.4515   26.7912 C   0  0  0  0  0  0  0  0  0  0  0  0
    5.7443  -12.4307   26.4061 C   0  0  0  0  0  0  0  0  0  0  0  0
    6.1880  -13.7259   26.2506 C   0  0  0  0  0  0  0  0  0  0  0  0
    9.7827  -16.9880   25.5867 C   0  0  0  0  0  0  0  0  0  0  0  0
   10.0817  -17.3633   26.7769 O   0  0  0  0  0  0  0  0  0  0  0  0
   10.1224  -17.9271   24.5749 N   0  0  0  0  0  0  0  0  0  0  0  0
   10.7544  -19.2074   24.9100 C   0  0  0  0  0  0  0  0  0  0  0  0
   12.1924  -19.2021   24.6016 C   0  0  0  0  0  0  0  0  0  0  0  0
   12.5824  -19.0562   23.4308 O   0  0  0  0  0  0  0  0  0  0  0  0
   13.1034  -19.3597   25.6170 O   0  0  0  0  0  0  0  0  0  0  0  0
  2  1  1  6
  3  2  1  0
  4  2  1  0
  4  5  1  0
  5  6  1  1
  7  5  1  0
  7  8  2  0
  9  7  1  0
 10  9  1  0
 10 11  1  1
 11 12  1  0
 12 17  2  0
 13 12  1  0
 13 14  2  0
 14 15  1  0
 15 16  2  0
 17 16  1  0
 18 10  1  0
 19 18  2  0
 20 18  1  0
 21 22  1  0
 21 20  1  0
 22 24  1  0
 23 22  2  0
M  END
$$$$
