QYA.pdb
     RDKit          3D

 27 27  0  0  1  0  0  0  0  0999 V2000
   13.6374  -18.7008   17.5273 N   0  0  0  0  0  0  0  0  0  0  0  0
   12.6196  -19.6727   17.7942 C   0  0  0  0  0  0  0  0  0  0  0  0
   12.4416  -20.5409   16.9243 O   0  0  0  0  0  0  0  0  0  0  0  0
   11.8732  -19.5709   19.0603 C   0  0  0  0  0  0  0  0  0  0  0  0
   11.7538  -18.1620   19.5819 C   0  0  0  0  0  0  0  0  0  0  0  0
   10.3430  -17.7065   19.8004 C   0  0  2  0  0  0  0  0  0  0  0  0
    9.9011  -17.0161   18.6048 N   0  0  0  0  0  0  0  0  0  0  0  0
   10.2832  -16.8401   20.9996 C   0  0  0  0  0  0  0  0  0  0  0  0
   11.2651  -16.0800   21.2028 O   0  0  0  0  0  0  0  0  0  0  0  0
    7.6741  -12.0153   18.2246 O   0  0  0  0  0  0  0  0  0  0  0  0
    7.7066  -12.7956   19.3723 C   0  0  0  0  0  0  0  0  0  0  0  0
    8.4085  -12.3616   20.4620 C   0  0  0  0  0  0  0  0  0  0  0  0
    8.4488  -13.1208   21.5997 C   0  0  0  0  0  0  0  0  0  0  0  0
    7.7954  -14.3363   21.6982 C   0  0  0  0  0  0  0  0  0  0  0  0
    7.8932  -15.0816   22.9549 C   0  0  0  0  0  0  0  0  0  0  0  0
    9.1500  -15.9222   23.0585 C   0  0  2  0  0  0  0  0  0  0  0  0
    9.2187  -16.8077   21.9160 N   0  0  0  0  0  0  0  0  0  0  0  0
    9.0227  -16.7464   24.2814 C   0  0  0  0  0  0  0  0  0  0  0  0
    7.8947  -17.1292   24.6336 O   0  0  0  0  0  0  0  0  0  0  0  0
    7.0854  -14.7817   20.6049 C   0  0  0  0  0  0  0  0  0  0  0  0
    7.0507  -14.0148   19.4701 C   0  0  0  0  0  0  0  0  0  0  0  0
   10.8430  -19.2162   26.0600 C   0  0  0  0  0  0  0  0  0  0  0  0
   10.1251  -17.8950   26.2185 C   0  0  2  0  0  0  0  0  0  0  0  0
   10.1667  -17.0917   25.0362 N   0  0  0  0  0  0  0  0  0  0  0  0
   10.7636  -17.1985   27.3642 C   0  0  0  0  0  0  0  0  0  0  0  0
   11.4077  -15.9798   27.2350 O   0  0  0  0  0  0  0  0  0  0  0  0
   10.7076  -17.7525   28.4914 O   0  0  0  0  0  0  0  0  0  0  0  0
  1  2  1  0
  2  3  2  0
  4  2  1  0
  5  4  1  0
  6  5  1  0
  6  7  1  6
  8  9  2  0
  8  6  1  0
 10 11  1  0
 11 12  2  0
 12 13  1  0
 14 15  1  0
 14 13  2  0
 16 15  1  6
 16 17  1  0
 17  8  1  0
 18 16  1  0
 18 24  1  0
 19 18  2  0
 20 14  1  0
 21 20  2  0
 21 11  1  0
 23 25  1  0
 23 24  1  0
 23 22  1  6
 25 26  1  0
 27 25  2  0
M  END
$$$$
