QYA.pdb
     RDKit          3D

 27 27  0  0  1  0  0  0  0  0999 V2000
    9.2608  -18.4517   16.9492 N   0  0  0  0  0  0  0  0  0  0  0  0
    9.4540  -17.1724   16.3344 C   0  0  0  0  0  0  0  0  0  0  0  0
   10.3503  -17.0996   15.4780 O   0  0  0  0  0  0  0  0  0  0  0  0
    8.5883  -16.0578   16.7573 C   0  0  0  0  0  0  0  0  0  0  0  0
    8.8879  -15.5503   18.1443 C   0  0  0  0  0  0  0  0  0  0  0  0
    8.0512  -14.3797   18.5631 C   0  0  2  0  0  0  0  0  0  0  0  0
    8.2846  -13.2992   17.6252 N   0  0  0  0  0  0  0  0  0  0  0  0
    8.3949  -13.9976   19.9515 C   0  0  0  0  0  0  0  0  0  0  0  0
    9.3392  -13.1794   20.1002 O   0  0  0  0  0  0  0  0  0  0  0  0
    7.2721  -12.4911   28.6265 O   0  0  0  0  0  0  0  0  0  0  0  0
    7.1367  -12.7993   27.2797 C   0  0  0  0  0  0  0  0  0  0  0  0
    6.8831  -14.0896   26.9064 C   0  0  0  0  0  0  0  0  0  0  0  0
    6.7474  -14.4072   25.5823 C   0  0  0  0  0  0  0  0  0  0  0  0
    6.8581  -13.4583   24.5816 C   0  0  0  0  0  0  0  0  0  0  0  0
    6.6983  -13.8883   23.1911 C   0  0  0  0  0  0  0  0  0  0  0  0
    8.0119  -14.0110   22.4454 C   0  0  2  0  0  0  0  0  0  0  0  0
    7.7477  -14.4793   21.1019 N   0  0  0  0  0  0  0  0  0  0  0  0
    8.8169  -15.0357   23.1475 C   0  0  0  0  0  0  0  0  0  0  0  0
    9.0919  -14.8662   24.3469 O   0  0  0  0  0  0  0  0  0  0  0  0
    7.1137  -12.1552   24.9485 C   0  0  0  0  0  0  0  0  0  0  0  0
    7.2480  -11.8466   26.2766 C   0  0  0  0  0  0  0  0  0  0  0  0
   10.0891  -18.4949   22.3205 C   0  0  0  0  0  0  0  0  0  0  0  0
   10.1343  -17.1664   23.0409 C   0  0  2  0  0  0  0  0  0  0  0  0
    9.2656  -16.1883   22.4635 N   0  0  0  0  0  0  0  0  0  0  0  0
   11.5485  -16.7139   23.0108 C   0  0  0  0  0  0  0  0  0  0  0  0
   11.9341  -15.4973   22.4740 O   0  0  0  0  0  0  0  0  0  0  0  0
   12.4190  -17.4795   23.4971 O   0  0  0  0  0  0  0  0  0  0  0  0
  1  2  1  0
  2  3  2  0
  4  2  1  0
  5  4  1  0
  6  5  1  0
  6  7  1  6
  8  9  2  0
  8  6  1  0
 10 11  1  0
 11 12  2  0
 12 13  1  0
 14 15  1  0
 14 13  2  0
 16 15  1  1
 16 17  1  0
 17  8  1  0
 18 16  1  0
 18 24  1  0
 19 18  2  0
 20 14  1  0
 21 20  2  0
 21 11  1  0
 23 25  1  0
 23 24  1  0
 23 22  1  6
 25 26  1  0
 27 25  2  0
M  END
$$$$
