QYA.pdb
     RDKit          3D

 27 27  0  0  1  0  0  0  0  0999 V2000
    7.0862  -21.4994   26.9664 N   0  0  0  0  0  0  0  0  0  0  0  0
    5.9510  -22.2268   26.4827 C   0  0  0  0  0  0  0  0  0  0  0  0
    5.4016  -22.9953   27.2887 O   0  0  0  0  0  0  0  0  0  0  0  0
    5.5275  -22.0114   25.0882 C   0  0  0  0  0  0  0  0  0  0  0  0
    6.2849  -20.9129   24.3875 C   0  0  0  0  0  0  0  0  0  0  0  0
    5.8016  -20.6240   22.9988 C   0  0  2  0  0  0  0  0  0  0  0  0
    5.9389  -21.8337   22.2120 N   0  0  0  0  0  0  0  0  0  0  0  0
    6.5757  -19.4973   22.4301 C   0  0  0  0  0  0  0  0  0  0  0  0
    7.6169  -19.7888   21.7867 O   0  0  0  0  0  0  0  0  0  0  0  0
    8.6702  -11.5891   19.1729 O   0  0  0  0  0  0  0  0  0  0  0  0
    8.0542  -12.6100   19.8837 C   0  0  0  0  0  0  0  0  0  0  0  0
    7.5890  -13.7091   19.2172 C   0  0  0  0  0  0  0  0  0  0  0  0
    6.9798  -14.7226   19.9056 C   0  0  0  0  0  0  0  0  0  0  0  0
    6.8099  -14.6835   21.2781 C   0  0  0  0  0  0  0  0  0  0  0  0
    6.1466  -15.8133   21.9319 C   0  0  0  0  0  0  0  0  0  0  0  0
    7.0227  -17.0454   22.0372 C   0  0  2  0  0  0  0  0  0  0  0  0
    6.2328  -18.1407   22.5573 N   0  0  0  0  0  0  0  0  0  0  0  0
    8.0926  -16.7366   23.0123 C   0  0  0  0  0  0  0  0  0  0  0  0
    7.7851  -16.5381   24.1994 O   0  0  0  0  0  0  0  0  0  0  0  0
    7.2756  -13.5796   21.9582 C   0  0  0  0  0  0  0  0  0  0  0  0
    7.8842  -12.5697   21.2606 C   0  0  0  0  0  0  0  0  0  0  0  0
   10.9058  -17.6373   24.3132 C   0  0  0  0  0  0  0  0  0  0  0  0
   10.5343  -16.4251   23.4895 C   0  0  2  0  0  0  0  0  0  0  0  0
    9.4424  -16.6685   22.5989 N   0  0  0  0  0  0  0  0  0  0  0  0
   11.7560  -16.0255   22.7456 C   0  0  0  0  0  0  0  0  0  0  0  0
   11.8004  -15.9512   21.3638 O   0  0  0  0  0  0  0  0  0  0  0  0
   12.7836  -15.7463   23.4138 O   0  0  0  0  0  0  0  0  0  0  0  0
  1  2  1  0
  2  3  2  0
  4  2  1  0
  5  4  1  0
  6  5  1  0
  6  7  1  6
  8  9  2  0
  8  6  1  0
 10 11  1  0
 11 12  2  0
 12 13  1  0
 14 15  1  0
 14 13  2  0
 16 15  1  1
 16 17  1  0
 17  8  1  0
 18 16  1  0
 18 24  1  0
 19 18  2  0
 20 14  1  0
 21 20  2  0
 21 11  1  0
 23 25  1  0
 23 24  1  0
 23 22  1  6
 25 26  1  0
 27 25  2  0
M  END
$$$$
