QYA.pdb
     RDKit          3D

 27 27  0  0  1  0  0  0  0  0999 V2000
    6.1506  -20.7289   20.4782 N   0  0  0  0  0  0  0  0  0  0  0  0
    6.3754  -19.8939   19.3361 C   0  0  0  0  0  0  0  0  0  0  0  0
    6.4329  -20.4657   18.2353 O   0  0  0  0  0  0  0  0  0  0  0  0
    6.5184  -18.4434   19.5504 C   0  0  0  0  0  0  0  0  0  0  0  0
    6.4633  -18.0365   21.0004 C   0  0  0  0  0  0  0  0  0  0  0  0
    6.5232  -16.5560   21.2246 C   0  0  2  0  0  0  0  0  0  0  0  0
    6.9376  -15.9280   19.9855 N   0  0  0  0  0  0  0  0  0  0  0  0
    7.4538  -16.2617   22.3379 C   0  0  0  0  0  0  0  0  0  0  0  0
    8.6314  -15.9455   22.0277 O   0  0  0  0  0  0  0  0  0  0  0  0
    6.9488   -9.9501   26.1245 O   0  0  0  0  0  0  0  0  0  0  0  0
    6.9989  -11.3374   26.1180 C   0  0  0  0  0  0  0  0  0  0  0  0
    7.8965  -11.9750   25.3080 C   0  0  0  0  0  0  0  0  0  0  0  0
    7.9564  -13.3420   25.2918 C   0  0  0  0  0  0  0  0  0  0  0  0
    7.1296  -14.1254   26.0771 C   0  0  0  0  0  0  0  0  0  0  0  0
    7.2633  -15.5812   25.9953 C   0  0  0  0  0  0  0  0  0  0  0  0
    8.0432  -16.0457   24.7818 C   0  0  2  0  0  0  0  0  0  0  0  0
    7.1175  -16.3103   23.7013 N   0  0  0  0  0  0  0  0  0  0  0  0
    8.7062  -17.3166   25.1507 C   0  0  0  0  0  0  0  0  0  0  0  0
    8.0087  -18.3288   25.3293 O   0  0  0  0  0  0  0  0  0  0  0  0
    6.2217  -13.4913   26.8967 C   0  0  0  0  0  0  0  0  0  0  0  0
    6.1689  -12.1224   26.9062 C   0  0  0  0  0  0  0  0  0  0  0  0
   12.2443  -18.5715   25.0990 C   0  0  0  0  0  0  0  0  0  0  0  0
   10.8247  -18.5733   25.6192 C   0  0  2  0  0  0  0  0  0  0  0  0
   10.1106  -17.3769   25.2977 N   0  0  0  0  0  0  0  0  0  0  0  0
   10.9103  -18.7697   27.0888 C   0  0  0  0  0  0  0  0  0  0  0  0
   11.4633  -19.9021   27.6620 O   0  0  0  0  0  0  0  0  0  0  0  0
   10.4571  -17.8599   27.8287 O   0  0  0  0  0  0  0  0  0  0  0  0
  1  2  1  0
  2  3  2  0
  4  2  1  0
  5  4  1  0
  6  5  1  0
  6  7  1  6
  8  9  2  0
  8  6  1  0
 10 11  1  0
 11 12  2  0
 12 13  1  0
 14 15  1  0
 14 13  2  0
 16 15  1  1
 16 17  1  0
 17  8  1  0
 18 16  1  0
 18 24  1  0
 19 18  2  0
 20 14  1  0
 21 20  2  0
 21 11  1  0
 23 25  1  0
 23 24  1  0
 23 22  1  1
 25 26  1  0
 27 25  2  0
M  END
$$$$
