QYA.pdb
     RDKit          3D

 27 27  0  0  1  0  0  0  0  0999 V2000
    7.9645  -12.8113   17.1882 N   0  0  0  0  0  0  0  0  0  0  0  0
    8.0468  -14.1539   16.6957 C   0  0  0  0  0  0  0  0  0  0  0  0
    7.6527  -14.3422   15.5333 O   0  0  0  0  0  0  0  0  0  0  0  0
    8.5846  -15.1931   17.5909 C   0  0  0  0  0  0  0  0  0  0  0  0
    9.0741  -14.6602   18.9129 C   0  0  0  0  0  0  0  0  0  0  0  0
    9.6186  -15.7098   19.8335 C   0  0  2  0  0  0  0  0  0  0  0  0
    8.6329  -16.7667   19.9466 N   0  0  0  0  0  0  0  0  0  0  0  0
    9.9367  -15.1006   21.1449 C   0  0  0  0  0  0  0  0  0  0  0  0
   10.5040  -13.9776   21.1289 O   0  0  0  0  0  0  0  0  0  0  0  0
    5.7770  -11.5145   27.7210 O   0  0  0  0  0  0  0  0  0  0  0  0
    6.3056  -12.1893   26.6291 C   0  0  0  0  0  0  0  0  0  0  0  0
    5.9768  -13.5001   26.4239 C   0  0  0  0  0  0  0  0  0  0  0  0
    6.4908  -14.1772   25.3516 C   0  0  0  0  0  0  0  0  0  0  0  0
    7.3483  -13.5800   24.4449 C   0  0  0  0  0  0  0  0  0  0  0  0
    7.8500  -14.3810   23.3266 C   0  0  0  0  0  0  0  0  0  0  0  0
    9.2378  -14.9417   23.5641 C   0  0  2  0  0  0  0  0  0  0  0  0
    9.6525  -15.6822   22.3920 N   0  0  0  0  0  0  0  0  0  0  0  0
    9.1377  -15.8843   24.7010 C   0  0  0  0  0  0  0  0  0  0  0  0
    8.7273  -15.4644   25.7957 O   0  0  0  0  0  0  0  0  0  0  0  0
    7.6853  -12.2590   24.6438 C   0  0  0  0  0  0  0  0  0  0  0  0
    7.1659  -11.5892   25.7201 C   0  0  0  0  0  0  0  0  0  0  0  0
    9.5497  -19.6162   25.1529 C   0  0  0  0  0  0  0  0  0  0  0  0
    9.5587  -18.1785   25.6209 C   0  0  2  0  0  0  0  0  0  0  0  0
    9.5038  -17.2403   24.5432 N   0  0  0  0  0  0  0  0  0  0  0  0
   10.7938  -18.0007   26.4260 C   0  0  0  0  0  0  0  0  0  0  0  0
   11.7514  -17.0464   26.1273 O   0  0  0  0  0  0  0  0  0  0  0  0
   10.9611  -18.7565   27.4166 O   0  0  0  0  0  0  0  0  0  0  0  0
  1  2  1  0
  2  3  2  0
  4  2  1  0
  5  4  1  0
  6  5  1  0
  6  7  1  1
  8  9  2  0
  8  6  1  0
 10 11  1  0
 11 12  2  0
 12 13  1  0
 14 15  1  0
 14 13  2  0
 16 15  1  6
 16 17  1  0
 17  8  1  0
 18 16  1  0
 18 24  1  0
 19 18  2  0
 20 14  1  0
 21 20  2  0
 21 11  1  0
 23 25  1  0
 23 24  1  0
 23 22  1  6
 25 26  1  0
 27 25  2  0
M  END
$$$$
