QYA.pdb
     RDKit          3D

 27 27  0  0  1  0  0  0  0  0999 V2000
    9.2740  -13.9782   15.3795 N   0  0  0  0  0  0  0  0  0  0  0  0
    7.9069  -14.3555   15.5816 C   0  0  0  0  0  0  0  0  0  0  0  0
    7.2630  -14.6673   14.5666 O   0  0  0  0  0  0  0  0  0  0  0  0
    7.3770  -14.3458   16.9563 C   0  0  0  0  0  0  0  0  0  0  0  0
    8.4055  -13.9934   17.9999 C   0  0  0  0  0  0  0  0  0  0  0  0
    8.7768  -15.1299   18.9033 C   0  0  2  0  0  0  0  0  0  0  0  0
    7.7353  -16.1345   18.8168 N   0  0  0  0  0  0  0  0  0  0  0  0
    8.9533  -14.6264   20.2844 C   0  0  0  0  0  0  0  0  0  0  0  0
    9.8841  -13.8017   20.4756 O   0  0  0  0  0  0  0  0  0  0  0  0
    7.1750  -12.0102   28.5316 O   0  0  0  0  0  0  0  0  0  0  0  0
    7.1492  -12.5152   27.2388 C   0  0  0  0  0  0  0  0  0  0  0  0
    6.5410  -13.7152   26.9966 C   0  0  0  0  0  0  0  0  0  0  0  0
    6.5084  -14.2246   25.7270 C   0  0  0  0  0  0  0  0  0  0  0  0
    7.0769  -13.5636   24.6528 C   0  0  0  0  0  0  0  0  0  0  0  0
    6.9945  -14.1834   23.3287 C   0  0  0  0  0  0  0  0  0  0  0  0
    8.3493  -14.5064   22.7313 C   0  0  2  0  0  0  0  0  0  0  0  0
    8.1630  -15.0010   21.3841 N   0  0  0  0  0  0  0  0  0  0  0  0
    8.9388  -15.5899   23.5494 C   0  0  0  0  0  0  0  0  0  0  0  0
    8.8151  -15.5457   24.7846 O   0  0  0  0  0  0  0  0  0  0  0  0
    7.6921  -12.3534   24.8874 C   0  0  0  0  0  0  0  0  0  0  0  0
    7.7199  -11.8513   26.1618 C   0  0  0  0  0  0  0  0  0  0  0  0
   10.7026  -18.8600   22.7898 C   0  0  0  0  0  0  0  0  0  0  0  0
   10.3059  -17.6889   23.6600 C   0  0  2  0  0  0  0  0  0  0  0  0
    9.6315  -16.6575   22.9346 N   0  0  0  0  0  0  0  0  0  0  0  0
   11.5540  -17.1797   24.2831 C   0  0  0  0  0  0  0  0  0  0  0  0
   12.3602  -17.9622   25.0922 O   0  0  0  0  0  0  0  0  0  0  0  0
   11.8774  -15.9862   24.0561 O   0  0  0  0  0  0  0  0  0  0  0  0
  1  2  1  0
  2  3  2  0
  4  2  1  0
  5  4  1  0
  6  5  1  0
  6  7  1  1
  8  9  2  0
  8  6  1  0
 10 11  1  0
 11 12  2  0
 12 13  1  0
 14 15  1  0
 14 13  2  0
 16 15  1  1
 16 17  1  0
 17  8  1  0
 18 16  1  0
 18 24  1  0
 19 18  2  0
 20 14  1  0
 21 20  2  0
 21 11  1  0
 23 25  1  0
 23 24  1  0
 23 22  1  6
 25 26  1  0
 27 25  2  0
M  END
$$$$
