QYA.pdb
     RDKit          3D

 27 27  0  0  1  0  0  0  0  0999 V2000
    7.9573  -12.1067   18.5053 N   0  0  0  0  0  0  0  0  0  0  0  0
    7.8283  -13.5332   18.5269 C   0  0  0  0  0  0  0  0  0  0  0  0
    7.6690  -14.0912   17.4290 O   0  0  0  0  0  0  0  0  0  0  0  0
    7.8941  -14.2194   19.8290 C   0  0  0  0  0  0  0  0  0  0  0  0
    9.2562  -14.7774   20.1519 C   0  0  0  0  0  0  0  0  0  0  0  0
    9.2258  -16.0923   20.8700 C   0  0  2  0  0  0  0  0  0  0  0  0
    7.9297  -16.7008   20.6435 N   0  0  0  0  0  0  0  0  0  0  0  0
    9.4970  -15.8762   22.3094 C   0  0  0  0  0  0  0  0  0  0  0  0
   10.5787  -15.3058   22.6060 O   0  0  0  0  0  0  0  0  0  0  0  0
    6.3209  -10.3501   26.2024 O   0  0  0  0  0  0  0  0  0  0  0  0
    6.6758  -11.6822   26.0397 C   0  0  0  0  0  0  0  0  0  0  0  0
    5.7515  -12.5728   25.5697 C   0  0  0  0  0  0  0  0  0  0  0  0
    6.0880  -13.8888   25.4046 C   0  0  0  0  0  0  0  0  0  0  0  0
    7.3516  -14.3690   25.6990 C   0  0  0  0  0  0  0  0  0  0  0  0
    7.6232  -15.7929   25.4915 C   0  0  0  0  0  0  0  0  0  0  0  0
    8.9241  -16.0560   24.7600 C   0  0  2  0  0  0  0  0  0  0  0  0
    8.6407  -16.2590   23.3555 N   0  0  0  0  0  0  0  0  0  0  0  0
    9.4863  -17.3103   25.3093 C   0  0  0  0  0  0  0  0  0  0  0  0
    8.8698  -18.3739   25.1313 O   0  0  0  0  0  0  0  0  0  0  0  0
    8.2899  -13.4786   26.1732 C   0  0  0  0  0  0  0  0  0  0  0  0
    7.9439  -12.1629   26.3353 C   0  0  0  0  0  0  0  0  0  0  0  0
   12.8512  -18.3711   26.5351 C   0  0  0  0  0  0  0  0  0  0  0  0
   11.3427  -18.4741   26.5282 C   0  0  2  0  0  0  0  0  0  0  0  0
   10.7049  -17.2974   26.0250 N   0  0  0  0  0  0  0  0  0  0  0  0
   10.9290  -18.7534   27.9269 C   0  0  0  0  0  0  0  0  0  0  0  0
   11.3078  -19.8994   28.6052 O   0  0  0  0  0  0  0  0  0  0  0  0
   10.2047  -17.9034   28.5043 O   0  0  0  0  0  0  0  0  0  0  0  0
  1  2  1  0
  2  3  2  0
  4  2  1  0
  5  4  1  0
  6  5  1  0
  6  7  1  1
  8  9  2  0
  8  6  1  0
 10 11  1  0
 11 12  2  0
 12 13  1  0
 14 15  1  0
 14 13  2  0
 16 15  1  1
 16 17  1  0
 17  8  1  0
 18 16  1  0
 18 24  1  0
 19 18  2  0
 20 14  1  0
 21 20  2  0
 21 11  1  0
 23 25  1  0
 23 24  1  0
 23 22  1  1
 25 26  1  0
 27 25  2  0
M  END
$$$$
