QYA.pdb
     RDKit          3D

 27 27  0  0  1  0  0  0  0  0999 V2000
    7.7588  -20.4385   19.9162 N   0  0  0  0  0  0  0  0  0  0  0  0
    9.1687  -20.1854   19.9094 C   0  0  0  0  0  0  0  0  0  0  0  0
    9.9039  -21.1548   19.6607 O   0  0  0  0  0  0  0  0  0  0  0  0
    9.6325  -18.8160   20.1928 C   0  0  0  0  0  0  0  0  0  0  0  0
    8.5141  -17.8342   20.4297 C   0  0  0  0  0  0  0  0  0  0  0  0
    8.9573  -16.4042   20.4965 C   0  0  2  0  0  0  0  0  0  0  0  0
    9.8349  -16.1504   19.3710 N   0  0  0  0  0  0  0  0  0  0  0  0
    9.6261  -16.1538   21.7934 C   0  0  0  0  0  0  0  0  0  0  0  0
   10.8749  -16.3032   21.8286 O   0  0  0  0  0  0  0  0  0  0  0  0
   10.7695  -14.4012   30.4284 O   0  0  0  0  0  0  0  0  0  0  0  0
   10.2287  -14.5976   29.1651 C   0  0  0  0  0  0  0  0  0  0  0  0
   10.3492  -13.6164   28.2210 C   0  0  0  0  0  0  0  0  0  0  0  0
    9.8208  -13.7969   26.9718 C   0  0  0  0  0  0  0  0  0  0  0  0
    9.1545  -14.9553   26.6136 C   0  0  0  0  0  0  0  0  0  0  0  0
    8.6211  -15.0619   25.2541 C   0  0  0  0  0  0  0  0  0  0  0  0
    9.6220  -15.6109   24.2574 C   0  0  2  0  0  0  0  0  0  0  0  0
    8.9711  -15.7653   22.9742 N   0  0  0  0  0  0  0  0  0  0  0  0
   10.0271  -16.9503   24.7400 C   0  0  0  0  0  0  0  0  0  0  0  0
    9.1695  -17.8455   24.8189 O   0  0  0  0  0  0  0  0  0  0  0  0
    9.0281  -15.9497   27.5587 C   0  0  0  0  0  0  0  0  0  0  0  0
    9.5604  -15.7601   28.8068 C   0  0  0  0  0  0  0  0  0  0  0  0
   13.2218  -18.7770   24.7657 C   0  0  0  0  0  0  0  0  0  0  0  0
   11.8759  -18.5098   25.4007 C   0  0  2  0  0  0  0  0  0  0  0  0
   11.3682  -17.2060   25.1055 N   0  0  0  0  0  0  0  0  0  0  0  0
   12.0500  -18.7004   26.8632 C   0  0  0  0  0  0  0  0  0  0  0  0
   12.5111  -19.8838   27.4144 O   0  0  0  0  0  0  0  0  0  0  0  0
   11.7620  -17.7370   27.6178 O   0  0  0  0  0  0  0  0  0  0  0  0
  1  2  1  0
  2  3  2  0
  4  2  1  0
  5  4  1  0
  6  5  1  0
  6  7  1  6
  8  9  2  0
  8  6  1  0
 10 11  1  0
 11 12  2  0
 12 13  1  0
 14 15  1  0
 14 13  2  0
 16 15  1  1
 16 17  1  0
 17  8  1  0
 18 16  1  0
 18 24  1  0
 19 18  2  0
 20 14  1  0
 21 20  2  0
 21 11  1  0
 23 25  1  0
 23 24  1  0
 23 22  1  6
 25 26  1  0
 27 25  2  0
M  END
$$$$
