QYA.pdb
     RDKit          3D

 27 27  0  0  1  0  0  0  0  0999 V2000
    5.8649  -20.3725   18.5363 N   0  0  0  0  0  0  0  0  0  0  0  0
    7.2922  -20.3019   18.4372 C   0  0  0  0  0  0  0  0  0  0  0  0
    7.9068  -21.3776   18.5224 O   0  0  0  0  0  0  0  0  0  0  0  0
    7.9131  -18.9799   18.2442 C   0  0  0  0  0  0  0  0  0  0  0  0
    7.6436  -18.0137   19.3690 C   0  0  0  0  0  0  0  0  0  0  0  0
    8.2008  -16.6407   19.1448 C   0  0  2  0  0  0  0  0  0  0  0  0
    9.3515  -16.7575   18.2710 N   0  0  0  0  0  0  0  0  0  0  0  0
    8.5490  -16.0296   20.4476 C   0  0  0  0  0  0  0  0  0  0  0  0
    9.7496  -16.1154   20.8144 O   0  0  0  0  0  0  0  0  0  0  0  0
    7.6790  -11.7577   28.1795 O   0  0  0  0  0  0  0  0  0  0  0  0
    7.4498  -12.3088   26.9262 C   0  0  0  0  0  0  0  0  0  0  0  0
    8.0745  -11.7776   25.8325 C   0  0  0  0  0  0  0  0  0  0  0  0
    7.8575  -12.3111   24.5913 C   0  0  0  0  0  0  0  0  0  0  0  0
    7.0143  -13.3892   24.3895 C   0  0  0  0  0  0  0  0  0  0  0  0
    6.8415  -13.8947   23.0262 C   0  0  0  0  0  0  0  0  0  0  0  0
    8.0022  -14.7441   22.5487 C   0  0  2  0  0  0  0  0  0  0  0  0
    7.6429  -15.3680   21.2935 N   0  0  0  0  0  0  0  0  0  0  0  0
    8.2071  -15.8078   23.5574 C   0  0  0  0  0  0  0  0  0  0  0  0
    7.3261  -16.6703   23.7089 O   0  0  0  0  0  0  0  0  0  0  0  0
    6.3803  -13.9311   25.4861 C   0  0  0  0  0  0  0  0  0  0  0  0
    6.6036  -13.3904   26.7249 C   0  0  0  0  0  0  0  0  0  0  0  0
   10.9714  -17.6456   24.8355 C   0  0  0  0  0  0  0  0  0  0  0  0
    9.7154  -16.9041   25.2337 C   0  0  2  0  0  0  0  0  0  0  0  0
    9.3863  -15.8409   24.3358 N   0  0  0  0  0  0  0  0  0  0  0  0
    9.9404  -16.3947   26.6104 C   0  0  0  0  0  0  0  0  0  0  0  0
   10.1971  -17.2292   27.6849 O   0  0  0  0  0  0  0  0  0  0  0  0
    9.8923  -15.1514   26.7901 O   0  0  0  0  0  0  0  0  0  0  0  0
  1  2  1  0
  2  3  2  0
  4  2  1  0
  5  4  1  0
  6  5  1  0
  6  7  1  6
  8  9  2  0
  8  6  1  0
 10 11  1  0
 11 12  2  0
 12 13  1  0
 14 15  1  0
 14 13  2  0
 16 15  1  1
 16 17  1  0
 17  8  1  0
 18 16  1  0
 18 24  1  0
 19 18  2  0
 20 14  1  0
 21 20  2  0
 21 11  1  0
 23 25  1  0
 23 24  1  0
 23 22  1  6
 25 26  1  0
 27 25  2  0
M  END
$$$$
