QYA.pdb
     RDKit          3D

 27 27  0  0  1  0  0  0  0  0999 V2000
   14.3350  -14.0038   17.5603 N   0  0  0  0  0  0  0  0  0  0  0  0
   13.4733  -15.0013   16.9995 C   0  0  0  0  0  0  0  0  0  0  0  0
   13.6057  -15.2281   15.7858 O   0  0  0  0  0  0  0  0  0  0  0  0
   12.5112  -15.6724   17.8909 C   0  0  0  0  0  0  0  0  0  0  0  0
   12.5917  -15.2145   19.3244 C   0  0  0  0  0  0  0  0  0  0  0  0
   12.1654  -16.2473   20.3230 C   0  0  2  0  0  0  0  0  0  0  0  0
   11.2529  -17.1618   19.6653 N   0  0  0  0  0  0  0  0  0  0  0  0
   11.5432  -15.5804   21.4892 C   0  0  0  0  0  0  0  0  0  0  0  0
   12.2454  -14.7372   22.1049 O   0  0  0  0  0  0  0  0  0  0  0  0
    8.1154  -12.4928   17.3544 O   0  0  0  0  0  0  0  0  0  0  0  0
    8.1544  -12.9903   18.6498 C   0  0  0  0  0  0  0  0  0  0  0  0
    7.7741  -14.2817   18.8869 C   0  0  0  0  0  0  0  0  0  0  0  0
    7.8078  -14.7848   20.1590 C   0  0  0  0  0  0  0  0  0  0  0  0
    8.2192  -14.0268   21.2408 C   0  0  0  0  0  0  0  0  0  0  0  0
    8.2232  -14.6475   22.5669 C   0  0  0  0  0  0  0  0  0  0  0  0
    9.6013  -15.0840   23.0218 C   0  0  2  0  0  0  0  0  0  0  0  0
   10.2382  -15.8205   21.9513 N   0  0  0  0  0  0  0  0  0  0  0  0
    9.4114  -15.9988   24.1698 C   0  0  0  0  0  0  0  0  0  0  0  0
    8.6478  -15.6595   25.0890 O   0  0  0  0  0  0  0  0  0  0  0  0
    8.6043  -12.7241   21.0113 C   0  0  0  0  0  0  0  0  0  0  0  0
    8.5673  -12.2290   19.7344 C   0  0  0  0  0  0  0  0  0  0  0  0
   10.2434  -19.6093   24.8310 C   0  0  0  0  0  0  0  0  0  0  0  0
    9.9111  -18.1991   25.2633 C   0  0  2  0  0  0  0  0  0  0  0  0
   10.0884  -17.2385   24.2191 N   0  0  0  0  0  0  0  0  0  0  0  0
   10.7816  -17.8946   26.4274 C   0  0  0  0  0  0  0  0  0  0  0  0
   10.7217  -18.6061   27.6136 O   0  0  0  0  0  0  0  0  0  0  0  0
   11.6014  -16.9483   26.3140 O   0  0  0  0  0  0  0  0  0  0  0  0
  1  2  1  0
  2  3  2  0
  4  2  1  0
  5  4  1  0
  6  5  1  0
  6  7  1  6
  8  9  2  0
  8  6  1  0
 10 11  1  0
 11 12  2  0
 12 13  1  0
 14 15  1  0
 14 13  2  0
 16 15  1  6
 16 17  1  0
 17  8  1  0
 18 16  1  0
 18 24  1  0
 19 18  2  0
 20 14  1  0
 21 20  2  0
 21 11  1  0
 23 25  1  0
 23 24  1  0
 23 22  1  6
 25 26  1  0
 27 25  2  0
M  END
$$$$
