QYA.pdb
     RDKit          3D

 27 27  0  0  1  0  0  0  0  0999 V2000
    9.0490  -20.0189   16.6996 N   0  0  0  0  0  0  0  0  0  0  0  0
   10.2268  -19.6264   17.4142 C   0  0  0  0  0  0  0  0  0  0  0  0
   11.1768  -19.2118   16.7303 O   0  0  0  0  0  0  0  0  0  0  0  0
   10.2219  -19.7418   18.8830 C   0  0  0  0  0  0  0  0  0  0  0  0
   10.5766  -18.4607   19.5928 C   0  0  0  0  0  0  0  0  0  0  0  0
    9.4834  -17.4357   19.5911 C   0  0  2  0  0  0  0  0  0  0  0  0
    9.5767  -16.6780   18.3588 N   0  0  0  0  0  0  0  0  0  0  0  0
    9.6120  -16.5734   20.7877 C   0  0  0  0  0  0  0  0  0  0  0  0
   10.7050  -15.9688   20.9394 O   0  0  0  0  0  0  0  0  0  0  0  0
    7.0447  -11.7416   27.8148 O   0  0  0  0  0  0  0  0  0  0  0  0
    7.1389  -12.4770   26.6412 C   0  0  0  0  0  0  0  0  0  0  0  0
    6.5639  -13.7152   26.5743 C   0  0  0  0  0  0  0  0  0  0  0  0
    6.6492  -14.4507   25.4236 C   0  0  0  0  0  0  0  0  0  0  0  0
    7.3070  -13.9858   24.2988 C   0  0  0  0  0  0  0  0  0  0  0  0
    7.3485  -14.8411   23.1110 C   0  0  0  0  0  0  0  0  0  0  0  0
    8.7088  -15.4622   22.8651 C   0  0  2  0  0  0  0  0  0  0  0  0
    8.6103  -16.3850   21.7548 N   0  0  0  0  0  0  0  0  0  0  0  0
    9.0630  -16.2295   24.0803 C   0  0  0  0  0  0  0  0  0  0  0  0
    8.3074  -17.1404   24.4577 O   0  0  0  0  0  0  0  0  0  0  0  0
    7.8896  -12.7388   24.3569 C   0  0  0  0  0  0  0  0  0  0  0  0
    7.7990  -12.0096   25.5132 C   0  0  0  0  0  0  0  0  0  0  0  0
   12.0164  -16.1853   26.4748 C   0  0  0  0  0  0  0  0  0  0  0  0
   10.7040  -16.6903   25.9192 C   0  0  2  0  0  0  0  0  0  0  0  0
   10.2421  -15.9299   24.7997 N   0  0  0  0  0  0  0  0  0  0  0  0
    9.7259  -16.6512   27.0360 C   0  0  0  0  0  0  0  0  0  0  0  0
    9.0764  -15.4910   27.4221 O   0  0  0  0  0  0  0  0  0  0  0  0
    9.4894  -17.7250   27.6454 O   0  0  0  0  0  0  0  0  0  0  0  0
  1  2  1  0
  2  3  2  0
  4  2  1  0
  5  4  1  0
  6  5  1  0
  6  7  1  6
  8  9  2  0
  8  6  1  0
 10 11  1  0
 11 12  2  0
 12 13  1  0
 14 15  1  0
 14 13  2  0
 16 15  1  1
 16 17  1  0
 17  8  1  0
 18 16  1  0
 18 24  1  0
 19 18  2  0
 20 14  1  0
 21 20  2  0
 21 11  1  0
 23 25  1  0
 23 24  1  0
 23 22  1  1
 25 26  1  0
 27 25  2  0
M  END
$$$$
