QYA.pdb
     RDKit          3D

 27 27  0  0  1  0  0  0  0  0999 V2000
   12.6720  -15.2629   17.5463 N   0  0  0  0  0  0  0  0  0  0  0  0
   13.2051  -14.7142   18.7574 C   0  0  0  0  0  0  0  0  0  0  0  0
   14.0891  -13.8511   18.6320 O   0  0  0  0  0  0  0  0  0  0  0  0
   12.6725  -15.2070   20.0396 C   0  0  0  0  0  0  0  0  0  0  0  0
   11.5890  -16.2434   19.8877 C   0  0  0  0  0  0  0  0  0  0  0  0
   11.3906  -17.1051   21.0975 C   0  0  2  0  0  0  0  0  0  0  0  0
   10.4689  -18.1682   20.7485 N   0  0  0  0  0  0  0  0  0  0  0  0
   10.8892  -16.2770   22.2177 C   0  0  0  0  0  0  0  0  0  0  0  0
   11.7319  -15.5625   22.8197 O   0  0  0  0  0  0  0  0  0  0  0  0
    8.1017  -12.0648   18.4920 O   0  0  0  0  0  0  0  0  0  0  0  0
    8.0045  -12.7596   19.6899 C   0  0  0  0  0  0  0  0  0  0  0  0
    8.6178  -12.2651   20.8069 C   0  0  0  0  0  0  0  0  0  0  0  0
    8.5301  -12.9399   21.9941 C   0  0  0  0  0  0  0  0  0  0  0  0
    7.8319  -14.1280   22.1167 C   0  0  0  0  0  0  0  0  0  0  0  0
    7.7910  -14.7816   23.4263 C   0  0  0  0  0  0  0  0  0  0  0  0
    9.0876  -15.4758   23.7921 C   0  0  2  0  0  0  0  0  0  0  0  0
    9.5531  -16.2337   22.6506 N   0  0  0  0  0  0  0  0  0  0  0  0
    8.7805  -16.4225   24.8877 C   0  0  0  0  0  0  0  0  0  0  0  0
    7.6550  -16.9462   24.9317 O   0  0  0  0  0  0  0  0  0  0  0  0
    7.2105  -14.6340   20.9961 C   0  0  0  0  0  0  0  0  0  0  0  0
    7.3038  -13.9515   19.8118 C   0  0  0  0  0  0  0  0  0  0  0  0
    9.8123  -19.1264   26.3676 C   0  0  0  0  0  0  0  0  0  0  0  0
    9.5782  -17.7224   26.8778 C   0  0  2  0  0  0  0  0  0  0  0  0
    9.7526  -16.7251   25.8680 N   0  0  0  0  0  0  0  0  0  0  0  0
   10.5224  -17.5165   28.0055 C   0  0  0  0  0  0  0  0  0  0  0  0
   11.4845  -16.5209   28.0041 O   0  0  0  0  0  0  0  0  0  0  0  0
   10.4304  -18.2870   28.9946 O   0  0  0  0  0  0  0  0  0  0  0  0
  1  2  1  0
  2  3  2  0
  4  2  1  0
  5  4  1  0
  6  5  1  0
  6  7  1  6
  8  9  2  0
  8  6  1  0
 10 11  1  0
 11 12  2  0
 12 13  1  0
 14 15  1  0
 14 13  2  0
 16 15  1  6
 16 17  1  0
 17  8  1  0
 18 16  1  0
 18 24  1  0
 19 18  2  0
 20 14  1  0
 21 20  2  0
 21 11  1  0
 23 25  1  0
 23 24  1  0
 23 22  1  6
 25 26  1  0
 27 25  2  0
M  END
$$$$
