TFL.pdb
     RDKit          3D

 27 27  0  0  1  0  0  0  0  0999 V2000
   10.6130  -20.2628   20.5206 C   0  0  0  0  0  0  0  0  0  0  0  0
   10.5537  -19.0705   21.4504 C   0  0  1  0  0  0  0  0  0  0  0  0
   11.8201  -18.7800   21.9262 O   0  0  0  0  0  0  0  0  0  0  0  0
   10.0380  -17.8670   20.6524 C   0  0  2  0  0  0  0  0  0  0  0  0
   11.0397  -17.5567   19.6547 N   0  0  0  0  0  0  0  0  0  0  0  0
    9.8976  -16.7149   21.5586 C   0  0  0  0  0  0  0  0  0  0  0  0
   10.7769  -15.8296   21.5748 O   0  0  0  0  0  0  0  0  0  0  0  0
    8.7909  -16.5443   22.4408 N   0  0  0  0  0  0  0  0  0  0  0  0
    8.6813  -15.4813   23.3992 C   0  0  1  0  0  0  0  0  0  0  0  0
    7.2418  -15.2814   23.8210 C   0  0  0  0  0  0  0  0  0  0  0  0
    7.0771  -14.1496   24.7572 C   0  0  0  0  0  0  0  0  0  0  0  0
    7.5734  -12.9015   24.4375 C   0  0  0  0  0  0  0  0  0  0  0  0
    7.4314  -11.8235   25.2997 C   0  0  0  0  0  0  0  0  0  0  0  0
    6.7877  -11.9560   26.5124 C   0  0  0  0  0  0  0  0  0  0  0  0
    6.2926  -13.2036   26.8298 C   0  0  0  0  0  0  0  0  0  0  0  0
    6.4326  -14.2768   25.9744 C   0  0  0  0  0  0  0  0  0  0  0  0
    9.5913  -15.6507   24.5539 C   0  0  0  0  0  0  0  0  0  0  0  0
   10.7629  -15.2035   24.4577 O   0  0  0  0  0  0  0  0  0  0  0  0
    9.7373  -13.1777   28.7002 C   0  0  0  0  0  0  0  0  0  0  0  0
   10.1433  -14.1515   27.6496 C   0  0  1  0  0  0  0  0  0  0  0  0
   11.5635  -13.8710   27.1484 C   0  0  0  0  0  0  0  0  0  0  0  0
    9.9196  -15.5837   27.8996 C   0  0  0  0  0  0  0  0  0  0  0  0
   10.1371  -16.5955   26.8511 C   0  0  2  0  0  0  0  0  0  0  0  0
    9.1716  -16.2941   25.7378 N   0  0  0  0  0  0  0  0  0  0  0  0
    9.9763  -18.0057   27.1484 C   0  0  0  0  0  0  0  0  0  0  0  0
    8.9209  -18.6300   26.7773 O   0  0  0  0  0  0  0  0  0  0  0  0
   10.8865  -18.7896   27.8167 O   0  0  0  0  0  0  0  0  0  0  0  0
  2  4  1  0
  2  1  1  6
  2  3  1  0
  4  5  1  6
  6  7  2  0
  6  4  1  0
  8  6  1  0
  9  8  1  0
 10 11  1  0
  9 10  1  1
 11 12  2  0
 11 16  1  0
 12 13  1  0
 13 14  2  0
 15 14  1  0
 16 15  2  0
 17 24  1  0
 17  9  1  0
 18 17  2  0
 20 22  1  0
 20 19  1  1
 21 20  1  0
 23 24  1  0
 23 22  1  1
 25 23  1  0
 26 25  2  0
 27 25  1  0
M  END
$$$$
