TFL.pdb
     RDKit          3D

 27 27  0  0  1  0  0  0  0  0999 V2000
    9.3056  -18.8551   21.8996 C   0  0  0  0  0  0  0  0  0  0  0  0
   10.1558  -18.1956   20.8357 C   0  0  1  0  0  0  0  0  0  0  0  0
   10.2180  -19.0034   19.7139 O   0  0  0  0  0  0  0  0  0  0  0  0
    9.4948  -16.8666   20.4511 C   0  0  2  0  0  0  0  0  0  0  0  0
   10.3116  -16.2683   19.4167 N   0  0  0  0  0  0  0  0  0  0  0  0
    9.4876  -15.9770   21.6245 C   0  0  0  0  0  0  0  0  0  0  0  0
   10.5615  -15.5036   22.0487 O   0  0  0  0  0  0  0  0  0  0  0  0
    8.2993  -15.6140   22.3232 N   0  0  0  0  0  0  0  0  0  0  0  0
    8.2842  -14.9321   23.5863 C   0  0  1  0  0  0  0  0  0  0  0  0
    6.9341  -14.2978   23.8410 C   0  0  0  0  0  0  0  0  0  0  0  0
    6.8979  -13.5281   25.1023 C   0  0  0  0  0  0  0  0  0  0  0  0
    7.3835  -12.2364   25.1458 C   0  0  0  0  0  0  0  0  0  0  0  0
    7.3605  -11.4936   26.3177 C   0  0  0  0  0  0  0  0  0  0  0  0
    6.8509  -12.0170   27.4877 C   0  0  0  0  0  0  0  0  0  0  0  0
    6.3663  -13.3075   27.4421 C   0  0  0  0  0  0  0  0  0  0  0  0
    6.3880  -14.0479   26.2783 C   0  0  0  0  0  0  0  0  0  0  0  0
    8.7280  -15.7887   24.7086 C   0  0  0  0  0  0  0  0  0  0  0  0
    8.1015  -16.8579   24.9238 O   0  0  0  0  0  0  0  0  0  0  0  0
   13.7755  -16.8736   24.7402 C   0  0  0  0  0  0  0  0  0  0  0  0
   12.3380  -17.0799   25.0690 C   0  0  1  0  0  0  0  0  0  0  0  0
   11.9344  -18.5488   24.9073 C   0  0  0  0  0  0  0  0  0  0  0  0
   11.8152  -16.4982   26.3149 C   0  0  0  0  0  0  0  0  0  0  0  0
   10.3684  -16.3720   26.5624 C   0  0  2  0  0  0  0  0  0  0  0  0
    9.8222  -15.4301   25.5246 N   0  0  0  0  0  0  0  0  0  0  0  0
    9.8828  -15.8848   27.8390 C   0  0  0  0  0  0  0  0  0  0  0  0
   10.1278  -16.5338   28.9161 O   0  0  0  0  0  0  0  0  0  0  0  0
    9.1529  -14.7357   28.0297 O   0  0  0  0  0  0  0  0  0  0  0  0
  2  4  1  0
  2  1  1  1
  2  3  1  0
  4  5  1  6
  6  7  2  0
  6  4  1  0
  8  6  1  0
  9  8  1  0
 10 11  1  0
  9 10  1  1
 11 12  2  0
 11 16  1  0
 12 13  1  0
 13 14  2  0
 15 14  1  0
 16 15  2  0
 17 24  1  0
 17  9  1  0
 18 17  2  0
 20 22  1  0
 20 19  1  1
 21 20  1  0
 23 24  1  0
 23 22  1  1
 25 23  1  0
 26 25  2  0
 27 25  1  0
M  END
$$$$
