TFL.pdb
     RDKit          3D

 27 27  0  0  1  0  0  0  0  0999 V2000
   10.6362  -20.6278   20.2064 C   0  0  0  0  0  0  0  0  0  0  0  0
   10.6927  -19.4289   21.1279 C   0  0  1  0  0  0  0  0  0  0  0  0
   11.9988  -18.9883   21.2489 O   0  0  0  0  0  0  0  0  0  0  0  0
    9.8493  -18.3087   20.5075 C   0  0  2  0  0  0  0  0  0  0  0  0
   10.4948  -17.9251   19.2700 N   0  0  0  0  0  0  0  0  0  0  0  0
    9.8433  -17.1519   21.4184 C   0  0  0  0  0  0  0  0  0  0  0  0
   10.7014  -16.2555   21.2860 O   0  0  0  0  0  0  0  0  0  0  0  0
    8.8935  -16.9887   22.4688 N   0  0  0  0  0  0  0  0  0  0  0  0
    8.8619  -15.8624   23.3582 C   0  0  1  0  0  0  0  0  0  0  0  0
    7.4769  -15.6708   23.9372 C   0  0  0  0  0  0  0  0  0  0  0  0
    7.3656  -14.4384   24.7455 C   0  0  0  0  0  0  0  0  0  0  0  0
    7.9164  -13.2555   24.2940 C   0  0  0  0  0  0  0  0  0  0  0  0
    7.8250  -12.0855   25.0345 C   0  0  0  0  0  0  0  0  0  0  0  0
    7.1795  -12.0575   26.2530 C   0  0  0  0  0  0  0  0  0  0  0  0
    6.6300  -13.2401   26.7023 C   0  0  0  0  0  0  0  0  0  0  0  0
    6.7194  -14.4045   25.9679 C   0  0  0  0  0  0  0  0  0  0  0  0
    9.9086  -15.9236   24.4027 C   0  0  0  0  0  0  0  0  0  0  0  0
   11.0976  -15.6885   24.0667 O   0  0  0  0  0  0  0  0  0  0  0  0
    9.1454  -13.4630   28.9419 C   0  0  0  0  0  0  0  0  0  0  0  0
    9.7297  -14.1580   27.7618 C   0  0  1  0  0  0  0  0  0  0  0  0
   10.7295  -13.2610   27.0253 C   0  0  0  0  0  0  0  0  0  0  0  0
   10.2419  -15.5256   27.9385 C   0  0  0  0  0  0  0  0  0  0  0  0
   10.6707  -16.3453   26.7920 C   0  0  2  0  0  0  0  0  0  0  0  0
    9.5979  -16.2359   25.7434 N   0  0  0  0  0  0  0  0  0  0  0  0
   10.9232  -17.7636   26.9584 C   0  0  0  0  0  0  0  0  0  0  0  0
   10.0391  -18.6242   26.6133 O   0  0  0  0  0  0  0  0  0  0  0  0
   12.0742  -18.3151   27.4690 O   0  0  0  0  0  0  0  0  0  0  0  0
  2  4  1  0
  2  1  1  6
  2  3  1  0
  4  5  1  6
  6  7  2  0
  6  4  1  0
  8  6  1  0
  9  8  1  0
 10 11  1  0
  9 10  1  1
 11 12  2  0
 11 16  1  0
 12 13  1  0
 13 14  2  0
 15 14  1  0
 16 15  2  0
 17 24  1  0
 17  9  1  0
 18 17  2  0
 20 22  1  0
 20 19  1  1
 21 20  1  0
 23 24  1  0
 23 22  1  1
 25 23  1  0
 26 25  2  0
 27 25  1  0
M  END
$$$$
