TFL.pdb
     RDKit          3D

 27 27  0  0  1  0  0  0  0  0999 V2000
    7.3497  -20.3206   22.6365 C   0  0  0  0  0  0  0  0  0  0  0  0
    5.9710  -20.2838   22.0140 C   0  0  1  0  0  0  0  0  0  0  0  0
    5.5649  -21.5666   21.6911 O   0  0  0  0  0  0  0  0  0  0  0  0
    4.9962  -19.7021   23.0448 C   0  0  2  0  0  0  0  0  0  0  0  0
    3.6776  -19.7326   22.4485 N   0  0  0  0  0  0  0  0  0  0  0  0
    5.3628  -18.3019   23.3151 C   0  0  0  0  0  0  0  0  0  0  0  0
    5.1190  -17.4229   22.4635 O   0  0  0  0  0  0  0  0  0  0  0  0
    5.9950  -17.8778   24.5203 N   0  0  0  0  0  0  0  0  0  0  0  0
    6.5163  -16.5576   24.7350 C   0  0  1  0  0  0  0  0  0  0  0  0
    6.5298  -16.2160   26.2092 C   0  0  0  0  0  0  0  0  0  0  0  0
    6.8448  -14.7937   26.4589 C   0  0  0  0  0  0  0  0  0  0  0  0
    8.1365  -14.4064   26.7552 C   0  0  0  0  0  0  0  0  0  0  0  0
    8.4570  -13.0775   26.9934 C   0  0  0  0  0  0  0  0  0  0  0  0
    7.4965  -12.0888   26.9437 C   0  0  0  0  0  0  0  0  0  0  0  0
    6.2068  -12.4777   26.6475 C   0  0  0  0  0  0  0  0  0  0  0  0
    5.8856  -13.7983   26.4103 C   0  0  0  0  0  0  0  0  0  0  0  0
    7.8329  -16.3468   24.0929 C   0  0  0  0  0  0  0  0  0  0  0  0
    8.6762  -17.2783   24.1468 O   0  0  0  0  0  0  0  0  0  0  0  0
    7.8175  -12.0105   20.5244 C   0  0  0  0  0  0  0  0  0  0  0  0
    7.9106  -13.3708   21.1228 C   0  0  1  0  0  0  0  0  0  0  0  0
    7.3892  -14.4408   20.1585 C   0  0  0  0  0  0  0  0  0  0  0  0
    9.1757  -13.7702   21.7581 C   0  0  0  0  0  0  0  0  0  0  0  0
    9.3093  -15.0468   22.4811 C   0  0  2  0  0  0  0  0  0  0  0  0
    8.1493  -15.1395   23.4342 N   0  0  0  0  0  0  0  0  0  0  0  0
   10.4956  -15.3232   23.2679 C   0  0  0  0  0  0  0  0  0  0  0  0
   11.6417  -15.4141   22.7024 O   0  0  0  0  0  0  0  0  0  0  0  0
   10.5262  -15.5022   24.6304 O   0  0  0  0  0  0  0  0  0  0  0  0
  2  4  1  0
  2  1  1  1
  2  3  1  0
  4  5  1  6
  6  7  2  0
  6  4  1  0
  8  6  1  0
  9  8  1  0
 10 11  1  0
  9 10  1  1
 11 12  2  0
 11 16  1  0
 12 13  1  0
 13 14  2  0
 15 14  1  0
 16 15  2  0
 17 24  1  0
 17  9  1  0
 18 17  2  0
 20 22  1  0
 20 19  1  6
 21 20  1  0
 23 24  1  0
 23 22  1  1
 25 23  1  0
 26 25  2  0
 27 25  1  0
M  END
$$$$
