TFL.pdb
     RDKit          3D

 27 27  0  0  1  0  0  0  0  0999 V2000
   10.4047  -19.8859   22.3611 C   0  0  0  0  0  0  0  0  0  0  0  0
   11.3093  -18.9225   21.6242 C   0  0  1  0  0  0  0  0  0  0  0  0
   12.1090  -19.6149   20.7321 O   0  0  0  0  0  0  0  0  0  0  0  0
   10.4276  -17.9435   20.8396 C   0  0  2  0  0  0  0  0  0  0  0  0
   11.1786  -17.5366   19.6710 N   0  0  0  0  0  0  0  0  0  0  0  0
   10.1674  -16.7580   21.6734 C   0  0  0  0  0  0  0  0  0  0  0  0
   11.0024  -15.8314   21.7093 O   0  0  0  0  0  0  0  0  0  0  0  0
    8.9905  -16.5997   22.4620 N   0  0  0  0  0  0  0  0  0  0  0  0
    8.7777  -15.5199   23.3836 C   0  0  1  0  0  0  0  0  0  0  0  0
    7.3064  -15.3633   23.7008 C   0  0  0  0  0  0  0  0  0  0  0  0
    7.0364  -14.2096   24.5844 C   0  0  0  0  0  0  0  0  0  0  0  0
    6.3655  -14.3866   25.7781 C   0  0  0  0  0  0  0  0  0  0  0  0
    6.1002  -13.3194   26.6244 C   0  0  0  0  0  0  0  0  0  0  0  0
    6.4968  -12.0372   26.3065 C   0  0  0  0  0  0  0  0  0  0  0  0
    7.1669  -11.8625   25.1137 C   0  0  0  0  0  0  0  0  0  0  0  0
    7.4318  -12.9219   24.2706 C   0  0  0  0  0  0  0  0  0  0  0  0
    9.6109  -15.6298   24.6018 C   0  0  0  0  0  0  0  0  0  0  0  0
   10.6725  -14.9576   24.6581 O   0  0  0  0  0  0  0  0  0  0  0  0
    9.2803  -13.5117   28.8391 C   0  0  0  0  0  0  0  0  0  0  0  0
    9.9264  -14.3667   27.8055 C   0  0  1  0  0  0  0  0  0  0  0  0
   11.3771  -13.9414   27.5576 C   0  0  0  0  0  0  0  0  0  0  0  0
    9.7921  -15.8269   27.9221 C   0  0  0  0  0  0  0  0  0  0  0  0
   10.1778  -16.7296   26.8237 C   0  0  2  0  0  0  0  0  0  0  0  0
    9.2388  -16.4613   25.6796 N   0  0  0  0  0  0  0  0  0  0  0  0
   10.1696  -18.1666   27.0184 C   0  0  0  0  0  0  0  0  0  0  0  0
   10.9816  -18.7133   27.8448 O   0  0  0  0  0  0  0  0  0  0  0  0
    9.3348  -19.0538   26.3815 O   0  0  0  0  0  0  0  0  0  0  0  0
  2  4  1  0
  2  1  1  6
  2  3  1  0
  4  5  1  6
  6  7  2  0
  6  4  1  0
  8  6  1  0
  9  8  1  0
 10 11  1  0
  9 10  1  1
 11 12  2  0
 11 16  1  0
 12 13  1  0
 13 14  2  0
 15 14  1  0
 16 15  2  0
 17 24  1  0
 17  9  1  0
 18 17  2  0
 20 22  1  0
 20 19  1  1
 21 20  1  0
 23 24  1  0
 23 22  1  1
 25 23  1  0
 26 25  2  0
 27 25  1  0
M  END
$$$$
