TFL.pdb
     RDKit          3D

 27 27  0  0  1  0  0  0  0  0999 V2000
   10.6607  -20.2226   20.2581 C   0  0  0  0  0  0  0  0  0  0  0  0
   10.6165  -19.1119   21.2848 C   0  0  1  0  0  0  0  0  0  0  0  0
   11.8550  -18.9766   21.8869 O   0  0  0  0  0  0  0  0  0  0  0  0
   10.2741  -17.8045   20.5606 C   0  0  2  0  0  0  0  0  0  0  0  0
   11.4123  -17.4654   19.7331 N   0  0  0  0  0  0  0  0  0  0  0  0
   10.0789  -16.7398   21.5588 C   0  0  0  0  0  0  0  0  0  0  0  0
   11.0164  -15.9598   21.8231 O   0  0  0  0  0  0  0  0  0  0  0  0
    8.8537  -16.5402   22.2597 N   0  0  0  0  0  0  0  0  0  0  0  0
    8.6858  -15.6090   23.3391 C   0  0  1  0  0  0  0  0  0  0  0  0
    7.3052  -14.9900   23.3079 C   0  0  0  0  0  0  0  0  0  0  0  0
    7.1172  -13.9698   24.3607 C   0  0  0  0  0  0  0  0  0  0  0  0
    7.7077  -12.7274   24.2420 C   0  0  0  0  0  0  0  0  0  0  0  0
    7.5460  -11.7531   25.2168 C   0  0  0  0  0  0  0  0  0  0  0  0
    6.7877  -11.9872   26.3449 C   0  0  0  0  0  0  0  0  0  0  0  0
    6.1987  -13.2289   26.4615 C   0  0  0  0  0  0  0  0  0  0  0  0
    6.3579  -14.1992   25.4938 C   0  0  0  0  0  0  0  0  0  0  0  0
    9.0152  -16.1917   24.6590 C   0  0  0  0  0  0  0  0  0  0  0  0
    8.3945  -17.2225   25.0251 O   0  0  0  0  0  0  0  0  0  0  0  0
    8.9124  -13.6677   29.1270 C   0  0  0  0  0  0  0  0  0  0  0  0
    9.5695  -14.2393   27.9192 C   0  0  1  0  0  0  0  0  0  0  0  0
   10.8003  -13.4218   27.5148 C   0  0  0  0  0  0  0  0  0  0  0  0
    9.8328  -15.6861   27.8850 C   0  0  0  0  0  0  0  0  0  0  0  0
   10.4852  -16.3267   26.7299 C   0  0  2  0  0  0  0  0  0  0  0  0
    9.9962  -15.6186   25.4962 N   0  0  0  0  0  0  0  0  0  0  0  0
   10.3020  -17.7427   26.4766 C   0  0  0  0  0  0  0  0  0  0  0  0
   10.9928  -18.6105   27.1179 O   0  0  0  0  0  0  0  0  0  0  0  0
    9.4144  -18.2848   25.5778 O   0  0  0  0  0  0  0  0  0  0  0  0
  2  4  1  0
  2  1  1  6
  2  3  1  0
  4  5  1  6
  6  7  2  0
  6  4  1  0
  8  6  1  0
  9  8  1  0
 10 11  1  0
  9 10  1  1
 11 12  2  0
 11 16  1  0
 12 13  1  0
 13 14  2  0
 15 14  1  0
 16 15  2  0
 17 24  1  0
 17  9  1  0
 18 17  2  0
 20 22  1  0
 20 19  1  1
 21 20  1  0
 23 24  1  0
 23 22  1  1
 25 23  1  0
 26 25  2  0
 27 25  1  0
M  END
$$$$
