TFL.pdb
     RDKit          3D

 27 27  0  0  1  0  0  0  0  0999 V2000
   11.2174  -19.6045   21.7287 C   0  0  0  0  0  0  0  0  0  0  0  0
   12.1311  -18.6510   20.9901 C   0  0  1  0  0  0  0  0  0  0  0  0
   12.6404  -19.2660   19.8600 O   0  0  0  0  0  0  0  0  0  0  0  0
   11.3045  -17.4334   20.5595 C   0  0  2  0  0  0  0  0  0  0  0  0
   12.1647  -16.6007   19.7462 N   0  0  0  0  0  0  0  0  0  0  0  0
   10.9054  -16.6763   21.7577 C   0  0  0  0  0  0  0  0  0  0  0  0
   11.7739  -16.0965   22.4410 O   0  0  0  0  0  0  0  0  0  0  0  0
    9.5539  -16.5619   22.1963 N   0  0  0  0  0  0  0  0  0  0  0  0
    9.1407  -15.8039   23.3432 C   0  0  1  0  0  0  0  0  0  0  0  0
    7.6906  -15.3885   23.2215 C   0  0  0  0  0  0  0  0  0  0  0  0
    7.2901  -14.4164   24.2603 C   0  0  0  0  0  0  0  0  0  0  0  0
    7.6304  -13.0839   24.1377 C   0  0  0  0  0  0  0  0  0  0  0  0
    7.2660  -12.1524   25.0995 C   0  0  0  0  0  0  0  0  0  0  0  0
    6.5482  -12.5209   26.2181 C   0  0  0  0  0  0  0  0  0  0  0  0
    6.2092  -13.8524   26.3387 C   0  0  0  0  0  0  0  0  0  0  0  0
    6.5703  -14.7804   25.3839 C   0  0  0  0  0  0  0  0  0  0  0  0
    9.4271  -16.4917   24.6219 C   0  0  0  0  0  0  0  0  0  0  0  0
    9.4103  -17.7492   24.6369 O   0  0  0  0  0  0  0  0  0  0  0  0
   10.1099  -13.0813   29.0020 C   0  0  0  0  0  0  0  0  0  0  0  0
   10.3186  -14.0355   27.8782 C   0  0  1  0  0  0  0  0  0  0  0  0
   11.6257  -13.7436   27.1345 C   0  0  0  0  0  0  0  0  0  0  0  0
   10.1416  -15.4724   28.1388 C   0  0  0  0  0  0  0  0  0  0  0  0
   10.1772  -16.4661   27.0518 C   0  0  2  0  0  0  0  0  0  0  0  0
    9.7132  -15.7711   25.8011 N   0  0  0  0  0  0  0  0  0  0  0  0
    9.3952  -17.6837   27.1456 C   0  0  0  0  0  0  0  0  0  0  0  0
    9.7671  -18.6348   27.9191 O   0  0  0  0  0  0  0  0  0  0  0  0
    8.2309  -17.9395   26.4611 O   0  0  0  0  0  0  0  0  0  0  0  0
  2  4  1  0
  2  1  1  6
  2  3  1  0
  4  5  1  6
  6  7  2  0
  6  4  1  0
  8  6  1  0
  9  8  1  0
 10 11  1  0
  9 10  1  6
 11 12  2  0
 11 16  1  0
 12 13  1  0
 13 14  2  0
 15 14  1  0
 16 15  2  0
 17 24  1  0
 17  9  1  0
 18 17  2  0
 20 22  1  0
 20 19  1  1
 21 20  1  0
 23 24  1  0
 23 22  1  1
 25 23  1  0
 26 25  2  0
 27 25  1  0
M  END
$$$$
