TFL.pdb
     RDKit          3D

 27 27  0  0  1  0  0  0  0  0999 V2000
   10.6138  -19.7987   23.2324 C   0  0  0  0  0  0  0  0  0  0  0  0
   11.2267  -19.3732   21.9160 C   0  0  1  0  0  0  0  0  0  0  0  0
   11.5401  -20.4885   21.1592 O   0  0  0  0  0  0  0  0  0  0  0  0
   10.1921  -18.5353   21.1553 C   0  0  2  0  0  0  0  0  0  0  0  0
   10.7437  -18.2645   19.8448 N   0  0  0  0  0  0  0  0  0  0  0  0
    9.9963  -17.2580   21.8613 C   0  0  0  0  0  0  0  0  0  0  0  0
   10.8748  -16.3741   21.7964 O   0  0  0  0  0  0  0  0  0  0  0  0
    8.8355  -16.9615   22.6339 N   0  0  0  0  0  0  0  0  0  0  0  0
    8.6962  -15.7991   23.4645 C   0  0  1  0  0  0  0  0  0  0  0  0
    7.2499  -15.5850   23.8549 C   0  0  0  0  0  0  0  0  0  0  0  0
    7.0459  -14.3310   24.6101 C   0  0  0  0  0  0  0  0  0  0  0  0
    7.4830  -13.1270   24.0948 C   0  0  0  0  0  0  0  0  0  0  0  0
    7.3031  -11.9365   24.7847 C   0  0  0  0  0  0  0  0  0  0  0  0
    6.6796  -11.9084   26.0147 C   0  0  0  0  0  0  0  0  0  0  0  0
    6.2438  -13.1122   26.5277 C   0  0  0  0  0  0  0  0  0  0  0  0
    6.4214  -14.2971   25.8437 C   0  0  0  0  0  0  0  0  0  0  0  0
    9.6020  -15.8155   24.6348 C   0  0  0  0  0  0  0  0  0  0  0  0
   10.3823  -14.8423   24.7958 O   0  0  0  0  0  0  0  0  0  0  0  0
    8.9962  -13.3980   28.4615 C   0  0  0  0  0  0  0  0  0  0  0  0
    9.9543  -14.4323   27.9828 C   0  0  1  0  0  0  0  0  0  0  0  0
   11.2008  -14.4913   28.8714 C   0  0  0  0  0  0  0  0  0  0  0  0
    9.4369  -15.7730   27.6689 C   0  0  0  0  0  0  0  0  0  0  0  0
   10.2354  -16.7530   26.9124 C   0  0  2  0  0  0  0  0  0  0  0  0
    9.6026  -16.8860   25.5544 N   0  0  0  0  0  0  0  0  0  0  0  0
   10.4005  -18.1050   27.4102 C   0  0  0  0  0  0  0  0  0  0  0  0
   11.3108  -18.3720   28.2713 O   0  0  0  0  0  0  0  0  0  0  0  0
    9.6403  -19.1896   27.0424 O   0  0  0  0  0  0  0  0  0  0  0  0
  2  4  1  0
  2  1  1  1
  2  3  1  0
  4  5  1  6
  6  7  2  0
  6  4  1  0
  8  6  1  0
  9  8  1  0
 10 11  1  0
  9 10  1  1
 11 12  2  0
 11 16  1  0
 12 13  1  0
 13 14  2  0
 15 14  1  0
 16 15  2  0
 17 24  1  0
 17  9  1  0
 18 17  2  0
 20 22  1  0
 20 19  1  1
 21 20  1  0
 23 24  1  0
 23 22  1  1
 25 23  1  0
 26 25  2  0
 27 25  1  0
M  END
$$$$
