TFL.pdb
     RDKit          3D

 27 27  0  0  1  0  0  0  0  0999 V2000
   10.1580  -19.5868   21.5715 C   0  0  0  0  0  0  0  0  0  0  0  0
   11.1602  -18.8567   20.7041 C   0  0  1  0  0  0  0  0  0  0  0  0
   11.4582  -19.6161   19.5865 O   0  0  0  0  0  0  0  0  0  0  0  0
   10.5268  -17.5364   20.2494 C   0  0  2  0  0  0  0  0  0  0  0  0
   11.4869  -16.8772   19.3900 N   0  0  0  0  0  0  0  0  0  0  0  0
   10.2848  -16.6888   21.4290 C   0  0  0  0  0  0  0  0  0  0  0  0
   11.2391  -16.0929   21.9689 O   0  0  0  0  0  0  0  0  0  0  0  0
    8.9950  -16.5024   22.0066 N   0  0  0  0  0  0  0  0  0  0  0  0
    8.7411  -15.6969   23.1673 C   0  0  1  0  0  0  0  0  0  0  0  0
    7.3068  -15.2149   23.1864 C   0  0  0  0  0  0  0  0  0  0  0  0
    7.0247  -14.3189   24.3275 C   0  0  0  0  0  0  0  0  0  0  0  0
    6.4379  -14.8138   25.4751 C   0  0  0  0  0  0  0  0  0  0  0  0
    6.1632  -13.9927   26.5595 C   0  0  0  0  0  0  0  0  0  0  0  0
    6.4659  -12.6473   26.5343 C   0  0  0  0  0  0  0  0  0  0  0  0
    7.0521  -12.1549   25.3870 C   0  0  0  0  0  0  0  0  0  0  0  0
    7.3262  -12.9692   24.3076 C   0  0  0  0  0  0  0  0  0  0  0  0
    9.1305  -16.3655   24.4289 C   0  0  0  0  0  0  0  0  0  0  0  0
    8.8400  -17.5809   24.5714 O   0  0  0  0  0  0  0  0  0  0  0  0
   10.9956  -14.0835   29.5864 C   0  0  0  0  0  0  0  0  0  0  0  0
   10.3468  -14.6038   28.3514 C   0  0  1  0  0  0  0  0  0  0  0  0
    9.5419  -13.5106   27.6417 C   0  0  0  0  0  0  0  0  0  0  0  0
   11.1617  -15.3875   27.4103 C   0  0  0  0  0  0  0  0  0  0  0  0
   10.5628  -16.4056   26.5300 C   0  0  2  0  0  0  0  0  0  0  0  0
    9.8096  -15.6727   25.4538 N   0  0  0  0  0  0  0  0  0  0  0  0
    9.6395  -17.3869   27.0661 C   0  0  0  0  0  0  0  0  0  0  0  0
   10.0421  -18.2619   27.9108 O   0  0  0  0  0  0  0  0  0  0  0  0
    8.3043  -17.4813   26.7533 O   0  0  0  0  0  0  0  0  0  0  0  0
  2  4  1  0
  2  1  1  1
  2  3  1  0
  4  5  1  6
  6  7  2  0
  6  4  1  0
  8  6  1  0
  9  8  1  0
 10 11  1  0
  9 10  1  1
 11 12  2  0
 11 16  1  0
 12 13  1  0
 13 14  2  0
 15 14  1  0
 16 15  2  0
 17 24  1  0
 17  9  1  0
 18 17  2  0
 20 22  1  0
 20 19  1  1
 21 20  1  0
 23 24  1  0
 23 22  1  1
 25 23  1  0
 26 25  2  0
 27 25  1  0
M  END
$$$$
