TFL.pdb
     RDKit          3D

 27 27  0  0  1  0  0  0  0  0999 V2000
    7.6826  -16.7316   19.7287 C   0  0  0  0  0  0  0  0  0  0  0  0
    8.2110  -15.3869   19.2790 C   0  0  1  0  0  0  0  0  0  0  0  0
    7.8711  -15.1651   17.9561 O   0  0  0  0  0  0  0  0  0  0  0  0
    7.5583  -14.3027   20.1448 C   0  0  2  0  0  0  0  0  0  0  0  0
    7.8583  -13.0278   19.5288 N   0  0  0  0  0  0  0  0  0  0  0  0
    8.1604  -14.3344   21.4882 C   0  0  0  0  0  0  0  0  0  0  0  0
    9.2681  -13.7937   21.6828 O   0  0  0  0  0  0  0  0  0  0  0  0
    7.5401  -14.9607   22.6086 N   0  0  0  0  0  0  0  0  0  0  0  0
    8.1021  -14.9881   23.9292 C   0  0  1  0  0  0  0  0  0  0  0  0
    7.0153  -14.9139   24.9796 C   0  0  0  0  0  0  0  0  0  0  0  0
    7.0133  -13.6252   25.7035 C   0  0  0  0  0  0  0  0  0  0  0  0
    5.9179  -12.7877   25.6346 C   0  0  0  0  0  0  0  0  0  0  0  0
    5.8921  -11.5731   26.3052 C   0  0  0  0  0  0  0  0  0  0  0  0
    6.9615  -11.1533   27.0685 C   0  0  0  0  0  0  0  0  0  0  0  0
    8.0549  -11.9914   27.1360 C   0  0  0  0  0  0  0  0  0  0  0  0
    8.0829  -13.1994   26.4703 C   0  0  0  0  0  0  0  0  0  0  0  0
    9.0179  -16.1310   24.1418 C   0  0  0  0  0  0  0  0  0  0  0  0
    8.5761  -17.2915   23.9417 O   0  0  0  0  0  0  0  0  0  0  0  0
   12.3185  -15.9685   22.0735 C   0  0  0  0  0  0  0  0  0  0  0  0
   13.2122  -16.4591   23.1587 C   0  0  1  0  0  0  0  0  0  0  0  0
   14.5486  -15.7104   23.1615 C   0  0  0  0  0  0  0  0  0  0  0  0
   12.6557  -16.5992   24.5131 C   0  0  0  0  0  0  0  0  0  0  0  0
   11.2903  -17.1034   24.7403 C   0  0  2  0  0  0  0  0  0  0  0  0
   10.3530  -15.9412   24.5577 N   0  0  0  0  0  0  0  0  0  0  0  0
   10.9338  -17.7083   26.0091 C   0  0  0  0  0  0  0  0  0  0  0  0
   11.4134  -18.8491   26.3407 O   0  0  0  0  0  0  0  0  0  0  0  0
   10.0954  -17.1572   26.9488 O   0  0  0  0  0  0  0  0  0  0  0  0
  2  4  1  0
  2  1  1  1
  2  3  1  0
  4  5  1  6
  6  7  2  0
  6  4  1  0
  8  6  1  0
  9  8  1  0
 10 11  1  0
  9 10  1  1
 11 12  2  0
 11 16  1  0
 12 13  1  0
 13 14  2  0
 15 14  1  0
 16 15  2  0
 17 24  1  0
 17  9  1  0
 18 17  2  0
 20 22  1  0
 20 19  1  6
 21 20  1  0
 23 24  1  0
 23 22  1  1
 25 23  1  0
 26 25  2  0
 27 25  1  0
M  END
$$$$
