TFL.pdb
     RDKit          3D

 27 27  0  0  1  0  0  0  0  0999 V2000
   10.5456  -19.3173   19.1141 C   0  0  0  0  0  0  0  0  0  0  0  0
   10.4173  -18.4975   20.3794 C   0  0  1  0  0  0  0  0  0  0  0  0
   11.5485  -18.6555   21.1606 O   0  0  0  0  0  0  0  0  0  0  0  0
   10.2938  -17.0215   19.9825 C   0  0  2  0  0  0  0  0  0  0  0  0
   11.5486  -16.6384   19.3713 N   0  0  0  0  0  0  0  0  0  0  0  0
   10.0907  -16.2135   21.1966 C   0  0  0  0  0  0  0  0  0  0  0  0
   11.0658  -15.6528   21.7370 O   0  0  0  0  0  0  0  0  0  0  0  0
    8.8165  -16.0276   21.8082 N   0  0  0  0  0  0  0  0  0  0  0  0
    8.5999  -15.2583   23.0005 C   0  0  1  0  0  0  0  0  0  0  0  0
    7.1479  -14.8498   23.1228 C   0  0  0  0  0  0  0  0  0  0  0  0
    6.9073  -13.9467   24.2679 C   0  0  0  0  0  0  0  0  0  0  0  0
    7.2081  -12.6026   24.1719 C   0  0  0  0  0  0  0  0  0  0  0  0
    6.9912  -11.7349   25.2328 C   0  0  0  0  0  0  0  0  0  0  0  0
    6.4658  -12.1811   26.4275 C   0  0  0  0  0  0  0  0  0  0  0  0
    6.1661  -13.5241   26.5214 C   0  0  0  0  0  0  0  0  0  0  0  0
    6.3807  -14.3888   25.4680 C   0  0  0  0  0  0  0  0  0  0  0  0
    9.1035  -15.9303   24.2191 C   0  0  0  0  0  0  0  0  0  0  0  0
    9.1058  -17.1878   24.2462 O   0  0  0  0  0  0  0  0  0  0  0  0
   11.1657  -14.0813   29.8481 C   0  0  0  0  0  0  0  0  0  0  0  0
   11.0210  -15.1713   28.8441 C   0  0  1  0  0  0  0  0  0  0  0  0
   10.4539  -16.4439   29.4809 C   0  0  0  0  0  0  0  0  0  0  0  0
   10.3710  -14.8593   27.5619 C   0  0  0  0  0  0  0  0  0  0  0  0
   10.2086  -15.8768   26.5090 C   0  0  2  0  0  0  0  0  0  0  0  0
    9.5718  -15.1952   25.3290 N   0  0  0  0  0  0  0  0  0  0  0  0
    9.4192  -17.0679   26.7559 C   0  0  0  0  0  0  0  0  0  0  0  0
    8.1425  -17.0319   26.6548 O   0  0  0  0  0  0  0  0  0  0  0  0
    9.9205  -18.3008   27.0999 O   0  0  0  0  0  0  0  0  0  0  0  0
  2  4  1  0
  2  1  1  6
  2  3  1  0
  4  5  1  1
  6  7  2  0
  6  4  1  0
  8  6  1  0
  9  8  1  0
 10 11  1  0
  9 10  1  1
 11 12  2  0
 11 16  1  0
 12 13  1  0
 13 14  2  0
 15 14  1  0
 16 15  2  0
 17 24  1  0
 17  9  1  0
 18 17  2  0
 20 22  1  0
 20 19  1  1
 21 20  1  0
 23 24  1  0
 23 22  1  1
 25 23  1  0
 26 25  2  0
 27 25  1  0
M  END
$$$$
