CGL.pdb
     RDKit          3D

 19 18  0  0  1  0  0  0  0  0999 V2000
    7.3417  -19.7840   22.3822 N   0  0  0  0  0  0  0  0  0  0  0  0
    6.3653  -18.8131   22.7742 C   0  0  1  0  0  0  0  0  0  0  0  0
    6.0735  -18.9725   24.2403 C   0  0  0  0  0  0  0  0  0  0  0  0
    5.9943  -20.6972   24.7360 S   0  0  0  0  0  0  0  0  0  0  0  0
    6.8438  -17.4173   22.5437 C   0  0  0  0  0  0  0  0  0  0  0  0
    6.0210  -16.4713   22.6469 O   0  0  0  0  0  0  0  0  0  0  0  0
    8.1986  -17.1374   22.2129 N   0  0  0  0  0  0  0  0  0  0  0  0
    8.5888  -15.7573   22.0923 C   0  0  0  0  0  0  0  0  0  0  0  0
    9.0662  -15.1812   23.3636 C   0  0  0  0  0  0  0  0  0  0  0  0
   10.0546  -14.4125   23.4679 O   0  0  0  0  0  0  0  0  0  0  0  0
    5.7121  -12.8386   26.3412 C   0  0  0  0  0  0  0  0  0  0  0  0
    7.0285  -13.2558   25.6945 C   0  0  1  0  0  0  0  0  0  0  0  0
    7.9516  -12.0434   25.8735 C   0  0  0  0  0  0  0  0  0  0  0  0
    7.5870  -14.3981   26.4895 C   0  0  0  0  0  0  0  0  0  0  0  0
    8.8145  -15.0301   25.8729 C   0  0  2  0  0  0  0  0  0  0  0  0
    8.3715  -15.5091   24.5559 N   0  0  0  0  0  0  0  0  0  0  0  0
    9.2524  -16.1371   26.7267 C   0  0  0  0  0  0  0  0  0  0  0  0
    8.9869  -17.3243   26.3438 O   0  0  0  0  0  0  0  0  0  0  0  0
    9.9265  -16.0113   27.9074 O   0  0  0  0  0  0  0  0  0  0  0  0
  2  5  1  0
  2  1  1  1
  3  2  1  0
  4  3  1  0
  5  6  2  0
  7  8  1  0
  7  5  1  0
  9 10  2  0
  9  8  1  0
 12 11  1  1
 12 13  1  0
 12 14  1  0
 15 14  1  1
 15 16  1  0
 15 17  1  0
 16  9  1  0
 17 19  1  0
 18 17  2  0
M  END
$$$$
