CGL.pdb
     RDKit          3D

 19 18  0  0  1  0  0  0  0  0999 V2000
    4.7932  -18.3548   23.5810 N   0  0  0  0  0  0  0  0  0  0  0  0
    5.2443  -18.6906   22.2644 C   0  0  1  0  0  0  0  0  0  0  0  0
    4.1096  -18.5111   21.2946 C   0  0  0  0  0  0  0  0  0  0  0  0
    4.3897  -19.3823   19.7489 S   0  0  0  0  0  0  0  0  0  0  0  0
    6.3752  -17.8202   21.8240 C   0  0  0  0  0  0  0  0  0  0  0  0
    7.3462  -18.3483   21.2234 O   0  0  0  0  0  0  0  0  0  0  0  0
    6.3775  -16.4188   22.0674 N   0  0  0  0  0  0  0  0  0  0  0  0
    7.5643  -15.6799   21.7250 C   0  0  0  0  0  0  0  0  0  0  0  0
    8.3356  -15.2502   22.9066 C   0  0  0  0  0  0  0  0  0  0  0  0
    9.5010  -14.7827   22.8621 O   0  0  0  0  0  0  0  0  0  0  0  0
    5.6640  -12.5832   26.5250 C   0  0  0  0  0  0  0  0  0  0  0  0
    6.8301  -13.0452   25.6578 C   0  0  1  0  0  0  0  0  0  0  0  0
    7.8811  -11.9360   25.7956 C   0  0  0  0  0  0  0  0  0  0  0  0
    7.3830  -14.3000   26.2651 C   0  0  0  0  0  0  0  0  0  0  0  0
    8.4344  -14.9786   25.4164 C   0  0  2  0  0  0  0  0  0  0  0  0
    7.7326  -15.3675   24.1850 N   0  0  0  0  0  0  0  0  0  0  0  0
    8.9382  -16.1491   26.1391 C   0  0  0  0  0  0  0  0  0  0  0  0
    9.6147  -15.9464   27.2010 O   0  0  0  0  0  0  0  0  0  0  0  0
    8.7466  -17.4510   25.7747 O   0  0  0  0  0  0  0  0  0  0  0  0
  2  5  1  0
  2  1  1  1
  3  2  1  0
  4  3  1  0
  5  6  2  0
  7  8  1  0
  7  5  1  0
  9 10  2  0
  9  8  1  0
 12 11  1  1
 12 13  1  0
 12 14  1  0
 15 14  1  1
 15 16  1  0
 15 17  1  0
 16  9  1  0
 17 19  1  0
 18 17  2  0
M  END
$$$$
