CGL.pdb
     RDKit          3D

 19 18  0  0  1  0  0  0  0  0999 V2000
    6.7372  -18.0090   20.8479 N   0  0  0  0  0  0  0  0  0  0  0  0
    6.6515  -16.6074   20.5692 C   0  0  1  0  0  0  0  0  0  0  0  0
    5.4412  -16.0415   21.2586 C   0  0  0  0  0  0  0  0  0  0  0  0
    4.2993  -17.3217   21.7912 S   0  0  0  0  0  0  0  0  0  0  0  0
    7.8536  -15.8678   21.0572 C   0  0  0  0  0  0  0  0  0  0  0  0
    7.9648  -14.6455   20.7813 O   0  0  0  0  0  0  0  0  0  0  0  0
    8.8669  -16.5108   21.8209 N   0  0  0  0  0  0  0  0  0  0  0  0
    9.9796  -15.7137   22.2660 C   0  0  0  0  0  0  0  0  0  0  0  0
   10.0095  -15.5340   23.7298 C   0  0  0  0  0  0  0  0  0  0  0  0
   11.0489  -15.2972   24.3949 O   0  0  0  0  0  0  0  0  0  0  0  0
    6.3052  -12.6975   26.1742 C   0  0  0  0  0  0  0  0  0  0  0  0
    7.6425  -13.3662   25.8747 C   0  0  1  0  0  0  0  0  0  0  0  0
    8.6405  -12.6800   26.8166 C   0  0  0  0  0  0  0  0  0  0  0  0
    7.5319  -14.8083   26.2707 C   0  0  0  0  0  0  0  0  0  0  0  0
    8.7471  -15.6351   25.9158 C   0  0  2  0  0  0  0  0  0  0  0  0
    8.7897  -15.6326   24.4467 N   0  0  0  0  0  0  0  0  0  0  0  0
    8.5652  -16.9891   26.4447 C   0  0  0  0  0  0  0  0  0  0  0  0
    8.1076  -17.8795   25.6546 O   0  0  0  0  0  0  0  0  0  0  0  0
    8.8445  -17.3881   27.7203 O   0  0  0  0  0  0  0  0  0  0  0  0
  2  5  1  0
  2  1  1  1
  3  2  1  0
  4  3  1  0
  5  6  2  0
  7  8  1  0
  7  5  1  0
  9 10  2  0
  9  8  1  0
 12 11  1  1
 12 13  1  0
 12 14  1  0
 15 14  1  6
 15 16  1  0
 15 17  1  0
 16  9  1  0
 17 19  1  0
 18 17  2  0
M  END
$$$$
