CGL.pdb
     RDKit          3D

 19 18  0  0  1  0  0  0  0  0999 V2000
    5.9486  -15.3332   20.0217 N   0  0  0  0  0  0  0  0  0  0  0  0
    7.2157  -15.9992   20.0384 C   0  0  1  0  0  0  0  0  0  0  0  0
    8.3000  -15.0019   19.7383 C   0  0  0  0  0  0  0  0  0  0  0  0
    8.2244  -13.5676   20.8169 S   0  0  0  0  0  0  0  0  0  0  0  0
    7.5041  -16.6145   21.3682 C   0  0  0  0  0  0  0  0  0  0  0  0
    8.5523  -17.2967   21.5043 O   0  0  0  0  0  0  0  0  0  0  0  0
    6.6262  -16.4470   22.4748 N   0  0  0  0  0  0  0  0  0  0  0  0
    7.0503  -16.9581   23.7517 C   0  0  0  0  0  0  0  0  0  0  0  0
    8.0738  -16.1149   24.3978 C   0  0  0  0  0  0  0  0  0  0  0  0
    9.1945  -15.8487   23.8960 O   0  0  0  0  0  0  0  0  0  0  0  0
    5.9471  -12.2730   27.2277 C   0  0  0  0  0  0  0  0  0  0  0  0
    6.8067  -13.1348   26.3093 C   0  0  1  0  0  0  0  0  0  0  0  0
    7.4055  -12.1485   25.2980 C   0  0  0  0  0  0  0  0  0  0  0  0
    7.9230  -13.7068   27.1312 C   0  0  0  0  0  0  0  0  0  0  0  0
    8.7578  -14.7332   26.3992 C   0  0  2  0  0  0  0  0  0  0  0  0
    7.7858  -15.5612   25.6714 N   0  0  0  0  0  0  0  0  0  0  0  0
    9.5032  -15.5216   27.3837 C   0  0  0  0  0  0  0  0  0  0  0  0
   10.4192  -14.9321   28.0469 O   0  0  0  0  0  0  0  0  0  0  0  0
    9.3033  -16.8440   27.6583 O   0  0  0  0  0  0  0  0  0  0  0  0
  2  5  1  0
  2  1  1  1
  3  2  1  0
  4  3  1  0
  5  6  2  0
  7  8  1  0
  7  5  1  0
  9 10  2  0
  9  8  1  0
 12 11  1  1
 12 13  1  0
 12 14  1  0
 15 14  1  1
 15 16  1  0
 15 17  1  0
 16  9  1  0
 17 19  1  0
 18 17  2  0
M  END
$$$$
