CGL.pdb
     RDKit          3D

 19 18  0  0  1  0  0  0  0  0999 V2000
    5.3815  -18.1706   23.4796 N   0  0  0  0  0  0  0  0  0  0  0  0
    5.6365  -18.4110   22.0915 C   0  0  1  0  0  0  0  0  0  0  0  0
    4.3431  -18.7523   21.4054 C   0  0  0  0  0  0  0  0  0  0  0  0
    3.4291  -20.0332   22.2718 S   0  0  0  0  0  0  0  0  0  0  0  0
    6.2196  -17.2132   21.4166 C   0  0  0  0  0  0  0  0  0  0  0  0
    6.6915  -17.3420   20.2576 O   0  0  0  0  0  0  0  0  0  0  0  0
    6.2523  -15.9405   22.0512 N   0  0  0  0  0  0  0  0  0  0  0  0
    7.3745  -15.0821   21.7765 C   0  0  0  0  0  0  0  0  0  0  0  0
    8.1793  -14.7855   22.9766 C   0  0  0  0  0  0  0  0  0  0  0  0
    9.3376  -14.2993   22.9523 O   0  0  0  0  0  0  0  0  0  0  0  0
    5.5151  -12.5658   26.6683 C   0  0  0  0  0  0  0  0  0  0  0  0
    6.5941  -13.0444   25.7030 C   0  0  1  0  0  0  0  0  0  0  0  0
    7.4951  -11.8211   25.4886 C   0  0  0  0  0  0  0  0  0  0  0  0
    7.3933  -14.1052   26.3992 C   0  0  0  0  0  0  0  0  0  0  0  0
    8.3639  -14.8318   25.4958 C   0  0  2  0  0  0  0  0  0  0  0  0
    7.6195  -15.0631   24.2498 N   0  0  0  0  0  0  0  0  0  0  0  0
    8.7460  -16.0937   26.1345 C   0  0  0  0  0  0  0  0  0  0  0  0
    8.2810  -17.1741   25.6415 O   0  0  0  0  0  0  0  0  0  0  0  0
    9.5636  -16.2188   27.2207 O   0  0  0  0  0  0  0  0  0  0  0  0
  2  5  1  0
  2  1  1  1
  3  2  1  0
  4  3  1  0
  5  6  2  0
  7  8  1  0
  7  5  1  0
  9 10  2  0
  9  8  1  0
 12 11  1  1
 12 13  1  0
 12 14  1  0
 15 14  1  1
 15 16  1  0
 15 17  1  0
 16  9  1  0
 17 19  1  0
 18 17  2  0
M  END
$$$$
