CGL.pdb
     RDKit          3D

 19 18  0  0  1  0  0  0  0  0999 V2000
    5.2950  -19.7176   22.9958 N   0  0  0  0  0  0  0  0  0  0  0  0
    4.8605  -19.0368   21.8137 C   0  0  1  0  0  0  0  0  0  0  0  0
    3.5668  -18.3272   22.1017 C   0  0  0  0  0  0  0  0  0  0  0  0
    2.1438  -19.2184   21.4635 S   0  0  0  0  0  0  0  0  0  0  0  0
    5.8566  -18.0220   21.3573 C   0  0  0  0  0  0  0  0  0  0  0  0
    5.7031  -17.4894   20.2280 O   0  0  0  0  0  0  0  0  0  0  0  0
    6.9657  -17.6482   22.1657 N   0  0  0  0  0  0  0  0  0  0  0  0
    7.9257  -16.7330   21.6065 C   0  0  0  0  0  0  0  0  0  0  0  0
    8.4005  -15.7314   22.5799 C   0  0  0  0  0  0  0  0  0  0  0  0
    9.4709  -15.0834   22.4667 O   0  0  0  0  0  0  0  0  0  0  0  0
    7.8841  -11.7828   25.9619 C   0  0  0  0  0  0  0  0  0  0  0  0
    7.0669  -12.9707   26.4583 C   0  0  1  0  0  0  0  0  0  0  0  0
    5.7223  -12.3672   26.8849 C   0  0  0  0  0  0  0  0  0  0  0  0
    6.8284  -13.8817   25.2912 C   0  0  0  0  0  0  0  0  0  0  0  0
    8.0681  -14.6060   24.8171 C   0  0  2  0  0  0  0  0  0  0  0  0
    7.6044  -15.4733   23.7249 N   0  0  0  0  0  0  0  0  0  0  0  0
    8.6097  -15.3890   25.9306 C   0  0  0  0  0  0  0  0  0  0  0  0
    8.0157  -16.4748   26.2382 O   0  0  0  0  0  0  0  0  0  0  0  0
    9.7046  -15.0579   26.6762 O   0  0  0  0  0  0  0  0  0  0  0  0
  2  5  1  0
  2  1  1  1
  3  2  1  0
  4  3  1  0
  5  6  2  0
  7  8  1  0
  7  5  1  0
  9 10  2  0
  9  8  1  0
 12 11  1  6
 12 13  1  0
 12 14  1  0
 15 14  1  1
 15 16  1  0
 15 17  1  0
 16  9  1  0
 17 19  1  0
 18 17  2  0
M  END
$$$$
