CGL.pdb
     RDKit          3D

 19 18  0  0  1  0  0  0  0  0999 V2000
   10.5797  -17.9647   19.8550 N   0  0  0  0  0  0  0  0  0  0  0  0
    9.2647  -17.5014   19.5300 C   0  0  1  0  0  0  0  0  0  0  0  0
    8.5298  -18.5849   18.7909 C   0  0  0  0  0  0  0  0  0  0  0  0
    6.8316  -18.1288   18.4241 S   0  0  0  0  0  0  0  0  0  0  0  0
    8.4782  -17.1551   20.7514 C   0  0  0  0  0  0  0  0  0  0  0  0
    8.3745  -18.0118   21.6668 O   0  0  0  0  0  0  0  0  0  0  0  0
    7.8494  -15.8880   20.9003 N   0  0  0  0  0  0  0  0  0  0  0  0
    7.1481  -15.6269   22.1297 C   0  0  0  0  0  0  0  0  0  0  0  0
    8.0501  -15.2806   23.2444 C   0  0  0  0  0  0  0  0  0  0  0  0
    9.3045  -15.2989   23.1744 O   0  0  0  0  0  0  0  0  0  0  0  0
    5.6498  -11.8252   26.6645 C   0  0  0  0  0  0  0  0  0  0  0  0
    6.5795  -12.5334   25.6851 C   0  0  1  0  0  0  0  0  0  0  0  0
    7.5768  -11.4537   25.2450 C   0  0  0  0  0  0  0  0  0  0  0  0
    7.3274  -13.5879   26.4449 C   0  0  0  0  0  0  0  0  0  0  0  0
    8.2892  -14.3878   25.5956 C   0  0  2  0  0  0  0  0  0  0  0  0
    7.4755  -14.8997   24.4838 N   0  0  0  0  0  0  0  0  0  0  0  0
    8.8369  -15.4785   26.4060 C   0  0  0  0  0  0  0  0  0  0  0  0
    8.2930  -16.6273   26.3020 O   0  0  0  0  0  0  0  0  0  0  0  0
    9.8880  -15.3750   27.2712 O   0  0  0  0  0  0  0  0  0  0  0  0
  2  5  1  0
  2  1  1  1
  3  2  1  0
  4  3  1  0
  5  6  2  0
  7  8  1  0
  7  5  1  0
  9 10  2  0
  9  8  1  0
 12 11  1  1
 12 13  1  0
 12 14  1  0
 15 14  1  1
 15 16  1  0
 15 17  1  0
 16  9  1  0
 17 19  1  0
 18 17  2  0
M  END
$$$$
