CGL.pdb
     RDKit          3D

 19 18  0  0  1  0  0  0  0  0999 V2000
    8.6086  -19.4254   20.9574 N   0  0  0  0  0  0  0  0  0  0  0  0
    8.5786  -18.2168   20.1905 C   0  0  1  0  0  0  0  0  0  0  0  0
    7.6445  -18.3957   19.0262 C   0  0  0  0  0  0  0  0  0  0  0  0
    8.3318  -19.4674   17.7592 S   0  0  0  0  0  0  0  0  0  0  0  0
    8.0987  -17.0561   20.9984 C   0  0  0  0  0  0  0  0  0  0  0  0
    7.1930  -17.2457   21.8507 O   0  0  0  0  0  0  0  0  0  0  0  0
    8.6395  -15.7518   20.8261 N   0  0  0  0  0  0  0  0  0  0  0  0
    8.1418  -14.7012   21.6748 C   0  0  0  0  0  0  0  0  0  0  0  0
    8.6854  -14.7620   23.0447 C   0  0  0  0  0  0  0  0  0  0  0  0
    9.8998  -14.9306   23.3198 O   0  0  0  0  0  0  0  0  0  0  0  0
    5.6268  -11.9535   26.4658 C   0  0  0  0  0  0  0  0  0  0  0  0
    6.8526  -12.4840   25.7302 C   0  0  1  0  0  0  0  0  0  0  0  0
    7.9884  -11.5331   26.1301 C   0  0  0  0  0  0  0  0  0  0  0  0
    7.1605  -13.8461   26.2768 C   0  0  0  0  0  0  0  0  0  0  0  0
    8.2534  -14.5736   25.5267 C   0  0  2  0  0  0  0  0  0  0  0  0
    7.7875  -14.6223   24.1336 N   0  0  0  0  0  0  0  0  0  0  0  0
    8.3966  -15.9178   26.0916 C   0  0  0  0  0  0  0  0  0  0  0  0
    8.9537  -16.0264   27.2336 O   0  0  0  0  0  0  0  0  0  0  0  0
    7.9829  -17.0765   25.4997 O   0  0  0  0  0  0  0  0  0  0  0  0
  2  5  1  0
  2  1  1  1
  3  2  1  0
  4  3  1  0
  5  6  2  0
  7  8  1  0
  7  5  1  0
  9 10  2  0
  9  8  1  0
 12 11  1  1
 12 13  1  0
 12 14  1  0
 15 14  1  1
 15 16  1  0
 15 17  1  0
 16  9  1  0
 17 19  1  0
 18 17  2  0
M  END
$$$$
