CGL.pdb
     RDKit          3D

 19 18  0  0  1  0  0  0  0  0999 V2000
    4.5497  -18.3773   23.2454 N   0  0  0  0  0  0  0  0  0  0  0  0
    5.0567  -18.5907   21.9236 C   0  0  1  0  0  0  0  0  0  0  0  0
    3.9204  -18.5143   20.9422 C   0  0  0  0  0  0  0  0  0  0  0  0
    2.3339  -18.8660   21.7076 S   0  0  0  0  0  0  0  0  0  0  0  0
    6.0705  -17.5622   21.5431 C   0  0  0  0  0  0  0  0  0  0  0  0
    6.8008  -17.7748   20.5410 O   0  0  0  0  0  0  0  0  0  0  0  0
    6.2264  -16.3577   22.2834 N   0  0  0  0  0  0  0  0  0  0  0  0
    7.3005  -15.4750   21.9107 C   0  0  0  0  0  0  0  0  0  0  0  0
    8.1597  -15.1012   23.0500 C   0  0  0  0  0  0  0  0  0  0  0  0
    9.3106  -14.6094   22.9399 O   0  0  0  0  0  0  0  0  0  0  0  0
    5.9695  -12.3604   26.7431 C   0  0  0  0  0  0  0  0  0  0  0  0
    6.9786  -12.9808   25.7828 C   0  0  1  0  0  0  0  0  0  0  0  0
    8.0867  -11.9280   25.6489 C   0  0  0  0  0  0  0  0  0  0  0  0
    7.5562  -14.1947   26.4473 C   0  0  0  0  0  0  0  0  0  0  0  0
    8.4705  -15.0037   25.5553 C   0  0  2  0  0  0  0  0  0  0  0  0
    7.6651  -15.3057   24.3635 N   0  0  0  0  0  0  0  0  0  0  0  0
    8.8582  -16.2258   26.2642 C   0  0  0  0  0  0  0  0  0  0  0  0
    8.3161  -17.3214   25.9006 O   0  0  0  0  0  0  0  0  0  0  0  0
    9.7570  -16.2984   27.2894 O   0  0  0  0  0  0  0  0  0  0  0  0
  2  5  1  0
  2  1  1  1
  3  2  1  0
  4  3  1  0
  5  6  2  0
  7  8  1  0
  7  5  1  0
  9 10  2  0
  9  8  1  0
 12 11  1  1
 12 13  1  0
 12 14  1  0
 15 14  1  1
 15 16  1  0
 15 17  1  0
 16  9  1  0
 17 19  1  0
 18 17  2  0
M  END
$$$$
