CGL.pdb
     RDKit          3D

 19 18  0  0  1  0  0  0  0  0999 V2000
    5.7386  -15.2219   24.6264 N   0  0  0  0  0  0  0  0  0  0  0  0
    6.5392  -14.0830   24.2925 C   0  0  1  0  0  0  0  0  0  0  0  0
    6.4431  -13.0718   25.4009 C   0  0  0  0  0  0  0  0  0  0  0  0
    4.9884  -13.3192   26.4251 S   0  0  0  0  0  0  0  0  0  0  0  0
    7.9772  -14.4452   24.1162 C   0  0  0  0  0  0  0  0  0  0  0  0
    8.8218  -13.5220   23.9858 O   0  0  0  0  0  0  0  0  0  0  0  0
    8.4085  -15.8005   24.0929 N   0  0  0  0  0  0  0  0  0  0  0  0
    9.7637  -16.0669   23.6877 C   0  0  0  0  0  0  0  0  0  0  0  0
   10.6744  -16.2781   24.8287 C   0  0  0  0  0  0  0  0  0  0  0  0
   11.9088  -16.4868   24.7226 O   0  0  0  0  0  0  0  0  0  0  0  0
    9.9611  -13.3734   29.1312 C   0  0  0  0  0  0  0  0  0  0  0  0
   10.6041  -14.2016   28.0241 C   0  0  1  0  0  0  0  0  0  0  0  0
   12.0898  -13.8206   28.0657 C   0  0  0  0  0  0  0  0  0  0  0  0
   10.4750  -15.6475   28.4004 C   0  0  0  0  0  0  0  0  0  0  0  0
   10.9299  -16.6036   27.3210 C   0  0  2  0  0  0  0  0  0  0  0  0
   10.1328  -16.2459   26.1391 N   0  0  0  0  0  0  0  0  0  0  0  0
   10.6535  -17.9738   27.7597 C   0  0  0  0  0  0  0  0  0  0  0  0
    9.6013  -18.5399   27.3138 O   0  0  0  0  0  0  0  0  0  0  0  0
   11.4290  -18.7071   28.6112 O   0  0  0  0  0  0  0  0  0  0  0  0
  2  5  1  0
  2  1  1  1
  3  2  1  0
  4  3  1  0
  5  6  2  0
  7  8  1  0
  7  5  1  0
  9 10  2  0
  9  8  1  0
 12 11  1  1
 12 13  1  0
 12 14  1  0
 15 14  1  1
 15 16  1  0
 15 17  1  0
 16  9  1  0
 17 19  1  0
 18 17  2  0
M  END
$$$$
