CGL.pdb
     RDKit          3D

 19 18  0  0  1  0  0  0  0  0999 V2000
    7.2521  -19.0461   24.4523 N   0  0  0  0  0  0  0  0  0  0  0  0
    6.7515  -19.4651   23.1781 C   0  0  1  0  0  0  0  0  0  0  0  0
    5.4465  -20.1852   23.3745 C   0  0  0  0  0  0  0  0  0  0  0  0
    5.5729  -21.5075   24.5837 S   0  0  0  0  0  0  0  0  0  0  0  0
    6.5117  -18.3074   22.2658 C   0  0  0  0  0  0  0  0  0  0  0  0
    6.3548  -18.5280   21.0372 O   0  0  0  0  0  0  0  0  0  0  0  0
    6.4574  -16.9718   22.7524 N   0  0  0  0  0  0  0  0  0  0  0  0
    7.2622  -15.9815   22.0866 C   0  0  0  0  0  0  0  0  0  0  0  0
    8.0222  -15.1329   23.0236 C   0  0  0  0  0  0  0  0  0  0  0  0
    8.8493  -14.2539   22.6743 O   0  0  0  0  0  0  0  0  0  0  0  0
    5.8156  -12.4034   26.5947 C   0  0  0  0  0  0  0  0  0  0  0  0
    6.8601  -12.9142   25.6081 C   0  0  1  0  0  0  0  0  0  0  0  0
    7.7239  -11.6878   25.2860 C   0  0  0  0  0  0  0  0  0  0  0  0
    7.7124  -13.9194   26.3236 C   0  0  0  0  0  0  0  0  0  0  0  0
    8.6697  -14.6634   25.4201 C   0  0  2  0  0  0  0  0  0  0  0  0
    7.8146  -15.3111   24.4153 N   0  0  0  0  0  0  0  0  0  0  0  0
    9.3996  -15.6505   26.2196 C   0  0  0  0  0  0  0  0  0  0  0  0
    9.1170  -16.8820   26.0464 O   0  0  0  0  0  0  0  0  0  0  0  0
   10.3652  -15.3681   27.1426 O   0  0  0  0  0  0  0  0  0  0  0  0
  2  5  1  0
  2  1  1  1
  3  2  1  0
  4  3  1  0
  5  6  2  0
  7  8  1  0
  7  5  1  0
  9 10  2  0
  9  8  1  0
 12 11  1  1
 12 13  1  0
 12 14  1  0
 15 14  1  1
 15 16  1  0
 15 17  1  0
 16  9  1  0
 17 19  1  0
 18 17  2  0
M  END
$$$$
