CGL.pdb
     RDKit          3D

 19 18  0  0  1  0  0  0  0  0999 V2000
    8.2587  -15.2196   17.4929 N   0  0  0  0  0  0  0  0  0  0  0  0
    8.6638  -14.5239   18.6768 C   0  0  1  0  0  0  0  0  0  0  0  0
    8.2649  -13.0792   18.5596 C   0  0  0  0  0  0  0  0  0  0  0  0
    8.7635  -12.1161   19.9915 S   0  0  0  0  0  0  0  0  0  0  0  0
    8.0204  -15.0867   19.9014 C   0  0  0  0  0  0  0  0  0  0  0  0
    6.7666  -15.1829   19.9359 O   0  0  0  0  0  0  0  0  0  0  0  0
    8.7889  -15.5127   21.0200 N   0  0  0  0  0  0  0  0  0  0  0  0
    8.0828  -15.8734   22.2213 C   0  0  0  0  0  0  0  0  0  0  0  0
    8.7363  -15.3724   23.4452 C   0  0  0  0  0  0  0  0  0  0  0  0
    9.9612  -15.1087   23.5389 O   0  0  0  0  0  0  0  0  0  0  0  0
    5.5034  -12.5238   26.8280 C   0  0  0  0  0  0  0  0  0  0  0  0
    6.6490  -12.9914   25.9368 C   0  0  1  0  0  0  0  0  0  0  0  0
    7.6124  -11.7984   25.8832 C   0  0  0  0  0  0  0  0  0  0  0  0
    7.3380  -14.1259   26.6346 C   0  0  0  0  0  0  0  0  0  0  0  0
    8.5113  -14.6934   25.8682 C   0  0  2  0  0  0  0  0  0  0  0  0
    7.9395  -15.1705   24.6010 N   0  0  0  0  0  0  0  0  0  0  0  0
    9.0909  -15.7935   26.6428 C   0  0  0  0  0  0  0  0  0  0  0  0
    8.6744  -16.9745   26.4016 O   0  0  0  0  0  0  0  0  0  0  0  0
   10.0469  -15.6673   27.6094 O   0  0  0  0  0  0  0  0  0  0  0  0
  2  5  1  0
  2  1  1  6
  3  2  1  0
  4  3  1  0
  5  6  2  0
  7  8  1  0
  7  5  1  0
  9 10  2  0
  9  8  1  0
 12 11  1  1
 12 13  1  0
 12 14  1  0
 15 14  1  1
 15 16  1  0
 15 17  1  0
 16  9  1  0
 17 19  1  0
 18 17  2  0
M  END
$$$$
