QQR.pdb
     RDKit          3D

 30 29  0  0  1  0  0  0  0  0999 V2000
   15.6411  -13.2224   18.1157 N   0  0  0  0  0  0  0  0  0  0  0  0
   15.3082  -14.1821   17.1091 C   0  0  0  0  0  0  0  0  0  0  0  0
   15.4593  -13.8315   15.9145 O   0  0  0  0  0  0  0  0  0  0  0  0
   14.8041  -15.5405   17.4160 C   0  0  0  0  0  0  0  0  0  0  0  0
   14.7543  -15.7186   18.8968 C   0  0  0  0  0  0  0  0  0  0  0  0
   13.5645  -16.4715   19.4004 C   0  0  2  0  0  0  0  0  0  0  0  0
   12.8566  -17.1410   18.3557 N   0  0  0  0  0  0  0  0  0  0  0  0
   12.6368  -15.6671   20.2144 C   0  0  0  0  0  0  0  0  0  0  0  0
   13.0130  -14.8780   21.1233 O   0  0  0  0  0  0  0  0  0  0  0  0
    7.0231  -12.4464   18.8689 N   0  0  0  0  0  0  0  0  0  0  0  0
    7.9173  -13.3807   18.2788 C   0  0  0  0  0  0  0  0  0  0  0  0
    7.6040  -13.9990   17.2218 O   0  0  0  0  0  0  0  0  0  0  0  0
    9.2295  -13.5914   18.9637 C   0  0  0  0  0  0  0  0  0  0  0  0
    9.0320  -14.6685   19.9885 C   0  0  0  0  0  0  0  0  0  0  0  0
   10.2718  -15.0159   20.7427 C   0  0  2  0  0  0  0  0  0  0  0  0
   11.2399  -15.7684   19.9828 N   0  0  0  0  0  0  0  0  0  0  0  0
    9.9865  -15.6585   22.0594 C   0  0  0  0  0  0  0  0  0  0  0  0
    9.7156  -16.8849   22.1455 O   0  0  0  0  0  0  0  0  0  0  0  0
   12.2717  -18.5364   28.2595 N   0  0  0  0  0  0  0  0  0  0  0  0
   11.2399  -18.0044   29.0662 C   0  0  0  0  0  0  0  0  0  0  0  0
   11.0108  -18.4540   30.2459 N   0  0  0  0  0  0  0  0  0  0  0  0
   10.4351  -16.9418   28.5459 N   0  0  0  0  0  0  0  0  0  0  0  0
   10.7826  -16.2631   27.3187 C   0  0  0  0  0  0  0  0  0  0  0  0
    9.6450  -15.2538   27.0093 C   0  0  0  0  0  0  0  0  0  0  0  0
    9.9119  -14.5815   25.6920 C   0  0  0  0  0  0  0  0  0  0  0  0
    9.6716  -15.5119   24.5700 C   0  0  2  0  0  0  0  0  0  0  0  0
   10.0041  -14.9288   23.2771 N   0  0  0  0  0  0  0  0  0  0  0  0
    8.2995  -16.0441   24.5821 C   0  0  0  0  0  0  0  0  0  0  0  0
    8.0634  -17.1930   25.3445 O   0  0  0  0  0  0  0  0  0  0  0  0
    7.3353  -15.5729   23.9833 O   0  0  0  0  0  0  0  0  0  0  0  0
  1  2  1  0
  2  3  2  0
  2  4  1  0
  4  5  1  0
  5  6  1  0
  6  7  1  6
  8  6  1  0
  8 16  1  0
  9  8  2  0
 11 12  2  0
 11 10  1  0
 13 11  1  0
 14 13  1  0
 15 16  1  0
 15 14  1  6
 17 27  1  0
 17 15  1  0
 18 17  2  0
 20 19  1  0
 20 22  1  0
 21 20  2  0
 23 22  1  0
 24 23  1  0
 25 24  1  0
 26 27  1  0
 26 25  1  1
 28 26  1  0
 29 28  1  0
 30 28  2  0
M  END
$$$$
