QQR.pdb
     RDKit          3D

 30 29  0  0  1  0  0  0  0  0999 V2000
    6.7911  -12.5443   18.1731 N   0  0  0  0  0  0  0  0  0  0  0  0
    6.7389  -13.6978   19.0167 C   0  0  0  0  0  0  0  0  0  0  0  0
    5.8792  -13.6982   19.9299 O   0  0  0  0  0  0  0  0  0  0  0  0
    7.6391  -14.8631   18.8574 C   0  0  0  0  0  0  0  0  0  0  0  0
    8.4995  -14.6532   17.6564 C   0  0  0  0  0  0  0  0  0  0  0  0
    9.4174  -15.7887   17.3336 C   0  0  2  0  0  0  0  0  0  0  0  0
    8.7149  -16.9592   16.9127 N   0  0  0  0  0  0  0  0  0  0  0  0
   10.3719  -16.1216   18.4051 C   0  0  0  0  0  0  0  0  0  0  0  0
   10.6351  -17.3025   18.7609 O   0  0  0  0  0  0  0  0  0  0  0  0
   15.5046  -14.3153   19.1007 N   0  0  0  0  0  0  0  0  0  0  0  0
   15.5164  -14.6611   20.4794 C   0  0  0  0  0  0  0  0  0  0  0  0
   16.6020  -14.9175   21.0739 O   0  0  0  0  0  0  0  0  0  0  0  0
   14.1966  -14.7055   21.1804 C   0  0  0  0  0  0  0  0  0  0  0  0
   13.1418  -14.3597   20.1718 C   0  0  0  0  0  0  0  0  0  0  0  0
   12.0041  -15.3245   20.1363 C   0  0  2  0  0  0  0  0  0  0  0  0
   11.0440  -15.0749   19.0890 N   0  0  0  0  0  0  0  0  0  0  0  0
   11.3407  -15.4852   21.4637 C   0  0  0  0  0  0  0  0  0  0  0  0
   10.7190  -14.5338   22.0054 O   0  0  0  0  0  0  0  0  0  0  0  0
    6.6335  -19.4731   20.7066 N   0  0  0  0  0  0  0  0  0  0  0  0
    6.0296  -18.8910   21.8445 C   0  0  0  0  0  0  0  0  0  0  0  0
    5.0299  -18.0934   21.7397 N   0  0  0  0  0  0  0  0  0  0  0  0
    6.5534  -19.2017   23.1393 N   0  0  0  0  0  0  0  0  0  0  0  0
    7.9674  -19.4090   23.3515 C   0  0  0  0  0  0  0  0  0  0  0  0
    8.6463  -18.0134   23.3447 C   0  0  0  0  0  0  0  0  0  0  0  0
   10.1038  -18.1601   23.6802 C   0  0  0  0  0  0  0  0  0  0  0  0
   10.8117  -16.8737   23.5170 C   0  0  2  0  0  0  0  0  0  0  0  0
   11.3738  -16.7086   22.1832 N   0  0  0  0  0  0  0  0  0  0  0  0
   11.8319  -16.6722   24.5584 C   0  0  0  0  0  0  0  0  0  0  0  0
   11.3851  -16.5388   25.8773 O   0  0  0  0  0  0  0  0  0  0  0  0
   13.0461  -16.6100   24.3795 O   0  0  0  0  0  0  0  0  0  0  0  0
  1  2  1  0
  2  3  2  0
  2  4  1  0
  4  5  1  0
  5  6  1  0
  6  7  1  1
  8  6  1  0
  8 16  1  0
  9  8  2  0
 11 12  2  0
 11 10  1  0
 13 11  1  0
 14 13  1  0
 15 16  1  0
 15 14  1  1
 17 27  1  0
 17 15  1  0
 18 17  2  0
 20 19  1  0
 20 22  1  0
 21 20  2  0
 23 22  1  0
 24 23  1  0
 25 24  1  0
 26 27  1  0
 26 25  1  6
 28 26  1  0
 29 28  1  0
 30 28  2  0
M  END
$$$$
