QQR.pdb
     RDKit          3D

 30 29  0  0  1  0  0  0  0  0999 V2000
    3.4912  -20.2136   23.0685 N   0  0  0  0  0  0  0  0  0  0  0  0
    3.1992  -20.5685   21.7143 C   0  0  0  0  0  0  0  0  0  0  0  0
    2.2626  -21.3813   21.5268 O   0  0  0  0  0  0  0  0  0  0  0  0
    3.9425  -20.0266   20.5535 C   0  0  0  0  0  0  0  0  0  0  0  0
    4.9836  -19.0759   21.0425 C   0  0  0  0  0  0  0  0  0  0  0  0
    5.8880  -18.5333   19.9824 C   0  0  2  0  0  0  0  0  0  0  0  0
    6.3754  -19.5493   19.1045 N   0  0  0  0  0  0  0  0  0  0  0  0
    7.0044  -17.7198   20.4945 C   0  0  0  0  0  0  0  0  0  0  0  0
    8.0955  -18.2089   20.8955 O   0  0  0  0  0  0  0  0  0  0  0  0
    7.7644  -11.7087   19.4363 N   0  0  0  0  0  0  0  0  0  0  0  0
    8.1026  -12.7029   18.4783 C   0  0  0  0  0  0  0  0  0  0  0  0
    8.2726  -12.4005   17.2628 O   0  0  0  0  0  0  0  0  0  0  0  0
    8.2449  -14.1057   18.9758 C   0  0  0  0  0  0  0  0  0  0  0  0
    7.9478  -14.0920   20.4457 C   0  0  0  0  0  0  0  0  0  0  0  0
    7.9081  -15.4494   21.0641 C   0  0  2  0  0  0  0  0  0  0  0  0
    6.8691  -16.3079   20.5501 N   0  0  0  0  0  0  0  0  0  0  0  0
    7.8967  -15.4048   22.5561 C   0  0  0  0  0  0  0  0  0  0  0  0
    6.8205  -15.2979   23.2006 O   0  0  0  0  0  0  0  0  0  0  0  0
    6.7982  -22.0177   26.5416 N   0  0  0  0  0  0  0  0  0  0  0  0
    6.7721  -20.9927   27.5148 C   0  0  0  0  0  0  0  0  0  0  0  0
    6.1317  -21.1309   28.6180 N   0  0  0  0  0  0  0  0  0  0  0  0
    7.4767  -19.7749   27.2540 N   0  0  0  0  0  0  0  0  0  0  0  0
    8.1079  -19.5265   25.9783 C   0  0  0  0  0  0  0  0  0  0  0  0
    8.6703  -18.0804   26.0136 C   0  0  0  0  0  0  0  0  0  0  0  0
    8.6019  -17.4791   24.6380 C   0  0  0  0  0  0  0  0  0  0  0  0
    9.1630  -16.1126   24.6343 C   0  0  2  0  0  0  0  0  0  0  0  0
    9.0880  -15.4793   23.3246 N   0  0  0  0  0  0  0  0  0  0  0  0
   10.5340  -16.0805   25.1685 C   0  0  0  0  0  0  0  0  0  0  0  0
   10.7085  -16.4359   26.5103 O   0  0  0  0  0  0  0  0  0  0  0  0
   11.5465  -15.7699   24.5451 O   0  0  0  0  0  0  0  0  0  0  0  0
  1  2  1  0
  2  3  2  0
  2  4  1  0
  4  5  1  0
  5  6  1  0
  6  7  1  1
  8  6  1  0
  8 16  1  0
  9  8  2  0
 11 12  2  0
 11 10  1  0
 13 11  1  0
 14 13  1  0
 15 16  1  0
 15 14  1  6
 17 27  1  0
 17 15  1  0
 18 17  2  0
 20 19  1  0
 20 22  1  0
 21 20  2  0
 23 22  1  0
 24 23  1  0
 25 24  1  0
 26 27  1  0
 26 25  1  6
 28 26  1  0
 29 28  1  0
 30 28  2  0
M  END
$$$$
