QQR.pdb
     RDKit          3D

 30 29  0  0  1  0  0  0  0  0999 V2000
   13.7553  -13.6254   17.8714 N   0  0  0  0  0  0  0  0  0  0  0  0
   13.1732  -13.7313   19.1733 C   0  0  0  0  0  0  0  0  0  0  0  0
   13.9579  -13.7180   20.1517 O   0  0  0  0  0  0  0  0  0  0  0  0
   11.7155  -13.8536   19.4047 C   0  0  0  0  0  0  0  0  0  0  0  0
   11.0161  -13.9084   18.0876 C   0  0  0  0  0  0  0  0  0  0  0  0
    9.5283  -14.0333   18.1698 C   0  0  2  0  0  0  0  0  0  0  0  0
    8.8789  -12.7692   18.3156 N   0  0  0  0  0  0  0  0  0  0  0  0
    9.0537  -14.9748   19.1987 C   0  0  0  0  0  0  0  0  0  0  0  0
    8.5118  -14.6115   20.2779 O   0  0  0  0  0  0  0  0  0  0  0  0
    6.4394  -19.3085   20.7939 N   0  0  0  0  0  0  0  0  0  0  0  0
    6.1925  -19.1344   19.4049 C   0  0  0  0  0  0  0  0  0  0  0  0
    5.0293  -19.2750   18.9308 O   0  0  0  0  0  0  0  0  0  0  0  0
    7.3638  -18.7812   18.5454 C   0  0  0  0  0  0  0  0  0  0  0  0
    8.5684  -18.7115   19.4362 C   0  0  0  0  0  0  0  0  0  0  0  0
    8.8350  -17.3486   19.9819 C   0  0  2  0  0  0  0  0  0  0  0  0
    9.2035  -16.3705   18.9877 N   0  0  0  0  0  0  0  0  0  0  0  0
    9.7962  -17.3610   21.1238 C   0  0  0  0  0  0  0  0  0  0  0  0
   11.0405  -17.3771   20.9333 O   0  0  0  0  0  0  0  0  0  0  0  0
   10.3604  -14.7980   29.4042 N   0  0  0  0  0  0  0  0  0  0  0  0
    9.5318  -14.4207   28.3229 C   0  0  0  0  0  0  0  0  0  0  0  0
    9.0118  -13.2498   28.2525 N   0  0  0  0  0  0  0  0  0  0  0  0
    9.2696  -15.3739   27.2884 N   0  0  0  0  0  0  0  0  0  0  0  0
    9.7934  -16.7190   27.3512 C   0  0  0  0  0  0  0  0  0  0  0  0
   10.5583  -16.9806   26.0264 C   0  0  0  0  0  0  0  0  0  0  0  0
    9.5936  -16.9584   24.8743 C   0  0  0  0  0  0  0  0  0  0  0  0
   10.2759  -17.3096   23.6120 C   0  0  2  0  0  0  0  0  0  0  0  0
    9.3647  -17.3560   22.4763 N   0  0  0  0  0  0  0  0  0  0  0  0
   11.0468  -18.5575   23.7332 C   0  0  0  0  0  0  0  0  0  0  0  0
   10.3861  -19.7522   23.4277 O   0  0  0  0  0  0  0  0  0  0  0  0
   12.2224  -18.6512   24.0786 O   0  0  0  0  0  0  0  0  0  0  0  0
  1  2  1  0
  2  3  2  0
  2  4  1  0
  4  5  1  0
  5  6  1  0
  6  7  1  1
  8  6  1  0
  8 16  1  0
  9  8  2  0
 11 12  2  0
 11 10  1  0
 13 11  1  0
 14 13  1  0
 15 16  1  0
 15 14  1  6
 17 27  1  0
 17 15  1  0
 18 17  2  0
 20 19  1  0
 20 22  1  0
 21 20  2  0
 23 22  1  0
 24 23  1  0
 25 24  1  0
 26 27  1  0
 26 25  1  1
 28 26  1  0
 29 28  1  0
 30 28  2  0
M  END
$$$$
