QQR.pdb
     RDKit          3D

 30 29  0  0  1  0  0  0  0  0999 V2000
    9.4195  -14.0286   16.3571 N   0  0  0  0  0  0  0  0  0  0  0  0
    8.2803  -13.3450   16.8863 C   0  0  0  0  0  0  0  0  0  0  0  0
    7.6089  -12.6510   16.0859 O   0  0  0  0  0  0  0  0  0  0  0  0
    7.8734  -13.4231   18.3082 C   0  0  0  0  0  0  0  0  0  0  0  0
    8.8232  -14.3128   19.0385 C   0  0  0  0  0  0  0  0  0  0  0  0
    8.2070  -15.1330   20.1265 C   0  0  2  0  0  0  0  0  0  0  0  0
    6.7793  -15.1190   20.0824 N   0  0  0  0  0  0  0  0  0  0  0  0
    8.6812  -14.7998   21.4809 C   0  0  0  0  0  0  0  0  0  0  0  0
    9.9009  -14.7195   21.7913 O   0  0  0  0  0  0  0  0  0  0  0  0
    5.4089  -11.9087   25.8198 N   0  0  0  0  0  0  0  0  0  0  0  0
    6.6052  -12.0897   26.5659 C   0  0  0  0  0  0  0  0  0  0  0  0
    6.7579  -11.5335   27.6907 O   0  0  0  0  0  0  0  0  0  0  0  0
    7.6592  -12.9598   25.9598 C   0  0  0  0  0  0  0  0  0  0  0  0
    7.1794  -13.3614   24.5968 C   0  0  0  0  0  0  0  0  0  0  0  0
    8.1234  -14.2568   23.8663 C   0  0  2  0  0  0  0  0  0  0  0  0
    7.7343  -14.5521   22.5090 N   0  0  0  0  0  0  0  0  0  0  0  0
    8.4484  -15.4987   24.6278 C   0  0  0  0  0  0  0  0  0  0  0  0
    7.6461  -16.4676   24.6752 O   0  0  0  0  0  0  0  0  0  0  0  0
   14.2238  -20.6756   26.6485 N   0  0  0  0  0  0  0  0  0  0  0  0
   13.8437  -21.2574   25.4175 C   0  0  0  0  0  0  0  0  0  0  0  0
   13.9996  -22.5106   25.1909 N   0  0  0  0  0  0  0  0  0  0  0  0
   13.2753  -20.4212   24.4049 N   0  0  0  0  0  0  0  0  0  0  0  0
   13.2298  -18.9845   24.5504 C   0  0  0  0  0  0  0  0  0  0  0  0
   11.9597  -18.6422   25.3741 C   0  0  0  0  0  0  0  0  0  0  0  0
   11.4096  -17.3176   24.9255 C   0  0  0  0  0  0  0  0  0  0  0  0
   10.2185  -16.9489   25.7177 C   0  0  2  0  0  0  0  0  0  0  0  0
    9.6694  -15.6549   25.3352 N   0  0  0  0  0  0  0  0  0  0  0  0
   10.4793  -17.0150   27.1646 C   0  0  0  0  0  0  0  0  0  0  0  0
   10.4937  -15.8070   27.8700 O   0  0  0  0  0  0  0  0  0  0  0  0
   10.6864  -18.0358   27.8167 O   0  0  0  0  0  0  0  0  0  0  0  0
  1  2  1  0
  2  3  2  0
  2  4  1  0
  4  5  1  0
  5  6  1  0
  6  7  1  1
  8  6  1  0
  8 16  1  0
  9  8  2  0
 11 12  2  0
 11 10  1  0
 13 11  1  0
 14 13  1  0
 15 16  1  0
 15 14  1  1
 17 27  1  0
 17 15  1  0
 18 17  2  0
 20 19  1  0
 20 22  1  0
 21 20  2  0
 23 22  1  0
 24 23  1  0
 25 24  1  0
 26 27  1  0
 26 25  1  6
 28 26  1  0
 29 28  1  0
 30 28  2  0
M  END
$$$$
