QQR.pdb
     RDKit          3D

 30 29  0  0  1  0  0  0  0  0999 V2000
    8.8052  -22.5772   17.0082 N   0  0  0  0  0  0  0  0  0  0  0  0
    9.8179  -21.8028   16.3603 C   0  0  0  0  0  0  0  0  0  0  0  0
    9.7327  -21.6798   15.1151 O   0  0  0  0  0  0  0  0  0  0  0  0
   10.9360  -21.1568   17.0856 C   0  0  0  0  0  0  0  0  0  0  0  0
   10.8819  -21.5588   18.5217 C   0  0  0  0  0  0  0  0  0  0  0  0
   11.9243  -20.9310   19.3907 C   0  0  2  0  0  0  0  0  0  0  0  0
   13.0728  -20.5101   18.6527 N   0  0  0  0  0  0  0  0  0  0  0  0
   12.3293  -21.7532   20.5440 C   0  0  0  0  0  0  0  0  0  0  0  0
   11.5138  -22.2310   21.3790 O   0  0  0  0  0  0  0  0  0  0  0  0
   16.7010  -26.2932   20.7293 N   0  0  0  0  0  0  0  0  0  0  0  0
   16.8649  -25.5585   21.9351 C   0  0  0  0  0  0  0  0  0  0  0  0
   17.9750  -25.5444   22.5396 O   0  0  0  0  0  0  0  0  0  0  0  0
   15.6729  -24.8136   22.4445 C   0  0  0  0  0  0  0  0  0  0  0  0
   15.2506  -23.8557   21.3706 C   0  0  0  0  0  0  0  0  0  0  0  0
   14.1680  -22.9191   21.7915 C   0  0  2  0  0  0  0  0  0  0  0  0
   13.7051  -22.0365   20.7485 N   0  0  0  0  0  0  0  0  0  0  0  0
   14.5045  -22.1690   23.0374 C   0  0  0  0  0  0  0  0  0  0  0  0
   15.2587  -21.1613   23.0125 O   0  0  0  0  0  0  0  0  0  0  0  0
   12.3722  -22.4466   32.0398 N   0  0  0  0  0  0  0  0  0  0  0  0
   12.3373  -21.1806   31.4117 C   0  0  0  0  0  0  0  0  0  0  0  0
   11.7041  -20.1918   31.9292 N   0  0  0  0  0  0  0  0  0  0  0  0
   13.0245  -21.0073   30.1686 N   0  0  0  0  0  0  0  0  0  0  0  0
   12.6921  -21.7980   29.0059 C   0  0  0  0  0  0  0  0  0  0  0  0
   13.6607  -21.3785   27.8682 C   0  0  0  0  0  0  0  0  0  0  0  0
   13.4322  -22.2493   26.6648 C   0  0  0  0  0  0  0  0  0  0  0  0
   14.2885  -21.8234   25.5389 C   0  0  2  0  0  0  0  0  0  0  0  0
   13.9978  -22.5471   24.3085 N   0  0  0  0  0  0  0  0  0  0  0  0
   15.7187  -21.8952   25.8789 C   0  0  0  0  0  0  0  0  0  0  0  0
   16.3481  -20.7055   26.2606 O   0  0  0  0  0  0  0  0  0  0  0  0
   16.4171  -22.9061   25.8600 O   0  0  0  0  0  0  0  0  0  0  0  0
  1  2  1  0
  2  3  2  0
  2  4  1  0
  4  5  1  0
  5  6  1  0
  6  7  1  6
  8  6  1  0
  8 16  1  0
  9  8  2  0
 11 12  2  0
 11 10  1  0
 13 11  1  0
 14 13  1  0
 15 16  1  0
 15 14  1  6
 17 27  1  0
 17 15  1  0
 18 17  2  0
 20 19  1  0
 20 22  1  0
 21 20  2  0
 23 22  1  0
 24 23  1  0
 25 24  1  0
 26 27  1  0
 26 25  1  1
 28 26  1  0
 29 28  1  0
 30 28  2  0
M  END
$$$$
