QQR.pdb
     RDKit          3D

 30 29  0  0  1  0  0  0  0  0999 V2000
    8.5294  -16.0202   15.9612 N   0  0  0  0  0  0  0  0  0  0  0  0
    9.4856  -16.8807   15.3364 C   0  0  0  0  0  0  0  0  0  0  0  0
    9.3767  -17.0509   14.0986 O   0  0  0  0  0  0  0  0  0  0  0  0
   10.5723  -17.5620   16.0770 C   0  0  0  0  0  0  0  0  0  0  0  0
   10.5996  -17.0529   17.4795 C   0  0  0  0  0  0  0  0  0  0  0  0
   11.6725  -17.6386   18.3408 C   0  0  2  0  0  0  0  0  0  0  0  0
   12.2980  -18.7745   17.7415 N   0  0  0  0  0  0  0  0  0  0  0  0
   11.2437  -17.9549   19.7142 C   0  0  0  0  0  0  0  0  0  0  0  0
   10.1275  -17.6127   20.1912 O   0  0  0  0  0  0  0  0  0  0  0  0
   14.6379  -21.2529   23.7831 N   0  0  0  0  0  0  0  0  0  0  0  0
   13.5287  -20.9829   24.6301 C   0  0  0  0  0  0  0  0  0  0  0  0
   13.5037  -21.4076   25.8204 O   0  0  0  0  0  0  0  0  0  0  0  0
   12.4084  -20.1818   24.0483 C   0  0  0  0  0  0  0  0  0  0  0  0
   12.7926  -19.8298   22.6420 C   0  0  0  0  0  0  0  0  0  0  0  0
   11.7898  -18.9763   21.9401 C   0  0  2  0  0  0  0  0  0  0  0  0
   12.1157  -18.6822   20.5660 N   0  0  0  0  0  0  0  0  0  0  0  0
   11.4501  -17.7384   22.7018 C   0  0  0  0  0  0  0  0  0  0  0  0
   12.2738  -16.7936   22.8184 O   0  0  0  0  0  0  0  0  0  0  0  0
    8.5192  -12.1521   18.3579 N   0  0  0  0  0  0  0  0  0  0  0  0
    7.9655  -12.6165   19.5729 C   0  0  0  0  0  0  0  0  0  0  0  0
    6.7873  -12.2737   19.9479 N   0  0  0  0  0  0  0  0  0  0  0  0
    8.7452  -13.4866   20.3990 N   0  0  0  0  0  0  0  0  0  0  0  0
    8.1975  -14.0817   21.5963 C   0  0  0  0  0  0  0  0  0  0  0  0
    9.3137  -14.9516   22.2335 C   0  0  0  0  0  0  0  0  0  0  0  0
    8.8141  -15.5514   23.5177 C   0  0  0  0  0  0  0  0  0  0  0  0
    9.8534  -16.3960   24.1413 C   0  0  2  0  0  0  0  0  0  0  0  0
   10.1906  -17.5593   23.3319 N   0  0  0  0  0  0  0  0  0  0  0  0
    9.4948  -16.7835   25.5151 C   0  0  0  0  0  0  0  0  0  0  0  0
    9.3915  -18.1513   25.7900 O   0  0  0  0  0  0  0  0  0  0  0  0
    9.2766  -16.0161   26.4498 O   0  0  0  0  0  0  0  0  0  0  0  0
  1  2  1  0
  2  3  2  0
  2  4  1  0
  4  5  1  0
  5  6  1  0
  6  7  1  6
  8  6  1  0
  8 16  1  0
  9  8  2  0
 11 12  2  0
 11 10  1  0
 13 11  1  0
 14 13  1  0
 15 16  1  0
 15 14  1  1
 17 27  1  0
 17 15  1  0
 18 17  2  0
 20 19  1  0
 20 22  1  0
 21 20  2  0
 23 22  1  0
 24 23  1  0
 25 24  1  0
 26 27  1  0
 26 25  1  6
 28 26  1  0
 29 28  1  0
 30 28  2  0
M  END
$$$$
