QQR.pdb
     RDKit          3D

 30 29  0  0  1  0  0  0  0  0999 V2000
   13.1810  -18.7601   15.0685 N   0  0  0  0  0  0  0  0  0  0  0  0
   13.9023  -17.7668   15.8022 C   0  0  0  0  0  0  0  0  0  0  0  0
   14.8302  -17.1751   15.2006 O   0  0  0  0  0  0  0  0  0  0  0  0
   13.6030  -17.4190   17.2104 C   0  0  0  0  0  0  0  0  0  0  0  0
   12.4970  -18.2913   17.7030 C   0  0  0  0  0  0  0  0  0  0  0  0
   12.1071  -18.0680   19.1293 C   0  0  2  0  0  0  0  0  0  0  0  0
   11.0352  -18.9163   19.5441 N   0  0  0  0  0  0  0  0  0  0  0  0
   11.8096  -16.6648   19.4650 C   0  0  0  0  0  0  0  0  0  0  0  0
   12.6989  -15.7926   19.6622 O   0  0  0  0  0  0  0  0  0  0  0  0
    6.0663  -13.4345   19.2554 N   0  0  0  0  0  0  0  0  0  0  0  0
    7.2234  -12.6303   19.0682 C   0  0  0  0  0  0  0  0  0  0  0  0
    7.1991  -11.6293   18.2967 O   0  0  0  0  0  0  0  0  0  0  0  0
    8.4540  -13.0243   19.8204 C   0  0  0  0  0  0  0  0  0  0  0  0
    8.8557  -14.3870   19.3399 C   0  0  0  0  0  0  0  0  0  0  0  0
   10.0898  -14.9151   19.9914 C   0  0  2  0  0  0  0  0  0  0  0  0
   10.4576  -16.2475   19.5789 N   0  0  0  0  0  0  0  0  0  0  0  0
   10.0577  -14.7890   21.4784 C   0  0  0  0  0  0  0  0  0  0  0  0
    9.6597  -13.7341   22.0385 O   0  0  0  0  0  0  0  0  0  0  0  0
    7.6508  -12.6393   27.6767 N   0  0  0  0  0  0  0  0  0  0  0  0
    6.6601  -12.4450   26.6872 C   0  0  0  0  0  0  0  0  0  0  0  0
    5.9519  -11.3758   26.6473 N   0  0  0  0  0  0  0  0  0  0  0  0
    6.4467  -13.4711   25.7129 N   0  0  0  0  0  0  0  0  0  0  0  0
    7.2205  -14.6912   25.7201 C   0  0  0  0  0  0  0  0  0  0  0  0
    8.4254  -14.4812   24.7647 C   0  0  0  0  0  0  0  0  0  0  0  0
    8.7213  -15.7626   24.0373 C   0  0  0  0  0  0  0  0  0  0  0  0
   10.1670  -15.8867   23.7603 C   0  0  2  0  0  0  0  0  0  0  0  0
   10.4709  -15.8420   22.3363 N   0  0  0  0  0  0  0  0  0  0  0  0
   10.7476  -17.0804   24.3960 C   0  0  0  0  0  0  0  0  0  0  0  0
   10.9148  -18.2161   23.5965 O   0  0  0  0  0  0  0  0  0  0  0  0
   11.1021  -17.1755   25.5688 O   0  0  0  0  0  0  0  0  0  0  0  0
  1  2  1  0
  2  3  2  0
  2  4  1  0
  4  5  1  0
  5  6  1  0
  6  7  1  6
  8  6  1  0
  8 16  1  0
  9  8  2  0
 11 12  2  0
 11 10  1  0
 13 11  1  0
 14 13  1  0
 15 16  1  0
 15 14  1  1
 17 27  1  0
 17 15  1  0
 18 17  2  0
 20 19  1  0
 20 22  1  0
 21 20  2  0
 23 22  1  0
 24 23  1  0
 25 24  1  0
 26 27  1  0
 26 25  1  6
 28 26  1  0
 29 28  1  0
 30 28  2  0
M  END
$$$$
