QQR.pdb
     RDKit          3D

 30 29  0  0  1  0  0  0  0  0999 V2000
    9.2759  -13.8989   16.4331 N   0  0  0  0  0  0  0  0  0  0  0  0
    7.9150  -13.4618   16.4769 C   0  0  0  0  0  0  0  0  0  0  0  0
    7.2603  -13.5272   15.4092 O   0  0  0  0  0  0  0  0  0  0  0  0
    7.2655  -12.9472   17.7045 C   0  0  0  0  0  0  0  0  0  0  0  0
    8.2098  -13.0889   18.8512 C   0  0  0  0  0  0  0  0  0  0  0  0
    8.0441  -14.3411   19.6518 C   0  0  2  0  0  0  0  0  0  0  0  0
    6.6855  -14.7784   19.7111 N   0  0  0  0  0  0  0  0  0  0  0  0
    8.6215  -14.2773   21.0055 C   0  0  0  0  0  0  0  0  0  0  0  0
    9.8145  -13.9409   21.2384 O   0  0  0  0  0  0  0  0  0  0  0  0
    5.7776  -12.9641   26.1807 N   0  0  0  0  0  0  0  0  0  0  0  0
    7.0221  -13.3289   26.7627 C   0  0  0  0  0  0  0  0  0  0  0  0
    7.2540  -13.1111   27.9861 O   0  0  0  0  0  0  0  0  0  0  0  0
    8.0289  -13.9744   25.8655 C   0  0  0  0  0  0  0  0  0  0  0  0
    7.4225  -14.0543   24.4961 C   0  0  0  0  0  0  0  0  0  0  0  0
    8.3296  -14.6469   23.4702 C   0  0  2  0  0  0  0  0  0  0  0  0
    7.8125  -14.6077   22.1241 N   0  0  0  0  0  0  0  0  0  0  0  0
    8.8033  -16.0138   23.8377 C   0  0  0  0  0  0  0  0  0  0  0  0
    8.1400  -17.0406   23.5365 O   0  0  0  0  0  0  0  0  0  0  0  0
   14.9520  -14.0249   19.0789 N   0  0  0  0  0  0  0  0  0  0  0  0
   15.4022  -15.2906   19.5187 C   0  0  0  0  0  0  0  0  0  0  0  0
   16.4600  -15.8321   19.0347 N   0  0  0  0  0  0  0  0  0  0  0  0
   14.6533  -15.9784   20.5255 N   0  0  0  0  0  0  0  0  0  0  0  0
   13.4447  -15.4163   21.0830 C   0  0  0  0  0  0  0  0  0  0  0  0
   12.9963  -16.3423   22.2449 C   0  0  0  0  0  0  0  0  0  0  0  0
   11.6880  -15.8553   22.8016 C   0  0  0  0  0  0  0  0  0  0  0  0
   11.2367  -16.7185   23.9123 C   0  0  2  0  0  0  0  0  0  0  0  0
   10.0170  -16.2303   24.5416 N   0  0  0  0  0  0  0  0  0  0  0  0
   12.3015  -16.9389   24.9041 C   0  0  0  0  0  0  0  0  0  0  0  0
   13.3518  -17.7883   24.5401 O   0  0  0  0  0  0  0  0  0  0  0  0
   12.3571  -16.4450   26.0280 O   0  0  0  0  0  0  0  0  0  0  0  0
  1  2  1  0
  2  3  2  0
  2  4  1  0
  4  5  1  0
  5  6  1  0
  6  7  1  1
  8  6  1  0
  8 16  1  0
  9  8  2  0
 11 12  2  0
 11 10  1  0
 13 11  1  0
 14 13  1  0
 15 16  1  0
 15 14  1  1
 17 27  1  0
 17 15  1  0
 18 17  2  0
 20 19  1  0
 20 22  1  0
 21 20  2  0
 23 22  1  0
 24 23  1  0
 25 24  1  0
 26 27  1  0
 26 25  1  6
 28 26  1  0
 29 28  1  0
 30 28  2  0
M  END
$$$$
