QQR.pdb
     RDKit          3D

 30 29  0  0  1  0  0  0  0  0999 V2000
    8.2943  -12.4257   16.4348 N   0  0  0  0  0  0  0  0  0  0  0  0
    7.2995  -13.3986   16.1047 C   0  0  0  0  0  0  0  0  0  0  0  0
    6.8181  -13.3522   14.9475 O   0  0  0  0  0  0  0  0  0  0  0  0
    6.8275  -14.4330   17.0538 C   0  0  0  0  0  0  0  0  0  0  0  0
    7.5321  -14.2559   18.3572 C   0  0  0  0  0  0  0  0  0  0  0  0
    8.0526  -15.5179   18.9678 C   0  0  2  0  0  0  0  0  0  0  0  0
    7.7048  -16.6779   18.2100 N   0  0  0  0  0  0  0  0  0  0  0  0
    7.6891  -15.7026   20.3834 C   0  0  0  0  0  0  0  0  0  0  0  0
    7.9474  -14.8586   21.2843 O   0  0  0  0  0  0  0  0  0  0  0  0
    3.4437  -19.6127   22.5742 N   0  0  0  0  0  0  0  0  0  0  0  0
    3.2255  -18.5812   21.6208 C   0  0  0  0  0  0  0  0  0  0  0  0
    2.1152  -18.4723   21.0264 O   0  0  0  0  0  0  0  0  0  0  0  0
    4.3615  -17.6446   21.3608 C   0  0  0  0  0  0  0  0  0  0  0  0
    5.4445  -17.9696   22.3460 C   0  0  0  0  0  0  0  0  0  0  0  0
    6.6896  -17.1693   22.1571 C   0  0  2  0  0  0  0  0  0  0  0  0
    7.0120  -16.8854   20.7800 N   0  0  0  0  0  0  0  0  0  0  0  0
    7.8592  -17.7381   22.8896 C   0  0  0  0  0  0  0  0  0  0  0  0
    8.1614  -18.9567   22.7968 O   0  0  0  0  0  0  0  0  0  0  0  0
   16.6457  -16.1173   24.5503 N   0  0  0  0  0  0  0  0  0  0  0  0
   16.0803  -17.3423   24.1285 C   0  0  0  0  0  0  0  0  0  0  0  0
   16.7488  -18.1842   23.4281 N   0  0  0  0  0  0  0  0  0  0  0  0
   14.7293  -17.6412   24.4934 N   0  0  0  0  0  0  0  0  0  0  0  0
   13.6136  -16.9540   23.8848 C   0  0  0  0  0  0  0  0  0  0  0  0
   12.3178  -17.5086   24.5343 C   0  0  0  0  0  0  0  0  0  0  0  0
   11.1199  -16.8417   23.9188 C   0  0  0  0  0  0  0  0  0  0  0  0
    9.8685  -17.4556   24.4083 C   0  0  2  0  0  0  0  0  0  0  0  0
    8.6883  -16.9439   23.7246 N   0  0  0  0  0  0  0  0  0  0  0  0
    9.7350  -17.3399   25.8694 C   0  0  0  0  0  0  0  0  0  0  0  0
   10.6207  -18.0844   26.6558 O   0  0  0  0  0  0  0  0  0  0  0  0
    8.9154  -16.6476   26.4686 O   0  0  0  0  0  0  0  0  0  0  0  0
  1  2  1  0
  2  3  2  0
  2  4  1  0
  4  5  1  0
  5  6  1  0
  6  7  1  6
  8  6  1  0
  8 16  1  0
  9  8  2  0
 11 12  2  0
 11 10  1  0
 13 11  1  0
 14 13  1  0
 15 16  1  0
 15 14  1  6
 17 27  1  0
 17 15  1  0
 18 17  2  0
 20 19  1  0
 20 22  1  0
 21 20  2  0
 23 22  1  0
 24 23  1  0
 25 24  1  0
 26 27  1  0
 26 25  1  6
 28 26  1  0
 29 28  1  0
 30 28  2  0
M  END
$$$$
