QQR.pdb
     RDKit          3D

 30 29  0  0  1  0  0  0  0  0999 V2000
    7.8270  -12.4798   18.5574 N   0  0  0  0  0  0  0  0  0  0  0  0
    7.6126  -13.5061   17.5847 C   0  0  0  0  0  0  0  0  0  0  0  0
    7.6822  -13.1718   16.3780 O   0  0  0  0  0  0  0  0  0  0  0  0
    7.3184  -14.9137   17.9394 C   0  0  0  0  0  0  0  0  0  0  0  0
    7.2601  -15.0396   19.4252 C   0  0  0  0  0  0  0  0  0  0  0  0
    8.0164  -16.2000   19.9886 C   0  0  2  0  0  0  0  0  0  0  0  0
    7.9390  -17.3602   19.1588 N   0  0  0  0  0  0  0  0  0  0  0  0
    7.6623  -16.5390   21.3778 C   0  0  0  0  0  0  0  0  0  0  0  0
    7.3650  -15.6782   22.2503 O   0  0  0  0  0  0  0  0  0  0  0  0
    6.5042  -22.3310   23.3249 N   0  0  0  0  0  0  0  0  0  0  0  0
    6.2351  -21.6609   24.5493 C   0  0  0  0  0  0  0  0  0  0  0  0
    5.7900  -22.2926   25.5496 O   0  0  0  0  0  0  0  0  0  0  0  0
    6.5019  -20.1904   24.5922 C   0  0  0  0  0  0  0  0  0  0  0  0
    6.9232  -19.7711   23.2153 C   0  0  0  0  0  0  0  0  0  0  0  0
    7.2251  -18.3147   23.0959 C   0  0  2  0  0  0  0  0  0  0  0  0
    7.6482  -17.9000   21.7806 N   0  0  0  0  0  0  0  0  0  0  0  0
    8.1610  -17.8298   24.1529 C   0  0  0  0  0  0  0  0  0  0  0  0
    9.3921  -18.0892   24.1077 O   0  0  0  0  0  0  0  0  0  0  0  0
    7.0044  -10.1457   25.7032 N   0  0  0  0  0  0  0  0  0  0  0  0
    6.3653  -11.3084   26.1911 C   0  0  0  0  0  0  0  0  0  0  0  0
    5.3177  -11.2391   26.9287 N   0  0  0  0  0  0  0  0  0  0  0  0
    6.9077  -12.5884   25.8519 N   0  0  0  0  0  0  0  0  0  0  0  0
    8.3215  -12.7705   25.6162 C   0  0  0  0  0  0  0  0  0  0  0  0
    8.5479  -14.2718   25.2946 C   0  0  0  0  0  0  0  0  0  0  0  0
    8.3730  -15.0873   26.5447 C   0  0  0  0  0  0  0  0  0  0  0  0
    8.6137  -16.5196   26.2747 C   0  0  2  0  0  0  0  0  0  0  0  0
    7.7188  -17.0565   25.2583 N   0  0  0  0  0  0  0  0  0  0  0  0
    8.5729  -17.3251   27.5058 C   0  0  0  0  0  0  0  0  0  0  0  0
    9.5695  -17.0910   28.4592 O   0  0  0  0  0  0  0  0  0  0  0  0
    7.7419  -18.1884   27.7784 O   0  0  0  0  0  0  0  0  0  0  0  0
  1  2  1  0
  2  3  2  0
  2  4  1  0
  4  5  1  0
  5  6  1  0
  6  7  1  6
  8  6  1  0
  8 16  1  0
  9  8  2  0
 11 12  2  0
 11 10  1  0
 13 11  1  0
 14 13  1  0
 15 16  1  0
 15 14  1  6
 17 27  1  0
 17 15  1  0
 18 17  2  0
 20 19  1  0
 20 22  1  0
 21 20  2  0
 23 22  1  0
 24 23  1  0
 25 24  1  0
 26 27  1  0
 26 25  1  1
 28 26  1  0
 29 28  1  0
 30 28  2  0
M  END
$$$$
