QQR.pdb
     RDKit          3D

 30 29  0  0  1  0  0  0  0  0999 V2000
    7.5841  -12.0329   19.1204 N   0  0  0  0  0  0  0  0  0  0  0  0
    6.9538  -12.9840   18.2582 C   0  0  0  0  0  0  0  0  0  0  0  0
    5.7389  -12.8054   18.0032 O   0  0  0  0  0  0  0  0  0  0  0  0
    7.6634  -14.1432   17.6697 C   0  0  0  0  0  0  0  0  0  0  0  0
    9.0725  -14.1523   18.1609 C   0  0  0  0  0  0  0  0  0  0  0  0
   10.0569  -14.7944   17.2364 C   0  0  2  0  0  0  0  0  0  0  0  0
    9.4601  -15.7926   16.4069 N   0  0  0  0  0  0  0  0  0  0  0  0
   11.2554  -15.3319   17.9035 C   0  0  0  0  0  0  0  0  0  0  0  0
   11.4559  -16.5632   18.0884 O   0  0  0  0  0  0  0  0  0  0  0  0
   16.7188  -13.5767   17.4718 N   0  0  0  0  0  0  0  0  0  0  0  0
   16.9999  -14.2259   18.7047 C   0  0  0  0  0  0  0  0  0  0  0  0
   18.1792  -14.5710   19.0013 O   0  0  0  0  0  0  0  0  0  0  0  0
   15.8445  -14.4762   19.6200 C   0  0  0  0  0  0  0  0  0  0  0  0
   14.6102  -13.9758   18.9305 C   0  0  0  0  0  0  0  0  0  0  0  0
   13.4361  -14.8871   19.0623 C   0  0  2  0  0  0  0  0  0  0  0  0
   12.2520  -14.4366   18.3726 N   0  0  0  0  0  0  0  0  0  0  0  0
   13.1421  -15.2499   20.4801 C   0  0  0  0  0  0  0  0  0  0  0  0
   12.5156  -14.4665   21.2409 O   0  0  0  0  0  0  0  0  0  0  0  0
   11.8023  -23.0803   24.6025 N   0  0  0  0  0  0  0  0  0  0  0  0
   11.3363  -22.0387   25.4368 C   0  0  0  0  0  0  0  0  0  0  0  0
   10.6531  -22.2814   26.4954 N   0  0  0  0  0  0  0  0  0  0  0  0
   11.6356  -20.6847   25.0836 N   0  0  0  0  0  0  0  0  0  0  0  0
   12.2368  -20.3517   23.8127 C   0  0  0  0  0  0  0  0  0  0  0  0
   12.4003  -18.8090   23.7678 C   0  0  0  0  0  0  0  0  0  0  0  0
   13.0176  -18.4053   22.4583 C   0  0  0  0  0  0  0  0  0  0  0  0
   13.1506  -16.9366   22.3718 C   0  0  2  0  0  0  0  0  0  0  0  0
   13.5494  -16.4871   21.0447 N   0  0  0  0  0  0  0  0  0  0  0  0
   14.0466  -16.4042   23.4108 C   0  0  0  0  0  0  0  0  0  0  0  0
   15.3512  -16.0759   23.0267 O   0  0  0  0  0  0  0  0  0  0  0  0
   13.7569  -16.2187   24.5906 O   0  0  0  0  0  0  0  0  0  0  0  0
  1  2  1  0
  2  3  2  0
  2  4  1  0
  4  5  1  0
  5  6  1  0
  6  7  1  1
  8  6  1  0
  8 16  1  0
  9  8  2  0
 11 12  2  0
 11 10  1  0
 13 11  1  0
 14 13  1  0
 15 16  1  0
 15 14  1  1
 17 27  1  0
 17 15  1  0
 18 17  2  0
 20 19  1  0
 20 22  1  0
 21 20  2  0
 23 22  1  0
 24 23  1  0
 25 24  1  0
 26 27  1  0
 26 25  1  6
 28 26  1  0
 29 28  1  0
 30 28  2  0
M  END
$$$$
