QQR.pdb
     RDKit          3D

 30 29  0  0  1  0  0  0  0  0999 V2000
   15.5478  -22.9540   19.5609 N   0  0  0  0  0  0  0  0  0  0  0  0
   15.9300  -22.1047   18.4757 C   0  0  0  0  0  0  0  0  0  0  0  0
   16.6142  -22.6216   17.5605 O   0  0  0  0  0  0  0  0  0  0  0  0
   15.5582  -20.6734   18.3935 C   0  0  0  0  0  0  0  0  0  0  0  0
   14.6869  -20.3291   19.5551 C   0  0  0  0  0  0  0  0  0  0  0  0
   15.2952  -19.3812   20.5388 C   0  0  2  0  0  0  0  0  0  0  0  0
   16.6547  -19.0687   20.2309 N   0  0  0  0  0  0  0  0  0  0  0  0
   15.1722  -19.8032   21.9448 C   0  0  0  0  0  0  0  0  0  0  0  0
   14.2843  -19.3674   22.7273 O   0  0  0  0  0  0  0  0  0  0  0  0
   16.8621  -25.3412   23.7550 N   0  0  0  0  0  0  0  0  0  0  0  0
   16.3105  -24.9188   24.9950 C   0  0  0  0  0  0  0  0  0  0  0  0
   16.1711  -25.7318   25.9529 O   0  0  0  0  0  0  0  0  0  0  0  0
   15.9088  -23.4830   25.1064 C   0  0  0  0  0  0  0  0  0  0  0  0
   16.2135  -22.8293   23.7914 C   0  0  0  0  0  0  0  0  0  0  0  0
   15.9112  -21.3684   23.7615 C   0  0  2  0  0  0  0  0  0  0  0  0
   16.0902  -20.7495   22.4708 N   0  0  0  0  0  0  0  0  0  0  0  0
   16.6152  -20.6102   24.8373 C   0  0  0  0  0  0  0  0  0  0  0  0
   17.7544  -20.1088   24.6482 O   0  0  0  0  0  0  0  0  0  0  0  0
   13.1974  -20.6349   32.7707 N   0  0  0  0  0  0  0  0  0  0  0  0
   13.4667  -21.8208   32.0500 C   0  0  0  0  0  0  0  0  0  0  0  0
   13.0623  -22.9654   32.4658 N   0  0  0  0  0  0  0  0  0  0  0  0
   14.2106  -21.7340   30.8308 N   0  0  0  0  0  0  0  0  0  0  0  0
   14.5240  -20.4594   30.2270 C   0  0  0  0  0  0  0  0  0  0  0  0
   15.3911  -20.7422   28.9713 C   0  0  0  0  0  0  0  0  0  0  0  0
   15.8188  -19.4421   28.3506 C   0  0  0  0  0  0  0  0  0  0  0  0
   16.7055  -19.6800   27.1933 C   0  0  2  0  0  0  0  0  0  0  0  0
   16.0448  -20.4144   26.1226 N   0  0  0  0  0  0  0  0  0  0  0  0
   17.9655  -20.3282   27.5909 C   0  0  0  0  0  0  0  0  0  0  0  0
   19.0369  -19.4948   27.9296 O   0  0  0  0  0  0  0  0  0  0  0  0
   18.1679  -21.5386   27.6547 O   0  0  0  0  0  0  0  0  0  0  0  0
  1  2  1  0
  2  3  2  0
  2  4  1  0
  4  5  1  0
  5  6  1  0
  6  7  1  6
  8  6  1  0
  8 16  1  0
  9  8  2  0
 11 12  2  0
 11 10  1  0
 13 11  1  0
 14 13  1  0
 15 16  1  0
 15 14  1  6
 17 27  1  0
 17 15  1  0
 18 17  2  0
 20 19  1  0
 20 22  1  0
 21 20  2  0
 23 22  1  0
 24 23  1  0
 25 24  1  0
 26 27  1  0
 26 25  1  1
 28 26  1  0
 29 28  1  0
 30 28  2  0
M  END
$$$$
