QQR.pdb
     RDKit          3D

 30 29  0  0  1  0  0  0  0  0999 V2000
    9.7733  -17.1469   14.4497 N   0  0  0  0  0  0  0  0  0  0  0  0
   11.1982  -17.0728   14.3526 C   0  0  0  0  0  0  0  0  0  0  0  0
   11.7158  -17.4356   13.2694 O   0  0  0  0  0  0  0  0  0  0  0  0
   12.0645  -16.5960   15.4553 C   0  0  0  0  0  0  0  0  0  0  0  0
   11.2124  -16.2587   16.6330 C   0  0  0  0  0  0  0  0  0  0  0  0
   11.9610  -15.7722   17.8326 C   0  0  2  0  0  0  0  0  0  0  0  0
   13.3703  -15.7034   17.6090 N   0  0  0  0  0  0  0  0  0  0  0  0
   11.6744  -16.5171   19.0708 C   0  0  0  0  0  0  0  0  0  0  0  0
   10.5090  -16.8144   19.4504 O   0  0  0  0  0  0  0  0  0  0  0  0
   16.2869  -18.9483   21.5609 N   0  0  0  0  0  0  0  0  0  0  0  0
   15.4974  -19.9177   20.8844 C   0  0  0  0  0  0  0  0  0  0  0  0
   16.0301  -20.9396   20.3651 O   0  0  0  0  0  0  0  0  0  0  0  0
   14.0244  -19.6695   20.8196 C   0  0  0  0  0  0  0  0  0  0  0  0
   13.7464  -18.4178   21.5976 C   0  0  0  0  0  0  0  0  0  0  0  0
   12.5469  -17.6682   21.1226 C   0  0  2  0  0  0  0  0  0  0  0  0
   12.7502  -16.9332   19.8981 N   0  0  0  0  0  0  0  0  0  0  0  0
   11.9430  -16.8108   22.1848 C   0  0  0  0  0  0  0  0  0  0  0  0
   12.5526  -15.8101   22.6450 O   0  0  0  0  0  0  0  0  0  0  0  0
    8.0376  -11.6930   21.7049 N   0  0  0  0  0  0  0  0  0  0  0  0
    7.9699  -12.4352   20.5037 C   0  0  0  0  0  0  0  0  0  0  0  0
    8.3937  -11.9537   19.3924 N   0  0  0  0  0  0  0  0  0  0  0  0
    7.4115  -13.7522   20.5363 N   0  0  0  0  0  0  0  0  0  0  0  0
    7.3129  -14.4998   21.7688 C   0  0  0  0  0  0  0  0  0  0  0  0
    8.7465  -14.9565   22.1495 C   0  0  0  0  0  0  0  0  0  0  0  0
    8.6953  -15.7875   23.4007 C   0  0  0  0  0  0  0  0  0  0  0  0
   10.0447  -16.2607   23.7715 C   0  0  2  0  0  0  0  0  0  0  0  0
   10.6592  -17.0740   22.7308 N   0  0  0  0  0  0  0  0  0  0  0  0
   10.0453  -16.9575   25.0679 C   0  0  0  0  0  0  0  0  0  0  0  0
    9.7087  -16.2074   26.1998 O   0  0  0  0  0  0  0  0  0  0  0  0
   10.3143  -18.1422   25.2526 O   0  0  0  0  0  0  0  0  0  0  0  0
  1  2  1  0
  2  3  2  0
  2  4  1  0
  4  5  1  0
  5  6  1  0
  6  7  1  6
  8  6  1  0
  8 16  1  0
  9  8  2  0
 11 12  2  0
 11 10  1  0
 13 11  1  0
 14 13  1  0
 15 16  1  0
 15 14  1  1
 17 27  1  0
 17 15  1  0
 18 17  2  0
 20 19  1  0
 20 22  1  0
 21 20  2  0
 23 22  1  0
 24 23  1  0
 25 24  1  0
 26 27  1  0
 26 25  1  6
 28 26  1  0
 29 28  1  0
 30 28  2  0
M  END
$$$$
