QQR.pdb
     RDKit          3D

 30 29  0  0  1  0  0  0  0  0999 V2000
   13.4618  -19.8740   15.7808 N   0  0  0  0  0  0  0  0  0  0  0  0
   13.4840  -18.4867   16.1271 C   0  0  0  0  0  0  0  0  0  0  0  0
   14.2879  -17.7553   15.5014 O   0  0  0  0  0  0  0  0  0  0  0  0
   12.6154  -17.8954   17.1710 C   0  0  0  0  0  0  0  0  0  0  0  0
   11.8280  -18.9826   17.8227 C   0  0  0  0  0  0  0  0  0  0  0  0
   10.4188  -18.6194   18.1670 C   0  0  2  0  0  0  0  0  0  0  0  0
    9.6977  -18.0992   17.0489 N   0  0  0  0  0  0  0  0  0  0  0  0
   10.2896  -17.7175   19.3246 C   0  0  0  0  0  0  0  0  0  0  0  0
   10.9242  -17.8740   20.4032 O   0  0  0  0  0  0  0  0  0  0  0  0
    6.9534  -12.4445   19.3101 N   0  0  0  0  0  0  0  0  0  0  0  0
    7.5976  -12.2737   20.5657 C   0  0  0  0  0  0  0  0  0  0  0  0
    7.4083  -11.2311   21.2548 O   0  0  0  0  0  0  0  0  0  0  0  0
    8.4985  -13.3759   21.0229 C   0  0  0  0  0  0  0  0  0  0  0  0
    8.4645  -14.4467   19.9734 C   0  0  0  0  0  0  0  0  0  0  0  0
    9.2614  -15.6585   20.3243 C   0  0  2  0  0  0  0  0  0  0  0  0
    9.4100  -16.6061   19.2470 N   0  0  0  0  0  0  0  0  0  0  0  0
    8.7880  -16.3190   21.5764 C   0  0  0  0  0  0  0  0  0  0  0  0
    7.8183  -17.1218   21.5678 O   0  0  0  0  0  0  0  0  0  0  0  0
   12.9020  -18.9526   28.4835 N   0  0  0  0  0  0  0  0  0  0  0  0
   11.5650  -19.2625   28.8222 C   0  0  0  0  0  0  0  0  0  0  0  0
   11.2714  -20.3046   29.5106 N   0  0  0  0  0  0  0  0  0  0  0  0
   10.5207  -18.3896   28.3805 N   0  0  0  0  0  0  0  0  0  0  0  0
   10.7620  -17.3642   27.3917 C   0  0  0  0  0  0  0  0  0  0  0  0
    9.6795  -17.5188   26.2904 C   0  0  0  0  0  0  0  0  0  0  0  0
    9.9812  -16.5849   25.1522 C   0  0  0  0  0  0  0  0  0  0  0  0
    8.9921  -16.7445   24.0666 C   0  0  2  0  0  0  0  0  0  0  0  0
    9.3991  -16.0806   22.8354 N   0  0  0  0  0  0  0  0  0  0  0  0
    7.6454  -16.3226   24.4842 C   0  0  0  0  0  0  0  0  0  0  0  0
    6.8886  -17.2349   25.2272 O   0  0  0  0  0  0  0  0  0  0  0  0
    7.1188  -15.2390   24.2417 O   0  0  0  0  0  0  0  0  0  0  0  0
  1  2  1  0
  2  3  2  0
  2  4  1  0
  4  5  1  0
  5  6  1  0
  6  7  1  6
  8  6  1  0
  8 16  1  0
  9  8  2  0
 11 12  2  0
 11 10  1  0
 13 11  1  0
 14 13  1  0
 15 16  1  0
 15 14  1  6
 17 27  1  0
 17 15  1  0
 18 17  2  0
 20 19  1  0
 20 22  1  0
 21 20  2  0
 23 22  1  0
 24 23  1  0
 25 24  1  0
 26 27  1  0
 26 25  1  1
 28 26  1  0
 29 28  1  0
 30 28  2  0
M  END
$$$$
