YLP.pdb
     RDKit          3D

 28 29  0  0  1  0  0  0  0  0999 V2000
   11.2343  -14.1052   29.6178 O   0  0  0  0  0  0  0  0  0  0  0  0
   10.7192  -15.2663   29.0456 C   0  0  0  0  0  0  0  0  0  0  0  0
   10.7311  -15.4692   27.6807 C   0  0  0  0  0  0  0  0  0  0  0  0
   10.2208  -16.6199   27.1107 C   0  0  0  0  0  0  0  0  0  0  0  0
    9.6834  -17.5975   27.9180 C   0  0  0  0  0  0  0  0  0  0  0  0
    9.1370  -18.8307   27.3036 C   0  0  0  0  0  0  0  0  0  0  0  0
    7.6128  -18.7025   27.2412 C   0  0  2  0  0  0  0  0  0  0  0  0
    7.0362  -19.9514   26.8439 N   0  0  0  0  0  0  0  0  0  0  0  0
    7.3187  -17.6706   26.2231 C   0  0  0  0  0  0  0  0  0  0  0  0
    7.2093  -18.0616   25.0251 O   0  0  0  0  0  0  0  0  0  0  0  0
    9.6637  -17.4105   29.2861 C   0  0  0  0  0  0  0  0  0  0  0  0
   10.1806  -16.2474   29.8478 C   0  0  0  0  0  0  0  0  0  0  0  0
    7.5205  -12.0538   24.7674 C   0  0  0  0  0  0  0  0  0  0  0  0
    6.3373  -12.8605   25.1780 C   0  0  2  0  0  0  0  0  0  0  0  0
    5.3894  -11.9520   26.0135 C   0  0  0  0  0  0  0  0  0  0  0  0
    6.5209  -14.0731   25.9645 C   0  0  0  0  0  0  0  0  0  0  0  0
    6.8412  -15.3955   25.4088 C   0  0  2  0  0  0  0  0  0  0  0  0
    7.1619  -16.3112   26.5384 N   0  0  0  0  0  0  0  0  0  0  0  0
    7.9495  -15.4536   24.4650 C   0  0  0  0  0  0  0  0  0  0  0  0
    9.0821  -15.9663   24.8813 O   0  0  0  0  0  0  0  0  0  0  0  0
    8.0112  -15.0334   23.1284 N   0  0  0  0  0  0  0  0  0  0  0  0
    7.3483  -14.0653   22.3023 C   0  0  0  0  0  0  0  0  0  0  0  0
    6.8953  -14.9852   21.1444 C   0  0  0  0  0  0  0  0  0  0  0  0
    8.1877  -15.7248   20.8556 C   0  0  0  0  0  0  0  0  0  0  0  0
    8.9660  -15.6468   22.1437 C   0  0  1  0  0  0  0  0  0  0  0  0
   10.1308  -14.7495   22.0892 C   0  0  0  0  0  0  0  0  0  0  0  0
   10.1785  -13.6112   22.6272 O   0  0  0  0  0  0  0  0  0  0  0  0
   11.2967  -15.1311   21.4071 O   0  0  0  0  0  0  0  0  0  0  0  0
  2  1  1  0
  3  2  2  0
  4  3  1  0
  5  4  2  0
  5 11  1  0
  6  5  1  0
  7  6  1  0
  7  8  1  6
  9 18  1  0
  9  7  1  0
 10  9  2  0
 11 12  2  0
 12  2  1  0
 14 13  1  1
 14 15  1  0
 17 16  1  1
 16 14  1  0
 17 18  1  0
 19 17  1  0
 20 19  2  0
 21 19  1  0
 21 22  1  0
 23 22  1  0
 24 25  1  0
 24 23  1  0
 25 21  1  0
 25 26  1  6
 27 26  2  0
 28 26  1  0
M  END
$$$$
