YLP.pdb
     RDKit          3D

 28 29  0  0  1  0  0  0  0  0999 V2000
   12.6422  -23.7361   20.1530 O   0  0  0  0  0  0  0  0  0  0  0  0
   12.4868  -22.5093   20.7946 C   0  0  0  0  0  0  0  0  0  0  0  0
   11.2429  -21.9433   20.9860 C   0  0  0  0  0  0  0  0  0  0  0  0
   11.0862  -20.7266   21.6220 C   0  0  0  0  0  0  0  0  0  0  0  0
   12.1953  -20.0520   22.0814 C   0  0  0  0  0  0  0  0  0  0  0  0
   12.0238  -18.7473   22.7634 C   0  0  0  0  0  0  0  0  0  0  0  0
   11.7147  -17.6872   21.7031 C   0  0  2  0  0  0  0  0  0  0  0  0
   12.9097  -17.3502   20.9903 N   0  0  0  0  0  0  0  0  0  0  0  0
   11.2148  -16.4994   22.4291 C   0  0  0  0  0  0  0  0  0  0  0  0
   12.0819  -15.7080   22.9000 O   0  0  0  0  0  0  0  0  0  0  0  0
   13.4476  -20.6044   21.8981 C   0  0  0  0  0  0  0  0  0  0  0  0
   13.5922  -21.8301   21.2561 C   0  0  0  0  0  0  0  0  0  0  0  0
    8.4503  -12.7541   21.4023 C   0  0  0  0  0  0  0  0  0  0  0  0
    7.8214  -14.0325   21.8376 C   0  0  2  0  0  0  0  0  0  0  0  0
    6.2773  -13.8395   21.8545 C   0  0  0  0  0  0  0  0  0  0  0  0
    8.1641  -14.6083   23.1314 C   0  0  0  0  0  0  0  0  0  0  0  0
    9.4973  -15.1003   23.5063 C   0  0  2  0  0  0  0  0  0  0  0  0
    9.8473  -16.2328   22.6050 N   0  0  0  0  0  0  0  0  0  0  0  0
    9.6584  -15.5621   24.8785 C   0  0  0  0  0  0  0  0  0  0  0  0
   10.0839  -16.7879   25.0663 O   0  0  0  0  0  0  0  0  0  0  0  0
    9.4228  -14.8864   26.0848 N   0  0  0  0  0  0  0  0  0  0  0  0
    8.6287  -13.7758   26.5264 C   0  0  0  0  0  0  0  0  0  0  0  0
    9.7299  -12.9292   27.2067 C   0  0  0  0  0  0  0  0  0  0  0  0
   10.4057  -13.9862   28.0592 C   0  0  0  0  0  0  0  0  0  0  0  0
   10.0944  -15.2883   27.3674 C   0  0  1  0  0  0  0  0  0  0  0  0
    9.1304  -16.1361   28.0864 C   0  0  0  0  0  0  0  0  0  0  0  0
    7.9488  -16.3511   27.7057 O   0  0  0  0  0  0  0  0  0  0  0  0
    9.4925  -16.7751   29.2825 O   0  0  0  0  0  0  0  0  0  0  0  0
  2  1  1  0
  3  2  2  0
  4  3  1  0
  5  4  2  0
  5 11  1  0
  6  5  1  0
  7  6  1  0
  7  8  1  1
  9 18  1  0
  9  7  1  0
 10  9  2  0
 11 12  2  0
 12  2  1  0
 14 13  1  1
 14 15  1  0
 17 16  1  1
 16 14  1  0
 17 18  1  0
 19 17  1  0
 20 19  2  0
 21 19  1  0
 21 22  1  0
 23 22  1  0
 24 25  1  0
 24 23  1  0
 25 21  1  0
 25 26  1  1
 27 26  2  0
 28 26  1  0
M  END
$$$$
