YLP.pdb
     RDKit          3D

 28 29  0  0  1  0  0  0  0  0999 V2000
   10.1116  -20.5362   29.9074 O   0  0  0  0  0  0  0  0  0  0  0  0
    9.4259  -20.4155   28.7007 C   0  0  0  0  0  0  0  0  0  0  0  0
    8.7239  -21.4716   28.1566 C   0  0  0  0  0  0  0  0  0  0  0  0
    8.0430  -21.3543   26.9599 C   0  0  0  0  0  0  0  0  0  0  0  0
    8.0590  -20.1549   26.2835 C   0  0  0  0  0  0  0  0  0  0  0  0
    7.3276  -20.0323   25.0003 C   0  0  0  0  0  0  0  0  0  0  0  0
    5.9791  -19.3625   25.2773 C   0  0  2  0  0  0  0  0  0  0  0  0
    4.9417  -20.0472   24.5667 N   0  0  0  0  0  0  0  0  0  0  0  0
    6.0900  -17.9731   24.7824 C   0  0  0  0  0  0  0  0  0  0  0  0
    5.7790  -17.7682   23.5735 O   0  0  0  0  0  0  0  0  0  0  0  0
    8.7568  -19.0878   26.8142 C   0  0  0  0  0  0  0  0  0  0  0  0
    9.4383  -19.2186   28.0199 C   0  0  0  0  0  0  0  0  0  0  0  0
    8.1794  -12.6129   26.1428 C   0  0  0  0  0  0  0  0  0  0  0  0
    6.8352  -13.1291   25.7608 C   0  0  2  0  0  0  0  0  0  0  0  0
    5.7596  -12.3356   26.5577 C   0  0  0  0  0  0  0  0  0  0  0  0
    6.5147  -14.5372   25.9542 C   0  0  0  0  0  0  0  0  0  0  0  0
    6.6584  -15.5808   24.9293 C   0  0  2  0  0  0  0  0  0  0  0  0
    6.5171  -16.9073   25.5910 N   0  0  0  0  0  0  0  0  0  0  0  0
    7.9089  -15.5912   24.1820 C   0  0  0  0  0  0  0  0  0  0  0  0
    8.8204  -16.4689   24.5254 O   0  0  0  0  0  0  0  0  0  0  0  0
    8.3198  -14.7835   23.1115 N   0  0  0  0  0  0  0  0  0  0  0  0
    8.0557  -13.4544   22.6396 C   0  0  0  0  0  0  0  0  0  0  0  0
    7.6503  -13.7768   21.1822 C   0  0  0  0  0  0  0  0  0  0  0  0
    8.7838  -14.6995   20.7765 C   0  0  0  0  0  0  0  0  0  0  0  0
    9.2935  -15.2690   22.0753 C   0  0  1  0  0  0  0  0  0  0  0  0
   10.6120  -14.7567   22.4804 C   0  0  0  0  0  0  0  0  0  0  0  0
   10.7911  -13.8474   23.3340 O   0  0  0  0  0  0  0  0  0  0  0  0
   11.7864  -15.2760   21.9136 O   0  0  0  0  0  0  0  0  0  0  0  0
  2  1  1  0
  3  2  2  0
  4  3  1  0
  5  4  2  0
  5 11  1  0
  6  5  1  0
  7  6  1  0
  7  8  1  6
  9 18  1  0
  9  7  1  0
 10  9  2  0
 11 12  2  0
 12  2  1  0
 14 13  1  1
 14 15  1  0
 17 16  1  1
 16 14  1  0
 17 18  1  0
 19 17  1  0
 20 19  2  0
 21 19  1  0
 21 22  1  0
 23 22  1  0
 24 25  1  0
 24 23  1  0
 25 21  1  0
 25 26  1  1
 27 26  2  0
 28 26  1  0
M  END
$$$$
