YLP.pdb
     RDKit          3D

 28 29  0  0  1  0  0  0  0  0999 V2000
    7.9313  -21.7401   18.5132 O   0  0  0  0  0  0  0  0  0  0  0  0
    8.3267  -20.7443   19.4036 C   0  0  0  0  0  0  0  0  0  0  0  0
    9.6016  -20.2167   19.3821 C   0  0  0  0  0  0  0  0  0  0  0  0
    9.9962  -19.2289   20.2643 C   0  0  0  0  0  0  0  0  0  0  0  0
    9.1004  -18.7509   21.1944 C   0  0  0  0  0  0  0  0  0  0  0  0
    9.5266  -17.6914   22.1390 C   0  0  0  0  0  0  0  0  0  0  0  0
    8.6382  -16.4643   21.9183 C   0  0  2  0  0  0  0  0  0  0  0  0
    9.0251  -15.7950   20.7132 N   0  0  0  0  0  0  0  0  0  0  0  0
    8.8578  -15.5720   23.0774 C   0  0  0  0  0  0  0  0  0  0  0  0
    9.9485  -14.9323   23.1102 O   0  0  0  0  0  0  0  0  0  0  0  0
    7.8204  -19.2681   21.2295 C   0  0  0  0  0  0  0  0  0  0  0  0
    7.4353  -20.2624   20.3359 C   0  0  0  0  0  0  0  0  0  0  0  0
    7.3100  -11.5441   25.2004 C   0  0  0  0  0  0  0  0  0  0  0  0
    6.5019  -12.7789   25.4045 C   0  0  2  0  0  0  0  0  0  0  0  0
    5.3753  -12.4646   26.4310 C   0  0  0  0  0  0  0  0  0  0  0  0
    7.1434  -13.9980   25.8793 C   0  0  0  0  0  0  0  0  0  0  0  0
    8.3421  -14.6045   25.2832 C   0  0  2  0  0  0  0  0  0  0  0  0
    7.9189  -15.4189   24.1105 N   0  0  0  0  0  0  0  0  0  0  0  0
    9.1382  -15.4613   26.1516 C   0  0  0  0  0  0  0  0  0  0  0  0
    9.3321  -16.7026   25.7766 O   0  0  0  0  0  0  0  0  0  0  0  0
    9.7576  -15.1688   27.3755 N   0  0  0  0  0  0  0  0  0  0  0  0
    9.6609  -14.1510   28.3824 C   0  0  0  0  0  0  0  0  0  0  0  0
   11.1451  -13.7216   28.4546 C   0  0  0  0  0  0  0  0  0  0  0  0
   11.8207  -15.0754   28.5628 C   0  0  0  0  0  0  0  0  0  0  0  0
   10.8388  -16.0401   27.9496 C   0  0  1  0  0  0  0  0  0  0  0  0
   10.1783  -16.9254   28.9217 C   0  0  0  0  0  0  0  0  0  0  0  0
   10.7491  -17.8737   29.5236 O   0  0  0  0  0  0  0  0  0  0  0  0
    8.8227  -16.7519   29.2416 O   0  0  0  0  0  0  0  0  0  0  0  0
  2  1  1  0
  3  2  2  0
  4  3  1  0
  5  4  2  0
  5 11  1  0
  6  5  1  0
  7  6  1  0
  7  8  1  6
  9 18  1  0
  9  7  1  0
 10  9  2  0
 11 12  2  0
 12  2  1  0
 14 13  1  1
 14 15  1  0
 17 16  1  1
 16 14  1  0
 17 18  1  0
 19 17  1  0
 20 19  2  0
 21 19  1  0
 21 22  1  0
 23 22  1  0
 24 25  1  0
 24 23  1  0
 25 21  1  0
 25 26  1  1
 27 26  2  0
 28 26  1  0
M  END
$$$$
