YLP.pdb
     RDKit          3D

 28 29  0  0  1  0  0  0  0  0999 V2000
   11.8978  -20.0162   30.0381 O   0  0  0  0  0  0  0  0  0  0  0  0
   10.9905  -19.9837   28.9814 C   0  0  0  0  0  0  0  0  0  0  0  0
   10.8711  -18.8800   28.1617 C   0  0  0  0  0  0  0  0  0  0  0  0
    9.9719  -18.8452   27.1129 C   0  0  0  0  0  0  0  0  0  0  0  0
    9.1683  -19.9367   26.8704 C   0  0  0  0  0  0  0  0  0  0  0  0
    8.2051  -19.8965   25.7446 C   0  0  0  0  0  0  0  0  0  0  0  0
    6.8914  -19.2999   26.2565 C   0  0  2  0  0  0  0  0  0  0  0  0
    5.8005  -20.1611   25.9131 N   0  0  0  0  0  0  0  0  0  0  0  0
    6.7298  -17.9950   25.5791 C   0  0  0  0  0  0  0  0  0  0  0  0
    6.1184  -17.9955   24.4718 O   0  0  0  0  0  0  0  0  0  0  0  0
    9.2751  -21.0496   27.6811 C   0  0  0  0  0  0  0  0  0  0  0  0
   10.1843  -21.0721   28.7339 C   0  0  0  0  0  0  0  0  0  0  0  0
    7.9889  -11.9900   26.2747 C   0  0  0  0  0  0  0  0  0  0  0  0
    7.0915  -13.0152   25.6723 C   0  0  2  0  0  0  0  0  0  0  0  0
    5.6177  -12.5610   25.8803 C   0  0  0  0  0  0  0  0  0  0  0  0
    7.1509  -14.3958   26.1343 C   0  0  0  0  0  0  0  0  0  0  0  0
    7.0822  -15.5777   25.2633 C   0  0  2  0  0  0  0  0  0  0  0  0
    7.2201  -16.7925   26.1135 N   0  0  0  0  0  0  0  0  0  0  0  0
    8.0789  -15.6644   24.2044 C   0  0  0  0  0  0  0  0  0  0  0  0
    9.0196  -16.5702   24.3214 O   0  0  0  0  0  0  0  0  0  0  0  0
    8.2074  -14.9075   23.0306 N   0  0  0  0  0  0  0  0  0  0  0  0
    7.7212  -13.6519   22.5346 C   0  0  0  0  0  0  0  0  0  0  0  0
    7.1084  -14.1263   21.1960 C   0  0  0  0  0  0  0  0  0  0  0  0
    8.2495  -14.9630   20.6495 C   0  0  0  0  0  0  0  0  0  0  0  0
    9.0352  -15.3757   21.8674 C   0  0  1  0  0  0  0  0  0  0  0  0
   10.3393  -14.7068   21.9971 C   0  0  0  0  0  0  0  0  0  0  0  0
   10.5908  -13.7915   22.8257 O   0  0  0  0  0  0  0  0  0  0  0  0
   11.4144  -15.0687   21.1705 O   0  0  0  0  0  0  0  0  0  0  0  0
  2  1  1  0
  3  2  2  0
  4  3  1  0
  5  4  2  0
  5 11  1  0
  6  5  1  0
  7  6  1  0
  7  8  1  6
  9 18  1  0
  9  7  1  0
 10  9  2  0
 11 12  2  0
 12  2  1  0
 14 13  1  1
 14 15  1  0
 17 16  1  1
 16 14  1  0
 17 18  1  0
 19 17  1  0
 20 19  2  0
 21 19  1  0
 21 22  1  0
 23 22  1  0
 24 25  1  0
 24 23  1  0
 25 21  1  0
 25 26  1  6
 27 26  2  0
 28 26  1  0
M  END
$$$$
