YLP.pdb
     RDKit          3D

 28 29  0  0  1  0  0  0  0  0999 V2000
    9.2542  -22.0742   18.1352 O   0  0  0  0  0  0  0  0  0  0  0  0
    9.4592  -21.1241   19.1332 C   0  0  0  0  0  0  0  0  0  0  0  0
    8.4516  -20.7543   20.0006 C   0  0  0  0  0  0  0  0  0  0  0  0
    8.6524  -19.8121   20.9913 C   0  0  0  0  0  0  0  0  0  0  0  0
    9.8883  -19.2198   21.1254 C   0  0  0  0  0  0  0  0  0  0  0  0
   10.1006  -18.2098   22.1891 C   0  0  0  0  0  0  0  0  0  0  0  0
    9.6762  -16.8428   21.6461 C   0  0  2  0  0  0  0  0  0  0  0  0
   10.6539  -16.3650   20.7156 N   0  0  0  0  0  0  0  0  0  0  0  0
    9.6065  -15.9314   22.8090 C   0  0  0  0  0  0  0  0  0  0  0  0
   10.6568  -15.2882   23.0974 O   0  0  0  0  0  0  0  0  0  0  0  0
   10.9078  -19.5785   20.2656 C   0  0  0  0  0  0  0  0  0  0  0  0
   10.6929  -20.5284   19.2722 C   0  0  0  0  0  0  0  0  0  0  0  0
    5.3868  -13.3173   26.4783 C   0  0  0  0  0  0  0  0  0  0  0  0
    6.7920  -13.3281   25.9839 C   0  0  2  0  0  0  0  0  0  0  0  0
    7.1594  -11.8898   25.5167 C   0  0  0  0  0  0  0  0  0  0  0  0
    7.1711  -14.2107   24.8884 C   0  0  0  0  0  0  0  0  0  0  0  0
    8.5134  -14.7755   24.6895 C   0  0  2  0  0  0  0  0  0  0  0  0
    8.4436  -15.7643   23.5783 N   0  0  0  0  0  0  0  0  0  0  0  0
    9.1155  -15.4419   25.8365 C   0  0  0  0  0  0  0  0  0  0  0  0
    9.4038  -16.7159   25.7227 O   0  0  0  0  0  0  0  0  0  0  0  0
    9.4514  -14.9274   27.0972 N   0  0  0  0  0  0  0  0  0  0  0  0
    9.0503  -13.8215   27.9188 C   0  0  0  0  0  0  0  0  0  0  0  0
   10.4357  -13.1898   28.1907 C   0  0  0  0  0  0  0  0  0  0  0  0
   11.2242  -14.4177   28.6046 C   0  0  0  0  0  0  0  0  0  0  0  0
   10.4920  -15.5714   27.9690 C   0  0  1  0  0  0  0  0  0  0  0  0
    9.7596  -16.4183   28.9236 C   0  0  0  0  0  0  0  0  0  0  0  0
   10.3056  -17.2096   29.7379 O   0  0  0  0  0  0  0  0  0  0  0  0
    8.3574  -16.3869   28.9784 O   0  0  0  0  0  0  0  0  0  0  0  0
  2  1  1  0
  3  2  2  0
  4  3  1  0
  5  4  2  0
  5 11  1  0
  6  5  1  0
  7  6  1  0
  7  8  1  6
  9 18  1  0
  9  7  1  0
 10  9  2  0
 11 12  2  0
 12  2  1  0
 14 13  1  6
 14 15  1  0
 17 16  1  1
 16 14  1  0
 17 18  1  0
 19 17  1  0
 20 19  2  0
 21 19  1  0
 21 22  1  0
 23 22  1  0
 24 25  1  0
 24 23  1  0
 25 21  1  0
 25 26  1  1
 27 26  2  0
 28 26  1  0
M  END
$$$$
