YLP.pdb
     RDKit          3D

 28 29  0  0  1  0  0  0  0  0999 V2000
   15.2621  -21.4601   26.5800 O   0  0  0  0  0  0  0  0  0  0  0  0
   14.1770  -20.8892   25.9187 C   0  0  0  0  0  0  0  0  0  0  0  0
   12.8763  -21.1556   26.2951 C   0  0  0  0  0  0  0  0  0  0  0  0
   11.7983  -20.5905   25.6408 C   0  0  0  0  0  0  0  0  0  0  0  0
   12.0169  -19.7367   24.5828 C   0  0  0  0  0  0  0  0  0  0  0  0
   10.8585  -19.1321   23.8832 C   0  0  0  0  0  0  0  0  0  0  0  0
   10.5846  -17.7596   24.5036 C   0  0  2  0  0  0  0  0  0  0  0  0
   10.0903  -17.9196   25.8378 N   0  0  0  0  0  0  0  0  0  0  0  0
    9.5519  -17.1163   23.6625 C   0  0  0  0  0  0  0  0  0  0  0  0
    8.3449  -17.3781   23.9356 O   0  0  0  0  0  0  0  0  0  0  0  0
   13.3124  -19.4593   24.1933 C   0  0  0  0  0  0  0  0  0  0  0  0
   14.3893  -20.0346   24.8601 C   0  0  0  0  0  0  0  0  0  0  0  0
    8.8009  -12.7242   19.3665 C   0  0  0  0  0  0  0  0  0  0  0  0
    8.2014  -13.7651   20.2477 C   0  0  2  0  0  0  0  0  0  0  0  0
    7.0905  -13.0985   21.1098 C   0  0  0  0  0  0  0  0  0  0  0  0
    9.0433  -14.4995   21.1830 C   0  0  0  0  0  0  0  0  0  0  0  0
    8.7328  -15.8281   21.7294 C   0  0  2  0  0  0  0  0  0  0  0  0
    9.8632  -16.2495   22.6024 N   0  0  0  0  0  0  0  0  0  0  0  0
    8.5021  -16.8921   20.7614 C   0  0  0  0  0  0  0  0  0  0  0  0
    9.4791  -17.7366   20.5351 O   0  0  0  0  0  0  0  0  0  0  0  0
    7.3612  -17.1757   19.9965 N   0  0  0  0  0  0  0  0  0  0  0  0
    6.0662  -16.5932   19.7901 C   0  0  0  0  0  0  0  0  0  0  0  0
    5.1814  -17.8269   20.0858 C   0  0  0  0  0  0  0  0  0  0  0  0
    5.8751  -18.8757   19.2375 C   0  0  0  0  0  0  0  0  0  0  0  0
    7.2873  -18.3712   19.0893 C   0  0  1  0  0  0  0  0  0  0  0  0
    7.6129  -17.8823   17.7402 C   0  0  0  0  0  0  0  0  0  0  0  0
    7.7474  -16.6669   17.4365 O   0  0  0  0  0  0  0  0  0  0  0  0
    7.7981  -18.7817   16.6786 O   0  0  0  0  0  0  0  0  0  0  0  0
  2  1  1  0
  3  2  2  0
  4  3  1  0
  5  4  2  0
  5 11  1  0
  6  5  1  0
  7  6  1  0
  7  8  1  1
  9 18  1  0
  9  7  1  0
 10  9  2  0
 11 12  2  0
 12  2  1  0
 14 13  1  1
 14 15  1  0
 17 16  1  6
 16 14  1  0
 17 18  1  0
 19 17  1  0
 20 19  2  0
 21 19  1  0
 21 22  1  0
 23 22  1  0
 24 25  1  0
 24 23  1  0
 25 21  1  0
 25 26  1  6
 27 26  2  0
 28 26  1  0
M  END
$$$$
