YLP.pdb
     RDKit          3D

 28 29  0  0  1  0  0  0  0  0999 V2000
    8.3201  -21.7954   18.6336 O   0  0  0  0  0  0  0  0  0  0  0  0
    8.7267  -20.8198   19.5412 C   0  0  0  0  0  0  0  0  0  0  0  0
    8.2229  -19.5357   19.4999 C   0  0  0  0  0  0  0  0  0  0  0  0
    8.6247  -18.5663   20.3990 C   0  0  0  0  0  0  0  0  0  0  0  0
    9.5528  -18.8797   21.3667 C   0  0  0  0  0  0  0  0  0  0  0  0
    9.9815  -17.8377   22.3297 C   0  0  0  0  0  0  0  0  0  0  0  0
    9.2728  -16.5293   21.9699 C   0  0  2  0  0  0  0  0  0  0  0  0
    9.9370  -15.9049   20.8660 N   0  0  0  0  0  0  0  0  0  0  0  0
    9.3631  -15.6601   23.1633 C   0  0  0  0  0  0  0  0  0  0  0  0
   10.4192  -14.9768   23.2967 O   0  0  0  0  0  0  0  0  0  0  0  0
   10.0670  -20.1602   21.4221 C   0  0  0  0  0  0  0  0  0  0  0  0
    9.6545  -21.1273   20.5111 C   0  0  0  0  0  0  0  0  0  0  0  0
    7.3687  -11.7923   25.0779 C   0  0  0  0  0  0  0  0  0  0  0  0
    6.6438  -13.0752   25.2970 C   0  0  2  0  0  0  0  0  0  0  0  0
    5.4562  -12.8087   26.2668 C   0  0  0  0  0  0  0  0  0  0  0  0
    7.3510  -14.2267   25.8416 C   0  0  0  0  0  0  0  0  0  0  0  0
    8.6258  -14.7497   25.3301 C   0  0  2  0  0  0  0  0  0  0  0  0
    8.3413  -15.5737   24.1229 N   0  0  0  0  0  0  0  0  0  0  0  0
    9.4092  -15.5663   26.2476 C   0  0  0  0  0  0  0  0  0  0  0  0
    9.7363  -16.7765   25.8636 O   0  0  0  0  0  0  0  0  0  0  0  0
    9.8916  -15.2624   27.5290 N   0  0  0  0  0  0  0  0  0  0  0  0
    9.6171  -14.2916   28.5494 C   0  0  0  0  0  0  0  0  0  0  0  0
   11.0447  -13.7370   28.7647 C   0  0  0  0  0  0  0  0  0  0  0  0
   11.8275  -15.0294   28.8974 C   0  0  0  0  0  0  0  0  0  0  0  0
   10.9930  -16.0549   28.1742 C   0  0  1  0  0  0  0  0  0  0  0  0
   10.3333  -17.0269   29.0602 C   0  0  0  0  0  0  0  0  0  0  0  0
    9.0920  -17.0698   29.2714 O   0  0  0  0  0  0  0  0  0  0  0  0
   11.0839  -17.9962   29.7438 O   0  0  0  0  0  0  0  0  0  0  0  0
  2  1  1  0
  3  2  2  0
  4  3  1  0
  5  4  2  0
  5 11  1  0
  6  5  1  0
  7  6  1  0
  7  8  1  6
  9 18  1  0
  9  7  1  0
 10  9  2  0
 11 12  2  0
 12  2  1  0
 14 13  1  1
 14 15  1  0
 17 16  1  1
 16 14  1  0
 17 18  1  0
 19 17  1  0
 20 19  2  0
 21 19  1  0
 21 22  1  0
 23 22  1  0
 24 25  1  0
 24 23  1  0
 25 21  1  0
 25 26  1  1
 27 26  2  0
 28 26  1  0
M  END
$$$$
