YLP.pdb
     RDKit          3D

 28 29  0  0  1  0  0  0  0  0999 V2000
    7.7833  -21.5755   18.6906 O   0  0  0  0  0  0  0  0  0  0  0  0
    8.3132  -20.6022   19.5348 C   0  0  0  0  0  0  0  0  0  0  0  0
    7.8040  -20.3829   20.7985 C   0  0  0  0  0  0  0  0  0  0  0  0
    8.3279  -19.4181   21.6377 C   0  0  0  0  0  0  0  0  0  0  0  0
    9.3872  -18.6488   21.2110 C   0  0  0  0  0  0  0  0  0  0  0  0
    9.9470  -17.6150   22.1136 C   0  0  0  0  0  0  0  0  0  0  0  0
    9.1376  -16.3283   21.9317 C   0  0  2  0  0  0  0  0  0  0  0  0
    9.6704  -15.5695   20.8407 N   0  0  0  0  0  0  0  0  0  0  0  0
    9.2784  -15.5615   23.1887 C   0  0  0  0  0  0  0  0  0  0  0  0
   10.3640  -14.9354   23.3602 O   0  0  0  0  0  0  0  0  0  0  0  0
    9.9089  -18.8553   19.9491 C   0  0  0  0  0  0  0  0  0  0  0  0
    9.3725  -19.8298   19.1136 C   0  0  0  0  0  0  0  0  0  0  0  0
    7.4168  -11.7554   25.1824 C   0  0  0  0  0  0  0  0  0  0  0  0
    6.6434  -13.0059   25.4220 C   0  0  2  0  0  0  0  0  0  0  0  0
    5.5093  -12.6943   26.4411 C   0  0  0  0  0  0  0  0  0  0  0  0
    7.3186  -14.1930   25.9294 C   0  0  0  0  0  0  0  0  0  0  0  0
    8.5787  -14.7343   25.4009 C   0  0  2  0  0  0  0  0  0  0  0  0
    8.2723  -15.5099   24.1672 N   0  0  0  0  0  0  0  0  0  0  0  0
    9.3382  -15.6022   26.2909 C   0  0  0  0  0  0  0  0  0  0  0  0
    9.5640  -16.8333   25.9002 O   0  0  0  0  0  0  0  0  0  0  0  0
    9.8908  -15.3305   27.5510 N   0  0  0  0  0  0  0  0  0  0  0  0
    9.6747  -14.3852   28.6086 C   0  0  0  0  0  0  0  0  0  0  0  0
   11.1132  -13.8370   28.7588 C   0  0  0  0  0  0  0  0  0  0  0  0
   11.8994  -15.1329   28.8163 C   0  0  0  0  0  0  0  0  0  0  0  0
   11.0244  -16.1396   28.1150 C   0  0  1  0  0  0  0  0  0  0  0  0
   10.4124  -17.1328   29.0116 C   0  0  0  0  0  0  0  0  0  0  0  0
   11.0465  -18.0528   29.5938 O   0  0  0  0  0  0  0  0  0  0  0  0
    9.0340  -17.1053   29.2753 O   0  0  0  0  0  0  0  0  0  0  0  0
  2  1  1  0
  3  2  2  0
  4  3  1  0
  5  4  2  0
  5 11  1  0
  6  5  1  0
  7  6  1  0
  7  8  1  6
  9 18  1  0
  9  7  1  0
 10  9  2  0
 11 12  2  0
 12  2  1  0
 14 13  1  1
 14 15  1  0
 17 16  1  1
 16 14  1  0
 17 18  1  0
 19 17  1  0
 20 19  2  0
 21 19  1  0
 21 22  1  0
 23 22  1  0
 24 25  1  0
 24 23  1  0
 25 21  1  0
 25 26  1  1
 27 26  2  0
 28 26  1  0
M  END
$$$$
