YLP.pdb
     RDKit          3D

 28 29  0  0  1  0  0  0  0  0999 V2000
   11.4791  -13.9158   29.8808 O   0  0  0  0  0  0  0  0  0  0  0  0
   10.9654  -14.9733   29.1333 C   0  0  0  0  0  0  0  0  0  0  0  0
   10.8775  -14.9136   27.7575 C   0  0  0  0  0  0  0  0  0  0  0  0
   10.3683  -15.9611   27.0139 C   0  0  0  0  0  0  0  0  0  0  0  0
    9.9340  -17.1006   27.6535 C   0  0  0  0  0  0  0  0  0  0  0  0
    9.3886  -18.2225   26.8531 C   0  0  0  0  0  0  0  0  0  0  0  0
    7.8615  -18.1145   26.8515 C   0  0  2  0  0  0  0  0  0  0  0  0
    7.2844  -19.3944   26.5713 N   0  0  0  0  0  0  0  0  0  0  0  0
    7.5083  -17.1616   25.7767 C   0  0  0  0  0  0  0  0  0  0  0  0
    6.8151  -17.6094   24.8181 O   0  0  0  0  0  0  0  0  0  0  0  0
   10.0149  -17.1767   29.0300 C   0  0  0  0  0  0  0  0  0  0  0  0
   10.5295  -16.1152   29.7674 C   0  0  0  0  0  0  0  0  0  0  0  0
    5.4904  -12.9696   26.4364 C   0  0  0  0  0  0  0  0  0  0  0  0
    6.9696  -13.0169   26.2655 C   0  0  2  0  0  0  0  0  0  0  0  0
    7.5240  -11.5674   26.3813 C   0  0  0  0  0  0  0  0  0  0  0  0
    7.5437  -13.5657   25.0440 C   0  0  0  0  0  0  0  0  0  0  0  0
    7.4691  -14.9768   24.6398 C   0  0  2  0  0  0  0  0  0  0  0  0
    7.9077  -15.8153   25.7896 N   0  0  0  0  0  0  0  0  0  0  0  0
    8.2634  -15.3649   23.4819 C   0  0  0  0  0  0  0  0  0  0  0  0
    9.1736  -16.2940   23.6472 O   0  0  0  0  0  0  0  0  0  0  0  0
    8.2169  -14.8894   22.1633 N   0  0  0  0  0  0  0  0  0  0  0  0
    7.6888  -13.7432   21.4803 C   0  0  0  0  0  0  0  0  0  0  0  0
    6.8519  -14.4572   20.3931 C   0  0  0  0  0  0  0  0  0  0  0  0
    7.8651  -15.4614   19.8777 C   0  0  0  0  0  0  0  0  0  0  0  0
    8.8294  -15.6487   21.0206 C   0  0  1  0  0  0  0  0  0  0  0  0
   10.1541  -15.0497   20.7942 C   0  0  0  0  0  0  0  0  0  0  0  0
   11.0101  -15.4991   19.9862 O   0  0  0  0  0  0  0  0  0  0  0  0
   10.5487  -13.8996   21.4955 O   0  0  0  0  0  0  0  0  0  0  0  0
  2  1  1  0
  3  2  2  0
  4  3  1  0
  5  4  2  0
  5 11  1  0
  6  5  1  0
  7  6  1  0
  7  8  1  6
  9 18  1  0
  9  7  1  0
 10  9  2  0
 11 12  2  0
 12  2  1  0
 14 13  1  6
 14 15  1  0
 17 16  1  1
 16 14  1  0
 17 18  1  0
 19 17  1  0
 20 19  2  0
 21 19  1  0
 21 22  1  0
 23 22  1  0
 24 25  1  0
 24 23  1  0
 25 21  1  0
 25 26  1  6
 27 26  2  0
 28 26  1  0
M  END
$$$$
