WMI.pdb
     RDKit          3D

 31 32  0  0  1  0  0  0  0  0999 V2000
    6.2248  -18.6546   24.4770 N   0  0  0  0  0  0  0  0  0  0  0  0
    6.7290  -17.3056   24.3800 C   0  0  1  0  0  0  0  0  0  0  0  0
    7.0395  -16.7464   25.7512 C   0  0  0  0  0  0  0  0  0  0  0  0
    6.1609  -15.5837   26.0132 C   0  0  0  0  0  0  0  0  0  0  0  0
    4.8578  -15.6679   26.4354 C   0  0  0  0  0  0  0  0  0  0  0  0
    4.3507  -14.4077   26.5757 N   0  0  0  0  0  0  0  0  0  0  0  0
    5.3157  -13.5283   26.2480 C   0  0  0  0  0  0  0  0  0  0  0  0
    5.2904  -12.1544   26.2303 C   0  0  0  0  0  0  0  0  0  0  0  0
    6.4338  -11.4857   25.8485 C   0  0  0  0  0  0  0  0  0  0  0  0
    7.5940  -12.1613   25.4866 C   0  0  0  0  0  0  0  0  0  0  0  0
    7.5868  -13.5443   25.5149 C   0  0  0  0  0  0  0  0  0  0  0  0
    6.4590  -14.2464   25.8923 C   0  0  0  0  0  0  0  0  0  0  0  0
    7.9060  -17.2831   23.4913 C   0  0  0  0  0  0  0  0  0  0  0  0
    8.6944  -18.2510   23.3601 O   0  0  0  0  0  0  0  0  0  0  0  0
    8.9352  -11.7097   20.2733 C   0  0  0  0  0  0  0  0  0  0  0  0
    8.2817  -13.1058   19.3187 S   0  0  0  0  0  0  0  0  0  0  0  0
    8.2562  -14.6227   20.3195 C   0  0  0  0  0  0  0  0  0  0  0  0
    9.5301  -14.7914   21.1128 C   0  0  0  0  0  0  0  0  0  0  0  0
    9.4166  -15.9872   21.9851 C   0  0  2  0  0  0  0  0  0  0  0  0
    8.2174  -16.1410   22.7197 N   0  0  0  0  0  0  0  0  0  0  0  0
   10.5618  -16.1058   22.9337 C   0  0  0  0  0  0  0  0  0  0  0  0
   11.7037  -16.2482   22.3938 O   0  0  0  0  0  0  0  0  0  0  0  0
   12.1248  -14.5219   28.6670 C   0  0  0  0  0  0  0  0  0  0  0  0
   12.4464  -15.3845   27.4634 C   0  0  0  0  0  0  0  0  0  0  0  0
   11.2637  -15.4782   26.5274 C   0  0  2  0  0  0  0  0  0  0  0  0
   10.1244  -16.0800   27.2752 C   0  0  0  0  0  0  0  0  0  0  0  0
   11.5931  -16.1194   25.2280 C   0  0  2  0  0  0  0  0  0  0  0  0
   10.4288  -16.0676   24.3309 N   0  0  0  0  0  0  0  0  0  0  0  0
   12.0659  -17.5020   25.2872 C   0  0  0  0  0  0  0  0  0  0  0  0
   11.4541  -18.4939   24.8194 O   0  0  0  0  0  0  0  0  0  0  0  0
   13.2825  -17.7648   25.9019 O   0  0  0  0  0  0  0  0  0  0  0  0
  2  1  1  1
  2  3  1  0
  4  3  1  0
  5  4  2  0
  6  5  1  0
  7  6  1  0
  7 12  2  0
  8  7  1  0
  9  8  2  0
  9 10  1  0
 10 11  2  0
 11 12  1  0
 12  4  1  0
 13 20  1  0
 13  2  1  0
 14 13  2  0
 16 15  1  0
 17 16  1  0
 18 17  1  0
 19 18  1  1
 19 20  1  0
 21 19  1  0
 22 21  2  0
 23 24  1  0
 24 25  1  0
 25 26  1  1
 27 25  1  0
 27 28  1  6
 28 21  1  0
 29 31  1  0
 29 27  1  0
 30 29  2  0
M  END
$$$$
