WMI.pdb
     RDKit          3D

 31 32  0  0  1  0  0  0  0  0999 V2000
    6.1895  -18.2100   25.0778 N   0  0  0  0  0  0  0  0  0  0  0  0
    6.7946  -16.9400   24.7545 C   0  0  1  0  0  0  0  0  0  0  0  0
    7.1265  -16.1656   26.0113 C   0  0  0  0  0  0  0  0  0  0  0  0
    6.1591  -15.0559   26.1691 C   0  0  0  0  0  0  0  0  0  0  0  0
    4.8379  -15.2126   26.5060 C   0  0  0  0  0  0  0  0  0  0  0  0
    4.2425  -13.9849   26.5638 N   0  0  0  0  0  0  0  0  0  0  0  0
    5.1694  -13.0547   26.2680 C   0  0  0  0  0  0  0  0  0  0  0  0
    5.0573  -11.6870   26.1961 C   0  0  0  0  0  0  0  0  0  0  0  0
    6.1790  -10.9568   25.8664 C   0  0  0  0  0  0  0  0  0  0  0  0
    7.4025  -11.5654   25.6091 C   0  0  0  0  0  0  0  0  0  0  0  0
    7.4822  -12.9440   25.6898 C   0  0  0  0  0  0  0  0  0  0  0  0
    6.3783  -13.7066   26.0174 C   0  0  0  0  0  0  0  0  0  0  0  0
    7.9825  -17.1623   23.9088 C   0  0  0  0  0  0  0  0  0  0  0  0
    8.7798  -18.1181   24.0707 O   0  0  0  0  0  0  0  0  0  0  0  0
    8.2566  -11.4113   20.1203 C   0  0  0  0  0  0  0  0  0  0  0  0
    9.0532  -13.0027   19.7733 S   0  0  0  0  0  0  0  0  0  0  0  0
    9.1158  -14.0377   21.2660 C   0  0  0  0  0  0  0  0  0  0  0  0
    9.6561  -15.4163   20.9689 C   0  0  0  0  0  0  0  0  0  0  0  0
    9.5453  -16.2644   22.1822 C   0  0  2  0  0  0  0  0  0  0  0  0
    8.2948  -16.2884   22.8432 N   0  0  0  0  0  0  0  0  0  0  0  0
   10.5986  -15.9491   23.1905 C   0  0  0  0  0  0  0  0  0  0  0  0
   11.5493  -15.2155   22.7737 O   0  0  0  0  0  0  0  0  0  0  0  0
   10.4184  -13.4988   27.7554 C   0  0  0  0  0  0  0  0  0  0  0  0
   10.9739  -14.1065   26.4832 C   0  0  0  0  0  0  0  0  0  0  0  0
   11.2940  -15.5711   26.6726 C   0  0  2  0  0  0  0  0  0  0  0  0
   12.2243  -15.6990   27.8291 C   0  0  0  0  0  0  0  0  0  0  0  0
   11.7255  -16.2442   25.4200 C   0  0  2  0  0  0  0  0  0  0  0  0
   10.5772  -16.4111   24.5162 N   0  0  0  0  0  0  0  0  0  0  0  0
   12.3819  -17.5420   25.5728 C   0  0  0  0  0  0  0  0  0  0  0  0
   13.6104  -17.7096   25.7727 O   0  0  0  0  0  0  0  0  0  0  0  0
   11.6095  -18.6929   25.4958 O   0  0  0  0  0  0  0  0  0  0  0  0
  2  1  1  1
  2  3  1  0
  4  3  1  0
  5  4  2  0
  6  5  1  0
  7  6  1  0
  7 12  2  0
  8  7  1  0
  9  8  2  0
  9 10  1  0
 10 11  2  0
 11 12  1  0
 12  4  1  0
 13 20  1  0
 13  2  1  0
 14 13  2  0
 16 15  1  0
 17 16  1  0
 18 17  1  0
 19 18  1  6
 19 20  1  0
 21 19  1  0
 22 21  2  0
 23 24  1  0
 24 25  1  0
 25 26  1  1
 27 25  1  0
 27 28  1  6
 28 21  1  0
 29 31  1  0
 29 27  1  0
 30 29  2  0
M  END
$$$$
