WMI.pdb
     RDKit          3D

 31 32  0  0  1  0  0  0  0  0999 V2000
    9.7715  -16.4301   25.4158 N   0  0  0  0  0  0  0  0  0  0  0  0
    8.7959  -17.4932   25.3772 C   0  0  1  0  0  0  0  0  0  0  0  0
    7.6202  -17.1786   26.2762 C   0  0  0  0  0  0  0  0  0  0  0  0
    7.5730  -15.7195   26.5232 C   0  0  0  0  0  0  0  0  0  0  0  0
    6.5043  -14.9107   26.2276 C   0  0  0  0  0  0  0  0  0  0  0  0
    6.8023  -13.6271   26.5859 N   0  0  0  0  0  0  0  0  0  0  0  0
    8.0446  -13.6137   27.1039 C   0  0  0  0  0  0  0  0  0  0  0  0
    8.7835  -12.5672   27.6014 C   0  0  0  0  0  0  0  0  0  0  0  0
   10.0497  -12.8310   28.0782 C   0  0  0  0  0  0  0  0  0  0  0  0
   10.5867  -14.1136   28.0667 C   0  0  0  0  0  0  0  0  0  0  0  0
    9.8174  -15.1452   27.5593 C   0  0  0  0  0  0  0  0  0  0  0  0
    8.5449  -14.9168   27.0733 C   0  0  0  0  0  0  0  0  0  0  0  0
    8.3807  -17.7294   23.9817 C   0  0  0  0  0  0  0  0  0  0  0  0
    7.7775  -18.7632   23.6033 O   0  0  0  0  0  0  0  0  0  0  0  0
    7.7445  -11.7652   20.1052 C   0  0  0  0  0  0  0  0  0  0  0  0
    6.9367  -13.3874   20.1634 S   0  0  0  0  0  0  0  0  0  0  0  0
    8.0457  -14.6410   20.8715 C   0  0  0  0  0  0  0  0  0  0  0  0
    7.3604  -15.9794   21.0121 C   0  0  0  0  0  0  0  0  0  0  0  0
    8.3027  -16.9590   21.6089 C   0  0  2  0  0  0  0  0  0  0  0  0
    8.6466  -16.7800   22.9694 N   0  0  0  0  0  0  0  0  0  0  0  0
    9.5643  -17.0813   20.8223 C   0  0  0  0  0  0  0  0  0  0  0  0
    9.4296  -17.5411   19.6449 O   0  0  0  0  0  0  0  0  0  0  0  0
   11.7939  -13.3445   18.9380 C   0  0  0  0  0  0  0  0  0  0  0  0
   11.4233  -14.7931   19.1834 C   0  0  0  0  0  0  0  0  0  0  0  0
   12.4687  -15.4890   20.0240 C   0  0  2  0  0  0  0  0  0  0  0  0
   13.7654  -15.4361   19.2925 C   0  0  0  0  0  0  0  0  0  0  0  0
   12.0457  -16.8348   20.4908 C   0  0  2  0  0  0  0  0  0  0  0  0
   10.8308  -16.7245   21.3124 N   0  0  0  0  0  0  0  0  0  0  0  0
   13.0383  -17.6042   21.2400 C   0  0  0  0  0  0  0  0  0  0  0  0
   12.9160  -17.9680   22.4358 O   0  0  0  0  0  0  0  0  0  0  0  0
   14.2148  -17.9740   20.6028 O   0  0  0  0  0  0  0  0  0  0  0  0
  2  1  1  6
  2  3  1  0
  4  3  1  0
  5  4  2  0
  6  5  1  0
  7  6  1  0
  7 12  2  0
  8  7  1  0
  9  8  2  0
  9 10  1  0
 10 11  2  0
 11 12  1  0
 12  4  1  0
 13 20  1  0
 13  2  1  0
 14 13  2  0
 16 15  1  0
 17 16  1  0
 18 17  1  0
 19 18  1  6
 19 20  1  0
 21 19  1  0
 22 21  2  0
 23 24  1  0
 24 25  1  0
 25 26  1  6
 27 25  1  0
 27 28  1  1
 28 21  1  0
 29 31  1  0
 29 27  1  0
 30 29  2  0
M  END
$$$$
