WMI.pdb
     RDKit          3D

 31 32  0  0  1  0  0  0  0  0999 V2000
    6.6672  -18.9228   24.4669 N   0  0  0  0  0  0  0  0  0  0  0  0
    6.6993  -17.4853   24.5941 C   0  0  1  0  0  0  0  0  0  0  0  0
    7.1120  -17.0769   25.9913 C   0  0  0  0  0  0  0  0  0  0  0  0
    6.4352  -15.8092   26.3478 C   0  0  0  0  0  0  0  0  0  0  0  0
    5.0827  -15.6707   26.5347 C   0  0  0  0  0  0  0  0  0  0  0  0
    4.8058  -14.3716   26.8520 N   0  0  0  0  0  0  0  0  0  0  0  0
    5.9648  -13.6874   26.8681 C   0  0  0  0  0  0  0  0  0  0  0  0
    6.2039  -12.3600   27.1316 C   0  0  0  0  0  0  0  0  0  0  0  0
    7.5053  -11.9086   27.0797 C   0  0  0  0  0  0  0  0  0  0  0  0
    8.5648  -12.7548   26.7715 C   0  0  0  0  0  0  0  0  0  0  0  0
    8.2907  -14.0854   26.5114 C   0  0  0  0  0  0  0  0  0  0  0  0
    6.9987  -14.5716   26.5544 C   0  0  0  0  0  0  0  0  0  0  0  0
    7.5909  -16.9202   23.5638 C   0  0  0  0  0  0  0  0  0  0  0  0
    8.6853  -17.4389   23.2338 O   0  0  0  0  0  0  0  0  0  0  0  0
    9.5340  -13.3478   17.5799 C   0  0  0  0  0  0  0  0  0  0  0  0
    8.4613  -14.0914   18.8384 S   0  0  0  0  0  0  0  0  0  0  0  0
    8.6560  -13.2507   20.4379 C   0  0  0  0  0  0  0  0  0  0  0  0
    7.6569  -13.7466   21.4561 C   0  0  0  0  0  0  0  0  0  0  0  0
    8.1573  -15.0011   22.0718 C   0  0  2  0  0  0  0  0  0  0  0  0
    7.2522  -15.7337   22.8752 N   0  0  0  0  0  0  0  0  0  0  0  0
    9.4074  -14.7861   22.8570 C   0  0  0  0  0  0  0  0  0  0  0  0
    9.8192  -13.5845   22.9070 O   0  0  0  0  0  0  0  0  0  0  0  0
    9.9147  -14.5917   27.6625 C   0  0  0  0  0  0  0  0  0  0  0  0
   10.3141  -14.4112   26.2120 C   0  0  0  0  0  0  0  0  0  0  0  0
   11.0995  -15.6007   25.7102 C   0  0  2  0  0  0  0  0  0  0  0  0
   12.3028  -15.7624   26.5735 C   0  0  0  0  0  0  0  0  0  0  0  0
   11.3560  -15.5595   24.2471 C   0  0  2  0  0  0  0  0  0  0  0  0
   10.1090  -15.8124   23.5094 N   0  0  0  0  0  0  0  0  0  0  0  0
   12.3815  -16.4712   23.7414 C   0  0  0  0  0  0  0  0  0  0  0  0
   13.5987  -16.1888   23.6155 O   0  0  0  0  0  0  0  0  0  0  0  0
   12.0065  -17.7538   23.3657 O   0  0  0  0  0  0  0  0  0  0  0  0
  2  1  1  1
  2  3  1  0
  4  3  1  0
  5  4  2  0
  6  5  1  0
  7  6  1  0
  7 12  2  0
  8  7  1  0
  9  8  2  0
  9 10  1  0
 10 11  2  0
 11 12  1  0
 12  4  1  0
 13 20  1  0
 13  2  1  0
 14 13  2  0
 16 15  1  0
 17 16  1  0
 18 17  1  0
 19 18  1  1
 19 20  1  0
 21 19  1  0
 22 21  2  0
 23 24  1  0
 24 25  1  0
 25 26  1  1
 27 25  1  0
 27 28  1  6
 28 21  1  0
 29 31  1  0
 29 27  1  0
 30 29  2  0
M  END
$$$$
