WMI.pdb
     RDKit          3D

 31 32  0  0  1  0  0  0  0  0999 V2000
    7.1334  -20.0378   22.4495 N   0  0  0  0  0  0  0  0  0  0  0  0
    6.6722  -18.6700   22.4558 C   0  0  1  0  0  0  0  0  0  0  0  0
    5.7660  -18.4122   23.6397 C   0  0  0  0  0  0  0  0  0  0  0  0
    4.5303  -19.2141   23.4906 C   0  0  0  0  0  0  0  0  0  0  0  0
    4.0199  -20.0498   24.4522 C   0  0  0  0  0  0  0  0  0  0  0  0
    2.8758  -20.6277   23.9809 N   0  0  0  0  0  0  0  0  0  0  0  0
    2.6563  -20.1686   22.7348 C   0  0  0  0  0  0  0  0  0  0  0  0
    1.6408  -20.4539   21.8539 C   0  0  0  0  0  0  0  0  0  0  0  0
    1.6540  -19.8371   20.6211 C   0  0  0  0  0  0  0  0  0  0  0  0
    2.6572  -18.9463   20.2559 C   0  0  0  0  0  0  0  0  0  0  0  0
    3.6651  -18.6804   21.1652 C   0  0  0  0  0  0  0  0  0  0  0  0
    3.6832  -19.2806   22.4091 C   0  0  0  0  0  0  0  0  0  0  0  0
    7.8326  -17.7596   22.4356 C   0  0  0  0  0  0  0  0  0  0  0  0
    8.9898  -18.1037   22.7794 O   0  0  0  0  0  0  0  0  0  0  0  0
    7.9043  -11.4421   20.1654 C   0  0  0  0  0  0  0  0  0  0  0  0
    7.1286  -12.8524   19.3308 S   0  0  0  0  0  0  0  0  0  0  0  0
    7.6498  -14.4215   20.0854 C   0  0  0  0  0  0  0  0  0  0  0  0
    8.5253  -14.1972   21.2953 C   0  0  0  0  0  0  0  0  0  0  0  0
    8.7713  -15.4929   21.9766 C   0  0  2  0  0  0  0  0  0  0  0  0
    7.7003  -16.4164   22.0174 N   0  0  0  0  0  0  0  0  0  0  0  0
    9.2836  -15.3128   23.3661 C   0  0  0  0  0  0  0  0  0  0  0  0
   10.5202  -15.0336   23.4587 O   0  0  0  0  0  0  0  0  0  0  0  0
    6.2002  -12.4423   26.2648 C   0  0  0  0  0  0  0  0  0  0  0  0
    7.4780  -13.0322   25.7034 C   0  0  0  0  0  0  0  0  0  0  0  0
    7.9481  -14.2049   26.5326 C   0  0  2  0  0  0  0  0  0  0  0  0
    8.3239  -13.6998   27.8828 C   0  0  0  0  0  0  0  0  0  0  0  0
    8.9715  -15.0358   25.8467 C   0  0  2  0  0  0  0  0  0  0  0  0
    8.4877  -15.4349   24.5163 N   0  0  0  0  0  0  0  0  0  0  0  0
    9.4132  -16.2372   26.5540 C   0  0  0  0  0  0  0  0  0  0  0  0
   10.0804  -16.2433   27.6179 O   0  0  0  0  0  0  0  0  0  0  0  0
    9.0816  -17.4791   26.0298 O   0  0  0  0  0  0  0  0  0  0  0  0
  2  1  1  1
  2  3  1  0
  4  3  1  0
  5  4  2  0
  6  5  1  0
  7  6  1  0
  7 12  2  0
  8  7  1  0
  9  8  2  0
  9 10  1  0
 10 11  2  0
 11 12  1  0
 12  4  1  0
 13 20  1  0
 13  2  1  0
 14 13  2  0
 16 15  1  0
 17 16  1  0
 18 17  1  0
 19 18  1  1
 19 20  1  0
 21 19  1  0
 22 21  2  0
 23 24  1  0
 24 25  1  0
 25 26  1  1
 27 25  1  0
 27 28  1  6
 28 21  1  0
 29 31  1  0
 29 27  1  0
 30 29  2  0
M  END
$$$$
