WMI.pdb
     RDKit          3D

 31 32  0  0  1  0  0  0  0  0999 V2000
    7.1959  -19.1045   25.3338 N   0  0  0  0  0  0  0  0  0  0  0  0
    6.8309  -18.5806   24.0393 C   0  0  1  0  0  0  0  0  0  0  0  0
    5.6889  -17.5954   24.1590 C   0  0  0  0  0  0  0  0  0  0  0  0
    6.0501  -16.5484   25.1417 C   0  0  0  0  0  0  0  0  0  0  0  0
    6.1388  -16.7456   26.4970 C   0  0  0  0  0  0  0  0  0  0  0  0
    6.4931  -15.5713   27.0975 N   0  0  0  0  0  0  0  0  0  0  0  0
    6.6295  -14.6350   26.1402 C   0  0  0  0  0  0  0  0  0  0  0  0
    6.9710  -13.3079   26.2442 C   0  0  0  0  0  0  0  0  0  0  0  0
    7.0400  -12.5594   25.0887 C   0  0  0  0  0  0  0  0  0  0  0  0
    6.7755  -13.1101   23.8396 C   0  0  0  0  0  0  0  0  0  0  0  0
    6.4345  -14.4488   23.7689 C   0  0  0  0  0  0  0  0  0  0  0  0
    6.3559  -15.2283   24.9063 C   0  0  0  0  0  0  0  0  0  0  0  0
    8.0170  -17.9813   23.3990 C   0  0  0  0  0  0  0  0  0  0  0  0
    9.0180  -18.6453   23.0345 O   0  0  0  0  0  0  0  0  0  0  0  0
    8.2699  -12.6763   19.2035 C   0  0  0  0  0  0  0  0  0  0  0  0
    9.7891  -12.6248   20.1917 S   0  0  0  0  0  0  0  0  0  0  0  0
   10.0776  -14.2145   21.0240 C   0  0  0  0  0  0  0  0  0  0  0  0
    8.8526  -14.6858   21.7708 C   0  0  0  0  0  0  0  0  0  0  0  0
    9.1519  -15.9686   22.4553 C   0  0  2  0  0  0  0  0  0  0  0  0
    8.0920  -16.5915   23.1552 N   0  0  0  0  0  0  0  0  0  0  0  0
   10.3179  -15.8577   23.3792 C   0  0  0  0  0  0  0  0  0  0  0  0
   11.3631  -15.3369   22.8770 O   0  0  0  0  0  0  0  0  0  0  0  0
    9.4857  -13.5105   28.0663 C   0  0  0  0  0  0  0  0  0  0  0  0
   10.3476  -13.9083   26.8852 C   0  0  0  0  0  0  0  0  0  0  0  0
   10.6877  -15.3800   26.9290 C   0  0  2  0  0  0  0  0  0  0  0  0
   11.4343  -15.6483   28.1900 C   0  0  0  0  0  0  0  0  0  0  0  0
   11.3298  -15.8713   25.6822 C   0  0  2  0  0  0  0  0  0  0  0  0
   10.3017  -16.2869   24.7159 N   0  0  0  0  0  0  0  0  0  0  0  0
   12.2878  -16.9658   25.8325 C   0  0  0  0  0  0  0  0  0  0  0  0
   13.3375  -16.9159   26.5201 O   0  0  0  0  0  0  0  0  0  0  0  0
   12.0405  -18.1632   25.1752 O   0  0  0  0  0  0  0  0  0  0  0  0
  2  1  1  1
  2  3  1  0
  4  3  1  0
  5  4  2  0
  6  5  1  0
  7  6  1  0
  7 12  2  0
  8  7  1  0
  9  8  2  0
  9 10  1  0
 10 11  2  0
 11 12  1  0
 12  4  1  0
 13 20  1  0
 13  2  1  0
 14 13  2  0
 16 15  1  0
 17 16  1  0
 18 17  1  0
 19 18  1  1
 19 20  1  0
 21 19  1  0
 22 21  2  0
 23 24  1  0
 24 25  1  0
 25 26  1  1
 27 25  1  0
 27 28  1  6
 28 21  1  0
 29 31  1  0
 29 27  1  0
 30 29  2  0
M  END
$$$$
