WMI.pdb
     RDKit          3D

 31 32  0  0  1  0  0  0  0  0999 V2000
    6.2158  -18.8916   24.6712 N   0  0  0  0  0  0  0  0  0  0  0  0
    6.5871  -17.4980   24.6106 C   0  0  1  0  0  0  0  0  0  0  0  0
    6.8078  -16.9382   25.9988 C   0  0  0  0  0  0  0  0  0  0  0  0
    6.1211  -15.6313   26.1115 C   0  0  0  0  0  0  0  0  0  0  0  0
    4.7594  -15.4645   26.1507 C   0  0  0  0  0  0  0  0  0  0  0  0
    4.4748  -14.1332   26.2576 N   0  0  0  0  0  0  0  0  0  0  0  0
    5.6380  -13.4565   26.2866 C   0  0  0  0  0  0  0  0  0  0  0  0
    5.8726  -12.1059   26.3846 C   0  0  0  0  0  0  0  0  0  0  0  0
    7.1802  -11.6697   26.3920 C   0  0  0  0  0  0  0  0  0  0  0  0
    8.2502  -12.5534   26.3040 C   0  0  0  0  0  0  0  0  0  0  0  0
    7.9804  -13.9066   26.2066 C   0  0  0  0  0  0  0  0  0  0  0  0
    6.6824  -14.3786   26.1961 C   0  0  0  0  0  0  0  0  0  0  0  0
    7.7773  -17.3430   23.7532 C   0  0  0  0  0  0  0  0  0  0  0  0
    8.5492  -18.2888   23.4609 O   0  0  0  0  0  0  0  0  0  0  0  0
    9.5662  -12.5695   19.2860 C   0  0  0  0  0  0  0  0  0  0  0  0
    7.8981  -13.0693   19.7912 S   0  0  0  0  0  0  0  0  0  0  0  0
    7.9568  -14.5226   20.8809 C   0  0  0  0  0  0  0  0  0  0  0  0
    9.2998  -14.6611   21.5575 C   0  0  0  0  0  0  0  0  0  0  0  0
    9.2905  -15.8558   22.4385 C   0  0  2  0  0  0  0  0  0  0  0  0
    8.1215  -16.0889   23.2005 N   0  0  0  0  0  0  0  0  0  0  0  0
   10.4617  -15.8864   23.3620 C   0  0  0  0  0  0  0  0  0  0  0  0
   11.5837  -15.6195   22.8276 O   0  0  0  0  0  0  0  0  0  0  0  0
    9.7192  -14.0613   28.3724 C   0  0  0  0  0  0  0  0  0  0  0  0
   10.3046  -14.3427   27.0034 C   0  0  0  0  0  0  0  0  0  0  0  0
   11.0609  -15.6509   26.9916 C   0  0  2  0  0  0  0  0  0  0  0  0
   12.1151  -15.5891   28.0424 C   0  0  0  0  0  0  0  0  0  0  0  0
   11.5231  -16.0494   25.6367 C   0  0  2  0  0  0  0  0  0  0  0  0
   10.3721  -16.1846   24.7311 N   0  0  0  0  0  0  0  0  0  0  0  0
   12.3175  -17.2745   25.5556 C   0  0  0  0  0  0  0  0  0  0  0  0
   13.4785  -17.4128   26.0141 O   0  0  0  0  0  0  0  0  0  0  0  0
   11.7683  -18.3848   24.9289 O   0  0  0  0  0  0  0  0  0  0  0  0
  2  1  1  1
  2  3  1  0
  4  3  1  0
  5  4  2  0
  6  5  1  0
  7  6  1  0
  7 12  2  0
  8  7  1  0
  9  8  2  0
  9 10  1  0
 10 11  2  0
 11 12  1  0
 12  4  1  0
 13 20  1  0
 13  2  1  0
 14 13  2  0
 16 15  1  0
 17 16  1  0
 18 17  1  0
 19 18  1  1
 19 20  1  0
 21 19  1  0
 22 21  2  0
 23 24  1  0
 24 25  1  0
 25 26  1  1
 27 25  1  0
 27 28  1  6
 28 21  1  0
 29 31  1  0
 29 27  1  0
 30 29  2  0
M  END
$$$$
