WMI.pdb
     RDKit          3D

 31 32  0  0  1  0  0  0  0  0999 V2000
    5.6327  -17.8194   22.2870 N   0  0  0  0  0  0  0  0  0  0  0  0
    6.4994  -17.0704   23.1652 C   0  0  1  0  0  0  0  0  0  0  0  0
    6.2751  -17.4645   24.6087 C   0  0  0  0  0  0  0  0  0  0  0  0
    6.2229  -16.2434   25.4443 C   0  0  0  0  0  0  0  0  0  0  0  0
    5.6497  -16.1719   26.6892 C   0  0  0  0  0  0  0  0  0  0  0  0
    5.7811  -14.9004   27.1698 N   0  0  0  0  0  0  0  0  0  0  0  0
    6.4295  -14.1675   26.2456 C   0  0  0  0  0  0  0  0  0  0  0  0
    6.7951  -12.8429   26.2654 C   0  0  0  0  0  0  0  0  0  0  0  0
    7.4608  -12.3334   25.1710 C   0  0  0  0  0  0  0  0  0  0  0  0
    7.7654  -13.1190   24.0649 C   0  0  0  0  0  0  0  0  0  0  0  0
    7.3836  -14.4485   24.0761 C   0  0  0  0  0  0  0  0  0  0  0  0
    6.7153  -14.9920   25.1557 C   0  0  0  0  0  0  0  0  0  0  0  0
    7.9021  -17.2583   22.7494 C   0  0  0  0  0  0  0  0  0  0  0  0
    8.5083  -18.3546   22.8302 O   0  0  0  0  0  0  0  0  0  0  0  0
    8.1283  -12.9818   19.5686 C   0  0  0  0  0  0  0  0  0  0  0  0
    9.9166  -12.8857   19.8520 S   0  0  0  0  0  0  0  0  0  0  0  0
   10.4132  -13.9497   21.2392 C   0  0  0  0  0  0  0  0  0  0  0  0
   10.5367  -15.3952   20.8196 C   0  0  0  0  0  0  0  0  0  0  0  0
   10.0347  -16.2719   21.9072 C   0  0  2  0  0  0  0  0  0  0  0  0
    8.6586  -16.1865   22.2243 N   0  0  0  0  0  0  0  0  0  0  0  0
   10.8138  -16.1100   23.1690 C   0  0  0  0  0  0  0  0  0  0  0  0
   12.0579  -15.8981   23.0175 O   0  0  0  0  0  0  0  0  0  0  0  0
   10.3189  -13.4290   28.5172 C   0  0  0  0  0  0  0  0  0  0  0  0
   11.1225  -14.4100   27.6878 C   0  0  0  0  0  0  0  0  0  0  0  0
   10.4120  -14.7430   26.3963 C   0  0  2  0  0  0  0  0  0  0  0  0
    8.9560  -14.8702   26.6850 C   0  0  0  0  0  0  0  0  0  0  0  0
   11.0266  -15.8813   25.6651 C   0  0  2  0  0  0  0  0  0  0  0  0
   10.2493  -16.1801   24.4527 N   0  0  0  0  0  0  0  0  0  0  0  0
   11.1958  -17.1226   26.4195 C   0  0  0  0  0  0  0  0  0  0  0  0
   10.5397  -18.1766   26.2301 O   0  0  0  0  0  0  0  0  0  0  0  0
   12.1493  -17.1654   27.4275 O   0  0  0  0  0  0  0  0  0  0  0  0
  2  1  1  6
  2  3  1  0
  4  3  1  0
  5  4  2  0
  6  5  1  0
  7  6  1  0
  7 12  2  0
  8  7  1  0
  9  8  2  0
  9 10  1  0
 10 11  2  0
 11 12  1  0
 12  4  1  0
 13 20  1  0
 13  2  1  0
 14 13  2  0
 16 15  1  0
 17 16  1  0
 18 17  1  0
 19 18  1  6
 19 20  1  0
 21 19  1  0
 22 21  2  0
 23 24  1  0
 24 25  1  0
 25 26  1  1
 27 25  1  0
 27 28  1  6
 28 21  1  0
 29 31  1  0
 29 27  1  0
 30 29  2  0
M  END
$$$$
