WMI.pdb
     RDKit          3D

 31 32  0  0  1  0  0  0  0  0999 V2000
    5.9202  -18.9285   24.7239 N   0  0  0  0  0  0  0  0  0  0  0  0
    6.4043  -17.5691   24.6887 C   0  0  1  0  0  0  0  0  0  0  0  0
    6.7077  -17.0687   26.0840 C   0  0  0  0  0  0  0  0  0  0  0  0
    6.1561  -15.7038   26.2424 C   0  0  0  0  0  0  0  0  0  0  0  0
    4.8181  -15.4016   26.2866 C   0  0  0  0  0  0  0  0  0  0  0  0
    4.6691  -14.0528   26.4403 N   0  0  0  0  0  0  0  0  0  0  0  0
    5.8947  -13.4987   26.4938 C   0  0  0  0  0  0  0  0  0  0  0  0
    6.2641  -12.1831   26.6394 C   0  0  0  0  0  0  0  0  0  0  0  0
    7.6091  -11.8819   26.6631 C   0  0  0  0  0  0  0  0  0  0  0  0
    8.5847  -12.8657   26.5446 C   0  0  0  0  0  0  0  0  0  0  0  0
    8.1798  -14.1804   26.3993 C   0  0  0  0  0  0  0  0  0  0  0  0
    6.8409  -14.5180   26.3715 C   0  0  0  0  0  0  0  0  0  0  0  0
    7.5800  -17.4885   23.8016 C   0  0  0  0  0  0  0  0  0  0  0  0
    8.4240  -18.4102   23.6836 O   0  0  0  0  0  0  0  0  0  0  0  0
    9.3655  -12.9253   19.0019 C   0  0  0  0  0  0  0  0  0  0  0  0
    8.1696  -12.6318   20.3327 S   0  0  0  0  0  0  0  0  0  0  0  0
    8.3678  -13.8511   21.6657 C   0  0  0  0  0  0  0  0  0  0  0  0
    8.9423  -15.1509   21.1546 C   0  0  0  0  0  0  0  0  0  0  0  0
    9.0062  -16.1352   22.2640 C   0  0  2  0  0  0  0  0  0  0  0  0
    7.8259  -16.3396   23.0167 N   0  0  0  0  0  0  0  0  0  0  0  0
   10.1194  -15.8451   23.2138 C   0  0  0  0  0  0  0  0  0  0  0  0
   11.2204  -15.5077   22.6756 O   0  0  0  0  0  0  0  0  0  0  0  0
    9.4398  -12.9967   27.6970 C   0  0  0  0  0  0  0  0  0  0  0  0
   10.0794  -13.5844   26.4554 C   0  0  0  0  0  0  0  0  0  0  0  0
   10.6492  -14.9563   26.7323 C   0  0  2  0  0  0  0  0  0  0  0  0
   11.6399  -14.8348   27.8383 C   0  0  0  0  0  0  0  0  0  0  0  0
   11.1297  -15.6501   25.5092 C   0  0  2  0  0  0  0  0  0  0  0  0
    9.9992  -15.9276   24.6102 N   0  0  0  0  0  0  0  0  0  0  0  0
   11.8680  -16.8953   25.7162 C   0  0  0  0  0  0  0  0  0  0  0  0
   11.3671  -18.0461   25.6740 O   0  0  0  0  0  0  0  0  0  0  0  0
   13.2291  -16.8271   25.9807 O   0  0  0  0  0  0  0  0  0  0  0  0
  2  1  1  1
  2  3  1  0
  4  3  1  0
  5  4  2  0
  6  5  1  0
  7  6  1  0
  7 12  2  0
  8  7  1  0
  9  8  2  0
  9 10  1  0
 10 11  2  0
 11 12  1  0
 12  4  1  0
 13 20  1  0
 13  2  1  0
 14 13  2  0
 16 15  1  0
 17 16  1  0
 18 17  1  0
 19 18  1  6
 19 20  1  0
 21 19  1  0
 22 21  2  0
 23 24  1  0
 24 25  1  0
 25 26  1  1
 27 25  1  0
 27 28  1  6
 28 21  1  0
 29 31  1  0
 29 27  1  0
 30 29  2  0
M  END
$$$$
