WMI.pdb
     RDKit          3D

 31 32  0  0  1  0  0  0  0  0999 V2000
    5.9761  -17.7066   24.5838 N   0  0  0  0  0  0  0  0  0  0  0  0
    6.8598  -16.5754   24.4319 C   0  0  1  0  0  0  0  0  0  0  0  0
    7.3011  -16.0513   25.7809 C   0  0  0  0  0  0  0  0  0  0  0  0
    6.4840  -14.8684   26.1347 C   0  0  0  0  0  0  0  0  0  0  0  0
    5.1816  -14.9181   26.5645 C   0  0  0  0  0  0  0  0  0  0  0  0
    4.7394  -13.6476   26.7998 N   0  0  0  0  0  0  0  0  0  0  0  0
    5.7446  -12.7958   26.5246 C   0  0  0  0  0  0  0  0  0  0  0  0
    5.7881  -11.4246   26.6049 C   0  0  0  0  0  0  0  0  0  0  0  0
    6.9606  -10.7876   26.2587 C   0  0  0  0  0  0  0  0  0  0  0  0
    8.0827  -11.4921   25.8367 C   0  0  0  0  0  0  0  0  0  0  0  0
    8.0064  -12.8715   25.7667 C   0  0  0  0  0  0  0  0  0  0  0  0
    6.8477  -13.5423   26.1059 C   0  0  0  0  0  0  0  0  0  0  0  0
    8.0039  -16.9557   23.5822 C   0  0  0  0  0  0  0  0  0  0  0  0
    8.4835  -18.1151   23.5433 O   0  0  0  0  0  0  0  0  0  0  0  0
    6.9523  -13.2371   19.5061 C   0  0  0  0  0  0  0  0  0  0  0  0
    8.6928  -13.3749   19.9949 S   0  0  0  0  0  0  0  0  0  0  0  0
    9.1843  -15.1163   20.1655 C   0  0  0  0  0  0  0  0  0  0  0  0
   10.3492  -15.2789   21.1127 C   0  0  0  0  0  0  0  0  0  0  0  0
    9.9519  -16.1577   22.2412 C   0  0  2  0  0  0  0  0  0  0  0  0
    8.6380  -16.0107   22.7445 N   0  0  0  0  0  0  0  0  0  0  0  0
   10.9020  -16.0696   23.3880 C   0  0  0  0  0  0  0  0  0  0  0  0
   11.8752  -15.2675   23.2286 O   0  0  0  0  0  0  0  0  0  0  0  0
    9.5034  -14.2719   27.8070 C   0  0  0  0  0  0  0  0  0  0  0  0
   10.4373  -14.6845   26.6874 C   0  0  0  0  0  0  0  0  0  0  0  0
   10.9381  -16.0963   26.8869 C   0  0  2  0  0  0  0  0  0  0  0  0
   11.6588  -16.1554   28.1894 C   0  0  0  0  0  0  0  0  0  0  0  0
   11.6806  -16.6267   25.7141 C   0  0  2  0  0  0  0  0  0  0  0  0
   10.7655  -16.8045   24.5765 N   0  0  0  0  0  0  0  0  0  0  0  0
   12.4082  -17.8788   25.9180 C   0  0  0  0  0  0  0  0  0  0  0  0
   12.0752  -18.9921   25.4416 O   0  0  0  0  0  0  0  0  0  0  0  0
   13.5595  -17.8621   26.6933 O   0  0  0  0  0  0  0  0  0  0  0  0
  2  1  1  1
  2  3  1  0
  4  3  1  0
  5  4  2  0
  6  5  1  0
  7  6  1  0
  7 12  2  0
  8  7  1  0
  9  8  2  0
  9 10  1  0
 10 11  2  0
 11 12  1  0
 12  4  1  0
 13 20  1  0
 13  2  1  0
 14 13  2  0
 16 15  1  0
 17 16  1  0
 18 17  1  0
 19 18  1  6
 19 20  1  0
 21 19  1  0
 22 21  2  0
 23 24  1  0
 24 25  1  0
 25 26  1  1
 27 25  1  0
 27 28  1  6
 28 21  1  0
 29 31  1  0
 29 27  1  0
 30 29  2  0
M  END
$$$$
