WMI.pdb
     RDKit          3D

 31 32  0  0  1  0  0  0  0  0999 V2000
    5.7375  -17.5496   24.6201 N   0  0  0  0  0  0  0  0  0  0  0  0
    6.6115  -16.4230   24.3958 C   0  0  1  0  0  0  0  0  0  0  0  0
    7.1610  -15.8982   25.7042 C   0  0  0  0  0  0  0  0  0  0  0  0
    6.3651  -14.7248   26.1308 C   0  0  0  0  0  0  0  0  0  0  0  0
    5.0375  -14.7645   26.4764 C   0  0  0  0  0  0  0  0  0  0  0  0
    4.6261  -13.5075   26.8163 N   0  0  0  0  0  0  0  0  0  0  0  0
    5.6755  -12.6740   26.6901 C   0  0  0  0  0  0  0  0  0  0  0  0
    5.7616  -11.3210   26.9149 C   0  0  0  0  0  0  0  0  0  0  0  0
    6.9748  -10.7008   26.7057 C   0  0  0  0  0  0  0  0  0  0  0  0
    8.0958  -11.4042   26.2788 C   0  0  0  0  0  0  0  0  0  0  0  0
    7.9760  -12.7650   26.0616 C   0  0  0  0  0  0  0  0  0  0  0  0
    6.7759  -13.4187   26.2611 C   0  0  0  0  0  0  0  0  0  0  0  0
    7.6828  -16.8105   23.4588 C   0  0  0  0  0  0  0  0  0  0  0  0
    8.2771  -17.9152   23.5037 O   0  0  0  0  0  0  0  0  0  0  0  0
    8.6820  -14.1457   17.5540 C   0  0  0  0  0  0  0  0  0  0  0  0
    8.6517  -13.0932   19.0300 S   0  0  0  0  0  0  0  0  0  0  0  0
    8.5314  -14.0957   20.5411 C   0  0  0  0  0  0  0  0  0  0  0  0
    9.5478  -15.2126   20.5543 C   0  0  0  0  0  0  0  0  0  0  0  0
    9.3502  -16.0489   21.7647 C   0  0  2  0  0  0  0  0  0  0  0  0
    8.1087  -15.9361   22.4337 N   0  0  0  0  0  0  0  0  0  0  0  0
   10.4381  -15.8582   22.7675 C   0  0  0  0  0  0  0  0  0  0  0  0
   11.4955  -15.3081   22.3259 O   0  0  0  0  0  0  0  0  0  0  0  0
    9.7494  -13.6376   27.5079 C   0  0  0  0  0  0  0  0  0  0  0  0
   10.3425  -14.1185   26.1990 C   0  0  0  0  0  0  0  0  0  0  0  0
   10.9307  -15.5030   26.3424 C   0  0  2  0  0  0  0  0  0  0  0  0
   11.8980  -15.4832   27.4753 C   0  0  0  0  0  0  0  0  0  0  0  0
   11.4463  -16.0569   25.0635 C   0  0  2  0  0  0  0  0  0  0  0  0
   10.3395  -16.2456   24.1134 N   0  0  0  0  0  0  0  0  0  0  0  0
   12.1934  -17.3109   25.1530 C   0  0  0  0  0  0  0  0  0  0  0  0
   13.4450  -17.4084   25.1205 O   0  0  0  0  0  0  0  0  0  0  0  0
   11.4880  -18.4991   25.2853 O   0  0  0  0  0  0  0  0  0  0  0  0
  2  1  1  1
  2  3  1  0
  4  3  1  0
  5  4  2  0
  6  5  1  0
  7  6  1  0
  7 12  2  0
  8  7  1  0
  9  8  2  0
  9 10  1  0
 10 11  2  0
 11 12  1  0
 12  4  1  0
 13 20  1  0
 13  2  1  0
 14 13  2  0
 16 15  1  0
 17 16  1  0
 18 17  1  0
 19 18  1  6
 19 20  1  0
 21 19  1  0
 22 21  2  0
 23 24  1  0
 24 25  1  0
 25 26  1  1
 27 25  1  0
 27 28  1  6
 28 21  1  0
 29 31  1  0
 29 27  1  0
 30 29  2  0
M  END
$$$$
