FSI.pdb
     RDKit          3D

 26 26  0  0  1  0  0  0  0  0999 V2000
   28.5166  -21.0406  -16.8026 N   0  0  0  0  0  0  0  0  0  0  0  0
   27.5625  -20.8777  -15.7262 C   0  0  1  0  0  0  0  0  0  0  0  0
   26.6551  -22.0862  -15.7360 C   0  0  0  0  0  0  0  0  0  0  0  0
   25.9513  -22.1154  -17.0566 C   0  0  0  0  0  0  0  0  0  0  0  0
   24.9799  -21.2207  -17.4181 C   0  0  0  0  0  0  0  0  0  0  0  0
   24.3403  -21.2671  -18.6474 C   0  0  0  0  0  0  0  0  0  0  0  0
   24.6909  -22.2463  -19.5399 C   0  0  0  0  0  0  0  0  0  0  0  0
   25.6607  -23.1662  -19.2203 C   0  0  0  0  0  0  0  0  0  0  0  0
   26.2790  -23.0981  -17.9961 C   0  0  0  0  0  0  0  0  0  0  0  0
   28.3038  -20.7340  -14.4602 C   0  0  0  0  0  0  0  0  0  0  0  0
   29.0843  -21.6471  -14.1039 O   0  0  0  0  0  0  0  0  0  0  0  0
   24.7423  -18.6752  -13.1618 O   0  0  0  0  0  0  0  0  0  0  0  0
   25.8447  -19.1953  -13.8711 C   0  0  0  0  0  0  0  0  0  0  0  0
   27.0092  -19.2036  -12.9001 C   0  0  2  0  0  0  0  0  0  0  0  0
   28.1902  -19.6056  -13.5999 N   0  0  0  0  0  0  0  0  0  0  0  0
   26.6340  -20.0864  -11.7845 C   0  0  0  0  0  0  0  0  0  0  0  0
   26.6018  -21.3204  -12.0062 O   0  0  0  0  0  0  0  0  0  0  0  0
   28.0115  -19.0088   -6.5433 C   0  0  0  0  0  0  0  0  0  0  0  0
   27.7325  -19.7710   -7.7987 C   0  0  0  0  0  0  0  0  0  0  0  0
   26.3190  -20.1533   -8.0320 C   0  0  2  0  0  0  0  0  0  0  0  0
   25.9326  -21.1900   -6.9969 C   0  0  0  0  0  0  0  0  0  0  0  0
   25.9233  -20.5257   -9.4095 C   0  0  2  0  0  0  0  0  0  0  0  0
   26.3019  -19.6527  -10.4675 N   0  0  0  0  0  0  0  0  0  0  0  0
   24.4836  -20.8661   -9.4096 C   0  0  0  0  0  0  0  0  0  0  0  0
   23.6796  -20.0424   -9.9068 O   0  0  0  0  0  0  0  0  0  0  0  0
   23.9831  -22.0394   -8.8922 O   0  0  0  0  0  0  0  0  0  0  0  0
  2  1  1  6
  2 10  1  0
  3  2  1  0
  3  4  1  0
  4  5  2  0
  4  9  1  0
  5  6  1  0
  6  7  2  0
  8  7  1  0
  9  8  2  0
 10 11  2  0
 12 13  1  0
 14 13  1  6
 14 16  1  0
 15 14  1  0
 15 10  1  0
 16 23  1  0
 16 17  2  0
 18 19  1  0
 19 20  1  0
 20 22  1  0
 20 21  1  1
 22 24  1  0
 22 23  1  6
 24 25  2  0
 24 26  1  0
M  END
$$$$
