FSI.pdb
     RDKit          3D

 26 26  0  0  1  0  0  0  0  0999 V2000
   28.7648  -21.1736   -9.3627 N   0  0  0  0  0  0  0  0  0  0  0  0
   27.3613  -20.8200   -9.3355 C   0  0  1  0  0  0  0  0  0  0  0  0
   27.2389  -19.4999   -8.6101 C   0  0  0  0  0  0  0  0  0  0  0  0
   27.6564  -19.7211   -7.1900 C   0  0  0  0  0  0  0  0  0  0  0  0
   28.8129  -19.2222   -6.6531 C   0  0  0  0  0  0  0  0  0  0  0  0
   29.1803  -19.4403   -5.3341 C   0  0  0  0  0  0  0  0  0  0  0  0
   28.3559  -20.1850   -4.5314 C   0  0  0  0  0  0  0  0  0  0  0  0
   27.1848  -20.7060   -5.0271 C   0  0  0  0  0  0  0  0  0  0  0  0
   26.8440  -20.4750   -6.3371 C   0  0  0  0  0  0  0  0  0  0  0  0
   26.8674  -20.7540  -10.7228 C   0  0  0  0  0  0  0  0  0  0  0  0
   27.5305  -20.1205  -11.5764 O   0  0  0  0  0  0  0  0  0  0  0  0
   24.6787  -23.4930  -12.2561 O   0  0  0  0  0  0  0  0  0  0  0  0
   25.0629  -22.5078  -13.1892 C   0  0  0  0  0  0  0  0  0  0  0  0
   25.0496  -21.1879  -12.4432 C   0  0  2  0  0  0  0  0  0  0  0  0
   25.6650  -21.3743  -11.1654 N   0  0  0  0  0  0  0  0  0  0  0  0
   23.6493  -20.7405  -12.3835 C   0  0  0  0  0  0  0  0  0  0  0  0
   23.1210  -20.6360  -11.2509 O   0  0  0  0  0  0  0  0  0  0  0  0
   21.8150  -17.0484  -14.0271 C   0  0  0  0  0  0  0  0  0  0  0  0
   21.5659  -18.1044  -15.0555 C   0  0  0  0  0  0  0  0  0  0  0  0
   20.8768  -19.3291  -14.5826 C   0  0  2  0  0  0  0  0  0  0  0  0
   19.4088  -19.0036  -14.3961 C   0  0  0  0  0  0  0  0  0  0  0  0
   21.4666  -20.0526  -13.4330 C   0  0  2  0  0  0  0  0  0  0  0  0
   22.8401  -20.4158  -13.5117 N   0  0  0  0  0  0  0  0  0  0  0  0
   20.5757  -21.1793  -13.0790 C   0  0  0  0  0  0  0  0  0  0  0  0
   20.6741  -22.2423  -13.7368 O   0  0  0  0  0  0  0  0  0  0  0  0
   19.6459  -21.1198  -12.0658 O   0  0  0  0  0  0  0  0  0  0  0  0
  2  1  1  6
  2 10  1  0
  3  2  1  0
  3  4  1  0
  4  5  2  0
  4  9  1  0
  5  6  1  0
  6  7  2  0
  8  7  1  0
  9  8  2  0
 10 11  2  0
 12 13  1  0
 14 13  1  1
 14 16  1  0
 15 14  1  0
 15 10  1  0
 16 23  1  0
 16 17  2  0
 18 19  1  0
 19 20  1  0
 20 22  1  0
 20 21  1  1
 22 24  1  0
 22 23  1  6
 24 25  2  0
 24 26  1  0
M  END
$$$$
