FSI.pdb
     RDKit          3D

 26 26  0  0  1  0  0  0  0  0999 V2000
   16.8638  -13.5996    7.4152 N   0  0  0  0  0  0  0  0  0  0  0  0
   17.7285  -14.7081    7.0702 C   0  0  1  0  0  0  0  0  0  0  0  0
   18.9999  -14.1304    6.4925 C   0  0  0  0  0  0  0  0  0  0  0  0
   18.7082  -13.7040    5.0878 C   0  0  0  0  0  0  0  0  0  0  0  0
   18.3904  -14.5760    4.0812 C   0  0  0  0  0  0  0  0  0  0  0  0
   18.1244  -14.1586    2.7860 C   0  0  0  0  0  0  0  0  0  0  0  0
   18.1808  -12.8201    2.4968 C   0  0  0  0  0  0  0  0  0  0  0  0
   18.4959  -11.9081    3.4754 C   0  0  0  0  0  0  0  0  0  0  0  0
   18.7549  -12.3477    4.7502 C   0  0  0  0  0  0  0  0  0  0  0  0
   17.9688  -15.5105    8.2831 C   0  0  0  0  0  0  0  0  0  0  0  0
   18.0422  -14.9320    9.3920 O   0  0  0  0  0  0  0  0  0  0  0  0
   17.7073  -19.5395    8.1309 O   0  0  0  0  0  0  0  0  0  0  0  0
   17.5974  -18.9677    9.4155 C   0  0  0  0  0  0  0  0  0  0  0  0
   18.4754  -17.7316    9.4068 C   0  0  2  0  0  0  0  0  0  0  0  0
   18.1255  -16.9254    8.2782 N   0  0  0  0  0  0  0  0  0  0  0  0
   19.8718  -18.1946    9.4129 C   0  0  0  0  0  0  0  0  0  0  0  0
   20.3299  -18.6718    8.3473 O   0  0  0  0  0  0  0  0  0  0  0  0
   23.4482  -15.4736   11.7161 C   0  0  0  0  0  0  0  0  0  0  0  0
   23.3264  -16.5278   10.6631 C   0  0  0  0  0  0  0  0  0  0  0  0
   23.1495  -17.9184   11.1463 C   0  0  2  0  0  0  0  0  0  0  0  0
   24.4949  -18.6130   11.0908 C   0  0  0  0  0  0  0  0  0  0  0  0
   22.0524  -18.7194   10.5569 C   0  0  2  0  0  0  0  0  0  0  0  0
   20.7502  -18.1463   10.5350 N   0  0  0  0  0  0  0  0  0  0  0  0
   22.0921  -20.0763   11.1451 C   0  0  0  0  0  0  0  0  0  0  0  0
   22.6748  -20.9832   10.5048 O   0  0  0  0  0  0  0  0  0  0  0  0
   21.5224  -20.3927   12.3575 O   0  0  0  0  0  0  0  0  0  0  0  0
  2  1  1  1
  2 10  1  0
  3  2  1  0
  3  4  1  0
  4  5  2  0
  4  9  1  0
  5  6  1  0
  6  7  2  0
  8  7  1  0
  9  8  2  0
 10 11  2  0
 12 13  1  0
 14 13  1  6
 14 16  1  0
 15 14  1  0
 15 10  1  0
 16 23  1  0
 16 17  2  0
 18 19  1  0
 19 20  1  0
 20 22  1  0
 20 21  1  6
 22 24  1  0
 22 23  1  1
 24 25  2  0
 24 26  1  0
M  END
$$$$
