FSI.pdb
     RDKit          3D

 26 26  0  0  1  0  0  0  0  0999 V2000
   26.3032  -20.1236  -18.7986 N   0  0  0  0  0  0  0  0  0  0  0  0
   24.9070  -20.2928  -18.4558 C   0  0  1  0  0  0  0  0  0  0  0  0
   24.5793  -21.7615  -18.5953 C   0  0  0  0  0  0  0  0  0  0  0  0
   24.4010  -22.0511  -20.0528 C   0  0  0  0  0  0  0  0  0  0  0  0
   23.3627  -21.5647  -20.8011 C   0  0  0  0  0  0  0  0  0  0  0  0
   23.2169  -21.8465  -22.1508 C   0  0  0  0  0  0  0  0  0  0  0  0
   24.1470  -22.6439  -22.7651 C   0  0  0  0  0  0  0  0  0  0  0  0
   25.2062  -23.1547  -22.0538 C   0  0  0  0  0  0  0  0  0  0  0  0
   25.3275  -22.8602  -20.7181 C   0  0  0  0  0  0  0  0  0  0  0  0
   24.6965  -19.7913  -17.0857 C   0  0  0  0  0  0  0  0  0  0  0  0
   25.6896  -19.6085  -16.3442 O   0  0  0  0  0  0  0  0  0  0  0  0
   20.8720  -19.2313  -15.6134 O   0  0  0  0  0  0  0  0  0  0  0  0
   21.8208  -18.2520  -15.2530 C   0  0  0  0  0  0  0  0  0  0  0  0
   23.1671  -18.9492  -15.2405 C   0  0  2  0  0  0  0  0  0  0  0  0
   23.4158  -19.4948  -16.5393 N   0  0  0  0  0  0  0  0  0  0  0  0
   23.1259  -19.9471  -14.1603 C   0  0  0  0  0  0  0  0  0  0  0  0
   22.8202  -21.1238  -14.4683 O   0  0  0  0  0  0  0  0  0  0  0  0
   26.7021  -20.3609   -9.8638 C   0  0  0  0  0  0  0  0  0  0  0  0
   25.7460  -20.6926  -10.9642 C   0  0  0  0  0  0  0  0  0  0  0  0
   24.3049  -20.5617  -10.6409 C   0  0  2  0  0  0  0  0  0  0  0  0
   23.9922  -21.4941   -9.4883 C   0  0  0  0  0  0  0  0  0  0  0  0
   23.3356  -20.6635  -11.7558 C   0  0  2  0  0  0  0  0  0  0  0  0
   23.4050  -19.6854  -12.7868 N   0  0  0  0  0  0  0  0  0  0  0  0
   21.9800  -20.8288  -11.1869 C   0  0  0  0  0  0  0  0  0  0  0  0
   21.2463  -19.8158  -11.0992 O   0  0  0  0  0  0  0  0  0  0  0  0
   21.4844  -22.0363  -10.7498 O   0  0  0  0  0  0  0  0  0  0  0  0
  2  1  1  1
  2 10  1  0
  3  2  1  0
  3  4  1  0
  4  5  2  0
  4  9  1  0
  5  6  1  0
  6  7  2  0
  8  7  1  0
  9  8  2  0
 10 11  2  0
 12 13  1  0
 14 13  1  6
 14 16  1  0
 15 14  1  0
 15 10  1  0
 16 23  1  0
 16 17  2  0
 18 19  1  0
 19 20  1  0
 20 22  1  0
 20 21  1  1
 22 24  1  0
 22 23  1  1
 24 25  2  0
 24 26  1  0
M  END
$$$$
