FSI.pdb
     RDKit          3D

 26 26  0  0  1  0  0  0  0  0999 V2000
   18.5177  -11.9989  -18.0792 N   0  0  0  0  0  0  0  0  0  0  0  0
   19.6908  -11.1641  -18.2286 C   0  0  1  0  0  0  0  0  0  0  0  0
   19.9074  -10.9447  -19.7081 C   0  0  0  0  0  0  0  0  0  0  0  0
   20.4043  -12.2308  -20.2904 C   0  0  0  0  0  0  0  0  0  0  0  0
   19.5920  -13.1555  -20.8902 C   0  0  0  0  0  0  0  0  0  0  0  0
   20.0742  -14.3414  -21.4227 C   0  0  0  0  0  0  0  0  0  0  0  0
   21.4175  -14.6031  -21.3478 C   0  0  0  0  0  0  0  0  0  0  0  0
   22.2710  -13.7040  -20.7546 C   0  0  0  0  0  0  0  0  0  0  0  0
   21.7678  -12.5368  -20.2352 C   0  0  0  0  0  0  0  0  0  0  0  0
   19.4674   -9.9056  -17.4943 C   0  0  0  0  0  0  0  0  0  0  0  0
   18.3392   -9.3629  -17.5441 O   0  0  0  0  0  0  0  0  0  0  0  0
   21.0770   -6.7814  -14.1781 O   0  0  0  0  0  0  0  0  0  0  0  0
   21.3819   -7.9241  -14.9464 C   0  0  0  0  0  0  0  0  0  0  0  0
   20.3026   -8.0236  -16.0066 C   0  0  2  0  0  0  0  0  0  0  0  0
   20.4666   -9.2541  -16.7174 N   0  0  0  0  0  0  0  0  0  0  0  0
   20.4092   -6.8192  -16.8447 C   0  0  0  0  0  0  0  0  0  0  0  0
   21.3135   -6.7945  -17.7134 O   0  0  0  0  0  0  0  0  0  0  0  0
   17.4295   -5.2487  -20.6717 C   0  0  0  0  0  0  0  0  0  0  0  0
   18.4828   -5.4526  -19.6307 C   0  0  0  0  0  0  0  0  0  0  0  0
   18.6555   -4.3538  -18.6502 C   0  0  2  0  0  0  0  0  0  0  0  0
   18.8067   -3.0556  -19.4166 C   0  0  0  0  0  0  0  0  0  0  0  0
   19.6736   -4.5293  -17.5894 C   0  0  2  0  0  0  0  0  0  0  0  0
   19.5665   -5.6730  -16.7496 N   0  0  0  0  0  0  0  0  0  0  0  0
   19.8006   -3.2576  -16.8442 C   0  0  0  0  0  0  0  0  0  0  0  0
   19.0445   -3.0678  -15.8622 O   0  0  0  0  0  0  0  0  0  0  0  0
   20.7053   -2.2740  -17.1740 O   0  0  0  0  0  0  0  0  0  0  0  0
  2  1  1  6
  2 10  1  0
  3  2  1  0
  3  4  1  0
  4  5  2  0
  4  9  1  0
  5  6  1  0
  6  7  2  0
  8  7  1  0
  9  8  2  0
 10 11  2  0
 12 13  1  0
 14 13  1  1
 14 16  1  0
 15 14  1  0
 15 10  1  0
 16 23  1  0
 16 17  2  0
 18 19  1  0
 19 20  1  0
 20 22  1  0
 20 21  1  6
 22 24  1  0
 22 23  1  1
 24 25  2  0
 24 26  1  0
M  END
$$$$
