FSI.pdb
     RDKit          3D

 26 26  0  0  1  0  0  0  0  0999 V2000
   28.9911  -22.2146  -12.7347 N   0  0  0  0  0  0  0  0  0  0  0  0
   28.9233  -20.8550  -12.2423 C   0  0  1  0  0  0  0  0  0  0  0  0
   30.3312  -20.3056  -12.2286 C   0  0  0  0  0  0  0  0  0  0  0  0
   31.1235  -21.1102  -11.2463 C   0  0  0  0  0  0  0  0  0  0  0  0
   32.1194  -21.9785  -11.6055 C   0  0  0  0  0  0  0  0  0  0  0  0
   32.8405  -22.7147  -10.6779 C   0  0  0  0  0  0  0  0  0  0  0  0
   32.5482  -22.5710   -9.3466 C   0  0  0  0  0  0  0  0  0  0  0  0
   31.5566  -21.7110   -8.9394 C   0  0  0  0  0  0  0  0  0  0  0  0
   30.8574  -20.9934   -9.8784 C   0  0  0  0  0  0  0  0  0  0  0  0
   28.0211  -20.0841  -13.1167 C   0  0  0  0  0  0  0  0  0  0  0  0
   28.0345  -18.8328  -13.0549 O   0  0  0  0  0  0  0  0  0  0  0  0
   25.8286  -22.0617  -15.7835 O   0  0  0  0  0  0  0  0  0  0  0  0
   25.3111  -20.7606  -15.6150 C   0  0  0  0  0  0  0  0  0  0  0  0
   25.7526  -20.3027  -14.2386 C   0  0  2  0  0  0  0  0  0  0  0  0
   27.1193  -20.6779  -14.0444 N   0  0  0  0  0  0  0  0  0  0  0  0
   24.8172  -20.8916  -13.2677 C   0  0  0  0  0  0  0  0  0  0  0  0
   24.9621  -22.1046  -12.9842 O   0  0  0  0  0  0  0  0  0  0  0  0
   24.9329  -20.3436   -8.4144 C   0  0  0  0  0  0  0  0  0  0  0  0
   24.5451  -20.8978   -9.7476 C   0  0  0  0  0  0  0  0  0  0  0  0
   23.1846  -20.5560  -10.2280 C   0  0  2  0  0  0  0  0  0  0  0  0
   22.1784  -21.2009   -9.2967 C   0  0  0  0  0  0  0  0  0  0  0  0
   22.8825  -20.7783  -11.6605 C   0  0  2  0  0  0  0  0  0  0  0  0
   23.7550  -20.1942  -12.6209 N   0  0  0  0  0  0  0  0  0  0  0  0
   21.4545  -20.4701  -11.8935 C   0  0  0  0  0  0  0  0  0  0  0  0
   21.1634  -19.3690  -12.4179 O   0  0  0  0  0  0  0  0  0  0  0  0
   20.4310  -21.3296  -11.5641 O   0  0  0  0  0  0  0  0  0  0  0  0
  2  1  1  6
  2 10  1  0
  3  2  1  0
  3  4  1  0
  4  5  2  0
  4  9  1  0
  5  6  1  0
  6  7  2  0
  8  7  1  0
  9  8  2  0
 10 11  2  0
 12 13  1  0
 14 13  1  6
 14 16  1  0
 15 14  1  0
 15 10  1  0
 16 23  1  0
 16 17  2  0
 18 19  1  0
 19 20  1  0
 20 22  1  0
 20 21  1  1
 22 24  1  0
 22 23  1  6
 24 25  2  0
 24 26  1  0
M  END
$$$$
