FSI.pdb
     RDKit          3D

 26 26  0  0  1  0  0  0  0  0999 V2000
   26.1864  -17.5932  -17.8795 N   0  0  0  0  0  0  0  0  0  0  0  0
   26.6523  -17.2825  -16.5446 C   0  0  1  0  0  0  0  0  0  0  0  0
   25.7235  -16.2378  -15.9704 C   0  0  0  0  0  0  0  0  0  0  0  0
   25.9913  -14.9498  -16.6841 C   0  0  0  0  0  0  0  0  0  0  0  0
   27.1563  -14.2415  -16.5589 C   0  0  0  0  0  0  0  0  0  0  0  0
   27.3828  -13.0494  -17.2296 C   0  0  0  0  0  0  0  0  0  0  0  0
   26.4038  -12.5559  -18.0521 C   0  0  0  0  0  0  0  0  0  0  0  0
   25.2180  -13.2327  -18.2086 C   0  0  0  0  0  0  0  0  0  0  0  0
   25.0190  -14.4115  -17.5330 C   0  0  0  0  0  0  0  0  0  0  0  0
   26.6684  -18.5255  -15.7524 C   0  0  0  0  0  0  0  0  0  0  0  0
   25.6815  -19.2956  -15.8065 O   0  0  0  0  0  0  0  0  0  0  0  0
   29.0864  -21.3428  -12.6171 O   0  0  0  0  0  0  0  0  0  0  0  0
   29.1393  -20.2005  -13.4427 C   0  0  0  0  0  0  0  0  0  0  0  0
   27.7360  -19.9995  -13.9803 C   0  0  2  0  0  0  0  0  0  0  0  0
   27.7510  -18.9167  -14.9150 N   0  0  0  0  0  0  0  0  0  0  0  0
   26.8560  -19.7883  -12.8203 C   0  0  0  0  0  0  0  0  0  0  0  0
   26.8248  -18.6402  -12.3167 O   0  0  0  0  0  0  0  0  0  0  0  0
   21.4672  -20.2819  -10.2292 C   0  0  0  0  0  0  0  0  0  0  0  0
   22.9481  -20.2552  -10.0267 C   0  0  0  0  0  0  0  0  0  0  0  0
   23.7749  -20.6698  -11.1856 C   0  0  2  0  0  0  0  0  0  0  0  0
   23.3002  -22.0347  -11.6410 C   0  0  0  0  0  0  0  0  0  0  0  0
   25.2467  -20.5765  -11.0518 C   0  0  2  0  0  0  0  0  0  0  0  0
   26.0335  -20.7856  -12.2187 N   0  0  0  0  0  0  0  0  0  0  0  0
   25.6675  -21.4019   -9.8984 C   0  0  0  0  0  0  0  0  0  0  0  0
   26.1489  -22.5371  -10.1259 O   0  0  0  0  0  0  0  0  0  0  0  0
   25.5573  -20.9874   -8.5905 O   0  0  0  0  0  0  0  0  0  0  0  0
  2  1  1  6
  2 10  1  0
  3  2  1  0
  3  4  1  0
  4  5  2  0
  4  9  1  0
  5  6  1  0
  6  7  2  0
  8  7  1  0
  9  8  2  0
 10 11  2  0
 12 13  1  0
 14 13  1  1
 14 16  1  0
 15 14  1  0
 15 10  1  0
 16 23  1  0
 16 17  2  0
 18 19  1  0
 19 20  1  0
 20 22  1  0
 20 21  1  1
 22 24  1  0
 22 23  1  6
 24 25  2  0
 24 26  1  0
M  END
$$$$
