FSI.pdb
     RDKit          3D

 26 26  0  0  1  0  0  0  0  0999 V2000
   14.0253   -5.0345   -9.5140 N   0  0  0  0  0  0  0  0  0  0  0  0
   15.4157   -5.4354   -9.5530 C   0  0  1  0  0  0  0  0  0  0  0  0
   15.6399   -6.4102   -8.4201 C   0  0  0  0  0  0  0  0  0  0  0  0
   14.3595   -7.1533   -8.1997 C   0  0  0  0  0  0  0  0  0  0  0  0
   14.1930   -8.4804   -8.4927 C   0  0  0  0  0  0  0  0  0  0  0  0
   12.9969   -9.1488   -8.2808 C   0  0  0  0  0  0  0  0  0  0  0  0
   11.9355   -8.4575   -7.7574 C   0  0  0  0  0  0  0  0  0  0  0  0
   12.0564   -7.1239   -7.4480 C   0  0  0  0  0  0  0  0  0  0  0  0
   13.2521   -6.4855   -7.6674 C   0  0  0  0  0  0  0  0  0  0  0  0
   15.6967   -6.0255  -10.8743 C   0  0  0  0  0  0  0  0  0  0  0  0
   14.9820   -6.9691  -11.2849 O   0  0  0  0  0  0  0  0  0  0  0  0
   16.7959   -3.9782  -13.7260 O   0  0  0  0  0  0  0  0  0  0  0  0
   16.5610   -5.3162  -14.1050 C   0  0  0  0  0  0  0  0  0  0  0  0
   17.1057   -6.1776  -12.9824 C   0  0  2  0  0  0  0  0  0  0  0  0
   16.7453   -5.5859  -11.7308 N   0  0  0  0  0  0  0  0  0  0  0  0
   18.5553   -6.3032  -13.1997 C   0  0  0  0  0  0  0  0  0  0  0  0
   19.3137   -5.6338  -12.4583 O   0  0  0  0  0  0  0  0  0  0  0  0
   21.3316  -10.9754  -14.4384 C   0  0  0  0  0  0  0  0  0  0  0  0
   20.7400   -9.6683  -14.0186 C   0  0  0  0  0  0  0  0  0  0  0  0
   21.1693   -8.4774  -14.7905 C   0  0  2  0  0  0  0  0  0  0  0  0
   22.6839   -8.4554  -14.8225 C   0  0  0  0  0  0  0  0  0  0  0  0
   20.5724   -7.1705  -14.4318 C   0  0  2  0  0  0  0  0  0  0  0  0
   19.1712   -7.1255  -14.1884 N   0  0  0  0  0  0  0  0  0  0  0  0
   21.0369   -6.1581  -15.4054 C   0  0  0  0  0  0  0  0  0  0  0  0
   20.3007   -5.8974  -16.3863 O   0  0  0  0  0  0  0  0  0  0  0  0
   22.2342   -5.4891  -15.2889 O   0  0  0  0  0  0  0  0  0  0  0  0
  2  1  1  6
  2 10  1  0
  3  2  1  0
  3  4  1  0
  4  5  2  0
  4  9  1  0
  5  6  1  0
  6  7  2  0
  8  7  1  0
  9  8  2  0
 10 11  2  0
 12 13  1  0
 14 13  1  6
 14 16  1  0
 15 14  1  0
 15 10  1  0
 16 23  1  0
 16 17  2  0
 18 19  1  0
 19 20  1  0
 20 22  1  0
 20 21  1  1
 22 24  1  0
 22 23  1  6
 24 25  2  0
 24 26  1  0
M  END
$$$$
