FSI.pdb
     RDKit          3D

 26 26  0  0  1  0  0  0  0  0999 V2000
   26.4849  -16.8540  -17.9015 N   0  0  0  0  0  0  0  0  0  0  0  0
   27.0522  -16.9329  -16.5721 C   0  0  1  0  0  0  0  0  0  0  0  0
   26.3885  -15.8675  -15.7305 C   0  0  0  0  0  0  0  0  0  0  0  0
   24.9104  -15.9809  -15.9362 C   0  0  0  0  0  0  0  0  0  0  0  0
   24.2899  -15.7329  -17.1312 C   0  0  0  0  0  0  0  0  0  0  0  0
   22.9180  -15.8437  -17.2989 C   0  0  0  0  0  0  0  0  0  0  0  0
   22.1478  -16.2161  -16.2282 C   0  0  0  0  0  0  0  0  0  0  0  0
   22.7271  -16.4751  -15.0092 C   0  0  0  0  0  0  0  0  0  0  0  0
   24.0881  -16.3582  -14.8698 C   0  0  0  0  0  0  0  0  0  0  0  0
   26.8296  -18.2922  -16.0471 C   0  0  0  0  0  0  0  0  0  0  0  0
   25.8135  -18.9278  -16.4123 O   0  0  0  0  0  0  0  0  0  0  0  0
   28.8937  -21.2643  -16.2437 O   0  0  0  0  0  0  0  0  0  0  0  0
   28.8175  -21.0486  -14.8520 C   0  0  0  0  0  0  0  0  0  0  0  0
   27.5424  -20.2638  -14.6129 C   0  0  2  0  0  0  0  0  0  0  0  0
   27.7090  -18.9430  -15.1364 N   0  0  0  0  0  0  0  0  0  0  0  0
   27.2695  -20.3146  -13.1681 C   0  0  0  0  0  0  0  0  0  0  0  0
   27.8650  -19.4890  -12.4354 O   0  0  0  0  0  0  0  0  0  0  0  0
   26.2201  -19.8633   -8.1046 C   0  0  0  0  0  0  0  0  0  0  0  0
   26.2672  -19.3193   -9.4963 C   0  0  0  0  0  0  0  0  0  0  0  0
   25.4955  -20.0672  -10.5179 C   0  0  2  0  0  0  0  0  0  0  0  0
   24.1162  -20.3475   -9.9571 C   0  0  0  0  0  0  0  0  0  0  0  0
   26.1315  -21.2565  -11.1293 C   0  0  2  0  0  0  0  0  0  0  0  0
   26.3811  -21.2291  -12.5299 N   0  0  0  0  0  0  0  0  0  0  0  0
   25.4015  -22.4628  -10.6816 C   0  0  0  0  0  0  0  0  0  0  0  0
   24.8141  -23.1553  -11.5463 O   0  0  0  0  0  0  0  0  0  0  0  0
   25.3347  -22.8627   -9.3662 O   0  0  0  0  0  0  0  0  0  0  0  0
  2  1  1  6
  2 10  1  0
  3  2  1  0
  3  4  1  0
  4  5  2  0
  4  9  1  0
  5  6  1  0
  6  7  2  0
  8  7  1  0
  9  8  2  0
 10 11  2  0
 12 13  1  0
 14 13  1  1
 14 16  1  0
 15 14  1  0
 15 10  1  0
 16 23  1  0
 16 17  2  0
 18 19  1  0
 19 20  1  0
 20 22  1  0
 20 21  1  1
 22 24  1  0
 22 23  1  6
 24 25  2  0
 24 26  1  0
M  END
$$$$
