FSI.pdb
     RDKit          3D

 26 26  0  0  1  0  0  0  0  0999 V2000
   29.2103  -21.7289  -11.5761 N   0  0  0  0  0  0  0  0  0  0  0  0
   28.4804  -21.2678  -10.4142 C   0  0  1  0  0  0  0  0  0  0  0  0
   29.3140  -20.1969   -9.7490 C   0  0  0  0  0  0  0  0  0  0  0  0
   28.7451  -19.9597   -8.3852 C   0  0  0  0  0  0  0  0  0  0  0  0
   29.1614  -20.6257   -7.2636 C   0  0  0  0  0  0  0  0  0  0  0  0
   28.6194  -20.3901   -6.0094 C   0  0  0  0  0  0  0  0  0  0  0  0
   27.6265  -19.4540   -5.8821 C   0  0  0  0  0  0  0  0  0  0  0  0
   27.1767  -18.7610   -6.9803 C   0  0  0  0  0  0  0  0  0  0  0  0
   27.7305  -19.0131   -8.2113 C   0  0  0  0  0  0  0  0  0  0  0  0
   27.1638  -20.7717  -10.8539 C   0  0  0  0  0  0  0  0  0  0  0  0
   27.0975  -20.0289  -11.8607 O   0  0  0  0  0  0  0  0  0  0  0  0
   23.3884  -20.9756   -9.0320 O   0  0  0  0  0  0  0  0  0  0  0  0
   23.8142  -22.1041   -9.7630 C   0  0  0  0  0  0  0  0  0  0  0  0
   24.7581  -21.5870  -10.8310 C   0  0  2  0  0  0  0  0  0  0  0  0
   25.9399  -21.0869  -10.1988 N   0  0  0  0  0  0  0  0  0  0  0  0
   24.0172  -20.5851  -11.6129 C   0  0  0  0  0  0  0  0  0  0  0  0
   24.1618  -19.3798  -11.2978 O   0  0  0  0  0  0  0  0  0  0  0  0
   22.9509  -17.4630  -15.9464 C   0  0  0  0  0  0  0  0  0  0  0  0
   22.0627  -18.6118  -15.5911 C   0  0  0  0  0  0  0  0  0  0  0  0
   22.7051  -19.7376  -14.8711 C   0  0  2  0  0  0  0  0  0  0  0  0
   22.4638  -21.0055  -15.6645 C   0  0  0  0  0  0  0  0  0  0  0  0
   22.4162  -19.8872  -13.4264 C   0  0  2  0  0  0  0  0  0  0  0  0
   23.1441  -20.8727  -12.7028 N   0  0  0  0  0  0  0  0  0  0  0  0
   20.9509  -19.9832  -13.2471 C   0  0  0  0  0  0  0  0  0  0  0  0
   20.4274  -21.1226  -13.2436 O   0  0  0  0  0  0  0  0  0  0  0  0
   20.1346  -18.8869  -13.0843 O   0  0  0  0  0  0  0  0  0  0  0  0
  2  1  1  6
  2 10  1  0
  3  2  1  0
  3  4  1  0
  4  5  2  0
  4  9  1  0
  5  6  1  0
  6  7  2  0
  8  7  1  0
  9  8  2  0
 10 11  2  0
 12 13  1  0
 14 13  1  1
 14 16  1  0
 15 14  1  0
 15 10  1  0
 16 23  1  0
 16 17  2  0
 18 19  1  0
 19 20  1  0
 20 22  1  0
 20 21  1  6
 22 24  1  0
 22 23  1  6
 24 25  2  0
 24 26  1  0
M  END
$$$$
