FSI.pdb
     RDKit          3D

 26 26  0  0  1  0  0  0  0  0999 V2000
   23.1013  -22.0181  -13.2293 N   0  0  0  0  0  0  0  0  0  0  0  0
   23.6769  -20.8765  -12.5505 C   0  0  1  0  0  0  0  0  0  0  0  0
   22.5355  -20.0115  -12.0677 C   0  0  0  0  0  0  0  0  0  0  0  0
   21.9248  -19.3545  -13.2658 C   0  0  0  0  0  0  0  0  0  0  0  0
   20.6437  -19.5889  -13.6885 C   0  0  0  0  0  0  0  0  0  0  0  0
   20.0983  -18.9692  -14.8024 C   0  0  0  0  0  0  0  0  0  0  0  0
   20.8688  -18.0855  -15.5123 C   0  0  0  0  0  0  0  0  0  0  0  0
   22.1602  -17.8192  -15.1252 C   0  0  0  0  0  0  0  0  0  0  0  0
   22.6764  -18.4464  -14.0181 C   0  0  0  0  0  0  0  0  0  0  0  0
   24.5253  -21.3649  -11.4484 C   0  0  0  0  0  0  0  0  0  0  0  0
   24.0614  -22.2139  -10.6523 O   0  0  0  0  0  0  0  0  0  0  0  0
   28.4169  -20.4264  -11.4821 O   0  0  0  0  0  0  0  0  0  0  0  0
   28.1142  -21.5848  -10.7368 C   0  0  0  0  0  0  0  0  0  0  0  0
   26.7222  -21.3758  -10.1733 C   0  0  2  0  0  0  0  0  0  0  0  0
   25.8616  -20.9284  -11.2248 N   0  0  0  0  0  0  0  0  0  0  0  0
   26.8488  -20.4343   -9.0499 C   0  0  0  0  0  0  0  0  0  0  0  0
   26.3488  -19.2926   -9.1901 O   0  0  0  0  0  0  0  0  0  0  0  0
   27.4298  -21.7495   -3.4588 C   0  0  0  0  0  0  0  0  0  0  0  0
   27.0541  -21.2204   -4.8055 C   0  0  0  0  0  0  0  0  0  0  0  0
   28.0021  -20.2594   -5.4190 C   0  0  2  0  0  0  0  0  0  0  0  0
   28.2700  -19.1547   -4.4174 C   0  0  0  0  0  0  0  0  0  0  0  0
   27.6923  -19.7560   -6.7768 C   0  0  2  0  0  0  0  0  0  0  0  0
   27.4963  -20.7137   -7.8108 N   0  0  0  0  0  0  0  0  0  0  0  0
   28.6723  -18.7032   -7.1231 C   0  0  0  0  0  0  0  0  0  0  0  0
   29.6936  -19.0338   -7.7710 O   0  0  0  0  0  0  0  0  0  0  0  0
   28.5198  -17.3814   -6.7705 O   0  0  0  0  0  0  0  0  0  0  0  0
  2  1  1  1
  2 10  1  0
  3  2  1  0
  3  4  1  0
  4  5  2  0
  4  9  1  0
  5  6  1  0
  6  7  2  0
  8  7  1  0
  9  8  2  0
 10 11  2  0
 12 13  1  0
 14 13  1  6
 14 16  1  0
 15 14  1  0
 15 10  1  0
 16 23  1  0
 16 17  2  0
 18 19  1  0
 19 20  1  0
 20 22  1  0
 20 21  1  1
 22 24  1  0
 22 23  1  6
 24 25  2  0
 24 26  1  0
M  END
$$$$
