FSI.pdb
     RDKit          3D

 26 26  0  0  1  0  0  0  0  0999 V2000
   18.2575  -11.1043  -14.4470 N   0  0  0  0  0  0  0  0  0  0  0  0
   17.3440  -10.0102  -14.6999 C   0  0  1  0  0  0  0  0  0  0  0  0
   15.9395  -10.5616  -14.6154 C   0  0  0  0  0  0  0  0  0  0  0  0
   15.7239  -11.4410  -15.8071 C   0  0  0  0  0  0  0  0  0  0  0  0
   15.5852  -10.9670  -17.0842 C   0  0  0  0  0  0  0  0  0  0  0  0
   15.3855  -11.8006  -18.1739 C   0  0  0  0  0  0  0  0  0  0  0  0
   15.3235  -13.1544  -17.9697 C   0  0  0  0  0  0  0  0  0  0  0  0
   15.4574  -13.6755  -16.7051 C   0  0  0  0  0  0  0  0  0  0  0  0
   15.6545  -12.8281  -15.6428 C   0  0  0  0  0  0  0  0  0  0  0  0
   17.5982   -8.9486  -13.7094 C   0  0  0  0  0  0  0  0  0  0  0  0
   17.7985   -9.2656  -12.5139 O   0  0  0  0  0  0  0  0  0  0  0  0
   17.4459   -5.1226  -14.9534 O   0  0  0  0  0  0  0  0  0  0  0  0
   18.3050   -5.2684  -13.8444 C   0  0  0  0  0  0  0  0  0  0  0  0
   17.8246   -6.4947  -13.0932 C   0  0  2  0  0  0  0  0  0  0  0  0
   17.6324   -7.5613  -14.0268 N   0  0  0  0  0  0  0  0  0  0  0  0
   16.6107   -6.1031  -12.3600 C   0  0  0  0  0  0  0  0  0  0  0  0
   15.5056   -6.3004  -12.9193 O   0  0  0  0  0  0  0  0  0  0  0  0
   15.1795   -7.5099   -7.3292 C   0  0  0  0  0  0  0  0  0  0  0  0
   15.3022   -7.0678   -8.7520 C   0  0  0  0  0  0  0  0  0  0  0  0
   15.2085   -5.6080   -8.9944 C   0  0  2  0  0  0  0  0  0  0  0  0
   13.9307   -5.1036   -8.3554 C   0  0  0  0  0  0  0  0  0  0  0  0
   15.3998   -5.1251  -10.3811 C   0  0  2  0  0  0  0  0  0  0  0  0
   16.5872   -5.5147  -11.0615 N   0  0  0  0  0  0  0  0  0  0  0  0
   15.1526   -3.6668  -10.4097 C   0  0  0  0  0  0  0  0  0  0  0  0
   13.9668   -3.2649  -10.3415 O   0  0  0  0  0  0  0  0  0  0  0  0
   16.1568   -2.7304  -10.5074 O   0  0  0  0  0  0  0  0  0  0  0  0
  2  1  1  1
  2 10  1  0
  3  2  1  0
  3  4  1  0
  4  5  2  0
  4  9  1  0
  5  6  1  0
  6  7  2  0
  8  7  1  0
  9  8  2  0
 10 11  2  0
 12 13  1  0
 14 13  1  6
 14 16  1  0
 15 14  1  0
 15 10  1  0
 16 23  1  0
 16 17  2  0
 18 19  1  0
 19 20  1  0
 20 22  1  0
 20 21  1  6
 22 24  1  0
 22 23  1  1
 24 25  2  0
 24 26  1  0
M  END
$$$$
