EKN.pdb
     RDKit          3D

 27 26  0  0  1  0  0  0  0  0999 V2000
   28.1169  -20.0800  -18.7562 N   0  0  0  0  0  0  0  0  0  0  0  0
   28.2900  -18.9149  -17.9872 C   0  0  1  0  0  0  0  0  0  0  0  0
   28.7152  -17.6861  -18.6827 C   0  0  0  0  0  0  0  0  0  0  0  0
   27.9475  -17.2219  -19.8539 C   0  0  0  0  0  0  0  0  0  0  0  0
   28.7150  -16.8512  -21.0487 C   0  0  0  0  0  0  0  0  0  0  0  0
   29.6540  -16.0368  -21.0699 O   0  0  0  0  0  0  0  0  0  0  0  0
   27.1364  -18.6838  -17.0664 C   0  0  0  0  0  0  0  0  0  0  0  0
   27.1751  -17.7313  -16.2248 O   0  0  0  0  0  0  0  0  0  0  0  0
   28.3581  -17.4623  -22.2444 O   0  0  0  0  0  0  0  0  0  0  0  0
   25.9919  -19.4991  -17.0990 N   0  0  0  0  0  0  0  0  0  0  0  0
   24.8500  -19.4387  -16.2221 C   0  0  1  0  0  0  0  0  0  0  0  0
   23.5024  -19.6064  -16.9423 C   0  0  0  0  0  0  0  0  0  0  0  0
   22.4804  -18.6241  -16.4801 C   0  0  0  0  0  0  0  0  0  0  0  0
   21.1647  -18.8510  -17.2301 C   0  0  0  0  0  0  0  0  0  0  0  0
   20.1247  -17.8842  -16.7112 C   0  0  0  0  0  0  0  0  0  0  0  0
   18.8785  -18.1331  -17.3890 N   0  0  0  0  0  0  0  0  0  0  0  0
   24.9010  -20.2459  -15.0269 C   0  0  0  0  0  0  0  0  0  0  0  0
   25.0433  -21.5104  -15.1093 O   0  0  0  0  0  0  0  0  0  0  0  0
   25.3544  -22.1781  -10.1830 N   0  0  0  0  0  0  0  0  0  0  0  0
   25.7616  -20.8248  -10.2319 C   0  0  0  0  0  0  0  0  0  0  0  0
   26.2160  -20.3473   -9.1354 O   0  0  0  0  0  0  0  0  0  0  0  0
   25.7036  -19.9561  -11.4192 C   0  0  0  0  0  0  0  0  0  0  0  0
   24.9808  -20.6520  -12.5200 C   0  0  2  0  0  0  0  0  0  0  0  0
   24.8052  -19.7685  -13.6874 N   0  0  0  0  0  0  0  0  0  0  0  0
   23.5688  -20.9644  -12.0943 C   0  0  0  0  0  0  0  0  0  0  0  0
   22.5776  -20.3486  -12.5237 O   0  0  0  0  0  0  0  0  0  0  0  0
   23.3209  -21.9868  -11.1756 O   0  0  0  0  0  0  0  0  0  0  0  0
  2  1  1  6
  2  3  1  0
  2  7  1  0
  4  3  1  0
  5  4  1  0
  5  9  1  0
  6  5  2  0
  7 10  1  0
  7  8  2  0
 10 11  1  0
 11 12  1  6
 13 14  1  0
 13 12  1  0
 14 15  1  0
 16 15  1  0
 17 11  1  0
 17 18  2  0
 20 19  1  0
 20 22  1  0
 21 20  2  0
 23 22  1  1
 23 24  1  0
 24 17  1  0
 25 27  1  0
 25 23  1  0
 26 25  2  0
M  END
$$$$
