EKN.pdb
     RDKit          3D

 27 26  0  0  1  0  0  0  0  0999 V2000
   21.7457  -13.7591  -17.3512 N   0  0  0  0  0  0  0  0  0  0  0  0
   22.5592  -12.7778  -16.7564 C   0  0  1  0  0  0  0  0  0  0  0  0
   23.9470  -12.6474  -17.2378 C   0  0  0  0  0  0  0  0  0  0  0  0
   24.8673  -11.7329  -16.5355 C   0  0  0  0  0  0  0  0  0  0  0  0
   26.2739  -12.1427  -16.4466 C   0  0  0  0  0  0  0  0  0  0  0  0
   27.0389  -12.2845  -17.4162 O   0  0  0  0  0  0  0  0  0  0  0  0
   21.8583  -11.4619  -16.6613 C   0  0  0  0  0  0  0  0  0  0  0  0
   22.1391  -10.5308  -17.4807 O   0  0  0  0  0  0  0  0  0  0  0  0
   26.7817  -12.3893  -15.1770 O   0  0  0  0  0  0  0  0  0  0  0  0
   20.8843  -11.2143  -15.6786 N   0  0  0  0  0  0  0  0  0  0  0  0
   20.0479  -10.0478  -15.5507 C   0  0  1  0  0  0  0  0  0  0  0  0
   18.6859  -10.3272  -14.8953 C   0  0  0  0  0  0  0  0  0  0  0  0
   17.8176  -11.2045  -15.7317 C   0  0  0  0  0  0  0  0  0  0  0  0
   16.4436  -11.3564  -15.0727 C   0  0  0  0  0  0  0  0  0  0  0  0
   15.5957  -12.2927  -15.9034 C   0  0  0  0  0  0  0  0  0  0  0  0
   14.3357  -12.4954  -15.2360 N   0  0  0  0  0  0  0  0  0  0  0  0
   20.6574   -8.8653  -14.9914 C   0  0  0  0  0  0  0  0  0  0  0  0
   21.3477   -8.9409  -13.9218 O   0  0  0  0  0  0  0  0  0  0  0  0
   23.6790   -3.9303  -14.8726 N   0  0  0  0  0  0  0  0  0  0  0  0
   22.3538   -4.2807  -15.2196 C   0  0  0  0  0  0  0  0  0  0  0  0
   21.4637   -3.4027  -14.9481 O   0  0  0  0  0  0  0  0  0  0  0  0
   21.9407   -5.5436  -15.8537 C   0  0  0  0  0  0  0  0  0  0  0  0
   21.2086   -6.3880  -14.8690 C   0  0  2  0  0  0  0  0  0  0  0  0
   20.5738   -7.5462  -15.5246 N   0  0  0  0  0  0  0  0  0  0  0  0
   20.0444   -5.6211  -14.2956 C   0  0  0  0  0  0  0  0  0  0  0  0
   18.9330   -5.5581  -14.8498 O   0  0  0  0  0  0  0  0  0  0  0  0
   20.1806   -4.9353  -13.0865 O   0  0  0  0  0  0  0  0  0  0  0  0
  2  1  1  6
  2  3  1  0
  2  7  1  0
  4  3  1  0
  5  4  1  0
  5  9  1  0
  6  5  2  0
  7 10  1  0
  7  8  2  0
 10 11  1  0
 11 12  1  1
 13 14  1  0
 13 12  1  0
 14 15  1  0
 16 15  1  0
 17 11  1  0
 17 18  2  0
 20 19  1  0
 20 22  1  0
 21 20  2  0
 23 22  1  6
 23 24  1  0
 24 17  1  0
 25 27  1  0
 25 23  1  0
 26 25  2  0
M  END
$$$$
