EKN.pdb
     RDKit          3D

 27 26  0  0  1  0  0  0  0  0999 V2000
   14.1831  -11.4030  -12.9135 N   0  0  0  0  0  0  0  0  0  0  0  0
   15.2790  -11.1908  -12.0577 C   0  0  1  0  0  0  0  0  0  0  0  0
   16.4795  -12.0243  -12.2542 C   0  0  0  0  0  0  0  0  0  0  0  0
   16.5220  -12.9651  -13.3899 C   0  0  0  0  0  0  0  0  0  0  0  0
   15.9082  -14.2827  -13.1861 C   0  0  0  0  0  0  0  0  0  0  0  0
   15.7466  -15.1398  -14.0719 O   0  0  0  0  0  0  0  0  0  0  0  0
   15.6037   -9.7386  -11.9248 C   0  0  0  0  0  0  0  0  0  0  0  0
   15.6684   -9.0037  -12.9606 O   0  0  0  0  0  0  0  0  0  0  0  0
   15.4774  -14.5877  -11.9008 O   0  0  0  0  0  0  0  0  0  0  0  0
   15.8459   -9.1486  -10.6721 N   0  0  0  0  0  0  0  0  0  0  0  0
   16.0733   -7.7535  -10.3920 C   0  0  1  0  0  0  0  0  0  0  0  0
   15.4441   -7.2725   -9.0746 C   0  0  0  0  0  0  0  0  0  0  0  0
   15.5334   -5.7940   -8.9041 C   0  0  0  0  0  0  0  0  0  0  0  0
   14.6574   -5.3524   -7.7282 C   0  0  0  0  0  0  0  0  0  0  0  0
   14.5267   -3.8463   -7.7450 C   0  0  0  0  0  0  0  0  0  0  0  0
   13.8296   -3.4264   -6.5568 N   0  0  0  0  0  0  0  0  0  0  0  0
   17.4279   -7.2734  -10.5229 C   0  0  0  0  0  0  0  0  0  0  0  0
   18.3695   -7.8111   -9.8517 O   0  0  0  0  0  0  0  0  0  0  0  0
   21.9458   -5.8464  -12.6059 N   0  0  0  0  0  0  0  0  0  0  0  0
   21.1812   -7.0010  -12.8920 C   0  0  0  0  0  0  0  0  0  0  0  0
   21.7864   -7.9100  -13.5586 O   0  0  0  0  0  0  0  0  0  0  0  0
   19.7834   -7.2239  -12.4867 C   0  0  0  0  0  0  0  0  0  0  0  0
   19.2744   -6.0332  -11.7508 C   0  0  2  0  0  0  0  0  0  0  0  0
   17.8626   -6.2071  -11.3628 N   0  0  0  0  0  0  0  0  0  0  0  0
   19.2476   -4.8341  -12.6640 C   0  0  0  0  0  0  0  0  0  0  0  0
   18.2818   -4.5601  -13.3977 O   0  0  0  0  0  0  0  0  0  0  0  0
   20.3403   -3.9657  -12.7173 O   0  0  0  0  0  0  0  0  0  0  0  0
  2  1  1  6
  2  3  1  0
  2  7  1  0
  4  3  1  0
  5  4  1  0
  5  9  1  0
  6  5  2  0
  7 10  1  0
  7  8  2  0
 10 11  1  0
 11 12  1  1
 13 14  1  0
 13 12  1  0
 14 15  1  0
 16 15  1  0
 17 11  1  0
 17 18  2  0
 20 19  1  0
 20 22  1  0
 21 20  2  0
 23 22  1  6
 23 24  1  0
 24 17  1  0
 25 27  1  0
 25 23  1  0
 26 25  2  0
M  END
$$$$
