EKN.pdb
     RDKit          3D

 27 26  0  0  1  0  0  0  0  0999 V2000
   16.2991  -13.4555  -15.4771 N   0  0  0  0  0  0  0  0  0  0  0  0
   17.0330  -12.8885  -16.5347 C   0  0  1  0  0  0  0  0  0  0  0  0
   16.6512  -13.2516  -17.9120 C   0  0  0  0  0  0  0  0  0  0  0  0
   16.3896  -14.6672  -18.2347 C   0  0  0  0  0  0  0  0  0  0  0  0
   15.1593  -15.2570  -17.6937 C   0  0  0  0  0  0  0  0  0  0  0  0
   15.1055  -16.2928  -17.0084 O   0  0  0  0  0  0  0  0  0  0  0  0
   17.2104  -11.4157  -16.3573 C   0  0  0  0  0  0  0  0  0  0  0  0
   17.9181  -10.7562  -17.1827 O   0  0  0  0  0  0  0  0  0  0  0  0
   13.9671  -14.6007  -17.9737 O   0  0  0  0  0  0  0  0  0  0  0  0
   16.6127  -10.7241  -15.2895 N   0  0  0  0  0  0  0  0  0  0  0  0
   16.7269   -9.3206  -14.9835 C   0  0  1  0  0  0  0  0  0  0  0  0
   15.5243   -8.7514  -14.2137 C   0  0  0  0  0  0  0  0  0  0  0  0
   14.2371   -8.9412  -14.9418 C   0  0  0  0  0  0  0  0  0  0  0  0
   13.0679   -8.5107  -14.0514 C   0  0  0  0  0  0  0  0  0  0  0  0
   11.7739   -8.6828  -14.8141 C   0  0  0  0  0  0  0  0  0  0  0  0
   10.6720   -8.3971  -13.9317 N   0  0  0  0  0  0  0  0  0  0  0  0
   17.9703   -8.8786  -14.3993 C   0  0  0  0  0  0  0  0  0  0  0  0
   18.3946   -9.4009  -13.3161 O   0  0  0  0  0  0  0  0  0  0  0  0
   23.5328   -9.3855  -14.2144 N   0  0  0  0  0  0  0  0  0  0  0  0
   22.3977   -8.5604  -14.0404 C   0  0  0  0  0  0  0  0  0  0  0  0
   22.5905   -7.4973  -13.3553 O   0  0  0  0  0  0  0  0  0  0  0  0
   21.0536   -8.8295  -14.5779 C   0  0  0  0  0  0  0  0  0  0  0  0
   20.1853   -7.6339  -14.3898 C   0  0  2  0  0  0  0  0  0  0  0  0
   18.8298   -7.8683  -14.9207 N   0  0  0  0  0  0  0  0  0  0  0  0
   20.6997   -6.4861  -15.2207 C   0  0  0  0  0  0  0  0  0  0  0  0
   21.5671   -5.6912  -14.8184 O   0  0  0  0  0  0  0  0  0  0  0  0
   20.2033   -6.2718  -16.5085 O   0  0  0  0  0  0  0  0  0  0  0  0
  2  1  1  1
  2  3  1  0
  2  7  1  0
  4  3  1  0
  5  4  1  0
  5  9  1  0
  6  5  2  0
  7 10  1  0
  7  8  2  0
 10 11  1  0
 11 12  1  1
 13 14  1  0
 13 12  1  0
 14 15  1  0
 16 15  1  0
 17 11  1  0
 17 18  2  0
 20 19  1  0
 20 22  1  0
 21 20  2  0
 23 22  1  6
 23 24  1  0
 24 17  1  0
 25 27  1  0
 25 23  1  0
 26 25  2  0
M  END
$$$$
