EKN.pdb
     RDKit          3D

 27 26  0  0  1  0  0  0  0  0999 V2000
   26.7587  -24.0464  -17.7420 N   0  0  0  0  0  0  0  0  0  0  0  0
   27.2652  -23.0318  -16.9097 C   0  0  1  0  0  0  0  0  0  0  0  0
   28.5936  -22.4766  -17.2289 C   0  0  0  0  0  0  0  0  0  0  0  0
   29.3241  -22.9926  -18.4022 C   0  0  0  0  0  0  0  0  0  0  0  0
   30.6140  -22.3647  -18.7123 C   0  0  0  0  0  0  0  0  0  0  0  0
   30.7566  -21.2359  -19.2131 O   0  0  0  0  0  0  0  0  0  0  0  0
   26.2467  -21.9704  -16.6493 C   0  0  0  0  0  0  0  0  0  0  0  0
   26.5125  -21.0152  -15.8529 O   0  0  0  0  0  0  0  0  0  0  0  0
   31.7594  -23.0952  -18.4203 O   0  0  0  0  0  0  0  0  0  0  0  0
   24.9828  -21.9942  -17.2640 N   0  0  0  0  0  0  0  0  0  0  0  0
   23.9106  -21.0464  -17.0957 C   0  0  1  0  0  0  0  0  0  0  0  0
   23.3476  -20.5020  -18.4184 C   0  0  0  0  0  0  0  0  0  0  0  0
   24.3846  -19.8189  -19.2437 C   0  0  0  0  0  0  0  0  0  0  0  0
   23.7531  -19.2805  -20.5307 C   0  0  0  0  0  0  0  0  0  0  0  0
   24.8341  -18.6789  -21.3998 C   0  0  0  0  0  0  0  0  0  0  0  0
   24.2390  -18.2084  -22.6240 N   0  0  0  0  0  0  0  0  0  0  0  0
   22.8458  -21.4179  -16.1951 C   0  0  0  0  0  0  0  0  0  0  0  0
   22.8734  -22.5423  -15.5942 O   0  0  0  0  0  0  0  0  0  0  0  0
   19.3018  -21.6604  -12.4815 N   0  0  0  0  0  0  0  0  0  0  0  0
   20.6062  -21.1331  -12.3398 C   0  0  0  0  0  0  0  0  0  0  0  0
   20.9962  -20.9468  -11.1357 O   0  0  0  0  0  0  0  0  0  0  0  0
   21.5182  -20.7974  -13.4458 C   0  0  0  0  0  0  0  0  0  0  0  0
   20.8110  -20.9484  -14.7479 C   0  0  2  0  0  0  0  0  0  0  0  0
   21.7005  -20.6303  -15.8800 N   0  0  0  0  0  0  0  0  0  0  0  0
   19.7112  -19.9236  -14.8602 C   0  0  0  0  0  0  0  0  0  0  0  0
   19.9085  -18.7527  -15.2294 O   0  0  0  0  0  0  0  0  0  0  0  0
   18.3949  -20.2665  -14.5434 O   0  0  0  0  0  0  0  0  0  0  0  0
  2  1  1  6
  2  3  1  0
  2  7  1  0
  4  3  1  0
  5  4  1  0
  5  9  1  0
  6  5  2  0
  7 10  1  0
  7  8  2  0
 10 11  1  0
 11 12  1  6
 13 14  1  0
 13 12  1  0
 14 15  1  0
 16 15  1  0
 17 11  1  0
 17 18  2  0
 20 19  1  0
 20 22  1  0
 21 20  2  0
 23 22  1  1
 23 24  1  0
 24 17  1  0
 25 27  1  0
 25 23  1  0
 26 25  2  0
M  END
$$$$
