EKN.pdb
     RDKit          3D

 27 26  0  0  1  0  0  0  0  0999 V2000
   25.2505  -15.4928  -17.8666 N   0  0  0  0  0  0  0  0  0  0  0  0
   24.0520  -15.8041  -18.5339 C   0  0  1  0  0  0  0  0  0  0  0  0
   24.0588  -15.7868  -20.0085 C   0  0  0  0  0  0  0  0  0  0  0  0
   25.3010  -15.4227  -20.7162 C   0  0  0  0  0  0  0  0  0  0  0  0
   25.1794  -14.4732  -21.8288 C   0  0  0  0  0  0  0  0  0  0  0  0
   24.5285  -14.6718  -22.8691 O   0  0  0  0  0  0  0  0  0  0  0  0
   23.4125  -17.0341  -17.9771 C   0  0  0  0  0  0  0  0  0  0  0  0
   22.5395  -17.6608  -18.6570 O   0  0  0  0  0  0  0  0  0  0  0  0
   25.8465  -13.2610  -21.7015 O   0  0  0  0  0  0  0  0  0  0  0  0
   23.7480  -17.5283  -16.7047 N   0  0  0  0  0  0  0  0  0  0  0  0
   23.1773  -18.6668  -16.0304 C   0  0  1  0  0  0  0  0  0  0  0  0
   24.0023  -19.1572  -14.8297 C   0  0  0  0  0  0  0  0  0  0  0  0
   24.6047  -20.5015  -15.0601 C   0  0  0  0  0  0  0  0  0  0  0  0
   25.8755  -20.3642  -15.9034 C   0  0  0  0  0  0  0  0  0  0  0  0
   26.4513  -21.7383  -16.1604 C   0  0  0  0  0  0  0  0  0  0  0  0
   27.4557  -21.6373  -17.1877 N   0  0  0  0  0  0  0  0  0  0  0  0
   21.7748  -18.5938  -15.6982 C   0  0  0  0  0  0  0  0  0  0  0  0
   21.3115  -17.5798  -15.0790 O   0  0  0  0  0  0  0  0  0  0  0  0
   16.1887  -18.4934  -16.6551 N   0  0  0  0  0  0  0  0  0  0  0  0
   17.0717  -19.5652  -16.3886 C   0  0  0  0  0  0  0  0  0  0  0  0
   16.5706  -20.5391  -15.7273 O   0  0  0  0  0  0  0  0  0  0  0  0
   18.4812  -19.6373  -16.8080 C   0  0  0  0  0  0  0  0  0  0  0  0
   19.3701  -19.4116  -15.6343 C   0  0  2  0  0  0  0  0  0  0  0  0
   20.7892  -19.5787  -15.9979 N   0  0  0  0  0  0  0  0  0  0  0  0
   19.1394  -20.4819  -14.5982 C   0  0  0  0  0  0  0  0  0  0  0  0
   18.2066  -20.4429  -13.7769 O   0  0  0  0  0  0  0  0  0  0  0  0
   19.9921  -21.5857  -14.5249 O   0  0  0  0  0  0  0  0  0  0  0  0
  2  1  1  6
  2  3  1  0
  2  7  1  0
  4  3  1  0
  5  4  1  0
  5  9  1  0
  6  5  2  0
  7 10  1  0
  7  8  2  0
 10 11  1  0
 11 12  1  1
 13 14  1  0
 13 12  1  0
 14 15  1  0
 16 15  1  0
 17 11  1  0
 17 18  2  0
 20 19  1  0
 20 22  1  0
 21 20  2  0
 23 22  1  6
 23 24  1  0
 24 17  1  0
 25 27  1  0
 25 23  1  0
 26 25  2  0
M  END
$$$$
