EKN.pdb
     RDKit          3D

 27 26  0  0  1  0  0  0  0  0999 V2000
   19.7527  -13.2993  -16.1098 N   0  0  0  0  0  0  0  0  0  0  0  0
   19.6552  -12.0028  -16.6468 C   0  0  1  0  0  0  0  0  0  0  0  0
   18.3072  -11.4491  -16.8726 C   0  0  0  0  0  0  0  0  0  0  0  0
   17.2449  -12.3338  -17.3878 C   0  0  0  0  0  0  0  0  0  0  0  0
   16.6209  -13.2531  -16.4288 C   0  0  0  0  0  0  0  0  0  0  0  0
   16.0684  -12.9122  -15.3687 O   0  0  0  0  0  0  0  0  0  0  0  0
   20.5596  -11.0438  -15.9438 C   0  0  0  0  0  0  0  0  0  0  0  0
   20.2805  -10.6524  -14.7666 O   0  0  0  0  0  0  0  0  0  0  0  0
   16.6547  -14.6075  -16.7373 O   0  0  0  0  0  0  0  0  0  0  0  0
   21.7270  -10.5501  -16.5517 N   0  0  0  0  0  0  0  0  0  0  0  0
   22.6951   -9.6478  -15.9817 C   0  0  1  0  0  0  0  0  0  0  0  0
   24.1469   -9.9612  -16.3779 C   0  0  0  0  0  0  0  0  0  0  0  0
   24.6102  -11.2793  -15.8575 C   0  0  0  0  0  0  0  0  0  0  0  0
   26.0781  -11.5001  -16.2341 C   0  0  0  0  0  0  0  0  0  0  0  0
   26.5417  -12.8234  -15.6689 C   0  0  0  0  0  0  0  0  0  0  0  0
   26.5246  -13.8095  -16.7184 N   0  0  0  0  0  0  0  0  0  0  0  0
   22.4208   -8.2359  -16.0998 C   0  0  0  0  0  0  0  0  0  0  0  0
   22.1186   -7.7308  -17.2310 O   0  0  0  0  0  0  0  0  0  0  0  0
   20.9826   -3.2763  -15.3654 N   0  0  0  0  0  0  0  0  0  0  0  0
   20.1946   -4.3874  -15.7447 C   0  0  0  0  0  0  0  0  0  0  0  0
   19.0287   -4.1079  -16.1914 O   0  0  0  0  0  0  0  0  0  0  0  0
   20.6100   -5.7978  -15.6667 C   0  0  0  0  0  0  0  0  0  0  0  0
   22.0298   -5.8829  -15.2246 C   0  0  2  0  0  0  0  0  0  0  0  0
   22.4495   -7.2841  -15.0393 N   0  0  0  0  0  0  0  0  0  0  0  0
   22.1799   -5.2814  -13.8505 C   0  0  0  0  0  0  0  0  0  0  0  0
   22.5164   -5.9424  -12.8524 O   0  0  0  0  0  0  0  0  0  0  0  0
   21.9381   -3.9209  -13.6477 O   0  0  0  0  0  0  0  0  0  0  0  0
  2  1  1  1
  2  3  1  0
  2  7  1  0
  4  3  1  0
  5  4  1  0
  5  9  1  0
  6  5  2  0
  7 10  1  0
  7  8  2  0
 10 11  1  0
 11 12  1  6
 13 14  1  0
 13 12  1  0
 14 15  1  0
 16 15  1  0
 17 11  1  0
 17 18  2  0
 20 19  1  0
 20 22  1  0
 21 20  2  0
 23 22  1  1
 23 24  1  0
 24 17  1  0
 25 27  1  0
 25 23  1  0
 26 25  2  0
M  END
$$$$
