EKN.pdb
     RDKit          3D

 27 26  0  0  1  0  0  0  0  0999 V2000
   16.4957  -12.6001  -16.7523 N   0  0  0  0  0  0  0  0  0  0  0  0
   16.9716  -12.4580  -15.4363 C   0  0  1  0  0  0  0  0  0  0  0  0
   16.8253  -13.6057  -14.5220 C   0  0  0  0  0  0  0  0  0  0  0  0
   15.9642  -14.7355  -14.9204 C   0  0  0  0  0  0  0  0  0  0  0  0
   15.9813  -15.9223  -14.0571 C   0  0  0  0  0  0  0  0  0  0  0  0
   15.3215  -16.0545  -13.0118 O   0  0  0  0  0  0  0  0  0  0  0  0
   18.3449  -11.8706  -15.4054 C   0  0  0  0  0  0  0  0  0  0  0  0
   18.9831  -11.8022  -14.3076 O   0  0  0  0  0  0  0  0  0  0  0  0
   16.8009  -16.9750  -14.4454 O   0  0  0  0  0  0  0  0  0  0  0  0
   18.9642  -11.3812  -16.5685 N   0  0  0  0  0  0  0  0  0  0  0  0
   20.2611  -10.7622  -16.6743 C   0  0  1  0  0  0  0  0  0  0  0  0
   20.9674  -11.0220  -18.0147 C   0  0  0  0  0  0  0  0  0  0  0  0
   22.3825  -10.5525  -18.0162 C   0  0  0  0  0  0  0  0  0  0  0  0
   22.9965  -10.7566  -19.4042 C   0  0  0  0  0  0  0  0  0  0  0  0
   24.4655  -10.4031  -19.3538 C   0  0  0  0  0  0  0  0  0  0  0  0
   25.0639  -10.7177  -20.6255 N   0  0  0  0  0  0  0  0  0  0  0  0
   20.3529   -9.3706  -16.3032 C   0  0  0  0  0  0  0  0  0  0  0  0
   19.5335   -8.5203  -16.7844 O   0  0  0  0  0  0  0  0  0  0  0  0
   21.3832   -4.7069  -14.1585 N   0  0  0  0  0  0  0  0  0  0  0  0
   21.9987   -5.7275  -13.3976 C   0  0  0  0  0  0  0  0  0  0  0  0
   22.5829   -5.3394  -12.3276 O   0  0  0  0  0  0  0  0  0  0  0  0
   22.0110   -7.1598  -13.7384 C   0  0  0  0  0  0  0  0  0  0  0  0
   21.2634   -7.3841  -15.0070 C   0  0  2  0  0  0  0  0  0  0  0  0
   21.3072   -8.8016  -15.4104 N   0  0  0  0  0  0  0  0  0  0  0  0
   21.9484   -6.6690  -16.1436 C   0  0  0  0  0  0  0  0  0  0  0  0
   23.0264   -7.0483  -16.6338 O   0  0  0  0  0  0  0  0  0  0  0  0
   21.3771   -5.5222  -16.6996 O   0  0  0  0  0  0  0  0  0  0  0  0
  2  1  1  6
  2  3  1  0
  2  7  1  0
  4  3  1  0
  5  4  1  0
  5  9  1  0
  6  5  2  0
  7 10  1  0
  7  8  2  0
 10 11  1  0
 11 12  1  6
 13 14  1  0
 13 12  1  0
 14 15  1  0
 16 15  1  0
 17 11  1  0
 17 18  2  0
 20 19  1  0
 20 22  1  0
 21 20  2  0
 23 22  1  1
 23 24  1  0
 24 17  1  0
 25 27  1  0
 25 23  1  0
 26 25  2  0
M  END
$$$$
