EKN.pdb
     RDKit          3D

 27 26  0  0  1  0  0  0  0  0999 V2000
   26.4449  -11.7283  -17.8819 N   0  0  0  0  0  0  0  0  0  0  0  0
   26.1920  -10.7559  -16.8974 C   0  0  1  0  0  0  0  0  0  0  0  0
   27.2458   -9.7614  -16.6232 C   0  0  0  0  0  0  0  0  0  0  0  0
   28.1442   -9.3473  -17.7177 C   0  0  0  0  0  0  0  0  0  0  0  0
   29.5625   -9.7005  -17.5843 C   0  0  0  0  0  0  0  0  0  0  0  0
   30.4605   -9.3597  -18.3736 O   0  0  0  0  0  0  0  0  0  0  0  0
   24.8450  -10.1330  -17.0686 C   0  0  0  0  0  0  0  0  0  0  0  0
   24.5877   -9.4499  -18.1099 O   0  0  0  0  0  0  0  0  0  0  0  0
   29.9209  -10.4758  -16.4884 O   0  0  0  0  0  0  0  0  0  0  0  0
   23.8368  -10.2777  -16.0999 N   0  0  0  0  0  0  0  0  0  0  0  0
   22.4930   -9.7603  -16.1523 C   0  0  1  0  0  0  0  0  0  0  0  0
   21.4081  -10.8180  -15.8929 C   0  0  0  0  0  0  0  0  0  0  0  0
   20.0292  -10.2769  -16.0625 C   0  0  0  0  0  0  0  0  0  0  0  0
   19.0005  -11.3565  -15.7142 C   0  0  0  0  0  0  0  0  0  0  0  0
   17.6120  -10.8269  -15.9918 C   0  0  0  0  0  0  0  0  0  0  0  0
   16.6581  -11.8827  -15.7693 N   0  0  0  0  0  0  0  0  0  0  0  0
   22.2278   -8.5544  -15.4051 C   0  0  0  0  0  0  0  0  0  0  0  0
   22.5140   -8.4896  -14.1641 O   0  0  0  0  0  0  0  0  0  0  0  0
   22.3170   -4.4615  -13.0793 N   0  0  0  0  0  0  0  0  0  0  0  0
   22.4431   -4.1271  -14.4475 C   0  0  0  0  0  0  0  0  0  0  0  0
   22.9972   -2.9996  -14.6892 O   0  0  0  0  0  0  0  0  0  0  0  0
   21.9981   -4.9607  -15.5766 C   0  0  0  0  0  0  0  0  0  0  0  0
   21.3434   -6.1969  -15.0652 C   0  0  2  0  0  0  0  0  0  0  0  0
   21.6500   -7.3580  -15.9208 N   0  0  0  0  0  0  0  0  0  0  0  0
   19.8449   -6.0669  -15.1648 C   0  0  0  0  0  0  0  0  0  0  0  0
   19.2254   -6.1512  -16.2398 O   0  0  0  0  0  0  0  0  0  0  0  0
   19.0805   -5.8403  -14.0181 O   0  0  0  0  0  0  0  0  0  0  0  0
  2  1  1  6
  2  3  1  0
  2  7  1  0
  4  3  1  0
  5  4  1  0
  5  9  1  0
  6  5  2  0
  7 10  1  0
  7  8  2  0
 10 11  1  0
 11 12  1  1
 13 14  1  0
 13 12  1  0
 14 15  1  0
 16 15  1  0
 17 11  1  0
 17 18  2  0
 20 19  1  0
 20 22  1  0
 21 20  2  0
 23 22  1  6
 23 24  1  0
 24 17  1  0
 25 27  1  0
 25 23  1  0
 26 25  2  0
M  END
$$$$
