EKN.pdb
     RDKit          3D

 27 26  0  0  1  0  0  0  0  0999 V2000
   24.8345  -15.3398  -17.9397 N   0  0  0  0  0  0  0  0  0  0  0  0
   24.0555  -16.1033  -18.8279 C   0  0  1  0  0  0  0  0  0  0  0  0
   24.5997  -16.3644  -20.1734 C   0  0  0  0  0  0  0  0  0  0  0  0
   25.9323  -15.8369  -20.5234 C   0  0  0  0  0  0  0  0  0  0  0  0
   26.9523  -16.8150  -20.9200 C   0  0  0  0  0  0  0  0  0  0  0  0
   26.7183  -17.9202  -21.4385 O   0  0  0  0  0  0  0  0  0  0  0  0
   23.5215  -17.3365  -18.1752 C   0  0  0  0  0  0  0  0  0  0  0  0
   22.4479  -17.8681  -18.6016 O   0  0  0  0  0  0  0  0  0  0  0  0
   28.2796  -16.4710  -20.6949 O   0  0  0  0  0  0  0  0  0  0  0  0
   24.1764  -17.9371  -17.0860 N   0  0  0  0  0  0  0  0  0  0  0  0
   23.7326  -19.0716  -16.3163 C   0  0  1  0  0  0  0  0  0  0  0  0
   24.8781  -19.9140  -15.7322 C   0  0  0  0  0  0  0  0  0  0  0  0
   25.7924  -20.4442  -16.7838 C   0  0  0  0  0  0  0  0  0  0  0  0
   26.9207  -21.2501  -16.1337 C   0  0  0  0  0  0  0  0  0  0  0  0
   27.9200  -21.6501  -17.1953 C   0  0  0  0  0  0  0  0  0  0  0  0
   28.9572  -22.4405  -16.5839 N   0  0  0  0  0  0  0  0  0  0  0  0
   22.7120  -18.8295  -15.3251 C   0  0  0  0  0  0  0  0  0  0  0  0
   22.6723  -17.7190  -14.6995 O   0  0  0  0  0  0  0  0  0  0  0  0
   17.3543  -18.0634  -14.5890 N   0  0  0  0  0  0  0  0  0  0  0  0
   18.6481  -17.7082  -14.1423 C   0  0  0  0  0  0  0  0  0  0  0  0
   18.6886  -17.0296  -13.0585 O   0  0  0  0  0  0  0  0  0  0  0  0
   19.9110  -18.0563  -14.8144 C   0  0  0  0  0  0  0  0  0  0  0  0
   20.4729  -19.3016  -14.2211 C   0  0  2  0  0  0  0  0  0  0  0  0
   21.6836  -19.7382  -14.9406 N   0  0  0  0  0  0  0  0  0  0  0  0
   19.5111  -20.4459  -14.4152 C   0  0  0  0  0  0  0  0  0  0  0  0
   18.6997  -20.8068  -13.5447 O   0  0  0  0  0  0  0  0  0  0  0  0
   19.5000  -21.1599  -15.6156 O   0  0  0  0  0  0  0  0  0  0  0  0
  2  1  1  1
  2  3  1  0
  2  7  1  0
  4  3  1  0
  5  4  1  0
  5  9  1  0
  6  5  2  0
  7 10  1  0
  7  8  2  0
 10 11  1  0
 11 12  1  1
 13 14  1  0
 13 12  1  0
 14 15  1  0
 16 15  1  0
 17 11  1  0
 17 18  2  0
 20 19  1  0
 20 22  1  0
 21 20  2  0
 23 22  1  6
 23 24  1  0
 24 17  1  0
 25 27  1  0
 25 23  1  0
 26 25  2  0
M  END
$$$$
