EKN.pdb
     RDKit          3D

 27 26  0  0  1  0  0  0  0  0999 V2000
   11.7389  -18.0666    1.8982 N   0  0  0  0  0  0  0  0  0  0  0  0
   13.0129  -18.6353    2.0776 C   0  0  1  0  0  0  0  0  0  0  0  0
   13.6879  -18.4216    3.3713 C   0  0  0  0  0  0  0  0  0  0  0  0
   13.9728  -17.0431    3.8131 C   0  0  0  0  0  0  0  0  0  0  0  0
   15.3812  -16.6313    3.8432 C   0  0  0  0  0  0  0  0  0  0  0  0
   16.3482  -17.3766    3.6088 O   0  0  0  0  0  0  0  0  0  0  0  0
   13.0475  -20.0636    1.6410 C   0  0  0  0  0  0  0  0  0  0  0  0
   12.2782  -20.9151    2.1889 O   0  0  0  0  0  0  0  0  0  0  0  0
   15.6456  -15.3043    4.1589 O   0  0  0  0  0  0  0  0  0  0  0  0
   13.9179  -20.5047    0.6293 N   0  0  0  0  0  0  0  0  0  0  0  0
   14.2871  -21.8639    0.3247 C   0  0  1  0  0  0  0  0  0  0  0  0
   14.9571  -22.0341   -1.0483 C   0  0  0  0  0  0  0  0  0  0  0  0
   14.2941  -23.0763   -1.8833 C   0  0  0  0  0  0  0  0  0  0  0  0
   15.0080  -23.1928   -3.2331 C   0  0  0  0  0  0  0  0  0  0  0  0
   14.2784  -24.1979   -4.0951 C   0  0  0  0  0  0  0  0  0  0  0  0
   14.9344  -24.2765   -5.3749 N   0  0  0  0  0  0  0  0  0  0  0  0
   15.0062  -22.5895    1.3440 C   0  0  0  0  0  0  0  0  0  0  0  0
   16.0101  -22.0595    1.9249 O   0  0  0  0  0  0  0  0  0  0  0  0
   16.7871  -26.0563    4.8669 N   0  0  0  0  0  0  0  0  0  0  0  0
   15.3948  -25.8201    4.9384 C   0  0  0  0  0  0  0  0  0  0  0  0
   14.7974  -26.3513    5.9373 O   0  0  0  0  0  0  0  0  0  0  0  0
   14.6106  -25.0284    3.9760 C   0  0  0  0  0  0  0  0  0  0  0  0
   15.4904  -24.5644    2.8674 C   0  0  2  0  0  0  0  0  0  0  0  0
   14.7094  -23.9052    1.8045 N   0  0  0  0  0  0  0  0  0  0  0  0
   16.1115  -25.7482    2.1708 C   0  0  0  0  0  0  0  0  0  0  0  0
   15.7697  -26.1253    1.0363 O   0  0  0  0  0  0  0  0  0  0  0  0
   17.1217  -26.4823    2.7964 O   0  0  0  0  0  0  0  0  0  0  0  0
  2  1  1  1
  2  3  1  0
  2  7  1  0
  4  3  1  0
  5  4  1  0
  5  9  1  0
  6  5  2  0
  7 10  1  0
  7  8  2  0
 10 11  1  0
 11 12  1  6
 13 14  1  0
 13 12  1  0
 14 15  1  0
 16 15  1  0
 17 11  1  0
 17 18  2  0
 20 19  1  0
 20 22  1  0
 21 20  2  0
 23 22  1  1
 23 24  1  0
 24 17  1  0
 25 27  1  0
 25 23  1  0
 26 25  2  0
M  END
$$$$
