WLD.pdb
     RDKit          3D

 31 32  0  0  1  0  0  0  0  0999 V2000
   26.7708  -20.8110  -14.0305 N   0  0  0  0  0  0  0  0  0  0  0  0
   25.6588  -20.3641  -13.2479 C   0  0  1  0  0  0  0  0  0  0  0  0
   24.3677  -20.7473  -13.9391 C   0  0  0  0  0  0  0  0  0  0  0  0
   24.2267  -20.0850  -15.2495 C   0  0  0  0  0  0  0  0  0  0  0  0
   24.9040  -20.4330  -16.3865 C   0  0  0  0  0  0  0  0  0  0  0  0
   24.5087  -19.5988  -17.3758 N   0  0  0  0  0  0  0  0  0  0  0  0
   23.5906  -18.7264  -16.8840 C   0  0  0  0  0  0  0  0  0  0  0  0
   22.8780  -17.6870  -17.4513 C   0  0  0  0  0  0  0  0  0  0  0  0
   21.9982  -16.9731  -16.6595 C   0  0  0  0  0  0  0  0  0  0  0  0
   21.8086  -17.2594  -15.3359 C   0  0  0  0  0  0  0  0  0  0  0  0
   22.5301  -18.3040  -14.7830 C   0  0  0  0  0  0  0  0  0  0  0  0
   23.4155  -19.0327  -15.5525 C   0  0  0  0  0  0  0  0  0  0  0  0
   25.6322  -20.9752  -11.9003 C   0  0  0  0  0  0  0  0  0  0  0  0
   25.9754  -22.1608  -11.6783 O   0  0  0  0  0  0  0  0  0  0  0  0
   27.4224  -18.5867   -7.3605 C   0  0  0  0  0  0  0  0  0  0  0  0
   27.1782  -19.5306   -8.5692 C   0  0  1  0  0  0  0  0  0  0  0  0
   28.1883  -20.6491   -8.3411 C   0  0  0  0  0  0  0  0  0  0  0  0
   25.7772  -19.9687   -8.4506 C   0  0  0  0  0  0  0  0  0  0  0  0
   25.1496  -20.7925   -9.4789 C   0  0  2  0  0  0  0  0  0  0  0  0
   25.1928  -20.1810  -10.7804 N   0  0  0  0  0  0  0  0  0  0  0  0
   23.7603  -21.2209   -9.2263 C   0  0  0  0  0  0  0  0  0  0  0  0
   23.3361  -21.8113   -8.2275 O   0  0  0  0  0  0  0  0  0  0  0  0
   22.8189  -20.9141  -10.2529 N   0  0  0  0  0  0  0  0  0  0  0  0
   21.4114  -21.2762  -10.1625 C   0  0  1  0  0  0  0  0  0  0  0  0
   20.6004  -20.0068  -10.2587 C   0  0  0  0  0  0  0  0  0  0  0  0
   20.5488  -19.5317  -11.6525 C   0  0  0  0  0  0  0  0  0  0  0  0
   21.4508  -19.7789  -12.4644 O   0  0  0  0  0  0  0  0  0  0  0  0
   21.0332  -22.2887  -11.1486 C   0  0  0  0  0  0  0  0  0  0  0  0
   21.8141  -22.6205  -12.0502 O   0  0  0  0  0  0  0  0  0  0  0  0
   19.4336  -18.7799  -12.0429 O   0  0  0  0  0  0  0  0  0  0  0  0
   19.7721  -22.8914  -11.0734 O   0  0  0  0  0  0  0  0  0  0  0  0
  2  1  1  6
  3  4  1  0
  3  2  1  0
  4  5  2  0
  6  5  1  0
  7  6  1  0
  8  7  2  0
  9  8  1  0
 10  9  2  0
 10 11  1  0
 11 12  2  0
 12  7  1  0
 12  4  1  0
 13  2  1  0
 13 20  1  0
 14 13  2  0
 16 18  1  0
 16 15  1  1
 17 16  1  0
 19 18  1  1
 19 20  1  0
 19 21  1  0
 21 22  2  0
 21 23  1  0
 23 24  1  0
 24 28  1  0
 25 26  1  0
 24 25  1  6
 26 27  2  0
 28 29  2  0
 28 31  1  0
 30 26  1  0
M  END
$$$$
