WLD.pdb
     RDKit          3D

 31 32  0  0  1  0  0  0  0  0999 V2000
   37.4734  -23.6899    5.5393 N   0  0  0  0  0  0  0  0  0  0  0  0
   36.4222  -23.4790    6.4875 C   0  0  1  0  0  0  0  0  0  0  0  0
   35.0937  -23.4188    5.7644 C   0  0  0  0  0  0  0  0  0  0  0  0
   34.3691  -22.1654    6.0467 C   0  0  0  0  0  0  0  0  0  0  0  0
   34.5572  -21.3762    7.1488 C   0  0  0  0  0  0  0  0  0  0  0  0
   33.7143  -20.3221    7.0522 N   0  0  0  0  0  0  0  0  0  0  0  0
   32.9939  -20.4302    5.9054 C   0  0  0  0  0  0  0  0  0  0  0  0
   32.0137  -19.6445    5.3292 C   0  0  0  0  0  0  0  0  0  0  0  0
   31.4653  -20.0418    4.1242 C   0  0  0  0  0  0  0  0  0  0  0  0
   31.8584  -21.1839    3.4832 C   0  0  0  0  0  0  0  0  0  0  0  0
   32.8416  -21.9597    4.0738 C   0  0  0  0  0  0  0  0  0  0  0  0
   33.4055  -21.5850    5.2775 C   0  0  0  0  0  0  0  0  0  0  0  0
   36.3298  -24.5701    7.4832 C   0  0  0  0  0  0  0  0  0  0  0  0
   36.4982  -25.7786    7.1935 O   0  0  0  0  0  0  0  0  0  0  0  0
   38.5333  -24.3957   12.5180 C   0  0  0  0  0  0  0  0  0  0  0  0
   38.1731  -24.7945   11.0610 C   0  0  1  0  0  0  0  0  0  0  0  0
   38.9464  -26.0924   10.8589 C   0  0  0  0  0  0  0  0  0  0  0  0
   36.7112  -24.9720   11.0508 C   0  0  0  0  0  0  0  0  0  0  0  0
   35.9953  -25.3054    9.8234 C   0  0  2  0  0  0  0  0  0  0  0  0
   36.0325  -24.2421    8.8550 N   0  0  0  0  0  0  0  0  0  0  0  0
   34.5908  -25.7328    9.9724 C   0  0  0  0  0  0  0  0  0  0  0  0
   33.5825  -25.0853    9.6722 O   0  0  0  0  0  0  0  0  0  0  0  0
   34.3921  -27.0335   10.5228 N   0  0  0  0  0  0  0  0  0  0  0  0
   33.0734  -27.6355   10.6609 C   0  0  1  0  0  0  0  0  0  0  0  0
   32.4790  -27.7686    9.2797 C   0  0  0  0  0  0  0  0  0  0  0  0
   31.1287  -28.3536    9.3532 C   0  0  0  0  0  0  0  0  0  0  0  0
   30.6229  -28.7053   10.4276 O   0  0  0  0  0  0  0  0  0  0  0  0
   33.1120  -28.8944   11.4054 C   0  0  0  0  0  0  0  0  0  0  0  0
   34.1887  -29.4519   11.6558 O   0  0  0  0  0  0  0  0  0  0  0  0
   30.4188  -28.5044    8.1555 O   0  0  0  0  0  0  0  0  0  0  0  0
   31.9167  -29.4779   11.8413 O   0  0  0  0  0  0  0  0  0  0  0  0
  2  1  1  6
  3  4  1  0
  3  2  1  0
  4  5  2  0
  6  5  1  0
  7  6  1  0
  8  7  2  0
  9  8  1  0
 10  9  2  0
 10 11  1  0
 11 12  2  0
 12  7  1  0
 12  4  1  0
 13  2  1  0
 13 20  1  0
 14 13  2  0
 16 18  1  0
 16 15  1  1
 17 16  1  0
 19 18  1  1
 19 20  1  0
 19 21  1  0
 21 22  2  0
 21 23  1  0
 23 24  1  0
 24 28  1  0
 25 26  1  0
 24 25  1  6
 26 27  2  0
 28 29  2  0
 28 31  1  0
 30 26  1  0
M  END
$$$$
