WLD.pdb
     RDKit          3D

 31 32  0  0  1  0  0  0  0  0999 V2000
   26.9140  -21.0126  -12.3787 N   0  0  0  0  0  0  0  0  0  0  0  0
   25.9734  -20.3325  -11.5412 C   0  0  1  0  0  0  0  0  0  0  0  0
   24.5953  -20.4090  -12.1628 C   0  0  0  0  0  0  0  0  0  0  0  0
   24.5159  -19.6450  -13.4221 C   0  0  0  0  0  0  0  0  0  0  0  0
   25.3694  -18.6410  -13.7911 C   0  0  0  0  0  0  0  0  0  0  0  0
   24.9754  -18.1871  -15.0034 N   0  0  0  0  0  0  0  0  0  0  0  0
   23.8847  -18.8879  -15.4097 C   0  0  0  0  0  0  0  0  0  0  0  0
   23.0979  -18.8347  -16.5446 C   0  0  0  0  0  0  0  0  0  0  0  0
   22.0322  -19.7079  -16.6571 C   0  0  0  0  0  0  0  0  0  0  0  0
   21.7298  -20.6213  -15.6855 C   0  0  0  0  0  0  0  0  0  0  0  0
   22.5281  -20.6617  -14.5549 C   0  0  0  0  0  0  0  0  0  0  0  0
   23.5987  -19.8002  -14.4180 C   0  0  0  0  0  0  0  0  0  0  0  0
   25.8789  -20.9327  -10.1916 C   0  0  0  0  0  0  0  0  0  0  0  0
   26.2280  -22.1105   -9.9391 O   0  0  0  0  0  0  0  0  0  0  0  0
   28.4306  -18.3215   -6.3792 C   0  0  0  0  0  0  0  0  0  0  0  0
   27.9309  -19.4743   -7.2918 C   0  0  1  0  0  0  0  0  0  0  0  0
   28.7168  -20.6783   -6.7857 C   0  0  0  0  0  0  0  0  0  0  0  0
   26.4820  -19.5712   -7.0468 C   0  0  0  0  0  0  0  0  0  0  0  0
   25.6550  -20.5415   -7.7573 C   0  0  2  0  0  0  0  0  0  0  0  0
   25.3626  -20.1365   -9.1065 N   0  0  0  0  0  0  0  0  0  0  0  0
   24.3831  -20.9232   -7.1138 C   0  0  0  0  0  0  0  0  0  0  0  0
   24.1963  -21.1440   -5.9127 O   0  0  0  0  0  0  0  0  0  0  0  0
   23.2592  -21.0467   -7.9833 N   0  0  0  0  0  0  0  0  0  0  0  0
   22.0532  -21.7726   -7.6107 C   0  0  1  0  0  0  0  0  0  0  0  0
   22.4737  -23.1024   -7.0334 C   0  0  0  0  0  0  0  0  0  0  0  0
   21.2967  -23.8622   -6.5768 C   0  0  0  0  0  0  0  0  0  0  0  0
   20.1431  -23.4357   -6.7216 O   0  0  0  0  0  0  0  0  0  0  0  0
   21.1888  -20.9956   -6.7220 C   0  0  0  0  0  0  0  0  0  0  0  0
   20.0236  -21.3501   -6.4991 O   0  0  0  0  0  0  0  0  0  0  0  0
   21.5199  -25.1016   -5.9641 O   0  0  0  0  0  0  0  0  0  0  0  0
   21.6838  -19.8358   -6.1145 O   0  0  0  0  0  0  0  0  0  0  0  0
  2  1  1  6
  3  4  1  0
  3  2  1  0
  4  5  2  0
  6  5  1  0
  7  6  1  0
  8  7  2  0
  9  8  1  0
 10  9  2  0
 10 11  1  0
 11 12  2  0
 12  7  1  0
 12  4  1  0
 13  2  1  0
 13 20  1  0
 14 13  2  0
 16 18  1  0
 16 15  1  1
 17 16  1  0
 19 18  1  1
 19 20  1  0
 19 21  1  0
 21 22  2  0
 21 23  1  0
 23 24  1  0
 24 28  1  0
 25 26  1  0
 24 25  1  1
 26 27  2  0
 28 29  2  0
 28 31  1  0
 30 26  1  0
M  END
$$$$
