WLD.pdb
     RDKit          3D

 31 32  0  0  1  0  0  0  0  0999 V2000
   25.9786  -21.6921  -13.5707 N   0  0  0  0  0  0  0  0  0  0  0  0
   25.8514  -20.7252  -12.5230 C   0  0  1  0  0  0  0  0  0  0  0  0
   24.9222  -19.6164  -12.9684 C   0  0  0  0  0  0  0  0  0  0  0  0
   25.3808  -18.9822  -14.2187 C   0  0  0  0  0  0  0  0  0  0  0  0
   24.5804  -18.6646  -15.2822 C   0  0  0  0  0  0  0  0  0  0  0  0
   25.3603  -18.1021  -16.2342 N   0  0  0  0  0  0  0  0  0  0  0  0
   26.6439  -18.0578  -15.7910 C   0  0  0  0  0  0  0  0  0  0  0  0
   27.8197  -17.5941  -16.3501 C   0  0  0  0  0  0  0  0  0  0  0  0
   28.9892  -17.6967  -15.6206 C   0  0  0  0  0  0  0  0  0  0  0  0
   29.0232  -18.2405  -14.3664 C   0  0  0  0  0  0  0  0  0  0  0  0
   27.8365  -18.7002  -13.8207 C   0  0  0  0  0  0  0  0  0  0  0  0
   26.6543  -18.6093  -14.5289 C   0  0  0  0  0  0  0  0  0  0  0  0
   25.2822  -21.3027  -11.2849 C   0  0  0  0  0  0  0  0  0  0  0  0
   24.4796  -22.2664  -11.2840 O   0  0  0  0  0  0  0  0  0  0  0  0
   26.1801  -18.6003   -7.6415 C   0  0  0  0  0  0  0  0  0  0  0  0
   26.9165  -19.9674   -7.6359 C   0  0  1  0  0  0  0  0  0  0  0  0
   27.7288  -19.9149   -6.3472 C   0  0  0  0  0  0  0  0  0  0  0  0
   25.8543  -20.9874   -7.6217 C   0  0  0  0  0  0  0  0  0  0  0  0
   25.0741  -21.2878   -8.8180 C   0  0  2  0  0  0  0  0  0  0  0  0
   25.6598  -20.7402  -10.0125 N   0  0  0  0  0  0  0  0  0  0  0  0
   23.6504  -20.9004   -8.7936 C   0  0  0  0  0  0  0  0  0  0  0  0
   23.1395  -19.9179   -9.3410 O   0  0  0  0  0  0  0  0  0  0  0  0
   22.7847  -21.7609   -8.0557 N   0  0  0  0  0  0  0  0  0  0  0  0
   21.3373  -21.7425   -8.2131 C   0  0  1  0  0  0  0  0  0  0  0  0
   21.0287  -21.9506   -9.6760 C   0  0  0  0  0  0  0  0  0  0  0  0
   19.5732  -21.9305   -9.9044 C   0  0  0  0  0  0  0  0  0  0  0  0
   18.7651  -21.7805   -8.9779 O   0  0  0  0  0  0  0  0  0  0  0  0
   20.6698  -22.7010   -7.3320 C   0  0  0  0  0  0  0  0  0  0  0  0
   21.2217  -23.7626   -7.0135 O   0  0  0  0  0  0  0  0  0  0  0  0
   19.1187  -22.0880  -11.2196 O   0  0  0  0  0  0  0  0  0  0  0  0
   19.3902  -22.4160   -6.8415 O   0  0  0  0  0  0  0  0  0  0  0  0
  2  1  1  6
  3  4  1  0
  3  2  1  0
  4  5  2  0
  6  5  1  0
  7  6  1  0
  8  7  2  0
  9  8  1  0
 10  9  2  0
 10 11  1  0
 11 12  2  0
 12  7  1  0
 12  4  1  0
 13  2  1  0
 13 20  1  0
 14 13  2  0
 16 18  1  0
 16 15  1  1
 17 16  1  0
 19 18  1  1
 19 20  1  0
 19 21  1  0
 21 22  2  0
 21 23  1  0
 23 24  1  0
 24 28  1  0
 25 26  1  0
 24 25  1  6
 26 27  2  0
 28 29  2  0
 28 31  1  0
 30 26  1  0
M  END
$$$$
