WLD.pdb
     RDKit          3D

 31 32  0  0  1  0  0  0  0  0999 V2000
   25.4952  -19.3757  -16.5963 N   0  0  0  0  0  0  0  0  0  0  0  0
   24.3724  -19.1566  -15.7358 C   0  0  1  0  0  0  0  0  0  0  0  0
   23.1107  -19.0583  -16.5663 C   0  0  0  0  0  0  0  0  0  0  0  0
   23.0910  -17.8391  -17.3963 C   0  0  0  0  0  0  0  0  0  0  0  0
   23.5950  -17.7398  -18.6647 C   0  0  0  0  0  0  0  0  0  0  0  0
   23.3922  -16.4723  -19.0929 N   0  0  0  0  0  0  0  0  0  0  0  0
   22.7671  -15.7654  -18.1154 C   0  0  0  0  0  0  0  0  0  0  0  0
   22.3345  -14.4558  -18.0275 C   0  0  0  0  0  0  0  0  0  0  0  0
   21.7179  -14.0352  -16.8641 C   0  0  0  0  0  0  0  0  0  0  0  0
   21.5213  -14.8691  -15.7983 C   0  0  0  0  0  0  0  0  0  0  0  0
   21.9605  -16.1781  -15.9026 C   0  0  0  0  0  0  0  0  0  0  0  0
   22.5796  -16.6232  -17.0541 C   0  0  0  0  0  0  0  0  0  0  0  0
   24.1756  -20.2599  -14.7692 C   0  0  0  0  0  0  0  0  0  0  0  0
   24.5486  -21.4372  -14.9873 O   0  0  0  0  0  0  0  0  0  0  0  0
   25.7487  -20.0133   -9.7832 C   0  0  0  0  0  0  0  0  0  0  0  0
   25.4545  -20.3459  -11.2712 C   0  0  1  0  0  0  0  0  0  0  0  0
   26.4568  -21.4518  -11.5807 C   0  0  0  0  0  0  0  0  0  0  0  0
   24.0524  -20.7952  -11.3050 C   0  0  0  0  0  0  0  0  0  0  0  0
   23.3685  -21.0551  -12.5679 C   0  0  2  0  0  0  0  0  0  0  0  0
   23.5253  -19.9818  -13.5131 N   0  0  0  0  0  0  0  0  0  0  0  0
   21.9315  -21.3803  -12.4870 C   0  0  0  0  0  0  0  0  0  0  0  0
   21.3740  -22.0689  -11.6260 O   0  0  0  0  0  0  0  0  0  0  0  0
   21.1118  -20.8349  -13.5190 N   0  0  0  0  0  0  0  0  0  0  0  0
   19.6913  -21.1336  -13.6349 C   0  0  1  0  0  0  0  0  0  0  0  0
   18.9248  -19.9550  -13.0852 C   0  0  0  0  0  0  0  0  0  0  0  0
   18.3188  -20.2943  -11.7857 C   0  0  0  0  0  0  0  0  0  0  0  0
   18.4097  -21.4275  -11.2946 O   0  0  0  0  0  0  0  0  0  0  0  0
   19.3088  -21.4955  -14.9999 C   0  0  0  0  0  0  0  0  0  0  0  0
   20.0948  -21.3374  -15.9433 O   0  0  0  0  0  0  0  0  0  0  0  0
   17.6252  -19.2841  -11.1077 O   0  0  0  0  0  0  0  0  0  0  0  0
   18.0376  -22.0279  -15.2446 O   0  0  0  0  0  0  0  0  0  0  0  0
  2  1  1  6
  3  4  1  0
  3  2  1  0
  4  5  2  0
  6  5  1  0
  7  6  1  0
  8  7  2  0
  9  8  1  0
 10  9  2  0
 10 11  1  0
 11 12  2  0
 12  7  1  0
 12  4  1  0
 13  2  1  0
 13 20  1  0
 14 13  2  0
 16 18  1  0
 16 15  1  1
 17 16  1  0
 19 18  1  1
 19 20  1  0
 19 21  1  0
 21 22  2  0
 21 23  1  0
 23 24  1  0
 24 28  1  0
 25 26  1  0
 24 25  1  6
 26 27  2  0
 28 29  2  0
 28 31  1  0
 30 26  1  0
M  END
$$$$
