WLD.pdb
     RDKit          3D

 31 32  0  0  1  0  0  0  0  0999 V2000
   27.6913  -20.8447  -16.0246 N   0  0  0  0  0  0  0  0  0  0  0  0
   26.9597  -20.2053  -14.9735 C   0  0  1  0  0  0  0  0  0  0  0  0
   25.4868  -20.1857  -15.3222 C   0  0  0  0  0  0  0  0  0  0  0  0
   25.2164  -19.3773  -16.5260 C   0  0  0  0  0  0  0  0  0  0  0  0
   24.8660  -19.8780  -17.7504 C   0  0  0  0  0  0  0  0  0  0  0  0
   24.7042  -18.8328  -18.5945 N   0  0  0  0  0  0  0  0  0  0  0  0
   24.9466  -17.6761  -17.9243 C   0  0  0  0  0  0  0  0  0  0  0  0
   24.9245  -16.3461  -18.2991 C   0  0  0  0  0  0  0  0  0  0  0  0
   25.2280  -15.3834  -17.3547 C   0  0  0  0  0  0  0  0  0  0  0  0
   25.5489  -15.7012  -16.0640 C   0  0  0  0  0  0  0  0  0  0  0  0
   25.5663  -17.0383  -15.7048 C   0  0  0  0  0  0  0  0  0  0  0  0
   25.2670  -18.0195  -16.6294 C   0  0  0  0  0  0  0  0  0  0  0  0
   27.0940  -20.9104  -13.6793 C   0  0  0  0  0  0  0  0  0  0  0  0
   27.2242  -22.1543  -13.5866 O   0  0  0  0  0  0  0  0  0  0  0  0
   28.2849  -21.2262   -8.3315 C   0  0  0  0  0  0  0  0  0  0  0  0
   26.9653  -20.4858   -8.6810 C   0  0  1  0  0  0  0  0  0  0  0  0
   26.9029  -19.3815   -7.6322 C   0  0  0  0  0  0  0  0  0  0  0  0
   27.1460  -19.9850  -10.0540 C   0  0  0  0  0  0  0  0  0  0  0  0
   26.9013  -20.8388  -11.2121 C   0  0  2  0  0  0  0  0  0  0  0  0
   27.0756  -20.1430  -12.4592 N   0  0  0  0  0  0  0  0  0  0  0  0
   25.5996  -21.5323  -11.2591 C   0  0  0  0  0  0  0  0  0  0  0  0
   25.3635  -22.6916  -10.9037 O   0  0  0  0  0  0  0  0  0  0  0  0
   24.5079  -20.7709  -11.7717 N   0  0  0  0  0  0  0  0  0  0  0  0
   23.1498  -21.2916  -11.8396 C   0  0  1  0  0  0  0  0  0  0  0  0
   22.2229  -20.2395  -11.2806 C   0  0  0  0  0  0  0  0  0  0  0  0
   21.8364  -20.5739   -9.8986 C   0  0  0  0  0  0  0  0  0  0  0  0
   22.2349  -21.6027   -9.3360 O   0  0  0  0  0  0  0  0  0  0  0  0
   22.7899  -21.7322  -13.1876 C   0  0  0  0  0  0  0  0  0  0  0  0
   23.5404  -21.5162  -14.1483 O   0  0  0  0  0  0  0  0  0  0  0  0
   20.9918  -19.6825   -9.2254 O   0  0  0  0  0  0  0  0  0  0  0  0
   21.5815  -22.4072  -13.3958 O   0  0  0  0  0  0  0  0  0  0  0  0
  2  1  1  6
  3  4  1  0
  3  2  1  0
  4  5  2  0
  6  5  1  0
  7  6  1  0
  8  7  2  0
  9  8  1  0
 10  9  2  0
 10 11  1  0
 11 12  2  0
 12  7  1  0
 12  4  1  0
 13  2  1  0
 13 20  1  0
 14 13  2  0
 16 18  1  0
 16 15  1  1
 17 16  1  0
 19 18  1  1
 19 20  1  0
 19 21  1  0
 21 22  2  0
 21 23  1  0
 23 24  1  0
 24 28  1  0
 25 26  1  0
 24 25  1  6
 26 27  2  0
 28 29  2  0
 28 31  1  0
 30 26  1  0
M  END
$$$$
