WLD.pdb
     RDKit          3D

 31 32  0  0  1  0  0  0  0  0999 V2000
   25.9921  -22.3862  -15.3251 N   0  0  0  0  0  0  0  0  0  0  0  0
   25.7057  -21.7129  -14.0949 C   0  0  1  0  0  0  0  0  0  0  0  0
   26.2128  -20.2885  -14.1682 C   0  0  0  0  0  0  0  0  0  0  0  0
   27.5697  -20.1572  -13.6048 C   0  0  0  0  0  0  0  0  0  0  0  0
   28.6342  -19.5755  -14.2381 C   0  0  0  0  0  0  0  0  0  0  0  0
   29.6997  -19.6460  -13.4070 N   0  0  0  0  0  0  0  0  0  0  0  0
   29.3276  -20.2637  -12.2555 C   0  0  0  0  0  0  0  0  0  0  0  0
   30.0072  -20.5887  -11.0969 C   0  0  0  0  0  0  0  0  0  0  0  0
   29.3237  -21.2331  -10.0828 C   0  0  0  0  0  0  0  0  0  0  0  0
   27.9998  -21.5596  -10.1862 C   0  0  0  0  0  0  0  0  0  0  0  0
   27.3336  -21.2267  -11.3535 C   0  0  0  0  0  0  0  0  0  0  0  0
   27.9936  -20.5829  -12.3816 C   0  0  0  0  0  0  0  0  0  0  0  0
   24.2550  -21.6471  -13.8094 C   0  0  0  0  0  0  0  0  0  0  0  0
   23.3879  -22.1864  -14.5373 O   0  0  0  0  0  0  0  0  0  0  0  0
   21.4089  -19.2963   -9.7623 C   0  0  0  0  0  0  0  0  0  0  0  0
   22.7710  -20.0349   -9.8652 C   0  0  1  0  0  0  0  0  0  0  0  0
   23.1271  -20.3035   -8.4077 C   0  0  0  0  0  0  0  0  0  0  0  0
   22.4990  -21.2573  -10.6402 C   0  0  0  0  0  0  0  0  0  0  0  0
   22.5093  -21.2492  -12.0996 C   0  0  2  0  0  0  0  0  0  0  0  0
   23.8035  -20.9320  -12.6420 N   0  0  0  0  0  0  0  0  0  0  0  0
   21.5160  -20.3828  -12.7630 C   0  0  0  0  0  0  0  0  0  0  0  0
   20.3123  -20.2968  -12.4986 O   0  0  0  0  0  0  0  0  0  0  0  0
   22.0129  -19.5637  -13.8197 N   0  0  0  0  0  0  0  0  0  0  0  0
   21.1526  -18.6989  -14.6149 C   0  0  1  0  0  0  0  0  0  0  0  0
   22.0382  -17.7655  -15.4044 C   0  0  0  0  0  0  0  0  0  0  0  0
   21.2234  -16.8395  -16.2103 C   0  0  0  0  0  0  0  0  0  0  0  0
   19.9864  -16.8310  -16.1505 O   0  0  0  0  0  0  0  0  0  0  0  0
   20.2151  -19.4571  -15.4435 C   0  0  0  0  0  0  0  0  0  0  0  0
   19.2252  -18.9095  -15.9465 O   0  0  0  0  0  0  0  0  0  0  0  0
   21.8956  -15.9529  -17.0608 O   0  0  0  0  0  0  0  0  0  0  0  0
   20.4387  -20.8198  -15.6720 O   0  0  0  0  0  0  0  0  0  0  0  0
  2  1  1  6
  3  4  1  0
  3  2  1  0
  4  5  2  0
  6  5  1  0
  7  6  1  0
  8  7  2  0
  9  8  1  0
 10  9  2  0
 10 11  1  0
 11 12  2  0
 12  7  1  0
 12  4  1  0
 13  2  1  0
 13 20  1  0
 14 13  2  0
 16 18  1  0
 16 15  1  1
 17 16  1  0
 19 18  1  1
 19 20  1  0
 19 21  1  0
 21 22  2  0
 21 23  1  0
 23 24  1  0
 24 28  1  0
 25 26  1  0
 24 25  1  6
 26 27  2  0
 28 29  2  0
 28 31  1  0
 30 26  1  0
M  END
$$$$
