WLD.pdb
     RDKit          3D

 31 32  0  0  1  0  0  0  0  0999 V2000
   24.4772  -21.1696  -14.4597 N   0  0  0  0  0  0  0  0  0  0  0  0
   24.1250  -20.3369  -13.3500 C   0  0  1  0  0  0  0  0  0  0  0  0
   22.6412  -20.0399  -13.3917 C   0  0  0  0  0  0  0  0  0  0  0  0
   22.2209  -19.5169  -14.7053 C   0  0  0  0  0  0  0  0  0  0  0  0
   21.2414  -20.0577  -15.4932 C   0  0  0  0  0  0  0  0  0  0  0  0
   21.1467  -19.3034  -16.6126 N   0  0  0  0  0  0  0  0  0  0  0  0
   22.0514  -18.2919  -16.5472 C   0  0  0  0  0  0  0  0  0  0  0  0
   22.3710  -17.2550  -17.4033 C   0  0  0  0  0  0  0  0  0  0  0  0
   23.3674  -16.3707  -17.0345 C   0  0  0  0  0  0  0  0  0  0  0  0
   24.0469  -16.4862  -15.8535 C   0  0  0  0  0  0  0  0  0  0  0  0
   23.7144  -17.5304  -15.0072 C   0  0  0  0  0  0  0  0  0  0  0  0
   22.7228  -18.4276  -15.3522 C   0  0  0  0  0  0  0  0  0  0  0  0
   24.4063  -20.9802  -12.0471 C   0  0  0  0  0  0  0  0  0  0  0  0
   24.3206  -22.2174  -11.8607 O   0  0  0  0  0  0  0  0  0  0  0  0
   27.9262  -20.2216   -7.2842 C   0  0  0  0  0  0  0  0  0  0  0  0
   26.3994  -20.2750   -7.5623 C   0  0  1  0  0  0  0  0  0  0  0  0
   25.8953  -18.9667   -6.9644 C   0  0  0  0  0  0  0  0  0  0  0  0
   26.2676  -20.3427   -9.0275 C   0  0  0  0  0  0  0  0  0  0  0  0
   25.0297  -20.7887   -9.6588 C   0  0  2  0  0  0  0  0  0  0  0  0
   24.7984  -20.1571  -10.9306 N   0  0  0  0  0  0  0  0  0  0  0  0
   23.7961  -20.6606   -8.8591 C   0  0  0  0  0  0  0  0  0  0  0  0
   23.1864  -19.6185   -8.5977 O   0  0  0  0  0  0  0  0  0  0  0  0
   23.2632  -21.8773   -8.3396 N   0  0  0  0  0  0  0  0  0  0  0  0
   22.0479  -21.9244   -7.5387 C   0  0  1  0  0  0  0  0  0  0  0  0
   21.0427  -22.7776   -8.2738 C   0  0  0  0  0  0  0  0  0  0  0  0
   19.8186  -22.9409   -7.4700 C   0  0  0  0  0  0  0  0  0  0  0  0
   19.6814  -22.3988   -6.3650 O   0  0  0  0  0  0  0  0  0  0  0  0
   22.3020  -22.3688   -6.1682 C   0  0  0  0  0  0  0  0  0  0  0  0
   23.2240  -23.1556   -5.9158 O   0  0  0  0  0  0  0  0  0  0  0  0
   18.7959  -23.7393   -7.9970 O   0  0  0  0  0  0  0  0  0  0  0  0
   21.4930  -21.8993   -5.1269 O   0  0  0  0  0  0  0  0  0  0  0  0
  2  1  1  6
  3  4  1  0
  3  2  1  0
  4  5  2  0
  6  5  1  0
  7  6  1  0
  8  7  2  0
  9  8  1  0
 10  9  2  0
 10 11  1  0
 11 12  2  0
 12  7  1  0
 12  4  1  0
 13  2  1  0
 13 20  1  0
 14 13  2  0
 16 18  1  0
 16 15  1  6
 17 16  1  0
 19 18  1  1
 19 20  1  0
 19 21  1  0
 21 22  2  0
 21 23  1  0
 23 24  1  0
 24 28  1  0
 25 26  1  0
 24 25  1  6
 26 27  2  0
 28 29  2  0
 28 31  1  0
 30 26  1  0
M  END
$$$$
