WLD.pdb
     RDKit          3D

 31 32  0  0  1  0  0  0  0  0999 V2000
   24.9964  -20.3321  -16.0427 N   0  0  0  0  0  0  0  0  0  0  0  0
   23.9426  -19.9614  -15.1477 C   0  0  1  0  0  0  0  0  0  0  0  0
   22.6200  -19.9927  -15.8835 C   0  0  0  0  0  0  0  0  0  0  0  0
   22.5347  -18.9353  -16.9084 C   0  0  0  0  0  0  0  0  0  0  0  0
   22.9449  -19.0610  -18.2079 C   0  0  0  0  0  0  0  0  0  0  0  0
   22.7057  -17.8851  -18.8333 N   0  0  0  0  0  0  0  0  0  0  0  0
   22.1499  -17.0148  -17.9503 C   0  0  0  0  0  0  0  0  0  0  0  0
   21.7188  -15.7063  -18.0596 C   0  0  0  0  0  0  0  0  0  0  0  0
   21.1862  -15.0858  -16.9451 C   0  0  0  0  0  0  0  0  0  0  0  0
   21.0713  -15.7212  -15.7396 C   0  0  0  0  0  0  0  0  0  0  0  0
   21.5077  -17.0319  -15.6472 C   0  0  0  0  0  0  0  0  0  0  0  0
   22.0438  -17.6745  -16.7459 C   0  0  0  0  0  0  0  0  0  0  0  0
   23.8254  -20.8846  -13.9970 C   0  0  0  0  0  0  0  0  0  0  0  0
   23.8258  -22.1330  -14.1168 O   0  0  0  0  0  0  0  0  0  0  0  0
   26.2119  -19.9105   -9.3033 C   0  0  0  0  0  0  0  0  0  0  0  0
   25.7185  -20.3248  -10.7162 C   0  0  1  0  0  0  0  0  0  0  0  0
   26.8519  -21.2039  -11.2319 C   0  0  0  0  0  0  0  0  0  0  0  0
   24.4594  -21.0561  -10.4954 C   0  0  0  0  0  0  0  0  0  0  0  0
   23.4887  -21.2385  -11.5699 C   0  0  2  0  0  0  0  0  0  0  0  0
   23.7044  -20.3361  -12.6694 N   0  0  0  0  0  0  0  0  0  0  0  0
   22.0639  -21.1612  -11.1940 C   0  0  0  0  0  0  0  0  0  0  0  0
   21.5837  -20.5648  -10.2245 O   0  0  0  0  0  0  0  0  0  0  0  0
   21.1569  -21.8534  -12.0499 N   0  0  0  0  0  0  0  0  0  0  0  0
   19.7261  -21.9217  -11.7883 C   0  0  1  0  0  0  0  0  0  0  0  0
   19.2125  -20.5085  -11.6551 C   0  0  0  0  0  0  0  0  0  0  0  0
   18.7003  -20.0215  -12.9480 C   0  0  0  0  0  0  0  0  0  0  0  0
   17.4879  -19.9575  -13.1920 O   0  0  0  0  0  0  0  0  0  0  0  0
   19.0140  -22.7110  -12.7936 C   0  0  0  0  0  0  0  0  0  0  0  0
   17.8126  -22.9777  -12.6581 O   0  0  0  0  0  0  0  0  0  0  0  0
   19.6366  -19.6255  -13.9113 O   0  0  0  0  0  0  0  0  0  0  0  0
   19.6984  -23.1716  -13.9244 O   0  0  0  0  0  0  0  0  0  0  0  0
  2  1  1  6
  3  4  1  0
  3  2  1  0
  4  5  2  0
  6  5  1  0
  7  6  1  0
  8  7  2  0
  9  8  1  0
 10  9  2  0
 10 11  1  0
 11 12  2  0
 12  7  1  0
 12  4  1  0
 13  2  1  0
 13 20  1  0
 14 13  2  0
 16 18  1  0
 16 15  1  1
 17 16  1  0
 19 18  1  1
 19 20  1  0
 19 21  1  0
 21 22  2  0
 21 23  1  0
 23 24  1  0
 24 28  1  0
 25 26  1  0
 24 25  1  6
 26 27  2  0
 28 29  2  0
 28 31  1  0
 30 26  1  0
M  END
$$$$
