WLD.pdb
     RDKit          3D

 31 32  0  0  1  0  0  0  0  0999 V2000
   37.4753  -11.1267   -5.8920 N   0  0  0  0  0  0  0  0  0  0  0  0
   37.7730  -11.5706   -7.2199 C   0  0  1  0  0  0  0  0  0  0  0  0
   36.7023  -12.5356   -7.6823 C   0  0  0  0  0  0  0  0  0  0  0  0
   36.0372  -13.2049   -6.5486 C   0  0  0  0  0  0  0  0  0  0  0  0
   36.5484  -13.3092   -5.2835 C   0  0  0  0  0  0  0  0  0  0  0  0
   35.6527  -13.9874   -4.5293 N   0  0  0  0  0  0  0  0  0  0  0  0
   34.5805  -14.3153   -5.2966 C   0  0  0  0  0  0  0  0  0  0  0  0
   33.4054  -14.9942   -5.0352 C   0  0  0  0  0  0  0  0  0  0  0  0
   32.4936  -15.1653   -6.0600 C   0  0  0  0  0  0  0  0  0  0  0  0
   32.7138  -14.6867   -7.3219 C   0  0  0  0  0  0  0  0  0  0  0  0
   33.8959  -14.0087   -7.5670 C   0  0  0  0  0  0  0  0  0  0  0  0
   34.8234  -13.8244   -6.5604 C   0  0  0  0  0  0  0  0  0  0  0  0
   37.8098  -10.4575   -8.1946 C   0  0  0  0  0  0  0  0  0  0  0  0
   36.7804   -9.9767   -8.7253 O   0  0  0  0  0  0  0  0  0  0  0  0
   37.1879   -6.3815   -6.2314 C   0  0  0  0  0  0  0  0  0  0  0  0
   37.2726   -7.2826   -7.4933 C   0  0  1  0  0  0  0  0  0  0  0  0
   36.8803   -6.3338   -8.6199 C   0  0  0  0  0  0  0  0  0  0  0  0
   38.6730   -7.7329   -7.5630 C   0  0  0  0  0  0  0  0  0  0  0  0
   39.1792   -8.4632   -8.7208 C   0  0  2  0  0  0  0  0  0  0  0  0
   39.0833   -9.8897   -8.5603 N   0  0  0  0  0  0  0  0  0  0  0  0
   40.5547   -8.1478   -9.1519 C   0  0  0  0  0  0  0  0  0  0  0  0
   41.5597   -8.0822   -8.4365 O   0  0  0  0  0  0  0  0  0  0  0  0
   40.7267   -7.8941  -10.5449 N   0  0  0  0  0  0  0  0  0  0  0  0
   42.0294   -7.6353  -11.1417 C   0  0  1  0  0  0  0  0  0  0  0  0
   41.9894   -8.1249  -12.5691 C   0  0  0  0  0  0  0  0  0  0  0  0
   41.9437   -9.5971  -12.6086 C   0  0  0  0  0  0  0  0  0  0  0  0
   42.4982  -10.2947  -11.7486 O   0  0  0  0  0  0  0  0  0  0  0  0
   42.4309   -6.2342  -11.0145 C   0  0  0  0  0  0  0  0  0  0  0  0
   41.5840   -5.3328  -10.9605 O   0  0  0  0  0  0  0  0  0  0  0  0
   41.2444  -10.1983  -13.6626 O   0  0  0  0  0  0  0  0  0  0  0  0
   43.7904   -5.9064  -10.9527 O   0  0  0  0  0  0  0  0  0  0  0  0
  2  1  1  1
  3  4  1  0
  3  2  1  0
  4  5  2  0
  6  5  1  0
  7  6  1  0
  8  7  2  0
  9  8  1  0
 10  9  2  0
 10 11  1  0
 11 12  2  0
 12  7  1  0
 12  4  1  0
 13  2  1  0
 13 20  1  0
 14 13  2  0
 16 18  1  0
 16 15  1  1
 17 16  1  0
 19 18  1  1
 19 20  1  0
 19 21  1  0
 21 22  2  0
 21 23  1  0
 23 24  1  0
 24 28  1  0
 25 26  1  0
 24 25  1  6
 26 27  2  0
 28 29  2  0
 28 31  1  0
 30 26  1  0
M  END
$$$$
