WLD.pdb
     RDKit          3D

 31 32  0  0  1  0  0  0  0  0999 V2000
   27.8603  -19.5880  -16.8711 N   0  0  0  0  0  0  0  0  0  0  0  0
   27.0170  -19.3294  -15.7438 C   0  0  1  0  0  0  0  0  0  0  0  0
   25.7105  -18.7289  -16.2170 C   0  0  0  0  0  0  0  0  0  0  0  0
   25.9073  -17.4118  -16.8511 C   0  0  0  0  0  0  0  0  0  0  0  0
   25.9182  -17.1789  -18.1996 C   0  0  0  0  0  0  0  0  0  0  0  0
   26.1252  -15.8553  -18.3897 N   0  0  0  0  0  0  0  0  0  0  0  0
   26.2459  -15.2443  -17.1822 C   0  0  0  0  0  0  0  0  0  0  0  0
   26.4622  -13.9322  -16.8060 C   0  0  0  0  0  0  0  0  0  0  0  0
   26.5366  -13.6296  -15.4593 C   0  0  0  0  0  0  0  0  0  0  0  0
   26.4039  -14.5824  -14.4875 C   0  0  0  0  0  0  0  0  0  0  0  0
   26.1875  -15.8921  -14.8813 C   0  0  0  0  0  0  0  0  0  0  0  0
   26.1091  -16.2208  -16.2204 C   0  0  0  0  0  0  0  0  0  0  0  0
   26.6860  -20.5592  -14.9898 C   0  0  0  0  0  0  0  0  0  0  0  0
   26.8780  -21.7131  -15.4420 O   0  0  0  0  0  0  0  0  0  0  0  0
   24.6811  -20.6064  -10.1664 C   0  0  0  0  0  0  0  0  0  0  0  0
   26.1250  -20.3854  -10.6935 C   0  0  1  0  0  0  0  0  0  0  0  0
   26.9552  -20.3488   -9.4157 C   0  0  0  0  0  0  0  0  0  0  0  0
   26.4139  -21.5473  -11.5508 C   0  0  0  0  0  0  0  0  0  0  0  0
   25.8882  -21.6381  -12.9093 C   0  0  2  0  0  0  0  0  0  0  0  0
   26.1151  -20.4393  -13.6716 N   0  0  0  0  0  0  0  0  0  0  0  0
   24.4633  -21.9972  -13.0443 C   0  0  0  0  0  0  0  0  0  0  0  0
   23.8354  -22.8116  -12.3597 O   0  0  0  0  0  0  0  0  0  0  0  0
   23.7483  -21.3247  -14.0791 N   0  0  0  0  0  0  0  0  0  0  0  0
   22.3186  -21.5027  -14.2902 C   0  0  1  0  0  0  0  0  0  0  0  0
   21.6158  -21.1758  -12.9949 C   0  0  0  0  0  0  0  0  0  0  0  0
   20.3456  -21.9160  -12.8959 C   0  0  0  0  0  0  0  0  0  0  0  0
   20.0567  -22.8321  -13.6775 O   0  0  0  0  0  0  0  0  0  0  0  0
   21.8255  -20.7347  -15.4338 C   0  0  0  0  0  0  0  0  0  0  0  0
   22.3849  -19.6875  -15.7848 O   0  0  0  0  0  0  0  0  0  0  0  0
   19.4573  -21.5505  -11.8768 O   0  0  0  0  0  0  0  0  0  0  0  0
   20.7064  -21.1884  -16.1417 O   0  0  0  0  0  0  0  0  0  0  0  0
  2  1  1  6
  3  4  1  0
  3  2  1  0
  4  5  2  0
  6  5  1  0
  7  6  1  0
  8  7  2  0
  9  8  1  0
 10  9  2  0
 10 11  1  0
 11 12  2  0
 12  7  1  0
 12  4  1  0
 13  2  1  0
 13 20  1  0
 14 13  2  0
 16 18  1  0
 16 15  1  1
 17 16  1  0
 19 18  1  1
 19 20  1  0
 19 21  1  0
 21 22  2  0
 21 23  1  0
 23 24  1  0
 24 28  1  0
 25 26  1  0
 24 25  1  1
 26 27  2  0
 28 29  2  0
 28 31  1  0
 30 26  1  0
M  END
$$$$
