WLD.pdb
     RDKit          3D

 31 32  0  0  1  0  0  0  0  0999 V2000
   27.1989  -21.3234  -15.1801 N   0  0  0  0  0  0  0  0  0  0  0  0
   27.1709  -20.3402  -14.1401 C   0  0  1  0  0  0  0  0  0  0  0  0
   26.2891  -19.1840  -14.5610 C   0  0  0  0  0  0  0  0  0  0  0  0
   26.7833  -18.5330  -15.7889 C   0  0  0  0  0  0  0  0  0  0  0  0
   25.9964  -18.0714  -16.8088 C   0  0  0  0  0  0  0  0  0  0  0  0
   26.8093  -17.5428  -17.7526 N   0  0  0  0  0  0  0  0  0  0  0  0
   28.1006  -17.6620  -17.3472 C   0  0  0  0  0  0  0  0  0  0  0  0
   29.3058  -17.2964  -17.9162 C   0  0  0  0  0  0  0  0  0  0  0  0
   30.4748  -17.5654  -17.2294 C   0  0  0  0  0  0  0  0  0  0  0  0
   30.4801  -18.1799  -16.0078 C   0  0  0  0  0  0  0  0  0  0  0  0
   29.2641  -18.5396  -15.4517 C   0  0  0  0  0  0  0  0  0  0  0  0
   28.0819  -18.2821  -16.1175 C   0  0  0  0  0  0  0  0  0  0  0  0
   26.6211  -20.8714  -12.8728 C   0  0  0  0  0  0  0  0  0  0  0  0
   26.1524  -22.0292  -12.7608 O   0  0  0  0  0  0  0  0  0  0  0  0
   27.2724  -21.6097   -7.4639 C   0  0  0  0  0  0  0  0  0  0  0  0
   26.3809  -20.4304   -7.9394 C   0  0  1  0  0  0  0  0  0  0  0  0
   26.6907  -19.3351   -6.9256 C   0  0  0  0  0  0  0  0  0  0  0  0
   26.8373  -20.1165   -9.3039 C   0  0  0  0  0  0  0  0  0  0  0  0
   26.0876  -20.5578  -10.4757 C   0  0  2  0  0  0  0  0  0  0  0  0
   26.6181  -20.0282  -11.7037 N   0  0  0  0  0  0  0  0  0  0  0  0
   24.6339  -20.3047  -10.4645 C   0  0  0  0  0  0  0  0  0  0  0  0
   24.0409  -19.4124   -9.8493 O   0  0  0  0  0  0  0  0  0  0  0  0
   23.8424  -21.1923  -11.2519 N   0  0  0  0  0  0  0  0  0  0  0  0
   22.4072  -21.0199  -11.4275 C   0  0  1  0  0  0  0  0  0  0  0  0
   22.1699  -19.6235  -11.9496 C   0  0  0  0  0  0  0  0  0  0  0  0
   20.7312  -19.3917  -12.1676 C   0  0  0  0  0  0  0  0  0  0  0  0
   19.8925  -19.5849  -11.2771 O   0  0  0  0  0  0  0  0  0  0  0  0
   21.8198  -22.0657  -12.2651 C   0  0  0  0  0  0  0  0  0  0  0  0
   22.5367  -22.8840  -12.8562 O   0  0  0  0  0  0  0  0  0  0  0  0
   20.3291  -18.9389  -13.4304 O   0  0  0  0  0  0  0  0  0  0  0  0
   20.4289  -22.1441  -12.4012 O   0  0  0  0  0  0  0  0  0  0  0  0
  2  1  1  6
  3  4  1  0
  3  2  1  0
  4  5  2  0
  6  5  1  0
  7  6  1  0
  8  7  2  0
  9  8  1  0
 10  9  2  0
 10 11  1  0
 11 12  2  0
 12  7  1  0
 12  4  1  0
 13  2  1  0
 13 20  1  0
 14 13  2  0
 16 18  1  0
 16 15  1  1
 17 16  1  0
 19 18  1  1
 19 20  1  0
 19 21  1  0
 21 22  2  0
 21 23  1  0
 23 24  1  0
 24 28  1  0
 25 26  1  0
 24 25  1  6
 26 27  2  0
 28 29  2  0
 28 31  1  0
 30 26  1  0
M  END
$$$$
