HDY.pdb
     RDKit          3D

 31 32  0  0  1  0  0  0  0  0999 V2000
    7.7247  -17.3676   17.3581 N   0  0  0  0  0  0  0  0  0  0  0  0
    8.2128  -16.2972   18.2076 C   0  0  1  0  0  0  0  0  0  0  0  0
    7.5157  -15.0152   17.9509 C   0  0  0  0  0  0  0  0  0  0  0  0
    7.7266  -14.5471   16.5667 C   0  0  0  0  0  0  0  0  0  0  0  0
    8.5193  -15.1578   15.6010 C   0  0  0  0  0  0  0  0  0  0  0  0
    8.4701  -14.4498   14.4645 N   0  0  0  0  0  0  0  0  0  0  0  0
    7.6716  -13.4119   14.6828 C   0  0  0  0  0  0  0  0  0  0  0  0
    7.2179  -13.4674   15.9587 N   0  0  0  0  0  0  0  0  0  0  0  0
    8.3278  -16.7225   19.6060 C   0  0  0  0  0  0  0  0  0  0  0  0
    7.2498  -16.9284   20.2407 O   0  0  0  0  0  0  0  0  0  0  0  0
    9.5301  -16.9170   20.3001 N   0  0  0  0  0  0  0  0  0  0  0  0
    9.5835  -17.3216   21.6677 C   0  0  1  0  0  0  0  0  0  0  0  0
    9.6044  -18.7884   21.9198 C   0  0  0  0  0  0  0  0  0  0  0  0
   10.6728  -19.4544   21.1475 C   0  0  0  0  0  0  0  0  0  0  0  0
   11.7113  -19.7984   21.7633 O   0  0  0  0  0  0  0  0  0  0  0  0
   10.7771  -16.6873   22.3464 C   0  0  0  0  0  0  0  0  0  0  0  0
   11.9086  -17.2535   22.2847 O   0  0  0  0  0  0  0  0  0  0  0  0
   10.6010  -19.7205   19.7987 O   0  0  0  0  0  0  0  0  0  0  0  0
   10.8714  -14.9389   30.8910 O   0  0  0  0  0  0  0  0  0  0  0  0
   10.5901  -15.0526   29.5290 C   0  0  0  0  0  0  0  0  0  0  0  0
   10.2543  -16.2303   28.9219 C   0  0  0  0  0  0  0  0  0  0  0  0
    9.9869  -16.2790   27.5705 C   0  0  0  0  0  0  0  0  0  0  0  0
   10.0405  -15.1651   26.7617 C   0  0  0  0  0  0  0  0  0  0  0  0
    9.7690  -15.1620   25.3102 C   0  0  0  0  0  0  0  0  0  0  0  0
   10.9972  -15.3177   24.4623 C   0  0  2  0  0  0  0  0  0  0  0  0
   10.6661  -15.4652   23.0567 N   0  0  0  0  0  0  0  0  0  0  0  0
   11.8956  -16.3968   24.8937 C   0  0  0  0  0  0  0  0  0  0  0  0
   13.2120  -16.1882   25.2819 O   0  0  0  0  0  0  0  0  0  0  0  0
   10.3852  -13.9703   27.3983 C   0  0  0  0  0  0  0  0  0  0  0  0
   10.6530  -13.9186   28.7500 C   0  0  0  0  0  0  0  0  0  0  0  0
   11.4846  -17.5806   24.9250 O   0  0  0  0  0  0  0  0  0  0  0  0
  2  3  1  0
  2  1  1  6
  3  4  1  0
  4  5  2  0
  5  6  1  0
  7  6  1  0
  8  4  1  0
  8  7  2  0
  9 10  2  0
  9  2  1  0
 11  9  1  0
 12 11  1  0
 13 14  1  0
 12 13  1  6
 14 15  2  0
 16 17  2  0
 16 12  1  0
 18 14  1  0
 20 19  1  0
 21 20  2  0
 22 21  1  0
 23 29  1  0
 23 22  2  0
 24 23  1  0
 25 24  1  1
 25 26  1  0
 26 16  1  0
 27 25  1  0
 28 27  1  0
 29 30  2  0
 30 20  1  0
 31 27  2  0
M  END
$$$$
