HDY.pdb
     RDKit          3D

 31 32  0  0  1  0  0  0  0  0999 V2000
    8.2295  -17.6663   19.4678 N   0  0  0  0  0  0  0  0  0  0  0  0
    9.1117  -16.7467   20.1618 C   0  0  1  0  0  0  0  0  0  0  0  0
    8.4624  -15.4424   20.4317 C   0  0  0  0  0  0  0  0  0  0  0  0
    8.1911  -14.6996   19.1850 C   0  0  0  0  0  0  0  0  0  0  0  0
    8.4999  -15.1140   17.8939 C   0  0  0  0  0  0  0  0  0  0  0  0
    8.1057  -14.1821   17.0156 N   0  0  0  0  0  0  0  0  0  0  0  0
    7.5583  -13.1930   17.7117 C   0  0  0  0  0  0  0  0  0  0  0  0
    7.6083  -13.5037   19.0301 N   0  0  0  0  0  0  0  0  0  0  0  0
    9.7960  -17.3934   21.2856 C   0  0  0  0  0  0  0  0  0  0  0  0
    9.2660  -18.4418   21.7624 O   0  0  0  0  0  0  0  0  0  0  0  0
   10.9852  -16.9472   21.8787 N   0  0  0  0  0  0  0  0  0  0  0  0
   11.5643  -17.5676   23.0260 C   0  0  1  0  0  0  0  0  0  0  0  0
   12.9967  -17.2595   23.2884 C   0  0  0  0  0  0  0  0  0  0  0  0
   13.8479  -17.6267   22.1385 C   0  0  0  0  0  0  0  0  0  0  0  0
   13.6480  -18.7409   21.5958 O   0  0  0  0  0  0  0  0  0  0  0  0
   10.7537  -17.2316   24.2579 C   0  0  0  0  0  0  0  0  0  0  0  0
   10.9391  -16.1268   24.8493 O   0  0  0  0  0  0  0  0  0  0  0  0
   14.8435  -16.8256   21.6264 O   0  0  0  0  0  0  0  0  0  0  0  0
    7.1472  -12.2944   23.2717 O   0  0  0  0  0  0  0  0  0  0  0  0
    7.2823  -13.5299   23.9059 C   0  0  0  0  0  0  0  0  0  0  0  0
    7.7970  -13.6823   25.1630 C   0  0  0  0  0  0  0  0  0  0  0  0
    7.9051  -14.9309   25.7370 C   0  0  0  0  0  0  0  0  0  0  0  0
    7.5091  -16.0821   25.0922 C   0  0  0  0  0  0  0  0  0  0  0  0
    7.6072  -17.4426   25.6578 C   0  0  0  0  0  0  0  0  0  0  0  0
    9.0103  -17.8678   25.9775 C   0  0  2  0  0  0  0  0  0  0  0  0
    9.7822  -18.1253   24.7754 N   0  0  0  0  0  0  0  0  0  0  0  0
    9.1001  -19.0083   26.8989 C   0  0  0  0  0  0  0  0  0  0  0  0
    9.7554  -20.1926   26.5902 O   0  0  0  0  0  0  0  0  0  0  0  0
    6.9856  -15.9082   23.8088 C   0  0  0  0  0  0  0  0  0  0  0  0
    6.8761  -14.6603   23.2322 C   0  0  0  0  0  0  0  0  0  0  0  0
    8.5681  -18.9430   28.0321 O   0  0  0  0  0  0  0  0  0  0  0  0
  2  3  1  0
  2  1  1  1
  3  4  1  0
  4  5  2  0
  5  6  1  0
  7  6  1  0
  8  4  1  0
  8  7  2  0
  9 10  2  0
  9  2  1  0
 11  9  1  0
 12 11  1  0
 13 14  1  0
 12 13  1  1
 14 15  2  0
 16 17  2  0
 16 12  1  0
 18 14  1  0
 20 19  1  0
 21 20  2  0
 22 21  1  0
 23 29  1  0
 23 22  2  0
 24 23  1  0
 25 24  1  6
 25 26  1  0
 26 16  1  0
 27 25  1  0
 28 27  1  0
 29 30  2  0
 30 20  1  0
 31 27  2  0
M  END
$$$$
