HDY.pdb
     RDKit          3D

 31 32  0  0  1  0  0  0  0  0999 V2000
    8.5392  -16.5083   20.1760 N   0  0  0  0  0  0  0  0  0  0  0  0
    9.0618  -15.6491   21.2220 C   0  0  1  0  0  0  0  0  0  0  0  0
    8.1604  -14.5101   21.5150 C   0  0  0  0  0  0  0  0  0  0  0  0
    7.8633  -13.7234   20.3015 C   0  0  0  0  0  0  0  0  0  0  0  0
    8.3570  -12.4596   19.9962 C   0  0  0  0  0  0  0  0  0  0  0  0
    7.8708  -12.0601   18.8133 N   0  0  0  0  0  0  0  0  0  0  0  0
    7.0861  -13.0316   18.3629 C   0  0  0  0  0  0  0  0  0  0  0  0
    7.0788  -14.0438   19.2642 N   0  0  0  0  0  0  0  0  0  0  0  0
    9.5489  -16.4227   22.3683 C   0  0  0  0  0  0  0  0  0  0  0  0
    8.7651  -17.2905   22.8582 O   0  0  0  0  0  0  0  0  0  0  0  0
   10.8073  -16.2802   22.9693 N   0  0  0  0  0  0  0  0  0  0  0  0
   11.2657  -17.1225   24.0263 C   0  0  1  0  0  0  0  0  0  0  0  0
   12.6998  -17.5181   23.9777 C   0  0  0  0  0  0  0  0  0  0  0  0
   13.1089  -17.9004   22.6109 C   0  0  0  0  0  0  0  0  0  0  0  0
   12.6308  -18.9579   22.1322 O   0  0  0  0  0  0  0  0  0  0  0  0
   10.9773  -16.4757   25.3627 C   0  0  0  0  0  0  0  0  0  0  0  0
   11.4617  -15.3351   25.6257 O   0  0  0  0  0  0  0  0  0  0  0  0
   13.9790  -17.1716   21.8318 O   0  0  0  0  0  0  0  0  0  0  0  0
    6.4175  -11.7209   25.4645 O   0  0  0  0  0  0  0  0  0  0  0  0
    6.8898  -12.8957   26.0508 C   0  0  0  0  0  0  0  0  0  0  0  0
    6.3459  -14.1281   25.8192 C   0  0  0  0  0  0  0  0  0  0  0  0
    6.8575  -15.2536   26.4289 C   0  0  0  0  0  0  0  0  0  0  0  0
    7.9287  -15.2082   27.2940 C   0  0  0  0  0  0  0  0  0  0  0  0
    8.5123  -16.3802   27.9770 C   0  0  0  0  0  0  0  0  0  0  0  0
    9.9674  -16.5944   27.6794 C   0  0  2  0  0  0  0  0  0  0  0  0
   10.1723  -17.1143   26.3397 N   0  0  0  0  0  0  0  0  0  0  0  0
   10.6687  -17.4270   28.6655 C   0  0  0  0  0  0  0  0  0  0  0  0
   10.9223  -17.0212   29.9687 O   0  0  0  0  0  0  0  0  0  0  0  0
    8.4721  -13.9412   27.5194 C   0  0  0  0  0  0  0  0  0  0  0  0
    7.9625  -12.8136   26.9107 C   0  0  0  0  0  0  0  0  0  0  0  0
   11.0735  -18.5700   28.3475 O   0  0  0  0  0  0  0  0  0  0  0  0
  2  3  1  0
  2  1  1  6
  3  4  1  0
  4  5  2  0
  5  6  1  0
  7  6  1  0
  8  4  1  0
  8  7  2  0
  9 10  2  0
  9  2  1  0
 11  9  1  0
 12 11  1  0
 13 14  1  0
 12 13  1  6
 14 15  2  0
 16 17  2  0
 16 12  1  0
 18 14  1  0
 20 19  1  0
 21 20  2  0
 22 21  1  0
 23 29  1  0
 23 22  2  0
 24 23  1  0
 25 24  1  1
 25 26  1  0
 26 16  1  0
 27 25  1  0
 28 27  1  0
 29 30  2  0
 30 20  1  0
 31 27  2  0
M  END
$$$$
