HDY.pdb
     RDKit          3D

 31 32  0  0  1  0  0  0  0  0999 V2000
    8.6537  -16.6056   20.3728 N   0  0  0  0  0  0  0  0  0  0  0  0
    9.0491  -15.7193   21.4516 C   0  0  1  0  0  0  0  0  0  0  0  0
    8.0444  -14.6598   21.7039 C   0  0  0  0  0  0  0  0  0  0  0  0
    7.7479  -13.8868   20.4815 C   0  0  0  0  0  0  0  0  0  0  0  0
    8.3222  -12.6754   20.1118 C   0  0  0  0  0  0  0  0  0  0  0  0
    7.8089  -12.2723   18.9416 N   0  0  0  0  0  0  0  0  0  0  0  0
    6.9291  -13.1910   18.5615 C   0  0  0  0  0  0  0  0  0  0  0  0
    6.8891  -14.1735   19.4944 N   0  0  0  0  0  0  0  0  0  0  0  0
    9.5357  -16.4644   22.6167 C   0  0  0  0  0  0  0  0  0  0  0  0
    8.6906  -17.1627   23.2536 O   0  0  0  0  0  0  0  0  0  0  0  0
   10.8563  -16.4661   23.0869 N   0  0  0  0  0  0  0  0  0  0  0  0
   11.2841  -17.2419   24.2058 C   0  0  1  0  0  0  0  0  0  0  0  0
   12.7268  -17.6061   24.2412 C   0  0  0  0  0  0  0  0  0  0  0  0
   13.1204  -18.3723   23.0414 C   0  0  0  0  0  0  0  0  0  0  0  0
   12.3068  -19.2177   22.5950 O   0  0  0  0  0  0  0  0  0  0  0  0
   10.9221  -16.5339   25.4923 C   0  0  0  0  0  0  0  0  0  0  0  0
   11.3682  -15.3693   25.7149 O   0  0  0  0  0  0  0  0  0  0  0  0
   14.3201  -18.2176   22.3842 O   0  0  0  0  0  0  0  0  0  0  0  0
    6.6135  -11.9144   24.8319 O   0  0  0  0  0  0  0  0  0  0  0  0
    7.1060  -12.9303   25.6518 C   0  0  0  0  0  0  0  0  0  0  0  0
    8.0484  -12.7296   26.6212 C   0  0  0  0  0  0  0  0  0  0  0  0
    8.4960  -13.7748   27.4006 C   0  0  0  0  0  0  0  0  0  0  0  0
    8.0308  -15.0632   27.2543 C   0  0  0  0  0  0  0  0  0  0  0  0
    8.4789  -16.2186   28.0572 C   0  0  0  0  0  0  0  0  0  0  0  0
    9.9041  -16.6161   27.8070 C   0  0  2  0  0  0  0  0  0  0  0  0
   10.0895  -17.1408   26.4664 N   0  0  0  0  0  0  0  0  0  0  0  0
   10.4549  -17.5455   28.8023 C   0  0  0  0  0  0  0  0  0  0  0  0
   10.5882  -17.2350   30.1489 O   0  0  0  0  0  0  0  0  0  0  0  0
    7.0684  -15.2505   26.2592 C   0  0  0  0  0  0  0  0  0  0  0  0
    6.6187  -14.2067   25.4782 C   0  0  0  0  0  0  0  0  0  0  0  0
   10.8346  -18.6876   28.4520 O   0  0  0  0  0  0  0  0  0  0  0  0
  2  3  1  0
  2  1  1  6
  3  4  1  0
  4  5  2  0
  5  6  1  0
  7  6  1  0
  8  4  1  0
  8  7  2  0
  9 10  2  0
  9  2  1  0
 11  9  1  0
 12 11  1  0
 13 14  1  0
 12 13  1  6
 14 15  2  0
 16 17  2  0
 16 12  1  0
 18 14  1  0
 20 19  1  0
 21 20  2  0
 22 21  1  0
 23 29  1  0
 23 22  2  0
 24 23  1  0
 25 24  1  1
 25 26  1  0
 26 16  1  0
 27 25  1  0
 28 27  1  0
 29 30  2  0
 30 20  1  0
 31 27  2  0
M  END
$$$$
