HDY.pdb
     RDKit          3D

 31 32  0  0  1  0  0  0  0  0999 V2000
    7.5249  -17.0749   18.8479 N   0  0  0  0  0  0  0  0  0  0  0  0
    8.8009  -16.4952   19.2238 C   0  0  1  0  0  0  0  0  0  0  0  0
    8.8008  -15.0177   19.1113 C   0  0  0  0  0  0  0  0  0  0  0  0
    8.4409  -14.5742   17.7498 C   0  0  0  0  0  0  0  0  0  0  0  0
    7.4037  -13.7123   17.4101 C   0  0  0  0  0  0  0  0  0  0  0  0
    7.3791  -13.5392   16.0817 N   0  0  0  0  0  0  0  0  0  0  0  0
    8.3677  -14.2645   15.5728 C   0  0  0  0  0  0  0  0  0  0  0  0
    9.0151  -14.8949   16.5830 N   0  0  0  0  0  0  0  0  0  0  0  0
    9.3101  -17.0662   20.4745 C   0  0  0  0  0  0  0  0  0  0  0  0
    8.4550  -17.4726   21.3176 O   0  0  0  0  0  0  0  0  0  0  0  0
   10.6632  -17.1968   20.8168 N   0  0  0  0  0  0  0  0  0  0  0  0
   11.1032  -17.6241   22.1055 C   0  0  1  0  0  0  0  0  0  0  0  0
   12.5573  -17.9105   22.2429 C   0  0  0  0  0  0  0  0  0  0  0  0
   12.8691  -18.5045   23.5588 C   0  0  0  0  0  0  0  0  0  0  0  0
   12.7939  -17.7615   24.5679 O   0  0  0  0  0  0  0  0  0  0  0  0
   10.6993  -16.6084   23.1508 C   0  0  0  0  0  0  0  0  0  0  0  0
   11.2295  -15.4579   23.1460 O   0  0  0  0  0  0  0  0  0  0  0  0
   13.2357  -19.8181   23.7470 O   0  0  0  0  0  0  0  0  0  0  0  0
    6.1968  -10.9445   27.8476 O   0  0  0  0  0  0  0  0  0  0  0  0
    6.6352  -11.9914   27.0358 C   0  0  0  0  0  0  0  0  0  0  0  0
    6.0842  -13.2421   27.0513 C   0  0  0  0  0  0  0  0  0  0  0  0
    6.5616  -14.2362   26.2243 C   0  0  0  0  0  0  0  0  0  0  0  0
    7.6045  -14.0359   25.3467 C   0  0  0  0  0  0  0  0  0  0  0  0
    8.1574  -15.0652   24.4438 C   0  0  0  0  0  0  0  0  0  0  0  0
    9.2080  -15.9287   25.0782 C   0  0  2  0  0  0  0  0  0  0  0  0
    9.7350  -16.9085   24.1459 N   0  0  0  0  0  0  0  0  0  0  0  0
    8.7812  -16.5823   26.3225 C   0  0  0  0  0  0  0  0  0  0  0  0
    8.5073  -17.9398   26.4197 O   0  0  0  0  0  0  0  0  0  0  0  0
    8.1557  -12.7523   25.3438 C   0  0  0  0  0  0  0  0  0  0  0  0
    7.6800  -11.7558   26.1700 C   0  0  0  0  0  0  0  0  0  0  0  0
    8.6469  -15.9087   27.3712 O   0  0  0  0  0  0  0  0  0  0  0  0
  2  3  1  0
  2  1  1  1
  3  4  1  0
  4  5  2  0
  5  6  1  0
  7  6  1  0
  8  4  1  0
  8  7  2  0
  9 10  2  0
  9  2  1  0
 11  9  1  0
 12 11  1  0
 13 14  1  0
 12 13  1  6
 14 15  2  0
 16 17  2  0
 16 12  1  0
 18 14  1  0
 20 19  1  0
 21 20  2  0
 22 21  1  0
 23 29  1  0
 23 22  2  0
 24 23  1  0
 25 24  1  6
 25 26  1  0
 26 16  1  0
 27 25  1  0
 28 27  1  0
 29 30  2  0
 30 20  1  0
 31 27  2  0
M  END
$$$$
