HDY.pdb
     RDKit          3D

 31 32  0  0  1  0  0  0  0  0999 V2000
    7.8407  -17.7967   19.6832 N   0  0  0  0  0  0  0  0  0  0  0  0
    8.1238  -16.6603   20.5400 C   0  0  1  0  0  0  0  0  0  0  0  0
    6.8882  -16.0015   21.0245 C   0  0  0  0  0  0  0  0  0  0  0  0
    5.8079  -16.9783   21.2665 C   0  0  0  0  0  0  0  0  0  0  0  0
    5.8926  -18.3576   21.1102 C   0  0  0  0  0  0  0  0  0  0  0  0
    4.7163  -18.9189   21.4206 N   0  0  0  0  0  0  0  0  0  0  0  0
    3.8923  -17.9375   21.7676 C   0  0  0  0  0  0  0  0  0  0  0  0
    4.5517  -16.7570   21.6752 N   0  0  0  0  0  0  0  0  0  0  0  0
    9.1450  -16.9769   21.5432 C   0  0  0  0  0  0  0  0  0  0  0  0
    9.0864  -18.1189   22.0909 O   0  0  0  0  0  0  0  0  0  0  0  0
   10.1782  -16.1211   21.9494 N   0  0  0  0  0  0  0  0  0  0  0  0
   11.1563  -16.4874   22.9221 C   0  0  1  0  0  0  0  0  0  0  0  0
   12.5091  -15.8901   22.7523 C   0  0  0  0  0  0  0  0  0  0  0  0
   13.5282  -16.6331   23.5212 C   0  0  0  0  0  0  0  0  0  0  0  0
   14.4063  -15.9676   24.1228 O   0  0  0  0  0  0  0  0  0  0  0  0
   10.6470  -16.1691   24.3102 C   0  0  0  0  0  0  0  0  0  0  0  0
   10.7656  -14.9939   24.7682 O   0  0  0  0  0  0  0  0  0  0  0  0
   13.5747  -18.0054   23.6190 O   0  0  0  0  0  0  0  0  0  0  0  0
    6.7307  -11.2455   25.9634 O   0  0  0  0  0  0  0  0  0  0  0  0
    7.1469  -12.5575   26.1924 C   0  0  0  0  0  0  0  0  0  0  0  0
    8.1554  -12.8917   27.0523 C   0  0  0  0  0  0  0  0  0  0  0  0
    8.5215  -14.2078   27.2366 C   0  0  0  0  0  0  0  0  0  0  0  0
    7.9060  -15.2497   26.5781 C   0  0  0  0  0  0  0  0  0  0  0  0
    8.2612  -16.6744   26.7342 C   0  0  0  0  0  0  0  0  0  0  0  0
    9.7189  -16.9633   26.5258 C   0  0  2  0  0  0  0  0  0  0  0  0
   10.0344  -17.1567   25.1222 N   0  0  0  0  0  0  0  0  0  0  0  0
   10.2326  -18.0828   27.3261 C   0  0  0  0  0  0  0  0  0  0  0  0
   10.3048  -18.0637   28.7123 O   0  0  0  0  0  0  0  0  0  0  0  0
    6.8778  -14.8903   25.7033 C   0  0  0  0  0  0  0  0  0  0  0  0
    6.5094  -13.5745   25.5171 C   0  0  0  0  0  0  0  0  0  0  0  0
   10.6356  -19.1261   26.7599 O   0  0  0  0  0  0  0  0  0  0  0  0
  2  3  1  0
  2  1  1  1
  3  4  1  0
  4  5  2  0
  5  6  1  0
  7  6  1  0
  8  4  1  0
  8  7  2  0
  9 10  2  0
  9  2  1  0
 11  9  1  0
 12 11  1  0
 13 14  1  0
 12 13  1  6
 14 15  2  0
 16 17  2  0
 16 12  1  0
 18 14  1  0
 20 19  1  0
 21 20  2  0
 22 21  1  0
 23 29  1  0
 23 22  2  0
 24 23  1  0
 25 24  1  6
 25 26  1  0
 26 16  1  0
 27 25  1  0
 28 27  1  0
 29 30  2  0
 30 20  1  0
 31 27  2  0
M  END
$$$$
