HDY.pdb
     RDKit          3D

 31 32  0  0  1  0  0  0  0  0999 V2000
    8.1148  -17.2034   19.2926 N   0  0  0  0  0  0  0  0  0  0  0  0
    8.5860  -16.2558   20.2854 C   0  0  1  0  0  0  0  0  0  0  0  0
    7.8342  -14.9796   20.2441 C   0  0  0  0  0  0  0  0  0  0  0  0
    7.9545  -14.3177   18.9299 C   0  0  0  0  0  0  0  0  0  0  0  0
    8.7800  -13.2421   18.6205 C   0  0  0  0  0  0  0  0  0  0  0  0
    8.6226  -12.9100   17.3320 N   0  0  0  0  0  0  0  0  0  0  0  0
    7.7241  -13.7420   16.8190 C   0  0  0  0  0  0  0  0  0  0  0  0
    7.3158  -14.5986   17.7866 N   0  0  0  0  0  0  0  0  0  0  0  0
    8.7565  -16.8842   21.5989 C   0  0  0  0  0  0  0  0  0  0  0  0
    7.7083  -17.1069   22.2764 O   0  0  0  0  0  0  0  0  0  0  0  0
    9.9819  -17.2561   22.1692 N   0  0  0  0  0  0  0  0  0  0  0  0
   10.0927  -17.8358   23.4687 C   0  0  1  0  0  0  0  0  0  0  0  0
   10.7833  -19.1520   23.5455 C   0  0  0  0  0  0  0  0  0  0  0  0
   10.7702  -19.6897   24.9211 C   0  0  0  0  0  0  0  0  0  0  0  0
    9.9742  -19.1730   25.7429 O   0  0  0  0  0  0  0  0  0  0  0  0
   10.7728  -16.8661   24.4092 C   0  0  0  0  0  0  0  0  0  0  0  0
   11.8841  -16.3517   24.0848 O   0  0  0  0  0  0  0  0  0  0  0  0
   11.5739  -20.7190   25.3567 O   0  0  0  0  0  0  0  0  0  0  0  0
    4.8459  -13.0619   27.2598 O   0  0  0  0  0  0  0  0  0  0  0  0
    6.2036  -13.3164   27.0624 C   0  0  0  0  0  0  0  0  0  0  0  0
    7.1364  -13.2595   28.0599 C   0  0  0  0  0  0  0  0  0  0  0  0
    8.4649  -13.5218   27.8024 C   0  0  0  0  0  0  0  0  0  0  0  0
    8.9277  -13.8514   26.5473 C   0  0  0  0  0  0  0  0  0  0  0  0
   10.3382  -14.1365   26.2158 C   0  0  0  0  0  0  0  0  0  0  0  0
   10.7727  -15.5313   26.5585 C   0  0  2  0  0  0  0  0  0  0  0  0
   10.1976  -16.5118   25.6558 N   0  0  0  0  0  0  0  0  0  0  0  0
   10.5270  -15.9138   27.9553 C   0  0  0  0  0  0  0  0  0  0  0  0
    9.7812  -17.0247   28.3254 O   0  0  0  0  0  0  0  0  0  0  0  0
    7.9613  -13.9049   25.5400 C   0  0  0  0  0  0  0  0  0  0  0  0
    6.6315  -13.6431   25.7948 C   0  0  0  0  0  0  0  0  0  0  0  0
   11.0008  -15.2230   28.8878 O   0  0  0  0  0  0  0  0  0  0  0  0
  2  3  1  0
  2  1  1  6
  3  4  1  0
  4  5  2  0
  5  6  1  0
  7  6  1  0
  8  4  1  0
  8  7  2  0
  9 10  2  0
  9  2  1  0
 11  9  1  0
 12 11  1  0
 13 14  1  0
 12 13  1  6
 14 15  2  0
 16 17  2  0
 16 12  1  0
 18 14  1  0
 20 19  1  0
 21 20  2  0
 22 21  1  0
 23 29  1  0
 23 22  2  0
 24 23  1  0
 25 24  1  6
 25 26  1  0
 26 16  1  0
 27 25  1  0
 28 27  1  0
 29 30  2  0
 30 20  1  0
 31 27  2  0
M  END
$$$$
