HDY.pdb
     RDKit          3D

 31 32  0  0  1  0  0  0  0  0999 V2000
    9.8954  -15.8231   20.1197 N   0  0  0  0  0  0  0  0  0  0  0  0
    9.0911  -15.1911   21.1489 C   0  0  1  0  0  0  0  0  0  0  0  0
    7.7141  -14.9004   20.6852 C   0  0  0  0  0  0  0  0  0  0  0  0
    7.7064  -14.3234   19.3263 C   0  0  0  0  0  0  0  0  0  0  0  0
    7.9646  -12.9987   18.9910 C   0  0  0  0  0  0  0  0  0  0  0  0
    7.8669  -12.8429   17.6638 N   0  0  0  0  0  0  0  0  0  0  0  0
    7.5552  -14.0273   17.1514 C   0  0  0  0  0  0  0  0  0  0  0  0
    7.4568  -14.9294   18.1581 N   0  0  0  0  0  0  0  0  0  0  0  0
    9.2274  -15.8721   22.4401 C   0  0  0  0  0  0  0  0  0  0  0  0
    8.4832  -15.4758   23.3869 O   0  0  0  0  0  0  0  0  0  0  0  0
   10.1143  -16.9222   22.7156 N   0  0  0  0  0  0  0  0  0  0  0  0
   10.1846  -17.5699   23.9854 C   0  0  1  0  0  0  0  0  0  0  0  0
   10.8744  -18.8885   24.0143 C   0  0  0  0  0  0  0  0  0  0  0  0
   10.3204  -19.8105   23.0021 C   0  0  0  0  0  0  0  0  0  0  0  0
    9.0907  -20.0586   23.0484 O   0  0  0  0  0  0  0  0  0  0  0  0
   10.8329  -16.6515   24.9971 C   0  0  0  0  0  0  0  0  0  0  0  0
   12.0497  -16.3264   24.8607 O   0  0  0  0  0  0  0  0  0  0  0  0
   11.0663  -20.4128   22.0141 O   0  0  0  0  0  0  0  0  0  0  0  0
    5.5003  -12.3445   25.1795 O   0  0  0  0  0  0  0  0  0  0  0  0
    6.7319  -12.7231   25.7151 C   0  0  0  0  0  0  0  0  0  0  0  0
    7.0948  -12.4939   27.0128 C   0  0  0  0  0  0  0  0  0  0  0  0
    8.3274  -12.8923   27.4840 C   0  0  0  0  0  0  0  0  0  0  0  0
    9.2539  -13.5342   26.6919 C   0  0  0  0  0  0  0  0  0  0  0  0
   10.5882  -13.9771   27.1435 C   0  0  0  0  0  0  0  0  0  0  0  0
   10.7359  -15.4679   27.2311 C   0  0  2  0  0  0  0  0  0  0  0  0
   10.1120  -16.1380   26.1047 N   0  0  0  0  0  0  0  0  0  0  0  0
   10.2669  -16.0473   28.4968 C   0  0  0  0  0  0  0  0  0  0  0  0
    9.3042  -17.0447   28.5723 O   0  0  0  0  0  0  0  0  0  0  0  0
    8.8668  -13.7603   25.3688 C   0  0  0  0  0  0  0  0  0  0  0  0
    7.6343  -13.3629   24.8948 C   0  0  0  0  0  0  0  0  0  0  0  0
   10.7395  -15.6433   29.5852 O   0  0  0  0  0  0  0  0  0  0  0  0
  2  3  1  0
  2  1  1  6
  3  4  1  0
  4  5  2  0
  5  6  1  0
  7  6  1  0
  8  4  1  0
  8  7  2  0
  9 10  2  0
  9  2  1  0
 11  9  1  0
 12 11  1  0
 13 14  1  0
 12 13  1  6
 14 15  2  0
 16 17  2  0
 16 12  1  0
 18 14  1  0
 20 19  1  0
 21 20  2  0
 22 21  1  0
 23 29  1  0
 23 22  2  0
 24 23  1  0
 25 24  1  1
 25 26  1  0
 26 16  1  0
 27 25  1  0
 28 27  1  0
 29 30  2  0
 30 20  1  0
 31 27  2  0
M  END
$$$$
