HDY.pdb
     RDKit          3D

 31 32  0  0  1  0  0  0  0  0999 V2000
    9.1461  -16.2039   20.6320 N   0  0  0  0  0  0  0  0  0  0  0  0
    8.4981  -15.5268   21.7398 C   0  0  1  0  0  0  0  0  0  0  0  0
    7.1902  -14.9466   21.3549 C   0  0  0  0  0  0  0  0  0  0  0  0
    7.3005  -14.1066   20.1458 C   0  0  0  0  0  0  0  0  0  0  0  0
    8.0310  -12.9296   20.0228 C   0  0  0  0  0  0  0  0  0  0  0  0
    7.8958  -12.4434   18.7816 N   0  0  0  0  0  0  0  0  0  0  0  0
    7.1032  -13.2763   18.1178 C   0  0  0  0  0  0  0  0  0  0  0  0
    6.7394  -14.2880   18.9432 N   0  0  0  0  0  0  0  0  0  0  0  0
    8.5331  -16.3320   22.9645 C   0  0  0  0  0  0  0  0  0  0  0  0
    7.6641  -16.0772   23.8518 O   0  0  0  0  0  0  0  0  0  0  0  0
    9.4493  -17.3573   23.2372 N   0  0  0  0  0  0  0  0  0  0  0  0
   10.7644  -17.1149   23.7357 C   0  0  1  0  0  0  0  0  0  0  0  0
   11.5411  -16.0457   23.0509 C   0  0  0  0  0  0  0  0  0  0  0  0
   12.4474  -16.6067   22.0284 C   0  0  0  0  0  0  0  0  0  0  0  0
   13.0929  -17.6419   22.3243 O   0  0  0  0  0  0  0  0  0  0  0  0
   10.7065  -16.8115   25.2163 C   0  0  0  0  0  0  0  0  0  0  0  0
   11.7253  -16.3360   25.8000 O   0  0  0  0  0  0  0  0  0  0  0  0
   12.6275  -16.0668   20.7749 O   0  0  0  0  0  0  0  0  0  0  0  0
    6.9217  -11.4305   24.6824 O   0  0  0  0  0  0  0  0  0  0  0  0
    7.2599  -12.5450   25.4510 C   0  0  0  0  0  0  0  0  0  0  0  0
    8.3454  -12.5903   26.2804 C   0  0  0  0  0  0  0  0  0  0  0  0
    8.6279  -13.7217   27.0154 C   0  0  0  0  0  0  0  0  0  0  0  0
    7.8490  -14.8568   26.9613 C   0  0  0  0  0  0  0  0  0  0  0  0
    8.1084  -16.0955   27.7220 C   0  0  0  0  0  0  0  0  0  0  0  0
    9.4201  -16.7464   27.3940 C   0  0  2  0  0  0  0  0  0  0  0  0
    9.5338  -17.0455   25.9781 N   0  0  0  0  0  0  0  0  0  0  0  0
    9.7186  -17.9402   28.1960 C   0  0  0  0  0  0  0  0  0  0  0  0
    9.9225  -19.1995   27.6484 O   0  0  0  0  0  0  0  0  0  0  0  0
    6.7441  -14.7932   26.1088 C   0  0  0  0  0  0  0  0  0  0  0  0
    6.4591  -13.6626   25.3725 C   0  0  0  0  0  0  0  0  0  0  0  0
    9.8009  -17.8535   29.4438 O   0  0  0  0  0  0  0  0  0  0  0  0
  2  3  1  0
  2  1  1  6
  3  4  1  0
  4  5  2  0
  5  6  1  0
  7  6  1  0
  8  4  1  0
  8  7  2  0
  9 10  2  0
  9  2  1  0
 11  9  1  0
 12 11  1  0
 13 14  1  0
 12 13  1  6
 14 15  2  0
 16 17  2  0
 16 12  1  0
 18 14  1  0
 20 19  1  0
 21 20  2  0
 22 21  1  0
 23 29  1  0
 23 22  2  0
 24 23  1  0
 25 24  1  6
 25 26  1  0
 26 16  1  0
 27 25  1  0
 28 27  1  0
 29 30  2  0
 30 20  1  0
 31 27  2  0
M  END
$$$$
