HDY.pdb
     RDKit          3D

 31 32  0  0  1  0  0  0  0  0999 V2000
    8.3537  -17.1773   18.5493 N   0  0  0  0  0  0  0  0  0  0  0  0
    9.2764  -16.3847   19.3405 C   0  0  1  0  0  0  0  0  0  0  0  0
    8.6359  -15.1720   19.9014 C   0  0  0  0  0  0  0  0  0  0  0  0
    8.0947  -14.3003   18.8399 C   0  0  0  0  0  0  0  0  0  0  0  0
    8.3761  -12.9506   18.6574 C   0  0  0  0  0  0  0  0  0  0  0  0
    7.7041  -12.4904   17.5935 N   0  0  0  0  0  0  0  0  0  0  0  0
    7.0078  -13.5069   17.0992 C   0  0  0  0  0  0  0  0  0  0  0  0
    7.2424  -14.6082   17.8536 N   0  0  0  0  0  0  0  0  0  0  0  0
   10.0508  -17.2160   20.2672 C   0  0  0  0  0  0  0  0  0  0  0  0
    9.4050  -18.0231   21.0014 O   0  0  0  0  0  0  0  0  0  0  0  0
   11.4449  -17.1903   20.4113 N   0  0  0  0  0  0  0  0  0  0  0  0
   12.1404  -17.9506   21.3987 C   0  0  1  0  0  0  0  0  0  0  0  0
   13.5400  -18.3345   21.0685 C   0  0  0  0  0  0  0  0  0  0  0  0
   14.0941  -19.2698   22.0685 C   0  0  0  0  0  0  0  0  0  0  0  0
   15.3428  -19.3311   22.1823 O   0  0  0  0  0  0  0  0  0  0  0  0
   12.1295  -17.2131   22.7192 C   0  0  0  0  0  0  0  0  0  0  0  0
   12.6757  -16.0734   22.8062 O   0  0  0  0  0  0  0  0  0  0  0  0
   13.3289  -20.0758   22.8809 O   0  0  0  0  0  0  0  0  0  0  0  0
   10.0871  -14.1302   30.7244 O   0  0  0  0  0  0  0  0  0  0  0  0
   10.1597  -14.7429   29.4729 C   0  0  0  0  0  0  0  0  0  0  0  0
   10.5662  -16.0344   29.2857 C   0  0  0  0  0  0  0  0  0  0  0  0
   10.6169  -16.5846   28.0229 C   0  0  0  0  0  0  0  0  0  0  0  0
   10.2680  -15.8809   26.8910 C   0  0  0  0  0  0  0  0  0  0  0  0
   10.3087  -16.4190   25.5166 C   0  0  0  0  0  0  0  0  0  0  0  0
   11.5776  -17.1493   25.1874 C   0  0  2  0  0  0  0  0  0  0  0  0
   11.5196  -17.7649   23.8741 N   0  0  0  0  0  0  0  0  0  0  0  0
   11.9865  -18.1339   26.1979 C   0  0  0  0  0  0  0  0  0  0  0  0
   11.7930  -19.5014   26.0571 O   0  0  0  0  0  0  0  0  0  0  0  0
    9.8552  -14.5628   27.1005 C   0  0  0  0  0  0  0  0  0  0  0  0
    9.8033  -14.0099   28.3627 C   0  0  0  0  0  0  0  0  0  0  0  0
   12.5423  -17.7542   27.2554 O   0  0  0  0  0  0  0  0  0  0  0  0
  2  3  1  0
  2  1  1  1
  3  4  1  0
  4  5  2  0
  5  6  1  0
  7  6  1  0
  8  4  1  0
  8  7  2  0
  9 10  2  0
  9  2  1  0
 11  9  1  0
 12 11  1  0
 13 14  1  0
 12 13  1  6
 14 15  2  0
 16 17  2  0
 16 12  1  0
 18 14  1  0
 20 19  1  0
 21 20  2  0
 22 21  1  0
 23 29  1  0
 23 22  2  0
 24 23  1  0
 25 24  1  1
 25 26  1  0
 26 16  1  0
 27 25  1  0
 28 27  1  0
 29 30  2  0
 30 20  1  0
 31 27  2  0
M  END
$$$$
