HDY.pdb
     RDKit          3D

 31 32  0  0  1  0  0  0  0  0999 V2000
    8.9802  -16.6814   20.4167 N   0  0  0  0  0  0  0  0  0  0  0  0
    8.9592  -15.7990   21.5684 C   0  0  1  0  0  0  0  0  0  0  0  0
    7.8070  -14.8678   21.5407 C   0  0  0  0  0  0  0  0  0  0  0  0
    7.7072  -14.1616   20.2480 C   0  0  0  0  0  0  0  0  0  0  0  0
    8.2784  -12.9335   19.9326 C   0  0  0  0  0  0  0  0  0  0  0  0
    7.9750  -12.6071   18.6690 N   0  0  0  0  0  0  0  0  0  0  0  0
    7.2305  -13.5903   18.1775 C   0  0  0  0  0  0  0  0  0  0  0  0
    7.0655  -14.5365   19.1337 N   0  0  0  0  0  0  0  0  0  0  0  0
    9.1928  -16.5299   22.8177 C   0  0  0  0  0  0  0  0  0  0  0  0
    8.4841  -17.5597   23.0290 O   0  0  0  0  0  0  0  0  0  0  0  0
   10.1318  -16.1830   23.7990 N   0  0  0  0  0  0  0  0  0  0  0  0
   10.9433  -17.1429   24.4749 C   0  0  1  0  0  0  0  0  0  0  0  0
   12.3087  -17.3563   23.9221 C   0  0  0  0  0  0  0  0  0  0  0  0
   12.2745  -18.1941   22.7061 C   0  0  0  0  0  0  0  0  0  0  0  0
   12.8121  -17.7384   21.6673 O   0  0  0  0  0  0  0  0  0  0  0  0
   11.0547  -16.7834   25.9398 C   0  0  0  0  0  0  0  0  0  0  0  0
   11.7217  -17.5263   26.7196 O   0  0  0  0  0  0  0  0  0  0  0  0
   11.6917  -19.4397   22.6414 O   0  0  0  0  0  0  0  0  0  0  0  0
    6.2955  -11.2973   24.8846 O   0  0  0  0  0  0  0  0  0  0  0  0
    7.0070  -12.1440   25.7353 C   0  0  0  0  0  0  0  0  0  0  0  0
    8.2332  -11.8371   26.2555 C   0  0  0  0  0  0  0  0  0  0  0  0
    8.8875  -12.7161   27.0918 C   0  0  0  0  0  0  0  0  0  0  0  0
    8.3573  -13.9363   27.4492 C   0  0  0  0  0  0  0  0  0  0  0  0
    9.0165  -14.9161   28.3357 C   0  0  0  0  0  0  0  0  0  0  0  0
   10.3933  -15.3105   27.8877 C   0  0  2  0  0  0  0  0  0  0  0  0
   10.4288  -15.6277   26.4716 N   0  0  0  0  0  0  0  0  0  0  0  0
   10.9949  -16.3970   28.6720 C   0  0  0  0  0  0  0  0  0  0  0  0
   11.3128  -17.6397   28.1411 O   0  0  0  0  0  0  0  0  0  0  0  0
    7.1039  -14.2339   26.9087 C   0  0  0  0  0  0  0  0  0  0  0  0
    6.4470  -13.3564   26.0720 C   0  0  0  0  0  0  0  0  0  0  0  0
   11.2479  -16.2276   29.8880 O   0  0  0  0  0  0  0  0  0  0  0  0
  2  3  1  0
  2  1  1  6
  3  4  1  0
  4  5  2  0
  5  6  1  0
  7  6  1  0
  8  4  1  0
  8  7  2  0
  9 10  2  0
  9  2  1  0
 11  9  1  0
 12 11  1  0
 13 14  1  0
 12 13  1  6
 14 15  2  0
 16 17  2  0
 16 12  1  0
 18 14  1  0
 20 19  1  0
 21 20  2  0
 22 21  1  0
 23 29  1  0
 23 22  2  0
 24 23  1  0
 25 24  1  1
 25 26  1  0
 26 16  1  0
 27 25  1  0
 28 27  1  0
 29 30  2  0
 30 20  1  0
 31 27  2  0
M  END
$$$$
