HDY.pdb
     RDKit          3D

 31 32  0  0  1  0  0  0  0  0999 V2000
    8.1007  -17.5174   18.2080 N   0  0  0  0  0  0  0  0  0  0  0  0
    8.9782  -16.5752   18.8772 C   0  0  1  0  0  0  0  0  0  0  0  0
    8.3868  -15.2192   18.9599 C   0  0  0  0  0  0  0  0  0  0  0  0
    8.1019  -14.6656   17.6213 C   0  0  0  0  0  0  0  0  0  0  0  0
    8.4353  -15.2439   16.4013 C   0  0  0  0  0  0  0  0  0  0  0  0
    8.0182  -14.4563   15.4008 N   0  0  0  0  0  0  0  0  0  0  0  0
    7.4325  -13.3996   15.9509 C   0  0  0  0  0  0  0  0  0  0  0  0
    7.4813  -13.5230   17.2998 N   0  0  0  0  0  0  0  0  0  0  0  0
    9.5346  -17.1339   20.1132 C   0  0  0  0  0  0  0  0  0  0  0  0
    8.7320  -17.7282   20.8944 O   0  0  0  0  0  0  0  0  0  0  0  0
   10.8788  -17.0628   20.5045 N   0  0  0  0  0  0  0  0  0  0  0  0
   11.3266  -17.3959   21.8180 C   0  0  1  0  0  0  0  0  0  0  0  0
   12.7977  -17.5367   21.9958 C   0  0  0  0  0  0  0  0  0  0  0  0
   13.3687  -18.5003   21.0329 C   0  0  0  0  0  0  0  0  0  0  0  0
   12.8655  -19.6496   20.9883 O   0  0  0  0  0  0  0  0  0  0  0  0
   10.8040  -16.3837   22.8129 C   0  0  0  0  0  0  0  0  0  0  0  0
   10.9666  -15.1465   22.5939 O   0  0  0  0  0  0  0  0  0  0  0  0
   14.4148  -18.2174   20.1839 O   0  0  0  0  0  0  0  0  0  0  0  0
    6.0787  -11.0717   27.5641 O   0  0  0  0  0  0  0  0  0  0  0  0
    6.6126  -12.0841   26.7659 C   0  0  0  0  0  0  0  0  0  0  0  0
    6.1134  -13.3558   26.7230 C   0  0  0  0  0  0  0  0  0  0  0  0
    6.6850  -14.3137   25.9131 C   0  0  0  0  0  0  0  0  0  0  0  0
    7.7749  -14.0548   25.1112 C   0  0  0  0  0  0  0  0  0  0  0  0
    8.4284  -15.0433   24.2302 C   0  0  0  0  0  0  0  0  0  0  0  0
    9.4925  -15.8536   24.9105 C   0  0  2  0  0  0  0  0  0  0  0  0
   10.1303  -16.7822   23.9951 N   0  0  0  0  0  0  0  0  0  0  0  0
    9.0372  -16.5550   26.1181 C   0  0  0  0  0  0  0  0  0  0  0  0
    9.1304  -16.0199   27.3957 O   0  0  0  0  0  0  0  0  0  0  0  0
    8.2722  -12.7505   25.1674 C   0  0  0  0  0  0  0  0  0  0  0  0
    7.7022  -11.7902   25.9765 C   0  0  0  0  0  0  0  0  0  0  0  0
    8.5329  -17.6990   26.0269 O   0  0  0  0  0  0  0  0  0  0  0  0
  2  3  1  0
  2  1  1  1
  3  4  1  0
  4  5  2  0
  5  6  1  0
  7  6  1  0
  8  4  1  0
  8  7  2  0
  9 10  2  0
  9  2  1  0
 11  9  1  0
 12 11  1  0
 13 14  1  0
 12 13  1  6
 14 15  2  0
 16 17  2  0
 16 12  1  0
 18 14  1  0
 20 19  1  0
 21 20  2  0
 22 21  1  0
 23 29  1  0
 23 22  2  0
 24 23  1  0
 25 24  1  6
 25 26  1  0
 26 16  1  0
 27 25  1  0
 28 27  1  0
 29 30  2  0
 30 20  1  0
 31 27  2  0
M  END
$$$$
