HDY.pdb
     RDKit          3D

 31 32  0  0  1  0  0  0  0  0999 V2000
    7.6983  -16.9527   18.0021 N   0  0  0  0  0  0  0  0  0  0  0  0
    8.8177  -16.2182   18.5616 C   0  0  1  0  0  0  0  0  0  0  0  0
    8.6271  -14.7515   18.4723 C   0  0  0  0  0  0  0  0  0  0  0  0
    8.4021  -14.3143   17.0803 C   0  0  0  0  0  0  0  0  0  0  0  0
    7.3693  -13.5001   16.6280 C   0  0  0  0  0  0  0  0  0  0  0  0
    7.4863  -13.3172   15.3058 N   0  0  0  0  0  0  0  0  0  0  0  0
    8.5600  -13.9902   14.9098 C   0  0  0  0  0  0  0  0  0  0  0  0
    9.1191  -14.5973   15.9849 N   0  0  0  0  0  0  0  0  0  0  0  0
    9.2257  -16.7572   19.8626 C   0  0  0  0  0  0  0  0  0  0  0  0
    8.3172  -17.2473   20.5987 O   0  0  0  0  0  0  0  0  0  0  0  0
   10.5357  -16.7725   20.3615 N   0  0  0  0  0  0  0  0  0  0  0  0
   10.8685  -17.2562   21.6623 C   0  0  1  0  0  0  0  0  0  0  0  0
   12.2410  -17.8076   21.8281 C   0  0  0  0  0  0  0  0  0  0  0  0
   12.4331  -18.3834   23.1747 C   0  0  0  0  0  0  0  0  0  0  0  0
   11.4801  -19.0291   23.6754 O   0  0  0  0  0  0  0  0  0  0  0  0
   10.6464  -16.1682   22.6891 C   0  0  0  0  0  0  0  0  0  0  0  0
   10.7474  -14.9525   22.3474 O   0  0  0  0  0  0  0  0  0  0  0  0
   13.5885  -18.2564   23.9124 O   0  0  0  0  0  0  0  0  0  0  0  0
    5.6018  -11.2208   27.4701 O   0  0  0  0  0  0  0  0  0  0  0  0
    6.2450  -12.1857   26.6940 C   0  0  0  0  0  0  0  0  0  0  0  0
    5.8225  -13.4818   26.5958 C   0  0  0  0  0  0  0  0  0  0  0  0
    6.5009  -14.3900   25.8116 C   0  0  0  0  0  0  0  0  0  0  0  0
    7.6265  -14.0551   25.0911 C   0  0  0  0  0  0  0  0  0  0  0  0
    8.3930  -14.9880   24.2410 C   0  0  0  0  0  0  0  0  0  0  0  0
    9.6013  -15.5699   24.9141 C   0  0  2  0  0  0  0  0  0  0  0  0
   10.3251  -16.4714   24.0363 N   0  0  0  0  0  0  0  0  0  0  0  0
    9.3203  -16.2218   26.2001 C   0  0  0  0  0  0  0  0  0  0  0  0
    8.7114  -17.4644   26.3121 O   0  0  0  0  0  0  0  0  0  0  0  0
    8.0443  -12.7268   25.2030 C   0  0  0  0  0  0  0  0  0  0  0  0
    7.3674  -11.8161   25.9867 C   0  0  0  0  0  0  0  0  0  0  0  0
    9.6336  -15.6543   27.2731 O   0  0  0  0  0  0  0  0  0  0  0  0
  2  3  1  0
  2  1  1  1
  3  4  1  0
  4  5  2  0
  5  6  1  0
  7  6  1  0
  8  4  1  0
  8  7  2  0
  9 10  2  0
  9  2  1  0
 11  9  1  0
 12 11  1  0
 13 14  1  0
 12 13  1  6
 14 15  2  0
 16 17  2  0
 16 12  1  0
 18 14  1  0
 20 19  1  0
 21 20  2  0
 22 21  1  0
 23 29  1  0
 23 22  2  0
 24 23  1  0
 25 24  1  6
 25 26  1  0
 26 16  1  0
 27 25  1  0
 28 27  1  0
 29 30  2  0
 30 20  1  0
 31 27  2  0
M  END
$$$$
