HDY.pdb
     RDKit          3D

 31 32  0  0  1  0  0  0  0  0999 V2000
    7.9667  -16.7674   20.8099 N   0  0  0  0  0  0  0  0  0  0  0  0
    8.6906  -15.8892   21.7100 C   0  0  1  0  0  0  0  0  0  0  0  0
    7.9788  -14.6099   21.9387 C   0  0  0  0  0  0  0  0  0  0  0  0
    7.7842  -13.8615   20.6810 C   0  0  0  0  0  0  0  0  0  0  0  0
    8.2109  -14.2496   19.4156 C   0  0  0  0  0  0  0  0  0  0  0  0
    7.8575  -13.3208   18.5168 N   0  0  0  0  0  0  0  0  0  0  0  0
    7.2215  -12.3593   19.1752 C   0  0  0  0  0  0  0  0  0  0  0  0
    7.1750  -12.6840   20.4903 N   0  0  0  0  0  0  0  0  0  0  0  0
    9.1711  -16.6035   22.8968 C   0  0  0  0  0  0  0  0  0  0  0  0
    8.3115  -17.2357   23.5815 O   0  0  0  0  0  0  0  0  0  0  0  0
   10.5007  -16.6426   23.3391 N   0  0  0  0  0  0  0  0  0  0  0  0
   10.9054  -17.3117   24.5330 C   0  0  1  0  0  0  0  0  0  0  0  0
   12.2711  -17.9037   24.5251 C   0  0  0  0  0  0  0  0  0  0  0  0
   12.5392  -18.6270   23.2655 C   0  0  0  0  0  0  0  0  0  0  0  0
   13.3815  -18.1335   22.4762 O   0  0  0  0  0  0  0  0  0  0  0  0
   10.7795  -16.3772   25.7155 C   0  0  0  0  0  0  0  0  0  0  0  0
   11.2515  -15.2039   25.6414 O   0  0  0  0  0  0  0  0  0  0  0  0
   11.9251  -19.8050   22.9045 O   0  0  0  0  0  0  0  0  0  0  0  0
    6.7072  -11.9074   24.5405 O   0  0  0  0  0  0  0  0  0  0  0  0
    7.2055  -12.8197   25.4712 C   0  0  0  0  0  0  0  0  0  0  0  0
    7.0909  -14.1752   25.3375 C   0  0  0  0  0  0  0  0  0  0  0  0
    7.6047  -15.0266   26.2921 C   0  0  0  0  0  0  0  0  0  0  0  0
    8.2535  -14.5738   27.4200 C   0  0  0  0  0  0  0  0  0  0  0  0
    8.8173  -15.4402   28.4745 C   0  0  0  0  0  0  0  0  0  0  0  0
   10.1687  -16.0011   28.1417 C   0  0  2  0  0  0  0  0  0  0  0  0
   10.1422  -16.7791   26.9165 N   0  0  0  0  0  0  0  0  0  0  0  0
   10.7849  -16.7750   29.2276 C   0  0  0  0  0  0  0  0  0  0  0  0
   11.0884  -16.2405   30.4723 O   0  0  0  0  0  0  0  0  0  0  0  0
    8.3617  -13.1863   27.5407 C   0  0  0  0  0  0  0  0  0  0  0  0
    7.8488  -12.3322   26.5872 C   0  0  0  0  0  0  0  0  0  0  0  0
   11.0648  -17.9847   29.0555 O   0  0  0  0  0  0  0  0  0  0  0  0
  2  3  1  0
  2  1  1  1
  3  4  1  0
  4  5  2  0
  5  6  1  0
  7  6  1  0
  8  4  1  0
  8  7  2  0
  9 10  2  0
  9  2  1  0
 11  9  1  0
 12 11  1  0
 13 14  1  0
 12 13  1  6
 14 15  2  0
 16 17  2  0
 16 12  1  0
 18 14  1  0
 20 19  1  0
 21 20  2  0
 22 21  1  0
 23 29  1  0
 23 22  2  0
 24 23  1  0
 25 24  1  1
 25 26  1  0
 26 16  1  0
 27 25  1  0
 28 27  1  0
 29 30  2  0
 30 20  1  0
 31 27  2  0
M  END
$$$$
