NLQ.pdb
     RDKit          3D

 26 25  0  0  1  0  0  0  0  0999 V2000
   23.8802  -40.0985   -7.7436 N   0  0  0  0  0  0  0  0  0  0  0  0
   24.2570  -39.2718   -8.8321 C   0  0  0  0  0  0  0  0  0  0  0  0
   24.3362  -39.8231   -9.9685 O   0  0  0  0  0  0  0  0  0  0  0  0
   24.5272  -37.8543   -8.5798 C   0  0  0  0  0  0  0  0  0  0  0  0
   24.3394  -37.4648   -7.1319 C   0  0  2  0  0  0  0  0  0  0  0  0
   22.9938  -37.0265   -6.8492 N   0  0  0  0  0  0  0  0  0  0  0  0
   25.2914  -36.4090   -6.7151 C   0  0  0  0  0  0  0  0  0  0  0  0
   26.5505  -36.6331   -6.7588 O   0  0  0  0  0  0  0  0  0  0  0  0
   24.8923  -31.4325   -8.5229 C   0  0  0  0  0  0  0  0  0  0  0  0
   25.5753  -32.6271   -7.9386 C   0  0  1  0  0  0  0  0  0  0  0  0
   27.0346  -32.6926   -8.3985 C   0  0  0  0  0  0  0  0  0  0  0  0
   25.4188  -32.8870   -6.5076 C   0  0  0  0  0  0  0  0  0  0  0  0
   25.9285  -34.1029   -5.8503 C   0  0  2  0  0  0  0  0  0  0  0  0
   24.9142  -35.1432   -6.2625 N   0  0  0  0  0  0  0  0  0  0  0  0
   25.8248  -34.0855   -4.3869 C   0  0  0  0  0  0  0  0  0  0  0  0
   24.7047  -33.8154   -3.8057 O   0  0  0  0  0  0  0  0  0  0  0  0
   23.0779  -35.0362    0.3534 N   0  0  0  0  0  0  0  0  0  0  0  0
   23.7718  -36.1310   -0.1910 C   0  0  0  0  0  0  0  0  0  0  0  0
   23.1514  -37.1959   -0.4102 O   0  0  0  0  0  0  0  0  0  0  0  0
   25.1935  -36.0295   -0.4977 C   0  0  0  0  0  0  0  0  0  0  0  0
   25.5669  -35.6991   -1.8919 C   0  0  0  0  0  0  0  0  0  0  0  0
   26.6103  -34.6073   -2.0423 C   0  0  2  0  0  0  0  0  0  0  0  0
   26.8801  -34.3598   -3.4588 N   0  0  0  0  0  0  0  0  0  0  0  0
   27.7893  -35.0582   -1.2835 C   0  0  0  0  0  0  0  0  0  0  0  0
   28.6933  -35.7166   -1.9054 O   0  0  0  0  0  0  0  0  0  0  0  0
   28.0411  -34.8482    0.0537 O   0  0  0  0  0  0  0  0  0  0  0  0
  2  3  2  0
  2  1  1  0
  4  2  1  0
  5  4  1  0
  5  6  1  6
  7  8  2  0
  7  5  1  0
 10  9  1  1
 10 12  1  0
 10 11  1  0
 13 12  1  6
 13 14  1  0
 14  7  1  0
 15 13  1  0
 15 16  2  0
 18 17  1  0
 18 19  2  0
 20 18  1  0
 21 20  1  0
 22 21  1  6
 23 22  1  0
 23 15  1  0
 24 22  1  0
 25 24  2  0
 26 24  1  0
M  END
$$$$
