NLQ.pdb
     RDKit          3D

 26 25  0  0  1  0  0  0  0  0999 V2000
   28.6870  -16.9412  -16.9641 N   0  0  0  0  0  0  0  0  0  0  0  0
   27.2998  -16.8530  -17.2436 C   0  0  0  0  0  0  0  0  0  0  0  0
   26.9227  -15.8866  -17.9685 O   0  0  0  0  0  0  0  0  0  0  0  0
   26.4027  -17.8680  -16.6860 C   0  0  0  0  0  0  0  0  0  0  0  0
   27.1324  -18.9428  -15.9142 C   0  0  2  0  0  0  0  0  0  0  0  0
   27.9242  -19.7941  -16.7692 N   0  0  0  0  0  0  0  0  0  0  0  0
   26.2039  -19.7810  -15.1204 C   0  0  0  0  0  0  0  0  0  0  0  0
   25.7106  -20.8451  -15.6320 O   0  0  0  0  0  0  0  0  0  0  0  0
   26.4750  -20.7702   -9.4640 C   0  0  0  0  0  0  0  0  0  0  0  0
   26.1940  -21.0698  -10.9014 C   0  0  1  0  0  0  0  0  0  0  0  0
   25.8180  -22.5434  -11.0815 C   0  0  0  0  0  0  0  0  0  0  0  0
   25.3144  -20.1650  -11.6414 C   0  0  0  0  0  0  0  0  0  0  0  0
   24.8943  -20.4098  -13.0320 C   0  0  2  0  0  0  0  0  0  0  0  0
   25.8087  -19.4953  -13.8121 N   0  0  0  0  0  0  0  0  0  0  0  0
   23.5537  -19.9083  -13.3537 C   0  0  0  0  0  0  0  0  0  0  0  0
   23.3871  -18.7177  -13.8231 O   0  0  0  0  0  0  0  0  0  0  0  0
   21.9023  -21.0299  -18.2959 N   0  0  0  0  0  0  0  0  0  0  0  0
   20.6570  -20.5306  -17.8759 C   0  0  0  0  0  0  0  0  0  0  0  0
   19.7770  -20.2923  -18.7336 O   0  0  0  0  0  0  0  0  0  0  0  0
   20.3917  -20.2938  -16.4619 C   0  0  0  0  0  0  0  0  0  0  0  0
   21.5080  -20.5132  -15.5142 C   0  0  0  0  0  0  0  0  0  0  0  0
   21.1603  -20.3273  -14.0486 C   0  0  2  0  0  0  0  0  0  0  0  0
   22.3232  -20.6269  -13.2129 N   0  0  0  0  0  0  0  0  0  0  0  0
   20.0016  -21.1980  -13.7875 C   0  0  0  0  0  0  0  0  0  0  0  0
   20.2217  -22.4078  -13.4335 O   0  0  0  0  0  0  0  0  0  0  0  0
   18.6717  -20.8538  -13.8812 O   0  0  0  0  0  0  0  0  0  0  0  0
  2  3  2  0
  2  1  1  0
  4  2  1  0
  5  4  1  0
  5  6  1  6
  7  8  2  0
  7  5  1  0
 10  9  1  1
 10 12  1  0
 10 11  1  0
 13 12  1  1
 13 14  1  0
 14  7  1  0
 15 13  1  0
 15 16  2  0
 18 17  1  0
 18 19  2  0
 20 18  1  0
 21 20  1  0
 22 21  1  6
 23 22  1  0
 23 15  1  0
 24 22  1  0
 25 24  2  0
 26 24  1  0
M  END
$$$$
