NLQ.pdb
     RDKit          3D

 26 25  0  0  1  0  0  0  0  0999 V2000
   27.0630  -15.5718  -17.2388 N   0  0  0  0  0  0  0  0  0  0  0  0
   25.8028  -16.2189  -17.2968 C   0  0  0  0  0  0  0  0  0  0  0  0
   24.8281  -15.5357  -17.7268 O   0  0  0  0  0  0  0  0  0  0  0  0
   25.7068  -17.6148  -16.8629 C   0  0  0  0  0  0  0  0  0  0  0  0
   26.9791  -18.1255  -16.2273 C   0  0  2  0  0  0  0  0  0  0  0  0
   28.0227  -18.3618  -17.1958 N   0  0  0  0  0  0  0  0  0  0  0  0
   26.7498  -19.3651  -15.4489 C   0  0  0  0  0  0  0  0  0  0  0  0
   27.0792  -20.4982  -15.9437 O   0  0  0  0  0  0  0  0  0  0  0  0
   26.7042  -22.1908  -10.5955 C   0  0  0  0  0  0  0  0  0  0  0  0
   25.7350  -21.0836  -10.8594 C   0  0  1  0  0  0  0  0  0  0  0  0
   25.4291  -20.3160   -9.5701 C   0  0  0  0  0  0  0  0  0  0  0  0
   25.9804  -20.2017  -12.0005 C   0  0  0  0  0  0  0  0  0  0  0  0
   26.0457  -20.6843  -13.3909 C   0  0  2  0  0  0  0  0  0  0  0  0
   26.1835  -19.3998  -14.1732 N   0  0  0  0  0  0  0  0  0  0  0  0
   24.7899  -21.2555  -13.8901 C   0  0  0  0  0  0  0  0  0  0  0  0
   24.4557  -22.4693  -13.6065 O   0  0  0  0  0  0  0  0  0  0  0  0
   20.3846  -20.0849  -10.9313 N   0  0  0  0  0  0  0  0  0  0  0  0
   19.7279  -20.8470  -11.9134 C   0  0  0  0  0  0  0  0  0  0  0  0
   18.5606  -21.2432  -11.6956 O   0  0  0  0  0  0  0  0  0  0  0  0
   20.3947  -21.1717  -13.1687 C   0  0  0  0  0  0  0  0  0  0  0  0
   21.8003  -20.7337  -13.3257 C   0  0  0  0  0  0  0  0  0  0  0  0
   22.4090  -20.9853  -14.6930 C   0  0  2  0  0  0  0  0  0  0  0  0
   23.8165  -20.5861  -14.6991 N   0  0  0  0  0  0  0  0  0  0  0  0
   21.5774  -20.2435  -15.6559 C   0  0  0  0  0  0  0  0  0  0  0  0
   20.7491  -20.9034  -16.3741 O   0  0  0  0  0  0  0  0  0  0  0  0
   21.5856  -18.8850  -15.8801 O   0  0  0  0  0  0  0  0  0  0  0  0
  2  3  2  0
  2  1  1  0
  4  2  1  0
  5  4  1  0
  5  6  1  6
  7  8  2  0
  7  5  1  0
 10  9  1  1
 10 12  1  0
 10 11  1  0
 13 12  1  1
 13 14  1  0
 14  7  1  0
 15 13  1  0
 15 16  2  0
 18 17  1  0
 18 19  2  0
 20 18  1  0
 21 20  1  0
 22 21  1  1
 23 22  1  0
 23 15  1  0
 24 22  1  0
 25 24  2  0
 26 24  1  0
M  END
$$$$
