NLQ.pdb
     RDKit          3D

 26 25  0  0  1  0  0  0  0  0999 V2000
   28.7267  -19.9955  -17.8827 N   0  0  0  0  0  0  0  0  0  0  0  0
   27.3313  -20.2431  -17.9261 C   0  0  0  0  0  0  0  0  0  0  0  0
   26.7148  -19.8623  -18.9636 O   0  0  0  0  0  0  0  0  0  0  0  0
   26.6988  -20.9130  -16.7871 C   0  0  0  0  0  0  0  0  0  0  0  0
   25.4018  -20.2630  -16.3643 C   0  0  2  0  0  0  0  0  0  0  0  0
   25.5707  -18.8737  -16.0122 N   0  0  0  0  0  0  0  0  0  0  0  0
   24.7687  -20.9774  -15.2313 C   0  0  0  0  0  0  0  0  0  0  0  0
   24.5251  -22.2302  -15.3242 O   0  0  0  0  0  0  0  0  0  0  0  0
   26.0356  -22.0898  -10.7242 C   0  0  0  0  0  0  0  0  0  0  0  0
   24.8912  -21.1475  -10.5313 C   0  0  1  0  0  0  0  0  0  0  0  0
   25.1624  -20.2031   -9.3566 C   0  0  0  0  0  0  0  0  0  0  0  0
   24.3546  -20.4560  -11.7034 C   0  0  0  0  0  0  0  0  0  0  0  0
   23.8179  -21.1632  -12.8790 C   0  0  2  0  0  0  0  0  0  0  0  0
   24.4031  -20.3743  -14.0263 N   0  0  0  0  0  0  0  0  0  0  0  0
   22.3703  -21.0126  -13.0640 C   0  0  0  0  0  0  0  0  0  0  0  0
   21.8518  -19.8585  -13.3186 O   0  0  0  0  0  0  0  0  0  0  0  0
   17.5473  -25.4238  -13.2949 N   0  0  0  0  0  0  0  0  0  0  0  0
   16.9238  -24.1651  -13.3518 C   0  0  0  0  0  0  0  0  0  0  0  0
   15.6768  -24.1079  -13.4449 O   0  0  0  0  0  0  0  0  0  0  0  0
   17.7162  -22.9422  -13.3021 C   0  0  0  0  0  0  0  0  0  0  0  0
   19.1828  -23.0871  -13.1596 C   0  0  0  0  0  0  0  0  0  0  0  0
   19.9689  -21.7894  -13.1930 C   0  0  2  0  0  0  0  0  0  0  0  0
   21.3945  -22.0588  -13.0040 N   0  0  0  0  0  0  0  0  0  0  0  0
   19.3845  -20.9279  -12.1512 C   0  0  0  0  0  0  0  0  0  0  0  0
   19.7417  -21.1194  -10.9375 O   0  0  0  0  0  0  0  0  0  0  0  0
   18.4739  -19.9116  -12.3344 O   0  0  0  0  0  0  0  0  0  0  0  0
  2  3  2  0
  2  1  1  0
  4  2  1  0
  5  4  1  0
  5  6  1  1
  7  8  2  0
  7  5  1  0
 10  9  1  6
 10 12  1  0
 10 11  1  0
 13 12  1  1
 13 14  1  0
 14  7  1  0
 15 13  1  0
 15 16  2  0
 18 17  1  0
 18 19  2  0
 20 18  1  0
 21 20  1  0
 22 21  1  1
 23 22  1  0
 23 15  1  0
 24 22  1  0
 25 24  2  0
 26 24  1  0
M  END
$$$$
