NLQ.pdb
     RDKit          3D

 26 25  0  0  1  0  0  0  0  0999 V2000
   19.1863  -11.7440  -22.2285 N   0  0  0  0  0  0  0  0  0  0  0  0
   20.2546  -12.1925  -21.4113 C   0  0  0  0  0  0  0  0  0  0  0  0
   21.0592  -13.0227  -21.9263 O   0  0  0  0  0  0  0  0  0  0  0  0
   20.3607  -11.6768  -20.0443 C   0  0  0  0  0  0  0  0  0  0  0  0
   21.2786  -12.5002  -19.1710 C   0  0  2  0  0  0  0  0  0  0  0  0
   20.6300  -13.6776  -18.6457 N   0  0  0  0  0  0  0  0  0  0  0  0
   21.8307  -11.7082  -18.0472 C   0  0  0  0  0  0  0  0  0  0  0  0
   21.1312  -11.5275  -16.9910 O   0  0  0  0  0  0  0  0  0  0  0  0
   25.9060  -10.0999  -14.5999 C   0  0  0  0  0  0  0  0  0  0  0  0
   26.0857  -10.0226  -16.0820 C   0  0  1  0  0  0  0  0  0  0  0  0
   27.5241  -10.3773  -16.4700 C   0  0  0  0  0  0  0  0  0  0  0  0
   25.0911  -10.6693  -16.9379 C   0  0  0  0  0  0  0  0  0  0  0  0
   23.6463  -10.3994  -16.8378 C   0  0  2  0  0  0  0  0  0  0  0  0
   23.0977  -11.1216  -18.0455 N   0  0  0  0  0  0  0  0  0  0  0  0
   23.2764   -9.0003  -17.0790 C   0  0  0  0  0  0  0  0  0  0  0  0
   23.6405   -8.3960  -18.1596 O   0  0  0  0  0  0  0  0  0  0  0  0
   17.9539   -5.9838  -16.2210 N   0  0  0  0  0  0  0  0  0  0  0  0
   18.4317   -6.9261  -17.1485 C   0  0  0  0  0  0  0  0  0  0  0  0
   17.6140   -7.5225  -17.8852 O   0  0  0  0  0  0  0  0  0  0  0  0
   19.8588   -7.2058  -17.2532 C   0  0  0  0  0  0  0  0  0  0  0  0
   20.7676   -6.4493  -16.3621 C   0  0  0  0  0  0  0  0  0  0  0  0
   22.2438   -6.7612  -16.5255 C   0  0  2  0  0  0  0  0  0  0  0  0
   22.4996   -8.1671  -16.2115 N   0  0  0  0  0  0  0  0  0  0  0  0
   22.9622   -5.8177  -15.6520 C   0  0  0  0  0  0  0  0  0  0  0  0
   23.5058   -6.2735  -14.5870 O   0  0  0  0  0  0  0  0  0  0  0  0
   23.1233   -4.4651  -15.8524 O   0  0  0  0  0  0  0  0  0  0  0  0
  2  3  2  0
  2  1  1  0
  4  2  1  0
  5  4  1  0
  5  6  1  1
  7  8  2  0
  7  5  1  0
 10  9  1  1
 10 12  1  0
 10 11  1  0
 13 12  1  6
 13 14  1  0
 14  7  1  0
 15 13  1  0
 15 16  2  0
 18 17  1  0
 18 19  2  0
 20 18  1  0
 21 20  1  0
 22 21  1  1
 23 22  1  0
 23 15  1  0
 24 22  1  0
 25 24  2  0
 26 24  1  0
M  END
$$$$
