NLQ.pdb
     RDKit          3D

 26 25  0  0  1  0  0  0  0  0999 V2000
   17.5974  -11.7006  -13.6836 N   0  0  0  0  0  0  0  0  0  0  0  0
   17.8391  -10.4068  -14.2109 C   0  0  0  0  0  0  0  0  0  0  0  0
   18.7579  -10.3037  -15.0750 O   0  0  0  0  0  0  0  0  0  0  0  0
   17.0248   -9.2872  -13.7317 C   0  0  0  0  0  0  0  0  0  0  0  0
   16.0570   -9.6838  -12.6411 C   0  0  2  0  0  0  0  0  0  0  0  0
   14.9938  -10.5293  -13.1284 N   0  0  0  0  0  0  0  0  0  0  0  0
   15.4680   -8.5027  -11.9679 C   0  0  0  0  0  0  0  0  0  0  0  0
   14.5165   -7.8577  -12.5301 O   0  0  0  0  0  0  0  0  0  0  0  0
   14.5786   -7.7854   -6.4107 C   0  0  0  0  0  0  0  0  0  0  0  0
   14.3213   -7.5073   -7.8569 C   0  0  1  0  0  0  0  0  0  0  0  0
   13.0410   -6.6846   -8.0283 C   0  0  0  0  0  0  0  0  0  0  0  0
   15.4271   -7.0142   -8.6778 C   0  0  0  0  0  0  0  0  0  0  0  0
   15.3042   -6.7584  -10.1234 C   0  0  2  0  0  0  0  0  0  0  0  0
   15.8803   -8.0182  -10.7252 N   0  0  0  0  0  0  0  0  0  0  0  0
   16.1907   -5.7031  -10.6262 C   0  0  0  0  0  0  0  0  0  0  0  0
   17.4615   -5.9011  -10.7332 O   0  0  0  0  0  0  0  0  0  0  0  0
   18.3738   -5.3513  -15.3671 N   0  0  0  0  0  0  0  0  0  0  0  0
   18.7173   -4.0292  -15.0347 C   0  0  0  0  0  0  0  0  0  0  0  0
   19.5200   -3.4073  -15.7667 O   0  0  0  0  0  0  0  0  0  0  0  0
   18.1472   -3.3892  -13.8552 C   0  0  0  0  0  0  0  0  0  0  0  0
   17.1954   -4.1819  -13.0440 C   0  0  0  0  0  0  0  0  0  0  0  0
   16.7136   -3.5114  -11.7706 C   0  0  2  0  0  0  0  0  0  0  0  0
   15.7946   -4.3949  -11.0526 N   0  0  0  0  0  0  0  0  0  0  0  0
   16.1083   -2.2336  -12.1826 C   0  0  0  0  0  0  0  0  0  0  0  0
   14.8347   -2.1752  -12.2923 O   0  0  0  0  0  0  0  0  0  0  0  0
   16.7698   -1.0610  -12.4711 O   0  0  0  0  0  0  0  0  0  0  0  0
  2  3  2  0
  2  1  1  0
  4  2  1  0
  5  4  1  0
  5  6  1  6
  7  8  2  0
  7  5  1  0
 10  9  1  1
 10 12  1  0
 10 11  1  0
 13 12  1  1
 13 14  1  0
 14  7  1  0
 15 13  1  0
 15 16  2  0
 18 17  1  0
 18 19  2  0
 20 18  1  0
 21 20  1  0
 22 21  1  6
 23 22  1  0
 23 15  1  0
 24 22  1  0
 25 24  2  0
 26 24  1  0
M  END
$$$$
