NLQ.pdb
     RDKit          3D

 26 25  0  0  1  0  0  0  0  0999 V2000
   29.1050  -19.2931  -16.8157 N   0  0  0  0  0  0  0  0  0  0  0  0
   27.7287  -19.0403  -17.0439 C   0  0  0  0  0  0  0  0  0  0  0  0
   27.4422  -18.2329  -17.9753 O   0  0  0  0  0  0  0  0  0  0  0  0
   26.7389  -19.7173  -16.2025 C   0  0  0  0  0  0  0  0  0  0  0  0
   27.3635  -20.6239  -15.1673 C   0  0  2  0  0  0  0  0  0  0  0  0
   27.9984  -21.7781  -15.7567 N   0  0  0  0  0  0  0  0  0  0  0  0
   26.3761  -21.0750  -14.1591 C   0  0  0  0  0  0  0  0  0  0  0  0
   25.6415  -22.0950  -14.3989 O   0  0  0  0  0  0  0  0  0  0  0  0
   26.5260  -20.0794   -8.3836 C   0  0  0  0  0  0  0  0  0  0  0  0
   26.1399  -20.9058   -9.5680 C   0  0  1  0  0  0  0  0  0  0  0  0
   25.3864  -22.1635   -9.1254 C   0  0  0  0  0  0  0  0  0  0  0  0
   25.5097  -20.2377  -10.7066 C   0  0  0  0  0  0  0  0  0  0  0  0
   25.1318  -20.9417  -11.9442 C   0  0  2  0  0  0  0  0  0  0  0  0
   26.1741  -20.4567  -12.9238 N   0  0  0  0  0  0  0  0  0  0  0  0
   23.8688  -20.4857  -12.5353 C   0  0  0  0  0  0  0  0  0  0  0  0
   23.7191  -19.2612  -12.9143 O   0  0  0  0  0  0  0  0  0  0  0  0
   20.9724  -21.9337  -17.3393 N   0  0  0  0  0  0  0  0  0  0  0  0
   19.8664  -21.3549  -16.6925 C   0  0  0  0  0  0  0  0  0  0  0  0
   18.9180  -20.9186  -17.3833 O   0  0  0  0  0  0  0  0  0  0  0  0
   19.8220  -21.2640  -15.2381 C   0  0  0  0  0  0  0  0  0  0  0  0
   21.0216  -21.7070  -14.4917 C   0  0  0  0  0  0  0  0  0  0  0  0
   21.5203  -20.7404  -13.4333 C   0  0  2  0  0  0  0  0  0  0  0  0
   22.7051  -21.2861  -12.7707 N   0  0  0  0  0  0  0  0  0  0  0  0
   20.3862  -20.5064  -12.5233 C   0  0  0  0  0  0  0  0  0  0  0  0
   20.3778  -21.1158  -11.3982 O   0  0  0  0  0  0  0  0  0  0  0  0
   19.3037  -19.6853  -12.7463 O   0  0  0  0  0  0  0  0  0  0  0  0
  2  3  2  0
  2  1  1  0
  4  2  1  0
  5  4  1  0
  5  6  1  6
  7  8  2  0
  7  5  1  0
 10  9  1  1
 10 12  1  0
 10 11  1  0
 13 12  1  1
 13 14  1  0
 14  7  1  0
 15 13  1  0
 15 16  2  0
 18 17  1  0
 18 19  2  0
 20 18  1  0
 21 20  1  0
 22 21  1  6
 23 22  1  0
 23 15  1  0
 24 22  1  0
 25 24  2  0
 26 24  1  0
M  END
$$$$
