NLQ.pdb
     RDKit          3D

 26 25  0  0  1  0  0  0  0  0999 V2000
   20.6301  -16.4851  -18.6916 N   0  0  0  0  0  0  0  0  0  0  0  0
   20.9757  -16.7790  -17.3483 C   0  0  0  0  0  0  0  0  0  0  0  0
   20.5022  -17.8442  -16.8558 O   0  0  0  0  0  0  0  0  0  0  0  0
   21.8448  -15.8479  -16.6245 C   0  0  0  0  0  0  0  0  0  0  0  0
   22.1807  -14.6099  -17.4230 C   0  0  2  0  0  0  0  0  0  0  0  0
   22.9802  -14.9053  -18.5877 N   0  0  0  0  0  0  0  0  0  0  0  0
   22.8779  -13.5936  -16.6009 C   0  0  0  0  0  0  0  0  0  0  0  0
   22.4273  -13.2938  -15.4413 O   0  0  0  0  0  0  0  0  0  0  0  0
   28.3939  -12.8551  -16.8901 C   0  0  0  0  0  0  0  0  0  0  0  0
   27.0286  -12.9165  -16.2842 C   0  0  1  0  0  0  0  0  0  0  0  0
   27.1185  -13.1763  -14.7776 C   0  0  0  0  0  0  0  0  0  0  0  0
   26.0696  -11.8650  -16.6227 C   0  0  0  0  0  0  0  0  0  0  0  0
   24.6789  -11.8578  -16.1368 C   0  0  2  0  0  0  0  0  0  0  0  0
   24.0283  -12.9114  -17.0015 N   0  0  0  0  0  0  0  0  0  0  0  0
   23.9324  -10.6380  -16.4645 C   0  0  0  0  0  0  0  0  0  0  0  0
   23.6429  -10.3475  -17.6881 O   0  0  0  0  0  0  0  0  0  0  0  0
   18.7242  -10.2693  -17.4307 N   0  0  0  0  0  0  0  0  0  0  0  0
   18.9126   -8.8771  -17.3788 C   0  0  0  0  0  0  0  0  0  0  0  0
   17.9999   -8.1245  -17.7880 O   0  0  0  0  0  0  0  0  0  0  0  0
   20.1521   -8.3155  -16.8554 C   0  0  0  0  0  0  0  0  0  0  0  0
   21.2101   -9.2667  -16.4451 C   0  0  0  0  0  0  0  0  0  0  0  0
   22.4902   -8.6317  -15.9339 C   0  0  2  0  0  0  0  0  0  0  0  0
   23.4415   -9.6682  -15.5324 N   0  0  0  0  0  0  0  0  0  0  0  0
   22.0935   -7.7329  -14.8367 C   0  0  0  0  0  0  0  0  0  0  0  0
   22.0830   -8.2005  -13.6456 O   0  0  0  0  0  0  0  0  0  0  0  0
   21.7229   -6.4113  -14.9443 O   0  0  0  0  0  0  0  0  0  0  0  0
  2  3  2  0
  2  1  1  0
  4  2  1  0
  5  4  1  0
  5  6  1  6
  7  8  2  0
  7  5  1  0
 10  9  1  1
 10 12  1  0
 10 11  1  0
 13 12  1  6
 13 14  1  0
 14  7  1  0
 15 13  1  0
 15 16  2  0
 18 17  1  0
 18 19  2  0
 20 18  1  0
 21 20  1  0
 22 21  1  1
 23 22  1  0
 23 15  1  0
 24 22  1  0
 25 24  2  0
 26 24  1  0
M  END
$$$$
