NLQ.pdb
     RDKit          3D

 26 25  0  0  1  0  0  0  0  0999 V2000
   23.9785  -26.3264  -16.7929 N   0  0  0  0  0  0  0  0  0  0  0  0
   22.9748  -25.3519  -17.0233 C   0  0  0  0  0  0  0  0  0  0  0  0
   22.2294  -25.5257  -18.0312 O   0  0  0  0  0  0  0  0  0  0  0  0
   22.8632  -24.2226  -16.0970 C   0  0  0  0  0  0  0  0  0  0  0  0
   23.8371  -24.3043  -14.9445 C   0  0  2  0  0  0  0  0  0  0  0  0
   23.8656  -25.6139  -14.3388 N   0  0  0  0  0  0  0  0  0  0  0  0
   23.5459  -23.2934  -13.9013 C   0  0  0  0  0  0  0  0  0  0  0  0
   22.4722  -23.3815  -13.2109 O   0  0  0  0  0  0  0  0  0  0  0  0
   27.5755  -20.7144  -10.7867 C   0  0  0  0  0  0  0  0  0  0  0  0
   26.2003  -21.2614  -10.9983 C   0  0  1  0  0  0  0  0  0  0  0  0
   25.4185  -21.2790   -9.6816 C   0  0  0  0  0  0  0  0  0  0  0  0
   25.4128  -20.7486  -12.1194 C   0  0  0  0  0  0  0  0  0  0  0  0
   24.0758  -21.2619  -12.4647 C   0  0  2  0  0  0  0  0  0  0  0  0
   24.3771  -22.2133  -13.5983 N   0  0  0  0  0  0  0  0  0  0  0  0
   23.1889  -20.2678  -13.0794 C   0  0  0  0  0  0  0  0  0  0  0  0
   22.6798  -19.3113  -12.3784 O   0  0  0  0  0  0  0  0  0  0  0  0
   24.4362  -17.3984  -18.1526 N   0  0  0  0  0  0  0  0  0  0  0  0
   23.6820  -18.5575  -18.4055 C   0  0  0  0  0  0  0  0  0  0  0  0
   23.7663  -19.1047  -19.5282 O   0  0  0  0  0  0  0  0  0  0  0  0
   22.8140  -19.1167  -17.3761 C   0  0  0  0  0  0  0  0  0  0  0  0
   22.7368  -18.3951  -16.0855 C   0  0  0  0  0  0  0  0  0  0  0  0
   21.9868  -19.1183  -14.9820 C   0  0  2  0  0  0  0  0  0  0  0  0
   22.7991  -20.2157  -14.4562 N   0  0  0  0  0  0  0  0  0  0  0  0
   20.7095  -19.5547  -15.5711 C   0  0  0  0  0  0  0  0  0  0  0  0
   20.5139  -20.8093  -15.7297 O   0  0  0  0  0  0  0  0  0  0  0  0
   19.6711  -18.7493  -15.9819 O   0  0  0  0  0  0  0  0  0  0  0  0
  2  3  2  0
  2  1  1  0
  4  2  1  0
  5  4  1  0
  5  6  1  1
  7  8  2  0
  7  5  1  0
 10  9  1  1
 10 12  1  0
 10 11  1  0
 13 12  1  6
 13 14  1  0
 14  7  1  0
 15 13  1  0
 15 16  2  0
 18 17  1  0
 18 19  2  0
 20 18  1  0
 21 20  1  0
 22 21  1  6
 23 22  1  0
 23 15  1  0
 24 22  1  0
 25 24  2  0
 26 24  1  0
M  END
$$$$
