WVH.pdb
     RDKit          3D

 32 34  0  0  1  0  0  0  0  0999 V2000
   28.4279  -22.2487  -10.3839 N   0  0  0  0  0  0  0  0  0  0  0  0
   27.3887  -21.2682  -10.1597 C   0  0  1  0  0  0  0  0  0  0  0  0
   27.9563  -20.0554   -9.4493 C   0  0  0  0  0  0  0  0  0  0  0  0
   28.6452  -20.3813   -8.1993 C   0  0  0  0  0  0  0  0  0  0  0  0
   29.9043  -20.9615   -8.0619 C   0  0  0  0  0  0  0  0  0  0  0  0
   30.1717  -21.0938   -6.7523 N   0  0  0  0  0  0  0  0  0  0  0  0
   29.1382  -20.6235   -6.0322 C   0  0  0  0  0  0  0  0  0  0  0  0
   28.9129  -20.5305   -4.6714 C   0  0  0  0  0  0  0  0  0  0  0  0
   27.7428  -19.9967   -4.1907 C   0  0  0  0  0  0  0  0  0  0  0  0
   26.7948  -19.5542   -5.0973 C   0  0  0  0  0  0  0  0  0  0  0  0
   26.9881  -19.6326   -6.4404 C   0  0  0  0  0  0  0  0  0  0  0  0
   28.1803  -20.1767   -6.9070 C   0  0  0  0  0  0  0  0  0  0  0  0
   26.7880  -20.9094  -11.4613 C   0  0  0  0  0  0  0  0  0  0  0  0
   27.4853  -20.6910  -12.4949 O   0  0  0  0  0  0  0  0  0  0  0  0
   24.5642  -23.0967  -13.1844 C   0  0  0  0  0  0  0  0  0  0  0  0
   25.0105  -21.7953  -13.7676 C   0  0  2  0  0  0  0  0  0  0  0  0
   26.4867  -21.8676  -14.1001 C   0  0  0  0  0  0  0  0  0  0  0  0
   24.7136  -20.6286  -12.8421 C   0  0  2  0  0  0  0  0  0  0  0  0
   25.3819  -20.8013  -11.5782 N   0  0  0  0  0  0  0  0  0  0  0  0
   23.2331  -20.4935  -12.6366 C   0  0  0  0  0  0  0  0  0  0  0  0
   22.7107  -20.8790  -11.5707 O   0  0  0  0  0  0  0  0  0  0  0  0
   22.3916  -19.9336  -13.6262 N   0  0  0  0  0  0  0  0  0  0  0  0
   21.0770  -19.4639  -13.2544 C   0  0  1  0  0  0  0  0  0  0  0  0
   20.9710  -17.9649  -13.3471 C   0  0  0  0  0  0  0  0  0  0  0  0
   19.5677  -17.5653  -13.1196 C   0  0  0  0  0  0  0  0  0  0  0  0
   18.9452  -17.6311  -11.8697 C   0  0  0  0  0  0  0  0  0  0  0  0
   17.6779  -17.2090  -11.9596 N   0  0  0  0  0  0  0  0  0  0  0  0
   17.4893  -16.8790  -13.2396 C   0  0  0  0  0  0  0  0  0  0  0  0
   18.6205  -17.0917  -13.9369 N   0  0  0  0  0  0  0  0  0  0  0  0
   20.1035  -20.1544  -14.1121 C   0  0  0  0  0  0  0  0  0  0  0  0
   20.4410  -20.5254  -15.2558 O   0  0  0  0  0  0  0  0  0  0  0  0
   18.8192  -20.4043  -13.6823 O   0  0  0  0  0  0  0  0  0  0  0  0
  2  1  1  6
  2  3  1  0
  4  5  2  0
  4  3  1  0
  6  5  1  0
  7 12  2  0
  7  6  1  0
  8  7  1  0
  9 10  1  0
  9  8  2  0
 10 11  2  0
 11 12  1  0
 12  4  1  0
 13  2  1  0
 13 14  2  0
 16 15  1  1
 16 18  1  0
 17 16  1  0
 18 19  1  1
 19 13  1  0
 20 18  1  0
 21 20  2  0
 22 20  1  0
 23 22  1  0
 23 30  1  0
 24 25  1  0
 23 24  1  6
 25 29  1  0
 26 27  1  0
 26 25  2  0
 27 28  1  0
 28 29  2  0
 30 32  1  0
 31 30  2  0
M  END
$$$$
