WVH.pdb
     RDKit          3D

 32 34  0  0  1  0  0  0  0  0999 V2000
   20.2396  -11.5659  -17.9250 N   0  0  0  0  0  0  0  0  0  0  0  0
   19.4430  -10.4473  -17.4716 C   0  0  1  0  0  0  0  0  0  0  0  0
   18.9669  -10.6837  -16.0520 C   0  0  0  0  0  0  0  0  0  0  0  0
   18.0069  -11.7826  -15.9344 C   0  0  0  0  0  0  0  0  0  0  0  0
   18.2790  -13.0989  -15.5679 C   0  0  0  0  0  0  0  0  0  0  0  0
   17.1281  -13.7911  -15.5803 N   0  0  0  0  0  0  0  0  0  0  0  0
   16.1185  -12.9793  -15.9399 C   0  0  0  0  0  0  0  0  0  0  0  0
   14.7622  -13.1910  -16.1039 C   0  0  0  0  0  0  0  0  0  0  0  0
   13.9352  -12.1646  -16.4882 C   0  0  0  0  0  0  0  0  0  0  0  0
   14.4884  -10.9147  -16.7076 C   0  0  0  0  0  0  0  0  0  0  0  0
   15.8178  -10.6764  -16.5544 C   0  0  0  0  0  0  0  0  0  0  0  0
   16.6386  -11.7297  -16.1645 C   0  0  0  0  0  0  0  0  0  0  0  0
   20.2519   -9.2154  -17.5802 C   0  0  0  0  0  0  0  0  0  0  0  0
   21.5170   -9.2267  -17.5383 O   0  0  0  0  0  0  0  0  0  0  0  0
   19.9463   -6.6638  -20.3740 C   0  0  0  0  0  0  0  0  0  0  0  0
   19.7678   -5.9413  -19.0782 C   0  0  2  0  0  0  0  0  0  0  0  0
   20.4061   -4.5704  -19.1692 C   0  0  0  0  0  0  0  0  0  0  0  0
   20.3282   -6.7304  -17.9081 C   0  0  2  0  0  0  0  0  0  0  0  0
   19.6074   -7.9656  -17.7380 N   0  0  0  0  0  0  0  0  0  0  0  0
   20.2652   -5.9109  -16.6523 C   0  0  0  0  0  0  0  0  0  0  0  0
   19.1832   -5.4079  -16.2861 O   0  0  0  0  0  0  0  0  0  0  0  0
   21.4096   -5.6837  -15.8527 N   0  0  0  0  0  0  0  0  0  0  0  0
   21.3157   -4.7930  -14.7193 C   0  0  1  0  0  0  0  0  0  0  0  0
   21.7753   -5.4548  -13.4474 C   0  0  0  0  0  0  0  0  0  0  0  0
   20.7827   -6.4721  -13.0469 C   0  0  0  0  0  0  0  0  0  0  0  0
   19.6819   -6.8207  -13.8348 C   0  0  0  0  0  0  0  0  0  0  0  0
   18.9547   -7.7648  -13.2246 N   0  0  0  0  0  0  0  0  0  0  0  0
   19.5744   -8.0179  -12.0692 C   0  0  0  0  0  0  0  0  0  0  0  0
   20.6701   -7.2444  -11.9604 N   0  0  0  0  0  0  0  0  0  0  0  0
   22.0907   -3.5865  -15.0418 C   0  0  0  0  0  0  0  0  0  0  0  0
   22.7500   -3.5400  -16.1014 O   0  0  0  0  0  0  0  0  0  0  0  0
   22.1076   -2.4982  -14.1980 O   0  0  0  0  0  0  0  0  0  0  0  0
  2  1  1  1
  2  3  1  0
  4  5  2  0
  4  3  1  0
  6  5  1  0
  7 12  2  0
  7  6  1  0
  8  7  1  0
  9 10  1  0
  9  8  2  0
 10 11  2  0
 11 12  1  0
 12  4  1  0
 13  2  1  0
 13 14  2  0
 16 15  1  6
 16 18  1  0
 17 16  1  0
 18 19  1  1
 19 13  1  0
 20 18  1  0
 21 20  2  0
 22 20  1  0
 23 22  1  0
 23 30  1  0
 24 25  1  0
 23 24  1  1
 25 29  1  0
 26 27  1  0
 26 25  2  0
 27 28  1  0
 28 29  2  0
 30 32  1  0
 31 30  2  0
M  END
$$$$
