WVH.pdb
     RDKit          3D

 32 34  0  0  1  0  0  0  0  0999 V2000
   18.3701  -17.6498    5.3145 N   0  0  0  0  0  0  0  0  0  0  0  0
   18.9665  -16.8163    6.3348 C   0  0  1  0  0  0  0  0  0  0  0  0
   17.9046  -15.9674    7.0053 C   0  0  0  0  0  0  0  0  0  0  0  0
   17.6595  -14.6950    6.3242 C   0  0  0  0  0  0  0  0  0  0  0  0
   16.4713  -14.2773    5.7287 C   0  0  0  0  0  0  0  0  0  0  0  0
   16.6604  -13.0508    5.2152 N   0  0  0  0  0  0  0  0  0  0  0  0
   17.9228  -12.6533    5.4523 C   0  0  0  0  0  0  0  0  0  0  0  0
   18.6128  -11.4970    5.1391 C   0  0  0  0  0  0  0  0  0  0  0  0
   19.9266  -11.3447    5.5077 C   0  0  0  0  0  0  0  0  0  0  0  0
   20.5444  -12.3728    6.1989 C   0  0  0  0  0  0  0  0  0  0  0  0
   19.8918  -13.5209    6.5207 C   0  0  0  0  0  0  0  0  0  0  0  0
   18.5612  -13.6555    6.1382 C   0  0  0  0  0  0  0  0  0  0  0  0
   19.6674  -17.6837    7.3044 C   0  0  0  0  0  0  0  0  0  0  0  0
   19.5948  -18.9468    7.2633 O   0  0  0  0  0  0  0  0  0  0  0  0
   23.3968  -16.7032    8.4834 C   0  0  0  0  0  0  0  0  0  0  0  0
   22.5064  -17.0501    9.6322 C   0  0  2  0  0  0  0  0  0  0  0  0
   23.3070  -17.7761   10.6938 C   0  0  0  0  0  0  0  0  0  0  0  0
   21.3079  -17.8719    9.1917 C   0  0  2  0  0  0  0  0  0  0  0  0
   20.4551  -17.1002    8.3249 N   0  0  0  0  0  0  0  0  0  0  0  0
   20.5403  -18.3520   10.3885 C   0  0  0  0  0  0  0  0  0  0  0  0
   19.5924  -17.6755   10.8376 O   0  0  0  0  0  0  0  0  0  0  0  0
   20.8577  -19.5675   11.0387 N   0  0  0  0  0  0  0  0  0  0  0  0
   19.9735  -20.0744   12.0625 C   0  0  1  0  0  0  0  0  0  0  0  0
   18.5841  -20.3137   11.5341 C   0  0  0  0  0  0  0  0  0  0  0  0
   17.6614  -19.3334   12.1412 C   0  0  0  0  0  0  0  0  0  0  0  0
   18.0875  -18.2906   12.9690 C   0  0  0  0  0  0  0  0  0  0  0  0
   17.0399  -17.5624   13.3745 N   0  0  0  0  0  0  0  0  0  0  0  0
   15.9633  -18.1246   12.8196 C   0  0  0  0  0  0  0  0  0  0  0  0
   16.3333  -19.1862   12.0801 N   0  0  0  0  0  0  0  0  0  0  0  0
   20.5876  -21.2914   12.6120 C   0  0  0  0  0  0  0  0  0  0  0  0
   21.2316  -22.0526   11.8601 O   0  0  0  0  0  0  0  0  0  0  0  0
   20.4696  -21.6150   13.9454 O   0  0  0  0  0  0  0  0  0  0  0  0
  2  1  1  6
  2  3  1  0
  4  5  2  0
  4  3  1  0
  6  5  1  0
  7 12  2  0
  7  6  1  0
  8  7  1  0
  9 10  1  0
  9  8  2  0
 10 11  2  0
 11 12  1  0
 12  4  1  0
 13  2  1  0
 13 14  2  0
 16 15  1  6
 16 18  1  0
 17 16  1  0
 18 19  1  6
 19 13  1  0
 20 18  1  0
 21 20  2  0
 22 20  1  0
 23 22  1  0
 23 30  1  0
 24 25  1  0
 23 24  1  6
 25 29  1  0
 26 27  1  0
 26 25  2  0
 27 28  1  0
 28 29  2  0
 30 32  1  0
 31 30  2  0
M  END
$$$$
