WVH.pdb
     RDKit          3D

 32 34  0  0  1  0  0  0  0  0999 V2000
   25.9694  -21.9993  -10.0153 N   0  0  0  0  0  0  0  0  0  0  0  0
   26.2143  -20.5754  -10.0774 C   0  0  1  0  0  0  0  0  0  0  0  0
   27.4620  -20.2231   -9.2919 C   0  0  0  0  0  0  0  0  0  0  0  0
   27.2245  -20.0782   -7.8547 C   0  0  0  0  0  0  0  0  0  0  0  0
   25.9911  -20.0340   -7.2083 C   0  0  0  0  0  0  0  0  0  0  0  0
   26.2059  -19.8933   -5.8901 N   0  0  0  0  0  0  0  0  0  0  0  0
   27.5284  -19.8442   -5.6522 C   0  0  0  0  0  0  0  0  0  0  0  0
   28.2644  -19.7092   -4.4898 C   0  0  0  0  0  0  0  0  0  0  0  0
   29.6366  -19.6870   -4.5291 C   0  0  0  0  0  0  0  0  0  0  0  0
   30.2663  -19.8028   -5.7564 C   0  0  0  0  0  0  0  0  0  0  0  0
   29.5694  -19.9367   -6.9157 C   0  0  0  0  0  0  0  0  0  0  0  0
   28.1799  -19.9569   -6.8544 C   0  0  0  0  0  0  0  0  0  0  0  0
   26.3290  -20.1766  -11.4957 C   0  0  0  0  0  0  0  0  0  0  0  0
   27.3921  -19.6911  -11.9818 O   0  0  0  0  0  0  0  0  0  0  0  0
   26.0171  -22.3222  -14.4677 C   0  0  0  0  0  0  0  0  0  0  0  0
   26.3606  -20.8681  -14.4422 C   0  0  2  0  0  0  0  0  0  0  0  0
   27.6997  -20.6748  -13.7607 C   0  0  0  0  0  0  0  0  0  0  0  0
   25.2786  -20.0424  -13.7689 C   0  0  2  0  0  0  0  0  0  0  0  0
   25.2200  -20.3357  -12.3602 N   0  0  0  0  0  0  0  0  0  0  0  0
   23.9491  -20.3053  -14.4136 C   0  0  0  0  0  0  0  0  0  0  0  0
   23.2577  -21.2786  -14.0495 O   0  0  0  0  0  0  0  0  0  0  0  0
   23.4406  -19.4737  -15.4386 N   0  0  0  0  0  0  0  0  0  0  0  0
   22.0821  -19.6604  -15.8930 C   0  0  1  0  0  0  0  0  0  0  0  0
   21.3402  -18.3540  -15.9919 C   0  0  0  0  0  0  0  0  0  0  0  0
   20.8534  -17.9728  -14.6508 C   0  0  0  0  0  0  0  0  0  0  0  0
   21.0499  -18.7593  -13.5120 C   0  0  0  0  0  0  0  0  0  0  0  0
   20.5035  -18.1702  -12.4412 N   0  0  0  0  0  0  0  0  0  0  0  0
   19.9671  -17.0295  -12.8817 C   0  0  0  0  0  0  0  0  0  0  0  0
   20.1754  -16.9090  -14.2056 N   0  0  0  0  0  0  0  0  0  0  0  0
   22.1409  -20.3766  -17.1751 C   0  0  0  0  0  0  0  0  0  0  0  0
   23.2389  -20.5232  -17.7516 O   0  0  0  0  0  0  0  0  0  0  0  0
   21.0066  -20.8938  -17.7603 O   0  0  0  0  0  0  0  0  0  0  0  0
  2  1  1  6
  2  3  1  0
  4  5  2  0
  4  3  1  0
  6  5  1  0
  7 12  2  0
  7  6  1  0
  8  7  1  0
  9 10  1  0
  9  8  2  0
 10 11  2  0
 11 12  1  0
 12  4  1  0
 13  2  1  0
 13 14  2  0
 16 15  1  1
 16 18  1  0
 17 16  1  0
 18 19  1  1
 19 13  1  0
 20 18  1  0
 21 20  2  0
 22 20  1  0
 23 22  1  0
 23 30  1  0
 24 25  1  0
 23 24  1  6
 25 29  1  0
 26 27  1  0
 26 25  2  0
 27 28  1  0
 28 29  2  0
 30 32  1  0
 31 30  2  0
M  END
$$$$
