WVH.pdb
     RDKit          3D

 32 34  0  0  1  0  0  0  0  0999 V2000
   25.3124  -19.8241  -18.7566 N   0  0  0  0  0  0  0  0  0  0  0  0
   24.8119  -19.2277  -17.5379 C   0  0  1  0  0  0  0  0  0  0  0  0
   23.3223  -18.9714  -17.6527 C   0  0  0  0  0  0  0  0  0  0  0  0
   22.9775  -17.9879  -18.6807 C   0  0  0  0  0  0  0  0  0  0  0  0
   22.4405  -18.2440  -19.9405 C   0  0  0  0  0  0  0  0  0  0  0  0
   22.2707  -17.0737  -20.5771 N   0  0  0  0  0  0  0  0  0  0  0  0
   22.6752  -16.0667  -19.7833 C   0  0  0  0  0  0  0  0  0  0  0  0
   22.7116  -14.6958  -19.9581 C   0  0  0  0  0  0  0  0  0  0  0  0
   23.1848  -13.8760  -18.9636 C   0  0  0  0  0  0  0  0  0  0  0  0
   23.6240  -14.4512  -17.7836 C   0  0  0  0  0  0  0  0  0  0  0  0
   23.6003  -15.7954  -17.5829 C   0  0  0  0  0  0  0  0  0  0  0  0
   23.1172  -16.6086  -18.6029 C   0  0  0  0  0  0  0  0  0  0  0  0
   25.1279  -20.1254  -16.4074 C   0  0  0  0  0  0  0  0  0  0  0  0
   25.0581  -21.3858  -16.4999 O   0  0  0  0  0  0  0  0  0  0  0  0
   28.1772  -20.5137  -14.4615 C   0  0  0  0  0  0  0  0  0  0  0  0
   27.1354  -20.1787  -13.4440 C   0  0  2  0  0  0  0  0  0  0  0  0
   27.3606  -21.0066  -12.1954 C   0  0  0  0  0  0  0  0  0  0  0  0
   25.7307  -20.3753  -13.9860 C   0  0  2  0  0  0  0  0  0  0  0  0
   25.5261  -19.5752  -15.1659 N   0  0  0  0  0  0  0  0  0  0  0  0
   24.7163  -20.0276  -12.9360 C   0  0  0  0  0  0  0  0  0  0  0  0
   24.7592  -18.9177  -12.3666 O   0  0  0  0  0  0  0  0  0  0  0  0
   23.6930  -20.9293  -12.5610 N   0  0  0  0  0  0  0  0  0  0  0  0
   22.3305  -20.4573  -12.4746 C   0  0  1  0  0  0  0  0  0  0  0  0
   21.9443  -19.6380  -13.6773 C   0  0  0  0  0  0  0  0  0  0  0  0
   20.5378  -19.2099  -13.5382 C   0  0  0  0  0  0  0  0  0  0  0  0
   20.0855  -18.3899  -12.5004 C   0  0  0  0  0  0  0  0  0  0  0  0
   18.7714  -18.1661  -12.6248 N   0  0  0  0  0  0  0  0  0  0  0  0
   18.3869  -18.8280  -13.7189 C   0  0  0  0  0  0  0  0  0  0  0  0
   19.4437  -19.4544  -14.2681 N   0  0  0  0  0  0  0  0  0  0  0  0
   21.4679  -21.6329  -12.2897 C   0  0  0  0  0  0  0  0  0  0  0  0
   20.6053  -21.6310  -11.3867 O   0  0  0  0  0  0  0  0  0  0  0  0
   21.5885  -22.7445  -13.0939 O   0  0  0  0  0  0  0  0  0  0  0  0
  2  1  1  6
  2  3  1  0
  4  5  2  0
  4  3  1  0
  6  5  1  0
  7 12  2  0
  7  6  1  0
  8  7  1  0
  9 10  1  0
  9  8  2  0
 10 11  2  0
 11 12  1  0
 12  4  1  0
 13  2  1  0
 13 14  2  0
 16 15  1  6
 16 18  1  0
 17 16  1  0
 18 19  1  6
 19 13  1  0
 20 18  1  0
 21 20  2  0
 22 20  1  0
 23 22  1  0
 23 30  1  0
 24 25  1  0
 23 24  1  6
 25 29  1  0
 26 27  1  0
 26 25  2  0
 27 28  1  0
 28 29  2  0
 30 32  1  0
 31 30  2  0
M  END
$$$$
