WVH.pdb
     RDKit          3D

 32 34  0  0  1  0  0  0  0  0999 V2000
   28.0067  -22.3011  -17.6626 N   0  0  0  0  0  0  0  0  0  0  0  0
   27.2677  -21.2337  -17.0253 C   0  0  1  0  0  0  0  0  0  0  0  0
   25.9089  -21.0742  -17.6779 C   0  0  0  0  0  0  0  0  0  0  0  0
   25.9780  -20.5871  -19.0567 C   0  0  0  0  0  0  0  0  0  0  0  0
   25.8919  -21.3478  -20.2207 C   0  0  0  0  0  0  0  0  0  0  0  0
   26.0000  -20.5247  -21.2764 N   0  0  0  0  0  0  0  0  0  0  0  0
   26.1528  -19.2597  -20.8471 C   0  0  0  0  0  0  0  0  0  0  0  0
   26.3058  -18.0585  -21.5142 C   0  0  0  0  0  0  0  0  0  0  0  0
   26.4467  -16.8841  -20.8172 C   0  0  0  0  0  0  0  0  0  0  0  0
   26.4321  -16.9289  -19.4336 C   0  0  0  0  0  0  0  0  0  0  0  0
   26.2835  -18.0944  -18.7504 C   0  0  0  0  0  0  0  0  0  0  0  0
   26.1423  -19.2733  -19.4752 C   0  0  0  0  0  0  0  0  0  0  0  0
   27.1510  -21.5346  -15.5832 C   0  0  0  0  0  0  0  0  0  0  0  0
   26.8998  -22.6967  -15.1492 O   0  0  0  0  0  0  0  0  0  0  0  0
   29.6301  -20.7426  -12.9439 C   0  0  0  0  0  0  0  0  0  0  0  0
   28.3449  -20.1592  -12.4530 C   0  0  2  0  0  0  0  0  0  0  0  0
   28.2042  -20.4192  -10.9672 C   0  0  0  0  0  0  0  0  0  0  0  0
   27.1495  -20.6973  -13.2194 C   0  0  2  0  0  0  0  0  0  0  0  0
   27.3236  -20.4984  -14.6351 N   0  0  0  0  0  0  0  0  0  0  0  0
   25.8895  -20.0316  -12.7488 C   0  0  0  0  0  0  0  0  0  0  0  0
   25.4894  -18.9861  -13.3009 O   0  0  0  0  0  0  0  0  0  0  0  0
   25.1234  -20.5562  -11.6817 N   0  0  0  0  0  0  0  0  0  0  0  0
   23.6816  -20.5033  -11.7526 C   0  0  1  0  0  0  0  0  0  0  0  0
   23.1446  -21.3529  -12.8737 C   0  0  0  0  0  0  0  0  0  0  0  0
   21.6686  -21.3146  -12.8438 C   0  0  0  0  0  0  0  0  0  0  0  0
   20.9398  -20.5973  -11.8907 C   0  0  0  0  0  0  0  0  0  0  0  0
   19.6263  -20.7435  -12.1045 N   0  0  0  0  0  0  0  0  0  0  0  0
   19.5128  -21.5377  -13.1719 C   0  0  0  0  0  0  0  0  0  0  0  0
   20.7354  -21.8813  -13.6168 N   0  0  0  0  0  0  0  0  0  0  0  0
   23.1608  -20.9052  -10.4383 C   0  0  0  0  0  0  0  0  0  0  0  0
   23.8421  -21.6524   -9.7054 O   0  0  0  0  0  0  0  0  0  0  0  0
   21.9311  -20.4748   -9.9920 O   0  0  0  0  0  0  0  0  0  0  0  0
  2  1  1  6
  2  3  1  0
  4  5  2  0
  4  3  1  0
  6  5  1  0
  7 12  2  0
  7  6  1  0
  8  7  1  0
  9 10  1  0
  9  8  2  0
 10 11  2  0
 11 12  1  0
 12  4  1  0
 13  2  1  0
 13 14  2  0
 16 15  1  6
 16 18  1  0
 17 16  1  0
 18 19  1  6
 19 13  1  0
 20 18  1  0
 21 20  2  0
 22 20  1  0
 23 22  1  0
 23 30  1  0
 24 25  1  0
 23 24  1  6
 25 29  1  0
 26 27  1  0
 26 25  2  0
 27 28  1  0
 28 29  2  0
 30 32  1  0
 31 30  2  0
M  END
$$$$
