WVH.pdb
     RDKit          3D

 32 34  0  0  1  0  0  0  0  0999 V2000
   14.6585  -20.6714    2.1114 N   0  0  0  0  0  0  0  0  0  0  0  0
   15.9538  -20.5017    2.7317 C   0  0  1  0  0  0  0  0  0  0  0  0
   15.9093  -19.3684    3.7374 C   0  0  0  0  0  0  0  0  0  0  0  0
   15.7394  -18.0504    3.1232 C   0  0  0  0  0  0  0  0  0  0  0  0
   14.6275  -17.5883    2.4224 C   0  0  0  0  0  0  0  0  0  0  0  0
   14.8692  -16.3292    2.0224 N   0  0  0  0  0  0  0  0  0  0  0  0
   16.0927  -15.9532    2.4341 C   0  0  0  0  0  0  0  0  0  0  0  0
   16.8086  -14.7798    2.2866 C   0  0  0  0  0  0  0  0  0  0  0  0
   18.0689  -14.6576    2.8174 C   0  0  0  0  0  0  0  0  0  0  0  0
   18.6064  -15.7337    3.5027 C   0  0  0  0  0  0  0  0  0  0  0  0
   17.9266  -16.8996    3.6638 C   0  0  0  0  0  0  0  0  0  0  0  0
   16.6511  -17.0031    3.1184 C   0  0  0  0  0  0  0  0  0  0  0  0
   16.3471  -21.7788    3.3626 C   0  0  0  0  0  0  0  0  0  0  0  0
   15.5142  -22.6983    3.6134 O   0  0  0  0  0  0  0  0  0  0  0  0
   19.6193  -23.9440    2.5921 C   0  0  0  0  0  0  0  0  0  0  0  0
   19.5478  -23.5529    4.0326 C   0  0  2  0  0  0  0  0  0  0  0  0
   20.0725  -24.6845    4.8924 C   0  0  0  0  0  0  0  0  0  0  0  0
   18.1399  -23.1597    4.4434 C   0  0  2  0  0  0  0  0  0  0  0  0
   17.7014  -22.0025    3.7068 N   0  0  0  0  0  0  0  0  0  0  0  0
   18.0861  -22.8916    5.9190 C   0  0  0  0  0  0  0  0  0  0  0  0
   18.3214  -23.8094    6.7316 O   0  0  0  0  0  0  0  0  0  0  0  0
   17.7728  -21.6115    6.4328 N   0  0  0  0  0  0  0  0  0  0  0  0
   17.6877  -21.4240    7.8627 C   0  0  1  0  0  0  0  0  0  0  0  0
   18.4363  -20.1975    8.3121 C   0  0  0  0  0  0  0  0  0  0  0  0
   19.8854  -20.4814    8.2902 C   0  0  0  0  0  0  0  0  0  0  0  0
   20.4924  -21.4328    9.1152 C   0  0  0  0  0  0  0  0  0  0  0  0
   21.8100  -21.4764    8.8818 N   0  0  0  0  0  0  0  0  0  0  0  0
   22.0453  -20.5726    7.9274 C   0  0  0  0  0  0  0  0  0  0  0  0
   20.8934  -19.9749    7.5713 N   0  0  0  0  0  0  0  0  0  0  0  0
   16.2621  -21.3788    8.2170 C   0  0  0  0  0  0  0  0  0  0  0  0
   15.3998  -21.5946    7.3399 O   0  0  0  0  0  0  0  0  0  0  0  0
   15.8509  -21.1023    9.5020 O   0  0  0  0  0  0  0  0  0  0  0  0
  2  1  1  1
  2  3  1  0
  4  5  2  0
  4  3  1  0
  6  5  1  0
  7 12  2  0
  7  6  1  0
  8  7  1  0
  9 10  1  0
  9  8  2  0
 10 11  2  0
 11 12  1  0
 12  4  1  0
 13  2  1  0
 13 14  2  0
 16 15  1  6
 16 18  1  0
 17 16  1  0
 18 19  1  6
 19 13  1  0
 20 18  1  0
 21 20  2  0
 22 20  1  0
 23 22  1  0
 23 30  1  0
 24 25  1  0
 23 24  1  6
 25 29  1  0
 26 27  1  0
 26 25  2  0
 27 28  1  0
 28 29  2  0
 30 32  1  0
 31 30  2  0
M  END
$$$$
