WVH.pdb
     RDKit          3D

 32 34  0  0  1  0  0  0  0  0999 V2000
   27.5647  -21.1208  -13.7254 N   0  0  0  0  0  0  0  0  0  0  0  0
   26.2162  -21.1959  -13.2083 C   0  0  1  0  0  0  0  0  0  0  0  0
   25.7990  -19.8560  -12.6352 C   0  0  0  0  0  0  0  0  0  0  0  0
   26.5980  -19.4415  -11.4807 C   0  0  0  0  0  0  0  0  0  0  0  0
   27.6499  -18.5280  -11.4728 C   0  0  0  0  0  0  0  0  0  0  0  0
   28.1168  -18.4268  -10.2176 N   0  0  0  0  0  0  0  0  0  0  0  0
   27.4118  -19.2369   -9.4085 C   0  0  0  0  0  0  0  0  0  0  0  0
   27.4880  -19.5011   -8.0537 C   0  0  0  0  0  0  0  0  0  0  0  0
   26.6271  -20.3944   -7.4655 C   0  0  0  0  0  0  0  0  0  0  0  0
   25.6824  -21.0239   -8.2576 C   0  0  0  0  0  0  0  0  0  0  0  0
   25.5836  -20.7845   -9.5920 C   0  0  0  0  0  0  0  0  0  0  0  0
   26.4651  -19.8760  -10.1686 C   0  0  0  0  0  0  0  0  0  0  0  0
   25.3158  -21.6306  -14.2965 C   0  0  0  0  0  0  0  0  0  0  0  0
   25.4803  -21.2723  -15.4993 O   0  0  0  0  0  0  0  0  0  0  0  0
   24.5397  -25.1472  -15.2488 C   0  0  0  0  0  0  0  0  0  0  0  0
   23.2311  -24.4918  -14.9472 C   0  0  2  0  0  0  0  0  0  0  0  0
   22.1707  -25.0163  -15.8935 C   0  0  0  0  0  0  0  0  0  0  0  0
   23.3269  -22.9779  -15.0159 C   0  0  2  0  0  0  0  0  0  0  0  0
   24.2226  -22.4802  -14.0040 N   0  0  0  0  0  0  0  0  0  0  0  0
   21.9663  -22.3646  -14.8576 C   0  0  0  0  0  0  0  0  0  0  0  0
   21.3741  -22.4283  -13.7608 O   0  0  0  0  0  0  0  0  0  0  0  0
   21.3181  -21.7035  -15.9270 N   0  0  0  0  0  0  0  0  0  0  0  0
   20.0057  -21.1372  -15.7176 C   0  0  1  0  0  0  0  0  0  0  0  0
   19.7168  -20.0205  -16.6852 C   0  0  0  0  0  0  0  0  0  0  0  0
   20.5024  -18.8314  -16.2983 C   0  0  0  0  0  0  0  0  0  0  0  0
   21.2180  -18.7421  -15.1008 C   0  0  0  0  0  0  0  0  0  0  0  0
   21.8320  -17.5555  -15.0145 N   0  0  0  0  0  0  0  0  0  0  0  0
   21.5181  -16.8960  -16.1323 C   0  0  0  0  0  0  0  0  0  0  0  0
   20.7212  -17.6585  -16.9033 N   0  0  0  0  0  0  0  0  0  0  0  0
   19.0323  -22.2343  -15.8121 C   0  0  0  0  0  0  0  0  0  0  0  0
   19.2071  -23.1456  -16.6479 O   0  0  0  0  0  0  0  0  0  0  0  0
   17.9243  -22.2824  -14.9957 O   0  0  0  0  0  0  0  0  0  0  0  0
  2  1  1  6
  2  3  1  0
  4  5  2  0
  4  3  1  0
  6  5  1  0
  7 12  2  0
  7  6  1  0
  8  7  1  0
  9 10  1  0
  9  8  2  0
 10 11  2  0
 11 12  1  0
 12  4  1  0
 13  2  1  0
 13 14  2  0
 16 15  1  6
 16 18  1  0
 17 16  1  0
 18 19  1  1
 19 13  1  0
 20 18  1  0
 21 20  2  0
 22 20  1  0
 23 22  1  0
 23 30  1  0
 24 25  1  0
 23 24  1  6
 25 29  1  0
 26 27  1  0
 26 25  2  0
 27 28  1  0
 28 29  2  0
 30 32  1  0
 31 30  2  0
M  END
$$$$
