WVH.pdb
     RDKit          3D

 32 34  0  0  1  0  0  0  0  0999 V2000
   24.9501  -12.9713  -17.9261 N   0  0  0  0  0  0  0  0  0  0  0  0
   24.0107  -12.6260  -16.8820 C   0  0  1  0  0  0  0  0  0  0  0  0
   24.5981  -12.9454  -15.5216 C   0  0  0  0  0  0  0  0  0  0  0  0
   24.8874  -14.3677  -15.3308 C   0  0  0  0  0  0  0  0  0  0  0  0
   26.1344  -14.9476  -15.1076 C   0  0  0  0  0  0  0  0  0  0  0  0
   25.9709  -16.2751  -14.9852 N   0  0  0  0  0  0  0  0  0  0  0  0
   24.6689  -16.5826  -15.1197 C   0  0  0  0  0  0  0  0  0  0  0  0
   23.9830  -17.7822  -15.0793 C   0  0  0  0  0  0  0  0  0  0  0  0
   22.6213  -17.8158  -15.2520 C   0  0  0  0  0  0  0  0  0  0  0  0
   21.9511  -16.6238  -15.4671 C   0  0  0  0  0  0  0  0  0  0  0  0
   22.5983  -15.4293  -15.5119 C   0  0  0  0  0  0  0  0  0  0  0  0
   23.9779  -15.4169  -15.3346 C   0  0  0  0  0  0  0  0  0  0  0  0
   23.6682  -11.1941  -17.0085 C   0  0  0  0  0  0  0  0  0  0  0  0
   24.4163  -10.3660  -17.6058 O   0  0  0  0  0  0  0  0  0  0  0  0
   20.5534  -10.0373  -18.5784 C   0  0  0  0  0  0  0  0  0  0  0  0
   21.6485   -9.1335  -18.1128 C   0  0  2  0  0  0  0  0  0  0  0  0
   22.8665   -9.3156  -18.9950 C   0  0  0  0  0  0  0  0  0  0  0  0
   21.9905   -9.3646  -16.6515 C   0  0  2  0  0  0  0  0  0  0  0  0
   22.4623  -10.7100  -16.4480 N   0  0  0  0  0  0  0  0  0  0  0  0
   20.7921   -9.0946  -15.7894 C   0  0  0  0  0  0  0  0  0  0  0  0
   20.2285  -10.0323  -15.1885 O   0  0  0  0  0  0  0  0  0  0  0  0
   20.2679   -7.7906  -15.6294 N   0  0  0  0  0  0  0  0  0  0  0  0
   19.3895   -7.5125  -14.5169 C   0  0  1  0  0  0  0  0  0  0  0  0
   20.0658   -7.7582  -13.1944 C   0  0  0  0  0  0  0  0  0  0  0  0
   19.0780   -7.5929  -12.1091 C   0  0  0  0  0  0  0  0  0  0  0  0
   17.7515   -7.2123  -12.3317 C   0  0  0  0  0  0  0  0  0  0  0  0
   17.0881   -7.1409  -11.1711 N   0  0  0  0  0  0  0  0  0  0  0  0
   17.9689   -7.4685  -10.2225 C   0  0  0  0  0  0  0  0  0  0  0  0
   19.1622   -7.7398  -10.7822 N   0  0  0  0  0  0  0  0  0  0  0  0
   18.9181   -6.1280  -14.6631 C   0  0  0  0  0  0  0  0  0  0  0  0
   19.5166   -5.3494  -15.4345 O   0  0  0  0  0  0  0  0  0  0  0  0
   17.8246   -5.6653  -13.9654 O   0  0  0  0  0  0  0  0  0  0  0  0
  2  1  1  6
  2  3  1  0
  4  5  2  0
  4  3  1  0
  6  5  1  0
  7 12  2  0
  7  6  1  0
  8  7  1  0
  9 10  1  0
  9  8  2  0
 10 11  2  0
 11 12  1  0
 12  4  1  0
 13  2  1  0
 13 14  2  0
 16 15  1  6
 16 18  1  0
 17 16  1  0
 18 19  1  6
 19 13  1  0
 20 18  1  0
 21 20  2  0
 22 20  1  0
 23 22  1  0
 23 30  1  0
 24 25  1  0
 23 24  1  1
 25 29  1  0
 26 27  1  0
 26 25  2  0
 27 28  1  0
 28 29  2  0
 30 32  1  0
 31 30  2  0
M  END
$$$$
