WVH.pdb
     RDKit          3D

 32 34  0  0  1  0  0  0  0  0999 V2000
   27.0714  -22.4843  -11.1502 N   0  0  0  0  0  0  0  0  0  0  0  0
   26.0661  -21.4447  -11.1604 C   0  0  1  0  0  0  0  0  0  0  0  0
   26.6358  -20.1588  -10.5952 C   0  0  0  0  0  0  0  0  0  0  0  0
   26.4438  -20.0215   -9.1504 C   0  0  0  0  0  0  0  0  0  0  0  0
   25.2311  -19.9578   -8.4675 C   0  0  0  0  0  0  0  0  0  0  0  0
   25.4874  -19.8328   -7.1551 N   0  0  0  0  0  0  0  0  0  0  0  0
   26.8170  -19.8125   -6.9561 C   0  0  0  0  0  0  0  0  0  0  0  0
   27.5895  -19.7024   -5.8149 C   0  0  0  0  0  0  0  0  0  0  0  0
   28.9602  -19.7077   -5.8946 C   0  0  0  0  0  0  0  0  0  0  0  0
   29.5509  -19.8256   -7.1410 C   0  0  0  0  0  0  0  0  0  0  0  0
   28.8177  -19.9355   -8.2802 C   0  0  0  0  0  0  0  0  0  0  0  0
   27.4304  -19.9280   -8.1779 C   0  0  0  0  0  0  0  0  0  0  0  0
   25.5826  -21.2676  -12.5455 C   0  0  0  0  0  0  0  0  0  0  0  0
   26.3517  -21.3378  -13.5484 O   0  0  0  0  0  0  0  0  0  0  0  0
   22.0722  -22.7681  -13.6744 C   0  0  0  0  0  0  0  0  0  0  0  0
   22.2090  -21.3487  -14.1210 C   0  0  2  0  0  0  0  0  0  0  0  0
   21.6000  -21.1892  -15.4990 C   0  0  0  0  0  0  0  0  0  0  0  0
   23.6554  -20.8867  -14.1042 C   0  0  2  0  0  0  0  0  0  0  0  0
   24.2114  -21.0095  -12.7814 N   0  0  0  0  0  0  0  0  0  0  0  0
   23.7521  -19.4675  -14.5825 C   0  0  0  0  0  0  0  0  0  0  0  0
   24.2299  -18.5867  -13.8383 O   0  0  0  0  0  0  0  0  0  0  0  0
   23.3132  -19.0841  -15.8714 N   0  0  0  0  0  0  0  0  0  0  0  0
   24.1486  -18.2234  -16.6765 C   0  0  1  0  0  0  0  0  0  0  0  0
   25.5059  -18.8281  -16.9193 C   0  0  0  0  0  0  0  0  0  0  0  0
   26.4884  -18.1835  -16.0249 C   0  0  0  0  0  0  0  0  0  0  0  0
   26.1400  -17.2290  -15.0649 C   0  0  0  0  0  0  0  0  0  0  0  0
   27.2286  -16.8179  -14.4028 N   0  0  0  0  0  0  0  0  0  0  0  0
   28.2549  -17.4933  -14.9257 C   0  0  0  0  0  0  0  0  0  0  0  0
   27.8138  -18.3123  -15.8981 N   0  0  0  0  0  0  0  0  0  0  0  0
   23.4217  -17.9447  -17.9232 C   0  0  0  0  0  0  0  0  0  0  0  0
   23.3838  -16.7789  -18.3693 O   0  0  0  0  0  0  0  0  0  0  0  0
   22.7769  -18.9449  -18.6163 O   0  0  0  0  0  0  0  0  0  0  0  0
  2  1  1  6
  2  3  1  0
  4  5  2  0
  4  3  1  0
  6  5  1  0
  7 12  2  0
  7  6  1  0
  8  7  1  0
  9 10  1  0
  9  8  2  0
 10 11  2  0
 11 12  1  0
 12  4  1  0
 13  2  1  0
 13 14  2  0
 16 15  1  6
 16 18  1  0
 17 16  1  0
 18 19  1  1
 19 13  1  0
 20 18  1  0
 21 20  2  0
 22 20  1  0
 23 22  1  0
 23 30  1  0
 24 25  1  0
 23 24  1  6
 25 29  1  0
 26 27  1  0
 26 25  2  0
 27 28  1  0
 28 29  2  0
 30 32  1  0
 31 30  2  0
M  END
$$$$
