WVH.pdb
     RDKit          3D

 32 34  0  0  1  0  0  0  0  0999 V2000
   25.4680  -20.8237  -16.1744 N   0  0  0  0  0  0  0  0  0  0  0  0
   25.5692  -19.9291  -15.0427 C   0  0  1  0  0  0  0  0  0  0  0  0
   24.5747  -18.7935  -15.1814 C   0  0  0  0  0  0  0  0  0  0  0  0
   25.0379  -17.7167  -16.0583 C   0  0  0  0  0  0  0  0  0  0  0  0
   24.2579  -16.7344  -16.6648 C   0  0  0  0  0  0  0  0  0  0  0  0
   25.0623  -15.9379  -17.3875 N   0  0  0  0  0  0  0  0  0  0  0  0
   26.3335  -16.3616  -17.2761 C   0  0  0  0  0  0  0  0  0  0  0  0
   27.5222  -15.9014  -17.8112 C   0  0  0  0  0  0  0  0  0  0  0  0
   28.7075  -16.5350  -17.5308 C   0  0  0  0  0  0  0  0  0  0  0  0
   28.6863  -17.6433  -16.7016 C   0  0  0  0  0  0  0  0  0  0  0  0
   27.5335  -18.1187  -16.1610 C   0  0  0  0  0  0  0  0  0  0  0  0
   26.3433  -17.4626  -16.4575 C   0  0  0  0  0  0  0  0  0  0  0  0
   25.3459  -20.7049  -13.8049 C   0  0  0  0  0  0  0  0  0  0  0  0
   24.6275  -21.7466  -13.7755 O   0  0  0  0  0  0  0  0  0  0  0  0
   28.2532  -21.2727  -11.1120 C   0  0  0  0  0  0  0  0  0  0  0  0
   26.9968  -20.7939  -10.4599 C   0  0  2  0  0  0  0  0  0  0  0  0
   26.8165  -21.4951   -9.1292 C   0  0  0  0  0  0  0  0  0  0  0  0
   25.7845  -20.9920  -11.3526 C   0  0  2  0  0  0  0  0  0  0  0  0
   25.9495  -20.2844  -12.5960 N   0  0  0  0  0  0  0  0  0  0  0  0
   24.5417  -20.5305  -10.6493 C   0  0  0  0  0  0  0  0  0  0  0  0
   24.3793  -19.3197  -10.3936 O   0  0  0  0  0  0  0  0  0  0  0  0
   23.5273  -21.4355  -10.2582 N   0  0  0  0  0  0  0  0  0  0  0  0
   22.3203  -20.9259   -9.6496 C   0  0  1  0  0  0  0  0  0  0  0  0
   21.0864  -21.4013  -10.3694 C   0  0  0  0  0  0  0  0  0  0  0  0
   20.9686  -20.6804  -11.6529 C   0  0  0  0  0  0  0  0  0  0  0  0
   21.6928  -19.5225  -11.9507 C   0  0  0  0  0  0  0  0  0  0  0  0
   21.3862  -19.0863  -13.1788 N   0  0  0  0  0  0  0  0  0  0  0  0
   20.4843  -19.9452  -13.6604 C   0  0  0  0  0  0  0  0  0  0  0  0
   20.2323  -20.9014  -12.7477 N   0  0  0  0  0  0  0  0  0  0  0  0
   22.3388  -21.3232   -8.2346 C   0  0  0  0  0  0  0  0  0  0  0  0
   21.5125  -20.8250   -7.4418 O   0  0  0  0  0  0  0  0  0  0  0  0
   23.2514  -22.2381   -7.7585 O   0  0  0  0  0  0  0  0  0  0  0  0
  2  1  1  6
  2  3  1  0
  4  5  2  0
  4  3  1  0
  6  5  1  0
  7 12  2  0
  7  6  1  0
  8  7  1  0
  9 10  1  0
  9  8  2  0
 10 11  2  0
 11 12  1  0
 12  4  1  0
 13  2  1  0
 13 14  2  0
 16 15  1  6
 16 18  1  0
 17 16  1  0
 18 19  1  6
 19 13  1  0
 20 18  1  0
 21 20  2  0
 22 20  1  0
 23 22  1  0
 23 30  1  0
 24 25  1  0
 23 24  1  6
 25 29  1  0
 26 27  1  0
 26 25  2  0
 27 28  1  0
 28 29  2  0
 30 32  1  0
 31 30  2  0
M  END
$$$$
