WVH.pdb
     RDKit          3D

 32 34  0  0  1  0  0  0  0  0999 V2000
   25.5208  -18.8231   -8.6063 N   0  0  0  0  0  0  0  0  0  0  0  0
   26.2369  -19.9721   -9.1148 C   0  0  1  0  0  0  0  0  0  0  0  0
   25.9452  -21.1912   -8.2624 C   0  0  0  0  0  0  0  0  0  0  0  0
   26.2547  -20.9988   -6.8446 C   0  0  0  0  0  0  0  0  0  0  0  0
   25.4773  -21.3877   -5.7558 C   0  0  0  0  0  0  0  0  0  0  0  0
   26.1132  -21.0289   -4.6286 N   0  0  0  0  0  0  0  0  0  0  0  0
   27.2724  -20.4226   -4.9393 C   0  0  0  0  0  0  0  0  0  0  0  0
   28.2775  -19.8747   -4.1642 C   0  0  0  0  0  0  0  0  0  0  0  0
   29.3798  -19.3030   -4.7498 C   0  0  0  0  0  0  0  0  0  0  0  0
   29.4628  -19.2870   -6.1315 C   0  0  0  0  0  0  0  0  0  0  0  0
   28.4906  -19.8177   -6.9195 C   0  0  0  0  0  0  0  0  0  0  0  0
   27.3819  -20.3923   -6.3066 C   0  0  0  0  0  0  0  0  0  0  0  0
   25.8501  -20.1844  -10.5252 C   0  0  0  0  0  0  0  0  0  0  0  0
   24.6998  -19.8937  -10.9660 O   0  0  0  0  0  0  0  0  0  0  0  0
   29.0281  -19.8856  -12.9390 C   0  0  0  0  0  0  0  0  0  0  0  0
   27.9920  -20.7744  -13.5468 C   0  0  2  0  0  0  0  0  0  0  0  0
   27.8867  -20.4900  -15.0311 C   0  0  0  0  0  0  0  0  0  0  0  0
   26.6447  -20.6236  -12.8628 C   0  0  2  0  0  0  0  0  0  0  0  0
   26.7868  -20.7318  -11.4337 N   0  0  0  0  0  0  0  0  0  0  0  0
   25.6854  -21.6589  -13.3728 C   0  0  0  0  0  0  0  0  0  0  0  0
   25.5718  -22.7527  -12.7824 O   0  0  0  0  0  0  0  0  0  0  0  0
   24.8893  -21.4359  -14.5205 N   0  0  0  0  0  0  0  0  0  0  0  0
   23.5131  -21.8751  -14.5236 C   0  0  1  0  0  0  0  0  0  0  0  0
   22.7488  -21.3304  -13.3463 C   0  0  0  0  0  0  0  0  0  0  0  0
   21.3396  -21.7605  -13.4449 C   0  0  0  0  0  0  0  0  0  0  0  0
   20.8649  -22.6049  -14.4528 C   0  0  0  0  0  0  0  0  0  0  0  0
   19.5537  -22.8245  -14.2949 N   0  0  0  0  0  0  0  0  0  0  0  0
   19.1929  -22.1362  -13.2090 C   0  0  0  0  0  0  0  0  0  0  0  0
   20.2615  -21.4977  -12.6978 N   0  0  0  0  0  0  0  0  0  0  0  0
   22.9269  -21.4785  -15.8117 C   0  0  0  0  0  0  0  0  0  0  0  0
   22.2970  -22.3176  -16.4888 O   0  0  0  0  0  0  0  0  0  0  0  0
   23.0562  -20.1948  -16.2936 O   0  0  0  0  0  0  0  0  0  0  0  0
  2  1  1  1
  2  3  1  0
  4  5  2  0
  4  3  1  0
  6  5  1  0
  7 12  2  0
  7  6  1  0
  8  7  1  0
  9 10  1  0
  9  8  2  0
 10 11  2  0
 11 12  1  0
 12  4  1  0
 13  2  1  0
 13 14  2  0
 16 15  1  1
 16 18  1  0
 17 16  1  0
 18 19  1  1
 19 13  1  0
 20 18  1  0
 21 20  2  0
 22 20  1  0
 23 22  1  0
 23 30  1  0
 24 25  1  0
 23 24  1  1
 25 29  1  0
 26 27  1  0
 26 25  2  0
 27 28  1  0
 28 29  2  0
 30 32  1  0
 31 30  2  0
M  END
$$$$
