WVH.pdb
     RDKit          3D

 32 34  0  0  1  0  0  0  0  0999 V2000
   27.2048  -20.9991  -17.0722 N   0  0  0  0  0  0  0  0  0  0  0  0
   26.8974  -20.0840  -15.9954 C   0  0  1  0  0  0  0  0  0  0  0  0
   26.1278  -18.8904  -16.5252 C   0  0  0  0  0  0  0  0  0  0  0  0
   26.8708  -18.1112  -17.5171 C   0  0  0  0  0  0  0  0  0  0  0  0
   26.3757  -17.5710  -18.7020 C   0  0  0  0  0  0  0  0  0  0  0  0
   27.3756  -16.9290  -19.3279 N   0  0  0  0  0  0  0  0  0  0  0  0
   28.5009  -17.0293  -18.5989 C   0  0  0  0  0  0  0  0  0  0  0  0
   29.7852  -16.5560  -18.7928 C   0  0  0  0  0  0  0  0  0  0  0  0
   30.7705  -16.8080  -17.8705 C   0  0  0  0  0  0  0  0  0  0  0  0
   30.4502  -17.5454  -16.7435 C   0  0  0  0  0  0  0  0  0  0  0  0
   29.1967  -18.0237  -16.5257 C   0  0  0  0  0  0  0  0  0  0  0  0
   28.2128  -17.7574  -17.4724 C   0  0  0  0  0  0  0  0  0  0  0  0
   26.1350  -20.8115  -14.9594 C   0  0  0  0  0  0  0  0  0  0  0  0
   25.6101  -21.9438  -15.1708 O   0  0  0  0  0  0  0  0  0  0  0  0
   27.1328  -20.9034  -11.1029 C   0  0  0  0  0  0  0  0  0  0  0  0
   25.7077  -20.4859  -11.2700 C   0  0  2  0  0  0  0  0  0  0  0  0
   24.8650  -21.1077  -10.1753 C   0  0  0  0  0  0  0  0  0  0  0  0
   25.1706  -20.8427  -12.6448 C   0  0  2  0  0  0  0  0  0  0  0  0
   25.9745  -20.2384  -13.6756 N   0  0  0  0  0  0  0  0  0  0  0  0
   23.7408  -20.4048  -12.7725 C   0  0  0  0  0  0  0  0  0  0  0  0
   23.4331  -19.2090  -12.5904 O   0  0  0  0  0  0  0  0  0  0  0  0
   22.7090  -21.3157  -13.0987 N   0  0  0  0  0  0  0  0  0  0  0  0
   21.3407  -20.8535  -13.1302 C   0  0  1  0  0  0  0  0  0  0  0  0
   20.6773  -21.1570  -14.4473 C   0  0  0  0  0  0  0  0  0  0  0  0
   21.2054  -20.2389  -15.4764 C   0  0  0  0  0  0  0  0  0  0  0  0
   20.8773  -18.8812  -15.5332 C   0  0  0  0  0  0  0  0  0  0  0  0
   21.4976  -18.2967  -16.5656 N   0  0  0  0  0  0  0  0  0  0  0  0
   22.2091  -19.2575  -17.1600 C   0  0  0  0  0  0  0  0  0  0  0  0
   22.0356  -20.4225  -16.5091 N   0  0  0  0  0  0  0  0  0  0  0  0
   20.6427  -21.4653  -11.9905 C   0  0  0  0  0  0  0  0  0  0  0  0
   20.9582  -22.6143  -11.6168 O   0  0  0  0  0  0  0  0  0  0  0  0
   19.6422  -20.7975  -11.3200 O   0  0  0  0  0  0  0  0  0  0  0  0
  2  1  1  6
  2  3  1  0
  4  5  2  0
  4  3  1  0
  6  5  1  0
  7 12  2  0
  7  6  1  0
  8  7  1  0
  9 10  1  0
  9  8  2  0
 10 11  2  0
 11 12  1  0
 12  4  1  0
 13  2  1  0
 13 14  2  0
 16 15  1  6
 16 18  1  0
 17 16  1  0
 18 19  1  6
 19 13  1  0
 20 18  1  0
 21 20  2  0
 22 20  1  0
 23 22  1  0
 23 30  1  0
 24 25  1  0
 23 24  1  6
 25 29  1  0
 26 27  1  0
 26 25  2  0
 27 28  1  0
 28 29  2  0
 30 32  1  0
 31 30  2  0
M  END
$$$$
