VEM.pdb
     RDKit          3D

 25 24  0  0  1  0  0  0  0  0999 V2000
   32.4670  -30.7266  -20.4623 C   0  0  0  0  0  0  0  0  0  0  0  0
   33.3025  -29.4320  -20.5186 C   0  0  2  0  0  0  0  0  0  0  0  0
   34.6842  -29.8926  -21.0126 C   0  0  0  0  0  0  0  0  0  0  0  0
   33.4068  -28.9014  -19.1249 C   0  0  2  0  0  0  0  0  0  0  0  0
   34.3632  -29.8288  -18.4361 N   0  0  0  0  0  0  0  0  0  0  0  0
   32.2081  -28.8885  -18.3082 C   0  0  0  0  0  0  0  0  0  0  0  0
   32.0184  -29.8803  -17.4974 O   0  0  0  0  0  0  0  0  0  0  0  0
   31.2181  -27.8910  -18.3067 N   0  0  0  0  0  0  0  0  0  0  0  0
   30.0193  -28.0339  -17.4497 C   0  0  1  0  0  0  0  0  0  0  0  0
   29.4991  -26.6643  -17.1458 C   0  0  0  0  0  0  0  0  0  0  0  0
   28.3390  -26.6104  -16.2155 C   0  0  0  0  0  0  0  0  0  0  0  0
   27.1919  -25.8323  -16.7292 C   0  0  0  0  0  0  0  0  0  0  0  0
   27.3533  -24.8336  -17.4332 O   0  0  0  0  0  0  0  0  0  0  0  0
   29.0632  -28.9123  -18.1300 C   0  0  0  0  0  0  0  0  0  0  0  0
   29.0573  -28.8818  -19.4189 O   0  0  0  0  0  0  0  0  0  0  0  0
   25.8764  -26.2348  -16.4109 O   0  0  0  0  0  0  0  0  0  0  0  0
   25.3731  -33.7455  -15.0865 C   0  0  0  0  0  0  0  0  0  0  0  0
   25.4908  -34.1270  -16.8281 S   0  0  0  0  0  0  0  0  0  0  0  0
   25.9578  -32.7805  -17.9009 C   0  0  0  0  0  0  0  0  0  0  0  0
   26.8225  -31.7597  -17.2747 C   0  0  0  0  0  0  0  0  0  0  0  0
   27.3171  -30.6483  -18.1488 C   0  0  2  0  0  0  0  0  0  0  0  0
   28.1933  -29.7491  -17.4241 N   0  0  0  0  0  0  0  0  0  0  0  0
   26.1788  -29.7746  -18.6058 C   0  0  0  0  0  0  0  0  0  0  0  0
   25.5111  -29.9582  -19.6319 O   0  0  0  0  0  0  0  0  0  0  0  0
   25.8007  -28.6436  -17.8432 O   0  0  0  0  0  0  0  0  0  0  0  0
  2  1  1  1
  2  3  1  0
  4  2  1  0
  4  5  1  1
  6  7  2  0
  6  4  1  0
  8  6  1  0
  9  8  1  0
  9 10  1  6
 11 10  1  0
 12 11  1  0
 13 12  2  0
 14 15  2  0
 14  9  1  0
 16 12  1  0
 18 17  1  0
 19 18  1  0
 19 20  1  0
 21 20  1  1
 21 22  1  0
 21 23  1  0
 22 14  1  0
 23 25  1  0
 24 23  2  0
M  END
$$$$
