VEM.pdb
     RDKit          3D

 25 24  0  0  1  0  0  0  0  0999 V2000
   19.2422  -12.1865  -15.1170 C   0  0  0  0  0  0  0  0  0  0  0  0
   17.7888  -12.2586  -15.6264 C   0  0  2  0  0  0  0  0  0  0  0  0
   17.5600  -13.7524  -15.9123 C   0  0  0  0  0  0  0  0  0  0  0  0
   17.7171  -11.4762  -16.8983 C   0  0  2  0  0  0  0  0  0  0  0  0
   18.5069  -12.2831  -17.8855 N   0  0  0  0  0  0  0  0  0  0  0  0
   18.2985  -10.1475  -16.9156 C   0  0  0  0  0  0  0  0  0  0  0  0
   19.4828  -10.0124  -17.4217 O   0  0  0  0  0  0  0  0  0  0  0  0
   17.6951   -8.9734  -16.4331 N   0  0  0  0  0  0  0  0  0  0  0  0
   18.4034   -7.6773  -16.5340 C   0  0  1  0  0  0  0  0  0  0  0  0
   17.3826   -6.5844  -16.4839 C   0  0  0  0  0  0  0  0  0  0  0  0
   17.9256   -5.1990  -16.4804 C   0  0  0  0  0  0  0  0  0  0  0  0
   16.8921   -4.1484  -16.3644 C   0  0  0  0  0  0  0  0  0  0  0  0
   15.7887   -4.3812  -15.8672 O   0  0  0  0  0  0  0  0  0  0  0  0
   19.4147   -7.6162  -15.4747 C   0  0  0  0  0  0  0  0  0  0  0  0
   19.2725   -8.4291  -14.4841 O   0  0  0  0  0  0  0  0  0  0  0  0
   17.1663   -2.8445  -16.8317 O   0  0  0  0  0  0  0  0  0  0  0  0
   26.3188   -9.9243  -14.2621 C   0  0  0  0  0  0  0  0  0  0  0  0
   24.8129   -9.5514  -15.1484 S   0  0  0  0  0  0  0  0  0  0  0  0
   23.8045   -8.2430  -14.4752 C   0  0  0  0  0  0  0  0  0  0  0  0
   22.5570   -7.9756  -15.2197 C   0  0  0  0  0  0  0  0  0  0  0  0
   21.6372   -6.9307  -14.6664 C   0  0  2  0  0  0  0  0  0  0  0  0
   20.4885   -6.7220  -15.5256 N   0  0  0  0  0  0  0  0  0  0  0  0
   22.3160   -5.5874  -14.6156 C   0  0  0  0  0  0  0  0  0  0  0  0
   22.3547   -4.7762  -15.5499 O   0  0  0  0  0  0  0  0  0  0  0  0
   22.9760   -5.1689  -13.4354 O   0  0  0  0  0  0  0  0  0  0  0  0
  2  1  1  6
  2  3  1  0
  4  2  1  0
  4  5  1  6
  6  7  2  0
  6  4  1  0
  8  6  1  0
  9  8  1  0
  9 10  1  1
 11 10  1  0
 12 11  1  0
 13 12  2  0
 14 15  2  0
 14  9  1  0
 16 12  1  0
 18 17  1  0
 19 18  1  0
 19 20  1  0
 21 20  1  6
 21 22  1  0
 21 23  1  0
 22 14  1  0
 23 25  1  0
 24 23  2  0
M  END
$$$$
