VEM.pdb
     RDKit          3D

 25 24  0  0  1  0  0  0  0  0999 V2000
   37.7504  -10.5329  -13.9368 C   0  0  0  0  0  0  0  0  0  0  0  0
   37.0406   -9.4978  -14.8323 C   0  0  2  0  0  0  0  0  0  0  0  0
   36.2707   -8.6052  -13.8445 C   0  0  0  0  0  0  0  0  0  0  0  0
   36.0820  -10.2400  -15.7071 C   0  0  2  0  0  0  0  0  0  0  0  0
   36.9486  -10.9429  -16.7093 N   0  0  0  0  0  0  0  0  0  0  0  0
   35.1263   -9.4693  -16.4796 C   0  0  0  0  0  0  0  0  0  0  0  0
   35.5765   -8.7638  -17.4678 O   0  0  0  0  0  0  0  0  0  0  0  0
   33.7390   -9.4126  -16.2613 N   0  0  0  0  0  0  0  0  0  0  0  0
   32.9142   -8.4105  -16.9734 C   0  0  1  0  0  0  0  0  0  0  0  0
   31.5823   -9.0269  -17.2647 C   0  0  0  0  0  0  0  0  0  0  0  0
   30.5873   -8.1289  -17.9112 C   0  0  0  0  0  0  0  0  0  0  0  0
   29.2738   -8.7623  -18.1535 C   0  0  0  0  0  0  0  0  0  0  0  0
   28.2285   -8.1098  -18.1280 O   0  0  0  0  0  0  0  0  0  0  0  0
   32.8576   -7.1921  -16.1604 C   0  0  0  0  0  0  0  0  0  0  0  0
   32.8081   -7.3456  -14.8813 O   0  0  0  0  0  0  0  0  0  0  0  0
   29.2050  -10.1470  -18.4211 O   0  0  0  0  0  0  0  0  0  0  0  0
   36.3075   -0.6251  -14.3023 C   0  0  0  0  0  0  0  0  0  0  0  0
   36.0457   -2.1131  -15.2562 S   0  0  0  0  0  0  0  0  0  0  0  0
   34.4284   -2.8554  -15.1324 C   0  0  0  0  0  0  0  0  0  0  0  0
   34.2605   -4.1078  -15.8974 C   0  0  0  0  0  0  0  0  0  0  0  0
   32.9055   -4.7462  -15.8815 C   0  0  2  0  0  0  0  0  0  0  0  0
   32.8572   -5.9171  -16.7346 N   0  0  0  0  0  0  0  0  0  0  0  0
   31.8666   -3.8203  -16.4572 C   0  0  0  0  0  0  0  0  0  0  0  0
   31.6468   -3.6642  -17.6654 O   0  0  0  0  0  0  0  0  0  0  0  0
   31.0515   -3.0448  -15.5982 O   0  0  0  0  0  0  0  0  0  0  0  0
  2  1  1  1
  2  3  1  0
  4  2  1  0
  4  5  1  6
  6  7  2  0
  6  4  1  0
  8  6  1  0
  9  8  1  0
  9 10  1  1
 11 10  1  0
 12 11  1  0
 13 12  2  0
 14 15  2  0
 14  9  1  0
 16 12  1  0
 18 17  1  0
 19 18  1  0
 19 20  1  0
 21 20  1  6
 21 22  1  0
 21 23  1  0
 22 14  1  0
 23 25  1  0
 24 23  2  0
M  END
$$$$
