VEM.pdb
     RDKit          3D

 25 24  0  0  1  0  0  0  0  0999 V2000
   13.0580  -13.7163  -12.1669 C   0  0  0  0  0  0  0  0  0  0  0  0
   13.8712  -12.8330  -11.1997 C   0  0  2  0  0  0  0  0  0  0  0  0
   12.9760  -12.7081   -9.9553 C   0  0  0  0  0  0  0  0  0  0  0  0
   14.0416  -11.4954  -11.8452 C   0  0  2  0  0  0  0  0  0  0  0  0
   14.5103  -11.8021  -13.2365 N   0  0  0  0  0  0  0  0  0  0  0  0
   15.0252  -10.5881  -11.2856 C   0  0  0  0  0  0  0  0  0  0  0  0
   14.8695  -10.2110  -10.0565 O   0  0  0  0  0  0  0  0  0  0  0  0
   16.1490  -10.0713  -11.9529 N   0  0  0  0  0  0  0  0  0  0  0  0
   16.9767   -9.0231  -11.3140 C   0  0  1  0  0  0  0  0  0  0  0  0
   18.1594   -8.7644  -12.1933 C   0  0  0  0  0  0  0  0  0  0  0  0
   19.0254   -7.6253  -11.7851 C   0  0  0  0  0  0  0  0  0  0  0  0
   20.2803   -7.5165  -12.5589 C   0  0  0  0  0  0  0  0  0  0  0  0
   20.5789   -8.3429  -13.4231 O   0  0  0  0  0  0  0  0  0  0  0  0
   16.1327   -7.8505  -11.0665 C   0  0  0  0  0  0  0  0  0  0  0  0
   15.2941   -7.5291  -11.9914 O   0  0  0  0  0  0  0  0  0  0  0  0
   21.1642   -6.4441  -12.3088 O   0  0  0  0  0  0  0  0  0  0  0  0
   12.6380   -3.0795   -5.7989 C   0  0  0  0  0  0  0  0  0  0  0  0
   13.4937   -4.5694   -6.2895 S   0  0  0  0  0  0  0  0  0  0  0  0
   14.1266   -4.6031   -7.9569 C   0  0  0  0  0  0  0  0  0  0  0  0
   14.8556   -5.8358   -8.3188 C   0  0  0  0  0  0  0  0  0  0  0  0
   15.3960   -5.9302   -9.7127 C   0  0  2  0  0  0  0  0  0  0  0  0
   16.2240   -7.1075   -9.8854 N   0  0  0  0  0  0  0  0  0  0  0  0
   16.3171   -4.7773  -10.0130 C   0  0  0  0  0  0  0  0  0  0  0  0
   17.5503   -4.8553  -10.0882 O   0  0  0  0  0  0  0  0  0  0  0  0
   15.7874   -3.4833  -10.2337 O   0  0  0  0  0  0  0  0  0  0  0  0
  2  1  1  6
  2  3  1  0
  4  2  1  0
  4  5  1  6
  6  7  2  0
  6  4  1  0
  8  6  1  0
  9  8  1  0
  9 10  1  6
 11 10  1  0
 12 11  1  0
 13 12  2  0
 14 15  2  0
 14  9  1  0
 16 12  1  0
 18 17  1  0
 19 18  1  0
 19 20  1  0
 21 20  1  1
 21 22  1  0
 21 23  1  0
 22 14  1  0
 23 25  1  0
 24 23  2  0
M  END
$$$$
