VEM.pdb
     RDKit          3D

 25 24  0  0  1  0  0  0  0  0999 V2000
   26.7852  -16.5636  -17.2759 C   0  0  0  0  0  0  0  0  0  0  0  0
   25.2838  -16.3959  -16.9682 C   0  0  2  0  0  0  0  0  0  0  0  0
   25.1378  -14.9140  -16.5836 C   0  0  0  0  0  0  0  0  0  0  0  0
   24.9641  -17.2643  -15.7940 C   0  0  2  0  0  0  0  0  0  0  0  0
   25.8130  -16.7257  -14.6811 N   0  0  0  0  0  0  0  0  0  0  0  0
   25.2782  -18.6775  -15.8850 C   0  0  0  0  0  0  0  0  0  0  0  0
   24.5276  -19.4162  -16.6387 O   0  0  0  0  0  0  0  0  0  0  0  0
   26.3331  -19.3350  -15.2293 N   0  0  0  0  0  0  0  0  0  0  0  0
   26.4493  -20.8093  -15.3000 C   0  0  1  0  0  0  0  0  0  0  0  0
   27.8171  -21.1442  -15.8056 C   0  0  0  0  0  0  0  0  0  0  0  0
   27.9520  -21.2259  -17.2853 C   0  0  0  0  0  0  0  0  0  0  0  0
   28.8891  -20.2371  -17.8592 C   0  0  0  0  0  0  0  0  0  0  0  0
   30.0695  -20.1877  -17.5082 O   0  0  0  0  0  0  0  0  0  0  0  0
   26.1340  -21.3645  -13.9805 C   0  0  0  0  0  0  0  0  0  0  0  0
   26.2240  -22.6438  -13.8487 O   0  0  0  0  0  0  0  0  0  0  0  0
   28.4302  -19.3233  -18.8329 O   0  0  0  0  0  0  0  0  0  0  0  0
   28.7973  -20.5068   -8.1997 C   0  0  0  0  0  0  0  0  0  0  0  0
   27.0410  -20.3798   -7.8964 S   0  0  0  0  0  0  0  0  0  0  0  0
   25.9721  -21.0563   -9.1540 C   0  0  0  0  0  0  0  0  0  0  0  0
   26.3084  -20.6553  -10.5354 C   0  0  0  0  0  0  0  0  0  0  0  0
   25.4218  -21.1598  -11.6324 C   0  0  2  0  0  0  0  0  0  0  0  0
   25.7525  -20.5537  -12.9070 N   0  0  0  0  0  0  0  0  0  0  0  0
   23.9884  -20.7661  -11.3911 C   0  0  0  0  0  0  0  0  0  0  0  0
   23.3621  -19.9275  -12.0521 O   0  0  0  0  0  0  0  0  0  0  0  0
   23.2532  -21.3678  -10.3418 O   0  0  0  0  0  0  0  0  0  0  0  0
  2  1  1  1
  2  3  1  0
  4  2  1  0
  4  5  1  1
  6  7  2  0
  6  4  1  0
  8  6  1  0
  9  8  1  0
  9 10  1  1
 11 10  1  0
 12 11  1  0
 13 12  2  0
 14 15  2  0
 14  9  1  0
 16 12  1  0
 18 17  1  0
 19 18  1  0
 19 20  1  0
 21 20  1  1
 21 22  1  0
 21 23  1  0
 22 14  1  0
 23 25  1  0
 24 23  2  0
M  END
$$$$
