VEM.pdb
     RDKit          3D

 25 24  0  0  1  0  0  0  0  0999 V2000
   16.9793  -13.7005  -18.8173 C   0  0  0  0  0  0  0  0  0  0  0  0
   18.3291  -14.4139  -18.6021 C   0  0  2  0  0  0  0  0  0  0  0  0
   17.9415  -15.8426  -18.1848 C   0  0  0  0  0  0  0  0  0  0  0  0
   19.0301  -13.7233  -17.4767 C   0  0  2  0  0  0  0  0  0  0  0  0
   18.1924  -14.0198  -16.2685 N   0  0  0  0  0  0  0  0  0  0  0  0
   19.1505  -12.2788  -17.5318 C   0  0  0  0  0  0  0  0  0  0  0  0
   19.9339  -11.7714  -18.4295 O   0  0  0  0  0  0  0  0  0  0  0  0
   18.4902  -11.3605  -16.6976 N   0  0  0  0  0  0  0  0  0  0  0  0
   18.7953   -9.9150  -16.7939 C   0  0  1  0  0  0  0  0  0  0  0  0
   17.5604   -9.1538  -16.4276 C   0  0  0  0  0  0  0  0  0  0  0  0
   16.5659   -8.9799  -17.5208 C   0  0  0  0  0  0  0  0  0  0  0  0
   15.3988   -8.1535  -17.1461 C   0  0  0  0  0  0  0  0  0  0  0  0
   14.2458   -8.5683  -17.2777 O   0  0  0  0  0  0  0  0  0  0  0  0
   19.9605   -9.6285  -15.9520 C   0  0  0  0  0  0  0  0  0  0  0  0
   20.0548  -10.2808  -14.8440 O   0  0  0  0  0  0  0  0  0  0  0  0
   15.5999   -6.8567  -16.6247 O   0  0  0  0  0  0  0  0  0  0  0  0
   27.0971  -10.9102  -14.6264 C   0  0  0  0  0  0  0  0  0  0  0  0
   25.5430  -10.9113  -15.5082 S   0  0  0  0  0  0  0  0  0  0  0  0
   24.4526   -9.5366  -15.1868 C   0  0  0  0  0  0  0  0  0  0  0  0
   23.1308   -9.6275  -15.8399 C   0  0  0  0  0  0  0  0  0  0  0  0
   22.1346   -8.5534  -15.5271 C   0  0  2  0  0  0  0  0  0  0  0  0
   20.9314   -8.6933  -16.3235 N   0  0  0  0  0  0  0  0  0  0  0  0
   22.6720   -7.1958  -15.8958 C   0  0  0  0  0  0  0  0  0  0  0  0
   23.5655   -6.5963  -15.2836 O   0  0  0  0  0  0  0  0  0  0  0  0
   22.1525   -6.5065  -17.0176 O   0  0  0  0  0  0  0  0  0  0  0  0
  2  1  1  1
  2  3  1  0
  4  2  1  0
  4  5  1  1
  6  7  2  0
  6  4  1  0
  8  6  1  0
  9  8  1  0
  9 10  1  1
 11 10  1  0
 12 11  1  0
 13 12  2  0
 14 15  2  0
 14  9  1  0
 16 12  1  0
 18 17  1  0
 19 18  1  0
 19 20  1  0
 21 20  1  6
 21 22  1  0
 21 23  1  0
 22 14  1  0
 23 25  1  0
 24 23  2  0
M  END
$$$$
