VEM.pdb
     RDKit          3D

 25 24  0  0  1  0  0  0  0  0999 V2000
   26.7105  -18.5234  -16.0869 C   0  0  0  0  0  0  0  0  0  0  0  0
   28.1229  -18.6944  -15.4928 C   0  0  2  0  0  0  0  0  0  0  0  0
   28.9762  -19.1823  -16.6757 C   0  0  0  0  0  0  0  0  0  0  0  0
   28.0455  -19.7566  -14.4438 C   0  0  2  0  0  0  0  0  0  0  0  0
   27.5979  -20.9847  -15.1791 N   0  0  0  0  0  0  0  0  0  0  0  0
   27.0998  -19.5764  -13.3588 C   0  0  0  0  0  0  0  0  0  0  0  0
   27.3077  -18.6021  -12.5313 O   0  0  0  0  0  0  0  0  0  0  0  0
   25.9617  -20.3635  -13.1132 N   0  0  0  0  0  0  0  0  0  0  0  0
   25.0438  -20.0187  -12.0040 C   0  0  1  0  0  0  0  0  0  0  0  0
   23.6568  -20.4048  -12.4111 C   0  0  0  0  0  0  0  0  0  0  0  0
   22.5961  -20.1472  -11.3998 C   0  0  0  0  0  0  0  0  0  0  0  0
   21.2529  -20.6131  -11.8051 C   0  0  0  0  0  0  0  0  0  0  0  0
   20.5551  -21.2996  -11.0562 O   0  0  0  0  0  0  0  0  0  0  0  0
   25.5247  -20.6708  -10.7825 C   0  0  0  0  0  0  0  0  0  0  0  0
   25.9304  -21.8896  -10.8923 O   0  0  0  0  0  0  0  0  0  0  0  0
   20.7491  -20.2689  -13.0784 O   0  0  0  0  0  0  0  0  0  0  0  0
   29.8123  -18.5198   -6.3341 C   0  0  0  0  0  0  0  0  0  0  0  0
   28.5350  -19.3202   -5.3747 S   0  0  0  0  0  0  0  0  0  0  0  0
   27.4255  -20.3891   -6.2739 C   0  0  0  0  0  0  0  0  0  0  0  0
   26.9548  -19.8490   -7.5657 C   0  0  0  0  0  0  0  0  0  0  0  0
   26.0292  -20.7068   -8.3727 C   0  0  2  0  0  0  0  0  0  0  0  0
   25.5472  -20.0112   -9.5497 N   0  0  0  0  0  0  0  0  0  0  0  0
   24.7822  -21.0346   -7.5946 C   0  0  0  0  0  0  0  0  0  0  0  0
   24.7589  -21.6306   -6.5098 O   0  0  0  0  0  0  0  0  0  0  0  0
   23.5129  -20.6570   -8.0944 O   0  0  0  0  0  0  0  0  0  0  0  0
  2  1  1  6
  2  3  1  0
  4  2  1  0
  4  5  1  6
  6  7  2  0
  6  4  1  0
  8  6  1  0
  9  8  1  0
  9 10  1  6
 11 10  1  0
 12 11  1  0
 13 12  2  0
 14 15  2  0
 14  9  1  0
 16 12  1  0
 18 17  1  0
 19 18  1  0
 19 20  1  0
 21 20  1  1
 21 22  1  0
 21 23  1  0
 22 14  1  0
 23 25  1  0
 24 23  2  0
M  END
$$$$
