VEM.pdb
     RDKit          3D

 25 24  0  0  1  0  0  0  0  0999 V2000
   19.3530  -11.4359    5.0909 C   0  0  0  0  0  0  0  0  0  0  0  0
   18.9555  -12.6095    6.0084 C   0  0  2  0  0  0  0  0  0  0  0  0
   20.2681  -13.3797    6.2305 C   0  0  0  0  0  0  0  0  0  0  0  0
   17.9826  -13.4602    5.2569 C   0  0  2  0  0  0  0  0  0  0  0  0
   16.6835  -12.7154    5.3401 N   0  0  0  0  0  0  0  0  0  0  0  0
   17.7098  -14.7926    5.7611 C   0  0  0  0  0  0  0  0  0  0  0  0
   17.1362  -14.8956    6.9176 O   0  0  0  0  0  0  0  0  0  0  0  0
   18.0076  -16.0016    5.1092 N   0  0  0  0  0  0  0  0  0  0  0  0
   17.7917  -17.2926    5.8009 C   0  0  1  0  0  0  0  0  0  0  0  0
   17.2524  -18.2696    4.8042 C   0  0  0  0  0  0  0  0  0  0  0  0
   15.7994  -18.1473    4.5073 C   0  0  0  0  0  0  0  0  0  0  0  0
   15.3150  -19.0891    3.4759 C   0  0  0  0  0  0  0  0  0  0  0  0
   16.0566  -19.9389    2.9791 O   0  0  0  0  0  0  0  0  0  0  0  0
   19.0506  -17.6981    6.4326 C   0  0  0  0  0  0  0  0  0  0  0  0
   20.1408  -17.3305    5.8508 O   0  0  0  0  0  0  0  0  0  0  0  0
   13.9727  -19.0209    3.0431 O   0  0  0  0  0  0  0  0  0  0  0  0
   24.7419  -16.3396   10.6477 C   0  0  0  0  0  0  0  0  0  0  0  0
   23.2127  -16.1720    9.7387 S   0  0  0  0  0  0  0  0  0  0  0  0
   22.3053  -17.6778    9.4367 C   0  0  0  0  0  0  0  0  0  0  0  0
   21.1351  -17.5292    8.5475 C   0  0  0  0  0  0  0  0  0  0  0  0
   20.3530  -18.7663    8.2286 C   0  0  2  0  0  0  0  0  0  0  0  0
   19.0801  -18.4487    7.6121 N   0  0  0  0  0  0  0  0  0  0  0  0
   19.9853  -19.5104    9.4852 C   0  0  0  0  0  0  0  0  0  0  0  0
   19.0335  -19.2275   10.2245 O   0  0  0  0  0  0  0  0  0  0  0  0
   20.7516  -20.6256    9.9008 O   0  0  0  0  0  0  0  0  0  0  0  0
  2  1  1  6
  2  3  1  0
  4  2  1  0
  4  5  1  1
  6  7  2  0
  6  4  1  0
  8  6  1  0
  9  8  1  0
  9 10  1  6
 11 10  1  0
 12 11  1  0
 13 12  2  0
 14 15  2  0
 14  9  1  0
 16 12  1  0
 18 17  1  0
 19 18  1  0
 19 20  1  0
 21 20  1  1
 21 22  1  0
 21 23  1  0
 22 14  1  0
 23 25  1  0
 24 23  2  0
M  END
$$$$
