VEM.pdb
     RDKit          3D

 25 24  0  0  1  0  0  0  0  0999 V2000
   29.4385  -22.9235  -18.0762 C   0  0  0  0  0  0  0  0  0  0  0  0
   29.0123  -23.1923  -16.6190 C   0  0  2  0  0  0  0  0  0  0  0  0
   29.1381  -24.7170  -16.4614 C   0  0  0  0  0  0  0  0  0  0  0  0
   27.5820  -22.7789  -16.4838 C   0  0  2  0  0  0  0  0  0  0  0  0
   26.8357  -23.6815  -17.4206 N   0  0  0  0  0  0  0  0  0  0  0  0
   27.2237  -21.4262  -16.8655 C   0  0  0  0  0  0  0  0  0  0  0  0
   27.4784  -20.4736  -16.0260 O   0  0  0  0  0  0  0  0  0  0  0  0
   26.6210  -21.0394  -18.0748 N   0  0  0  0  0  0  0  0  0  0  0  0
   26.2274  -19.6288  -18.2921 C   0  0  1  0  0  0  0  0  0  0  0  0
   27.1701  -19.0313  -19.2885 C   0  0  0  0  0  0  0  0  0  0  0  0
   28.5103  -18.6582  -18.7604 C   0  0  0  0  0  0  0  0  0  0  0  0
   29.3717  -17.9649  -19.7415 C   0  0  0  0  0  0  0  0  0  0  0  0
   30.4180  -18.4706  -20.1521 O   0  0  0  0  0  0  0  0  0  0  0  0
   24.8172  -19.5955  -18.6906 C   0  0  0  0  0  0  0  0  0  0  0  0
   24.3185  -20.6858  -19.1645 O   0  0  0  0  0  0  0  0  0  0  0  0
   28.9953  -16.6929  -20.2252 O   0  0  0  0  0  0  0  0  0  0  0  0
   20.6287  -22.1556  -16.8529 C   0  0  0  0  0  0  0  0  0  0  0  0
   19.5871  -20.8991  -17.5802 S   0  0  0  0  0  0  0  0  0  0  0  0
   20.4243  -19.5907  -18.4571 C   0  0  0  0  0  0  0  0  0  0  0  0
   21.8838  -19.5314  -18.2372 C   0  0  0  0  0  0  0  0  0  0  0  0
   22.6458  -18.4677  -18.9664 C   0  0  2  0  0  0  0  0  0  0  0  0
   24.0390  -18.4403  -18.5667 N   0  0  0  0  0  0  0  0  0  0  0  0
   22.1285  -17.0976  -18.6156 C   0  0  0  0  0  0  0  0  0  0  0  0
   20.9878  -16.6851  -18.8625 O   0  0  0  0  0  0  0  0  0  0  0  0
   22.9673  -16.1695  -17.9531 O   0  0  0  0  0  0  0  0  0  0  0  0
  2  1  1  6
  2  3  1  0
  4  2  1  0
  4  5  1  6
  6  7  2  0
  6  4  1  0
  8  6  1  0
  9  8  1  0
  9 10  1  6
 11 10  1  0
 12 11  1  0
 13 12  2  0
 14 15  2  0
 14  9  1  0
 16 12  1  0
 18 17  1  0
 19 18  1  0
 19 20  1  0
 21 20  1  1
 21 22  1  0
 21 23  1  0
 22 14  1  0
 23 25  1  0
 24 23  2  0
M  END
$$$$
