VEM.pdb
     RDKit          3D

 25 24  0  0  1  0  0  0  0  0999 V2000
   22.7775  -12.9846  -15.9095 C   0  0  0  0  0  0  0  0  0  0  0  0
   23.9004  -12.7708  -16.9442 C   0  0  2  0  0  0  0  0  0  0  0  0
   25.1284  -13.4538  -16.3189 C   0  0  0  0  0  0  0  0  0  0  0  0
   24.1348  -11.2987  -17.0578 C   0  0  2  0  0  0  0  0  0  0  0  0
   24.6655  -10.8938  -15.7148 N   0  0  0  0  0  0  0  0  0  0  0  0
   22.9905  -10.4429  -17.3073 C   0  0  0  0  0  0  0  0  0  0  0  0
   22.5917  -10.3085  -18.5320 O   0  0  0  0  0  0  0  0  0  0  0  0
   22.2584   -9.7360  -16.3379 N   0  0  0  0  0  0  0  0  0  0  0  0
   21.0871   -8.9231  -16.7367 C   0  0  1  0  0  0  0  0  0  0  0  0
   19.9492   -9.2709  -15.8295 C   0  0  0  0  0  0  0  0  0  0  0  0
   18.6733   -8.5532  -16.0966 C   0  0  0  0  0  0  0  0  0  0  0  0
   17.5587   -8.9597  -15.2146 C   0  0  0  0  0  0  0  0  0  0  0  0
   16.5462   -9.5010  -15.6625 O   0  0  0  0  0  0  0  0  0  0  0  0
   21.4734   -7.5093  -16.7160 C   0  0  0  0  0  0  0  0  0  0  0  0
   22.1570   -7.1056  -15.7001 O   0  0  0  0  0  0  0  0  0  0  0  0
   17.6470   -8.7261  -13.8248 O   0  0  0  0  0  0  0  0  0  0  0  0
   24.4720   -3.0188  -21.1104 C   0  0  0  0  0  0  0  0  0  0  0  0
   22.7631   -2.7001  -20.6974 S   0  0  0  0  0  0  0  0  0  0  0  0
   22.2229   -3.2554  -19.0905 C   0  0  0  0  0  0  0  0  0  0  0  0
   21.8867   -4.6916  -19.0111 C   0  0  0  0  0  0  0  0  0  0  0  0
   21.5197   -5.2379  -17.6655 C   0  0  2  0  0  0  0  0  0  0  0  0
   21.1227   -6.6298  -17.7450 N   0  0  0  0  0  0  0  0  0  0  0  0
   20.3096   -4.5344  -17.1099 C   0  0  0  0  0  0  0  0  0  0  0  0
   19.1769   -5.0274  -17.0294 O   0  0  0  0  0  0  0  0  0  0  0  0
   20.4173   -3.2072  -16.6297 O   0  0  0  0  0  0  0  0  0  0  0  0
  2  1  1  1
  2  3  1  0
  4  2  1  0
  4  5  1  1
  6  7  2  0
  6  4  1  0
  8  6  1  0
  9  8  1  0
  9 10  1  1
 11 10  1  0
 12 11  1  0
 13 12  2  0
 14 15  2  0
 14  9  1  0
 16 12  1  0
 18 17  1  0
 19 18  1  0
 19 20  1  0
 21 20  1  6
 21 22  1  0
 21 23  1  0
 22 14  1  0
 23 25  1  0
 24 23  2  0
M  END
$$$$
