VEM.pdb
     RDKit          3D

 25 24  0  0  1  0  0  0  0  0999 V2000
   22.5144  -13.6433  -17.2361 C   0  0  0  0  0  0  0  0  0  0  0  0
   23.8006  -13.0849  -17.8773 C   0  0  2  0  0  0  0  0  0  0  0  0
   24.8788  -14.1273  -17.5361 C   0  0  0  0  0  0  0  0  0  0  0  0
   24.1123  -11.7861  -17.2058 C   0  0  2  0  0  0  0  0  0  0  0  0
   24.3695  -12.1509  -15.7740 N   0  0  0  0  0  0  0  0  0  0  0  0
   23.0796  -10.7679  -17.1771 C   0  0  0  0  0  0  0  0  0  0  0  0
   22.8272  -10.1316  -18.2764 O   0  0  0  0  0  0  0  0  0  0  0  0
   22.3118  -10.3988  -16.0592 N   0  0  0  0  0  0  0  0  0  0  0  0
   21.3076   -9.3167  -16.1708 C   0  0  1  0  0  0  0  0  0  0  0  0
   20.0569   -9.7707  -15.4865 C   0  0  0  0  0  0  0  0  0  0  0  0
   18.9270   -8.8026  -15.5065 C   0  0  0  0  0  0  0  0  0  0  0  0
   17.6919   -9.3066  -14.8694 C   0  0  0  0  0  0  0  0  0  0  0  0
   17.3477   -8.9348  -13.7459 O   0  0  0  0  0  0  0  0  0  0  0  0
   21.8880   -8.0856  -15.6268 C   0  0  0  0  0  0  0  0  0  0  0  0
   22.7650   -8.2174  -14.6911 O   0  0  0  0  0  0  0  0  0  0  0  0
   16.8812  -10.2365  -15.5563 O   0  0  0  0  0  0  0  0  0  0  0  0
   23.2562   -0.3528  -17.0717 C   0  0  0  0  0  0  0  0  0  0  0  0
   22.5396   -1.9366  -17.4846 S   0  0  0  0  0  0  0  0  0  0  0  0
   22.7242   -3.2276  -16.2675 C   0  0  0  0  0  0  0  0  0  0  0  0
   22.1087   -4.5192  -16.6349 C   0  0  0  0  0  0  0  0  0  0  0  0
   22.2569   -5.6513  -15.6653 C   0  0  2  0  0  0  0  0  0  0  0  0
   21.5156   -6.8211  -16.0936 N   0  0  0  0  0  0  0  0  0  0  0  0
   21.6596   -5.2981  -14.3288 C   0  0  0  0  0  0  0  0  0  0  0  0
   22.2757   -4.7712  -13.3932 O   0  0  0  0  0  0  0  0  0  0  0  0
   20.2948   -5.5672  -14.0669 O   0  0  0  0  0  0  0  0  0  0  0  0
  2  1  1  1
  2  3  1  0
  4  2  1  0
  4  5  1  1
  6  7  2  0
  6  4  1  0
  8  6  1  0
  9  8  1  0
  9 10  1  1
 11 10  1  0
 12 11  1  0
 13 12  2  0
 14 15  2  0
 14  9  1  0
 16 12  1  0
 18 17  1  0
 19 18  1  0
 19 20  1  0
 21 20  1  6
 21 22  1  0
 21 23  1  0
 22 14  1  0
 23 25  1  0
 24 23  2  0
M  END
$$$$
