MSS.pdb
     RDKit          3D

 21 20  0  0  1  0  0  0  0  0999 V2000
   15.8729   -1.3820   -6.5033 C   0  0  0  0  0  0  0  0  0  0  0  0
   17.1575   -0.3650   -7.2227 S   0  0  0  0  0  0  0  0  0  0  0  0
   17.9104    0.7733   -6.0765 C   0  0  0  0  0  0  0  0  0  0  0  0
   19.0635    1.5699   -6.5810 C   0  0  0  0  0  0  0  0  0  0  0  0
   19.6180    2.4924   -5.5673 C   0  0  2  0  0  0  0  0  0  0  0  0
   18.6117    3.5060   -5.2890 N   0  0  0  0  0  0  0  0  0  0  0  0
   20.8937    3.1349   -6.0135 C   0  0  0  0  0  0  0  0  0  0  0  0
   20.8306    4.2870   -6.4665 O   0  0  0  0  0  0  0  0  0  0  0  0
   24.7430    2.1487   -4.5624 O   0  0  0  0  0  0  0  0  0  0  0  0
   24.6056    2.2579   -5.9312 C   0  0  0  0  0  0  0  0  0  0  0  0
   23.4003    3.0679   -6.3327 C   0  0  2  0  0  0  0  0  0  0  0  0
   22.1525    2.4798   -5.9363 N   0  0  0  0  0  0  0  0  0  0  0  0
   23.4517    3.3423   -7.7971 C   0  0  0  0  0  0  0  0  0  0  0  0
   22.5514    2.9207   -8.5641 O   0  0  0  0  0  0  0  0  0  0  0  0
   23.2480    5.7573  -11.3433 O   0  0  0  0  0  0  0  0  0  0  0  0
   23.2904    5.3339  -10.0019 C   0  0  0  0  0  0  0  0  0  0  0  0
   24.5143    4.4582   -9.7882 C   0  0  2  0  0  0  0  0  0  0  0  0
   24.5135    4.0859   -8.3760 N   0  0  0  0  0  0  0  0  0  0  0  0
   25.7016    5.2526  -10.1486 C   0  0  0  0  0  0  0  0  0  0  0  0
   26.4839    5.6540   -9.2669 O   0  0  0  0  0  0  0  0  0  0  0  0
   25.9443    5.5508  -11.4686 O   0  0  0  0  0  0  0  0  0  0  0  0
  2  3  1  0
  2  1  1  0
  3  4  1  0
  4  5  1  0
  5  7  1  0
  5  6  1  6
  7  8  2  0
 10  9  1  0
 11 10  1  6
 12 11  1  0
 12  7  1  0
 13 14  2  0
 13 11  1  0
 16 15  1  0
 17 16  1  1
 17 18  1  0
 18 13  1  0
 19 17  1  0
 19 21  1  0
 20 19  2  0
M  END
$$$$
