MSS.pdb
     RDKit          3D

 21 20  0  0  1  0  0  0  0  0999 V2000
   10.6745  -13.7056   -9.4045 C   0  0  0  0  0  0  0  0  0  0  0  0
   11.9250  -12.4587   -9.6938 S   0  0  0  0  0  0  0  0  0  0  0  0
   11.2724  -10.8776  -10.1943 C   0  0  0  0  0  0  0  0  0  0  0  0
   12.2637   -9.8121  -10.5119 C   0  0  0  0  0  0  0  0  0  0  0  0
   13.1010   -9.4359   -9.3527 C   0  0  2  0  0  0  0  0  0  0  0  0
   12.2577   -8.7202   -8.4073 N   0  0  0  0  0  0  0  0  0  0  0  0
   14.2753   -8.5944   -9.7427 C   0  0  0  0  0  0  0  0  0  0  0  0
   14.1051   -7.3690   -9.8210 O   0  0  0  0  0  0  0  0  0  0  0  0
   17.7470  -10.3857  -11.4416 O   0  0  0  0  0  0  0  0  0  0  0  0
   17.9132   -9.2133  -10.7328 C   0  0  0  0  0  0  0  0  0  0  0  0
   16.6397   -8.4163  -10.6186 C   0  0  2  0  0  0  0  0  0  0  0  0
   15.5562   -9.1435  -10.0212 N   0  0  0  0  0  0  0  0  0  0  0  0
   16.2770   -7.8656  -11.9555 C   0  0  0  0  0  0  0  0  0  0  0  0
   15.4535   -8.4582  -12.6953 O   0  0  0  0  0  0  0  0  0  0  0  0
   15.3737   -4.4405  -14.9135 O   0  0  0  0  0  0  0  0  0  0  0  0
   15.6738   -4.9597  -13.6404 C   0  0  0  0  0  0  0  0  0  0  0  0
   16.5824   -6.1691  -13.7907 C   0  0  2  0  0  0  0  0  0  0  0  0
   16.8450   -6.6579  -12.4397 N   0  0  0  0  0  0  0  0  0  0  0  0
   17.8139   -5.7227  -14.4650 C   0  0  0  0  0  0  0  0  0  0  0  0
   18.7909   -5.3304  -13.8001 O   0  0  0  0  0  0  0  0  0  0  0  0
   17.8813   -5.7411  -15.8380 O   0  0  0  0  0  0  0  0  0  0  0  0
  2  3  1  0
  2  1  1  0
  3  4  1  0
  4  5  1  0
  5  7  1  0
  5  6  1  1
  7  8  2  0
 10  9  1  0
 11 10  1  6
 12 11  1  0
 12  7  1  0
 13 14  2  0
 13 11  1  0
 16 15  1  0
 17 16  1  1
 17 18  1  0
 18 13  1  0
 19 17  1  0
 19 21  1  0
 20 19  2  0
M  END
$$$$
