MSS.pdb
     RDKit          3D

 21 20  0  0  1  0  0  0  0  0999 V2000
   18.7855  -13.1354  -17.5203 C   0  0  0  0  0  0  0  0  0  0  0  0
   18.7634  -11.3467  -17.4719 S   0  0  0  0  0  0  0  0  0  0  0  0
   18.9433  -10.6618  -15.8364 C   0  0  0  0  0  0  0  0  0  0  0  0
   18.9826   -9.1765  -15.7311 C   0  0  0  0  0  0  0  0  0  0  0  0
   19.2304   -8.6999  -14.3536 C   0  0  2  0  0  0  0  0  0  0  0  0
   18.1036   -9.1115  -13.5300 N   0  0  0  0  0  0  0  0  0  0  0  0
   19.4106   -7.2159  -14.2841 C   0  0  0  0  0  0  0  0  0  0  0  0
   18.3921   -6.5100  -14.3136 O   0  0  0  0  0  0  0  0  0  0  0  0
   22.4703   -5.0536  -12.3337 O   0  0  0  0  0  0  0  0  0  0  0  0
   22.2797   -4.7917  -13.6752 C   0  0  0  0  0  0  0  0  0  0  0  0
   20.9059   -5.1821  -14.1554 C   0  0  2  0  0  0  0  0  0  0  0  0
   20.6878   -6.6002  -14.1869 N   0  0  0  0  0  0  0  0  0  0  0  0
   20.6415   -4.5436  -15.4762 C   0  0  0  0  0  0  0  0  0  0  0  0
   21.1375   -5.0127  -16.5301 O   0  0  0  0  0  0  0  0  0  0  0  0
   17.3669   -3.7969  -16.9557 O   0  0  0  0  0  0  0  0  0  0  0  0
   18.0250   -2.5535  -16.9198 C   0  0  0  0  0  0  0  0  0  0  0  0
   19.5278   -2.7796  -16.8859 C   0  0  2  0  0  0  0  0  0  0  0  0
   19.8242   -3.3886  -15.5920 N   0  0  0  0  0  0  0  0  0  0  0  0
   20.1814   -1.4684  -17.0413 C   0  0  0  0  0  0  0  0  0  0  0  0
   20.5905   -0.8450  -16.0440 O   0  0  0  0  0  0  0  0  0  0  0  0
   20.3392   -0.9326  -18.2975 O   0  0  0  0  0  0  0  0  0  0  0  0
  2  3  1  0
  2  1  1  0
  3  4  1  0
  4  5  1  0
  5  7  1  0
  5  6  1  1
  7  8  2  0
 10  9  1  0
 11 10  1  6
 12 11  1  0
 12  7  1  0
 13 14  2  0
 13 11  1  0
 16 15  1  0
 17 16  1  1
 17 18  1  0
 18 13  1  0
 19 17  1  0
 19 21  1  0
 20 19  2  0
M  END
$$$$
