MSS.pdb
     RDKit          3D

 21 20  0  0  1  0  0  0  0  0999 V2000
   27.5292  -19.3119   -5.6324 C   0  0  0  0  0  0  0  0  0  0  0  0
   27.0816  -19.5027   -7.3545 S   0  0  0  0  0  0  0  0  0  0  0  0
   26.4393  -21.1139   -7.7640 C   0  0  0  0  0  0  0  0  0  0  0  0
   26.0809  -21.3511   -9.1902 C   0  0  0  0  0  0  0  0  0  0  0  0
   25.4267  -20.1867   -9.8245 C   0  0  2  0  0  0  0  0  0  0  0  0
   24.0615  -20.1161   -9.3257 N   0  0  0  0  0  0  0  0  0  0  0  0
   25.4308  -20.2702  -11.3186 C   0  0  0  0  0  0  0  0  0  0  0  0
   24.3351  -20.2741  -11.8982 O   0  0  0  0  0  0  0  0  0  0  0  0
   28.8411  -21.3108  -13.7357 O   0  0  0  0  0  0  0  0  0  0  0  0
   28.0864  -20.2022  -14.0609 C   0  0  0  0  0  0  0  0  0  0  0  0
   26.6843  -20.2711  -13.5135 C   0  0  2  0  0  0  0  0  0  0  0  0
   26.6277  -20.3436  -12.0813 N   0  0  0  0  0  0  0  0  0  0  0  0
   25.9527  -21.3963  -14.1623 C   0  0  0  0  0  0  0  0  0  0  0  0
   25.9109  -22.5317  -13.6277 O   0  0  0  0  0  0  0  0  0  0  0  0
   22.6512  -22.6507  -17.4632 O   0  0  0  0  0  0  0  0  0  0  0  0
   23.4886  -21.6595  -16.9184 C   0  0  0  0  0  0  0  0  0  0  0  0
   24.5301  -22.3145  -16.0257 C   0  0  2  0  0  0  0  0  0  0  0  0
   25.2797  -21.2279  -15.4010 N   0  0  0  0  0  0  0  0  0  0  0  0
   25.3864  -23.1558  -16.8798 C   0  0  0  0  0  0  0  0  0  0  0  0
   26.5107  -22.7556  -17.2355 O   0  0  0  0  0  0  0  0  0  0  0  0
   24.9380  -24.3907  -17.2847 O   0  0  0  0  0  0  0  0  0  0  0  0
  2  3  1  0
  2  1  1  0
  3  4  1  0
  4  5  1  0
  5  7  1  0
  5  6  1  1
  7  8  2  0
 10  9  1  0
 11 10  1  1
 12 11  1  0
 12  7  1  0
 13 14  2  0
 13 11  1  0
 16 15  1  0
 17 16  1  6
 17 18  1  0
 18 13  1  0
 19 17  1  0
 19 21  1  0
 20 19  2  0
M  END
$$$$
