MSS.pdb
     RDKit          3D

 21 20  0  0  1  0  0  0  0  0999 V2000
   28.0308  -13.2369  -15.4730 C   0  0  0  0  0  0  0  0  0  0  0  0
   26.7024  -12.0446  -15.3461 S   0  0  0  0  0  0  0  0  0  0  0  0
   26.4481  -11.0802  -16.8231 C   0  0  0  0  0  0  0  0  0  0  0  0
   25.4042  -10.0194  -16.7608 C   0  0  0  0  0  0  0  0  0  0  0  0
   24.0885  -10.5269  -16.3163 C   0  0  2  0  0  0  0  0  0  0  0  0
   23.6319  -11.5005  -17.2967 N   0  0  0  0  0  0  0  0  0  0  0  0
   23.0770   -9.4356  -16.1571 C   0  0  0  0  0  0  0  0  0  0  0  0
   22.8638   -8.7011  -17.1325 O   0  0  0  0  0  0  0  0  0  0  0  0
   21.3442   -8.4768  -12.3492 O   0  0  0  0  0  0  0  0  0  0  0  0
   20.5950   -8.3076  -13.4958 C   0  0  0  0  0  0  0  0  0  0  0  0
   21.4457   -8.1377  -14.7276 C   0  0  2  0  0  0  0  0  0  0  0  0
   22.3655   -9.2175  -14.9464 N   0  0  0  0  0  0  0  0  0  0  0  0
   22.1330   -6.8158  -14.6780 C   0  0  0  0  0  0  0  0  0  0  0  0
   23.3717   -6.7257  -14.8628 O   0  0  0  0  0  0  0  0  0  0  0  0
   22.7984   -2.9268  -16.4364 O   0  0  0  0  0  0  0  0  0  0  0  0
   22.1881   -4.1623  -16.1507 C   0  0  0  0  0  0  0  0  0  0  0  0
   22.0110   -4.3012  -14.6474 C   0  0  2  0  0  0  0  0  0  0  0  0
   21.4177   -5.6165  -14.4218 N   0  0  0  0  0  0  0  0  0  0  0  0
   21.1259   -3.2123  -14.1983 C   0  0  0  0  0  0  0  0  0  0  0  0
   19.8986   -3.2725  -14.4006 O   0  0  0  0  0  0  0  0  0  0  0  0
   21.6621   -2.1240  -13.5518 O   0  0  0  0  0  0  0  0  0  0  0  0
  2  3  1  0
  2  1  1  0
  3  4  1  0
  4  5  1  0
  5  7  1  0
  5  6  1  6
  7  8  2  0
 10  9  1  0
 11 10  1  1
 12 11  1  0
 12  7  1  0
 13 14  2  0
 13 11  1  0
 16 15  1  0
 17 16  1  6
 17 18  1  0
 18 13  1  0
 19 17  1  0
 19 21  1  0
 20 19  2  0
M  END
$$$$
