MSS.pdb
     RDKit          3D

 21 20  0  0  1  0  0  0  0  0999 V2000
   25.5313  -14.3796  -14.9238 C   0  0  0  0  0  0  0  0  0  0  0  0
   24.9679  -15.9316  -15.6138 S   0  0  0  0  0  0  0  0  0  0  0  0
   23.3132  -15.8755  -16.2735 C   0  0  0  0  0  0  0  0  0  0  0  0
   22.6793  -14.5320  -16.3830 C   0  0  0  0  0  0  0  0  0  0  0  0
   21.3213  -14.5781  -16.9659 C   0  0  2  0  0  0  0  0  0  0  0  0
   21.4204  -15.1977  -18.2787 N   0  0  0  0  0  0  0  0  0  0  0  0
   20.6985  -13.2219  -17.0766 C   0  0  0  0  0  0  0  0  0  0  0  0
   20.8380  -12.6096  -18.1453 O   0  0  0  0  0  0  0  0  0  0  0  0
   18.3341  -11.5776  -13.9111 O   0  0  0  0  0  0  0  0  0  0  0  0
   18.0695  -11.2630  -15.2285 C   0  0  0  0  0  0  0  0  0  0  0  0
   19.2896  -11.3607  -16.1070 C   0  0  2  0  0  0  0  0  0  0  0  0
   19.9655  -12.6235  -16.0162 N   0  0  0  0  0  0  0  0  0  0  0  0
   20.1996  -10.2148  -15.8224 C   0  0  0  0  0  0  0  0  0  0  0  0
   21.1955  -10.3536  -15.0704 O   0  0  0  0  0  0  0  0  0  0  0  0
   19.1047   -6.4554  -16.9959 O   0  0  0  0  0  0  0  0  0  0  0  0
   20.4834   -6.7140  -17.1098 C   0  0  0  0  0  0  0  0  0  0  0  0
   20.8734   -7.8084  -16.1296 C   0  0  2  0  0  0  0  0  0  0  0  0
   19.9762   -8.9316  -16.3871 N   0  0  0  0  0  0  0  0  0  0  0  0
   20.7071   -7.2703  -14.7682 C   0  0  0  0  0  0  0  0  0  0  0  0
   19.8797   -7.7754  -13.9866 O   0  0  0  0  0  0  0  0  0  0  0  0
   21.4723   -6.2030  -14.3614 O   0  0  0  0  0  0  0  0  0  0  0  0
  2  3  1  0
  2  1  1  0
  3  4  1  0
  4  5  1  0
  5  7  1  0
  5  6  1  6
  7  8  2  0
 10  9  1  0
 11 10  1  1
 12 11  1  0
 12  7  1  0
 13 14  2  0
 13 11  1  0
 16 15  1  0
 17 16  1  6
 17 18  1  0
 18 13  1  0
 19 17  1  0
 19 21  1  0
 20 19  2  0
M  END
$$$$
