MSS.pdb
     RDKit          3D

 21 20  0  0  1  0  0  0  0  0999 V2000
   27.8872  -18.3079   -3.8670 C   0  0  0  0  0  0  0  0  0  0  0  0
   27.1809  -19.2771   -5.1952 S   0  0  0  0  0  0  0  0  0  0  0  0
   28.2337  -19.4257   -6.6256 C   0  0  0  0  0  0  0  0  0  0  0  0
   27.7407  -20.2884   -7.7353 C   0  0  0  0  0  0  0  0  0  0  0  0
   26.2660  -20.3106   -7.8404 C   0  0  2  0  0  0  0  0  0  0  0  0
   25.7449  -20.9820   -6.6593 N   0  0  0  0  0  0  0  0  0  0  0  0
   25.7900  -20.9976   -9.0817 C   0  0  0  0  0  0  0  0  0  0  0  0
   26.1130  -22.1834   -9.2436 O   0  0  0  0  0  0  0  0  0  0  0  0
   22.6855  -19.4966  -11.4835 O   0  0  0  0  0  0  0  0  0  0  0  0
   23.1358  -20.7943  -11.6169 C   0  0  0  0  0  0  0  0  0  0  0  0
   24.6049  -20.9350  -11.3135 C   0  0  2  0  0  0  0  0  0  0  0  0
   24.9941  -20.3474  -10.0633 N   0  0  0  0  0  0  0  0  0  0  0  0
   25.4011  -20.4033  -12.4561 C   0  0  0  0  0  0  0  0  0  0  0  0
   25.7820  -19.2070  -12.4753 O   0  0  0  0  0  0  0  0  0  0  0  0
   28.1044  -21.3130  -16.3284 O   0  0  0  0  0  0  0  0  0  0  0  0
   27.4700  -21.7272  -15.1425 C   0  0  0  0  0  0  0  0  0  0  0  0
   26.4410  -20.6866  -14.7315 C   0  0  2  0  0  0  0  0  0  0  0  0
   25.7568  -21.2241  -13.5585 N   0  0  0  0  0  0  0  0  0  0  0  0
   25.5214  -20.4937  -15.8664 C   0  0  0  0  0  0  0  0  0  0  0  0
   24.3356  -20.8654  -15.7881 O   0  0  0  0  0  0  0  0  0  0  0  0
   25.9793  -19.8986  -17.0180 O   0  0  0  0  0  0  0  0  0  0  0  0
  2  3  1  0
  2  1  1  0
  3  4  1  0
  4  5  1  0
  5  7  1  0
  5  6  1  1
  7  8  2  0
 10  9  1  0
 11 10  1  6
 12 11  1  0
 12  7  1  0
 13 14  2  0
 13 11  1  0
 16 15  1  0
 17 16  1  6
 17 18  1  0
 18 13  1  0
 19 17  1  0
 19 21  1  0
 20 19  2  0
M  END
$$$$
