MSS.pdb
     RDKit          3D

 21 20  0  0  1  0  0  0  0  0999 V2000
   25.0316  -21.1829   -8.5973 C   0  0  0  0  0  0  0  0  0  0  0  0
   24.9009  -20.9338  -10.3646 S   0  0  0  0  0  0  0  0  0  0  0  0
   26.4564  -20.6013  -11.1685 C   0  0  0  0  0  0  0  0  0  0  0  0
   26.3988  -20.1956  -12.6006 C   0  0  0  0  0  0  0  0  0  0  0  0
   25.2475  -20.7790  -13.3219 C   0  0  2  0  0  0  0  0  0  0  0  0
   25.6163  -22.1242  -13.7365 N   0  0  0  0  0  0  0  0  0  0  0  0
   24.8407  -19.9624  -14.5082 C   0  0  0  0  0  0  0  0  0  0  0  0
   25.4440  -20.1545  -15.5739 O   0  0  0  0  0  0  0  0  0  0  0  0
   21.5453  -17.0249  -16.5918 O   0  0  0  0  0  0  0  0  0  0  0  0
   21.9385  -17.7668  -15.4965 C   0  0  0  0  0  0  0  0  0  0  0  0
   23.3826  -18.1905  -15.5681 C   0  0  2  0  0  0  0  0  0  0  0  0
   23.8042  -18.9916  -14.4545 N   0  0  0  0  0  0  0  0  0  0  0  0
   24.2443  -16.9882  -15.7532 C   0  0  0  0  0  0  0  0  0  0  0  0
   24.5430  -16.2529  -14.7802 O   0  0  0  0  0  0  0  0  0  0  0  0
   27.4821  -14.5507  -18.2281 O   0  0  0  0  0  0  0  0  0  0  0  0
   26.7230  -15.7184  -18.0265 C   0  0  0  0  0  0  0  0  0  0  0  0
   25.4620  -15.3722  -17.2516 C   0  0  2  0  0  0  0  0  0  0  0  0
   24.7565  -16.6313  -17.0283 N   0  0  0  0  0  0  0  0  0  0  0  0
   24.6743  -14.4366  -18.0731 C   0  0  0  0  0  0  0  0  0  0  0  0
   23.6373  -14.8192  -18.6465 O   0  0  0  0  0  0  0  0  0  0  0  0
   25.0901  -13.1328  -18.2050 O   0  0  0  0  0  0  0  0  0  0  0  0
  2  3  1  0
  2  1  1  0
  3  4  1  0
  4  5  1  0
  5  7  1  0
  5  6  1  6
  7  8  2  0
 10  9  1  0
 11 10  1  1
 12 11  1  0
 12  7  1  0
 13 14  2  0
 13 11  1  0
 16 15  1  0
 17 16  1  6
 17 18  1  0
 18 13  1  0
 19 17  1  0
 19 21  1  0
 20 19  2  0
M  END
$$$$
