MSS.pdb
     RDKit          3D

 21 20  0  0  1  0  0  0  0  0999 V2000
   16.0425   -9.6119  -20.4048 C   0  0  0  0  0  0  0  0  0  0  0  0
   17.1189  -10.9084  -21.0067 S   0  0  0  0  0  0  0  0  0  0  0  0
   18.1641  -11.6253  -19.7537 C   0  0  0  0  0  0  0  0  0  0  0  0
   18.3726  -10.8249  -18.5148 C   0  0  0  0  0  0  0  0  0  0  0  0
   19.3029  -11.4658  -17.5610 C   0  0  2  0  0  0  0  0  0  0  0  0
   18.7519  -12.7647  -17.2053 N   0  0  0  0  0  0  0  0  0  0  0  0
   19.5232  -10.6403  -16.3324 C   0  0  0  0  0  0  0  0  0  0  0  0
   18.5858  -10.5450  -15.5268 O   0  0  0  0  0  0  0  0  0  0  0  0
   23.2454   -9.8581  -14.6107 O   0  0  0  0  0  0  0  0  0  0  0  0
   22.0334   -9.6385  -13.9884 C   0  0  0  0  0  0  0  0  0  0  0  0
   20.9794   -9.1208  -14.9324 C   0  0  2  0  0  0  0  0  0  0  0  0
   20.7493   -9.9740  -16.0633 N   0  0  0  0  0  0  0  0  0  0  0  0
   21.3187   -7.7276  -15.3397 C   0  0  0  0  0  0  0  0  0  0  0  0
   21.9180   -7.4991  -16.4192 O   0  0  0  0  0  0  0  0  0  0  0  0
   20.5278   -3.0798  -15.2418 O   0  0  0  0  0  0  0  0  0  0  0  0
   20.1731   -4.3972  -14.8965 C   0  0  0  0  0  0  0  0  0  0  0  0
   21.4237   -5.2601  -14.8501 C   0  0  2  0  0  0  0  0  0  0  0  0
   20.9791   -6.6134  -14.5280 N   0  0  0  0  0  0  0  0  0  0  0  0
   22.3100   -4.7084  -13.8105 C   0  0  0  0  0  0  0  0  0  0  0  0
   22.2800   -5.1604  -12.6506 O   0  0  0  0  0  0  0  0  0  0  0  0
   23.1749   -3.6876  -14.1269 O   0  0  0  0  0  0  0  0  0  0  0  0
  2  3  1  0
  2  1  1  0
  3  4  1  0
  4  5  1  0
  5  7  1  0
  5  6  1  1
  7  8  2  0
 10  9  1  0
 11 10  1  6
 12 11  1  0
 12  7  1  0
 13 14  2  0
 13 11  1  0
 16 15  1  0
 17 16  1  1
 17 18  1  0
 18 13  1  0
 19 17  1  0
 19 21  1  0
 20 19  2  0
M  END
$$$$
