MSS.pdb
     RDKit          3D

 21 20  0  0  1  0  0  0  0  0999 V2000
   27.6780  -11.1917  -15.5255 C   0  0  0  0  0  0  0  0  0  0  0  0
   26.2104  -10.1714  -15.4413 S   0  0  0  0  0  0  0  0  0  0  0  0
   25.5435   -9.7249  -17.0326 C   0  0  0  0  0  0  0  0  0  0  0  0
   24.3768   -8.7988  -17.0357 C   0  0  0  0  0  0  0  0  0  0  0  0
   23.2982   -9.2229  -16.1177 C   0  0  2  0  0  0  0  0  0  0  0  0
   22.6746  -10.4107  -16.6812 N   0  0  0  0  0  0  0  0  0  0  0  0
   22.2758   -8.1520  -15.9008 C   0  0  0  0  0  0  0  0  0  0  0  0
   21.4055   -8.0019  -16.7707 O   0  0  0  0  0  0  0  0  0  0  0  0
   22.5516   -5.2376  -12.7144 O   0  0  0  0  0  0  0  0  0  0  0  0
   21.3282   -5.7377  -13.1116 C   0  0  0  0  0  0  0  0  0  0  0  0
   21.3395   -6.2458  -14.5299 C   0  0  2  0  0  0  0  0  0  0  0  0
   22.2694   -7.3163  -14.7513 N   0  0  0  0  0  0  0  0  0  0  0  0
   21.5626   -5.1058  -15.4641 C   0  0  0  0  0  0  0  0  0  0  0  0
   22.5219   -5.1142  -16.2742 O   0  0  0  0  0  0  0  0  0  0  0  0
   20.9779   -2.5081  -18.7849 O   0  0  0  0  0  0  0  0  0  0  0  0
   20.7315   -3.4938  -17.8111 C   0  0  0  0  0  0  0  0  0  0  0  0
   20.8779   -2.8825  -16.4270 C   0  0  2  0  0  0  0  0  0  0  0  0
   20.7044   -3.9749  -15.4734 N   0  0  0  0  0  0  0  0  0  0  0  0
   19.8358   -1.8514  -16.2805 C   0  0  0  0  0  0  0  0  0  0  0  0
   18.6631   -2.1729  -16.0121 O   0  0  0  0  0  0  0  0  0  0  0  0
   20.1641   -0.5261  -16.4418 O   0  0  0  0  0  0  0  0  0  0  0  0
  2  3  1  0
  2  1  1  0
  3  4  1  0
  4  5  1  0
  5  7  1  0
  5  6  1  6
  7  8  2  0
 10  9  1  0
 11 10  1  1
 12 11  1  0
 12  7  1  0
 13 14  2  0
 13 11  1  0
 16 15  1  0
 17 16  1  6
 17 18  1  0
 18 13  1  0
 19 17  1  0
 19 21  1  0
 20 19  2  0
M  END
$$$$
