MSS.pdb
     RDKit          3D

 21 20  0  0  1  0  0  0  0  0999 V2000
   14.6292  -30.2855   -1.9391 C   0  0  0  0  0  0  0  0  0  0  0  0
   13.5280  -30.2980   -0.5286 S   0  0  0  0  0  0  0  0  0  0  0  0
   13.5895  -28.8127    0.4543 C   0  0  0  0  0  0  0  0  0  0  0  0
   14.9415  -28.2881    0.7944 C   0  0  0  0  0  0  0  0  0  0  0  0
   14.8978  -27.1036    1.6783 C   0  0  2  0  0  0  0  0  0  0  0  0
   14.2455  -26.0268    0.9487 N   0  0  0  0  0  0  0  0  0  0  0  0
   16.2583  -26.6755    2.1310 C   0  0  0  0  0  0  0  0  0  0  0  0
   16.8673  -25.8553    1.4289 O   0  0  0  0  0  0  0  0  0  0  0  0
   17.0064  -24.9967    5.2047 O   0  0  0  0  0  0  0  0  0  0  0  0
   18.0254  -25.2338    4.3046 C   0  0  0  0  0  0  0  0  0  0  0  0
   18.0939  -26.6744    3.8688 C   0  0  2  0  0  0  0  0  0  0  0  0
   16.8644  -27.1691    3.3179 N   0  0  0  0  0  0  0  0  0  0  0  0
   18.5796  -27.5133    5.0013 C   0  0  0  0  0  0  0  0  0  0  0  0
   17.7721  -28.0462    5.8017 O   0  0  0  0  0  0  0  0  0  0  0  0
   22.0301  -29.3738    4.7740 O   0  0  0  0  0  0  0  0  0  0  0  0
   21.9124  -28.8272    6.0654 C   0  0  0  0  0  0  0  0  0  0  0  0
   20.4515  -28.5196    6.3513 C   0  0  2  0  0  0  0  0  0  0  0  0
   19.9645  -27.7401    5.2164 N   0  0  0  0  0  0  0  0  0  0  0  0
   20.3926  -27.7569    7.6105 C   0  0  0  0  0  0  0  0  0  0  0  0
   20.1397  -26.5377    7.5986 O   0  0  0  0  0  0  0  0  0  0  0  0
   20.6190  -28.3990    8.8048 O   0  0  0  0  0  0  0  0  0  0  0  0
  2  3  1  0
  2  1  1  0
  3  4  1  0
  4  5  1  0
  5  7  1  0
  5  6  1  6
  7  8  2  0
 10  9  1  0
 11 10  1  1
 12 11  1  0
 12  7  1  0
 13 14  2  0
 13 11  1  0
 16 15  1  0
 17 16  1  6
 17 18  1  0
 18 13  1  0
 19 17  1  0
 19 21  1  0
 20 19  2  0
M  END
$$$$
