MSS.pdb
     RDKit          3D

 21 20  0  0  1  0  0  0  0  0999 V2000
   35.6845   -6.1439   -7.7042 C   0  0  0  0  0  0  0  0  0  0  0  0
   37.0085   -7.3439   -7.8009 S   0  0  0  0  0  0  0  0  0  0  0  0
   37.9757   -7.4803   -6.3102 C   0  0  0  0  0  0  0  0  0  0  0  0
   39.1069   -8.4493   -6.3302 C   0  0  0  0  0  0  0  0  0  0  0  0
   38.7430   -9.7521   -6.9273 C   0  0  2  0  0  0  0  0  0  0  0  0
   37.8408  -10.4278   -6.0072 N   0  0  0  0  0  0  0  0  0  0  0  0
   39.9380  -10.6084   -7.2068 C   0  0  0  0  0  0  0  0  0  0  0  0
   40.4622  -11.1959   -6.2494 O   0  0  0  0  0  0  0  0  0  0  0  0
   41.5569  -10.9039  -11.1324 O   0  0  0  0  0  0  0  0  0  0  0  0
   41.7774  -11.9391  -10.2469 C   0  0  0  0  0  0  0  0  0  0  0  0
   41.6765  -11.5056   -8.8074 C   0  0  2  0  0  0  0  0  0  0  0  0
   40.4819  -10.7677   -8.5100 N   0  0  0  0  0  0  0  0  0  0  0  0
   42.9083  -10.7574   -8.4266 C   0  0  0  0  0  0  0  0  0  0  0  0
   43.0118   -9.5270   -8.6548 O   0  0  0  0  0  0  0  0  0  0  0  0
   44.9025  -10.8855   -5.1404 O   0  0  0  0  0  0  0  0  0  0  0  0
   45.7616  -11.2707   -6.1864 C   0  0  0  0  0  0  0  0  0  0  0  0
   45.2476  -10.6984   -7.4974 C   0  0  2  0  0  0  0  0  0  0  0  0
   44.0038  -11.4033   -7.7956 N   0  0  0  0  0  0  0  0  0  0  0  0
   46.2768  -10.9370   -8.5243 C   0  0  0  0  0  0  0  0  0  0  0  0
   47.3883  -10.3813   -8.4449 O   0  0  0  0  0  0  0  0  0  0  0  0
   46.0046  -11.7797   -9.5758 O   0  0  0  0  0  0  0  0  0  0  0  0
  2  3  1  0
  2  1  1  0
  3  4  1  0
  4  5  1  0
  5  7  1  0
  5  6  1  1
  7  8  2  0
 10  9  1  0
 11 10  1  6
 12 11  1  0
 12  7  1  0
 13 14  2  0
 13 11  1  0
 16 15  1  0
 17 16  1  1
 17 18  1  0
 18 13  1  0
 19 17  1  0
 19 21  1  0
 20 19  2  0
M  END
$$$$
