MSS.pdb
     RDKit          3D

 21 20  0  0  1  0  0  0  0  0999 V2000
   22.3716  -12.8274  -19.4306 C   0  0  0  0  0  0  0  0  0  0  0  0
   21.8726  -11.2117  -18.8450 S   0  0  0  0  0  0  0  0  0  0  0  0
   20.2880  -11.1919  -18.0295 C   0  0  0  0  0  0  0  0  0  0  0  0
   19.8708   -9.9060  -17.4040 C   0  0  0  0  0  0  0  0  0  0  0  0
   18.6484  -10.0315  -16.5819 C   0  0  2  0  0  0  0  0  0  0  0  0
   17.5300  -10.2754  -17.4804 N   0  0  0  0  0  0  0  0  0  0  0  0
   18.3904   -8.8156  -15.7486 C   0  0  0  0  0  0  0  0  0  0  0  0
   17.9403   -7.8113  -16.3191 O   0  0  0  0  0  0  0  0  0  0  0  0
   18.9856   -8.8994  -11.5577 O   0  0  0  0  0  0  0  0  0  0  0  0
   18.1023   -7.9780  -12.0823 C   0  0  0  0  0  0  0  0  0  0  0  0
   18.4069   -7.6301  -13.5162 C   0  0  2  0  0  0  0  0  0  0  0  0
   18.6397   -8.7748  -14.3501 N   0  0  0  0  0  0  0  0  0  0  0  0
   19.5395   -6.6619  -13.5626 C   0  0  0  0  0  0  0  0  0  0  0  0
   19.4352   -5.5224  -13.0455 O   0  0  0  0  0  0  0  0  0  0  0  0
   23.5084   -5.3557  -15.9295 O   0  0  0  0  0  0  0  0  0  0  0  0
   22.5176   -6.3213  -15.6720 C   0  0  0  0  0  0  0  0  0  0  0  0
   21.8406   -6.0079  -14.3475 C   0  0  2  0  0  0  0  0  0  0  0  0
   20.7708   -6.9893  -14.1889 N   0  0  0  0  0  0  0  0  0  0  0  0
   21.3200   -4.6319  -14.4253 C   0  0  0  0  0  0  0  0  0  0  0  0
   21.7803   -3.7402  -13.6880 O   0  0  0  0  0  0  0  0  0  0  0  0
   20.3191   -4.3339  -15.3195 O   0  0  0  0  0  0  0  0  0  0  0  0
  2  3  1  0
  2  1  1  0
  3  4  1  0
  4  5  1  0
  5  7  1  0
  5  6  1  6
  7  8  2  0
 10  9  1  0
 11 10  1  1
 12 11  1  0
 12  7  1  0
 13 14  2  0
 13 11  1  0
 16 15  1  0
 17 16  1  6
 17 18  1  0
 18 13  1  0
 19 17  1  0
 19 21  1  0
 20 19  2  0
M  END
$$$$
