MSS.pdb
     RDKit          3D

 21 20  0  0  1  0  0  0  0  0999 V2000
   26.9910  -17.8104  -15.1657 C   0  0  0  0  0  0  0  0  0  0  0  0
   27.2215  -17.9816  -13.3995 S   0  0  0  0  0  0  0  0  0  0  0  0
   27.9833  -19.5172  -12.9115 C   0  0  0  0  0  0  0  0  0  0  0  0
   27.1784  -20.7561  -13.1016 C   0  0  0  0  0  0  0  0  0  0  0  0
   25.9018  -20.7374  -12.3559 C   0  0  2  0  0  0  0  0  0  0  0  0
   26.0456  -21.6146  -11.2039 N   0  0  0  0  0  0  0  0  0  0  0  0
   24.7408  -21.1684  -13.1960 C   0  0  0  0  0  0  0  0  0  0  0  0
   24.9746  -21.8969  -14.1713 O   0  0  0  0  0  0  0  0  0  0  0  0
   20.8044  -20.3404  -11.9598 O   0  0  0  0  0  0  0  0  0  0  0  0
   21.0192  -21.3902  -12.8295 C   0  0  0  0  0  0  0  0  0  0  0  0
   22.2578  -21.2079  -13.6677 C   0  0  2  0  0  0  0  0  0  0  0  0
   23.4032  -20.7773  -12.9177 N   0  0  0  0  0  0  0  0  0  0  0  0
   21.9567  -20.2948  -14.8069 C   0  0  0  0  0  0  0  0  0  0  0  0
   22.1758  -19.0615  -14.7201 O   0  0  0  0  0  0  0  0  0  0  0  0
   22.6420  -21.0872  -18.5891 O   0  0  0  0  0  0  0  0  0  0  0  0
   21.2879  -20.7491  -18.4085 C   0  0  0  0  0  0  0  0  0  0  0  0
   21.1434  -19.8991  -17.1566 C   0  0  2  0  0  0  0  0  0  0  0  0
   21.4143  -20.7819  -16.0252 N   0  0  0  0  0  0  0  0  0  0  0  0
   19.7674  -19.3732  -17.1289 C   0  0  0  0  0  0  0  0  0  0  0  0
   18.9424  -19.8071  -16.3032 O   0  0  0  0  0  0  0  0  0  0  0  0
   19.3953  -18.3967  -18.0222 O   0  0  0  0  0  0  0  0  0  0  0  0
  2  3  1  0
  2  1  1  0
  3  4  1  0
  4  5  1  0
  5  7  1  0
  5  6  1  1
  7  8  2  0
 10  9  1  0
 11 10  1  1
 12 11  1  0
 12  7  1  0
 13 14  2  0
 13 11  1  0
 16 15  1  0
 17 16  1  6
 17 18  1  0
 18 13  1  0
 19 17  1  0
 19 21  1  0
 20 19  2  0
M  END
$$$$
