MSS.pdb
     RDKit          3D

 21 20  0  0  1  0  0  0  0  0999 V2000
    8.9767  -12.2750   -9.6335 C   0  0  0  0  0  0  0  0  0  0  0  0
   10.5735  -11.5367   -9.3056 S   0  0  0  0  0  0  0  0  0  0  0  0
   11.8507  -12.0314  -10.4458 C   0  0  0  0  0  0  0  0  0  0  0  0
   13.1674  -11.3468  -10.3174 C   0  0  0  0  0  0  0  0  0  0  0  0
   14.1606  -11.8106  -11.3096 C   0  0  2  0  0  0  0  0  0  0  0  0
   14.5014  -13.1883  -10.9887 N   0  0  0  0  0  0  0  0  0  0  0  0
   15.3924  -10.9610  -11.3281 C   0  0  0  0  0  0  0  0  0  0  0  0
   16.1124  -10.9685  -10.3191 O   0  0  0  0  0  0  0  0  0  0  0  0
   16.6264   -8.6884  -14.7918 O   0  0  0  0  0  0  0  0  0  0  0  0
   17.5146   -9.1427  -13.8382 C   0  0  0  0  0  0  0  0  0  0  0  0
   16.8875   -9.2761  -12.4748 C   0  0  2  0  0  0  0  0  0  0  0  0
   15.7575  -10.1603  -12.4440 N   0  0  0  0  0  0  0  0  0  0  0  0
   16.5559   -7.9223  -11.9461 C   0  0  0  0  0  0  0  0  0  0  0  0
   15.5090   -7.3288  -12.3043 O   0  0  0  0  0  0  0  0  0  0  0  0
   17.3063   -4.5453   -8.6075 O   0  0  0  0  0  0  0  0  0  0  0  0
   17.5433   -5.8388   -9.1087 C   0  0  0  0  0  0  0  0  0  0  0  0
   17.1382   -5.8940  -10.5728 C   0  0  2  0  0  0  0  0  0  0  0  0
   17.4056   -7.2572  -11.0234 N   0  0  0  0  0  0  0  0  0  0  0  0
   17.9509   -4.9032  -11.2998 C   0  0  0  0  0  0  0  0  0  0  0  0
   18.9535   -5.2611  -11.9458 O   0  0  0  0  0  0  0  0  0  0  0  0
   17.5969   -3.5753  -11.2624 O   0  0  0  0  0  0  0  0  0  0  0  0
  2  3  1  0
  2  1  1  0
  3  4  1  0
  4  5  1  0
  5  7  1  0
  5  6  1  1
  7  8  2  0
 10  9  1  0
 11 10  1  6
 12 11  1  0
 12  7  1  0
 13 14  2  0
 13 11  1  0
 16 15  1  0
 17 16  1  1
 17 18  1  0
 18 13  1  0
 19 17  1  0
 19 21  1  0
 20 19  2  0
M  END
$$$$
