MSS.pdb
     RDKit          3D

 21 20  0  0  1  0  0  0  0  0999 V2000
   28.7044  -14.1756  -15.2244 C   0  0  0  0  0  0  0  0  0  0  0  0
   27.3815  -13.0577  -15.6743 S   0  0  0  0  0  0  0  0  0  0  0  0
   27.9346  -11.4327  -16.1534 C   0  0  0  0  0  0  0  0  0  0  0  0
   26.8795  -10.4144  -16.4153 C   0  0  0  0  0  0  0  0  0  0  0  0
   25.6293  -10.9990  -16.9458 C   0  0  2  0  0  0  0  0  0  0  0  0
   25.9022  -11.4928  -18.2871 N   0  0  0  0  0  0  0  0  0  0  0  0
   24.5025  -10.0146  -16.9732 C   0  0  0  0  0  0  0  0  0  0  0  0
   24.5235   -9.1395  -17.8509 O   0  0  0  0  0  0  0  0  0  0  0  0
   21.6039   -9.8048  -13.8216 O   0  0  0  0  0  0  0  0  0  0  0  0
   21.2201   -9.4868  -15.1085 C   0  0  0  0  0  0  0  0  0  0  0  0
   22.3797   -9.0717  -15.9762 C   0  0  2  0  0  0  0  0  0  0  0  0
   23.4284  -10.0492  -16.0433 N   0  0  0  0  0  0  0  0  0  0  0  0
   22.8808   -7.7400  -15.5317 C   0  0  0  0  0  0  0  0  0  0  0  0
   23.8069   -7.6479  -14.6888 O   0  0  0  0  0  0  0  0  0  0  0  0
   23.5157   -3.1408  -16.5829 O   0  0  0  0  0  0  0  0  0  0  0  0
   23.0750   -4.4369  -16.9093 C   0  0  0  0  0  0  0  0  0  0  0  0
   22.8360   -5.2246  -15.6313 C   0  0  2  0  0  0  0  0  0  0  0  0
   22.3336   -6.5332  -16.0414 N   0  0  0  0  0  0  0  0  0  0  0  0
   21.8502   -4.4827  -14.8259 C   0  0  0  0  0  0  0  0  0  0  0  0
   20.6336   -4.5760  -15.0746 O   0  0  0  0  0  0  0  0  0  0  0  0
   22.2801   -3.6832  -13.7936 O   0  0  0  0  0  0  0  0  0  0  0  0
  2  3  1  0
  2  1  1  0
  3  4  1  0
  4  5  1  0
  5  7  1  0
  5  6  1  6
  7  8  2  0
 10  9  1  0
 11 10  1  1
 12 11  1  0
 12  7  1  0
 13 14  2  0
 13 11  1  0
 16 15  1  0
 17 16  1  6
 17 18  1  0
 18 13  1  0
 19 17  1  0
 19 21  1  0
 20 19  2  0
M  END
$$$$
