HSG.pdb
     RDKit          3D

 21 21  0  0  1  0  0  0  0  0999 V2000
   11.0153  -16.9362   11.9165 N   0  0  0  0  0  0  0  0  0  0  0  0
   12.0404  -16.1589   12.5371 C   0  0  1  0  0  0  0  0  0  0  0  0
   11.5235  -14.8644   13.1453 C   0  0  0  0  0  0  0  0  0  0  0  0
   10.9589  -13.9886   12.0863 C   0  0  0  0  0  0  0  0  0  0  0  0
    9.6267  -13.9975   11.6589 C   0  0  0  0  0  0  0  0  0  0  0  0
    9.4714  -13.0848   10.6970 N   0  0  0  0  0  0  0  0  0  0  0  0
   10.6707  -12.5054   10.5116 C   0  0  0  0  0  0  0  0  0  0  0  0
   11.5826  -13.0577   11.3616 N   0  0  0  0  0  0  0  0  0  0  0  0
   12.7805  -16.8984   13.5987 C   0  0  0  0  0  0  0  0  0  0  0  0
   12.0802  -17.6009   14.3782 O   0  0  0  0  0  0  0  0  0  0  0  0
   16.7292  -17.9896   13.2630 O   0  0  0  0  0  0  0  0  0  0  0  0
   15.7783  -18.6326   14.0519 C   0  0  0  0  0  0  0  0  0  0  0  0
   14.8465  -17.6571   14.7193 C   0  0  2  0  0  0  0  0  0  0  0  0
   14.1889  -16.8279   13.7391 N   0  0  0  0  0  0  0  0  0  0  0  0
   15.4999  -16.8615   15.7816 C   0  0  0  0  0  0  0  0  0  0  0  0
   15.9108  -15.7002   15.5239 O   0  0  0  0  0  0  0  0  0  0  0  0
   15.6745  -17.3791   17.0885 N   0  0  0  0  0  0  0  0  0  0  0  0
   16.2945  -16.6422   18.1630 C   0  0  0  0  0  0  0  0  0  0  0  0
   17.7333  -16.8740   18.2787 C   0  0  0  0  0  0  0  0  0  0  0  0
   18.4599  -16.2105   19.2525 O   0  0  0  0  0  0  0  0  0  0  0  0
   18.3506  -17.6613   17.5218 O   0  0  0  0  0  0  0  0  0  0  0  0
  2  1  1  1
  2  3  1  0
  3  4  1  0
  4  8  1  0
  5  4  2  0
  5  6  1  0
  6  7  1  0
  8  7  2  0
  9 14  1  0
  9  2  1  0
 10  9  2  0
 12 11  1  0
 13 12  1  6
 13 14  1  0
 15 13  1  0
 15 17  1  0
 16 15  2  0
 18 17  1  0
 18 19  1  0
 19 20  1  0
 21 19  2  0
M  END
$$$$
