HSG.pdb
     RDKit          3D

 21 21  0  0  1  0  0  0  0  0999 V2000
   -6.6938  -24.2576   24.5687 N   0  0  0  0  0  0  0  0  0  0  0  0
   -6.4366  -22.9963   23.9499 C   0  0  1  0  0  0  0  0  0  0  0  0
   -5.5423  -22.0924   24.7842 C   0  0  0  0  0  0  0  0  0  0  0  0
   -6.1082  -21.9267   26.1479 C   0  0  0  0  0  0  0  0  0  0  0  0
   -7.2550  -21.1884   26.4601 C   0  0  0  0  0  0  0  0  0  0  0  0
   -7.4717  -21.2552   27.7758 N   0  0  0  0  0  0  0  0  0  0  0  0
   -6.4912  -22.0155   28.2945 C   0  0  0  0  0  0  0  0  0  0  0  0
   -5.6555  -22.4274   27.2990 N   0  0  0  0  0  0  0  0  0  0  0  0
   -5.8268  -23.1170   22.5952 C   0  0  0  0  0  0  0  0  0  0  0  0
   -4.9692  -24.0309   22.4510 O   0  0  0  0  0  0  0  0  0  0  0  0
   -6.8210  -20.7402   19.1054 O   0  0  0  0  0  0  0  0  0  0  0  0
   -6.6010  -22.1152   19.1367 C   0  0  0  0  0  0  0  0  0  0  0  0
   -5.6219  -22.5052   20.2112 C   0  0  2  0  0  0  0  0  0  0  0  0
   -6.1781  -22.2633   21.5200 N   0  0  0  0  0  0  0  0  0  0  0  0
   -4.2917  -21.8808   20.0413 C   0  0  0  0  0  0  0  0  0  0  0  0
   -3.9999  -20.8510   20.7032 O   0  0  0  0  0  0  0  0  0  0  0  0
   -3.3340  -22.4180   19.1464 N   0  0  0  0  0  0  0  0  0  0  0  0
   -2.0552  -21.8041   18.8824 C   0  0  0  0  0  0  0  0  0  0  0  0
   -0.9860  -22.2763   19.7606 C   0  0  0  0  0  0  0  0  0  0  0  0
    0.2994  -21.7873   19.6021 O   0  0  0  0  0  0  0  0  0  0  0  0
   -1.1842  -23.1198   20.6678 O   0  0  0  0  0  0  0  0  0  0  0  0
  2  1  1  1
  2  3  1  0
  3  4  1  0
  4  8  1  0
  5  4  2  0
  5  6  1  0
  6  7  1  0
  8  7  2  0
  9 14  1  0
  9  2  1  0
 10  9  2  0
 12 11  1  0
 13 12  1  6
 13 14  1  0
 15 13  1  0
 15 17  1  0
 16 15  2  0
 18 17  1  0
 18 19  1  0
 19 20  1  0
 21 19  2  0
M  END
$$$$
