HSG.pdb
     RDKit          3D

 21 21  0  0  1  0  0  0  0  0999 V2000
    7.9748  -12.6087   17.0645 N   0  0  0  0  0  0  0  0  0  0  0  0
    7.9854  -13.9769   17.4746 C   0  0  1  0  0  0  0  0  0  0  0  0
    8.9221  -14.8421   16.6459 C   0  0  0  0  0  0  0  0  0  0  0  0
    8.4251  -14.9461   15.2496 C   0  0  0  0  0  0  0  0  0  0  0  0
    7.2250  -14.4023   14.7790 C   0  0  0  0  0  0  0  0  0  0  0  0
    7.0971  -14.6863   13.4808 N   0  0  0  0  0  0  0  0  0  0  0  0
    8.1852  -15.3931   13.1271 C   0  0  0  0  0  0  0  0  0  0  0  0
    8.9992  -15.5530   14.2091 N   0  0  0  0  0  0  0  0  0  0  0  0
    8.3448  -14.1600   18.9095 C   0  0  0  0  0  0  0  0  0  0  0  0
    9.2603  -13.4138   19.3529 O   0  0  0  0  0  0  0  0  0  0  0  0
    6.3146  -16.6691   21.7621 O   0  0  0  0  0  0  0  0  0  0  0  0
    7.0161  -15.4971   22.0350 C   0  0  0  0  0  0  0  0  0  0  0  0
    8.1737  -15.3006   21.0934 C   0  0  2  0  0  0  0  0  0  0  0  0
    7.7056  -15.1121   19.7421 N   0  0  0  0  0  0  0  0  0  0  0  0
    9.1921  -16.3690   21.1918 C   0  0  0  0  0  0  0  0  0  0  0  0
    9.1383  -17.3523   20.4081 O   0  0  0  0  0  0  0  0  0  0  0  0
   10.2314  -16.3107   22.1525 N   0  0  0  0  0  0  0  0  0  0  0  0
   11.2003  -17.3623   22.3456 C   0  0  0  0  0  0  0  0  0  0  0  0
   12.2444  -17.0269   23.3124 C   0  0  0  0  0  0  0  0  0  0  0  0
   13.1759  -17.9839   23.6773 O   0  0  0  0  0  0  0  0  0  0  0  0
   12.3362  -15.8905   23.8358 O   0  0  0  0  0  0  0  0  0  0  0  0
  2  1  1  6
  2  3  1  0
  3  4  1  0
  4  8  1  0
  5  4  2  0
  5  6  1  0
  6  7  1  0
  8  7  2  0
  9 14  1  0
  9  2  1  0
 10  9  2  0
 12 11  1  0
 13 12  1  1
 13 14  1  0
 15 13  1  0
 15 17  1  0
 16 15  2  0
 18 17  1  0
 18 19  1  0
 19 20  1  0
 21 19  2  0
M  END
$$$$
