HSG.pdb
     RDKit          3D

 21 21  0  0  1  0  0  0  0  0999 V2000
    9.0756  -17.7495   18.8089 N   0  0  0  0  0  0  0  0  0  0  0  0
    9.9009  -16.7385   19.3894 C   0  0  1  0  0  0  0  0  0  0  0  0
    9.1411  -15.8108   20.3247 C   0  0  0  0  0  0  0  0  0  0  0  0
    8.3588  -14.8197   19.5416 C   0  0  0  0  0  0  0  0  0  0  0  0
    8.3382  -14.7313   18.1455 C   0  0  0  0  0  0  0  0  0  0  0  0
    7.5321  -13.7303   17.7839 N   0  0  0  0  0  0  0  0  0  0  0  0
    7.0482  -13.1906   18.9166 C   0  0  0  0  0  0  0  0  0  0  0  0
    7.5534  -13.8565   19.9937 N   0  0  0  0  0  0  0  0  0  0  0  0
   11.0669  -17.2869   20.1385 C   0  0  0  0  0  0  0  0  0  0  0  0
   10.7965  -18.0219   21.1276 O   0  0  0  0  0  0  0  0  0  0  0  0
   15.5071  -18.8995   20.2547 O   0  0  0  0  0  0  0  0  0  0  0  0
   14.4821  -18.2496   19.5712 C   0  0  0  0  0  0  0  0  0  0  0  0
   13.4849  -17.6262   20.5105 C   0  0  2  0  0  0  0  0  0  0  0  0
   12.4082  -17.0091   19.7750 N   0  0  0  0  0  0  0  0  0  0  0  0
   14.1028  -16.7008   21.4852 C   0  0  0  0  0  0  0  0  0  0  0  0
   14.2947  -15.4989   21.1650 O   0  0  0  0  0  0  0  0  0  0  0  0
   14.4852  -17.1383   22.7771 N   0  0  0  0  0  0  0  0  0  0  0  0
   15.0487  -16.2681   23.7806 C   0  0  0  0  0  0  0  0  0  0  0  0
   16.5016  -16.1329   23.6901 C   0  0  0  0  0  0  0  0  0  0  0  0
   17.1669  -15.2773   24.5514 O   0  0  0  0  0  0  0  0  0  0  0  0
   17.1852  -16.7687   22.8521 O   0  0  0  0  0  0  0  0  0  0  0  0
  2  1  1  1
  2  3  1  0
  3  4  1  0
  4  8  1  0
  5  4  2  0
  5  6  1  0
  6  7  1  0
  8  7  2  0
  9 14  1  0
  9  2  1  0
 10  9  2  0
 12 11  1  0
 13 12  1  6
 13 14  1  0
 15 13  1  0
 15 17  1  0
 16 15  2  0
 18 17  1  0
 18 19  1  0
 19 20  1  0
 21 19  2  0
M  END
$$$$
