HSG.pdb
     RDKit          3D

 21 21  0  0  1  0  0  0  0  0999 V2000
    8.0350  -13.2658   16.6278 N   0  0  0  0  0  0  0  0  0  0  0  0
    8.3528  -14.5980   16.2223 C   0  0  1  0  0  0  0  0  0  0  0  0
    9.1934  -14.6529   14.9560 C   0  0  0  0  0  0  0  0  0  0  0  0
    8.4274  -14.1059   13.8066 C   0  0  0  0  0  0  0  0  0  0  0  0
    7.3247  -14.7234   13.2062 C   0  0  0  0  0  0  0  0  0  0  0  0
    6.8857  -13.9553   12.2064 N   0  0  0  0  0  0  0  0  0  0  0  0
    7.6844  -12.8741   12.1655 C   0  0  0  0  0  0  0  0  0  0  0  0
    8.6289  -12.9649   13.1447 N   0  0  0  0  0  0  0  0  0  0  0  0
    9.0603  -15.3821   17.2740 C   0  0  0  0  0  0  0  0  0  0  0  0
    9.8911  -14.7450   17.9780 O   0  0  0  0  0  0  0  0  0  0  0  0
    9.4681  -19.3178   20.0287 O   0  0  0  0  0  0  0  0  0  0  0  0
    8.7566  -18.5932   19.0754 C   0  0  0  0  0  0  0  0  0  0  0  0
    9.5691  -17.4617   18.5053 C   0  0  2  0  0  0  0  0  0  0  0  0
    8.8258  -16.7637   17.4850 N   0  0  0  0  0  0  0  0  0  0  0  0
   10.9071  -17.8841   18.0367 C   0  0  0  0  0  0  0  0  0  0  0  0
   11.0200  -18.4742   16.9308 O   0  0  0  0  0  0  0  0  0  0  0  0
   12.0698  -17.6386   18.8076 N   0  0  0  0  0  0  0  0  0  0  0  0
   13.4010  -17.9958   18.3809 C   0  0  0  0  0  0  0  0  0  0  0  0
   14.0340  -19.0095   19.2229 C   0  0  0  0  0  0  0  0  0  0  0  0
   15.3439  -19.3852   18.9786 O   0  0  0  0  0  0  0  0  0  0  0  0
   13.4331  -19.5646   20.1740 O   0  0  0  0  0  0  0  0  0  0  0  0
  2  1  1  1
  2  3  1  0
  3  4  1  0
  4  8  1  0
  5  4  2  0
  5  6  1  0
  6  7  1  0
  8  7  2  0
  9 14  1  0
  9  2  1  0
 10  9  2  0
 12 11  1  0
 13 12  1  6
 13 14  1  0
 15 13  1  0
 15 17  1  0
 16 15  2  0
 18 17  1  0
 18 19  1  0
 19 20  1  0
 21 19  2  0
M  END
$$$$
