HSG.pdb
     RDKit          3D

 21 21  0  0  1  0  0  0  0  0999 V2000
    7.6040  -15.9108   20.7809 N   0  0  0  0  0  0  0  0  0  0  0  0
    8.8321  -15.2482   21.0855 C   0  0  1  0  0  0  0  0  0  0  0  0
    8.9276  -13.8573   20.4778 C   0  0  0  0  0  0  0  0  0  0  0  0
    8.5701  -13.9006   19.0364 C   0  0  0  0  0  0  0  0  0  0  0  0
    7.4880  -13.2316   18.4542 C   0  0  0  0  0  0  0  0  0  0  0  0
    7.4669  -13.4932   17.1452 N   0  0  0  0  0  0  0  0  0  0  0  0
    8.5069  -14.3078   16.8933 C   0  0  0  0  0  0  0  0  0  0  0  0
    9.1834  -14.5582   18.0503 N   0  0  0  0  0  0  0  0  0  0  0  0
    9.0895  -15.1257   22.5484 C   0  0  0  0  0  0  0  0  0  0  0  0
   10.1861  -14.5960   22.8776 O   0  0  0  0  0  0  0  0  0  0  0  0
    6.3193  -15.2102   25.6889 O   0  0  0  0  0  0  0  0  0  0  0  0
    7.6339  -14.7535   25.7462 C   0  0  0  0  0  0  0  0  0  0  0  0
    8.5610  -15.5983   24.9143 C   0  0  2  0  0  0  0  0  0  0  0  0
    8.1670  -15.5728   23.5269 N   0  0  0  0  0  0  0  0  0  0  0  0
    8.7138  -16.9762   25.4303 C   0  0  0  0  0  0  0  0  0  0  0  0
    8.0237  -17.9048   24.9351 O   0  0  0  0  0  0  0  0  0  0  0  0
    9.6234  -17.2760   26.4740 N   0  0  0  0  0  0  0  0  0  0  0  0
    9.7328  -18.5767   27.0888 C   0  0  0  0  0  0  0  0  0  0  0  0
   10.6437  -18.6099   28.2318 C   0  0  0  0  0  0  0  0  0  0  0  0
   10.8068  -19.7844   28.9463 O   0  0  0  0  0  0  0  0  0  0  0  0
   11.2959  -17.6041   28.6013 O   0  0  0  0  0  0  0  0  0  0  0  0
  2  1  1  1
  2  3  1  0
  3  4  1  0
  4  8  1  0
  5  4  2  0
  5  6  1  0
  6  7  1  0
  8  7  2  0
  9 14  1  0
  9  2  1  0
 10  9  2  0
 12 11  1  0
 13 12  1  1
 13 14  1  0
 15 13  1  0
 15 17  1  0
 16 15  2  0
 18 17  1  0
 18 19  1  0
 19 20  1  0
 21 19  2  0
M  END
$$$$
