HSG.pdb
     RDKit          3D

 21 21  0  0  1  0  0  0  0  0999 V2000
    8.1814  -18.9426   18.0340 N   0  0  0  0  0  0  0  0  0  0  0  0
    7.3826  -19.7632   18.8876 C   0  0  1  0  0  0  0  0  0  0  0  0
    8.1790  -20.8581   19.5803 C   0  0  0  0  0  0  0  0  0  0  0  0
    8.6113  -21.8816   18.5939 C   0  0  0  0  0  0  0  0  0  0  0  0
    7.7911  -22.4553   17.6163 C   0  0  0  0  0  0  0  0  0  0  0  0
    8.5056  -23.3328   16.9080 N   0  0  0  0  0  0  0  0  0  0  0  0
    9.7505  -23.3232   17.4165 C   0  0  0  0  0  0  0  0  0  0  0  0
    9.8168  -22.4351   18.4489 N   0  0  0  0  0  0  0  0  0  0  0  0
    6.6575  -18.9926   19.9373 C   0  0  0  0  0  0  0  0  0  0  0  0
    7.2543  -17.9801   20.3958 O   0  0  0  0  0  0  0  0  0  0  0  0
    2.6576  -19.7654   21.1497 O   0  0  0  0  0  0  0  0  0  0  0  0
    3.2257  -18.4938   21.1283 C   0  0  0  0  0  0  0  0  0  0  0  0
    4.7084  -18.5344   21.3834 C   0  0  2  0  0  0  0  0  0  0  0  0
    5.3717  -19.3615   20.4053 N   0  0  0  0  0  0  0  0  0  0  0  0
    5.0503  -18.9194   22.7701 C   0  0  0  0  0  0  0  0  0  0  0  0
    4.5650  -18.2698   23.7325 O   0  0  0  0  0  0  0  0  0  0  0  0
    5.9156  -20.0077   23.0411 N   0  0  0  0  0  0  0  0  0  0  0  0
    6.1648  -20.5188   24.3672 C   0  0  0  0  0  0  0  0  0  0  0  0
    7.5159  -20.2475   24.8555 C   0  0  0  0  0  0  0  0  0  0  0  0
    7.9083  -20.7276   26.0932 O   0  0  0  0  0  0  0  0  0  0  0  0
    8.3509  -19.5874   24.1916 O   0  0  0  0  0  0  0  0  0  0  0  0
  2  1  1  1
  2  3  1  0
  3  4  1  0
  4  8  1  0
  5  4  2  0
  5  6  1  0
  6  7  1  0
  8  7  2  0
  9 14  1  0
  9  2  1  0
 10  9  2  0
 12 11  1  0
 13 12  1  1
 13 14  1  0
 15 13  1  0
 15 17  1  0
 16 15  2  0
 18 17  1  0
 18 19  1  0
 19 20  1  0
 21 19  2  0
M  END
$$$$
