HSG.pdb
     RDKit          3D

 21 21  0  0  1  0  0  0  0  0999 V2000
    8.7669  -17.0144   19.9061 N   0  0  0  0  0  0  0  0  0  0  0  0
    9.6434  -16.1898   20.6756 C   0  0  1  0  0  0  0  0  0  0  0  0
    8.9609  -14.9513   21.2353 C   0  0  0  0  0  0  0  0  0  0  0  0
    8.3852  -14.1391   20.1325 C   0  0  0  0  0  0  0  0  0  0  0  0
    9.1256  -13.3800   19.2197 C   0  0  0  0  0  0  0  0  0  0  0  0
    8.2879  -12.7819   18.3695 N   0  0  0  0  0  0  0  0  0  0  0  0
    7.0436  -13.1467   18.7262 C   0  0  0  0  0  0  0  0  0  0  0  0
    7.1015  -13.9777   19.8055 N   0  0  0  0  0  0  0  0  0  0  0  0
   10.2851  -16.9100   21.8117 C   0  0  0  0  0  0  0  0  0  0  0  0
    9.5168  -17.5958   22.5404 O   0  0  0  0  0  0  0  0  0  0  0  0
   14.3808  -16.5563   23.0342 O   0  0  0  0  0  0  0  0  0  0  0  0
   13.7306  -17.7851   22.9490 C   0  0  0  0  0  0  0  0  0  0  0  0
   12.2421  -17.6488   23.1250 C   0  0  2  0  0  0  0  0  0  0  0  0
   11.6762  -16.8399   22.0732 N   0  0  0  0  0  0  0  0  0  0  0  0
   11.8562  -17.1714   24.4709 C   0  0  0  0  0  0  0  0  0  0  0  0
   11.6065  -15.9508   24.6489 O   0  0  0  0  0  0  0  0  0  0  0  0
   11.7608  -18.0607   25.5693 N   0  0  0  0  0  0  0  0  0  0  0  0
   11.3766  -17.6502   26.8981 C   0  0  0  0  0  0  0  0  0  0  0  0
   11.5322  -18.6999   27.9037 C   0  0  0  0  0  0  0  0  0  0  0  0
   11.3277  -18.4059   29.2410 O   0  0  0  0  0  0  0  0  0  0  0  0
   11.8483  -19.8764   27.6043 O   0  0  0  0  0  0  0  0  0  0  0  0
  2  1  1  1
  2  3  1  0
  3  4  1  0
  4  8  1  0
  5  4  2  0
  5  6  1  0
  6  7  1  0
  8  7  2  0
  9 14  1  0
  9  2  1  0
 10  9  2  0
 12 11  1  0
 13 12  1  1
 13 14  1  0
 15 13  1  0
 15 17  1  0
 16 15  2  0
 18 17  1  0
 18 19  1  0
 19 20  1  0
 21 19  2  0
M  END
$$$$
