HSG.pdb
     RDKit          3D

 21 21  0  0  1  0  0  0  0  0999 V2000
   14.4312  -20.1530   32.4277 N   0  0  0  0  0  0  0  0  0  0  0  0
   14.4317  -21.5813   32.4251 C   0  0  1  0  0  0  0  0  0  0  0  0
   15.2191  -22.1809   33.5798 C   0  0  0  0  0  0  0  0  0  0  0  0
   16.6722  -21.9330   33.3944 C   0  0  0  0  0  0  0  0  0  0  0  0
   17.5933  -22.8670   32.9079 C   0  0  0  0  0  0  0  0  0  0  0  0
   18.8048  -22.3070   32.8729 N   0  0  0  0  0  0  0  0  0  0  0  0
   18.6658  -21.0480   33.3245 C   0  0  0  0  0  0  0  0  0  0  0  0
   17.3606  -20.8174   33.6442 N   0  0  0  0  0  0  0  0  0  0  0  0
   13.0635  -22.1719   32.4504 C   0  0  0  0  0  0  0  0  0  0  0  0
   12.2017  -21.5496   33.1298 O   0  0  0  0  0  0  0  0  0  0  0  0
   10.6878  -22.9621   29.6031 O   0  0  0  0  0  0  0  0  0  0  0  0
   10.9168  -24.1219   30.3396 C   0  0  0  0  0  0  0  0  0  0  0  0
   11.3636  -23.8187   31.7445 C   0  0  2  0  0  0  0  0  0  0  0  0
   12.7320  -23.3627   31.7572 N   0  0  0  0  0  0  0  0  0  0  0  0
   11.1355  -24.9394   32.6827 C   0  0  0  0  0  0  0  0  0  0  0  0
   12.1161  -25.6072   33.1025 O   0  0  0  0  0  0  0  0  0  0  0  0
    9.8324  -25.2799   33.1217 N   0  0  0  0  0  0  0  0  0  0  0  0
    9.5501  -26.3896   33.9996 C   0  0  0  0  0  0  0  0  0  0  0  0
    8.1592  -26.4441   34.4465 C   0  0  0  0  0  0  0  0  0  0  0  0
    7.7383  -27.4845   35.2570 O   0  0  0  0  0  0  0  0  0  0  0  0
    7.3144  -25.5750   34.1229 O   0  0  0  0  0  0  0  0  0  0  0  0
  2  1  1  1
  2  3  1  0
  3  4  1  0
  4  8  1  0
  5  4  2  0
  5  6  1  0
  6  7  1  0
  8  7  2  0
  9 14  1  0
  9  2  1  0
 10  9  2  0
 12 11  1  0
 13 12  1  6
 13 14  1  0
 15 13  1  0
 15 17  1  0
 16 15  2  0
 18 17  1  0
 18 19  1  0
 19 20  1  0
 21 19  2  0
M  END
$$$$
