HSG.pdb
     RDKit          3D

 21 21  0  0  1  0  0  0  0  0999 V2000
    7.8061  -16.7954   21.3937 N   0  0  0  0  0  0  0  0  0  0  0  0
    7.9240  -15.5626   22.1053 C   0  0  1  0  0  0  0  0  0  0  0  0
    7.0575  -14.4540   21.5281 C   0  0  0  0  0  0  0  0  0  0  0  0
    7.7168  -13.8522   20.3404 C   0  0  0  0  0  0  0  0  0  0  0  0
    8.9540  -14.2464   19.8196 C   0  0  0  0  0  0  0  0  0  0  0  0
    9.2385  -13.4936   18.7544 N   0  0  0  0  0  0  0  0  0  0  0  0
    8.2122  -12.6392   18.5953 C   0  0  0  0  0  0  0  0  0  0  0  0
    7.2797  -12.8575   19.5657 N   0  0  0  0  0  0  0  0  0  0  0  0
    7.6020  -15.6852   23.5554 C   0  0  0  0  0  0  0  0  0  0  0  0
    6.3762  -15.7102   23.8526 O   0  0  0  0  0  0  0  0  0  0  0  0
    8.1558  -18.3566   25.7748 O   0  0  0  0  0  0  0  0  0  0  0  0
    7.4113  -17.2224   26.0902 C   0  0  0  0  0  0  0  0  0  0  0  0
    8.2142  -15.9592   25.9324 C   0  0  2  0  0  0  0  0  0  0  0  0
    8.6020  -15.7699   24.5560 N   0  0  0  0  0  0  0  0  0  0  0  0
    9.3665  -15.8824   26.8569 C   0  0  0  0  0  0  0  0  0  0  0  0
   10.3417  -16.6622   26.6998 O   0  0  0  0  0  0  0  0  0  0  0  0
    9.3977  -14.9468   27.9200 N   0  0  0  0  0  0  0  0  0  0  0  0
    9.2798  -15.3139   29.3105 C   0  0  0  0  0  0  0  0  0  0  0  0
   10.2873  -16.2781   29.7494 C   0  0  0  0  0  0  0  0  0  0  0  0
   10.1495  -17.6149   29.4170 O   0  0  0  0  0  0  0  0  0  0  0  0
   11.2891  -15.9429   30.4260 O   0  0  0  0  0  0  0  0  0  0  0  0
  2  1  1  6
  2  3  1  0
  3  4  1  0
  4  8  1  0
  5  4  2  0
  5  6  1  0
  6  7  1  0
  8  7  2  0
  9 14  1  0
  9  2  1  0
 10  9  2  0
 12 11  1  0
 13 12  1  6
 13 14  1  0
 15 13  1  0
 15 17  1  0
 16 15  2  0
 18 17  1  0
 18 19  1  0
 19 20  1  0
 21 19  2  0
M  END
$$$$
