HSG.pdb
     RDKit          3D

 21 21  0  0  1  0  0  0  0  0999 V2000
   15.0780  -13.0202   17.4043 N   0  0  0  0  0  0  0  0  0  0  0  0
   15.4348  -14.3800   17.1516 C   0  0  1  0  0  0  0  0  0  0  0  0
   16.9292  -14.5784   16.9510 C   0  0  0  0  0  0  0  0  0  0  0  0
   17.3535  -14.0039   15.6482 C   0  0  0  0  0  0  0  0  0  0  0  0
   17.2613  -14.6539   14.4127 C   0  0  0  0  0  0  0  0  0  0  0  0
   17.7320  -13.8467   13.4592 N   0  0  0  0  0  0  0  0  0  0  0  0
   18.1160  -12.7093   14.0655 C   0  0  0  0  0  0  0  0  0  0  0  0
   17.8849  -12.8040   15.4059 N   0  0  0  0  0  0  0  0  0  0  0  0
   14.9900  -15.3156   18.2232 C   0  0  0  0  0  0  0  0  0  0  0  0
   15.0934  -14.8939   19.4077 O   0  0  0  0  0  0  0  0  0  0  0  0
   13.1775  -19.1720   17.6176 O   0  0  0  0  0  0  0  0  0  0  0  0
   12.9200  -18.3132   18.6836 C   0  0  0  0  0  0  0  0  0  0  0  0
   14.1214  -17.4791   19.0385 C   0  0  2  0  0  0  0  0  0  0  0  0
   14.4780  -16.6076   17.9458 N   0  0  0  0  0  0  0  0  0  0  0  0
   15.2685  -18.2831   19.5140 C   0  0  0  0  0  0  0  0  0  0  0  0
   16.1880  -18.5885   18.7109 O   0  0  0  0  0  0  0  0  0  0  0  0
   15.3563  -18.7191   20.8588 N   0  0  0  0  0  0  0  0  0  0  0  0
   16.4276  -19.5440   21.3626 C   0  0  0  0  0  0  0  0  0  0  0  0
   16.3296  -19.8219   22.7945 C   0  0  0  0  0  0  0  0  0  0  0  0
   17.2144  -20.7084   23.3844 O   0  0  0  0  0  0  0  0  0  0  0  0
   15.4645  -19.2836   23.5263 O   0  0  0  0  0  0  0  0  0  0  0  0
  2  1  1  1
  2  3  1  0
  3  4  1  0
  4  8  1  0
  5  4  2  0
  5  6  1  0
  6  7  1  0
  8  7  2  0
  9 14  1  0
  9  2  1  0
 10  9  2  0
 12 11  1  0
 13 12  1  6
 13 14  1  0
 15 13  1  0
 15 17  1  0
 16 15  2  0
 18 17  1  0
 18 19  1  0
 19 20  1  0
 21 19  2  0
M  END
$$$$
