HSG.pdb
     RDKit          3D

 21 21  0  0  1  0  0  0  0  0999 V2000
    6.3516  -16.3541   20.8705 N   0  0  0  0  0  0  0  0  0  0  0  0
    7.3877  -15.7447   21.6420 C   0  0  1  0  0  0  0  0  0  0  0  0
    7.4269  -14.2310   21.5004 C   0  0  0  0  0  0  0  0  0  0  0  0
    7.8081  -13.8542   20.1147 C   0  0  0  0  0  0  0  0  0  0  0  0
    7.1997  -12.8475   19.3572 C   0  0  0  0  0  0  0  0  0  0  0  0
    7.7926  -12.7819   18.1629 N   0  0  0  0  0  0  0  0  0  0  0  0
    8.7555  -13.7207   18.1534 C   0  0  0  0  0  0  0  0  0  0  0  0
    8.7663  -14.3781   19.3478 N   0  0  0  0  0  0  0  0  0  0  0  0
    7.3074  -16.0651   23.0954 C   0  0  0  0  0  0  0  0  0  0  0  0
    6.5078  -15.3656   23.7757 O   0  0  0  0  0  0  0  0  0  0  0  0
    7.6087  -19.7083   24.8279 O   0  0  0  0  0  0  0  0  0  0  0  0
    7.0633  -18.5404   25.3556 C   0  0  0  0  0  0  0  0  0  0  0  0
    7.9443  -17.3453   25.1093 C   0  0  2  0  0  0  0  0  0  0  0  0
    8.0774  -17.0926   23.6953 N   0  0  0  0  0  0  0  0  0  0  0  0
    9.2546  -17.4377   25.7897 C   0  0  0  0  0  0  0  0  0  0  0  0
   10.3036  -17.1439   25.1596 O   0  0  0  0  0  0  0  0  0  0  0  0
    9.3562  -17.8512   27.1407 N   0  0  0  0  0  0  0  0  0  0  0  0
   10.6121  -18.0528   27.8218 C   0  0  0  0  0  0  0  0  0  0  0  0
   10.4637  -18.5311   29.1953 C   0  0  0  0  0  0  0  0  0  0  0  0
   11.5865  -18.7129   29.9845 O   0  0  0  0  0  0  0  0  0  0  0  0
    9.3447  -18.7891   29.7003 O   0  0  0  0  0  0  0  0  0  0  0  0
  2  1  1  6
  2  3  1  0
  3  4  1  0
  4  8  1  0
  5  4  2  0
  5  6  1  0
  6  7  1  0
  8  7  2  0
  9 14  1  0
  9  2  1  0
 10  9  2  0
 12 11  1  0
 13 12  1  6
 13 14  1  0
 15 13  1  0
 15 17  1  0
 16 15  2  0
 18 17  1  0
 18 19  1  0
 19 20  1  0
 21 19  2  0
M  END
$$$$
