HSG.pdb
     RDKit          3D

 21 21  0  0  1  0  0  0  0  0999 V2000
    8.0551  -12.7901   16.6366 N   0  0  0  0  0  0  0  0  0  0  0  0
    8.6015  -14.0087   17.1431 C   0  0  1  0  0  0  0  0  0  0  0  0
    9.3782  -14.7952   16.0986 C   0  0  0  0  0  0  0  0  0  0  0  0
    8.4821  -15.1899   14.9813 C   0  0  0  0  0  0  0  0  0  0  0  0
    7.5379  -16.2212   15.0316 C   0  0  0  0  0  0  0  0  0  0  0  0
    6.9125  -16.2976   13.8546 N   0  0  0  0  0  0  0  0  0  0  0  0
    7.4404  -15.3416   13.0697 C   0  0  0  0  0  0  0  0  0  0  0  0
    8.4015  -14.6626   13.7581 N   0  0  0  0  0  0  0  0  0  0  0  0
    9.4926  -13.8110   18.3214 C   0  0  0  0  0  0  0  0  0  0  0  0
   10.3126  -12.8553   18.2443 O   0  0  0  0  0  0  0  0  0  0  0  0
    9.0871  -15.6775   22.1167 O   0  0  0  0  0  0  0  0  0  0  0  0
    9.7473  -14.4762   21.8696 C   0  0  0  0  0  0  0  0  0  0  0  0
   10.4110  -14.4651   20.5188 C   0  0  2  0  0  0  0  0  0  0  0  0
    9.4359  -14.6390   19.4701 N   0  0  0  0  0  0  0  0  0  0  0  0
   11.5296  -15.4271   20.4117 C   0  0  0  0  0  0  0  0  0  0  0  0
   11.3352  -16.5481   19.8738 O   0  0  0  0  0  0  0  0  0  0  0  0
   12.8208  -15.1142   20.9031 N   0  0  0  0  0  0  0  0  0  0  0  0
   13.9052  -16.0643   20.9607 C   0  0  0  0  0  0  0  0  0  0  0  0
   15.1536  -15.4985   21.4695 C   0  0  0  0  0  0  0  0  0  0  0  0
   16.2524  -16.3189   21.6595 O   0  0  0  0  0  0  0  0  0  0  0  0
   15.2764  -14.2812   21.7467 O   0  0  0  0  0  0  0  0  0  0  0  0
  2  1  1  6
  2  3  1  0
  3  4  1  0
  4  8  1  0
  5  4  2  0
  5  6  1  0
  6  7  1  0
  8  7  2  0
  9 14  1  0
  9  2  1  0
 10  9  2  0
 12 11  1  0
 13 12  1  1
 13 14  1  0
 15 13  1  0
 15 17  1  0
 16 15  2  0
 18 17  1  0
 18 19  1  0
 19 20  1  0
 21 19  2  0
M  END
$$$$
