MND.pdb
     RDKit          3D

 25 24  0  0  1  0  0  0  0  0999 V2000
    7.3534  -10.8134   27.2742 C   0  0  0  0  0  0  0  0  0  0  0  0
    6.0271  -11.1486   26.0594 S   0  0  0  0  0  0  0  0  0  0  0  0
    6.6517  -12.3698   24.9080 C   0  0  0  0  0  0  0  0  0  0  0  0
    7.1011  -13.6401   25.5767 C   0  0  0  0  0  0  0  0  0  0  0  0
    7.8413  -14.5712   24.6694 C   0  0  2  0  0  0  0  0  0  0  0  0
    7.1405  -14.8214   23.4379 N   0  0  0  0  0  0  0  0  0  0  0  0
    8.0688  -15.8182   25.4464 C   0  0  0  0  0  0  0  0  0  0  0  0
    7.4621  -15.9565   26.5354 O   0  0  0  0  0  0  0  0  0  0  0  0
    7.3771  -20.9228   24.6733 N   0  0  0  0  0  0  0  0  0  0  0  0
    6.6844  -19.7552   24.2660 C   0  0  0  0  0  0  0  0  0  0  0  0
    5.5514  -19.9824   23.7056 O   0  0  0  0  0  0  0  0  0  0  0  0
    7.1642  -18.3685   24.4398 C   0  0  0  0  0  0  0  0  0  0  0  0
    8.5488  -18.2539   25.0208 C   0  0  2  0  0  0  0  0  0  0  0  0
    8.9308  -16.8748   25.0426 N   0  0  0  0  0  0  0  0  0  0  0  0
    9.5295  -19.1516   24.3830 C   0  0  0  0  0  0  0  0  0  0  0  0
    9.3638  -20.4159   24.4465 O   0  0  0  0  0  0  0  0  0  0  0  0
   10.6896  -18.7349   23.6772 N   0  0  0  0  0  0  0  0  0  0  0  0
   11.9400  -18.3713   24.3959 C   0  0  1  0  0  0  0  0  0  0  0  0
   12.1110  -16.9103   24.1546 C   0  0  0  0  0  0  0  0  0  0  0  0
   13.1988  -16.5073   23.2772 C   0  0  0  0  0  0  0  0  0  0  0  0
   13.5630  -17.2925   22.3671 O   0  0  0  0  0  0  0  0  0  0  0  0
   11.8197  -18.7746   25.7994 C   0  0  0  0  0  0  0  0  0  0  0  0
   10.8011  -18.5514   26.4635 O   0  0  0  0  0  0  0  0  0  0  0  0
   13.8525  -15.3014   23.3989 O   0  0  0  0  0  0  0  0  0  0  0  0
   12.8715  -19.4272   26.4145 O   0  0  0  0  0  0  0  0  0  0  0  0
  1  2  1  0
  3  2  1  0
  4  5  1  0
  4  3  1  0
  5  6  1  6
  7  5  1  0
  7  8  2  0
  9 10  1  0
 10 11  2  0
 12 10  1  0
 13 12  1  6
 13 14  1  0
 14  7  1  0
 15 13  1  0
 16 15  2  0
 17 15  1  0
 18 17  1  0
 18 22  1  0
 18 19  1  1
 20 19  1  0
 20 24  1  0
 21 20  2  0
 22 23  2  0
 22 25  1  0
M  END
$$$$
