MND.pdb
     RDKit          3D

 25 24  0  0  1  0  0  0  0  0999 V2000
    5.7556  -11.4656   27.0056 C   0  0  0  0  0  0  0  0  0  0  0  0
    7.5260  -11.8850   27.1982 S   0  0  0  0  0  0  0  0  0  0  0  0
    7.7366  -13.5794   26.6578 C   0  0  0  0  0  0  0  0  0  0  0  0
    7.2189  -13.8271   25.2674 C   0  0  0  0  0  0  0  0  0  0  0  0
    7.7158  -15.0986   24.6554 C   0  0  2  0  0  0  0  0  0  0  0  0
    8.7405  -15.7312   25.4428 N   0  0  0  0  0  0  0  0  0  0  0  0
    8.1953  -14.7466   23.2928 C   0  0  0  0  0  0  0  0  0  0  0  0
    9.0854  -13.8694   23.1865 O   0  0  0  0  0  0  0  0  0  0  0  0
    9.0425  -12.0511   18.7990 N   0  0  0  0  0  0  0  0  0  0  0  0
    8.1549  -13.1056   19.1291 C   0  0  0  0  0  0  0  0  0  0  0  0
    7.6176  -13.6803   18.1140 O   0  0  0  0  0  0  0  0  0  0  0  0
    7.8304  -13.5570   20.4982 C   0  0  0  0  0  0  0  0  0  0  0  0
    8.1905  -14.9907   20.7859 C   0  0  2  0  0  0  0  0  0  0  0  0
    7.7153  -15.3361   22.0909 N   0  0  0  0  0  0  0  0  0  0  0  0
    9.6135  -15.2973   20.5507 C   0  0  0  0  0  0  0  0  0  0  0  0
   10.1190  -15.1039   19.3943 O   0  0  0  0  0  0  0  0  0  0  0  0
   10.5164  -15.8094   21.5203 N   0  0  0  0  0  0  0  0  0  0  0  0
   11.9245  -16.1330   21.1672 C   0  0  1  0  0  0  0  0  0  0  0  0
   12.5506  -14.8201   20.8414 C   0  0  0  0  0  0  0  0  0  0  0  0
   13.9757  -14.8205   20.5506 C   0  0  0  0  0  0  0  0  0  0  0  0
   14.3540  -15.0918   19.3841 O   0  0  0  0  0  0  0  0  0  0  0  0
   12.5373  -16.8731   22.2735 C   0  0  0  0  0  0  0  0  0  0  0  0
   11.9147  -17.1496   23.3053 O   0  0  0  0  0  0  0  0  0  0  0  0
   14.9342  -14.5383   21.4983 O   0  0  0  0  0  0  0  0  0  0  0  0
   13.8537  -17.2823   22.1745 O   0  0  0  0  0  0  0  0  0  0  0  0
  1  2  1  0
  3  2  1  0
  4  5  1  0
  4  3  1  0
  5  6  1  1
  7  5  1  0
  7  8  2  0
  9 10  1  0
 10 11  2  0
 12 10  1  0
 13 12  1  1
 13 14  1  0
 14  7  1  0
 15 13  1  0
 16 15  2  0
 17 15  1  0
 18 17  1  0
 18 22  1  0
 18 19  1  1
 20 19  1  0
 20 24  1  0
 21 20  2  0
 22 23  2  0
 22 25  1  0
M  END
$$$$
