MND.pdb
     RDKit          3D

 25 24  0  0  1  0  0  0  0  0999 V2000
    8.8917  -12.3762   26.9298 C   0  0  0  0  0  0  0  0  0  0  0  0
    7.0694  -12.5025   26.8274 S   0  0  0  0  0  0  0  0  0  0  0  0
    6.6660  -13.1136   25.1931 C   0  0  0  0  0  0  0  0  0  0  0  0
    7.5115  -14.2844   24.7723 C   0  0  0  0  0  0  0  0  0  0  0  0
    7.3220  -14.6838   23.3431 C   0  0  2  0  0  0  0  0  0  0  0  0
    5.9365  -14.8443   22.9898 N   0  0  0  0  0  0  0  0  0  0  0  0
    8.0961  -15.9390   23.1542 C   0  0  0  0  0  0  0  0  0  0  0  0
    7.5985  -17.0106   23.5751 O   0  0  0  0  0  0  0  0  0  0  0  0
    9.9347  -15.9377   18.9213 N   0  0  0  0  0  0  0  0  0  0  0  0
    9.7887  -16.9636   19.8882 C   0  0  0  0  0  0  0  0  0  0  0  0
    8.7316  -17.6784   19.7436 O   0  0  0  0  0  0  0  0  0  0  0  0
   10.7309  -17.2429   20.9917 C   0  0  0  0  0  0  0  0  0  0  0  0
   10.1094  -17.2294   22.3633 C   0  0  2  0  0  0  0  0  0  0  0  0
    9.3698  -16.0150   22.5263 N   0  0  0  0  0  0  0  0  0  0  0  0
   11.0698  -17.5122   23.4460 C   0  0  0  0  0  0  0  0  0  0  0  0
   11.7563  -18.5882   23.4168 O   0  0  0  0  0  0  0  0  0  0  0  0
   11.3175  -16.6746   24.5661 N   0  0  0  0  0  0  0  0  0  0  0  0
   12.2266  -17.1029   25.6626 C   0  0  1  0  0  0  0  0  0  0  0  0
   13.3182  -16.0879   25.6754 C   0  0  0  0  0  0  0  0  0  0  0  0
   14.2050  -16.0552   24.5229 C   0  0  0  0  0  0  0  0  0  0  0  0
   14.0578  -16.9188   23.6230 O   0  0  0  0  0  0  0  0  0  0  0  0
   11.4561  -17.2244   26.9030 C   0  0  0  0  0  0  0  0  0  0  0  0
   10.2590  -16.9221   26.9666 O   0  0  0  0  0  0  0  0  0  0  0  0
   15.2039  -15.1194   24.3721 O   0  0  0  0  0  0  0  0  0  0  0  0
   12.0746  -17.6910   28.0476 O   0  0  0  0  0  0  0  0  0  0  0  0
  1  2  1  0
  3  2  1  0
  4  5  1  0
  4  3  1  0
  5  6  1  1
  7  5  1  0
  7  8  2  0
  9 10  1  0
 10 11  2  0
 12 10  1  0
 13 12  1  6
 13 14  1  0
 14  7  1  0
 15 13  1  0
 16 15  2  0
 17 15  1  0
 18 17  1  0
 18 22  1  0
 18 19  1  1
 20 19  1  0
 20 24  1  0
 21 20  2  0
 22 23  2  0
 22 25  1  0
M  END
$$$$
