MND.pdb
     RDKit          3D

 25 24  0  0  1  0  0  0  0  0999 V2000
    7.7050  -12.3957   21.0378 C   0  0  0  0  0  0  0  0  0  0  0  0
    8.0481  -12.0845   19.2678 S   0  0  0  0  0  0  0  0  0  0  0  0
    9.1341  -13.3884   18.6957 C   0  0  0  0  0  0  0  0  0  0  0  0
    8.3946  -14.5897   18.1734 C   0  0  0  0  0  0  0  0  0  0  0  0
    8.9116  -15.8922   18.6973 C   0  0  2  0  0  0  0  0  0  0  0  0
    8.5169  -16.1398   20.0586 N   0  0  0  0  0  0  0  0  0  0  0  0
   10.3897  -15.8470   18.5432 C   0  0  0  0  0  0  0  0  0  0  0  0
   10.8623  -15.7766   17.3836 O   0  0  0  0  0  0  0  0  0  0  0  0
   15.5667  -13.8191   19.7793 N   0  0  0  0  0  0  0  0  0  0  0  0
   14.5791  -14.2357   18.8520 C   0  0  0  0  0  0  0  0  0  0  0  0
   15.0280  -14.4661   17.6709 O   0  0  0  0  0  0  0  0  0  0  0  0
   13.1424  -14.4108   19.1494 C   0  0  0  0  0  0  0  0  0  0  0  0
   12.7358  -15.8274   19.4592 C   0  0  2  0  0  0  0  0  0  0  0  0
   11.3150  -15.8778   19.6227 N   0  0  0  0  0  0  0  0  0  0  0  0
   13.5020  -16.4296   20.5659 C   0  0  0  0  0  0  0  0  0  0  0  0
   14.7768  -16.4665   20.5054 O   0  0  0  0  0  0  0  0  0  0  0  0
   12.9420  -16.9983   21.7408 N   0  0  0  0  0  0  0  0  0  0  0  0
   13.8011  -17.6415   22.7706 C   0  0  1  0  0  0  0  0  0  0  0  0
   14.2372  -18.9285   22.1580 C   0  0  0  0  0  0  0  0  0  0  0  0
   14.7609  -19.9453   23.0567 C   0  0  0  0  0  0  0  0  0  0  0  0
   14.8040  -19.6991   24.2875 O   0  0  0  0  0  0  0  0  0  0  0  0
   14.8757  -16.7174   23.1426 C   0  0  0  0  0  0  0  0  0  0  0  0
   15.5408  -16.1071   22.2978 O   0  0  0  0  0  0  0  0  0  0  0  0
   15.2156  -21.1696   22.6198 O   0  0  0  0  0  0  0  0  0  0  0  0
   15.1666  -16.5110   24.4779 O   0  0  0  0  0  0  0  0  0  0  0  0
  1  2  1  0
  3  2  1  0
  4  5  1  0
  4  3  1  0
  5  6  1  1
  7  5  1  0
  7  8  2  0
  9 10  1  0
 10 11  2  0
 12 10  1  0
 13 12  1  1
 13 14  1  0
 14  7  1  0
 15 13  1  0
 16 15  2  0
 17 15  1  0
 18 17  1  0
 18 22  1  0
 18 19  1  6
 20 19  1  0
 20 24  1  0
 21 20  2  0
 22 23  2  0
 22 25  1  0
M  END
$$$$
