MND.pdb
     RDKit          3D

 25 24  0  0  1  0  0  0  0  0999 V2000
    7.0372  -12.8057   27.5514 C   0  0  0  0  0  0  0  0  0  0  0  0
    6.2951  -11.7654   26.2421 S   0  0  0  0  0  0  0  0  0  0  0  0
    7.0509  -12.2392   24.6892 C   0  0  0  0  0  0  0  0  0  0  0  0
    7.3564  -13.7096   24.6026 C   0  0  0  0  0  0  0  0  0  0  0  0
    8.0715  -14.1051   23.3495 C   0  0  2  0  0  0  0  0  0  0  0  0
    7.4132  -13.6317   22.1608 N   0  0  0  0  0  0  0  0  0  0  0  0
    8.1749  -15.5880   23.3782 C   0  0  0  0  0  0  0  0  0  0  0  0
    7.1222  -16.2577   23.2507 O   0  0  0  0  0  0  0  0  0  0  0  0
    7.9619  -20.4676   22.0572 N   0  0  0  0  0  0  0  0  0  0  0  0
    8.9546  -19.5249   21.6901 C   0  0  0  0  0  0  0  0  0  0  0  0
    9.9373  -20.0233   21.0304 O   0  0  0  0  0  0  0  0  0  0  0  0
    8.9253  -18.0816   22.0051 C   0  0  0  0  0  0  0  0  0  0  0  0
    9.5134  -17.7214   23.3439 C   0  0  2  0  0  0  0  0  0  0  0  0
    9.3897  -16.3093   23.5409 N   0  0  0  0  0  0  0  0  0  0  0  0
   10.8736  -18.2523   23.5498 C   0  0  0  0  0  0  0  0  0  0  0  0
   11.3770  -19.0512   22.6905 O   0  0  0  0  0  0  0  0  0  0  0  0
   11.7151  -17.9540   24.6545 N   0  0  0  0  0  0  0  0  0  0  0  0
   13.1957  -17.9389   24.5135 C   0  0  1  0  0  0  0  0  0  0  0  0
   13.4709  -16.9228   23.4582 C   0  0  0  0  0  0  0  0  0  0  0  0
   14.8601  -16.5465   23.2481 C   0  0  0  0  0  0  0  0  0  0  0  0
   15.7071  -17.4517   23.0465 O   0  0  0  0  0  0  0  0  0  0  0  0
   13.7984  -17.6758   25.8229 C   0  0  0  0  0  0  0  0  0  0  0  0
   15.0197  -17.7290   26.0081 O   0  0  0  0  0  0  0  0  0  0  0  0
   15.2930  -15.2393   23.2618 O   0  0  0  0  0  0  0  0  0  0  0  0
   12.9876  -17.3561   26.8956 O   0  0  0  0  0  0  0  0  0  0  0  0
  1  2  1  0
  3  2  1  0
  4  5  1  0
  4  3  1  0
  5  6  1  6
  7  5  1  0
  7  8  2  0
  9 10  1  0
 10 11  2  0
 12 10  1  0
 13 12  1  6
 13 14  1  0
 14  7  1  0
 15 13  1  0
 16 15  2  0
 17 15  1  0
 18 17  1  0
 18 22  1  0
 18 19  1  6
 20 19  1  0
 20 24  1  0
 21 20  2  0
 22 23  2  0
 22 25  1  0
M  END
$$$$
