MND.pdb
     RDKit          3D

 25 24  0  0  1  0  0  0  0  0999 V2000
    6.4506  -12.7294   28.4527 C   0  0  0  0  0  0  0  0  0  0  0  0
    7.0099  -11.8229   26.9651 S   0  0  0  0  0  0  0  0  0  0  0  0
    5.8236  -12.1470   25.6632 C   0  0  0  0  0  0  0  0  0  0  0  0
    6.0972  -13.4236   24.9160 C   0  0  0  0  0  0  0  0  0  0  0  0
    7.5402  -13.8178   24.9016 C   0  0  2  0  0  0  0  0  0  0  0  0
    8.4220  -12.6932   24.7336 N   0  0  0  0  0  0  0  0  0  0  0  0
    7.6900  -14.8138   23.8079 C   0  0  0  0  0  0  0  0  0  0  0  0
    7.0177  -15.8706   23.8732 O   0  0  0  0  0  0  0  0  0  0  0  0
    7.6479  -12.8012   19.8625 N   0  0  0  0  0  0  0  0  0  0  0  0
    7.5775  -14.1950   20.1096 C   0  0  0  0  0  0  0  0  0  0  0  0
    6.3838  -14.6688   20.1231 O   0  0  0  0  0  0  0  0  0  0  0  0
    8.7343  -15.0851   20.3394 C   0  0  0  0  0  0  0  0  0  0  0  0
    8.7989  -15.6830   21.7201 C   0  0  2  0  0  0  0  0  0  0  0  0
    8.5464  -14.6553   22.6836 N   0  0  0  0  0  0  0  0  0  0  0  0
   10.0251  -16.4647   21.9648 C   0  0  0  0  0  0  0  0  0  0  0  0
   10.8507  -16.6605   21.0107 O   0  0  0  0  0  0  0  0  0  0  0  0
   10.3954  -17.0481   23.2057 N   0  0  0  0  0  0  0  0  0  0  0  0
   11.7958  -17.4742   23.4697 C   0  0  1  0  0  0  0  0  0  0  0  0
   12.6308  -16.2916   23.1143 C   0  0  0  0  0  0  0  0  0  0  0  0
   14.0254  -16.5410   22.7850 C   0  0  0  0  0  0  0  0  0  0  0  0
   14.3054  -17.5120   22.0392 O   0  0  0  0  0  0  0  0  0  0  0  0
   11.9025  -17.9348   24.8566 C   0  0  0  0  0  0  0  0  0  0  0  0
   11.3488  -17.3440   25.7909 O   0  0  0  0  0  0  0  0  0  0  0  0
   15.0579  -15.7609   23.2559 O   0  0  0  0  0  0  0  0  0  0  0  0
   12.6431  -19.0656   25.1451 O   0  0  0  0  0  0  0  0  0  0  0  0
  1  2  1  0
  3  2  1  0
  4  5  1  0
  4  3  1  0
  5  6  1  6
  7  5  1  0
  7  8  2  0
  9 10  1  0
 10 11  2  0
 12 10  1  0
 13 12  1  6
 13 14  1  0
 14  7  1  0
 15 13  1  0
 16 15  2  0
 17 15  1  0
 18 17  1  0
 18 22  1  0
 18 19  1  1
 20 19  1  0
 20 24  1  0
 21 20  2  0
 22 23  2  0
 22 25  1  0
M  END
$$$$
