MND.pdb
     RDKit          3D

 25 24  0  0  1  0  0  0  0  0999 V2000
    7.4926  -10.9421   26.5114 C   0  0  0  0  0  0  0  0  0  0  0  0
    5.8427  -11.6390   26.8846 S   0  0  0  0  0  0  0  0  0  0  0  0
    5.9866  -13.4227   26.8147 C   0  0  0  0  0  0  0  0  0  0  0  0
    6.3423  -13.9358   25.4461 C   0  0  0  0  0  0  0  0  0  0  0  0
    7.3839  -15.0096   25.4555 C   0  0  2  0  0  0  0  0  0  0  0  0
    8.6184  -14.5813   26.0579 N   0  0  0  0  0  0  0  0  0  0  0  0
    7.5674  -15.4256   24.0400 C   0  0  0  0  0  0  0  0  0  0  0  0
    6.6230  -16.0238   23.4714 O   0  0  0  0  0  0  0  0  0  0  0  0
    6.6022  -14.3821   20.9942 N   0  0  0  0  0  0  0  0  0  0  0  0
    7.9769  -14.0520   20.8949 C   0  0  0  0  0  0  0  0  0  0  0  0
    8.2105  -12.7946   20.7772 O   0  0  0  0  0  0  0  0  0  0  0  0
    9.0950  -15.0177   20.9182 C   0  0  0  0  0  0  0  0  0  0  0  0
    9.1002  -15.9401   22.1087 C   0  0  2  0  0  0  0  0  0  0  0  0
    8.7445  -15.1932   23.2766 N   0  0  0  0  0  0  0  0  0  0  0  0
   10.3416  -16.7254   22.2377 C   0  0  0  0  0  0  0  0  0  0  0  0
   10.7140  -17.4811   21.2784 O   0  0  0  0  0  0  0  0  0  0  0  0
   11.2000  -16.7280   23.3693 N   0  0  0  0  0  0  0  0  0  0  0  0
   12.2786  -17.7416   23.5162 C   0  0  1  0  0  0  0  0  0  0  0  0
   13.5077  -16.9541   23.8177 C   0  0  0  0  0  0  0  0  0  0  0  0
   13.9082  -15.9529   22.8415 C   0  0  0  0  0  0  0  0  0  0  0  0
   13.7485  -16.2018   21.6209 O   0  0  0  0  0  0  0  0  0  0  0  0
   11.8825  -18.7177   24.5347 C   0  0  0  0  0  0  0  0  0  0  0  0
   10.8123  -18.6318   25.1479 O   0  0  0  0  0  0  0  0  0  0  0  0
   14.4586  -14.7407   23.1936 O   0  0  0  0  0  0  0  0  0  0  0  0
   12.7226  -19.7746   24.8303 O   0  0  0  0  0  0  0  0  0  0  0  0
  1  2  1  0
  3  2  1  0
  4  5  1  0
  4  3  1  0
  5  6  1  6
  7  5  1  0
  7  8  2  0
  9 10  1  0
 10 11  2  0
 12 10  1  0
 13 12  1  6
 13 14  1  0
 14  7  1  0
 15 13  1  0
 16 15  2  0
 17 15  1  0
 18 17  1  0
 18 22  1  0
 18 19  1  1
 20 19  1  0
 20 24  1  0
 21 20  2  0
 22 23  2  0
 22 25  1  0
M  END
$$$$
