MND.pdb
     RDKit          3D

 25 24  0  0  1  0  0  0  0  0999 V2000
    6.0265  -11.3288   28.0302 C   0  0  0  0  0  0  0  0  0  0  0  0
    6.3759  -12.7605   26.9461 S   0  0  0  0  0  0  0  0  0  0  0  0
    6.4292  -12.1559   25.2612 C   0  0  0  0  0  0  0  0  0  0  0  0
    6.5321  -13.2553   24.2396 C   0  0  0  0  0  0  0  0  0  0  0  0
    7.5613  -14.2903   24.5675 C   0  0  2  0  0  0  0  0  0  0  0  0
    8.7568  -13.7252   25.1348 N   0  0  0  0  0  0  0  0  0  0  0  0
    7.8348  -15.0224   23.3027 C   0  0  0  0  0  0  0  0  0  0  0  0
    6.9514  -15.7973   22.8641 O   0  0  0  0  0  0  0  0  0  0  0  0
    8.2464  -12.6669   19.9639 N   0  0  0  0  0  0  0  0  0  0  0  0
    8.2998  -14.0819   19.9016 C   0  0  0  0  0  0  0  0  0  0  0  0
    7.1957  -14.6367   19.5514 O   0  0  0  0  0  0  0  0  0  0  0  0
    9.4870  -14.9095   20.1996 C   0  0  0  0  0  0  0  0  0  0  0  0
    9.3656  -15.7535   21.4410 C   0  0  2  0  0  0  0  0  0  0  0  0
    9.0340  -14.9079   22.5470 N   0  0  0  0  0  0  0  0  0  0  0  0
   10.5267  -16.6335   21.6686 C   0  0  0  0  0  0  0  0  0  0  0  0
   10.8837  -17.4565   20.7601 O   0  0  0  0  0  0  0  0  0  0  0  0
   11.3203  -16.6610   22.8463 N   0  0  0  0  0  0  0  0  0  0  0  0
   12.3056  -17.7490   23.0865 C   0  0  1  0  0  0  0  0  0  0  0  0
   13.5783  -17.0483   23.4195 C   0  0  0  0  0  0  0  0  0  0  0  0
   14.0967  -16.1132   22.4333 C   0  0  0  0  0  0  0  0  0  0  0  0
   13.8508  -16.3184   21.2189 O   0  0  0  0  0  0  0  0  0  0  0  0
   11.7843  -18.6471   24.1203 C   0  0  0  0  0  0  0  0  0  0  0  0
   10.7432  -18.4027   24.7407 O   0  0  0  0  0  0  0  0  0  0  0  0
   14.8491  -15.0099   22.7693 O   0  0  0  0  0  0  0  0  0  0  0  0
   12.4681  -19.8096   24.4225 O   0  0  0  0  0  0  0  0  0  0  0  0
  1  2  1  0
  3  2  1  0
  4  5  1  0
  4  3  1  0
  5  6  1  6
  7  5  1  0
  7  8  2  0
  9 10  1  0
 10 11  2  0
 12 10  1  0
 13 12  1  6
 13 14  1  0
 14  7  1  0
 15 13  1  0
 16 15  2  0
 17 15  1  0
 18 17  1  0
 18 22  1  0
 18 19  1  1
 20 19  1  0
 20 24  1  0
 21 20  2  0
 22 23  2  0
 22 25  1  0
M  END
$$$$
