MND.pdb
     RDKit          3D

 25 24  0  0  1  0  0  0  0  0999 V2000
    6.6285  -11.5729   26.2911 C   0  0  0  0  0  0  0  0  0  0  0  0
    6.0455  -13.2513   25.8549 S   0  0  0  0  0  0  0  0  0  0  0  0
    7.4350  -14.3657   26.0405 C   0  0  0  0  0  0  0  0  0  0  0  0
    7.0788  -15.8051   25.7875 C   0  0  0  0  0  0  0  0  0  0  0  0
    6.3134  -16.0243   24.5209 C   0  0  2  0  0  0  0  0  0  0  0  0
    5.3912  -17.1250   24.6121 N   0  0  0  0  0  0  0  0  0  0  0  0
    7.3258  -16.2305   23.4517 C   0  0  0  0  0  0  0  0  0  0  0  0
    7.6009  -17.4071   23.1155 O   0  0  0  0  0  0  0  0  0  0  0  0
    6.8060  -14.3837   20.0181 N   0  0  0  0  0  0  0  0  0  0  0  0
    8.0026  -13.6488   20.2097 C   0  0  0  0  0  0  0  0  0  0  0  0
    8.0135  -12.4994   19.6366 O   0  0  0  0  0  0  0  0  0  0  0  0
    9.1735  -14.1036   20.9879 C   0  0  0  0  0  0  0  0  0  0  0  0
    8.9662  -15.3963   21.7320 C   0  0  2  0  0  0  0  0  0  0  0  0
    8.0110  -15.1832   22.7763 N   0  0  0  0  0  0  0  0  0  0  0  0
   10.2235  -16.0293   22.1711 C   0  0  0  0  0  0  0  0  0  0  0  0
   11.1584  -16.2313   21.3253 O   0  0  0  0  0  0  0  0  0  0  0  0
   10.5114  -16.4569   23.4946 N   0  0  0  0  0  0  0  0  0  0  0  0
   11.7335  -17.2475   23.8005 C   0  0  1  0  0  0  0  0  0  0  0  0
   11.6605  -17.5169   25.2648 C   0  0  0  0  0  0  0  0  0  0  0  0
   11.7830  -16.3732   26.1550 C   0  0  0  0  0  0  0  0  0  0  0  0
   12.2763  -15.3089   25.7063 O   0  0  0  0  0  0  0  0  0  0  0  0
   11.7667  -18.4307   22.9367 C   0  0  0  0  0  0  0  0  0  0  0  0
   10.7534  -19.0951   22.6913 O   0  0  0  0  0  0  0  0  0  0  0  0
   11.3841  -16.4028   27.4727 O   0  0  0  0  0  0  0  0  0  0  0  0
   12.9629  -18.8289   22.3704 O   0  0  0  0  0  0  0  0  0  0  0  0
  1  2  1  0
  3  2  1  0
  4  5  1  0
  4  3  1  0
  5  6  1  1
  7  5  1  0
  7  8  2  0
  9 10  1  0
 10 11  2  0
 12 10  1  0
 13 12  1  1
 13 14  1  0
 14  7  1  0
 15 13  1  0
 16 15  2  0
 17 15  1  0
 18 17  1  0
 18 22  1  0
 18 19  1  1
 20 19  1  0
 20 24  1  0
 21 20  2  0
 22 23  2  0
 22 25  1  0
M  END
$$$$
