MND.pdb
     RDKit          3D

 25 24  0  0  1  0  0  0  0  0999 V2000
    8.4120  -11.4790   19.6021 C   0  0  0  0  0  0  0  0  0  0  0  0
    7.2946  -12.8596   20.0409 S   0  0  0  0  0  0  0  0  0  0  0  0
    7.7535  -14.2626   19.0270 C   0  0  0  0  0  0  0  0  0  0  0  0
    9.2417  -14.4480   18.9095 C   0  0  0  0  0  0  0  0  0  0  0  0
    9.6396  -15.6789   18.1580 C   0  0  2  0  0  0  0  0  0  0  0  0
    8.5395  -16.5824   17.9488 N   0  0  0  0  0  0  0  0  0  0  0  0
   10.7384  -16.3072   18.9380 C   0  0  0  0  0  0  0  0  0  0  0  0
   10.5204  -17.4171   19.4798 O   0  0  0  0  0  0  0  0  0  0  0  0
   13.9578  -13.7432   17.8448 N   0  0  0  0  0  0  0  0  0  0  0  0
   14.5429  -14.5266   18.8707 C   0  0  0  0  0  0  0  0  0  0  0  0
   15.2400  -13.8551   19.7149 O   0  0  0  0  0  0  0  0  0  0  0  0
   14.4046  -15.9904   19.0170 C   0  0  0  0  0  0  0  0  0  0  0  0
   13.1365  -16.4340   19.6976 C   0  0  2  0  0  0  0  0  0  0  0  0
   12.0294  -15.7379   19.1164 N   0  0  0  0  0  0  0  0  0  0  0  0
   13.2030  -16.3602   21.1689 C   0  0  0  0  0  0  0  0  0  0  0  0
   14.1329  -16.9751   21.7912 O   0  0  0  0  0  0  0  0  0  0  0  0
   12.2982  -15.6460   21.9989 N   0  0  0  0  0  0  0  0  0  0  0  0
   11.7378  -16.2579   23.2333 C   0  0  1  0  0  0  0  0  0  0  0  0
   10.8019  -17.3121   22.7489 C   0  0  0  0  0  0  0  0  0  0  0  0
   10.2653  -18.2283   23.7431 C   0  0  0  0  0  0  0  0  0  0  0  0
   11.0406  -18.6970   24.6130 O   0  0  0  0  0  0  0  0  0  0  0  0
   12.8397  -16.7248   24.0788 C   0  0  0  0  0  0  0  0  0  0  0  0
   12.9206  -16.4305   25.2768 O   0  0  0  0  0  0  0  0  0  0  0  0
    8.9425  -18.6095   23.7745 O   0  0  0  0  0  0  0  0  0  0  0  0
   13.8285  -17.5215   23.5328 O   0  0  0  0  0  0  0  0  0  0  0  0
  1  2  1  0
  3  2  1  0
  4  5  1  0
  4  3  1  0
  5  6  1  1
  7  5  1  0
  7  8  2  0
  9 10  1  0
 10 11  2  0
 12 10  1  0
 13 12  1  6
 13 14  1  0
 14  7  1  0
 15 13  1  0
 16 15  2  0
 17 15  1  0
 18 17  1  0
 18 22  1  0
 18 19  1  6
 20 19  1  0
 20 24  1  0
 21 20  2  0
 22 23  2  0
 22 25  1  0
M  END
$$$$
