MND.pdb
     RDKit          3D

 25 24  0  0  1  0  0  0  0  0999 V2000
    6.3044  -11.1898   26.2128 C   0  0  0  0  0  0  0  0  0  0  0  0
    7.2749  -12.2261   27.3667 S   0  0  0  0  0  0  0  0  0  0  0  0
    7.1598  -13.9184   26.7924 C   0  0  0  0  0  0  0  0  0  0  0  0
    7.0470  -14.0308   25.2966 C   0  0  0  0  0  0  0  0  0  0  0  0
    6.8779  -15.4343   24.8073 C   0  0  2  0  0  0  0  0  0  0  0  0
    6.9905  -16.4077   25.8609 N   0  0  0  0  0  0  0  0  0  0  0  0
    7.9036  -15.6342   23.7497 C   0  0  0  0  0  0  0  0  0  0  0  0
    9.1100  -15.4870   24.0594 O   0  0  0  0  0  0  0  0  0  0  0  0
    7.7463  -12.0525   19.6421 N   0  0  0  0  0  0  0  0  0  0  0  0
    7.5249  -13.3527   20.1609 C   0  0  0  0  0  0  0  0  0  0  0  0
    6.6129  -14.0173   19.5476 O   0  0  0  0  0  0  0  0  0  0  0  0
    8.2435  -13.9545   21.3032 C   0  0  0  0  0  0  0  0  0  0  0  0
    8.3203  -15.4581   21.2719 C   0  0  2  0  0  0  0  0  0  0  0  0
    7.6154  -15.9829   22.4014 N   0  0  0  0  0  0  0  0  0  0  0  0
    9.6930  -15.9728   21.1127 C   0  0  0  0  0  0  0  0  0  0  0  0
    9.9815  -16.7024   20.1055 O   0  0  0  0  0  0  0  0  0  0  0  0
   10.7714  -15.7307   22.0048 N   0  0  0  0  0  0  0  0  0  0  0  0
   12.1527  -16.1792   21.6837 C   0  0  1  0  0  0  0  0  0  0  0  0
   12.6739  -15.1631   20.7257 C   0  0  0  0  0  0  0  0  0  0  0  0
   14.0701  -15.2771   20.3346 C   0  0  0  0  0  0  0  0  0  0  0  0
   14.5637  -16.4223   20.1849 O   0  0  0  0  0  0  0  0  0  0  0  0
   12.9098  -16.3263   22.9296 C   0  0  0  0  0  0  0  0  0  0  0  0
   12.4309  -16.0289   24.0299 O   0  0  0  0  0  0  0  0  0  0  0  0
   14.8806  -14.1844   20.1217 O   0  0  0  0  0  0  0  0  0  0  0  0
   14.2030  -16.8124   22.8890 O   0  0  0  0  0  0  0  0  0  0  0  0
  1  2  1  0
  3  2  1  0
  4  5  1  0
  4  3  1  0
  5  6  1  1
  7  5  1  0
  7  8  2  0
  9 10  1  0
 10 11  2  0
 12 10  1  0
 13 12  1  1
 13 14  1  0
 14  7  1  0
 15 13  1  0
 16 15  2  0
 17 15  1  0
 18 17  1  0
 18 22  1  0
 18 19  1  6
 20 19  1  0
 20 24  1  0
 21 20  2  0
 22 23  2  0
 22 25  1  0
M  END
$$$$
