VFA.pdb
     RDKit          3D

 24 24  0  0  1  0  0  0  0  0999 V2000
   23.5588  -21.6784  -12.1830 C   0  0  0  0  0  0  0  0  0  0  0  0
   23.8767  -20.2106  -12.3828 C   0  0  2  0  0  0  0  0  0  0  0  0
   23.3054  -19.7740  -13.6882 C   0  0  0  0  0  0  0  0  0  0  0  0
   25.3733  -20.0626  -12.2881 C   0  0  2  0  0  0  0  0  0  0  0  0
   25.9430  -20.8841  -13.3540 N   0  0  0  0  0  0  0  0  0  0  0  0
   25.9003  -20.4579  -10.9613 C   0  0  0  0  0  0  0  0  0  0  0  0
   26.3060  -21.6420  -10.8392 O   0  0  0  0  0  0  0  0  0  0  0  0
   25.9738  -19.5989   -9.8420 N   0  0  0  0  0  0  0  0  0  0  0  0
   26.4976  -19.9804   -8.5595 C   0  0  1  0  0  0  0  0  0  0  0  0
   27.1025  -18.8472   -7.7895 C   0  0  0  0  0  0  0  0  0  0  0  0
   27.7591  -19.2464   -6.5439 C   0  0  0  0  0  0  0  0  0  0  0  0
   27.3248  -18.9192   -5.2945 C   0  0  0  0  0  0  0  0  0  0  0  0
   28.0063  -19.3384   -4.1550 C   0  0  0  0  0  0  0  0  0  0  0  0
   29.1539  -20.1056   -4.2550 C   0  0  0  0  0  0  0  0  0  0  0  0
   29.5988  -20.4402   -5.5166 C   0  0  0  0  0  0  0  0  0  0  0  0
   28.9107  -20.0160   -6.6354 C   0  0  0  0  0  0  0  0  0  0  0  0
   25.4236  -20.6155   -7.7551 C   0  0  0  0  0  0  0  0  0  0  0  0
   24.2858  -20.0419   -7.6936 O   0  0  0  0  0  0  0  0  0  0  0  0
   25.0143  -23.8528   -5.8463 C   0  0  0  0  0  0  0  0  0  0  0  0
   24.5635  -22.4487   -6.2537 C   0  0  2  0  0  0  0  0  0  0  0  0
   25.6033  -21.8357   -7.0483 N   0  0  0  0  0  0  0  0  0  0  0  0
   24.4045  -21.6819   -5.0005 C   0  0  0  0  0  0  0  0  0  0  0  0
   23.2620  -21.5828   -4.4957 O   0  0  0  0  0  0  0  0  0  0  0  0
   25.4736  -21.0659   -4.3596 O   0  0  0  0  0  0  0  0  0  0  0  0
  2  1  1  6
  2  3  1  0
  4  6  1  0
  4  2  1  0
  4  5  1  6
  6  7  2  0
  8  9  1  0
  8  6  1  0
  9 10  1  1
 11 16  2  0
 11 10  1  0
 12 11  1  0
 13 14  1  0
 13 12  2  0
 14 15  2  0
 15 16  1  0
 17  9  1  0
 18 17  2  0
 20 19  1  1
 20 21  1  0
 21 17  1  0
 22 20  1  0
 22 24  1  0
 23 22  2  0
M  END
$$$$
