VFA.pdb
     RDKit          3D

 24 24  0  0  1  0  0  0  0  0999 V2000
   25.8789  -20.8127  -18.5486 C   0  0  0  0  0  0  0  0  0  0  0  0
   27.2475  -20.2294  -18.2613 C   0  0  2  0  0  0  0  0  0  0  0  0
   27.9224  -19.9396  -19.5581 C   0  0  0  0  0  0  0  0  0  0  0  0
   27.9812  -21.2214  -17.3963 C   0  0  2  0  0  0  0  0  0  0  0  0
   28.1195  -22.4431  -18.1861 N   0  0  0  0  0  0  0  0  0  0  0  0
   27.2845  -21.4824  -16.1153 C   0  0  0  0  0  0  0  0  0  0  0  0
   26.4490  -22.4224  -16.1024 O   0  0  0  0  0  0  0  0  0  0  0  0
   27.4981  -20.7510  -14.9255 N   0  0  0  0  0  0  0  0  0  0  0  0
   26.7388  -20.9259  -13.7182 C   0  0  1  0  0  0  0  0  0  0  0  0
   27.3958  -20.3540  -12.4999 C   0  0  0  0  0  0  0  0  0  0  0  0
   26.5865  -20.4355  -11.2833 C   0  0  0  0  0  0  0  0  0  0  0  0
   26.0609  -19.3652  -10.6238 C   0  0  0  0  0  0  0  0  0  0  0  0
   25.2992  -19.5251   -9.4693 C   0  0  0  0  0  0  0  0  0  0  0  0
   25.0497  -20.7839   -8.9509 C   0  0  0  0  0  0  0  0  0  0  0  0
   25.5787  -21.8713   -9.6135 C   0  0  0  0  0  0  0  0  0  0  0  0
   26.3316  -21.6944  -10.7569 C   0  0  0  0  0  0  0  0  0  0  0  0
   25.3918  -20.3258  -13.8891 C   0  0  0  0  0  0  0  0  0  0  0  0
   25.3078  -19.1108  -14.2690 O   0  0  0  0  0  0  0  0  0  0  0  0
   22.1345  -21.0448  -14.9311 C   0  0  0  0  0  0  0  0  0  0  0  0
   22.8779  -20.4390  -13.7391 C   0  0  2  0  0  0  0  0  0  0  0  0
   24.1879  -21.0425  -13.6489 N   0  0  0  0  0  0  0  0  0  0  0  0
   22.1008  -20.8009  -12.5355 C   0  0  0  0  0  0  0  0  0  0  0  0
   22.4546  -21.8005  -11.8680 O   0  0  0  0  0  0  0  0  0  0  0  0
   20.9920  -20.0752  -12.1147 O   0  0  0  0  0  0  0  0  0  0  0  0
  2  1  1  6
  2  3  1  0
  4  6  1  0
  4  2  1  0
  4  5  1  6
  6  7  2  0
  8  9  1  0
  8  6  1  0
  9 10  1  1
 11 16  2  0
 11 10  1  0
 12 11  1  0
 13 14  1  0
 13 12  2  0
 14 15  2  0
 15 16  1  0
 17  9  1  0
 18 17  2  0
 20 19  1  6
 20 21  1  0
 21 17  1  0
 22 20  1  0
 22 24  1  0
 23 22  2  0
M  END
$$$$
