VFA.pdb
     RDKit          3D

 24 24  0  0  1  0  0  0  0  0999 V2000
   27.9152  -18.8262  -13.2833 C   0  0  0  0  0  0  0  0  0  0  0  0
   28.3418  -19.8522  -14.3133 C   0  0  2  0  0  0  0  0  0  0  0  0
   29.2603  -19.1955  -15.2861 C   0  0  0  0  0  0  0  0  0  0  0  0
   27.0862  -20.4077  -14.9343 C   0  0  2  0  0  0  0  0  0  0  0  0
   26.4942  -19.3266  -15.7193 N   0  0  0  0  0  0  0  0  0  0  0  0
   26.1343  -20.9257  -13.9243 C   0  0  0  0  0  0  0  0  0  0  0  0
   26.3606  -22.0743  -13.4645 O   0  0  0  0  0  0  0  0  0  0  0  0
   25.0052  -20.2191  -13.4534 N   0  0  0  0  0  0  0  0  0  0  0  0
   24.0198  -20.7655  -12.5617 C   0  0  1  0  0  0  0  0  0  0  0  0
   23.7618  -19.9215  -11.3517 C   0  0  0  0  0  0  0  0  0  0  0  0
   24.7931  -20.0177  -10.3177 C   0  0  0  0  0  0  0  0  0  0  0  0
   25.3969  -18.9536   -9.7180 C   0  0  0  0  0  0  0  0  0  0  0  0
   26.3722  -19.1276   -8.7396 C   0  0  0  0  0  0  0  0  0  0  0  0
   26.7623  -20.3946   -8.3420 C   0  0  0  0  0  0  0  0  0  0  0  0
   26.1551  -21.4759   -8.9451 C   0  0  0  0  0  0  0  0  0  0  0  0
   25.1900  -21.2850   -9.9133 C   0  0  0  0  0  0  0  0  0  0  0  0
   22.7505  -20.9835  -13.3001 C   0  0  0  0  0  0  0  0  0  0  0  0
   22.3508  -20.0808  -14.1080 O   0  0  0  0  0  0  0  0  0  0  0  0
   20.3693  -23.8589  -13.8050 C   0  0  0  0  0  0  0  0  0  0  0  0
   20.7279  -22.3734  -13.8763 C   0  0  2  0  0  0  0  0  0  0  0  0
   21.9574  -22.1535  -13.1493 N   0  0  0  0  0  0  0  0  0  0  0  0
   19.6345  -21.6475  -13.1973 C   0  0  0  0  0  0  0  0  0  0  0  0
   19.8465  -21.1649  -12.0606 O   0  0  0  0  0  0  0  0  0  0  0  0
   18.3791  -21.4792  -13.7707 O   0  0  0  0  0  0  0  0  0  0  0  0
  2  1  1  1
  2  3  1  0
  4  6  1  0
  4  2  1  0
  4  5  1  1
  6  7  2  0
  8  9  1  0
  8  6  1  0
  9 10  1  1
 11 16  2  0
 11 10  1  0
 12 11  1  0
 13 14  1  0
 13 12  2  0
 14 15  2  0
 15 16  1  0
 17  9  1  0
 18 17  2  0
 20 19  1  1
 20 21  1  0
 21 17  1  0
 22 20  1  0
 22 24  1  0
 23 22  2  0
M  END
$$$$
