VFA.pdb
     RDKit          3D

 24 24  0  0  1  0  0  0  0  0999 V2000
   26.5367  -19.4517  -15.5349 C   0  0  0  0  0  0  0  0  0  0  0  0
   27.4461  -18.7736  -14.5304 C   0  0  2  0  0  0  0  0  0  0  0  0
   28.4891  -18.0107  -15.2728 C   0  0  0  0  0  0  0  0  0  0  0  0
   27.9971  -19.8502  -13.6315 C   0  0  2  0  0  0  0  0  0  0  0  0
   28.7071  -20.7923  -14.4940 N   0  0  0  0  0  0  0  0  0  0  0  0
   26.9412  -20.5286  -12.8446 C   0  0  0  0  0  0  0  0  0  0  0  0
   26.5856  -21.6704  -13.2337 O   0  0  0  0  0  0  0  0  0  0  0  0
   26.3189  -19.9795  -11.7012 N   0  0  0  0  0  0  0  0  0  0  0  0
   25.2491  -20.6098  -10.9782 C   0  0  1  0  0  0  0  0  0  0  0  0
   25.0067  -20.0250   -9.6209 C   0  0  0  0  0  0  0  0  0  0  0  0
   26.1343  -20.1558   -8.6972 C   0  0  0  0  0  0  0  0  0  0  0  0
   26.8878  -21.2803   -8.5416 C   0  0  0  0  0  0  0  0  0  0  0  0
   27.9474  -21.3264   -7.6395 C   0  0  0  0  0  0  0  0  0  0  0  0
   28.2717  -20.2249   -6.8669 C   0  0  0  0  0  0  0  0  0  0  0  0
   27.5130  -19.0835   -7.0195 C   0  0  0  0  0  0  0  0  0  0  0  0
   26.4660  -19.0555   -7.9186 C   0  0  0  0  0  0  0  0  0  0  0  0
   24.0025  -20.5442  -11.7816 C   0  0  0  0  0  0  0  0  0  0  0  0
   23.6746  -19.4308  -12.3111 O   0  0  0  0  0  0  0  0  0  0  0  0
   21.7633  -22.9555  -13.4935 C   0  0  0  0  0  0  0  0  0  0  0  0
   21.9528  -21.6101  -12.7903 C   0  0  2  0  0  0  0  0  0  0  0  0
   23.1545  -21.6660  -11.9895 N   0  0  0  0  0  0  0  0  0  0  0  0
   20.7893  -21.4400  -11.8953 C   0  0  0  0  0  0  0  0  0  0  0  0
   20.9757  -21.4498  -10.6563 O   0  0  0  0  0  0  0  0  0  0  0  0
   19.4954  -21.2694  -12.3747 O   0  0  0  0  0  0  0  0  0  0  0  0
  2  1  1  6
  2  3  1  0
  4  6  1  0
  4  2  1  0
  4  5  1  6
  6  7  2  0
  8  9  1  0
  8  6  1  0
  9 10  1  1
 11 16  2  0
 11 10  1  0
 12 11  1  0
 13 14  1  0
 13 12  2  0
 14 15  2  0
 15 16  1  0
 17  9  1  0
 18 17  2  0
 20 19  1  1
 20 21  1  0
 21 17  1  0
 22 20  1  0
 22 24  1  0
 23 22  2  0
M  END
$$$$
