VFA.pdb
     RDKit          3D

 24 24  0  0  1  0  0  0  0  0999 V2000
   29.2025  -19.8541  -13.0875 C   0  0  0  0  0  0  0  0  0  0  0  0
   28.6975  -19.9441  -14.5132 C   0  0  2  0  0  0  0  0  0  0  0  0
   29.5337  -19.0568  -15.3704 C   0  0  0  0  0  0  0  0  0  0  0  0
   27.2364  -19.5765  -14.4917 C   0  0  2  0  0  0  0  0  0  0  0  0
   27.1674  -18.1557  -14.1571 N   0  0  0  0  0  0  0  0  0  0  0  0
   26.4588  -20.3955  -13.5330 C   0  0  0  0  0  0  0  0  0  0  0  0
   26.3711  -21.6265  -13.7754 O   0  0  0  0  0  0  0  0  0  0  0  0
   25.8195  -19.8859  -12.3808 N   0  0  0  0  0  0  0  0  0  0  0  0
   24.9304  -20.6435  -11.5440 C   0  0  1  0  0  0  0  0  0  0  0  0
   24.8285  -20.1267  -10.1421 C   0  0  0  0  0  0  0  0  0  0  0  0
   26.0358  -20.3209   -9.3380 C   0  0  0  0  0  0  0  0  0  0  0  0
   26.3560  -19.6009   -8.2264 C   0  0  0  0  0  0  0  0  0  0  0  0
   27.5264  -19.8465   -7.5133 C   0  0  0  0  0  0  0  0  0  0  0  0
   28.4080  -20.8358   -7.9129 C   0  0  0  0  0  0  0  0  0  0  0  0
   28.0899  -21.5681   -9.0372 C   0  0  0  0  0  0  0  0  0  0  0  0
   26.9252  -21.3112   -9.7320 C   0  0  0  0  0  0  0  0  0  0  0  0
   23.5815  -20.6826  -12.1626 C   0  0  0  0  0  0  0  0  0  0  0  0
   23.0609  -19.5889  -12.5631 O   0  0  0  0  0  0  0  0  0  0  0  0
   21.2413  -23.3682  -13.3794 C   0  0  0  0  0  0  0  0  0  0  0  0
   21.5389  -21.9282  -12.9571 C   0  0  2  0  0  0  0  0  0  0  0  0
   22.8403  -21.8839  -12.3303 N   0  0  0  0  0  0  0  0  0  0  0  0
   20.5136  -21.5669  -11.9562 C   0  0  0  0  0  0  0  0  0  0  0  0
   20.8601  -21.4350  -10.7593 O   0  0  0  0  0  0  0  0  0  0  0  0
   19.1789  -21.3677  -12.2909 O   0  0  0  0  0  0  0  0  0  0  0  0
  2  1  1  1
  2  3  1  0
  4  6  1  0
  4  2  1  0
  4  5  1  1
  6  7  2  0
  8  9  1  0
  8  6  1  0
  9 10  1  1
 11 16  2  0
 11 10  1  0
 12 11  1  0
 13 14  1  0
 13 12  2  0
 14 15  2  0
 15 16  1  0
 17  9  1  0
 18 17  2  0
 20 19  1  1
 20 21  1  0
 21 17  1  0
 22 20  1  0
 22 24  1  0
 23 22  2  0
M  END
$$$$
