VFA.pdb
     RDKit          3D

 24 24  0  0  1  0  0  0  0  0999 V2000
   19.7671  -11.5977  -15.8517 C   0  0  0  0  0  0  0  0  0  0  0  0
   18.2555  -11.5907  -15.9547 C   0  0  2  0  0  0  0  0  0  0  0  0
   17.8298  -12.7580  -16.7776 C   0  0  0  0  0  0  0  0  0  0  0  0
   17.8548  -10.2566  -16.5292 C   0  0  2  0  0  0  0  0  0  0  0  0
   18.3965  -10.2057  -17.8855 N   0  0  0  0  0  0  0  0  0  0  0  0
   18.3366   -9.1186  -15.7122 C   0  0  0  0  0  0  0  0  0  0  0  0
   17.9038   -9.0397  -14.5340 O   0  0  0  0  0  0  0  0  0  0  0  0
   19.2386   -8.1318  -16.1689 N   0  0  0  0  0  0  0  0  0  0  0  0
   19.6410   -6.9839  -15.4040 C   0  0  1  0  0  0  0  0  0  0  0  0
   21.1175   -6.8992  -15.1679 C   0  0  0  0  0  0  0  0  0  0  0  0
   21.6335   -7.8817  -14.2138 C   0  0  0  0  0  0  0  0  0  0  0  0
   21.3343   -7.9090  -12.8847 C   0  0  0  0  0  0  0  0  0  0  0  0
   21.8668   -8.8789  -12.0394 C   0  0  0  0  0  0  0  0  0  0  0  0
   22.7225   -9.8525  -12.5246 C   0  0  0  0  0  0  0  0  0  0  0  0
   23.0294   -9.8305  -13.8688 C   0  0  0  0  0  0  0  0  0  0  0  0
   22.4924   -8.8616  -14.6924 C   0  0  0  0  0  0  0  0  0  0  0  0
   19.1703   -5.7488  -16.0797 C   0  0  0  0  0  0  0  0  0  0  0  0
   19.4034   -5.6072  -17.3259 O   0  0  0  0  0  0  0  0  0  0  0  0
   16.6795   -3.6941  -16.6730 C   0  0  0  0  0  0  0  0  0  0  0  0
   18.0591   -3.4863  -16.0452 C   0  0  2  0  0  0  0  0  0  0  0  0
   18.4702   -4.7135  -15.4024 N   0  0  0  0  0  0  0  0  0  0  0  0
   17.8951   -2.4389  -15.0158 C   0  0  0  0  0  0  0  0  0  0  0  0
   17.8942   -2.7753  -13.8088 O   0  0  0  0  0  0  0  0  0  0  0  0
   17.7418   -1.0942  -15.3344 O   0  0  0  0  0  0  0  0  0  0  0  0
  2  1  1  6
  2  3  1  0
  4  6  1  0
  4  2  1  0
  4  5  1  6
  6  7  2  0
  8  9  1  0
  8  6  1  0
  9 10  1  6
 11 16  2  0
 11 10  1  0
 12 11  1  0
 13 14  1  0
 13 12  2  0
 14 15  2  0
 15 16  1  0
 17  9  1  0
 18 17  2  0
 20 19  1  1
 20 21  1  0
 21 17  1  0
 22 20  1  0
 22 24  1  0
 23 22  2  0
M  END
$$$$
