VFA.pdb
     RDKit          3D

 24 24  0  0  1  0  0  0  0  0999 V2000
   25.9105  -34.7046  -16.4524 C   0  0  0  0  0  0  0  0  0  0  0  0
   25.7231  -33.3484  -17.1015 C   0  0  2  0  0  0  0  0  0  0  0  0
   25.6159  -33.5380  -18.5759 C   0  0  0  0  0  0  0  0  0  0  0  0
   26.8846  -32.4875  -16.6768 C   0  0  2  0  0  0  0  0  0  0  0  0
   26.6438  -31.1571  -17.2313 N   0  0  0  0  0  0  0  0  0  0  0  0
   28.1880  -33.0313  -17.1240 C   0  0  0  0  0  0  0  0  0  0  0  0
   28.5391  -32.7714  -18.3033 O   0  0  0  0  0  0  0  0  0  0  0  0
   29.0473  -33.8119  -16.3188 N   0  0  0  0  0  0  0  0  0  0  0  0
   30.3574  -34.2481  -16.7162 C   0  0  1  0  0  0  0  0  0  0  0  0
   31.4728  -33.5376  -16.0135 C   0  0  0  0  0  0  0  0  0  0  0  0
   31.8257  -32.2426  -16.5967 C   0  0  0  0  0  0  0  0  0  0  0  0
   32.7894  -32.0496  -17.5405 C   0  0  0  0  0  0  0  0  0  0  0  0
   33.0670  -30.7829  -18.0476 C   0  0  0  0  0  0  0  0  0  0  0  0
   32.3690  -29.6720  -17.6068 C   0  0  0  0  0  0  0  0  0  0  0  0
   31.3923  -29.8605  -16.6518 C   0  0  0  0  0  0  0  0  0  0  0  0
   31.1303  -31.1234  -16.1601 C   0  0  0  0  0  0  0  0  0  0  0  0
   30.4794  -35.7114  -16.4976 C   0  0  0  0  0  0  0  0  0  0  0  0
   29.9521  -36.2193  -15.4529 O   0  0  0  0  0  0  0  0  0  0  0  0
   31.3321  -38.7092  -18.5303 C   0  0  0  0  0  0  0  0  0  0  0  0
   31.2983  -37.9968  -17.1769 C   0  0  2  0  0  0  0  0  0  0  0  0
   31.1577  -36.5758  -17.3995 N   0  0  0  0  0  0  0  0  0  0  0  0
   32.6056  -38.2536  -16.5378 C   0  0  0  0  0  0  0  0  0  0  0  0
   33.5700  -37.5036  -16.8159 O   0  0  0  0  0  0  0  0  0  0  0  0
   32.8073  -39.2956  -15.6395 O   0  0  0  0  0  0  0  0  0  0  0  0
  2  1  1  1
  2  3  1  0
  4  6  1  0
  4  2  1  0
  4  5  1  6
  6  7  2  0
  8  9  1  0
  8  6  1  0
  9 10  1  1
 11 16  2  0
 11 10  1  0
 12 11  1  0
 13 14  1  0
 13 12  2  0
 14 15  2  0
 15 16  1  0
 17  9  1  0
 18 17  2  0
 20 19  1  6
 20 21  1  0
 21 17  1  0
 22 20  1  0
 22 24  1  0
 23 22  2  0
M  END
$$$$
