VFA.pdb
     RDKit          3D

 24 24  0  0  1  0  0  0  0  0999 V2000
   29.4806  -21.2571  -16.3685 C   0  0  0  0  0  0  0  0  0  0  0  0
   28.8204  -22.4177  -17.0846 C   0  0  2  0  0  0  0  0  0  0  0  0
   29.5010  -22.6164  -18.3955 C   0  0  0  0  0  0  0  0  0  0  0  0
   27.3532  -22.0938  -17.1982 C   0  0  2  0  0  0  0  0  0  0  0  0
   27.2633  -20.7694  -17.8091 N   0  0  0  0  0  0  0  0  0  0  0  0
   26.6599  -22.1331  -15.8895 C   0  0  0  0  0  0  0  0  0  0  0  0
   26.6242  -23.2418  -15.2969 O   0  0  0  0  0  0  0  0  0  0  0  0
   26.0460  -21.0183  -15.2762 N   0  0  0  0  0  0  0  0  0  0  0  0
   25.3424  -21.0662  -14.0243 C   0  0  1  0  0  0  0  0  0  0  0  0
   25.8494  -20.0928  -13.0054 C   0  0  0  0  0  0  0  0  0  0  0  0
   27.1300  -20.4635  -12.4015 C   0  0  0  0  0  0  0  0  0  0  0  0
   27.2711  -21.2141  -11.2731 C   0  0  0  0  0  0  0  0  0  0  0  0
   28.5273  -21.5253  -10.7593 C   0  0  0  0  0  0  0  0  0  0  0  0
   29.6803  -21.0795  -11.3818 C   0  0  0  0  0  0  0  0  0  0  0  0
   29.5444  -20.3193  -12.5243 C   0  0  0  0  0  0  0  0  0  0  0  0
   28.2911  -20.0204  -13.0197 C   0  0  0  0  0  0  0  0  0  0  0  0
   23.8951  -20.8352  -14.2608 C   0  0  0  0  0  0  0  0  0  0  0  0
   23.5419  -19.8134  -14.9380 O   0  0  0  0  0  0  0  0  0  0  0  0
   20.6950  -22.7166  -13.5465 C   0  0  0  0  0  0  0  0  0  0  0  0
   21.4719  -21.4772  -13.9948 C   0  0  2  0  0  0  0  0  0  0  0  0
   22.8813  -21.7008  -13.7671 N   0  0  0  0  0  0  0  0  0  0  0  0
   21.0185  -20.3664  -13.1322 C   0  0  0  0  0  0  0  0  0  0  0  0
   20.0025  -19.7162  -13.4713 O   0  0  0  0  0  0  0  0  0  0  0  0
   21.6755  -20.0145  -11.9585 O   0  0  0  0  0  0  0  0  0  0  0  0
  2  1  1  6
  2  3  1  0
  4  6  1  0
  4  2  1  0
  4  5  1  1
  6  7  2  0
  8  9  1  0
  8  6  1  0
  9 10  1  1
 11 16  2  0
 11 10  1  0
 12 11  1  0
 13 14  1  0
 13 12  2  0
 14 15  2  0
 15 16  1  0
 17  9  1  0
 18 17  2  0
 20 19  1  1
 20 21  1  0
 21 17  1  0
 22 20  1  0
 22 24  1  0
 23 22  2  0
M  END
$$$$
