VFA.pdb
     RDKit          3D

 24 24  0  0  1  0  0  0  0  0999 V2000
   29.2327  -20.0137  -12.4440 C   0  0  0  0  0  0  0  0  0  0  0  0
   28.8587  -20.1630  -13.9046 C   0  0  2  0  0  0  0  0  0  0  0  0
   29.7865  -19.3294  -14.7203 C   0  0  0  0  0  0  0  0  0  0  0  0
   27.4090  -19.7731  -14.0347 C   0  0  2  0  0  0  0  0  0  0  0  0
   27.3387  -18.3349  -13.7854 N   0  0  0  0  0  0  0  0  0  0  0  0
   26.5330  -20.5255  -13.1067 C   0  0  0  0  0  0  0  0  0  0  0  0
   26.5255  -21.7781  -13.2200 O   0  0  0  0  0  0  0  0  0  0  0  0
   25.7181  -19.9310  -12.1176 N   0  0  0  0  0  0  0  0  0  0  0  0
   24.7262  -20.6350  -11.3527 C   0  0  1  0  0  0  0  0  0  0  0  0
   24.4940  -20.0638   -9.9878 C   0  0  0  0  0  0  0  0  0  0  0  0
   25.6584  -20.1220   -9.1031 C   0  0  0  0  0  0  0  0  0  0  0  0
   26.2261  -19.0455   -8.4904 C   0  0  0  0  0  0  0  0  0  0  0  0
   27.3358  -19.1828   -7.6607 C   0  0  0  0  0  0  0  0  0  0  0  0
   27.9016  -20.4247   -7.4299 C   0  0  0  0  0  0  0  0  0  0  0  0
   27.3318  -21.5183   -8.0471 C   0  0  0  0  0  0  0  0  0  0  0  0
   26.2319  -21.3638   -8.8666 C   0  0  0  0  0  0  0  0  0  0  0  0
   23.4480  -20.6644  -12.1073 C   0  0  0  0  0  0  0  0  0  0  0  0
   22.9736  -19.5656  -12.5488 O   0  0  0  0  0  0  0  0  0  0  0  0
   21.3217  -23.3072  -13.7037 C   0  0  0  0  0  0  0  0  0  0  0  0
   21.5049  -21.8991  -13.1342 C   0  0  2  0  0  0  0  0  0  0  0  0
   22.7258  -21.8620  -12.3619 N   0  0  0  0  0  0  0  0  0  0  0  0
   20.3600  -21.6627  -12.2305 C   0  0  0  0  0  0  0  0  0  0  0  0
   20.5676  -21.6109  -10.9959 O   0  0  0  0  0  0  0  0  0  0  0  0
   19.0609  -21.4954  -12.6969 O   0  0  0  0  0  0  0  0  0  0  0  0
  2  1  1  1
  2  3  1  0
  4  6  1  0
  4  2  1  0
  4  5  1  1
  6  7  2  0
  8  9  1  0
  8  6  1  0
  9 10  1  1
 11 16  2  0
 11 10  1  0
 12 11  1  0
 13 14  1  0
 13 12  2  0
 14 15  2  0
 15 16  1  0
 17  9  1  0
 18 17  2  0
 20 19  1  1
 20 21  1  0
 21 17  1  0
 22 20  1  0
 22 24  1  0
 23 22  2  0
M  END
$$$$
