VFA.pdb
     RDKit          3D

 24 24  0  0  1  0  0  0  0  0999 V2000
   28.1372  -20.7711  -12.7797 C   0  0  0  0  0  0  0  0  0  0  0  0
   26.8210  -21.3516  -13.2555 C   0  0  2  0  0  0  0  0  0  0  0  0
   26.5818  -20.9017  -14.6560 C   0  0  0  0  0  0  0  0  0  0  0  0
   25.7612  -20.9095  -12.2799 C   0  0  2  0  0  0  0  0  0  0  0  0
   25.4729  -19.5090  -12.5817 N   0  0  0  0  0  0  0  0  0  0  0  0
   26.1797  -21.0829  -10.8694 C   0  0  0  0  0  0  0  0  0  0  0  0
   26.4135  -22.2573  -10.4849 O   0  0  0  0  0  0  0  0  0  0  0  0
   26.3299  -20.0258   -9.9442 N   0  0  0  0  0  0  0  0  0  0  0  0
   26.6011  -20.2049   -8.5446 C   0  0  1  0  0  0  0  0  0  0  0  0
   27.2764  -19.0325   -7.9024 C   0  0  0  0  0  0  0  0  0  0  0  0
   27.7893  -19.2941   -6.5569 C   0  0  0  0  0  0  0  0  0  0  0  0
   27.3359  -18.6951   -5.4200 C   0  0  0  0  0  0  0  0  0  0  0  0
   27.8768  -18.9982   -4.1733 C   0  0  0  0  0  0  0  0  0  0  0  0
   28.8986  -19.9233   -4.0475 C   0  0  0  0  0  0  0  0  0  0  0  0
   29.3619  -20.5331   -5.1942 C   0  0  0  0  0  0  0  0  0  0  0  0
   28.8141  -20.2206   -6.4221 C   0  0  0  0  0  0  0  0  0  0  0  0
   25.3355  -20.5072   -7.8298 C   0  0  0  0  0  0  0  0  0  0  0  0
   24.3131  -19.7810   -8.0638 O   0  0  0  0  0  0  0  0  0  0  0  0
   23.9414  -23.3643   -5.8769 C   0  0  0  0  0  0  0  0  0  0  0  0
   23.9762  -21.8697   -6.2018 C   0  0  2  0  0  0  0  0  0  0  0  0
   25.2085  -21.5701   -6.8946 N   0  0  0  0  0  0  0  0  0  0  0  0
   23.9720  -21.1610   -4.9051 C   0  0  0  0  0  0  0  0  0  0  0  0
   25.0167  -20.5768   -4.5345 O   0  0  0  0  0  0  0  0  0  0  0  0
   22.8538  -21.1172   -4.0801 O   0  0  0  0  0  0  0  0  0  0  0  0
  2  1  1  1
  2  3  1  0
  4  6  1  0
  4  2  1  0
  4  5  1  6
  6  7  2  0
  8  9  1  0
  8  6  1  0
  9 10  1  1
 11 16  2  0
 11 10  1  0
 12 11  1  0
 13 14  1  0
 13 12  2  0
 14 15  2  0
 15 16  1  0
 17  9  1  0
 18 17  2  0
 20 19  1  1
 20 21  1  0
 21 17  1  0
 22 20  1  0
 22 24  1  0
 23 22  2  0
M  END
$$$$
