VFA.pdb
     RDKit          3D

 24 24  0  0  1  0  0  0  0  0999 V2000
   29.9029  -29.3532  -23.8904 C   0  0  0  0  0  0  0  0  0  0  0  0
   29.3613  -28.0435  -23.3547 C   0  0  2  0  0  0  0  0  0  0  0  0
   29.4335  -27.0213  -24.4369 C   0  0  0  0  0  0  0  0  0  0  0  0
   30.1665  -27.6971  -22.1291 C   0  0  2  0  0  0  0  0  0  0  0  0
   31.5309  -27.4387  -22.5844 N   0  0  0  0  0  0  0  0  0  0  0  0
   30.1323  -28.7676  -21.1057 C   0  0  0  0  0  0  0  0  0  0  0  0
   31.0517  -29.6248  -21.1471 O   0  0  0  0  0  0  0  0  0  0  0  0
   29.1450  -28.8826  -20.1017 N   0  0  0  0  0  0  0  0  0  0  0  0
   29.0780  -29.9558  -19.1487 C   0  0  1  0  0  0  0  0  0  0  0  0
   28.9219  -29.4996  -17.7308 C   0  0  0  0  0  0  0  0  0  0  0  0
   28.8539  -30.5851  -16.7515 C   0  0  0  0  0  0  0  0  0  0  0  0
   29.9056  -31.3692  -16.3831 C   0  0  0  0  0  0  0  0  0  0  0  0
   29.7605  -32.3847  -15.4416 C   0  0  0  0  0  0  0  0  0  0  0  0
   28.5359  -32.6323  -14.8460 C   0  0  0  0  0  0  0  0  0  0  0  0
   27.4674  -31.8423  -15.2145 C   0  0  0  0  0  0  0  0  0  0  0  0
   27.6293  -30.8398  -16.1495 C   0  0  0  0  0  0  0  0  0  0  0  0
   27.9625  -30.8674  -19.5072 C   0  0  0  0  0  0  0  0  0  0  0  0
   26.8634  -30.3596  -19.9091 O   0  0  0  0  0  0  0  0  0  0  0  0
   27.3621  -34.6007  -19.4255 C   0  0  0  0  0  0  0  0  0  0  0  0
   27.0077  -33.1749  -19.8520 C   0  0  2  0  0  0  0  0  0  0  0  0
   28.0611  -32.2830  -19.4237 N   0  0  0  0  0  0  0  0  0  0  0  0
   25.7632  -32.8230  -19.1372 C   0  0  0  0  0  0  0  0  0  0  0  0
   24.7304  -32.5869  -19.8061 O   0  0  0  0  0  0  0  0  0  0  0  0
   25.6937  -32.7438  -17.7508 O   0  0  0  0  0  0  0  0  0  0  0  0
  2  1  1  6
  2  3  1  0
  4  6  1  0
  4  2  1  0
  4  5  1  6
  6  7  2  0
  8  9  1  0
  8  6  1  0
  9 10  1  1
 11 16  2  0
 11 10  1  0
 12 11  1  0
 13 14  1  0
 13 12  2  0
 14 15  2  0
 15 16  1  0
 17  9  1  0
 18 17  2  0
 20 19  1  1
 20 21  1  0
 21 17  1  0
 22 20  1  0
 22 24  1  0
 23 22  2  0
M  END
$$$$
