VFA.pdb
     RDKit          3D

 24 24  0  0  1  0  0  0  0  0999 V2000
   13.8692  -22.4675    2.5179 C   0  0  0  0  0  0  0  0  0  0  0  0
   13.1433  -21.2352    2.0179 C   0  0  2  0  0  0  0  0  0  0  0  0
   12.0505  -21.6666    1.1009 C   0  0  0  0  0  0  0  0  0  0  0  0
   14.1721  -20.3451    1.3700 C   0  0  2  0  0  0  0  0  0  0  0  0
   14.6974  -21.0803    0.2215 N   0  0  0  0  0  0  0  0  0  0  0  0
   15.2547  -19.9556    2.3031 C   0  0  0  0  0  0  0  0  0  0  0  0
   16.3806  -20.4860    2.1226 O   0  0  0  0  0  0  0  0  0  0  0  0
   15.1017  -19.0387    3.3671 N   0  0  0  0  0  0  0  0  0  0  0  0
   16.1515  -18.6671    4.2751 C   0  0  1  0  0  0  0  0  0  0  0  0
   16.3122  -17.1877    4.4443 C   0  0  0  0  0  0  0  0  0  0  0  0
   17.2469  -16.5705    3.5023 C   0  0  0  0  0  0  0  0  0  0  0  0
   17.3829  -15.2292    3.3054 C   0  0  0  0  0  0  0  0  0  0  0  0
   18.2974  -14.7180    2.3883 C   0  0  0  0  0  0  0  0  0  0  0  0
   19.1028  -15.5610    1.6424 C   0  0  0  0  0  0  0  0  0  0  0  0
   18.9701  -16.9197    1.8368 C   0  0  0  0  0  0  0  0  0  0  0  0
   18.0583  -17.4090    2.7503 C   0  0  0  0  0  0  0  0  0  0  0  0
   15.9097  -19.2988    5.5966 C   0  0  0  0  0  0  0  0  0  0  0  0
   14.7750  -19.1322    6.1552 O   0  0  0  0  0  0  0  0  0  0  0  0
   17.7988  -21.6333    7.8900 C   0  0  0  0  0  0  0  0  0  0  0  0
   16.6824  -20.6303    7.5928 C   0  0  2  0  0  0  0  0  0  0  0  0
   16.8851  -20.0828    6.2709 N   0  0  0  0  0  0  0  0  0  0  0  0
   16.8214  -19.5453    8.5863 C   0  0  0  0  0  0  0  0  0  0  0  0
   17.3094  -18.4512    8.2193 O   0  0  0  0  0  0  0  0  0  0  0  0
   16.4317  -19.6913    9.9130 O   0  0  0  0  0  0  0  0  0  0  0  0
  2  1  1  6
  2  3  1  0
  4  6  1  0
  4  2  1  0
  4  5  1  6
  6  7  2  0
  8  9  1  0
  8  6  1  0
  9 10  1  1
 11 16  2  0
 11 10  1  0
 12 11  1  0
 13 14  1  0
 13 12  2  0
 14 15  2  0
 15 16  1  0
 17  9  1  0
 18 17  2  0
 20 19  1  1
 20 21  1  0
 21 17  1  0
 22 20  1  0
 22 24  1  0
 23 22  2  0
M  END
$$$$
