GDF.pdb
     RDKit          3D

 24 24  0  0  1  0  0  0  0  0999 V2000
   23.8990  -25.5805  -14.1226 N   0  0  0  0  0  0  0  0  0  0  0  0
   23.7286  -24.1570  -14.1998 C   0  0  0  0  0  0  0  0  0  0  0  0
   24.8865  -23.4116  -13.6448 C   0  0  0  0  0  0  0  0  0  0  0  0
   26.0646  -23.8556  -13.6519 O   0  0  0  0  0  0  0  0  0  0  0  0
   24.6494  -22.1328  -13.0777 N   0  0  0  0  0  0  0  0  0  0  0  0
   25.6802  -21.2435  -12.6370 C   0  0  1  0  0  0  0  0  0  0  0  0
   25.4801  -19.9007  -13.3000 C   0  0  0  0  0  0  0  0  0  0  0  0
   26.6443  -19.0199  -13.1887 C   0  0  0  0  0  0  0  0  0  0  0  0
   27.7855  -19.5520  -13.1081 O   0  0  0  0  0  0  0  0  0  0  0  0
   25.7775  -21.1230  -11.1791 C   0  0  0  0  0  0  0  0  0  0  0  0
   24.7169  -21.0222  -10.5130 O   0  0  0  0  0  0  0  0  0  0  0  0
   26.6078  -17.6476  -13.1629 O   0  0  0  0  0  0  0  0  0  0  0  0
   27.0146  -21.1152  -10.4889 N   0  0  0  0  0  0  0  0  0  0  0  0
   27.0417  -20.9667   -9.0312 C   0  0  1  0  0  0  0  0  0  0  0  0
   28.3834  -20.5284   -8.5554 C   0  0  0  0  0  0  0  0  0  0  0  0
   28.3677  -20.3079   -7.0994 C   0  0  0  0  0  0  0  0  0  0  0  0
   27.9955  -19.0904   -6.5469 C   0  0  0  0  0  0  0  0  0  0  0  0
   27.9584  -18.8854   -5.1743 C   0  0  0  0  0  0  0  0  0  0  0  0
   28.3022  -19.9230   -4.3151 C   0  0  0  0  0  0  0  0  0  0  0  0
   28.6728  -21.1337   -4.8365 C   0  0  0  0  0  0  0  0  0  0  0  0
   28.6993  -21.3056   -6.2126 C   0  0  0  0  0  0  0  0  0  0  0  0
   25.9619  -20.0384   -8.6868 C   0  0  0  0  0  0  0  0  0  0  0  0
   25.8227  -18.9713   -9.3271 O   0  0  0  0  0  0  0  0  0  0  0  0
   25.0601  -20.3073   -7.6446 O   0  0  0  0  0  0  0  0  0  0  0  0
  2  1  1  0
  3  2  1  0
  4  3  2  0
  5  3  1  0
  6 10  1  0
  6  5  1  0
  6  7  1  6
  8  7  1  0
  9  8  2  0
 10 13  1  0
 11 10  2  0
 12  8  1  0
 13 14  1  0
 14 15  1  6
 14 22  1  0
 15 16  1  0
 16 17  2  0
 17 18  1  0
 19 18  2  0
 20 19  1  0
 21 20  2  0
 21 16  1  0
 22 23  2  0
 22 24  1  0
M  END
$$$$
