GDF.pdb
     RDKit          3D

 24 24  0  0  1  0  0  0  0  0999 V2000
   27.8363  -22.6189  -17.9080 N   0  0  0  0  0  0  0  0  0  0  0  0
   28.7599  -21.8212  -17.1517 C   0  0  0  0  0  0  0  0  0  0  0  0
   28.0885  -20.9990  -16.1135 C   0  0  0  0  0  0  0  0  0  0  0  0
   28.7110  -20.3674  -15.2198 O   0  0  0  0  0  0  0  0  0  0  0  0
   26.6718  -20.9237  -16.1325 N   0  0  0  0  0  0  0  0  0  0  0  0
   25.8943  -20.1478  -15.2155 C   0  0  1  0  0  0  0  0  0  0  0  0
   24.9316  -19.2878  -16.0008 C   0  0  0  0  0  0  0  0  0  0  0  0
   23.9709  -18.5744  -15.1573 C   0  0  0  0  0  0  0  0  0  0  0  0
   24.3607  -17.5298  -14.5666 O   0  0  0  0  0  0  0  0  0  0  0  0
   25.2060  -20.9463  -14.1966 C   0  0  0  0  0  0  0  0  0  0  0  0
   24.4410  -21.8691  -14.5729 O   0  0  0  0  0  0  0  0  0  0  0  0
   22.6652  -18.9434  -14.9463 O   0  0  0  0  0  0  0  0  0  0  0  0
   25.3658  -20.7227  -12.8069 N   0  0  0  0  0  0  0  0  0  0  0  0
   24.6914  -21.5938  -11.8403 C   0  0  1  0  0  0  0  0  0  0  0  0
   25.6501  -22.1356  -10.8373 C   0  0  0  0  0  0  0  0  0  0  0  0
   26.1944  -21.0494  -10.0049 C   0  0  0  0  0  0  0  0  0  0  0  0
   25.4201  -20.3943   -9.0575 C   0  0  0  0  0  0  0  0  0  0  0  0
   25.9355  -19.3849   -8.2558 C   0  0  0  0  0  0  0  0  0  0  0  0
   27.2667  -19.0085   -8.3956 C   0  0  0  0  0  0  0  0  0  0  0  0
   28.0507  -19.6403   -9.3235 C   0  0  0  0  0  0  0  0  0  0  0  0
   27.5049  -20.6451  -10.1087 C   0  0  0  0  0  0  0  0  0  0  0  0
   23.6073  -20.8031  -11.2524 C   0  0  0  0  0  0  0  0  0  0  0  0
   23.6460  -19.5523  -11.2977 O   0  0  0  0  0  0  0  0  0  0  0  0
   22.5051  -21.4088  -10.6279 O   0  0  0  0  0  0  0  0  0  0  0  0
  2  1  1  0
  3  2  1  0
  4  3  2  0
  5  3  1  0
  6 10  1  0
  6  5  1  0
  6  7  1  6
  8  7  1  0
  9  8  2  0
 10 13  1  0
 11 10  2  0
 12  8  1  0
 13 14  1  0
 14 15  1  1
 14 22  1  0
 15 16  1  0
 16 17  2  0
 17 18  1  0
 19 18  2  0
 20 19  1  0
 21 20  2  0
 21 16  1  0
 22 23  2  0
 22 24  1  0
M  END
$$$$
