GDF.pdb
     RDKit          3D

 24 24  0  0  1  0  0  0  0  0999 V2000
   23.7878  -14.3346  -18.8869 N   0  0  0  0  0  0  0  0  0  0  0  0
   22.9803  -13.6072  -17.9486 C   0  0  0  0  0  0  0  0  0  0  0  0
   22.9839  -12.1447  -18.2044 C   0  0  0  0  0  0  0  0  0  0  0  0
   24.0286  -11.4866  -18.4509 O   0  0  0  0  0  0  0  0  0  0  0  0
   21.7438  -11.4562  -18.1684 N   0  0  0  0  0  0  0  0  0  0  0  0
   21.6045  -10.0398  -18.3173 C   0  0  1  0  0  0  0  0  0  0  0  0
   20.2907   -9.7503  -19.0051 C   0  0  0  0  0  0  0  0  0  0  0  0
   20.1651  -10.3987  -20.3118 C   0  0  0  0  0  0  0  0  0  0  0  0
   20.8613   -9.9527  -21.2650 O   0  0  0  0  0  0  0  0  0  0  0  0
   21.7388   -9.2945  -17.0619 C   0  0  0  0  0  0  0  0  0  0  0  0
   21.2561   -9.7918  -16.0140 O   0  0  0  0  0  0  0  0  0  0  0  0
   19.3467  -11.4629  -20.5998 O   0  0  0  0  0  0  0  0  0  0  0  0
   22.3890   -8.0386  -16.9791 N   0  0  0  0  0  0  0  0  0  0  0  0
   22.5564   -7.3824  -15.6794 C   0  0  1  0  0  0  0  0  0  0  0  0
   23.9765   -6.9989  -15.4444 C   0  0  0  0  0  0  0  0  0  0  0  0
   24.8539   -8.1765  -15.5559 C   0  0  0  0  0  0  0  0  0  0  0  0
   25.7273   -8.3409  -16.6219 C   0  0  0  0  0  0  0  0  0  0  0  0
   26.5715   -9.4386  -16.7194 C   0  0  0  0  0  0  0  0  0  0  0  0
   26.5519  -10.4109  -15.7257 C   0  0  0  0  0  0  0  0  0  0  0  0
   25.6988  -10.2708  -14.6639 C   0  0  0  0  0  0  0  0  0  0  0  0
   24.8682   -9.1620  -14.5966 C   0  0  0  0  0  0  0  0  0  0  0  0
   21.6291   -6.2484  -15.6626 C   0  0  0  0  0  0  0  0  0  0  0  0
   21.4692   -5.5832  -14.6137 O   0  0  0  0  0  0  0  0  0  0  0  0
   20.8991   -5.8732  -16.8019 O   0  0  0  0  0  0  0  0  0  0  0  0
  2  1  1  0
  3  2  1  0
  4  3  2  0
  5  3  1  0
  6 10  1  0
  6  5  1  0
  6  7  1  1
  8  7  1  0
  9  8  2  0
 10 13  1  0
 11 10  2  0
 12  8  1  0
 13 14  1  0
 14 15  1  6
 14 22  1  0
 15 16  1  0
 16 17  2  0
 17 18  1  0
 19 18  2  0
 20 19  1  0
 21 20  2  0
 21 16  1  0
 22 23  2  0
 22 24  1  0
M  END
$$$$
