GDF.pdb
     RDKit          3D

 24 24  0  0  1  0  0  0  0  0999 V2000
   31.9749    4.0934   -7.1111 N   0  0  0  0  0  0  0  0  0  0  0  0
   30.9240    4.1622   -6.1353 C   0  0  0  0  0  0  0  0  0  0  0  0
   29.5731    4.1919   -6.7508 C   0  0  0  0  0  0  0  0  0  0  0  0
   28.5101    4.2995   -6.0848 O   0  0  0  0  0  0  0  0  0  0  0  0
   29.4792    4.0937   -8.1631 N   0  0  0  0  0  0  0  0  0  0  0  0
   28.2513    4.1592   -8.8950 C   0  0  1  0  0  0  0  0  0  0  0  0
   28.5385    4.6908  -10.2798 C   0  0  0  0  0  0  0  0  0  0  0  0
   27.3307    4.9226  -11.0740 C   0  0  0  0  0  0  0  0  0  0  0  0
   26.2872    5.2973  -10.4717 O   0  0  0  0  0  0  0  0  0  0  0  0
   27.5176    2.8907   -8.9389 C   0  0  0  0  0  0  0  0  0  0  0  0
   28.0914    1.8817   -9.4197 O   0  0  0  0  0  0  0  0  0  0  0  0
   27.2271    4.7666  -12.4343 O   0  0  0  0  0  0  0  0  0  0  0  0
   26.1903    2.7531   -8.4631 N   0  0  0  0  0  0  0  0  0  0  0  0
   25.5890    1.4225   -8.3379 C   0  0  1  0  0  0  0  0  0  0  0  0
   26.2970    0.6013   -7.3165 C   0  0  0  0  0  0  0  0  0  0  0  0
   26.0065    1.1004   -5.9617 C   0  0  0  0  0  0  0  0  0  0  0  0
   26.9371    1.8290   -5.2342 C   0  0  0  0  0  0  0  0  0  0  0  0
   26.6591    2.3197   -3.9657 C   0  0  0  0  0  0  0  0  0  0  0  0
   25.4142    2.0815   -3.3944 C   0  0  0  0  0  0  0  0  0  0  0  0
   24.4793    1.3651   -4.0926 C   0  0  0  0  0  0  0  0  0  0  0  0
   24.7888    0.8889   -5.3581 C   0  0  0  0  0  0  0  0  0  0  0  0
   24.1692    1.6327   -8.0443 C   0  0  0  0  0  0  0  0  0  0  0  0
   23.3801    0.6605   -8.0297 O   0  0  0  0  0  0  0  0  0  0  0  0
   23.6514    2.9095   -7.7736 O   0  0  0  0  0  0  0  0  0  0  0  0
  2  1  1  0
  3  2  1  0
  4  3  2  0
  5  3  1  0
  6 10  1  0
  6  5  1  0
  6  7  1  6
  8  7  1  0
  9  8  2  0
 10 13  1  0
 11 10  2  0
 12  8  1  0
 13 14  1  0
 14 15  1  1
 14 22  1  0
 15 16  1  0
 16 17  2  0
 17 18  1  0
 19 18  2  0
 20 19  1  0
 21 20  2  0
 21 16  1  0
 22 23  2  0
 22 24  1  0
M  END
$$$$
