GDF.pdb
     RDKit          3D

 24 24  0  0  1  0  0  0  0  0999 V2000
   28.8582  -21.2557  -15.9668 N   0  0  0  0  0  0  0  0  0  0  0  0
   27.4737  -21.4048  -15.6170 C   0  0  0  0  0  0  0  0  0  0  0  0
   27.0743  -20.5364  -14.4808 C   0  0  0  0  0  0  0  0  0  0  0  0
   26.9528  -19.2866  -14.5729 O   0  0  0  0  0  0  0  0  0  0  0  0
   26.8170  -21.1503  -13.2278 N   0  0  0  0  0  0  0  0  0  0  0  0
   25.8862  -20.6510  -12.2624 C   0  0  1  0  0  0  0  0  0  0  0  0
   24.4876  -20.7962  -12.8153 C   0  0  0  0  0  0  0  0  0  0  0  0
   23.4799  -20.0679  -12.0422 C   0  0  0  0  0  0  0  0  0  0  0  0
   22.4853  -20.7117  -11.6083 O   0  0  0  0  0  0  0  0  0  0  0  0
   26.0160  -21.2668  -10.9383 C   0  0  0  0  0  0  0  0  0  0  0  0
   25.8013  -22.4996  -10.8259 O   0  0  0  0  0  0  0  0  0  0  0  0
   23.5180  -18.7286  -11.7419 O   0  0  0  0  0  0  0  0  0  0  0  0
   26.3727  -20.5326   -9.7804 N   0  0  0  0  0  0  0  0  0  0  0  0
   26.6080  -21.2290   -8.5125 C   0  0  1  0  0  0  0  0  0  0  0  0
   28.0173  -21.0671   -8.0582 C   0  0  0  0  0  0  0  0  0  0  0  0
   28.0704  -20.2881   -6.8095 C   0  0  0  0  0  0  0  0  0  0  0  0
   28.0106  -18.9016   -6.8080 C   0  0  0  0  0  0  0  0  0  0  0  0
   28.0384  -18.1648   -5.6317 C   0  0  0  0  0  0  0  0  0  0  0  0
   28.1287  -18.8232   -4.4105 C   0  0  0  0  0  0  0  0  0  0  0  0
   28.1889  -20.1909   -4.3862 C   0  0  0  0  0  0  0  0  0  0  0  0
   28.1589  -20.8973   -5.5796 C   0  0  0  0  0  0  0  0  0  0  0  0
   25.6195  -20.7115   -7.5632 C   0  0  0  0  0  0  0  0  0  0  0  0
   25.2980  -21.3883   -6.5597 O   0  0  0  0  0  0  0  0  0  0  0  0
   25.0079  -19.4602   -7.7411 O   0  0  0  0  0  0  0  0  0  0  0  0
  2  1  1  0
  3  2  1  0
  4  3  2  0
  5  3  1  0
  6 10  1  0
  6  5  1  0
  6  7  1  6
  8  7  1  0
  9  8  2  0
 10 13  1  0
 11 10  2  0
 12  8  1  0
 13 14  1  0
 14 15  1  1
 14 22  1  0
 15 16  1  0
 16 17  2  0
 17 18  1  0
 19 18  2  0
 20 19  1  0
 21 20  2  0
 21 16  1  0
 22 23  2  0
 22 24  1  0
M  END
$$$$
