GDF.pdb
     RDKit          3D

 24 24  0  0  1  0  0  0  0  0999 V2000
   17.6231    4.2742  -10.3127 N   0  0  0  0  0  0  0  0  0  0  0  0
   18.4149    5.2805   -9.6632 C   0  0  0  0  0  0  0  0  0  0  0  0
   19.8095    4.8370   -9.4122 C   0  0  0  0  0  0  0  0  0  0  0  0
   20.1870    3.6410   -9.5230 O   0  0  0  0  0  0  0  0  0  0  0  0
   20.7634    5.8144   -9.0276 N   0  0  0  0  0  0  0  0  0  0  0  0
   22.1319    5.5279   -8.7231 C   0  0  1  0  0  0  0  0  0  0  0  0
   22.9114    6.8223   -8.7242 C   0  0  0  0  0  0  0  0  0  0  0  0
   23.1748    7.3393  -10.0683 C   0  0  0  0  0  0  0  0  0  0  0  0
   23.4252    6.5092  -10.9850 O   0  0  0  0  0  0  0  0  0  0  0  0
   22.3189    4.7795   -7.4764 C   0  0  0  0  0  0  0  0  0  0  0  0
   21.5635    5.0331   -6.5050 O   0  0  0  0  0  0  0  0  0  0  0  0
   23.1752    8.6644  -10.4283 O   0  0  0  0  0  0  0  0  0  0  0  0
   23.3139    3.7834   -7.3193 N   0  0  0  0  0  0  0  0  0  0  0  0
   23.3167    2.9293   -6.1284 C   0  0  1  0  0  0  0  0  0  0  0  0
   23.1532    1.4936   -6.4902 C   0  0  0  0  0  0  0  0  0  0  0  0
   24.2161    1.0713   -7.4180 C   0  0  0  0  0  0  0  0  0  0  0  0
   24.1239    1.2892   -8.7856 C   0  0  0  0  0  0  0  0  0  0  0  0
   25.1334    0.9122   -9.6608 C   0  0  0  0  0  0  0  0  0  0  0  0
   26.2776    0.2966   -9.1658 C   0  0  0  0  0  0  0  0  0  0  0  0
   26.3918    0.0710   -7.8201 C   0  0  0  0  0  0  0  0  0  0  0  0
   25.3649    0.4600   -6.9727 C   0  0  0  0  0  0  0  0  0  0  0  0
   24.5609    3.2184   -5.4110 C   0  0  0  0  0  0  0  0  0  0  0  0
   25.4381    3.9387   -5.9400 O   0  0  0  0  0  0  0  0  0  0  0  0
   24.8100    2.7073   -4.1272 O   0  0  0  0  0  0  0  0  0  0  0  0
  2  1  1  0
  3  2  1  0
  4  3  2  0
  5  3  1  0
  6 10  1  0
  6  5  1  0
  6  7  1  1
  8  7  1  0
  9  8  2  0
 10 13  1  0
 11 10  2  0
 12  8  1  0
 13 14  1  0
 14 15  1  6
 14 22  1  0
 15 16  1  0
 16 17  2  0
 17 18  1  0
 19 18  2  0
 20 19  1  0
 21 20  2  0
 21 16  1  0
 22 23  2  0
 22 24  1  0
M  END
$$$$
