GDF.pdb
     RDKit          3D

 24 24  0  0  1  0  0  0  0  0999 V2000
   18.1678  -15.2395  -15.6781 N   0  0  0  0  0  0  0  0  0  0  0  0
   17.8829  -13.8496  -15.8982 C   0  0  0  0  0  0  0  0  0  0  0  0
   19.1025  -13.0555  -16.1923 C   0  0  0  0  0  0  0  0  0  0  0  0
   20.2605  -13.4105  -15.8483 O   0  0  0  0  0  0  0  0  0  0  0  0
   18.9514  -11.8338  -16.8978 N   0  0  0  0  0  0  0  0  0  0  0  0
   20.0295  -10.9472  -17.2130 C   0  0  1  0  0  0  0  0  0  0  0  0
   19.8659  -10.4699  -18.6371 C   0  0  0  0  0  0  0  0  0  0  0  0
   20.9854   -9.6515  -19.1066 C   0  0  0  0  0  0  0  0  0  0  0  0
   22.1529   -9.9965  -18.7748 O   0  0  0  0  0  0  0  0  0  0  0  0
   20.1721   -9.8288  -16.2758 C   0  0  0  0  0  0  0  0  0  0  0  0
   19.1334   -9.3232  -15.7820 O   0  0  0  0  0  0  0  0  0  0  0  0
   20.8801   -8.5257  -19.8856 O   0  0  0  0  0  0  0  0  0  0  0  0
   21.4297   -9.2936  -15.9029 N   0  0  0  0  0  0  0  0  0  0  0  0
   21.5111   -8.2667  -14.8605 C   0  0  1  0  0  0  0  0  0  0  0  0
   22.5472   -8.6052  -13.8453 C   0  0  0  0  0  0  0  0  0  0  0  0
   23.7668   -9.1071  -14.5007 C   0  0  0  0  0  0  0  0  0  0  0  0
   24.5177   -8.3138  -15.3569 C   0  0  0  0  0  0  0  0  0  0  0  0
   25.6797   -8.7761  -15.9594 C   0  0  0  0  0  0  0  0  0  0  0  0
   26.1165  -10.0716  -15.7063 C   0  0  0  0  0  0  0  0  0  0  0  0
   25.3926  -10.8734  -14.8650 C   0  0  0  0  0  0  0  0  0  0  0  0
   24.2359  -10.3809  -14.2789 C   0  0  0  0  0  0  0  0  0  0  0  0
   21.7513   -6.9947  -15.5464 C   0  0  0  0  0  0  0  0  0  0  0  0
   21.7242   -5.9198  -14.9044 O   0  0  0  0  0  0  0  0  0  0  0  0
   22.0161   -6.9361  -16.9241 O   0  0  0  0  0  0  0  0  0  0  0  0
  2  1  1  0
  3  2  1  0
  4  3  2  0
  5  3  1  0
  6 10  1  0
  6  5  1  0
  6  7  1  6
  8  7  1  0
  9  8  2  0
 10 13  1  0
 11 10  2  0
 12  8  1  0
 13 14  1  0
 14 15  1  1
 14 22  1  0
 15 16  1  0
 16 17  2  0
 17 18  1  0
 19 18  2  0
 20 19  1  0
 21 20  2  0
 21 16  1  0
 22 23  2  0
 22 24  1  0
M  END
$$$$
