GDF.pdb
     RDKit          3D

 24 24  0  0  1  0  0  0  0  0999 V2000
   18.1241  -12.0479  -18.6946 N   0  0  0  0  0  0  0  0  0  0  0  0
   17.8987  -10.9910  -17.7493 C   0  0  0  0  0  0  0  0  0  0  0  0
   19.0546  -10.0655  -17.6400 C   0  0  0  0  0  0  0  0  0  0  0  0
   20.1538  -10.3881  -17.1178 O   0  0  0  0  0  0  0  0  0  0  0  0
   18.9092   -8.7501  -18.1515 N   0  0  0  0  0  0  0  0  0  0  0  0
   19.9374   -7.7554  -18.1196 C   0  0  1  0  0  0  0  0  0  0  0  0
   19.5902   -6.6655  -19.1067 C   0  0  0  0  0  0  0  0  0  0  0  0
   19.9022   -7.0178  -20.4930 C   0  0  0  0  0  0  0  0  0  0  0  0
   18.9446   -7.3095  -21.2611 O   0  0  0  0  0  0  0  0  0  0  0  0
   20.2009   -7.2162  -16.7819 C   0  0  0  0  0  0  0  0  0  0  0  0
   19.2248   -6.8628  -16.0742 O   0  0  0  0  0  0  0  0  0  0  0  0
   21.1599   -7.0614  -21.0422 O   0  0  0  0  0  0  0  0  0  0  0  0
   21.5076   -7.0764  -16.2529 N   0  0  0  0  0  0  0  0  0  0  0  0
   21.6955   -6.6722  -14.8567 C   0  0  1  0  0  0  0  0  0  0  0  0
   22.1992   -7.8026  -14.0278 C   0  0  0  0  0  0  0  0  0  0  0  0
   23.2188   -8.5683  -14.7648 C   0  0  0  0  0  0  0  0  0  0  0  0
   22.9249   -9.7779  -15.3785 C   0  0  0  0  0  0  0  0  0  0  0  0
   23.8777  -10.4918  -16.0925 C   0  0  0  0  0  0  0  0  0  0  0  0
   25.1700   -9.9913  -16.2044 C   0  0  0  0  0  0  0  0  0  0  0  0
   25.4842   -8.7996  -15.6076 C   0  0  0  0  0  0  0  0  0  0  0  0
   24.5088   -8.1112  -14.9015 C   0  0  0  0  0  0  0  0  0  0  0  0
   22.5889   -5.5112  -14.8757 C   0  0  0  0  0  0  0  0  0  0  0  0
   22.8537   -4.9049  -13.8124 O   0  0  0  0  0  0  0  0  0  0  0  0
   23.1702   -5.0449  -16.0657 O   0  0  0  0  0  0  0  0  0  0  0  0
  2  1  1  0
  3  2  1  0
  4  3  2  0
  5  3  1  0
  6 10  1  0
  6  5  1  0
  6  7  1  6
  8  7  1  0
  9  8  2  0
 10 13  1  0
 11 10  2  0
 12  8  1  0
 13 14  1  0
 14 15  1  1
 14 22  1  0
 15 16  1  0
 16 17  2  0
 17 18  1  0
 19 18  2  0
 20 19  1  0
 21 20  2  0
 21 16  1  0
 22 23  2  0
 22 24  1  0
M  END
$$$$
