GDF.pdb
     RDKit          3D

 24 24  0  0  1  0  0  0  0  0999 V2000
   17.0307  -12.1395  -15.7939 N   0  0  0  0  0  0  0  0  0  0  0  0
   16.8204  -10.7798  -15.3835 C   0  0  0  0  0  0  0  0  0  0  0  0
   17.9388   -9.8850  -15.7746 C   0  0  0  0  0  0  0  0  0  0  0  0
   19.1442  -10.2482  -15.7901 O   0  0  0  0  0  0  0  0  0  0  0  0
   17.6294   -8.5521  -16.1498 N   0  0  0  0  0  0  0  0  0  0  0  0
   18.6080   -7.5525  -16.4512 C   0  0  1  0  0  0  0  0  0  0  0  0
   18.0221   -6.5850  -17.4529 C   0  0  0  0  0  0  0  0  0  0  0  0
   18.9791   -5.5776  -17.9142 C   0  0  0  0  0  0  0  0  0  0  0  0
   18.5889   -4.3802  -17.9925 O   0  0  0  0  0  0  0  0  0  0  0  0
   19.1352   -6.8622  -15.2700 C   0  0  0  0  0  0  0  0  0  0  0  0
   18.3274   -6.4859  -14.3843 O   0  0  0  0  0  0  0  0  0  0  0  0
   20.2815   -5.8197  -18.2756 O   0  0  0  0  0  0  0  0  0  0  0  0
   20.5151   -6.6012  -15.0840 N   0  0  0  0  0  0  0  0  0  0  0  0
   20.9875   -6.0049  -13.8313 C   0  0  1  0  0  0  0  0  0  0  0  0
   21.9048   -6.9261  -13.1042 C   0  0  0  0  0  0  0  0  0  0  0  0
   22.8656   -7.5394  -14.0368 C   0  0  0  0  0  0  0  0  0  0  0  0
   23.0359   -8.9146  -14.1138 C   0  0  0  0  0  0  0  0  0  0  0  0
   23.9247   -9.4975  -15.0068 C   0  0  0  0  0  0  0  0  0  0  0  0
   24.6736   -8.6908  -15.8562 C   0  0  0  0  0  0  0  0  0  0  0  0
   24.5231   -7.3311  -15.7990 C   0  0  0  0  0  0  0  0  0  0  0  0
   23.6263   -6.7804  -14.8953 C   0  0  0  0  0  0  0  0  0  0  0  0
   21.5995   -4.7218  -14.1854 C   0  0  0  0  0  0  0  0  0  0  0  0
   21.7563   -4.4112  -15.3884 O   0  0  0  0  0  0  0  0  0  0  0  0
   22.0247   -3.8101  -13.2057 O   0  0  0  0  0  0  0  0  0  0  0  0
  2  1  1  0
  3  2  1  0
  4  3  2  0
  5  3  1  0
  6 10  1  0
  6  5  1  0
  6  7  1  6
  8  7  1  0
  9  8  2  0
 10 13  1  0
 11 10  2  0
 12  8  1  0
 13 14  1  0
 14 15  1  6
 14 22  1  0
 15 16  1  0
 16 17  2  0
 17 18  1  0
 19 18  2  0
 20 19  1  0
 21 20  2  0
 21 16  1  0
 22 23  2  0
 22 24  1  0
M  END
$$$$
