GDF.pdb
     RDKit          3D

 24 24  0  0  1  0  0  0  0  0999 V2000
   28.3196  -17.9411  -14.9161 N   0  0  0  0  0  0  0  0  0  0  0  0
   27.9565  -19.2473  -14.4436 C   0  0  0  0  0  0  0  0  0  0  0  0
   27.0793  -19.1990  -13.2467 C   0  0  0  0  0  0  0  0  0  0  0  0
   26.8331  -18.1411  -12.6099 O   0  0  0  0  0  0  0  0  0  0  0  0
   26.4895  -20.4097  -12.8001 N   0  0  0  0  0  0  0  0  0  0  0  0
   25.6140  -20.5112  -11.6728 C   0  0  1  0  0  0  0  0  0  0  0  0
   24.5410  -21.5294  -11.9806 C   0  0  0  0  0  0  0  0  0  0  0  0
   23.5840  -21.0757  -12.9914 C   0  0  0  0  0  0  0  0  0  0  0  0
   22.9112  -20.0365  -12.7475 O   0  0  0  0  0  0  0  0  0  0  0  0
   26.3012  -20.8070  -10.4119 C   0  0  0  0  0  0  0  0  0  0  0  0
   27.0944  -21.7806  -10.3746 O   0  0  0  0  0  0  0  0  0  0  0  0
   23.3472  -21.6865  -14.1981 O   0  0  0  0  0  0  0  0  0  0  0  0
   26.1097  -20.0433   -9.2342 N   0  0  0  0  0  0  0  0  0  0  0  0
   26.8685  -20.3607   -8.0213 C   0  0  1  0  0  0  0  0  0  0  0  0
   27.3977  -19.1278   -7.3742 C   0  0  0  0  0  0  0  0  0  0  0  0
   28.0824  -19.4603   -6.1135 C   0  0  0  0  0  0  0  0  0  0  0  0
   29.2690  -20.1797   -6.0919 C   0  0  0  0  0  0  0  0  0  0  0  0
   29.9288  -20.4762   -4.9071 C   0  0  0  0  0  0  0  0  0  0  0  0
   29.3957  -20.0454   -3.6974 C   0  0  0  0  0  0  0  0  0  0  0  0
   28.2259  -19.3338   -3.6929 C   0  0  0  0  0  0  0  0  0  0  0  0
   27.5917  -19.0542   -4.8944 C   0  0  0  0  0  0  0  0  0  0  0  0
   25.9737  -21.1399   -7.1619 C   0  0  0  0  0  0  0  0  0  0  0  0
   24.7323  -21.0243   -7.2789 O   0  0  0  0  0  0  0  0  0  0  0  0
   26.4673  -22.0285   -6.1933 O   0  0  0  0  0  0  0  0  0  0  0  0
  2  1  1  0
  3  2  1  0
  4  3  2  0
  5  3  1  0
  6 10  1  0
  6  5  1  0
  6  7  1  6
  8  7  1  0
  9  8  2  0
 10 13  1  0
 11 10  2  0
 12  8  1  0
 13 14  1  0
 14 15  1  1
 14 22  1  0
 15 16  1  0
 16 17  2  0
 17 18  1  0
 19 18  2  0
 20 19  1  0
 21 20  2  0
 21 16  1  0
 22 23  2  0
 22 24  1  0
M  END
$$$$
