GDF.pdb
     RDKit          3D

 24 24  0  0  1  0  0  0  0  0999 V2000
   13.0861  -13.6830    5.7248 N   0  0  0  0  0  0  0  0  0  0  0  0
   13.7954  -14.8499    5.2813 C   0  0  0  0  0  0  0  0  0  0  0  0
   14.8242  -15.2977    6.2538 C   0  0  0  0  0  0  0  0  0  0  0  0
   15.6247  -14.5127    6.8267 O   0  0  0  0  0  0  0  0  0  0  0  0
   14.9066  -16.6827    6.5504 N   0  0  0  0  0  0  0  0  0  0  0  0
   15.8495  -17.2566    7.4611 C   0  0  1  0  0  0  0  0  0  0  0  0
   15.1651  -18.3542    8.2419 C   0  0  0  0  0  0  0  0  0  0  0  0
   15.9884  -18.8953    9.3248 C   0  0  0  0  0  0  0  0  0  0  0  0
   15.9665  -20.1416    9.5210 O   0  0  0  0  0  0  0  0  0  0  0  0
   17.0813  -17.7287    6.8215 C   0  0  0  0  0  0  0  0  0  0  0  0
   16.9919  -18.3568    5.7370 O   0  0  0  0  0  0  0  0  0  0  0  0
   16.7936  -18.1603   10.1595 O   0  0  0  0  0  0  0  0  0  0  0  0
   18.3674  -17.5078    7.3728 N   0  0  0  0  0  0  0  0  0  0  0  0
   19.5592  -18.0042    6.6791 C   0  0  1  0  0  0  0  0  0  0  0  0
   20.3250  -16.8910    6.0521 C   0  0  0  0  0  0  0  0  0  0  0  0
   19.5581  -16.2977    4.9436 C   0  0  0  0  0  0  0  0  0  0  0  0
   19.3066  -16.9958    3.7708 C   0  0  0  0  0  0  0  0  0  0  0  0
   18.5656  -16.4480    2.7325 C   0  0  0  0  0  0  0  0  0  0  0  0
   18.0536  -15.1614    2.8580 C   0  0  0  0  0  0  0  0  0  0  0  0
   18.2883  -14.4527    4.0058 C   0  0  0  0  0  0  0  0  0  0  0  0
   19.0326  -15.0292    5.0245 C   0  0  0  0  0  0  0  0  0  0  0  0
   20.3284  -18.7664    7.6658 C   0  0  0  0  0  0  0  0  0  0  0  0
   21.4029  -19.3179    7.3348 O   0  0  0  0  0  0  0  0  0  0  0  0
   19.8962  -18.9035    8.9947 O   0  0  0  0  0  0  0  0  0  0  0  0
  2  1  1  0
  3  2  1  0
  4  3  2  0
  5  3  1  0
  6 10  1  0
  6  5  1  0
  6  7  1  6
  8  7  1  0
  9  8  2  0
 10 13  1  0
 11 10  2  0
 12  8  1  0
 13 14  1  0
 14 15  1  1
 14 22  1  0
 15 16  1  0
 16 17  2  0
 17 18  1  0
 19 18  2  0
 20 19  1  0
 21 20  2  0
 21 16  1  0
 22 23  2  0
 22 24  1  0
M  END
$$$$
