GDF.pdb
     RDKit          3D

 24 24  0  0  1  0  0  0  0  0999 V2000
   29.5445  -19.8946  -14.4855 N   0  0  0  0  0  0  0  0  0  0  0  0
   28.1714  -20.3023  -14.5859 C   0  0  0  0  0  0  0  0  0  0  0  0
   27.3555  -19.8531  -13.4296 C   0  0  0  0  0  0  0  0  0  0  0  0
   27.2887  -18.6536  -13.0527 O   0  0  0  0  0  0  0  0  0  0  0  0
   26.6141  -20.8288  -12.7146 N   0  0  0  0  0  0  0  0  0  0  0  0
   25.5854  -20.5243  -11.7677 C   0  0  1  0  0  0  0  0  0  0  0  0
   24.2818  -21.1066  -12.2620 C   0  0  0  0  0  0  0  0  0  0  0  0
   23.7289  -20.3942  -13.4154 C   0  0  0  0  0  0  0  0  0  0  0  0
   23.6815  -21.0008  -14.5207 O   0  0  0  0  0  0  0  0  0  0  0  0
   25.8910  -20.9542  -10.3998 C   0  0  0  0  0  0  0  0  0  0  0  0
   26.2607  -22.1402  -10.2118 O   0  0  0  0  0  0  0  0  0  0  0  0
   23.2507  -19.1071  -13.4049 O   0  0  0  0  0  0  0  0  0  0  0  0
   25.7877  -20.0910   -9.2812 N   0  0  0  0  0  0  0  0  0  0  0  0
   25.9758  -20.6181   -7.9267 C   0  0  1  0  0  0  0  0  0  0  0  0
   26.2236  -19.5228   -6.9481 C   0  0  0  0  0  0  0  0  0  0  0  0
   27.5465  -19.6813   -6.3207 C   0  0  0  0  0  0  0  0  0  0  0  0
   28.3943  -18.6017   -6.1161 C   0  0  0  0  0  0  0  0  0  0  0  0
   29.6329  -18.7437   -5.5053 C   0  0  0  0  0  0  0  0  0  0  0  0
   30.0495  -20.0003   -5.0806 C   0  0  0  0  0  0  0  0  0  0  0  0
   29.2305  -21.0809   -5.2713 C   0  0  0  0  0  0  0  0  0  0  0  0
   27.9990  -20.9049   -5.8848 C   0  0  0  0  0  0  0  0  0  0  0  0
   24.7892  -21.4220   -7.6238 C   0  0  0  0  0  0  0  0  0  0  0  0
   24.8245  -22.2732   -6.7059 O   0  0  0  0  0  0  0  0  0  0  0  0
   23.5906  -21.2697   -8.3392 O   0  0  0  0  0  0  0  0  0  0  0  0
  2  1  1  0
  3  2  1  0
  4  3  2  0
  5  3  1  0
  6 10  1  0
  6  5  1  0
  6  7  1  6
  8  7  1  0
  9  8  2  0
 10 13  1  0
 11 10  2  0
 12  8  1  0
 13 14  1  0
 14 15  1  1
 14 22  1  0
 15 16  1  0
 16 17  2  0
 17 18  1  0
 19 18  2  0
 20 19  1  0
 21 20  2  0
 21 16  1  0
 22 23  2  0
 22 24  1  0
M  END
$$$$
