GDF.pdb
     RDKit          3D

 24 24  0  0  1  0  0  0  0  0999 V2000
    8.9066  -18.7234   -4.8723 N   0  0  0  0  0  0  0  0  0  0  0  0
    8.4559  -18.6225   -3.5128 C   0  0  0  0  0  0  0  0  0  0  0  0
    9.5765  -18.6018   -2.5389 C   0  0  0  0  0  0  0  0  0  0  0  0
   10.7743  -18.8257   -2.8556 O   0  0  0  0  0  0  0  0  0  0  0  0
    9.2783  -18.3146   -1.1818 N   0  0  0  0  0  0  0  0  0  0  0  0
   10.2596  -18.2169   -0.1449 C   0  0  1  0  0  0  0  0  0  0  0  0
    9.6845  -17.4074    0.9939 C   0  0  0  0  0  0  0  0  0  0  0  0
   10.6971  -16.9409    1.9428 C   0  0  0  0  0  0  0  0  0  0  0  0
   11.8811  -17.3520    1.7971 O   0  0  0  0  0  0  0  0  0  0  0  0
   10.7727  -19.5123    0.3112 C   0  0  0  0  0  0  0  0  0  0  0  0
    9.9952  -20.4993    0.3123 O   0  0  0  0  0  0  0  0  0  0  0  0
   10.4734  -16.0850    2.9929 O   0  0  0  0  0  0  0  0  0  0  0  0
   12.1064  -19.6996    0.7507 N   0  0  0  0  0  0  0  0  0  0  0  0
   12.6064  -21.0495    1.0259 C   0  0  1  0  0  0  0  0  0  0  0  0
   13.9691  -21.2492    0.4585 C   0  0  0  0  0  0  0  0  0  0  0  0
   14.9879  -20.6605    1.3442 C   0  0  0  0  0  0  0  0  0  0  0  0
   15.7035  -21.4301    2.2507 C   0  0  0  0  0  0  0  0  0  0  0  0
   16.6799  -20.8826    3.0718 C   0  0  0  0  0  0  0  0  0  0  0  0
   16.9598  -19.5229    2.9941 C   0  0  0  0  0  0  0  0  0  0  0  0
   16.2671  -18.7429    2.1073 C   0  0  0  0  0  0  0  0  0  0  0  0
   15.2977  -19.3211    1.3011 C   0  0  0  0  0  0  0  0  0  0  0  0
   12.5402  -21.2304    2.4782 C   0  0  0  0  0  0  0  0  0  0  0  0
   12.2083  -20.2744    3.2158 O   0  0  0  0  0  0  0  0  0  0  0  0
   12.8413  -22.4606    3.0845 O   0  0  0  0  0  0  0  0  0  0  0  0
  2  1  1  0
  3  2  1  0
  4  3  2  0
  5  3  1  0
  6 10  1  0
  6  5  1  0
  6  7  1  1
  8  7  1  0
  9  8  2  0
 10 13  1  0
 11 10  2  0
 12  8  1  0
 13 14  1  0
 14 15  1  1
 14 22  1  0
 15 16  1  0
 16 17  2  0
 17 18  1  0
 19 18  2  0
 20 19  1  0
 21 20  2  0
 21 16  1  0
 22 23  2  0
 22 24  1  0
M  END
$$$$
