TNV.pdb
     RDKit          3D

 23 22  0  0  1  0  0  0  0  0999 V2000
   19.5369  -10.7068  -15.2003 C   0  0  0  0  0  0  0  0  0  0  0  0
   18.1362  -10.9772  -15.7023 C   0  0  1  0  0  0  0  0  0  0  0  0
   18.0110  -12.2785  -16.1658 O   0  0  0  0  0  0  0  0  0  0  0  0
   17.1009  -10.6418  -14.6460 C   0  0  2  0  0  0  0  0  0  0  0  0
   15.7718  -10.9464  -15.1364 N   0  0  0  0  0  0  0  0  0  0  0  0
   17.1352   -9.2238  -14.2300 C   0  0  0  0  0  0  0  0  0  0  0  0
   16.6684   -8.3242  -14.9887 O   0  0  0  0  0  0  0  0  0  0  0  0
   17.3536   -5.9914   -9.1850 N   0  0  0  0  0  0  0  0  0  0  0  0
   17.1365   -6.0009  -10.6254 C   0  0  0  0  0  0  0  0  0  0  0  0
   16.9999   -4.8872  -11.1236 O   0  0  0  0  0  0  0  0  0  0  0  0
   17.1020   -7.2678  -11.3154 C   0  0  0  0  0  0  0  0  0  0  0  0
   17.7442   -7.3229  -12.6642 C   0  0  2  0  0  0  0  0  0  0  0  0
   17.6713   -8.7875  -13.0022 N   0  0  0  0  0  0  0  0  0  0  0  0
   19.1733   -7.0219  -12.6729 C   0  0  0  0  0  0  0  0  0  0  0  0
   19.9365   -7.6569  -11.8561 O   0  0  0  0  0  0  0  0  0  0  0  0
   21.4874   -5.6406  -15.8309 C   0  0  0  0  0  0  0  0  0  0  0  0
   21.9598   -6.4048  -14.6244 C   0  0  2  0  0  0  0  0  0  0  0  0
   21.8598   -7.8868  -14.7678 C   0  0  0  0  0  0  0  0  0  0  0  0
   21.3077   -5.8905  -13.3452 C   0  0  2  0  0  0  0  0  0  0  0  0
   19.8743   -6.1038  -13.4822 N   0  0  0  0  0  0  0  0  0  0  0  0
   21.6612   -4.5101  -13.0570 C   0  0  0  0  0  0  0  0  0  0  0  0
   22.9238   -4.1891  -12.6077 O   0  0  0  0  0  0  0  0  0  0  0  0
   20.8447   -3.5770  -13.2042 O   0  0  0  0  0  0  0  0  0  0  0  0
  2  1  1  1
  3  2  1  0
  4  2  1  0
  4  6  1  0
  4  5  1  6
  6  7  2  0
  8  9  1  0
  9 11  1  0
 10  9  2  0
 12 11  1  1
 12 14  1  0
 13 12  1  0
 13  6  1  0
 14 20  1  0
 14 15  2  0
 17 16  1  6
 17 19  1  0
 18 17  1  0
 19 21  1  0
 19 20  1  6
 21 23  2  0
 21 22  1  0
M  END
$$$$
