TNV.pdb
     RDKit          3D

 23 22  0  0  1  0  0  0  0  0999 V2000
   18.6771   -9.7479  -17.4466 C   0  0  0  0  0  0  0  0  0  0  0  0
   17.2103  -10.0911  -17.3127 C   0  0  1  0  0  0  0  0  0  0  0  0
   16.8545  -11.1203  -18.1719 O   0  0  0  0  0  0  0  0  0  0  0  0
   16.8475  -10.3947  -15.8717 C   0  0  2  0  0  0  0  0  0  0  0  0
   15.4487  -10.7606  -15.7765 N   0  0  0  0  0  0  0  0  0  0  0  0
   17.1000   -9.2599  -14.9588 C   0  0  0  0  0  0  0  0  0  0  0  0
   16.3900   -8.2141  -15.0283 O   0  0  0  0  0  0  0  0  0  0  0  0
   16.3424   -9.6277  -10.5308 N   0  0  0  0  0  0  0  0  0  0  0  0
   17.1836   -8.4900  -10.8774 C   0  0  0  0  0  0  0  0  0  0  0  0
   16.8105   -7.4216  -10.4016 O   0  0  0  0  0  0  0  0  0  0  0  0
   18.3370   -8.7079  -11.7168 C   0  0  0  0  0  0  0  0  0  0  0  0
   18.3175   -8.0784  -13.0725 C   0  0  2  0  0  0  0  0  0  0  0  0
   18.1137   -9.2614  -13.9802 N   0  0  0  0  0  0  0  0  0  0  0  0
   19.5934   -7.5114  -13.5009 C   0  0  0  0  0  0  0  0  0  0  0  0
   20.6022   -8.2991  -13.6224 O   0  0  0  0  0  0  0  0  0  0  0  0
   22.3592   -4.7741  -16.2798 C   0  0  0  0  0  0  0  0  0  0  0  0
   21.0406   -5.1793  -15.6799 C   0  0  2  0  0  0  0  0  0  0  0  0
   19.9991   -4.1117  -15.7273 C   0  0  0  0  0  0  0  0  0  0  0  0
   21.2177   -5.7691  -14.2845 C   0  0  2  0  0  0  0  0  0  0  0  0
   19.8977   -6.1720  -13.8216 N   0  0  0  0  0  0  0  0  0  0  0  0
   21.8944   -4.8570  -13.3771 C   0  0  0  0  0  0  0  0  0  0  0  0
   23.2708   -4.7996  -13.3383 O   0  0  0  0  0  0  0  0  0  0  0  0
   21.2618   -4.1020  -12.6097 O   0  0  0  0  0  0  0  0  0  0  0  0
  2  1  1  1
  3  2  1  0
  4  2  1  0
  4  6  1  0
  4  5  1  6
  6  7  2  0
  8  9  1  0
  9 11  1  0
 10  9  2  0
 12 11  1  1
 12 14  1  0
 13 12  1  0
 13  6  1  0
 14 20  1  0
 14 15  2  0
 17 16  1  1
 17 19  1  0
 18 17  1  0
 19 21  1  0
 19 20  1  1
 21 23  2  0
 21 22  1  0
M  END
$$$$
