TNV.pdb
     RDKit          3D

 23 22  0  0  1  0  0  0  0  0999 V2000
   20.6561  -17.0869  -17.3059 C   0  0  0  0  0  0  0  0  0  0  0  0
   21.1702  -17.9958  -16.2118 C   0  0  1  0  0  0  0  0  0  0  0  0
   20.9235  -17.4602  -14.9563 O   0  0  0  0  0  0  0  0  0  0  0  0
   20.6127  -19.3987  -16.3573 C   0  0  2  0  0  0  0  0  0  0  0  0
   19.1832  -19.3939  -16.1207 N   0  0  0  0  0  0  0  0  0  0  0  0
   21.2387  -20.3699  -15.4356 C   0  0  0  0  0  0  0  0  0  0  0  0
   20.6579  -20.6939  -14.3583 O   0  0  0  0  0  0  0  0  0  0  0  0
   24.0345  -25.0352  -14.1674 N   0  0  0  0  0  0  0  0  0  0  0  0
   24.5648  -23.9463  -14.9768 C   0  0  0  0  0  0  0  0  0  0  0  0
   25.7891  -23.9331  -15.0670 O   0  0  0  0  0  0  0  0  0  0  0  0
   23.6425  -23.0141  -15.5789 C   0  0  0  0  0  0  0  0  0  0  0  0
   23.0816  -21.9479  -14.6938 C   0  0  2  0  0  0  0  0  0  0  0  0
   22.4832  -20.9831  -15.6817 N   0  0  0  0  0  0  0  0  0  0  0  0
   24.0815  -21.1584  -13.9799 C   0  0  0  0  0  0  0  0  0  0  0  0
   24.6732  -20.2071  -14.6105 O   0  0  0  0  0  0  0  0  0  0  0  0
   26.3740  -19.6691   -9.8535 C   0  0  0  0  0  0  0  0  0  0  0  0
   25.6424  -20.7529  -10.5971 C   0  0  2  0  0  0  0  0  0  0  0  0
   26.1325  -22.1304  -10.2986 C   0  0  0  0  0  0  0  0  0  0  0  0
   25.5782  -20.4607  -12.0927 C   0  0  2  0  0  0  0  0  0  0  0  0
   24.5104  -21.2836  -12.6420 N   0  0  0  0  0  0  0  0  0  0  0  0
   26.8579  -20.6587  -12.7534 C   0  0  0  0  0  0  0  0  0  0  0  0
   27.7522  -19.6173  -12.8753 O   0  0  0  0  0  0  0  0  0  0  0  0
   27.1894  -21.7649  -13.2282 O   0  0  0  0  0  0  0  0  0  0  0  0
  2  1  1  6
  3  2  1  0
  4  2  1  0
  4  6  1  0
  4  5  1  1
  6  7  2  0
  8  9  1  0
  9 11  1  0
 10  9  2  0
 12 11  1  6
 12 14  1  0
 13 12  1  0
 13  6  1  0
 14 20  1  0
 14 15  2  0
 17 16  1  1
 17 19  1  0
 18 17  1  0
 19 21  1  0
 19 20  1  6
 21 23  2  0
 21 22  1  0
M  END
$$$$
