TNV.pdb
     RDKit          3D

 23 22  0  0  1  0  0  0  0  0999 V2000
   11.5884  -10.5338  -11.8162 C   0  0  0  0  0  0  0  0  0  0  0  0
   11.9259  -11.9827  -11.5435 C   0  0  1  0  0  0  0  0  0  0  0  0
   10.9162  -12.8254  -11.9845 O   0  0  0  0  0  0  0  0  0  0  0  0
   13.2765  -12.3503  -12.1272 C   0  0  2  0  0  0  0  0  0  0  0  0
   13.5802  -13.7387  -11.8448 N   0  0  0  0  0  0  0  0  0  0  0  0
   14.3792  -11.5130  -11.6096 C   0  0  0  0  0  0  0  0  0  0  0  0
   14.8744  -11.7436  -10.4674 O   0  0  0  0  0  0  0  0  0  0  0  0
   18.6523   -8.4540  -11.4852 N   0  0  0  0  0  0  0  0  0  0  0  0
   18.2789   -8.9114  -12.8169 C   0  0  0  0  0  0  0  0  0  0  0  0
   19.1122   -8.6720  -13.6860 O   0  0  0  0  0  0  0  0  0  0  0  0
   17.0123   -9.5799  -12.9930 C   0  0  0  0  0  0  0  0  0  0  0  0
   16.1279   -9.6841  -11.7923 C   0  0  2  0  0  0  0  0  0  0  0  0
   14.9384  -10.4360  -12.3256 N   0  0  0  0  0  0  0  0  0  0  0  0
   15.5737   -8.4143  -11.3301 C   0  0  0  0  0  0  0  0  0  0  0  0
   14.7840   -7.7707  -12.1143 O   0  0  0  0  0  0  0  0  0  0  0  0
   15.5871   -6.8551   -7.3588 C   0  0  0  0  0  0  0  0  0  0  0  0
   14.5553   -6.5690   -8.4153 C   0  0  2  0  0  0  0  0  0  0  0  0
   13.3819   -7.4903   -8.3824 C   0  0  0  0  0  0  0  0  0  0  0  0
   15.1857   -6.4657   -9.8003 C   0  0  2  0  0  0  0  0  0  0  0  0
   15.7781   -7.7620  -10.0964 N   0  0  0  0  0  0  0  0  0  0  0  0
   16.1280   -5.3634   -9.9016 C   0  0  0  0  0  0  0  0  0  0  0  0
   15.6791   -4.0689  -10.0495 O   0  0  0  0  0  0  0  0  0  0  0  0
   17.3624   -5.5466   -9.8586 O   0  0  0  0  0  0  0  0  0  0  0  0
  2  1  1  6
  3  2  1  0
  4  2  1  0
  4  6  1  0
  4  5  1  1
  6  7  2  0
  8  9  1  0
  9 11  1  0
 10  9  2  0
 12 11  1  6
 12 14  1  0
 13 12  1  0
 13  6  1  0
 14 20  1  0
 14 15  2  0
 17 16  1  1
 17 19  1  0
 18 17  1  0
 19 21  1  0
 19 20  1  1
 21 23  2  0
 21 22  1  0
M  END
$$$$
