TNV.pdb
     RDKit          3D

 23 22  0  0  1  0  0  0  0  0999 V2000
   28.8424  -21.1234  -18.2226 C   0  0  0  0  0  0  0  0  0  0  0  0
   27.9771  -20.4472  -17.1828 C   0  0  1  0  0  0  0  0  0  0  0  0
   28.6792  -19.4572  -16.5114 O   0  0  0  0  0  0  0  0  0  0  0  0
   26.6914  -19.9250  -17.7948 C   0  0  2  0  0  0  0  0  0  0  0  0
   26.9863  -18.8945  -18.7699 N   0  0  0  0  0  0  0  0  0  0  0  0
   25.7556  -19.3713  -16.7936 C   0  0  0  0  0  0  0  0  0  0  0  0
   26.0013  -18.2623  -16.2345 O   0  0  0  0  0  0  0  0  0  0  0  0
   22.5439  -16.7782  -16.2643 N   0  0  0  0  0  0  0  0  0  0  0  0
   22.1590  -18.0397  -16.8827 C   0  0  0  0  0  0  0  0  0  0  0  0
   21.6827  -17.9265  -18.0085 O   0  0  0  0  0  0  0  0  0  0  0  0
   22.3626  -19.2651  -16.1482 C   0  0  0  0  0  0  0  0  0  0  0  0
   23.6434  -19.3953  -15.3885 C   0  0  2  0  0  0  0  0  0  0  0  0
   24.5649  -20.0159  -16.4036 N   0  0  0  0  0  0  0  0  0  0  0  0
   23.6089  -20.3624  -14.2946 C   0  0  0  0  0  0  0  0  0  0  0  0
   23.2838  -21.5770  -14.5628 O   0  0  0  0  0  0  0  0  0  0  0  0
   24.6421  -19.8737  -10.0251 C   0  0  0  0  0  0  0  0  0  0  0  0
   24.8658  -21.0550  -10.9291 C   0  0  2  0  0  0  0  0  0  0  0  0
   26.2147  -21.0837  -11.5668 C   0  0  0  0  0  0  0  0  0  0  0  0
   23.7327  -21.2106  -11.9381 C   0  0  2  0  0  0  0  0  0  0  0  0
   23.8973  -20.1573  -12.9293 N   0  0  0  0  0  0  0  0  0  0  0  0
   22.4228  -21.2106  -11.3076 C   0  0  0  0  0  0  0  0  0  0  0  0
   21.9480  -22.3409  -10.6781 O   0  0  0  0  0  0  0  0  0  0  0  0
   21.6897  -20.1999  -11.3129 O   0  0  0  0  0  0  0  0  0  0  0  0
  2  1  1  6
  3  2  1  0
  4  2  1  0
  4  6  1  0
  4  5  1  6
  6  7  2  0
  8  9  1  0
  9 11  1  0
 10  9  2  0
 12 11  1  6
 12 14  1  0
 13 12  1  0
 13  6  1  0
 14 20  1  0
 14 15  2  0
 17 16  1  6
 17 19  1  0
 18 17  1  0
 19 21  1  0
 19 20  1  6
 21 23  2  0
 21 22  1  0
M  END
$$$$
