TNV.pdb
     RDKit          3D

 23 22  0  0  1  0  0  0  0  0999 V2000
   26.1488  -19.3042  -17.1972 C   0  0  0  0  0  0  0  0  0  0  0  0
   27.1156  -20.4649  -17.2702 C   0  0  1  0  0  0  0  0  0  0  0  0
   28.2255  -20.1469  -18.0389 O   0  0  0  0  0  0  0  0  0  0  0  0
   27.4965  -20.9492  -15.8844 C   0  0  2  0  0  0  0  0  0  0  0  0
   28.4221  -22.0599  -15.9816 N   0  0  0  0  0  0  0  0  0  0  0  0
   26.3328  -21.3758  -15.0790 C   0  0  0  0  0  0  0  0  0  0  0  0
   25.7962  -22.5047  -15.2801 O   0  0  0  0  0  0  0  0  0  0  0  0
   26.0604  -22.1623  -10.5717 N   0  0  0  0  0  0  0  0  0  0  0  0
   26.0282  -20.8004  -11.0876 C   0  0  0  0  0  0  0  0  0  0  0  0
   26.9974  -20.1166  -10.7711 O   0  0  0  0  0  0  0  0  0  0  0  0
   24.9048  -20.3885  -11.8942 C   0  0  0  0  0  0  0  0  0  0  0  0
   24.6783  -21.1318  -13.1713 C   0  0  2  0  0  0  0  0  0  0  0  0
   25.7579  -20.5839  -14.0652 N   0  0  0  0  0  0  0  0  0  0  0  0
   23.4353  -20.7966  -13.8608 C   0  0  0  0  0  0  0  0  0  0  0  0
   23.3004  -19.6092  -14.3348 O   0  0  0  0  0  0  0  0  0  0  0  0
   22.1154  -22.1754  -16.8310 C   0  0  0  0  0  0  0  0  0  0  0  0
   20.8839  -22.0413  -15.9776 C   0  0  2  0  0  0  0  0  0  0  0  0
   19.6531  -21.6823  -16.7411 C   0  0  0  0  0  0  0  0  0  0  0  0
   21.1269  -21.1229  -14.7843 C   0  0  2  0  0  0  0  0  0  0  0  0
   22.3135  -21.6171  -14.1011 N   0  0  0  0  0  0  0  0  0  0  0  0
   19.9640  -21.0169  -13.9184 C   0  0  0  0  0  0  0  0  0  0  0  0
   19.0738  -19.9751  -14.0648 O   0  0  0  0  0  0  0  0  0  0  0  0
   19.7320  -21.8548  -13.0222 O   0  0  0  0  0  0  0  0  0  0  0  0
  2  1  1  1
  3  2  1  0
  4  2  1  0
  4  6  1  0
  4  5  1  6
  6  7  2  0
  8  9  1  0
  9 11  1  0
 10  9  2  0
 12 11  1  1
 12 14  1  0
 13 12  1  0
 13  6  1  0
 14 20  1  0
 14 15  2  0
 17 16  1  6
 17 19  1  0
 18 17  1  0
 19 21  1  0
 19 20  1  1
 21 23  2  0
 21 22  1  0
M  END
$$$$
