TNV.pdb
     RDKit          3D

 23 22  0  0  1  0  0  0  0  0999 V2000
   28.6290  -20.8799  -14.6291 C   0  0  0  0  0  0  0  0  0  0  0  0
   28.3602  -20.1630  -15.9334 C   0  0  1  0  0  0  0  0  0  0  0  0
   29.2105  -20.6071  -16.9353 O   0  0  0  0  0  0  0  0  0  0  0  0
   26.9002  -20.2729  -16.3287 C   0  0  2  0  0  0  0  0  0  0  0  0
   26.6573  -19.5311  -17.5495 N   0  0  0  0  0  0  0  0  0  0  0  0
   25.9781  -19.7767  -15.2855 C   0  0  0  0  0  0  0  0  0  0  0  0
   25.2800  -18.7405  -15.4904 O   0  0  0  0  0  0  0  0  0  0  0  0
   21.3836  -21.2834  -12.8803 N   0  0  0  0  0  0  0  0  0  0  0  0
   22.2585  -20.1309  -13.0488 C   0  0  0  0  0  0  0  0  0  0  0  0
   21.8416  -19.0993  -12.5303 O   0  0  0  0  0  0  0  0  0  0  0  0
   23.4909  -20.2945  -13.7814 C   0  0  0  0  0  0  0  0  0  0  0  0
   24.7558  -19.9394  -13.0682 C   0  0  2  0  0  0  0  0  0  0  0  0
   25.8159  -20.3998  -14.0322 N   0  0  0  0  0  0  0  0  0  0  0  0
   25.0111  -20.7128  -11.8559 C   0  0  0  0  0  0  0  0  0  0  0  0
   25.1246  -21.9893  -11.9580 O   0  0  0  0  0  0  0  0  0  0  0  0
   25.9718  -19.3227   -7.8438 C   0  0  0  0  0  0  0  0  0  0  0  0
   26.3956  -20.6047   -8.5069 C   0  0  2  0  0  0  0  0  0  0  0  0
   27.7171  -20.5233   -9.1953 C   0  0  0  0  0  0  0  0  0  0  0  0
   25.2957  -21.1609   -9.4052 C   0  0  2  0  0  0  0  0  0  0  0  0
   25.1650  -20.2495  -10.5327 N   0  0  0  0  0  0  0  0  0  0  0  0
   24.0490  -21.3763   -8.6892 C   0  0  0  0  0  0  0  0  0  0  0  0
   23.9314  -22.4056   -7.7804 O   0  0  0  0  0  0  0  0  0  0  0  0
   23.0520  -20.6463   -8.8689 O   0  0  0  0  0  0  0  0  0  0  0  0
  2  1  1  1
  3  2  1  0
  4  2  1  0
  4  6  1  0
  4  5  1  6
  6  7  2  0
  8  9  1  0
  9 11  1  0
 10  9  2  0
 12 11  1  6
 12 14  1  0
 13 12  1  0
 13  6  1  0
 14 20  1  0
 14 15  2  0
 17 16  1  6
 17 19  1  0
 18 17  1  0
 19 21  1  0
 19 20  1  6
 21 23  2  0
 21 22  1  0
M  END
$$$$
