TNV.pdb
     RDKit          3D

 23 22  0  0  1  0  0  0  0  0999 V2000
   23.0905  -15.5965  -15.4945 C   0  0  0  0  0  0  0  0  0  0  0  0
   23.2506  -16.2839  -16.8321 C   0  0  1  0  0  0  0  0  0  0  0  0
   23.5027  -17.6387  -16.6740 O   0  0  0  0  0  0  0  0  0  0  0  0
   22.0558  -16.0230  -17.7291 C   0  0  2  0  0  0  0  0  0  0  0  0
   22.2192  -16.7164  -18.9909 N   0  0  0  0  0  0  0  0  0  0  0  0
   21.8412  -14.5870  -18.0059 C   0  0  0  0  0  0  0  0  0  0  0  0
   22.5200  -14.0002  -18.8991 O   0  0  0  0  0  0  0  0  0  0  0  0
   19.7404   -9.7222  -18.0060 N   0  0  0  0  0  0  0  0  0  0  0  0
   18.8013  -10.8344  -18.0609 C   0  0  0  0  0  0  0  0  0  0  0  0
   17.6458  -10.5086  -18.3172 O   0  0  0  0  0  0  0  0  0  0  0  0
   19.2904  -12.1703  -17.8190 C   0  0  0  0  0  0  0  0  0  0  0  0
   20.7622  -12.3256  -17.6080 C   0  0  2  0  0  0  0  0  0  0  0  0
   20.8985  -13.7963  -17.3193 N   0  0  0  0  0  0  0  0  0  0  0  0
   21.2791  -11.6736  -16.4078 C   0  0  0  0  0  0  0  0  0  0  0  0
   21.0589  -12.2273  -15.2686 O   0  0  0  0  0  0  0  0  0  0  0  0
   24.5714  -10.2675  -13.5768 C   0  0  0  0  0  0  0  0  0  0  0  0
   23.9989  -10.4817  -14.9513 C   0  0  2  0  0  0  0  0  0  0  0  0
   24.8496   -9.9440  -16.0531 C   0  0  0  0  0  0  0  0  0  0  0  0
   22.5526  -10.0048  -15.0361 C   0  0  2  0  0  0  0  0  0  0  0  0
   22.0216  -10.4787  -16.3059 N   0  0  0  0  0  0  0  0  0  0  0  0
   22.4299   -8.5671  -14.8593 C   0  0  0  0  0  0  0  0  0  0  0  0
   22.3787   -8.0181  -13.5963 O   0  0  0  0  0  0  0  0  0  0  0  0
   22.3673   -7.7872  -15.8323 O   0  0  0  0  0  0  0  0  0  0  0  0
  2  1  1  1
  3  2  1  0
  4  2  1  0
  4  6  1  0
  4  5  1  6
  6  7  2  0
  8  9  1  0
  9 11  1  0
 10  9  2  0
 12 11  1  1
 12 14  1  0
 13 12  1  0
 13  6  1  0
 14 20  1  0
 14 15  2  0
 17 16  1  1
 17 19  1  0
 18 17  1  0
 19 21  1  0
 19 20  1  6
 21 23  2  0
 21 22  1  0
M  END
$$$$
