TNV.pdb
     RDKit          3D

 23 22  0  0  1  0  0  0  0  0999 V2000
   15.9455   -7.5715  -15.5338 C   0  0  0  0  0  0  0  0  0  0  0  0
   15.5207   -9.0122  -15.3568 C   0  0  1  0  0  0  0  0  0  0  0  0
   14.1541   -9.1597  -15.5425 O   0  0  0  0  0  0  0  0  0  0  0  0
   16.3249   -9.9349  -16.2523 C   0  0  2  0  0  0  0  0  0  0  0  0
   15.8968  -11.3068  -16.0671 N   0  0  0  0  0  0  0  0  0  0  0  0
   17.7803   -9.8590  -16.0056 C   0  0  0  0  0  0  0  0  0  0  0  0
   18.3206  -10.6049  -15.1370 O   0  0  0  0  0  0  0  0  0  0  0  0
   22.8342   -8.2803  -18.7131 N   0  0  0  0  0  0  0  0  0  0  0  0
   22.2321   -8.9804  -17.5864 C   0  0  0  0  0  0  0  0  0  0  0  0
   23.0337   -9.3476  -16.7322 O   0  0  0  0  0  0  0  0  0  0  0  0
   20.8022   -9.1745  -17.5718 C   0  0  0  0  0  0  0  0  0  0  0  0
   20.0861   -8.8432  -16.3021 C   0  0  2  0  0  0  0  0  0  0  0  0
   18.6401   -8.9817  -16.6958 N   0  0  0  0  0  0  0  0  0  0  0  0
   20.2114   -7.4521  -15.8754 C   0  0  0  0  0  0  0  0  0  0  0  0
   19.5369   -6.5567  -16.5047 O   0  0  0  0  0  0  0  0  0  0  0  0
   22.0127   -5.9262  -12.2747 C   0  0  0  0  0  0  0  0  0  0  0  0
   20.8475   -5.3438  -13.0270 C   0  0  2  0  0  0  0  0  0  0  0  0
   19.5171   -5.8223  -12.5496 C   0  0  0  0  0  0  0  0  0  0  0  0
   21.0225   -5.4944  -14.5346 C   0  0  2  0  0  0  0  0  0  0  0  0
   20.9904   -6.9201  -14.8268 N   0  0  0  0  0  0  0  0  0  0  0  0
   22.2199   -4.8314  -15.0244 C   0  0  0  0  0  0  0  0  0  0  0  0
   22.2685   -3.4579  -15.1266 O   0  0  0  0  0  0  0  0  0  0  0  0
   23.2350   -5.4734  -15.3658 O   0  0  0  0  0  0  0  0  0  0  0  0
  2  1  1  6
  3  2  1  0
  4  2  1  0
  4  6  1  0
  4  5  1  1
  6  7  2  0
  8  9  1  0
  9 11  1  0
 10  9  2  0
 12 11  1  6
 12 14  1  0
 13 12  1  0
 13  6  1  0
 14 20  1  0
 14 15  2  0
 17 16  1  1
 17 19  1  0
 18 17  1  0
 19 21  1  0
 19 20  1  1
 21 23  2  0
 21 22  1  0
M  END
$$$$
