TNV.pdb
     RDKit          3D

 23 22  0  0  1  0  0  0  0  0999 V2000
   15.8384   -9.8405  -18.1881 C   0  0  0  0  0  0  0  0  0  0  0  0
   16.3962  -11.1374  -17.6454 C   0  0  1  0  0  0  0  0  0  0  0  0
   16.0235  -12.2145  -18.4359 O   0  0  0  0  0  0  0  0  0  0  0  0
   17.8992  -11.0532  -17.4611 C   0  0  2  0  0  0  0  0  0  0  0  0
   18.4249  -12.3421  -17.0585 N   0  0  0  0  0  0  0  0  0  0  0  0
   18.3049  -10.0457  -16.4584 C   0  0  0  0  0  0  0  0  0  0  0  0
   17.9177  -10.1481  -15.2574 O   0  0  0  0  0  0  0  0  0  0  0  0
   20.5752   -9.4636  -13.6585 N   0  0  0  0  0  0  0  0  0  0  0  0
   21.4816   -8.7642  -14.5592 C   0  0  0  0  0  0  0  0  0  0  0  0
   22.6719   -8.9331  -14.3105 O   0  0  0  0  0  0  0  0  0  0  0  0
   20.9249   -7.9649  -15.6239 C   0  0  0  0  0  0  0  0  0  0  0  0
   19.4342   -7.8994  -15.7140 C   0  0  2  0  0  0  0  0  0  0  0  0
   19.1230   -8.9383  -16.7574 N   0  0  0  0  0  0  0  0  0  0  0  0
   18.9104   -6.6570  -16.2753 C   0  0  0  0  0  0  0  0  0  0  0  0
   19.2696   -6.3242  -17.4641 O   0  0  0  0  0  0  0  0  0  0  0  0
   15.5056   -3.5674  -17.4258 C   0  0  0  0  0  0  0  0  0  0  0  0
   16.0710   -4.7084  -16.6250 C   0  0  2  0  0  0  0  0  0  0  0  0
   15.3209   -4.9973  -15.3678 C   0  0  0  0  0  0  0  0  0  0  0  0
   17.5692   -4.5414  -16.3931 C   0  0  2  0  0  0  0  0  0  0  0  0
   18.0259   -5.7294  -15.6865 N   0  0  0  0  0  0  0  0  0  0  0  0
   17.8907   -3.3015  -15.7057 C   0  0  0  0  0  0  0  0  0  0  0  0
   18.1121   -2.1425  -16.4177 O   0  0  0  0  0  0  0  0  0  0  0  0
   17.9768   -3.2417  -14.4615 O   0  0  0  0  0  0  0  0  0  0  0  0
  2  1  1  6
  3  2  1  0
  4  2  1  0
  4  6  1  0
  4  5  1  1
  6  7  2  0
  8  9  1  0
  9 11  1  0
 10  9  2  0
 12 11  1  6
 12 14  1  0
 13 12  1  0
 13  6  1  0
 14 20  1  0
 14 15  2  0
 17 16  1  1
 17 19  1  0
 18 17  1  0
 19 21  1  0
 19 20  1  1
 21 23  2  0
 21 22  1  0
M  END
$$$$
