TNV.pdb
     RDKit          3D

 23 22  0  0  1  0  0  0  0  0999 V2000
   11.9056   -9.4543  -14.6381 C   0  0  0  0  0  0  0  0  0  0  0  0
   11.9319  -10.6786  -13.7505 C   0  0  1  0  0  0  0  0  0  0  0  0
   10.7551  -11.4045  -13.8605 O   0  0  0  0  0  0  0  0  0  0  0  0
   13.1582  -11.5280  -14.0241 C   0  0  2  0  0  0  0  0  0  0  0  0
   13.1502  -12.7027  -13.1758 N   0  0  0  0  0  0  0  0  0  0  0  0
   14.4270  -10.8009  -13.8087 C   0  0  0  0  0  0  0  0  0  0  0  0
   14.8939  -10.6635  -12.6399 O   0  0  0  0  0  0  0  0  0  0  0  0
   19.4999   -9.5424  -14.1107 N   0  0  0  0  0  0  0  0  0  0  0  0
   18.8522  -10.1244  -15.2786 C   0  0  0  0  0  0  0  0  0  0  0  0
   19.5697  -10.1953  -16.2721 O   0  0  0  0  0  0  0  0  0  0  0  0
   17.4776  -10.5505  -15.1715 C   0  0  0  0  0  0  0  0  0  0  0  0
   16.5096   -9.5758  -14.5820 C   0  0  2  0  0  0  0  0  0  0  0  0
   15.1811  -10.2290  -14.8525 N   0  0  0  0  0  0  0  0  0  0  0  0
   16.4303   -8.2956  -15.2804 C   0  0  0  0  0  0  0  0  0  0  0  0
   15.9963   -8.2855  -16.4906 O   0  0  0  0  0  0  0  0  0  0  0  0
   16.2573   -4.4390  -13.5889 C   0  0  0  0  0  0  0  0  0  0  0  0
   15.7063   -4.8651  -14.9221 C   0  0  2  0  0  0  0  0  0  0  0  0
   14.3042   -5.3728  -14.8647 C   0  0  0  0  0  0  0  0  0  0  0  0
   16.6520   -5.8236  -15.6385 C   0  0  2  0  0  0  0  0  0  0  0  0
   16.7670   -7.0112  -14.8046 N   0  0  0  0  0  0  0  0  0  0  0  0
   17.9329   -5.2111  -15.9509 C   0  0  0  0  0  0  0  0  0  0  0  0
   18.0559   -4.3500  -17.0198 O   0  0  0  0  0  0  0  0  0  0  0  0
   18.9551   -5.4397  -15.2712 O   0  0  0  0  0  0  0  0  0  0  0  0
  2  1  1  6
  3  2  1  0
  4  2  1  0
  4  6  1  0
  4  5  1  1
  6  7  2  0
  8  9  1  0
  9 11  1  0
 10  9  2  0
 12 11  1  6
 12 14  1  0
 13 12  1  0
 13  6  1  0
 14 20  1  0
 14 15  2  0
 17 16  1  1
 17 19  1  0
 18 17  1  0
 19 21  1  0
 19 20  1  1
 21 23  2  0
 21 22  1  0
M  END
$$$$
