TNV.pdb
     RDKit          3D

 23 22  0  0  1  0  0  0  0  0999 V2000
   28.7402  -23.0212  -16.8119 C   0  0  0  0  0  0  0  0  0  0  0  0
   28.2249  -21.9319  -15.8980 C   0  0  1  0  0  0  0  0  0  0  0  0
   28.9883  -20.7792  -16.0097 O   0  0  0  0  0  0  0  0  0  0  0  0
   26.7501  -21.6692  -16.1352 C   0  0  2  0  0  0  0  0  0  0  0  0
   26.5642  -20.9694  -17.3902 N   0  0  0  0  0  0  0  0  0  0  0  0
   26.1216  -20.8769  -15.0572 C   0  0  0  0  0  0  0  0  0  0  0  0
   26.2724  -19.6205  -15.0169 O   0  0  0  0  0  0  0  0  0  0  0  0
   22.3438  -20.7078  -15.6567 N   0  0  0  0  0  0  0  0  0  0  0  0
   22.6652  -20.0172  -14.4150 C   0  0  0  0  0  0  0  0  0  0  0  0
   22.4303  -18.8123  -14.4310 O   0  0  0  0  0  0  0  0  0  0  0  0
   23.2102  -20.7782  -13.3168 C   0  0  0  0  0  0  0  0  0  0  0  0
   24.6587  -20.5779  -13.0061 C   0  0  2  0  0  0  0  0  0  0  0  0
   25.3369  -21.4437  -14.0333 N   0  0  0  0  0  0  0  0  0  0  0  0
   25.0909  -21.1322  -11.7259 C   0  0  0  0  0  0  0  0  0  0  0  0
   25.0003  -22.4022  -11.5480 O   0  0  0  0  0  0  0  0  0  0  0  0
   26.3414  -18.9428   -8.1628 C   0  0  0  0  0  0  0  0  0  0  0  0
   26.8040  -20.3270   -8.5272 C   0  0  2  0  0  0  0  0  0  0  0  0
   28.1380  -20.3645   -9.1950 C   0  0  0  0  0  0  0  0  0  0  0  0
   25.7343  -21.0890   -9.3026 C   0  0  2  0  0  0  0  0  0  0  0  0
   25.6221  -20.4552  -10.6083 N   0  0  0  0  0  0  0  0  0  0  0  0
   24.4721  -21.1605   -8.5850 C   0  0  0  0  0  0  0  0  0  0  0  0
   24.3155  -22.0299   -7.5273 O   0  0  0  0  0  0  0  0  0  0  0  0
   23.4965  -20.4462   -8.8964 O   0  0  0  0  0  0  0  0  0  0  0  0
  2  1  1  6
  3  2  1  0
  4  2  1  0
  4  6  1  0
  4  5  1  6
  6  7  2  0
  8  9  1  0
  9 11  1  0
 10  9  2  0
 12 11  1  6
 12 14  1  0
 13 12  1  0
 13  6  1  0
 14 20  1  0
 14 15  2  0
 17 16  1  6
 17 19  1  0
 18 17  1  0
 19 21  1  0
 19 20  1  6
 21 23  2  0
 21 22  1  0
M  END
$$$$
