TNV.pdb
     RDKit          3D

 23 22  0  0  1  0  0  0  0  0999 V2000
   28.8973  -21.4003  -13.2921 C   0  0  0  0  0  0  0  0  0  0  0  0
   28.8707  -20.3515  -14.3815 C   0  0  1  0  0  0  0  0  0  0  0  0
   29.6483  -20.7326  -15.4651 O   0  0  0  0  0  0  0  0  0  0  0  0
   27.4478  -20.0164  -14.7853 C   0  0  2  0  0  0  0  0  0  0  0  0
   27.4462  -18.9496  -15.7659 N   0  0  0  0  0  0  0  0  0  0  0  0
   26.6022  -19.6075  -13.6440 C   0  0  0  0  0  0  0  0  0  0  0  0
   26.5375  -18.3905  -13.3008 O   0  0  0  0  0  0  0  0  0  0  0  0
   22.2959  -19.2490  -10.4862 N   0  0  0  0  0  0  0  0  0  0  0  0
   22.6421  -20.5606  -11.0174 C   0  0  0  0  0  0  0  0  0  0  0  0
   22.0126  -21.4899  -10.5202 O   0  0  0  0  0  0  0  0  0  0  0  0
   23.6549  -20.6511  -12.0414 C   0  0  0  0  0  0  0  0  0  0  0  0
   24.9821  -20.0335  -11.7387 C   0  0  2  0  0  0  0  0  0  0  0  0
   25.8346  -20.5114  -12.8832 N   0  0  0  0  0  0  0  0  0  0  0  0
   25.6453  -20.5632  -10.5501 C   0  0  0  0  0  0  0  0  0  0  0  0
   26.1001  -21.7650  -10.5885 O   0  0  0  0  0  0  0  0  0  0  0  0
   28.2880  -20.3739   -6.4893 C   0  0  0  0  0  0  0  0  0  0  0  0
   27.4424  -19.6715   -7.5161 C   0  0  2  0  0  0  0  0  0  0  0  0
   26.7916  -18.4252   -7.0162 C   0  0  0  0  0  0  0  0  0  0  0  0
   26.4555  -20.6278   -8.1779 C   0  0  2  0  0  0  0  0  0  0  0  0
   25.8778  -19.9247   -9.3141 N   0  0  0  0  0  0  0  0  0  0  0  0
   25.4614  -21.1339   -7.2457 C   0  0  0  0  0  0  0  0  0  0  0  0
   25.8041  -22.0729   -6.2971 O   0  0  0  0  0  0  0  0  0  0  0  0
   24.2763  -20.7414   -7.2699 O   0  0  0  0  0  0  0  0  0  0  0  0
  2  1  1  1
  3  2  1  0
  4  2  1  0
  4  6  1  0
  4  5  1  6
  6  7  2  0
  8  9  1  0
  9 11  1  0
 10  9  2  0
 12 11  1  6
 12 14  1  0
 13 12  1  0
 13  6  1  0
 14 20  1  0
 14 15  2  0
 17 16  1  1
 17 19  1  0
 18 17  1  0
 19 21  1  0
 19 20  1  6
 21 23  2  0
 21 22  1  0
M  END
$$$$
