TNV.pdb
     RDKit          3D

 23 22  0  0  1  0  0  0  0  0999 V2000
   34.8465  -37.0553   -4.1042 C   0  0  0  0  0  0  0  0  0  0  0  0
   34.9393  -36.5572   -5.5292 C   0  0  1  0  0  0  0  0  0  0  0  0
   35.7169  -37.4020   -6.3073 O   0  0  0  0  0  0  0  0  0  0  0  0
   33.5616  -36.3353   -6.1233 C   0  0  2  0  0  0  0  0  0  0  0  0
   33.6778  -35.8405   -7.4802 N   0  0  0  0  0  0  0  0  0  0  0  0
   32.7406  -35.3843   -5.3446 C   0  0  0  0  0  0  0  0  0  0  0  0
   32.5939  -34.1917   -5.7433 O   0  0  0  0  0  0  0  0  0  0  0  0
   29.1100  -33.1440   -2.4382 N   0  0  0  0  0  0  0  0  0  0  0  0
   28.8026  -34.1639   -3.4319 C   0  0  0  0  0  0  0  0  0  0  0  0
   27.6203  -34.2108   -3.7594 O   0  0  0  0  0  0  0  0  0  0  0  0
   29.8713  -34.9980   -3.9261 C   0  0  0  0  0  0  0  0  0  0  0  0
   31.2449  -34.7189   -3.4064 C   0  0  2  0  0  0  0  0  0  0  0  0
   32.0854  -35.7255   -4.1447 N   0  0  0  0  0  0  0  0  0  0  0  0
   31.4433  -35.0482   -1.9975 C   0  0  0  0  0  0  0  0  0  0  0  0
   31.2200  -36.2550   -1.6146 O   0  0  0  0  0  0  0  0  0  0  0  0
   33.0334  -32.5066    1.1125 C   0  0  0  0  0  0  0  0  0  0  0  0
   33.2468  -33.9913    1.0002 C   0  0  2  0  0  0  0  0  0  0  0  0
   34.5138  -34.3714    0.3095 C   0  0  0  0  0  0  0  0  0  0  0  0
   32.0236  -34.6903    0.4157 C   0  0  2  0  0  0  0  0  0  0  0  0
   31.8677  -34.2064   -0.9484 N   0  0  0  0  0  0  0  0  0  0  0  0
   30.8352  -34.5072    1.2327 C   0  0  0  0  0  0  0  0  0  0  0  0
   30.6474  -35.2558    2.3744 O   0  0  0  0  0  0  0  0  0  0  0  0
   29.9528  -33.6758    0.9341 O   0  0  0  0  0  0  0  0  0  0  0  0
  2  1  1  1
  3  2  1  0
  4  2  1  0
  4  6  1  0
  4  5  1  6
  6  7  2  0
  8  9  1  0
  9 11  1  0
 10  9  2  0
 12 11  1  6
 12 14  1  0
 13 12  1  0
 13  6  1  0
 14 20  1  0
 14 15  2  0
 17 16  1  6
 17 19  1  0
 18 17  1  0
 19 21  1  0
 19 20  1  6
 21 23  2  0
 21 22  1  0
M  END
$$$$
