YCL.pdb
     RDKit          3D

 27 27  0  0  1  0  0  0  0  0999 V2000
    9.3503  -13.1989   15.7819 O   0  0  0  0  0  0  0  0  0  0  0  0
    8.7270  -13.6299   16.9396 C   0  0  0  0  0  0  0  0  0  0  0  0
    9.3997  -13.7013   18.1327 C   0  0  0  0  0  0  0  0  0  0  0  0
    8.7461  -14.1340   19.2589 C   0  0  0  0  0  0  0  0  0  0  0  0
    7.4142  -14.5060   19.2335 C   0  0  0  0  0  0  0  0  0  0  0  0
    6.6916  -14.9786   20.4514 C   0  0  0  0  0  0  0  0  0  0  0  0
    7.1172  -16.4062   20.7117 C   0  0  2  0  0  0  0  0  0  0  0  0
    6.2505  -17.2491   19.8743 N   0  0  0  0  0  0  0  0  0  0  0  0
    6.8443  -16.7699   22.1122 C   0  0  0  0  0  0  0  0  0  0  0  0
    5.8261  -17.4567   22.4634 O   0  0  0  0  0  0  0  0  0  0  0  0
    6.7279  -14.4399   18.0466 C   0  0  0  0  0  0  0  0  0  0  0  0
    7.4008  -14.0018   16.9209 C   0  0  0  0  0  0  0  0  0  0  0  0
    7.7094  -16.3723   23.1675 N   0  0  0  0  0  0  0  0  0  0  0  0
    7.5006  -16.7601   24.5390 C   0  0  1  0  0  0  0  0  0  0  0  0
    7.6037  -18.2550   24.7327 C   0  0  0  0  0  0  0  0  0  0  0  0
    7.4982  -18.6552   26.4938 S   0  0  0  0  0  0  0  0  0  0  0  0
    8.4060  -16.0190   25.4465 C   0  0  0  0  0  0  0  0  0  0  0  0
    9.6426  -16.1388   25.2576 O   0  0  0  0  0  0  0  0  0  0  0  0
    6.1155  -11.8146   27.9502 C   0  0  0  0  0  0  0  0  0  0  0  0
    7.0131  -12.7668   27.1655 C   0  0  1  0  0  0  0  0  0  0  0  0
    7.5443  -11.9148   26.0023 C   0  0  0  0  0  0  0  0  0  0  0  0
    8.1350  -13.2834   28.0026 C   0  0  0  0  0  0  0  0  0  0  0  0
    8.8881  -14.3563   27.3066 C   0  0  2  0  0  0  0  0  0  0  0  0
    7.9721  -15.1950   26.4991 N   0  0  0  0  0  0  0  0  0  0  0  0
    9.6321  -15.1864   28.2522 C   0  0  0  0  0  0  0  0  0  0  0  0
   10.6655  -14.5739   28.9998 O   0  0  0  0  0  0  0  0  0  0  0  0
    9.4547  -16.3967   28.4781 O   0  0  0  0  0  0  0  0  0  0  0  0
  2  3  2  0
  2  1  1  0
  4  3  1  0
  5 11  1  0
  5  4  2  0
  6  5  1  0
  7  9  1  0
  7  6  1  0
  7  8  1  6
  9 10  2  0
 11 12  2  0
 12  2  1  0
 13 14  1  0
 13  9  1  0
 14 15  1  6
 15 16  1  0
 17 24  1  0
 17 14  1  0
 18 17  2  0
 20 19  1  1
 21 20  1  0
 23 22  1  1
 22 20  1  0
 23 24  1  0
 25 23  1  0
 25 26  1  0
 27 25  2  0
M  END
$$$$
