YCL.pdb
     RDKit          3D

 27 27  0  0  1  0  0  0  0  0999 V2000
   16.7273  -18.3691   17.7637 O   0  0  0  0  0  0  0  0  0  0  0  0
   15.8236  -18.4729   18.8064 C   0  0  0  0  0  0  0  0  0  0  0  0
   16.1495  -18.0821   20.0800 C   0  0  0  0  0  0  0  0  0  0  0  0
   15.2251  -18.2010   21.0870 C   0  0  0  0  0  0  0  0  0  0  0  0
   13.9585  -18.7081   20.8604 C   0  0  0  0  0  0  0  0  0  0  0  0
   12.9437  -18.8428   21.9472 C   0  0  0  0  0  0  0  0  0  0  0  0
   11.6024  -18.4442   21.3736 C   0  0  2  0  0  0  0  0  0  0  0  0
   11.8855  -17.4495   20.3280 N   0  0  0  0  0  0  0  0  0  0  0  0
   10.7923  -17.7675   22.4002 C   0  0  0  0  0  0  0  0  0  0  0  0
   10.7915  -16.4998   22.5570 O   0  0  0  0  0  0  0  0  0  0  0  0
   13.6179  -19.1034   19.5909 C   0  0  0  0  0  0  0  0  0  0  0  0
   14.5605  -18.9771   18.5872 C   0  0  0  0  0  0  0  0  0  0  0  0
    9.9538  -18.4956   23.2873 N   0  0  0  0  0  0  0  0  0  0  0  0
    9.1864  -17.8672   24.3319 C   0  0  1  0  0  0  0  0  0  0  0  0
    7.8875  -18.5904   24.6013 C   0  0  0  0  0  0  0  0  0  0  0  0
    6.9780  -17.7495   25.9199 S   0  0  0  0  0  0  0  0  0  0  0  0
    9.9948  -17.7012   25.5613 C   0  0  0  0  0  0  0  0  0  0  0  0
   10.8426  -18.5910   25.8230 O   0  0  0  0  0  0  0  0  0  0  0  0
    9.7459  -12.8448   28.0697 C   0  0  0  0  0  0  0  0  0  0  0  0
   10.3601  -14.1058   27.4691 C   0  0  1  0  0  0  0  0  0  0  0  0
   11.8142  -13.7120   27.1663 C   0  0  0  0  0  0  0  0  0  0  0  0
   10.3066  -15.2533   28.4214 C   0  0  0  0  0  0  0  0  0  0  0  0
   10.5916  -16.5417   27.7422 C   0  0  2  0  0  0  0  0  0  0  0  0
    9.8743  -16.6177   26.4483 N   0  0  0  0  0  0  0  0  0  0  0  0
   10.2344  -17.6807   28.5860 C   0  0  0  0  0  0  0  0  0  0  0  0
    9.0675  -18.4092   28.2552 O   0  0  0  0  0  0  0  0  0  0  0  0
   10.8546  -18.0898   29.5836 O   0  0  0  0  0  0  0  0  0  0  0  0
  2  3  2  0
  2  1  1  0
  4  3  1  0
  5 11  1  0
  5  4  2  0
  6  5  1  0
  7  9  1  0
  7  6  1  0
  7  8  1  6
  9 10  2  0
 11 12  2  0
 12  2  1  0
 13 14  1  0
 13  9  1  0
 14 15  1  1
 15 16  1  0
 17 24  1  0
 17 14  1  0
 18 17  2  0
 20 19  1  1
 21 20  1  0
 23 22  1  1
 22 20  1  0
 23 24  1  0
 25 23  1  0
 25 26  1  0
 27 25  2  0
M  END
$$$$
