YCL.pdb
     RDKit          3D

 27 27  0  0  1  0  0  0  0  0999 V2000
    7.4338  -22.3453   30.0813 O   0  0  0  0  0  0  0  0  0  0  0  0
    7.4824  -21.4267   29.0477 C   0  0  0  0  0  0  0  0  0  0  0  0
    6.3822  -21.1583   28.2739 C   0  0  0  0  0  0  0  0  0  0  0  0
    6.4709  -20.2404   27.2579 C   0  0  0  0  0  0  0  0  0  0  0  0
    7.6468  -19.5663   26.9824 C   0  0  0  0  0  0  0  0  0  0  0  0
    7.7565  -18.5655   25.8801 C   0  0  0  0  0  0  0  0  0  0  0  0
    7.3684  -19.2575   24.5927 C   0  0  2  0  0  0  0  0  0  0  0  0
    8.1926  -20.4732   24.5188 N   0  0  0  0  0  0  0  0  0  0  0  0
    7.7339  -18.4215   23.4370 C   0  0  0  0  0  0  0  0  0  0  0  0
    8.8785  -18.4822   22.8729 O   0  0  0  0  0  0  0  0  0  0  0  0
    8.7561  -19.8244   27.7484 C   0  0  0  0  0  0  0  0  0  0  0  0
    8.6504  -20.7520   28.7682 C   0  0  0  0  0  0  0  0  0  0  0  0
    6.8224  -17.4867   22.8754 N   0  0  0  0  0  0  0  0  0  0  0  0
    7.2472  -16.3351   22.1215 C   0  0  1  0  0  0  0  0  0  0  0  0
    6.0915  -15.6381   21.4423 C   0  0  0  0  0  0  0  0  0  0  0  0
    6.7041  -14.2483   20.4593 S   0  0  0  0  0  0  0  0  0  0  0  0
    8.0370  -15.4081   22.9639 C   0  0  0  0  0  0  0  0  0  0  0  0
    8.9126  -14.7095   22.3943 O   0  0  0  0  0  0  0  0  0  0  0  0
    5.8742  -11.9895   26.2253 C   0  0  0  0  0  0  0  0  0  0  0  0
    6.8573  -12.7075   25.3054 C   0  0  1  0  0  0  0  0  0  0  0  0
    7.5779  -11.5725   24.5611 C   0  0  0  0  0  0  0  0  0  0  0  0
    7.8275  -13.5390   26.0758 C   0  0  0  0  0  0  0  0  0  0  0  0
    8.6907  -14.3458   25.1776 C   0  0  2  0  0  0  0  0  0  0  0  0
    7.8699  -15.2615   24.3516 N   0  0  0  0  0  0  0  0  0  0  0  0
    9.6874  -15.1027   25.9330 C   0  0  0  0  0  0  0  0  0  0  0  0
    9.6231  -16.5152   25.8833 O   0  0  0  0  0  0  0  0  0  0  0  0
   10.6053  -14.6339   26.6295 O   0  0  0  0  0  0  0  0  0  0  0  0
  2  3  2  0
  2  1  1  0
  4  3  1  0
  5 11  1  0
  5  4  2  0
  6  5  1  0
  7  9  1  0
  7  6  1  0
  7  8  1  6
  9 10  2  0
 11 12  2  0
 12  2  1  0
 13 14  1  0
 13  9  1  0
 14 15  1  1
 15 16  1  0
 17 24  1  0
 17 14  1  0
 18 17  2  0
 20 19  1  1
 21 20  1  0
 23 22  1  1
 22 20  1  0
 23 24  1  0
 25 23  1  0
 25 26  1  0
 27 25  2  0
M  END
$$$$
