YCL.pdb
     RDKit          3D

 27 27  0  0  1  0  0  0  0  0999 V2000
   14.9109  -20.1901   17.7126 O   0  0  0  0  0  0  0  0  0  0  0  0
   14.0128  -19.3596   18.3593 C   0  0  0  0  0  0  0  0  0  0  0  0
   13.6040  -18.1740   17.8041 C   0  0  0  0  0  0  0  0  0  0  0  0
   12.7117  -17.3779   18.4771 C   0  0  0  0  0  0  0  0  0  0  0  0
   12.2026  -17.7336   19.7129 C   0  0  0  0  0  0  0  0  0  0  0  0
   11.2315  -16.8765   20.4555 C   0  0  0  0  0  0  0  0  0  0  0  0
    9.8869  -17.5674   20.4157 C   0  0  2  0  0  0  0  0  0  0  0  0
    9.3570  -17.3503   19.0611 N   0  0  0  0  0  0  0  0  0  0  0  0
    8.9537  -16.9160   21.3500 C   0  0  0  0  0  0  0  0  0  0  0  0
    8.3102  -15.8522   21.0567 O   0  0  0  0  0  0  0  0  0  0  0  0
   12.6024  -18.9173   20.2811 C   0  0  0  0  0  0  0  0  0  0  0  0
   13.5020  -19.7081   19.5903 C   0  0  0  0  0  0  0  0  0  0  0  0
    8.7123  -17.4402   22.6489 N   0  0  0  0  0  0  0  0  0  0  0  0
    7.7618  -16.8603   23.5628 C   0  0  1  0  0  0  0  0  0  0  0  0
    6.7857  -17.8822   24.0974 C   0  0  0  0  0  0  0  0  0  0  0  0
    7.1581  -18.2392   25.8314 S   0  0  0  0  0  0  0  0  0  0  0  0
    8.4476  -16.1256   24.6503 C   0  0  0  0  0  0  0  0  0  0  0  0
    9.6195  -16.4759   24.9383 O   0  0  0  0  0  0  0  0  0  0  0  0
    6.0837  -11.4774   26.4217 C   0  0  0  0  0  0  0  0  0  0  0  0
    7.0757  -12.5102   25.8950 C   0  0  1  0  0  0  0  0  0  0  0  0
    8.1035  -11.6818   25.1085 C   0  0  0  0  0  0  0  0  0  0  0  0
    7.7334  -13.2598   27.0050 C   0  0  0  0  0  0  0  0  0  0  0  0
    8.5617  -14.3799   26.4932 C   0  0  2  0  0  0  0  0  0  0  0  0
    7.8737  -15.0676   25.3760 N   0  0  0  0  0  0  0  0  0  0  0  0
    8.8830  -15.3341   27.5530 C   0  0  0  0  0  0  0  0  0  0  0  0
    9.6935  -14.8868   28.6230 O   0  0  0  0  0  0  0  0  0  0  0  0
    8.5157  -16.5207   27.6210 O   0  0  0  0  0  0  0  0  0  0  0  0
  2  3  2  0
  2  1  1  0
  4  3  1  0
  5 11  1  0
  5  4  2  0
  6  5  1  0
  7  9  1  0
  7  6  1  0
  7  8  1  6
  9 10  2  0
 11 12  2  0
 12  2  1  0
 13 14  1  0
 13  9  1  0
 14 15  1  1
 15 16  1  0
 17 24  1  0
 17 14  1  0
 18 17  2  0
 20 19  1  1
 21 20  1  0
 23 22  1  1
 22 20  1  0
 23 24  1  0
 25 23  1  0
 25 26  1  0
 27 25  2  0
M  END
$$$$
