YCL.pdb
     RDKit          3D

 27 27  0  0  1  0  0  0  0  0999 V2000
    2.5165  -21.4582   14.3045 O   0  0  0  0  0  0  0  0  0  0  0  0
    3.5493  -20.9487   15.0716 C   0  0  0  0  0  0  0  0  0  0  0  0
    3.3118  -20.0961   16.1193 C   0  0  0  0  0  0  0  0  0  0  0  0
    4.3633  -19.6123   16.8562 C   0  0  0  0  0  0  0  0  0  0  0  0
    5.6727  -19.9587   16.5762 C   0  0  0  0  0  0  0  0  0  0  0  0
    6.8255  -19.4392   17.3700 C   0  0  0  0  0  0  0  0  0  0  0  0
    7.1736  -18.0701   16.8303 C   0  0  2  0  0  0  0  0  0  0  0  0
    8.0984  -18.2968   15.7095 N   0  0  0  0  0  0  0  0  0  0  0  0
    7.9107  -17.2973   17.8440 C   0  0  0  0  0  0  0  0  0  0  0  0
    9.1858  -17.2967   17.9221 O   0  0  0  0  0  0  0  0  0  0  0  0
    5.9259  -20.8110   15.5306 C   0  0  0  0  0  0  0  0  0  0  0  0
    4.8556  -21.2898   14.7978 C   0  0  0  0  0  0  0  0  0  0  0  0
    7.2371  -16.4973   18.8065 N   0  0  0  0  0  0  0  0  0  0  0  0
    7.9294  -15.7384   19.8163 C   0  0  1  0  0  0  0  0  0  0  0  0
    7.1225  -14.5543   20.2954 C   0  0  0  0  0  0  0  0  0  0  0  0
    8.0436  -13.6576   21.5684 S   0  0  0  0  0  0  0  0  0  0  0  0
    8.3586  -16.6073   20.9357 C   0  0  0  0  0  0  0  0  0  0  0  0
    7.4754  -17.2915   21.5110 O   0  0  0  0  0  0  0  0  0  0  0  0
   13.1837  -19.0703   21.0043 C   0  0  0  0  0  0  0  0  0  0  0  0
   11.7081  -18.7373   21.2039 C   0  0  1  0  0  0  0  0  0  0  0  0
   11.0157  -20.1075   21.2692 C   0  0  0  0  0  0  0  0  0  0  0  0
   11.4816  -17.9660   22.4610 C   0  0  0  0  0  0  0  0  0  0  0  0
   10.0734  -17.5121   22.5782 C   0  0  2  0  0  0  0  0  0  0  0  0
    9.6835  -16.7144   21.3925 N   0  0  0  0  0  0  0  0  0  0  0  0
    9.8617  -16.7382   23.8002 C   0  0  0  0  0  0  0  0  0  0  0  0
    9.5967  -15.3545   23.6696 O   0  0  0  0  0  0  0  0  0  0  0  0
    9.8892  -17.1691   24.9667 O   0  0  0  0  0  0  0  0  0  0  0  0
  2  3  2  0
  2  1  1  0
  4  3  1  0
  5 11  1  0
  5  4  2  0
  6  5  1  0
  7  9  1  0
  7  6  1  0
  7  8  1  6
  9 10  2  0
 11 12  2  0
 12  2  1  0
 13 14  1  0
 13  9  1  0
 14 15  1  1
 15 16  1  0
 17 24  1  0
 17 14  1  0
 18 17  2  0
 20 19  1  1
 21 20  1  0
 23 22  1  6
 22 20  1  0
 23 24  1  0
 25 23  1  0
 25 26  1  0
 27 25  2  0
M  END
$$$$
