YCL.pdb
     RDKit          3D

 27 27  0  0  1  0  0  0  0  0999 V2000
    6.7689  -23.3824   29.0090 O   0  0  0  0  0  0  0  0  0  0  0  0
    6.9910  -22.3730   28.0891 C   0  0  0  0  0  0  0  0  0  0  0  0
    5.9729  -21.8608   27.3259 C   0  0  0  0  0  0  0  0  0  0  0  0
    6.2339  -20.8599   26.4244 C   0  0  0  0  0  0  0  0  0  0  0  0
    7.5051  -20.3416   26.2554 C   0  0  0  0  0  0  0  0  0  0  0  0
    7.8023  -19.2528   25.2781 C   0  0  0  0  0  0  0  0  0  0  0  0
    7.1460  -19.6224   23.9668 C   0  0  2  0  0  0  0  0  0  0  0  0
    7.7162  -20.9209   23.5773 N   0  0  0  0  0  0  0  0  0  0  0  0
    7.5238  -18.6577   22.9205 C   0  0  0  0  0  0  0  0  0  0  0  0
    8.4232  -18.9009   22.0466 O   0  0  0  0  0  0  0  0  0  0  0  0
    8.5340  -20.8442   27.0121 C   0  0  0  0  0  0  0  0  0  0  0  0
    8.2546  -21.8525   27.9160 C   0  0  0  0  0  0  0  0  0  0  0  0
    6.9012  -17.3838   22.8216 N   0  0  0  0  0  0  0  0  0  0  0  0
    7.5097  -16.2654   22.1479 C   0  0  1  0  0  0  0  0  0  0  0  0
    6.6292  -15.7089   21.0535 C   0  0  0  0  0  0  0  0  0  0  0  0
    4.8910  -15.8368   21.5388 S   0  0  0  0  0  0  0  0  0  0  0  0
    7.9220  -15.2213   23.1136 C   0  0  0  0  0  0  0  0  0  0  0  0
    8.3175  -14.1233   22.6476 O   0  0  0  0  0  0  0  0  0  0  0  0
    5.7579  -12.8253   26.9570 C   0  0  0  0  0  0  0  0  0  0  0  0
    6.7388  -13.2772   25.8792 C   0  0  1  0  0  0  0  0  0  0  0  0
    7.1202  -11.9814   25.1466 C   0  0  0  0  0  0  0  0  0  0  0  0
    7.9441  -13.9301   26.4685 C   0  0  0  0  0  0  0  0  0  0  0  0
    8.7626  -14.6059   25.4312 C   0  0  2  0  0  0  0  0  0  0  0  0
    7.8989  -15.3802   24.5099 N   0  0  0  0  0  0  0  0  0  0  0  0
    9.7713  -15.4775   26.0310 C   0  0  0  0  0  0  0  0  0  0  0  0
   10.7863  -14.8756   26.8116 O   0  0  0  0  0  0  0  0  0  0  0  0
    9.8388  -16.7154   25.9296 O   0  0  0  0  0  0  0  0  0  0  0  0
  2  3  2  0
  2  1  1  0
  4  3  1  0
  5 11  1  0
  5  4  2  0
  6  5  1  0
  7  9  1  0
  7  6  1  0
  7  8  1  6
  9 10  2  0
 11 12  2  0
 12  2  1  0
 13 14  1  0
 13  9  1  0
 14 15  1  6
 15 16  1  0
 17 24  1  0
 17 14  1  0
 18 17  2  0
 20 19  1  1
 21 20  1  0
 23 22  1  1
 22 20  1  0
 23 24  1  0
 25 23  1  0
 25 26  1  0
 27 25  2  0
M  END
$$$$
