YCL.pdb
     RDKit          3D

 27 27  0  0  1  0  0  0  0  0999 V2000
   13.0998  -21.5104   16.1318 O   0  0  0  0  0  0  0  0  0  0  0  0
   12.9568  -20.7295   17.2651 C   0  0  0  0  0  0  0  0  0  0  0  0
   13.7753  -19.6552   17.5042 C   0  0  0  0  0  0  0  0  0  0  0  0
   13.6014  -18.9053   18.6401 C   0  0  0  0  0  0  0  0  0  0  0  0
   12.6163  -19.1983   19.5657 C   0  0  0  0  0  0  0  0  0  0  0  0
   12.4169  -18.3906   20.8054 C   0  0  0  0  0  0  0  0  0  0  0  0
   11.3727  -17.3391   20.5041 C   0  0  2  0  0  0  0  0  0  0  0  0
   12.0337  -16.3414   19.6493 N   0  0  0  0  0  0  0  0  0  0  0  0
   10.9770  -16.6473   21.7422 C   0  0  0  0  0  0  0  0  0  0  0  0
   11.6563  -15.6913   22.2485 O   0  0  0  0  0  0  0  0  0  0  0  0
   11.7896  -20.2704   19.3400 C   0  0  0  0  0  0  0  0  0  0  0  0
   11.9777  -21.0160   18.1908 C   0  0  0  0  0  0  0  0  0  0  0  0
    9.8012  -17.0083   22.4544 N   0  0  0  0  0  0  0  0  0  0  0  0
    9.3428  -16.2972   23.6202 C   0  0  1  0  0  0  0  0  0  0  0  0
    7.8379  -16.3247   23.7518 C   0  0  0  0  0  0  0  0  0  0  0  0
    7.3370  -15.4586   25.2591 S   0  0  0  0  0  0  0  0  0  0  0  0
   10.0162  -16.7889   24.8438 C   0  0  0  0  0  0  0  0  0  0  0  0
   10.2670  -18.0183   24.9142 O   0  0  0  0  0  0  0  0  0  0  0  0
   10.1136  -13.9267   29.6876 C   0  0  0  0  0  0  0  0  0  0  0  0
   10.0254  -14.8112   28.4474 C   0  0  1  0  0  0  0  0  0  0  0  0
    9.5223  -13.8676   27.3440 C   0  0  0  0  0  0  0  0  0  0  0  0
   11.3523  -15.3912   28.0877 C   0  0  0  0  0  0  0  0  0  0  0  0
   11.2254  -16.4470   27.0524 C   0  0  2  0  0  0  0  0  0  0  0  0
   10.3903  -15.9722   25.9248 N   0  0  0  0  0  0  0  0  0  0  0  0
   10.6687  -17.6781   27.6105 C   0  0  0  0  0  0  0  0  0  0  0  0
    9.4397  -18.1452   27.0877 O   0  0  0  0  0  0  0  0  0  0  0  0
   11.1650  -18.3758   28.5129 O   0  0  0  0  0  0  0  0  0  0  0  0
  2  3  2  0
  2  1  1  0
  4  3  1  0
  5 11  1  0
  5  4  2  0
  6  5  1  0
  7  9  1  0
  7  6  1  0
  7  8  1  6
  9 10  2  0
 11 12  2  0
 12  2  1  0
 13 14  1  0
 13  9  1  0
 14 15  1  1
 15 16  1  0
 17 24  1  0
 17 14  1  0
 18 17  2  0
 20 19  1  1
 21 20  1  0
 23 22  1  1
 22 20  1  0
 23 24  1  0
 25 23  1  0
 25 26  1  0
 27 25  2  0
M  END
$$$$
