YCL.pdb
     RDKit          3D

 27 27  0  0  1  0  0  0  0  0999 V2000
    8.5201  -12.4740   16.0864 O   0  0  0  0  0  0  0  0  0  0  0  0
    8.1390  -13.0610   17.2801 C   0  0  0  0  0  0  0  0  0  0  0  0
    7.0880  -13.9398   17.3442 C   0  0  0  0  0  0  0  0  0  0  0  0
    6.7410  -14.5010   18.5473 C   0  0  0  0  0  0  0  0  0  0  0  0
    7.4231  -14.2079   19.7143 C   0  0  0  0  0  0  0  0  0  0  0  0
    7.0557  -14.8114   21.0295 C   0  0  0  0  0  0  0  0  0  0  0  0
    7.7445  -16.1543   21.1258 C   0  0  2  0  0  0  0  0  0  0  0  0
    6.8224  -17.1294   20.5243 N   0  0  0  0  0  0  0  0  0  0  0  0
    7.9127  -16.5383   22.5373 C   0  0  0  0  0  0  0  0  0  0  0  0
    6.9446  -16.9467   23.2639 O   0  0  0  0  0  0  0  0  0  0  0  0
    8.4773  -13.3302   19.6657 C   0  0  0  0  0  0  0  0  0  0  0  0
    8.8143  -12.7733   18.4458 C   0  0  0  0  0  0  0  0  0  0  0  0
    9.1784  -16.4757   23.1809 N   0  0  0  0  0  0  0  0  0  0  0  0
    9.3820  -16.8795   24.5486 C   0  0  1  0  0  0  0  0  0  0  0  0
   10.4487  -17.9416   24.6786 C   0  0  0  0  0  0  0  0  0  0  0  0
   10.7291  -18.3203   26.4252 S   0  0  0  0  0  0  0  0  0  0  0  0
    9.6545  -15.7100   25.4149 C   0  0  0  0  0  0  0  0  0  0  0  0
   10.5679  -14.9240   25.0586 O   0  0  0  0  0  0  0  0  0  0  0  0
    5.8103  -12.8932   27.6232 C   0  0  0  0  0  0  0  0  0  0  0  0
    7.1165  -13.4125   27.0295 C   0  0  1  0  0  0  0  0  0  0  0  0
    7.5779  -12.2891   26.0880 C   0  0  0  0  0  0  0  0  0  0  0  0
    8.1372  -13.6745   28.0859 C   0  0  0  0  0  0  0  0  0  0  0  0
    9.3442  -14.3346   27.5288 C   0  0  2  0  0  0  0  0  0  0  0  0
    8.9600  -15.4256   26.6033 N   0  0  0  0  0  0  0  0  0  0  0  0
   10.2075  -14.8516   28.5891 C   0  0  0  0  0  0  0  0  0  0  0  0
   10.8408  -13.9167   29.4416 O   0  0  0  0  0  0  0  0  0  0  0  0
   10.4529  -16.0468   28.8310 O   0  0  0  0  0  0  0  0  0  0  0  0
  2  3  2  0
  2  1  1  0
  4  3  1  0
  5 11  1  0
  5  4  2  0
  6  5  1  0
  7  9  1  0
  7  6  1  0
  7  8  1  6
  9 10  2  0
 11 12  2  0
 12  2  1  0
 13 14  1  0
 13  9  1  0
 14 15  1  6
 15 16  1  0
 17 24  1  0
 17 14  1  0
 18 17  2  0
 20 19  1  1
 21 20  1  0
 23 22  1  1
 22 20  1  0
 23 24  1  0
 25 23  1  0
 25 26  1  0
 27 25  2  0
M  END
$$$$
