YCL.pdb
     RDKit          3D

 27 27  0  0  1  0  0  0  0  0999 V2000
   11.4952  -12.8214   19.4799 O   0  0  0  0  0  0  0  0  0  0  0  0
   10.3132  -13.5381   19.4182 C   0  0  0  0  0  0  0  0  0  0  0  0
   10.2745  -14.8171   18.9244 C   0  0  0  0  0  0  0  0  0  0  0  0
    9.0822  -15.4948   18.8799 C   0  0  0  0  0  0  0  0  0  0  0  0
    7.9013  -14.9261   19.3214 C   0  0  0  0  0  0  0  0  0  0  0  0
    6.5977  -15.6525   19.2783 C   0  0  0  0  0  0  0  0  0  0  0  0
    6.8470  -17.0693   19.7446 C   0  0  2  0  0  0  0  0  0  0  0  0
    5.8872  -17.9129   19.0166 N   0  0  0  0  0  0  0  0  0  0  0  0
    6.5281  -17.1958   21.1765 C   0  0  0  0  0  0  0  0  0  0  0  0
    5.3398  -17.0893   21.6333 O   0  0  0  0  0  0  0  0  0  0  0  0
    7.9245  -13.6468   19.8182 C   0  0  0  0  0  0  0  0  0  0  0  0
    9.1337  -12.9774   19.8563 C   0  0  0  0  0  0  0  0  0  0  0  0
    7.5372  -17.4469   22.1454 N   0  0  0  0  0  0  0  0  0  0  0  0
    7.2828  -17.4298   23.5632 C   0  0  1  0  0  0  0  0  0  0  0  0
    7.6992  -18.7177   24.2345 C   0  0  0  0  0  0  0  0  0  0  0  0
    7.5372  -18.5554   26.0291 S   0  0  0  0  0  0  0  0  0  0  0  0
    7.9013  -16.2456   24.2017 C   0  0  0  0  0  0  0  0  0  0  0  0
    9.1351  -16.0746   24.0353 O   0  0  0  0  0  0  0  0  0  0  0  0
    8.2126  -11.0882   25.6433 C   0  0  0  0  0  0  0  0  0  0  0  0
    7.4545  -11.9402   26.6570 C   0  0  1  0  0  0  0  0  0  0  0  0
    6.3825  -10.9945   27.2207 C   0  0  0  0  0  0  0  0  0  0  0  0
    6.8281  -13.1334   26.0164 C   0  0  0  0  0  0  0  0  0  0  0  0
    7.8450  -14.1407   25.6239 C   0  0  2  0  0  0  0  0  0  0  0  0
    7.1996  -15.3066   24.9771 N   0  0  0  0  0  0  0  0  0  0  0  0
    8.6381  -14.5745   26.7726 C   0  0  0  0  0  0  0  0  0  0  0  0
    8.1597  -15.6683   27.5320 O   0  0  0  0  0  0  0  0  0  0  0  0
    9.7093  -14.0791   27.1657 O   0  0  0  0  0  0  0  0  0  0  0  0
  2  3  2  0
  2  1  1  0
  4  3  1  0
  5 11  1  0
  5  4  2  0
  6  5  1  0
  7  9  1  0
  7  6  1  0
  7  8  1  6
  9 10  2  0
 11 12  2  0
 12  2  1  0
 13 14  1  0
 13  9  1  0
 14 15  1  1
 15 16  1  0
 17 24  1  0
 17 14  1  0
 18 17  2  0
 20 19  1  6
 21 20  1  0
 23 22  1  1
 22 20  1  0
 23 24  1  0
 25 23  1  0
 25 26  1  0
 27 25  2  0
M  END
$$$$
