YCL.pdb
     RDKit          3D

 27 27  0  0  1  0  0  0  0  0999 V2000
   11.2448  -20.8963   28.6299 O   0  0  0  0  0  0  0  0  0  0  0  0
   10.0812  -20.3224   28.1489 C   0  0  0  0  0  0  0  0  0  0  0  0
    9.6393  -19.1065   28.6044 C   0  0  0  0  0  0  0  0  0  0  0  0
    8.4802  -18.5707   28.1023 C   0  0  0  0  0  0  0  0  0  0  0  0
    7.7309  -19.2222   27.1396 C   0  0  0  0  0  0  0  0  0  0  0  0
    6.4681  -18.6503   26.5852 C   0  0  0  0  0  0  0  0  0  0  0  0
    6.5447  -18.7460   25.0779 C   0  0  2  0  0  0  0  0  0  0  0  0
    7.4081  -19.9003   24.7862 N   0  0  0  0  0  0  0  0  0  0  0  0
    7.2180  -17.5578   24.5275 C   0  0  0  0  0  0  0  0  0  0  0  0
    8.3098  -17.6241   23.8678 O   0  0  0  0  0  0  0  0  0  0  0  0
    8.1606  -20.4398   26.6741 C   0  0  0  0  0  0  0  0  0  0  0  0
    9.3304  -20.9662   27.1901 C   0  0  0  0  0  0  0  0  0  0  0  0
    6.6846  -16.2518   24.7010 N   0  0  0  0  0  0  0  0  0  0  0  0
    7.2636  -15.0824   24.0908 C   0  0  1  0  0  0  0  0  0  0  0  0
    6.4193  -13.8480   24.3055 C   0  0  0  0  0  0  0  0  0  0  0  0
    6.1953  -13.5572   26.0770 S   0  0  0  0  0  0  0  0  0  0  0  0
    8.6611  -14.8840   24.5382 C   0  0  0  0  0  0  0  0  0  0  0  0
    9.3466  -14.0208   23.9349 O   0  0  0  0  0  0  0  0  0  0  0  0
    9.7732  -13.9863   29.5022 C   0  0  0  0  0  0  0  0  0  0  0  0
    9.7153  -14.1699   27.9885 C   0  0  1  0  0  0  0  0  0  0  0  0
   10.0540  -12.7810   27.4251 C   0  0  0  0  0  0  0  0  0  0  0  0
   10.6980  -15.1893   27.5182 C   0  0  0  0  0  0  0  0  0  0  0  0
   10.6537  -15.3525   26.0437 C   0  0  2  0  0  0  0  0  0  0  0  0
    9.2651  -15.5960   25.5887 N   0  0  0  0  0  0  0  0  0  0  0  0
   11.5285  -16.4363   25.5998 C   0  0  0  0  0  0  0  0  0  0  0  0
   10.9380  -17.5264   24.9180 O   0  0  0  0  0  0  0  0  0  0  0  0
   12.7602  -16.5091   25.7579 O   0  0  0  0  0  0  0  0  0  0  0  0
  2  3  2  0
  2  1  1  0
  4  3  1  0
  5 11  1  0
  5  4  2  0
  6  5  1  0
  7  9  1  0
  7  6  1  0
  7  8  1  1
  9 10  2  0
 11 12  2  0
 12  2  1  0
 13 14  1  0
 13  9  1  0
 14 15  1  1
 15 16  1  0
 17 24  1  0
 17 14  1  0
 18 17  2  0
 20 19  1  1
 21 20  1  0
 23 22  1  1
 22 20  1  0
 23 24  1  0
 25 23  1  0
 25 26  1  0
 27 25  2  0
M  END
$$$$
