YCL.pdb
     RDKit          3D

 27 27  0  0  1  0  0  0  0  0999 V2000
    7.9934  -12.5572   15.7084 O   0  0  0  0  0  0  0  0  0  0  0  0
    7.7989  -13.1541   16.9415 C   0  0  0  0  0  0  0  0  0  0  0  0
    8.4599  -12.7188   18.0617 C   0  0  0  0  0  0  0  0  0  0  0  0
    8.2396  -13.3372   19.2666 C   0  0  0  0  0  0  0  0  0  0  0  0
    7.3624  -14.3990   19.3936 C   0  0  0  0  0  0  0  0  0  0  0  0
    7.1140  -15.0805   20.6985 C   0  0  0  0  0  0  0  0  0  0  0  0
    8.0979  -16.2231   20.8133 C   0  0  2  0  0  0  0  0  0  0  0  0
    7.5638  -17.3067   19.9744 N   0  0  0  0  0  0  0  0  0  0  0  0
    8.1300  -16.7282   22.1960 C   0  0  0  0  0  0  0  0  0  0  0  0
    7.1796  -17.4133   22.7051 O   0  0  0  0  0  0  0  0  0  0  0  0
    6.6937  -14.8456   18.2813 C   0  0  0  0  0  0  0  0  0  0  0  0
    6.9266  -14.2119   17.0747 C   0  0  0  0  0  0  0  0  0  0  0  0
    9.2348  -16.4793   23.0548 N   0  0  0  0  0  0  0  0  0  0  0  0
    9.2484  -16.8615   24.4436 C   0  0  1  0  0  0  0  0  0  0  0  0
   10.0912  -18.0910   24.6901 C   0  0  0  0  0  0  0  0  0  0  0  0
   10.2069  -18.4105   26.4671 S   0  0  0  0  0  0  0  0  0  0  0  0
    9.6552  -15.7278   25.3048 C   0  0  0  0  0  0  0  0  0  0  0  0
   10.7551  -15.1741   25.0542 O   0  0  0  0  0  0  0  0  0  0  0  0
    5.9807  -12.4256   27.3454 C   0  0  0  0  0  0  0  0  0  0  0  0
    7.2146  -13.1180   26.7741 C   0  0  1  0  0  0  0  0  0  0  0  0
    7.7580  -12.1262   25.7337 C   0  0  0  0  0  0  0  0  0  0  0  0
    8.2322  -13.3923   27.8303 C   0  0  0  0  0  0  0  0  0  0  0  0
    9.3732  -14.1791   27.2995 C   0  0  2  0  0  0  0  0  0  0  0  0
    8.8932  -15.2350   26.3780 N   0  0  0  0  0  0  0  0  0  0  0  0
   10.1622  -14.7704   28.3788 C   0  0  0  0  0  0  0  0  0  0  0  0
   10.9134  -13.8997   29.2031 O   0  0  0  0  0  0  0  0  0  0  0  0
   10.2489  -15.9791   28.6596 O   0  0  0  0  0  0  0  0  0  0  0  0
  2  3  2  0
  2  1  1  0
  4  3  1  0
  5 11  1  0
  5  4  2  0
  6  5  1  0
  7  9  1  0
  7  6  1  0
  7  8  1  6
  9 10  2  0
 11 12  2  0
 12  2  1  0
 13 14  1  0
 13  9  1  0
 14 15  1  6
 15 16  1  0
 17 24  1  0
 17 14  1  0
 18 17  2  0
 20 19  1  1
 21 20  1  0
 23 22  1  1
 22 20  1  0
 23 24  1  0
 25 23  1  0
 25 26  1  0
 27 25  2  0
M  END
$$$$
