YCL.pdb
     RDKit          3D

 27 27  0  0  1  0  0  0  0  0999 V2000
    8.9195  -12.2159   17.2347 O   0  0  0  0  0  0  0  0  0  0  0  0
    8.2543  -13.0454   18.1201 C   0  0  0  0  0  0  0  0  0  0  0  0
    7.5982  -14.1717   17.6933 C   0  0  0  0  0  0  0  0  0  0  0  0
    6.9500  -14.9688   18.6028 C   0  0  0  0  0  0  0  0  0  0  0  0
    6.9345  -14.6730   19.9538 C   0  0  0  0  0  0  0  0  0  0  0  0
    6.2331  -15.5318   20.9534 C   0  0  0  0  0  0  0  0  0  0  0  0
    7.0542  -16.7888   21.1341 C   0  0  2  0  0  0  0  0  0  0  0  0
    6.2860  -17.8719   20.5019 N   0  0  0  0  0  0  0  0  0  0  0  0
    7.1656  -17.1210   22.5642 C   0  0  0  0  0  0  0  0  0  0  0  0
    6.3138  -17.8526   23.1734 O   0  0  0  0  0  0  0  0  0  0  0  0
    7.5868  -13.5491   20.3958 C   0  0  0  0  0  0  0  0  0  0  0  0
    8.2351  -12.7563   19.4668 C   0  0  0  0  0  0  0  0  0  0  0  0
    8.2412  -16.6406   23.3593 N   0  0  0  0  0  0  0  0  0  0  0  0
    8.4181  -17.0075   24.7410 C   0  0  1  0  0  0  0  0  0  0  0  0
    9.0978  -18.3482   24.8942 C   0  0  0  0  0  0  0  0  0  0  0  0
   10.7786  -18.2643   24.2300 S   0  0  0  0  0  0  0  0  0  0  0  0
    9.1197  -15.9405   25.4905 C   0  0  0  0  0  0  0  0  0  0  0  0
   10.1009  -15.3882   24.9325 O   0  0  0  0  0  0  0  0  0  0  0  0
    6.2689  -12.3595   27.7431 C   0  0  0  0  0  0  0  0  0  0  0  0
    7.4022  -13.1443   27.0888 C   0  0  1  0  0  0  0  0  0  0  0  0
    7.9088  -12.2184   25.9720 C   0  0  0  0  0  0  0  0  0  0  0  0
    8.4922  -13.4528   28.0599 C   0  0  0  0  0  0  0  0  0  0  0  0
    9.4645  -14.4246   27.5005 C   0  0  2  0  0  0  0  0  0  0  0  0
    8.7593  -15.5092   26.7787 N   0  0  0  0  0  0  0  0  0  0  0  0
   10.3201  -14.9853   28.5447 C   0  0  0  0  0  0  0  0  0  0  0  0
   10.3088  -16.3883   28.7272 O   0  0  0  0  0  0  0  0  0  0  0  0
   11.0731  -14.3535   29.3071 O   0  0  0  0  0  0  0  0  0  0  0  0
  2  3  2  0
  2  1  1  0
  4  3  1  0
  5 11  1  0
  5  4  2  0
  6  5  1  0
  7  9  1  0
  7  6  1  0
  7  8  1  6
  9 10  2  0
 11 12  2  0
 12  2  1  0
 13 14  1  0
 13  9  1  0
 14 15  1  6
 15 16  1  0
 17 24  1  0
 17 14  1  0
 18 17  2  0
 20 19  1  1
 21 20  1  0
 23 22  1  1
 22 20  1  0
 23 24  1  0
 25 23  1  0
 25 26  1  0
 27 25  2  0
M  END
$$$$
