TNN.pdb
     RDKit          3D

 24 23  0  0  1  0  0  0  0  0999 V2000
    9.2380  -12.8430   19.5297 C   0  0  0  0  0  0  0  0  0  0  0  0
    7.8205  -13.1843   20.0044 C   0  0  1  0  0  0  0  0  0  0  0  0
    6.9430  -12.2608   19.4173 O   0  0  0  0  0  0  0  0  0  0  0  0
    7.5173  -14.5559   19.4391 C   0  0  2  0  0  0  0  0  0  0  0  0
    6.1220  -14.8338   19.7140 N   0  0  0  0  0  0  0  0  0  0  0  0
    8.4085  -15.6074   19.9820 C   0  0  0  0  0  0  0  0  0  0  0  0
    7.9606  -16.5148   20.7216 O   0  0  0  0  0  0  0  0  0  0  0  0
   11.8531  -19.5067   19.6453 N   0  0  0  0  0  0  0  0  0  0  0  0
   12.2635  -18.2673   19.0670 C   0  0  0  0  0  0  0  0  0  0  0  0
   13.4774  -18.0686   18.8629 O   0  0  0  0  0  0  0  0  0  0  0  0
   11.2357  -17.2553   18.7267 C   0  0  0  0  0  0  0  0  0  0  0  0
   10.7080  -16.6509   20.0087 C   0  0  2  0  0  0  0  0  0  0  0  0
    9.7926  -15.5890   19.6608 N   0  0  0  0  0  0  0  0  0  0  0  0
   11.8060  -16.0700   20.8290 C   0  0  0  0  0  0  0  0  0  0  0  0
   12.9827  -16.1742   20.4076 O   0  0  0  0  0  0  0  0  0  0  0  0
    9.6845  -15.2433   24.9202 N   0  0  0  0  0  0  0  0  0  0  0  0
    9.6629  -16.5891   24.4676 C   0  0  0  0  0  0  0  0  0  0  0  0
    8.7095  -17.3231   24.7766 O   0  0  0  0  0  0  0  0  0  0  0  0
   10.7675  -17.1077   23.6366 C   0  0  0  0  0  0  0  0  0  0  0  0
   11.7894  -16.0497   23.3450 C   0  0  2  0  0  0  0  0  0  0  0  0
   11.5365  -15.4162   22.0533 N   0  0  0  0  0  0  0  0  0  0  0  0
   13.1471  -16.6190   23.3111 C   0  0  0  0  0  0  0  0  0  0  0  0
   14.1311  -16.1154   23.9415 O   0  0  0  0  0  0  0  0  0  0  0  0
   13.3926  -17.7715   22.5546 O   0  0  0  0  0  0  0  0  0  0  0  0
  2  1  1  6
  3  2  1  0
  4  2  1  0
  4  5  1  1
  6  4  1  0
  6  7  2  0
  9 11  1  0
  9  8  1  0
 10  9  2  0
 12 11  1  6
 12 13  1  0
 13  6  1  0
 14 12  1  0
 15 14  2  0
 16 17  1  0
 17 18  2  0
 17 19  1  0
 20 19  1  6
 20 22  1  0
 20 21  1  0
 21 14  1  0
 22 24  1  0
 23 22  2  0
M  END
$$$$
