TNN.pdb
     RDKit          3D

 24 23  0  0  1  0  0  0  0  0999 V2000
    7.6024  -16.4166   19.9444 C   0  0  0  0  0  0  0  0  0  0  0  0
    8.1038  -15.1169   19.3036 C   0  0  1  0  0  0  0  0  0  0  0  0
    7.5088  -15.0114   18.0378 O   0  0  0  0  0  0  0  0  0  0  0  0
    7.5728  -13.9981   20.1748 C   0  0  2  0  0  0  0  0  0  0  0  0
    7.5837  -12.7900   19.3746 N   0  0  0  0  0  0  0  0  0  0  0  0
    8.3423  -13.8373   21.4304 C   0  0  0  0  0  0  0  0  0  0  0  0
    9.3761  -13.1295   21.4680 O   0  0  0  0  0  0  0  0  0  0  0  0
    7.1778  -12.2645   25.0690 N   0  0  0  0  0  0  0  0  0  0  0  0
    6.6926  -13.6063   25.0140 C   0  0  0  0  0  0  0  0  0  0  0  0
    5.4615  -13.8031   24.9938 O   0  0  0  0  0  0  0  0  0  0  0  0
    7.6655  -14.7238   24.9826 C   0  0  0  0  0  0  0  0  0  0  0  0
    8.6421  -14.4841   23.8530 C   0  0  2  0  0  0  0  0  0  0  0  0
    7.9039  -14.4947   22.6115 N   0  0  0  0  0  0  0  0  0  0  0  0
    9.6752  -15.5540   23.7903 C   0  0  0  0  0  0  0  0  0  0  0  0
    9.5244  -16.4788   22.9565 O   0  0  0  0  0  0  0  0  0  0  0  0
   10.4040  -20.1356   25.8100 N   0  0  0  0  0  0  0  0  0  0  0  0
   10.8738  -18.8954   26.3176 C   0  0  0  0  0  0  0  0  0  0  0  0
   11.7549  -18.8873   27.1934 O   0  0  0  0  0  0  0  0  0  0  0  0
   10.3164  -17.6278   25.8057 C   0  0  0  0  0  0  0  0  0  0  0  0
   11.3767  -16.7574   25.2002 C   0  0  2  0  0  0  0  0  0  0  0  0
   10.8005  -15.5348   24.6462 N   0  0  0  0  0  0  0  0  0  0  0  0
   12.0809  -17.4580   24.1130 C   0  0  0  0  0  0  0  0  0  0  0  0
   13.2953  -17.2313   23.8079 O   0  0  0  0  0  0  0  0  0  0  0  0
   11.4016  -18.4262   23.3634 O   0  0  0  0  0  0  0  0  0  0  0  0
  2  1  1  1
  3  2  1  0
  4  2  1  0
  4  5  1  6
  6  4  1  0
  6  7  2  0
  9 11  1  0
  9  8  1  0
 10  9  2  0
 12 11  1  1
 12 13  1  0
 13  6  1  0
 14 12  1  0
 15 14  2  0
 16 17  1  0
 17 18  2  0
 17 19  1  0
 20 19  1  6
 20 22  1  0
 20 21  1  0
 21 14  1  0
 22 24  1  0
 23 22  2  0
M  END
$$$$
