TNN.pdb
     RDKit          3D

 24 23  0  0  1  0  0  0  0  0999 V2000
    9.4630  -13.0338   20.5703 C   0  0  0  0  0  0  0  0  0  0  0  0
    8.3826  -12.8437   19.4988 C   0  0  1  0  0  0  0  0  0  0  0  0
    8.6500  -11.6364   18.8368 O   0  0  0  0  0  0  0  0  0  0  0  0
    8.5750  -13.9792   18.5158 C   0  0  2  0  0  0  0  0  0  0  0  0
    7.6673  -13.7473   17.4103 N   0  0  0  0  0  0  0  0  0  0  0  0
    8.3675  -15.3101   19.1325 C   0  0  0  0  0  0  0  0  0  0  0  0
    7.4267  -16.0523   18.7652 O   0  0  0  0  0  0  0  0  0  0  0  0
   11.0471  -18.8840   21.4598 N   0  0  0  0  0  0  0  0  0  0  0  0
   10.5932  -18.8140   20.1078 C   0  0  0  0  0  0  0  0  0  0  0  0
   11.2835  -19.3375   19.2110 O   0  0  0  0  0  0  0  0  0  0  0  0
    9.3167  -18.1221   19.8109 C   0  0  0  0  0  0  0  0  0  0  0  0
    9.1122  -17.0243   20.8308 C   0  0  2  0  0  0  0  0  0  0  0  0
    9.2472  -15.7541   20.1563 N   0  0  0  0  0  0  0  0  0  0  0  0
   10.1330  -17.0889   21.9123 C   0  0  0  0  0  0  0  0  0  0  0  0
   11.1673  -16.3889   21.7969 O   0  0  0  0  0  0  0  0  0  0  0  0
    6.6478  -16.2913   24.8623 N   0  0  0  0  0  0  0  0  0  0  0  0
    8.0248  -16.3015   25.2091 C   0  0  0  0  0  0  0  0  0  0  0  0
    8.5776  -15.2424   25.5498 O   0  0  0  0  0  0  0  0  0  0  0  0
    8.7897  -17.5634   25.1635 C   0  0  0  0  0  0  0  0  0  0  0  0
   10.0754  -17.4084   24.4074 C   0  0  2  0  0  0  0  0  0  0  0  0
    9.9480  -17.9163   23.0438 N   0  0  0  0  0  0  0  0  0  0  0  0
   11.1686  -18.1451   25.0637 C   0  0  0  0  0  0  0  0  0  0  0  0
   11.4242  -19.3695   24.8299 O   0  0  0  0  0  0  0  0  0  0  0  0
   11.9812  -17.4871   25.9952 O   0  0  0  0  0  0  0  0  0  0  0  0
  2  1  1  1
  3  2  1  0
  4  2  1  0
  4  5  1  6
  6  4  1  0
  6  7  2  0
  9 11  1  0
  9  8  1  0
 10  9  2  0
 12 11  1  6
 12 13  1  0
 13  6  1  0
 14 12  1  0
 15 14  2  0
 16 17  1  0
 17 18  2  0
 17 19  1  0
 20 19  1  1
 20 22  1  0
 20 21  1  0
 21 14  1  0
 22 24  1  0
 23 22  2  0
M  END
$$$$
