TNN.pdb
     RDKit          3D

 24 23  0  0  1  0  0  0  0  0999 V2000
    9.0629  -16.8564   19.4767 C   0  0  0  0  0  0  0  0  0  0  0  0
    8.0067  -17.8786   19.0399 C   0  0  1  0  0  0  0  0  0  0  0  0
    8.5217  -18.5753   17.9369 O   0  0  0  0  0  0  0  0  0  0  0  0
    7.8711  -18.8480   20.1951 C   0  0  2  0  0  0  0  0  0  0  0  0
    7.2572  -20.0527   19.6738 N   0  0  0  0  0  0  0  0  0  0  0  0
    7.1040  -18.2820   21.3290 C   0  0  0  0  0  0  0  0  0  0  0  0
    6.5312  -17.1715   21.2307 O   0  0  0  0  0  0  0  0  0  0  0  0
    6.8172  -21.1398   23.6956 N   0  0  0  0  0  0  0  0  0  0  0  0
    5.4487  -20.7802   23.8875 C   0  0  0  0  0  0  0  0  0  0  0  0
    4.6010  -21.6836   24.0298 O   0  0  0  0  0  0  0  0  0  0  0  0
    5.0769  -19.3458   23.9120 C   0  0  0  0  0  0  0  0  0  0  0  0
    6.3279  -18.5179   23.7205 C   0  0  2  0  0  0  0  0  0  0  0  0
    7.0149  -19.0071   22.5478 N   0  0  0  0  0  0  0  0  0  0  0  0
    7.2467  -18.6424   24.8851 C   0  0  0  0  0  0  0  0  0  0  0  0
    6.7881  -18.4207   26.0313 O   0  0  0  0  0  0  0  0  0  0  0  0
   11.1482  -19.1573   28.0594 N   0  0  0  0  0  0  0  0  0  0  0  0
    9.8055  -18.7400   28.2583 C   0  0  0  0  0  0  0  0  0  0  0  0
    9.4287  -18.4130   29.3960 O   0  0  0  0  0  0  0  0  0  0  0  0
    8.8679  -18.6966   27.1187 C   0  0  0  0  0  0  0  0  0  0  0  0
    9.5438  -19.0499   25.8275 C   0  0  2  0  0  0  0  0  0  0  0  0
    8.6033  -19.0009   24.7110 N   0  0  0  0  0  0  0  0  0  0  0  0
   10.1119  -20.4075   25.8806 C   0  0  0  0  0  0  0  0  0  0  0  0
    9.4113  -21.4627   25.7582 O   0  0  0  0  0  0  0  0  0  0  0  0
   11.4890  -20.5713   26.0743 O   0  0  0  0  0  0  0  0  0  0  0  0
  2  1  1  1
  3  2  1  0
  4  2  1  0
  4  5  1  6
  6  4  1  0
  6  7  2  0
  9 11  1  0
  9  8  1  0
 10  9  2  0
 12 11  1  1
 12 13  1  0
 13  6  1  0
 14 12  1  0
 15 14  2  0
 16 17  1  0
 17 18  2  0
 17 19  1  0
 20 19  1  1
 20 22  1  0
 20 21  1  0
 21 14  1  0
 22 24  1  0
 23 22  2  0
M  END
$$$$
