TNN.pdb
     RDKit          3D

 24 23  0  0  1  0  0  0  0  0999 V2000
   13.1686  -18.7170   15.0204 C   0  0  0  0  0  0  0  0  0  0  0  0
   13.2152  -17.7983   13.7936 C   0  0  1  0  0  0  0  0  0  0  0  0
   12.8795  -18.5712   12.6723 O   0  0  0  0  0  0  0  0  0  0  0  0
   12.1241  -16.7707   14.0083 C   0  0  2  0  0  0  0  0  0  0  0  0
   12.0916  -15.9276   12.8303 N   0  0  0  0  0  0  0  0  0  0  0  0
   12.3172  -15.9828   15.2478 C   0  0  0  0  0  0  0  0  0  0  0  0
   13.2286  -15.1266   15.3332 O   0  0  0  0  0  0  0  0  0  0  0  0
   10.3443  -13.2435   18.6857 N   0  0  0  0  0  0  0  0  0  0  0  0
    9.6705  -14.4806   18.9195 C   0  0  0  0  0  0  0  0  0  0  0  0
    8.6135  -14.4770   19.5811 O   0  0  0  0  0  0  0  0  0  0  0  0
   10.2466  -15.7303   18.3697 C   0  0  0  0  0  0  0  0  0  0  0  0
   11.4674  -15.3806   17.5484 C   0  0  2  0  0  0  0  0  0  0  0  0
   11.4574  -16.1993   16.3583 N   0  0  0  0  0  0  0  0  0  0  0  0
   12.7243  -15.6593   18.2956 C   0  0  0  0  0  0  0  0  0  0  0  0
   13.6224  -16.3218   17.7232 O   0  0  0  0  0  0  0  0  0  0  0  0
   15.4543  -13.0989   18.1410 N   0  0  0  0  0  0  0  0  0  0  0  0
   15.7729  -14.1301   19.0638 C   0  0  0  0  0  0  0  0  0  0  0  0
   16.6747  -14.9394   18.7895 O   0  0  0  0  0  0  0  0  0  0  0  0
   15.0353  -14.2360   20.3383 C   0  0  0  0  0  0  0  0  0  0  0  0
   14.1387  -15.4378   20.3647 C   0  0  2  0  0  0  0  0  0  0  0  0
   12.9079  -15.1922   19.6174 N   0  0  0  0  0  0  0  0  0  0  0  0
   13.7664  -15.7913   21.7450 C   0  0  0  0  0  0  0  0  0  0  0  0
   14.4310  -16.6078   22.4598 O   0  0  0  0  0  0  0  0  0  0  0  0
   12.6289  -15.2132   22.3216 O   0  0  0  0  0  0  0  0  0  0  0  0
  2  1  1  1
  3  2  1  0
  4  2  1  0
  4  5  1  6
  6  4  1  0
  6  7  2  0
  9 11  1  0
  9  8  1  0
 10  9  2  0
 12 11  1  1
 12 13  1  0
 13  6  1  0
 14 12  1  0
 15 14  2  0
 16 17  1  0
 17 18  2  0
 17 19  1  0
 20 19  1  1
 20 22  1  0
 20 21  1  0
 21 14  1  0
 22 24  1  0
 23 22  2  0
M  END
$$$$
