TNN.pdb
     RDKit          3D

 24 23  0  0  1  0  0  0  0  0999 V2000
    8.8000  -24.9767   11.7284 C   0  0  0  0  0  0  0  0  0  0  0  0
    9.7938  -23.8112   11.6576 C   0  0  1  0  0  0  0  0  0  0  0  0
   10.4000  -23.8472   10.3932 O   0  0  0  0  0  0  0  0  0  0  0  0
    8.9575  -22.5523   11.7496 C   0  0  2  0  0  0  0  0  0  0  0  0
    9.5850  -21.5581   10.9025 N   0  0  0  0  0  0  0  0  0  0  0  0
    8.7986  -22.0724   13.1421 C   0  0  0  0  0  0  0  0  0  0  0  0
    9.4568  -21.0940   13.5669 O   0  0  0  0  0  0  0  0  0  0  0  0
    6.0037  -23.3976   18.0918 N   0  0  0  0  0  0  0  0  0  0  0  0
    6.1672  -23.7179   16.7099 C   0  0  0  0  0  0  0  0  0  0  0  0
    6.2707  -24.9147   16.3755 O   0  0  0  0  0  0  0  0  0  0  0  0
    6.2088  -22.6199   15.7155 C   0  0  0  0  0  0  0  0  0  0  0  0
    7.6536  -22.3261   15.3786 C   0  0  2  0  0  0  0  0  0  0  0  0
    7.8868  -22.7298   14.0114 N   0  0  0  0  0  0  0  0  0  0  0  0
    8.5832  -23.0897   16.2553 C   0  0  0  0  0  0  0  0  0  0  0  0
    8.9482  -24.2310   15.8847 O   0  0  0  0  0  0  0  0  0  0  0  0
   12.2822  -22.8884   20.7309 N   0  0  0  0  0  0  0  0  0  0  0  0
   12.3116  -22.7126   19.3221 C   0  0  0  0  0  0  0  0  0  0  0  0
   13.3157  -23.0670   18.6822 O   0  0  0  0  0  0  0  0  0  0  0  0
   11.1553  -22.1127   18.6273 C   0  0  0  0  0  0  0  0  0  0  0  0
   10.1488  -23.1487   18.2241 C   0  0  2  0  0  0  0  0  0  0  0  0
    9.0469  -22.5484   17.4764 N   0  0  0  0  0  0  0  0  0  0  0  0
    9.5804  -23.8229   19.4035 C   0  0  0  0  0  0  0  0  0  0  0  0
    8.8359  -23.2354   20.2521 O   0  0  0  0  0  0  0  0  0  0  0  0
    9.8583  -25.1775   19.6238 O   0  0  0  0  0  0  0  0  0  0  0  0
  2  1  1  6
  3  2  1  0
  4  2  1  0
  4  5  1  6
  6  4  1  0
  6  7  2  0
  9 11  1  0
  9  8  1  0
 10  9  2  0
 12 11  1  1
 12 13  1  0
 13  6  1  0
 14 12  1  0
 15 14  2  0
 16 17  1  0
 17 18  2  0
 17 19  1  0
 20 19  1  1
 20 22  1  0
 20 21  1  0
 21 14  1  0
 22 24  1  0
 23 22  2  0
M  END
$$$$
