TNN.pdb
     RDKit          3D

 24 23  0  0  1  0  0  0  0  0999 V2000
    9.2680  -13.6762   21.1912 C   0  0  0  0  0  0  0  0  0  0  0  0
    8.0536  -13.5951   20.2585 C   0  0  1  0  0  0  0  0  0  0  0  0
    7.3859  -12.3931   20.5356 O   0  0  0  0  0  0  0  0  0  0  0  0
    8.6178  -13.5147   18.8558 C   0  0  2  0  0  0  0  0  0  0  0  0
    7.5248  -13.1573   17.9741 N   0  0  0  0  0  0  0  0  0  0  0  0
    9.2814  -14.7701   18.4339 C   0  0  0  0  0  0  0  0  0  0  0  0
    8.8780  -15.4092   17.4340 O   0  0  0  0  0  0  0  0  0  0  0  0
   12.9967  -13.9455   18.7939 N   0  0  0  0  0  0  0  0  0  0  0  0
   13.1364  -14.9687   17.8077 C   0  0  0  0  0  0  0  0  0  0  0  0
   14.2552  -15.1620   17.2921 O   0  0  0  0  0  0  0  0  0  0  0  0
   11.9491  -15.7696   17.4270 C   0  0  0  0  0  0  0  0  0  0  0  0
   11.2873  -16.2835   18.6860 C   0  0  2  0  0  0  0  0  0  0  0  0
   10.3923  -15.2595   19.1727 N   0  0  0  0  0  0  0  0  0  0  0  0
   12.2889  -16.5710   19.7490 C   0  0  0  0  0  0  0  0  0  0  0  0
   13.1624  -17.4424   19.5235 O   0  0  0  0  0  0  0  0  0  0  0  0
   15.1176  -14.0609   21.0583 N   0  0  0  0  0  0  0  0  0  0  0  0
   15.0117  -15.3082   21.7287 C   0  0  0  0  0  0  0  0  0  0  0  0
   15.8260  -16.2110   21.4733 O   0  0  0  0  0  0  0  0  0  0  0  0
   13.9402  -15.5261   22.7207 C   0  0  0  0  0  0  0  0  0  0  0  0
   12.8691  -16.4336   22.1935 C   0  0  2  0  0  0  0  0  0  0  0  0
   12.2620  -15.8834   20.9841 N   0  0  0  0  0  0  0  0  0  0  0  0
   11.8004  -16.6262   23.1881 C   0  0  0  0  0  0  0  0  0  0  0  0
   11.9989  -17.1399   24.3353 O   0  0  0  0  0  0  0  0  0  0  0  0
   10.4925  -16.2324   22.8797 O   0  0  0  0  0  0  0  0  0  0  0  0
  2  1  1  1
  3  2  1  0
  4  2  1  0
  4  5  1  6
  6  4  1  0
  6  7  2  0
  9 11  1  0
  9  8  1  0
 10  9  2  0
 12 11  1  6
 12 13  1  0
 13  6  1  0
 14 12  1  0
 15 14  2  0
 16 17  1  0
 17 18  2  0
 17 19  1  0
 20 19  1  1
 20 22  1  0
 20 21  1  0
 21 14  1  0
 22 24  1  0
 23 22  2  0
M  END
$$$$
