TNN.pdb
     RDKit          3D

 24 23  0  0  1  0  0  0  0  0999 V2000
    7.4995  -15.9979   18.6822 C   0  0  0  0  0  0  0  0  0  0  0  0
    8.2090  -14.6655   18.4126 C   0  0  1  0  0  0  0  0  0  0  0  0
    7.7978  -14.2143   17.1497 O   0  0  0  0  0  0  0  0  0  0  0  0
    7.6847  -13.7025   19.4568 C   0  0  2  0  0  0  0  0  0  0  0  0
    7.9782  -12.3625   18.9896 N   0  0  0  0  0  0  0  0  0  0  0  0
    8.2499  -13.9557   20.8025 C   0  0  0  0  0  0  0  0  0  0  0  0
    9.3984  -13.5561   21.1061 O   0  0  0  0  0  0  0  0  0  0  0  0
    6.9219  -16.7768   25.9131 N   0  0  0  0  0  0  0  0  0  0  0  0
    7.1436  -15.4828   25.3513 C   0  0  0  0  0  0  0  0  0  0  0  0
    7.7024  -14.6107   26.0455 O   0  0  0  0  0  0  0  0  0  0  0  0
    6.7037  -15.2153   23.9617 C   0  0  0  0  0  0  0  0  0  0  0  0
    7.9208  -14.9043   23.1197 C   0  0  2  0  0  0  0  0  0  0  0  0
    7.4801  -14.6623   21.7656 N   0  0  0  0  0  0  0  0  0  0  0  0
    8.8766  -16.0453   23.1020 C   0  0  0  0  0  0  0  0  0  0  0  0
    8.4843  -17.1432   22.6395 O   0  0  0  0  0  0  0  0  0  0  0  0
   11.6827  -16.4644   21.0773 N   0  0  0  0  0  0  0  0  0  0  0  0
   12.7424  -16.3076   22.0095 C   0  0  0  0  0  0  0  0  0  0  0  0
   13.8507  -15.9093   21.6143 O   0  0  0  0  0  0  0  0  0  0  0  0
   12.5241  -16.6169   23.4365 C   0  0  0  0  0  0  0  0  0  0  0  0
   11.1095  -17.0358   23.7055 C   0  0  2  0  0  0  0  0  0  0  0  0
   10.1950  -15.9025   23.5928 N   0  0  0  0  0  0  0  0  0  0  0  0
   10.9709  -17.5952   25.0607 C   0  0  0  0  0  0  0  0  0  0  0  0
   11.3719  -18.7601   25.3793 O   0  0  0  0  0  0  0  0  0  0  0  0
   10.3715  -16.8263   26.0658 O   0  0  0  0  0  0  0  0  0  0  0  0
  2  1  1  1
  3  2  1  0
  4  2  1  0
  4  5  1  6
  6  4  1  0
  6  7  2  0
  9 11  1  0
  9  8  1  0
 10  9  2  0
 12 11  1  1
 12 13  1  0
 13  6  1  0
 14 12  1  0
 15 14  2  0
 16 17  1  0
 17 18  2  0
 17 19  1  0
 20 19  1  1
 20 22  1  0
 20 21  1  0
 21 14  1  0
 22 24  1  0
 23 22  2  0
M  END
$$$$
