TNN.pdb
     RDKit          3D

 24 23  0  0  1  0  0  0  0  0999 V2000
    8.9498  -18.1836   13.8142 C   0  0  0  0  0  0  0  0  0  0  0  0
    9.5267  -17.5568   15.0891 C   0  0  1  0  0  0  0  0  0  0  0  0
   10.8642  -17.9658   15.1948 O   0  0  0  0  0  0  0  0  0  0  0  0
    9.5025  -16.0605   14.8582 C   0  0  2  0  0  0  0  0  0  0  0  0
   10.2618  -15.8008   13.6517 N   0  0  0  0  0  0  0  0  0  0  0  0
   10.0227  -15.2954   16.0151 C   0  0  0  0  0  0  0  0  0  0  0  0
   11.1398  -14.7293   15.9652 O   0  0  0  0  0  0  0  0  0  0  0  0
    6.4953  -12.9018   18.5905 N   0  0  0  0  0  0  0  0  0  0  0  0
    7.8119  -12.9937   19.1356 C   0  0  0  0  0  0  0  0  0  0  0  0
    8.3988  -11.9477   19.4763 O   0  0  0  0  0  0  0  0  0  0  0  0
    8.4408  -14.3278   19.2800 C   0  0  0  0  0  0  0  0  0  0  0  0
    9.6276  -14.4075   18.3460 C   0  0  2  0  0  0  0  0  0  0  0  0
    9.2452  -15.2005   17.2008 N   0  0  0  0  0  0  0  0  0  0  0  0
   10.7920  -15.0646   19.0003 C   0  0  0  0  0  0  0  0  0  0  0  0
   10.7830  -16.3135   19.1161 O   0  0  0  0  0  0  0  0  0  0  0  0
   15.4885  -15.9977   20.8362 N   0  0  0  0  0  0  0  0  0  0  0  0
   15.4773  -14.6126   20.5231 C   0  0  0  0  0  0  0  0  0  0  0  0
   16.5189  -13.9480   20.6515 O   0  0  0  0  0  0  0  0  0  0  0  0
   14.2347  -13.9715   20.0492 C   0  0  0  0  0  0  0  0  0  0  0  0
   13.0842  -14.9332   20.0298 C   0  0  2  0  0  0  0  0  0  0  0  0
   11.8841  -14.3063   19.4817 N   0  0  0  0  0  0  0  0  0  0  0  0
   12.7665  -15.4073   21.3873 C   0  0  0  0  0  0  0  0  0  0  0  0
   11.8224  -14.9259   22.0917 O   0  0  0  0  0  0  0  0  0  0  0  0
   13.5268  -16.4382   21.9529 O   0  0  0  0  0  0  0  0  0  0  0  0
  2  1  1  6
  3  2  1  0
  4  2  1  0
  4  5  1  6
  6  4  1  0
  6  7  2  0
  9 11  1  0
  9  8  1  0
 10  9  2  0
 12 11  1  1
 12 13  1  0
 13  6  1  0
 14 12  1  0
 15 14  2  0
 16 17  1  0
 17 18  2  0
 17 19  1  0
 20 19  1  1
 20 22  1  0
 20 21  1  0
 21 14  1  0
 22 24  1  0
 23 22  2  0
M  END
$$$$
