TNN.pdb
     RDKit          3D

 24 23  0  0  1  0  0  0  0  0999 V2000
   10.2163  -13.0071   19.8056 C   0  0  0  0  0  0  0  0  0  0  0  0
    8.7037  -12.7631   19.8663 C   0  0  1  0  0  0  0  0  0  0  0  0
    8.4604  -11.4805   19.3532 O   0  0  0  0  0  0  0  0  0  0  0  0
    8.0861  -13.7774   18.9271 C   0  0  2  0  0  0  0  0  0  0  0  0
    6.6694  -13.4828   18.8496 N   0  0  0  0  0  0  0  0  0  0  0  0
    8.3386  -15.1748   19.3491 C   0  0  0  0  0  0  0  0  0  0  0  0
    7.4374  -15.8595   19.8875 O   0  0  0  0  0  0  0  0  0  0  0  0
   10.2790  -20.0637   18.4647 N   0  0  0  0  0  0  0  0  0  0  0  0
   11.2465  -19.0266   18.6307 C   0  0  0  0  0  0  0  0  0  0  0  0
   12.3902  -19.3255   19.0274 O   0  0  0  0  0  0  0  0  0  0  0  0
   10.8629  -17.6278   18.3269 C   0  0  0  0  0  0  0  0  0  0  0  0
    9.9290  -17.1355   19.4097 C   0  0  2  0  0  0  0  0  0  0  0  0
    9.6213  -15.7499   19.1414 N   0  0  0  0  0  0  0  0  0  0  0  0
   10.5616  -17.2208   20.7544 C   0  0  0  0  0  0  0  0  0  0  0  0
   10.8593  -18.3544   21.2013 O   0  0  0  0  0  0  0  0  0  0  0  0
   12.5773  -16.5011   25.3132 N   0  0  0  0  0  0  0  0  0  0  0  0
   11.3186  -17.1165   25.0821 C   0  0  0  0  0  0  0  0  0  0  0  0
   10.7671  -17.7448   26.0010 O   0  0  0  0  0  0  0  0  0  0  0  0
   10.6742  -17.0081   23.7582 C   0  0  0  0  0  0  0  0  0  0  0  0
   11.4471  -16.1152   22.8340 C   0  0  2  0  0  0  0  0  0  0  0  0
   10.8231  -16.0576   21.5145 N   0  0  0  0  0  0  0  0  0  0  0  0
   12.8271  -16.5989   22.6605 C   0  0  0  0  0  0  0  0  0  0  0  0
   13.8433  -15.8333   22.6841 O   0  0  0  0  0  0  0  0  0  0  0  0
   13.0584  -17.9651   22.4582 O   0  0  0  0  0  0  0  0  0  0  0  0
  2  1  1  6
  3  2  1  0
  4  2  1  0
  4  5  1  1
  6  4  1  0
  6  7  2  0
  9 11  1  0
  9  8  1  0
 10  9  2  0
 12 11  1  6
 12 13  1  0
 13  6  1  0
 14 12  1  0
 15 14  2  0
 16 17  1  0
 17 18  2  0
 17 19  1  0
 20 19  1  1
 20 22  1  0
 20 21  1  0
 21 14  1  0
 22 24  1  0
 23 22  2  0
M  END
$$$$
