TNN.pdb
     RDKit          3D

 24 23  0  0  1  0  0  0  0  0999 V2000
    8.4402  -19.3862   19.5471 C   0  0  0  0  0  0  0  0  0  0  0  0
    9.6351  -19.2379   18.5977 C   0  0  1  0  0  0  0  0  0  0  0  0
    9.5885  -20.3045   17.6879 O   0  0  0  0  0  0  0  0  0  0  0  0
    9.3974  -17.9510   17.8362 C   0  0  2  0  0  0  0  0  0  0  0  0
   10.0324  -18.0954   16.5417 N   0  0  0  0  0  0  0  0  0  0  0  0
    9.8885  -16.7576   18.5636 C   0  0  0  0  0  0  0  0  0  0  0  0
   11.0485  -16.3204   18.3781 O   0  0  0  0  0  0  0  0  0  0  0  0
    7.6926  -12.1884   18.7397 N   0  0  0  0  0  0  0  0  0  0  0  0
    7.6300  -13.5847   19.0320 C   0  0  0  0  0  0  0  0  0  0  0  0
    7.1779  -14.3628   18.1689 O   0  0  0  0  0  0  0  0  0  0  0  0
    8.1037  -14.0670   20.3508 C   0  0  0  0  0  0  0  0  0  0  0  0
    9.3758  -14.8594   20.1484 C   0  0  2  0  0  0  0  0  0  0  0  0
    9.0335  -16.0968   19.4863 N   0  0  0  0  0  0  0  0  0  0  0  0
   10.0242  -15.1893   21.4471 C   0  0  0  0  0  0  0  0  0  0  0  0
   10.4627  -14.2472   22.1496 O   0  0  0  0  0  0  0  0  0  0  0  0
   10.6710  -18.2834   26.0919 N   0  0  0  0  0  0  0  0  0  0  0  0
   11.1822  -18.6344   24.8144 C   0  0  0  0  0  0  0  0  0  0  0  0
   12.2470  -19.2695   24.7350 O   0  0  0  0  0  0  0  0  0  0  0  0
   10.4505  -18.2454   23.5925 C   0  0  0  0  0  0  0  0  0  0  0  0
   10.8555  -16.8844   23.1103 C   0  0  2  0  0  0  0  0  0  0  0  0
   10.1464  -16.5285   21.8839 N   0  0  0  0  0  0  0  0  0  0  0  0
   12.3000  -16.8297   22.8291 C   0  0  0  0  0  0  0  0  0  0  0  0
   13.1807  -16.6565   23.7312 O   0  0  0  0  0  0  0  0  0  0  0  0
   12.7517  -16.9730   21.5114 O   0  0  0  0  0  0  0  0  0  0  0  0
  2  1  1  1
  3  2  1  0
  4  2  1  0
  4  5  1  6
  6  4  1  0
  6  7  2  0
  9 11  1  0
  9  8  1  0
 10  9  2  0
 12 11  1  1
 12 13  1  0
 13  6  1  0
 14 12  1  0
 15 14  2  0
 16 17  1  0
 17 18  2  0
 17 19  1  0
 20 19  1  6
 20 22  1  0
 20 21  1  0
 21 14  1  0
 22 24  1  0
 23 22  2  0
M  END
$$$$
