WER.pdb
     RDKit          3D

 35 36  0  0  1  0  0  0  0  0999 V2000
    8.8675  -18.2801   21.3726 N   0  0  0  0  0  0  0  0  0  0  0  0
    9.9878  -17.3576   21.5270 C   0  0  1  0  0  0  0  0  0  0  0  0
    9.5233  -16.2868   22.4283 C   0  0  0  0  0  0  0  0  0  0  0  0
    8.4821  -15.4029   22.0135 C   0  0  0  0  0  0  0  0  0  0  0  0
    7.2149  -15.3603   22.5596 C   0  0  0  0  0  0  0  0  0  0  0  0
    6.5040  -14.4064   21.9283 N   0  0  0  0  0  0  0  0  0  0  0  0
    7.2681  -13.8146   20.9767 C   0  0  0  0  0  0  0  0  0  0  0  0
    7.0387  -12.7996   20.0612 C   0  0  0  0  0  0  0  0  0  0  0  0
    8.0670  -12.4364   19.2184 C   0  0  0  0  0  0  0  0  0  0  0  0
    9.2893  -13.0685   19.2869 C   0  0  0  0  0  0  0  0  0  0  0  0
    9.5184  -14.0723   20.1906 C   0  0  0  0  0  0  0  0  0  0  0  0
    8.5032  -14.4443   21.0372 C   0  0  0  0  0  0  0  0  0  0  0  0
   11.0918  -18.1873   22.0529 C   0  0  0  0  0  0  0  0  0  0  0  0
   10.8462  -19.2785   22.6144 O   0  0  0  0  0  0  0  0  0  0  0  0
   12.4488  -17.8041   21.9528 N   0  0  0  0  0  0  0  0  0  0  0  0
   13.5450  -18.6798   22.3939 C   0  0  1  0  0  0  0  0  0  0  0  0
   14.8315  -18.1750   21.7792 C   0  0  0  0  0  0  0  0  0  0  0  0
   14.9501  -18.5644   20.3383 C   0  0  0  0  0  0  0  0  0  0  0  0
   16.2453  -18.0616   19.7556 C   0  0  0  0  0  0  0  0  0  0  0  0
   16.4337  -16.8474   19.5193 O   0  0  0  0  0  0  0  0  0  0  0  0
   13.6245  -18.7516   23.8445 C   0  0  0  0  0  0  0  0  0  0  0  0
   13.6636  -17.6589   24.4907 O   0  0  0  0  0  0  0  0  0  0  0  0
   17.2676  -18.9502   19.4674 O   0  0  0  0  0  0  0  0  0  0  0  0
   11.4148  -19.5768   30.2293 N   0  0  0  0  0  0  0  0  0  0  0  0
   11.8530  -20.8022   30.7993 C   0  0  0  0  0  0  0  0  0  0  0  0
   11.7098  -21.0527   32.0644 N   0  0  0  0  0  0  0  0  0  0  0  0
   12.4683  -21.8233   30.0196 N   0  0  0  0  0  0  0  0  0  0  0  0
   12.5111  -21.7114   28.5957 C   0  0  0  0  0  0  0  0  0  0  0  0
   13.8606  -21.4374   28.0143 C   0  0  0  0  0  0  0  0  0  0  0  0
   13.8471  -21.4019   26.4984 C   0  0  0  0  0  0  0  0  0  0  0  0
   13.7364  -19.9298   26.0600 C   0  0  2  0  0  0  0  0  0  0  0  0
   13.6562  -19.9331   24.5973 N   0  0  0  0  0  0  0  0  0  0  0  0
   14.9210  -19.2069   26.5433 C   0  0  0  0  0  0  0  0  0  0  0  0
   16.0351  -19.2808   25.9253 O   0  0  0  0  0  0  0  0  0  0  0  0
   14.8879  -18.4175   27.6807 O   0  0  0  0  0  0  0  0  0  0  0  0
  2 13  1  0
  2  1  1  1
  3  4  1  0
  3  2  1  0
  4  5  2  0
  6  5  1  0
  7  6  1  0
  8  7  2  0
  9  8  1  0
 10  9  2  0
 10 11  1  0
 11 12  2  0
 12  7  1  0
 12  4  1  0
 13 14  2  0
 15 16  1  0
 15 13  1  0
 17 18  1  0
 16 17  1  1
 19 18  1  0
 20 19  2  0
 21 22  2  0
 21 16  1  0
 23 19  1  0
 24 25  1  0
 25 27  1  0
 26 25  2  0
 27 28  1  0
 29 28  1  0
 30 29  1  0
 31 32  1  0
 31 30  1  6
 32 21  1  0
 33 31  1  0
 34 33  2  0
 35 33  1  0
M  END
$$$$
