WER.pdb
     RDKit          3D

 35 36  0  0  1  0  0  0  0  0999 V2000
    7.2328  -17.0798   21.4680 N   0  0  0  0  0  0  0  0  0  0  0  0
    8.1632  -16.2782   22.2563 C   0  0  1  0  0  0  0  0  0  0  0  0
    7.6562  -16.2950   23.6411 C   0  0  0  0  0  0  0  0  0  0  0  0
    6.9789  -15.1551   24.1697 C   0  0  0  0  0  0  0  0  0  0  0  0
    5.6291  -14.9011   24.0308 C   0  0  0  0  0  0  0  0  0  0  0  0
    5.3400  -13.7451   24.6585 N   0  0  0  0  0  0  0  0  0  0  0  0
    6.4646  -13.2256   25.2109 C   0  0  0  0  0  0  0  0  0  0  0  0
    6.7266  -12.0830   25.9503 C   0  0  0  0  0  0  0  0  0  0  0  0
    8.0214  -11.8569   26.3650 C   0  0  0  0  0  0  0  0  0  0  0  0
    9.0262  -12.7454   26.0504 C   0  0  0  0  0  0  0  0  0  0  0  0
    8.7699  -13.8753   25.3193 C   0  0  0  0  0  0  0  0  0  0  0  0
    7.4843  -14.1140   24.8998 C   0  0  0  0  0  0  0  0  0  0  0  0
    9.4786  -16.9227   22.0603 C   0  0  0  0  0  0  0  0  0  0  0  0
    9.6813  -17.6468   21.0599 O   0  0  0  0  0  0  0  0  0  0  0  0
   10.5504  -16.7606   22.9676 N   0  0  0  0  0  0  0  0  0  0  0  0
   11.8774  -17.3468   22.7256 C   0  0  1  0  0  0  0  0  0  0  0  0
   12.6501  -16.4132   21.8207 C   0  0  0  0  0  0  0  0  0  0  0  0
   12.2580  -16.5785   20.3852 C   0  0  0  0  0  0  0  0  0  0  0  0
   13.1185  -17.6174   19.7142 C   0  0  0  0  0  0  0  0  0  0  0  0
   12.6509  -18.4152   18.8713 O   0  0  0  0  0  0  0  0  0  0  0  0
   12.5835  -17.6094   23.9700 C   0  0  0  0  0  0  0  0  0  0  0  0
   13.7892  -17.2206   24.0606 O   0  0  0  0  0  0  0  0  0  0  0  0
   14.4653  -17.7078   20.0236 O   0  0  0  0  0  0  0  0  0  0  0  0
   12.1624  -15.1340   30.4450 N   0  0  0  0  0  0  0  0  0  0  0  0
   10.8678  -15.5153   30.0009 C   0  0  0  0  0  0  0  0  0  0  0  0
    9.8311  -14.7611   30.2016 N   0  0  0  0  0  0  0  0  0  0  0  0
   10.6336  -16.7388   29.3100 N   0  0  0  0  0  0  0  0  0  0  0  0
   11.6821  -17.7005   29.1781 C   0  0  0  0  0  0  0  0  0  0  0  0
   12.2632  -17.8320   27.8072 C   0  0  0  0  0  0  0  0  0  0  0  0
   12.1961  -19.2514   27.2781 C   0  0  0  0  0  0  0  0  0  0  0  0
   12.7877  -19.2554   25.8562 C   0  0  2  0  0  0  0  0  0  0  0  0
   12.0412  -18.2552   25.0891 N   0  0  0  0  0  0  0  0  0  0  0  0
   12.6394  -20.6038   25.2911 C   0  0  0  0  0  0  0  0  0  0  0  0
   11.7044  -20.8724   24.4651 O   0  0  0  0  0  0  0  0  0  0  0  0
   13.4977  -21.6389   25.6224 O   0  0  0  0  0  0  0  0  0  0  0  0
  2 13  1  0
  2  1  1  6
  3  4  1  0
  3  2  1  0
  4  5  2  0
  6  5  1  0
  7  6  1  0
  8  7  2  0
  9  8  1  0
 10  9  2  0
 10 11  1  0
 11 12  2  0
 12  7  1  0
 12  4  1  0
 13 14  2  0
 15 16  1  0
 15 13  1  0
 17 18  1  0
 16 17  1  6
 19 18  1  0
 20 19  2  0
 21 22  2  0
 21 16  1  0
 23 19  1  0
 24 25  1  0
 25 27  1  0
 26 25  2  0
 27 28  1  0
 29 28  1  0
 30 29  1  0
 31 32  1  0
 31 30  1  1
 32 21  1  0
 33 31  1  0
 34 33  2  0
 35 33  1  0
M  END
$$$$
