WER.pdb
     RDKit          3D

 35 36  0  0  1  0  0  0  0  0999 V2000
    6.7681  -17.2794   23.5344 N   0  0  0  0  0  0  0  0  0  0  0  0
    7.9568  -16.4335   23.5703 C   0  0  1  0  0  0  0  0  0  0  0  0
    8.0958  -15.9709   24.9637 C   0  0  0  0  0  0  0  0  0  0  0  0
    7.1668  -15.0303   25.5021 C   0  0  0  0  0  0  0  0  0  0  0  0
    5.8951  -15.3369   25.9432 C   0  0  0  0  0  0  0  0  0  0  0  0
    5.3083  -14.2094   26.3883 N   0  0  0  0  0  0  0  0  0  0  0  0
    6.1593  -13.1617   26.2536 C   0  0  0  0  0  0  0  0  0  0  0  0
    6.0663  -11.8106   26.5482 C   0  0  0  0  0  0  0  0  0  0  0  0
    7.1524  -11.0071   26.2755 C   0  0  0  0  0  0  0  0  0  0  0  0
    8.2985  -11.5367   25.7241 C   0  0  0  0  0  0  0  0  0  0  0  0
    8.3928  -12.8718   25.4316 C   0  0  0  0  0  0  0  0  0  0  0  0
    7.3186  -13.6847   25.6985 C   0  0  0  0  0  0  0  0  0  0  0  0
    9.0517  -17.2981   23.0827 C   0  0  0  0  0  0  0  0  0  0  0  0
    9.0986  -18.5029   23.4182 O   0  0  0  0  0  0  0  0  0  0  0  0
   10.0777  -16.8242   22.2336 N   0  0  0  0  0  0  0  0  0  0  0  0
   11.4079  -17.4498   22.1871 C   0  0  1  0  0  0  0  0  0  0  0  0
   12.2590  -16.6810   21.2010 C   0  0  0  0  0  0  0  0  0  0  0  0
   13.6539  -17.2204   21.1306 C   0  0  0  0  0  0  0  0  0  0  0  0
   14.3604  -16.7116   19.9012 C   0  0  0  0  0  0  0  0  0  0  0  0
   15.1500  -15.7422   19.9492 O   0  0  0  0  0  0  0  0  0  0  0  0
   12.0195  -17.5099   23.5055 C   0  0  0  0  0  0  0  0  0  0  0  0
   12.4830  -16.4329   23.9934 O   0  0  0  0  0  0  0  0  0  0  0  0
   14.1450  -17.3196   18.6757 O   0  0  0  0  0  0  0  0  0  0  0  0
    7.6267  -21.2082   26.4108 N   0  0  0  0  0  0  0  0  0  0  0  0
    8.7028  -21.9561   26.9595 C   0  0  0  0  0  0  0  0  0  0  0  0
    8.6118  -23.2360   27.1529 N   0  0  0  0  0  0  0  0  0  0  0  0
    9.9390  -21.3493   27.3240 N   0  0  0  0  0  0  0  0  0  0  0  0
    9.9736  -19.9804   27.7322 C   0  0  0  0  0  0  0  0  0  0  0  0
   10.7869  -19.0732   26.8662 C   0  0  0  0  0  0  0  0  0  0  0  0
   12.1222  -19.6781   26.4786 C   0  0  0  0  0  0  0  0  0  0  0  0
   12.8528  -18.6711   25.5710 C   0  0  2  0  0  0  0  0  0  0  0  0
   12.1371  -18.6632   24.2928 N   0  0  0  0  0  0  0  0  0  0  0  0
   14.2479  -19.1063   25.4165 C   0  0  0  0  0  0  0  0  0  0  0  0
   14.5642  -20.0203   24.5840 O   0  0  0  0  0  0  0  0  0  0  0  0
   15.2779  -18.5520   26.1579 O   0  0  0  0  0  0  0  0  0  0  0  0
  2 13  1  0
  2  1  1  1
  3  4  1  0
  3  2  1  0
  4  5  2  0
  6  5  1  0
  7  6  1  0
  8  7  2  0
  9  8  1  0
 10  9  2  0
 10 11  1  0
 11 12  2  0
 12  7  1  0
 12  4  1  0
 13 14  2  0
 15 16  1  0
 15 13  1  0
 17 18  1  0
 16 17  1  6
 19 18  1  0
 20 19  2  0
 21 22  2  0
 21 16  1  0
 23 19  1  0
 24 25  1  0
 25 27  1  0
 26 25  2  0
 27 28  1  0
 29 28  1  0
 30 29  1  0
 31 32  1  0
 31 30  1  1
 32 21  1  0
 33 31  1  0
 34 33  2  0
 35 33  1  0
M  END
$$$$
