WER.pdb
     RDKit          3D

 35 36  0  0  1  0  0  0  0  0999 V2000
    6.0041  -17.2181   24.1617 N   0  0  0  0  0  0  0  0  0  0  0  0
    7.2820  -16.5654   23.8958 C   0  0  1  0  0  0  0  0  0  0  0  0
    7.7060  -15.9486   25.1666 C   0  0  0  0  0  0  0  0  0  0  0  0
    7.0791  -14.7514   25.6259 C   0  0  0  0  0  0  0  0  0  0  0  0
    5.9974  -14.7022   26.4823 C   0  0  0  0  0  0  0  0  0  0  0  0
    5.6781  -13.4123   26.7017 N   0  0  0  0  0  0  0  0  0  0  0  0
    6.5214  -12.6040   26.0122 C   0  0  0  0  0  0  0  0  0  0  0  0
    6.6371  -11.2287   25.8856 C   0  0  0  0  0  0  0  0  0  0  0  0
    7.6380  -10.7297   25.0801 C   0  0  0  0  0  0  0  0  0  0  0  0
    8.4985  -11.5789   24.4194 C   0  0  0  0  0  0  0  0  0  0  0  0
    8.3859  -12.9387   24.5426 C   0  0  0  0  0  0  0  0  0  0  0  0
    7.3936  -13.4502   25.3424 C   0  0  0  0  0  0  0  0  0  0  0  0
    8.1610  -17.6430   23.3958 C   0  0  0  0  0  0  0  0  0  0  0  0
    8.1813  -18.7551   23.9695 O   0  0  0  0  0  0  0  0  0  0  0  0
    9.0037  -17.4809   22.2724 N   0  0  0  0  0  0  0  0  0  0  0  0
   10.3801  -17.9984   22.2441 C   0  0  1  0  0  0  0  0  0  0  0  0
   11.0658  -17.4538   21.0108 C   0  0  0  0  0  0  0  0  0  0  0  0
   12.5121  -17.8379   20.9628 C   0  0  0  0  0  0  0  0  0  0  0  0
   13.1183  -17.4659   19.6347 C   0  0  0  0  0  0  0  0  0  0  0  0
   14.2839  -17.8001   19.3261 O   0  0  0  0  0  0  0  0  0  0  0  0
   11.1035  -17.6675   23.4619 C   0  0  0  0  0  0  0  0  0  0  0  0
   11.4205  -16.4524   23.6513 O   0  0  0  0  0  0  0  0  0  0  0  0
   12.3824  -16.7360   18.7163 O   0  0  0  0  0  0  0  0  0  0  0  0
   11.3119  -22.3086   29.6461 N   0  0  0  0  0  0  0  0  0  0  0  0
   10.2569  -22.5393   28.7229 C   0  0  0  0  0  0  0  0  0  0  0  0
    9.8888  -23.7405   28.3982 N   0  0  0  0  0  0  0  0  0  0  0  0
    9.5429  -21.4722   28.1060 N   0  0  0  0  0  0  0  0  0  0  0  0
   10.1000  -20.1567   28.0798 C   0  0  0  0  0  0  0  0  0  0  0  0
   10.8915  -19.8196   26.8574 C   0  0  0  0  0  0  0  0  0  0  0  0
   11.3799  -18.3840   26.8554 C   0  0  0  0  0  0  0  0  0  0  0  0
   12.2782  -18.1911   25.6194 C   0  0  2  0  0  0  0  0  0  0  0  0
   11.4788  -18.5816   24.4556 N   0  0  0  0  0  0  0  0  0  0  0  0
   13.4727  -19.0331   25.7727 C   0  0  0  0  0  0  0  0  0  0  0  0
   14.3407  -18.7866   26.6752 O   0  0  0  0  0  0  0  0  0  0  0  0
   13.7134  -20.1245   24.9550 O   0  0  0  0  0  0  0  0  0  0  0  0
  2 13  1  0
  2  1  1  1
  3  4  1  0
  3  2  1  0
  4  5  2  0
  6  5  1  0
  7  6  1  0
  8  7  2  0
  9  8  1  0
 10  9  2  0
 10 11  1  0
 11 12  2  0
 12  7  1  0
 12  4  1  0
 13 14  2  0
 15 16  1  0
 15 13  1  0
 17 18  1  0
 16 17  1  6
 19 18  1  0
 20 19  2  0
 21 22  2  0
 21 16  1  0
 23 19  1  0
 24 25  1  0
 25 27  1  0
 26 25  2  0
 27 28  1  0
 29 28  1  0
 30 29  1  0
 31 32  1  0
 31 30  1  1
 32 21  1  0
 33 31  1  0
 34 33  2  0
 35 33  1  0
M  END
$$$$
