WER.pdb
     RDKit          3D

 35 36  0  0  1  0  0  0  0  0999 V2000
    6.4319  -17.3673   24.4288 N   0  0  0  0  0  0  0  0  0  0  0  0
    7.3236  -16.3129   23.9566 C   0  0  1  0  0  0  0  0  0  0  0  0
    7.8599  -15.6518   25.1608 C   0  0  0  0  0  0  0  0  0  0  0  0
    7.0694  -14.6939   25.8642 C   0  0  0  0  0  0  0  0  0  0  0  0
    6.1069  -14.9993   26.8057 C   0  0  0  0  0  0  0  0  0  0  0  0
    5.5697  -13.8520   27.2626 N   0  0  0  0  0  0  0  0  0  0  0  0
    6.1519  -12.7923   26.6478 C   0  0  0  0  0  0  0  0  0  0  0  0
    5.9810  -11.4202   26.7418 C   0  0  0  0  0  0  0  0  0  0  0  0
    6.7635  -10.6093   25.9483 C   0  0  0  0  0  0  0  0  0  0  0  0
    7.6899  -11.1522   25.0851 C   0  0  0  0  0  0  0  0  0  0  0  0
    7.8604  -12.5083   24.9899 C   0  0  0  0  0  0  0  0  0  0  0  0
    7.0881  -13.3286   25.7750 C   0  0  0  0  0  0  0  0  0  0  0  0
    8.3253  -17.0093   23.1226 C   0  0  0  0  0  0  0  0  0  0  0  0
    8.8666  -18.0595   23.5354 O   0  0  0  0  0  0  0  0  0  0  0  0
    8.7158  -16.5400   21.8477 N   0  0  0  0  0  0  0  0  0  0  0  0
   10.0545  -16.7955   21.2947 C   0  0  1  0  0  0  0  0  0  0  0  0
    9.9976  -16.5834   19.7983 C   0  0  0  0  0  0  0  0  0  0  0  0
    9.4496  -15.2349   19.4477 C   0  0  0  0  0  0  0  0  0  0  0  0
    8.5511  -15.3221   18.2416 C   0  0  0  0  0  0  0  0  0  0  0  0
    7.3281  -15.0674   18.3117 O   0  0  0  0  0  0  0  0  0  0  0  0
   11.0647  -15.9609   21.9263 C   0  0  0  0  0  0  0  0  0  0  0  0
   10.6812  -14.8873   22.4859 O   0  0  0  0  0  0  0  0  0  0  0  0
    9.0728  -15.6911   17.0130 O   0  0  0  0  0  0  0  0  0  0  0  0
    9.6804  -15.6353   27.2616 N   0  0  0  0  0  0  0  0  0  0  0  0
   10.8232  -15.9964   28.0245 C   0  0  0  0  0  0  0  0  0  0  0  0
   11.2227  -15.2804   29.0303 N   0  0  0  0  0  0  0  0  0  0  0  0
   11.5910  -17.1607   27.7343 N   0  0  0  0  0  0  0  0  0  0  0  0
   12.5634  -17.1366   26.6877 C   0  0  0  0  0  0  0  0  0  0  0  0
   12.1316  -16.4605   25.4264 C   0  0  0  0  0  0  0  0  0  0  0  0
   12.5807  -17.2027   24.1827 C   0  0  0  0  0  0  0  0  0  0  0  0
   13.2071  -16.1772   23.2195 C   0  0  2  0  0  0  0  0  0  0  0  0
   12.4360  -16.2452   21.9758 N   0  0  0  0  0  0  0  0  0  0  0  0
   14.6179  -16.5317   23.0110 C   0  0  0  0  0  0  0  0  0  0  0  0
   14.9524  -17.4429   22.1825 O   0  0  0  0  0  0  0  0  0  0  0  0
   15.6438  -15.9011   23.6949 O   0  0  0  0  0  0  0  0  0  0  0  0
  2 13  1  0
  2  1  1  1
  3  4  1  0
  3  2  1  0
  4  5  2  0
  6  5  1  0
  7  6  1  0
  8  7  2  0
  9  8  1  0
 10  9  2  0
 10 11  1  0
 11 12  2  0
 12  7  1  0
 12  4  1  0
 13 14  2  0
 15 16  1  0
 15 13  1  0
 17 18  1  0
 16 17  1  6
 19 18  1  0
 20 19  2  0
 21 22  2  0
 21 16  1  0
 23 19  1  0
 24 25  1  0
 25 27  1  0
 26 25  2  0
 27 28  1  0
 29 28  1  0
 30 29  1  0
 31 32  1  0
 31 30  1  1
 32 21  1  0
 33 31  1  0
 34 33  2  0
 35 33  1  0
M  END
$$$$
