WER.pdb
     RDKit          3D

 35 36  0  0  1  0  0  0  0  0999 V2000
   -7.2098  -25.4042   28.3555 N   0  0  0  0  0  0  0  0  0  0  0  0
   -5.9171  -24.9455   27.8573 C   0  0  1  0  0  0  0  0  0  0  0  0
   -5.5792  -23.7358   28.6300 C   0  0  0  0  0  0  0  0  0  0  0  0
   -5.9947  -22.4510   28.1671 C   0  0  0  0  0  0  0  0  0  0  0  0
   -7.0785  -21.7468   28.6522 C   0  0  0  0  0  0  0  0  0  0  0  0
   -7.1665  -20.5780   27.9890 N   0  0  0  0  0  0  0  0  0  0  0  0
   -6.1676  -20.4888   27.0756 C   0  0  0  0  0  0  0  0  0  0  0  0
   -5.8006  -19.5232   26.1516 C   0  0  0  0  0  0  0  0  0  0  0  0
   -4.6988  -19.7637   25.3593 C   0  0  0  0  0  0  0  0  0  0  0  0
   -3.9839  -20.9347   25.4852 C   0  0  0  0  0  0  0  0  0  0  0  0
   -4.3449  -21.8909   26.3975 C   0  0  0  0  0  0  0  0  0  0  0  0
   -5.4403  -21.6646   27.1942 C   0  0  0  0  0  0  0  0  0  0  0  0
   -5.0065  -26.0926   28.0549 C   0  0  0  0  0  0  0  0  0  0  0  0
   -5.2958  -26.9910   28.8768 O   0  0  0  0  0  0  0  0  0  0  0  0
   -3.7920  -26.2338   27.3453 N   0  0  0  0  0  0  0  0  0  0  0  0
   -2.9656  -27.4467   27.4398 C   0  0  1  0  0  0  0  0  0  0  0  0
   -2.2810  -27.6587   26.1079 C   0  0  0  0  0  0  0  0  0  0  0  0
   -1.5296  -28.9531   26.0681 C   0  0  0  0  0  0  0  0  0  0  0  0
   -0.7971  -29.1039   24.7603 C   0  0  0  0  0  0  0  0  0  0  0  0
    0.4380  -29.2992   24.7160 O   0  0  0  0  0  0  0  0  0  0  0  0
   -2.0132  -27.3636   28.5362 C   0  0  0  0  0  0  0  0  0  0  0  0
   -1.3830  -26.2721   28.6922 O   0  0  0  0  0  0  0  0  0  0  0  0
   -1.4906  -29.0287   23.5640 O   0  0  0  0  0  0  0  0  0  0  0  0
    1.7428  -33.4852   33.8471 N   0  0  0  0  0  0  0  0  0  0  0  0
    1.6324  -32.3074   34.6339 C   0  0  0  0  0  0  0  0  0  0  0  0
    1.9881  -32.2881   35.8817 N   0  0  0  0  0  0  0  0  0  0  0  0
    1.1314  -31.0847   34.1017 N   0  0  0  0  0  0  0  0  0  0  0  0
    0.7266  -31.0102   32.7334 C   0  0  0  0  0  0  0  0  0  0  0  0
    0.2223  -29.6762   32.2855 C   0  0  0  0  0  0  0  0  0  0  0  0
   -0.2630  -29.6876   30.8490 C   0  0  0  0  0  0  0  0  0  0  0  0
   -0.7134  -28.2594   30.4899 C   0  0  2  0  0  0  0  0  0  0  0  0
   -1.7330  -28.3916   29.4463 N   0  0  0  0  0  0  0  0  0  0  0  0
    0.4565  -27.5032   30.0219 C   0  0  0  0  0  0  0  0  0  0  0  0
    0.8171  -27.5387   28.7982 O   0  0  0  0  0  0  0  0  0  0  0  0
    1.2174  -26.7222   30.8756 O   0  0  0  0  0  0  0  0  0  0  0  0
  2 13  1  0
  2  1  1  1
  3  4  1  0
  3  2  1  0
  4  5  2  0
  6  5  1  0
  7  6  1  0
  8  7  2  0
  9  8  1  0
 10  9  2  0
 10 11  1  0
 11 12  2  0
 12  7  1  0
 12  4  1  0
 13 14  2  0
 15 16  1  0
 15 13  1  0
 17 18  1  0
 16 17  1  6
 19 18  1  0
 20 19  2  0
 21 22  2  0
 21 16  1  0
 23 19  1  0
 24 25  1  0
 25 27  1  0
 26 25  2  0
 27 28  1  0
 29 28  1  0
 30 29  1  0
 31 32  1  0
 31 30  1  6
 32 21  1  0
 33 31  1  0
 34 33  2  0
 35 33  1  0
M  END
$$$$
