WER.pdb
     RDKit          3D

 35 36  0  0  1  0  0  0  0  0999 V2000
    6.7642  -17.7306   24.3024 N   0  0  0  0  0  0  0  0  0  0  0  0
    7.7796  -16.7494   23.9337 C   0  0  1  0  0  0  0  0  0  0  0  0
    8.0794  -15.9818   25.1567 C   0  0  0  0  0  0  0  0  0  0  0  0
    7.1651  -14.9890   25.6213 C   0  0  0  0  0  0  0  0  0  0  0  0
    6.0602  -15.2375   26.4109 C   0  0  0  0  0  0  0  0  0  0  0  0
    5.4348  -14.0707   26.6587 N   0  0  0  0  0  0  0  0  0  0  0  0
    6.0974  -13.0538   26.0531 C   0  0  0  0  0  0  0  0  0  0  0  0
    5.8916  -11.6849   25.9856 C   0  0  0  0  0  0  0  0  0  0  0  0
    6.7861  -10.9255   25.2625 C   0  0  0  0  0  0  0  0  0  0  0  0
    7.8552  -11.5155   24.6245 C   0  0  0  0  0  0  0  0  0  0  0  0
    8.0605  -12.8685   24.6893 C   0  0  0  0  0  0  0  0  0  0  0  0
    7.1777  -13.6377   25.4068 C   0  0  0  0  0  0  0  0  0  0  0  0
    8.9030  -17.5487   23.4017 C   0  0  0  0  0  0  0  0  0  0  0  0
    9.2134  -18.6345   23.9413 O   0  0  0  0  0  0  0  0  0  0  0  0
    9.6675  -17.1416   22.2845 N   0  0  0  0  0  0  0  0  0  0  0  0
   10.9428  -17.7835   21.9315 C   0  0  1  0  0  0  0  0  0  0  0  0
   11.3892  -17.2450   20.5905 C   0  0  0  0  0  0  0  0  0  0  0  0
   12.6746  -17.8673   20.1409 C   0  0  0  0  0  0  0  0  0  0  0  0
   13.0878  -17.3249   18.7974 C   0  0  0  0  0  0  0  0  0  0  0  0
   13.7746  -16.2845   18.6902 O   0  0  0  0  0  0  0  0  0  0  0  0
   11.9487  -17.5827   22.9629 C   0  0  0  0  0  0  0  0  0  0  0  0
   12.1172  -16.4040   23.4048 O   0  0  0  0  0  0  0  0  0  0  0  0
   12.7087  -17.9806   17.6381 O   0  0  0  0  0  0  0  0  0  0  0  0
   13.5647  -20.4907   30.0660 N   0  0  0  0  0  0  0  0  0  0  0  0
   12.2387  -20.8118   29.6694 C   0  0  0  0  0  0  0  0  0  0  0  0
   11.2957  -20.9999   30.5407 N   0  0  0  0  0  0  0  0  0  0  0  0
   11.8678  -20.9415   28.3002 N   0  0  0  0  0  0  0  0  0  0  0  0
   12.8633  -20.8738   27.2775 C   0  0  0  0  0  0  0  0  0  0  0  0
   12.9468  -19.5712   26.5490 C   0  0  0  0  0  0  0  0  0  0  0  0
   13.8984  -19.6217   25.3695 C   0  0  0  0  0  0  0  0  0  0  0  0
   13.7334  -18.3150   24.5714 C   0  0  2  0  0  0  0  0  0  0  0  0
   12.7509  -18.5877   23.5196 N   0  0  0  0  0  0  0  0  0  0  0  0
   15.0407  -17.9366   24.0171 C   0  0  0  0  0  0  0  0  0  0  0  0
   15.3460  -18.2060   22.8076 O   0  0  0  0  0  0  0  0  0  0  0  0
   15.9959  -17.2753   24.7707 O   0  0  0  0  0  0  0  0  0  0  0  0
  2 13  1  0
  2  1  1  1
  3  4  1  0
  3  2  1  0
  4  5  2  0
  6  5  1  0
  7  6  1  0
  8  7  2  0
  9  8  1  0
 10  9  2  0
 10 11  1  0
 11 12  2  0
 12  7  1  0
 12  4  1  0
 13 14  2  0
 15 16  1  0
 15 13  1  0
 17 18  1  0
 16 17  1  6
 19 18  1  0
 20 19  2  0
 21 22  2  0
 21 16  1  0
 23 19  1  0
 24 25  1  0
 25 27  1  0
 26 25  2  0
 27 28  1  0
 29 28  1  0
 30 29  1  0
 31 32  1  0
 31 30  1  6
 32 21  1  0
 33 31  1  0
 34 33  2  0
 35 33  1  0
M  END
$$$$
