WER.pdb
     RDKit          3D

 35 36  0  0  1  0  0  0  0  0999 V2000
    8.5115  -16.2220   24.9294 N   0  0  0  0  0  0  0  0  0  0  0  0
    7.3376  -16.4904   24.1050 C   0  0  1  0  0  0  0  0  0  0  0  0
    6.7195  -15.1814   23.8233 C   0  0  0  0  0  0  0  0  0  0  0  0
    7.3386  -13.9821   24.2879 C   0  0  0  0  0  0  0  0  0  0  0  0
    8.4735  -13.4146   23.7439 C   0  0  0  0  0  0  0  0  0  0  0  0
    8.7668  -12.2929   24.4290 N   0  0  0  0  0  0  0  0  0  0  0  0
    7.8545  -12.1016   25.4144 C   0  0  0  0  0  0  0  0  0  0  0  0
    7.6881  -11.1287   26.3873 C   0  0  0  0  0  0  0  0  0  0  0  0
    6.6203  -11.2456   27.2510 C   0  0  0  0  0  0  0  0  0  0  0  0
    5.7439  -12.3035   27.1470 C   0  0  0  0  0  0  0  0  0  0  0  0
    5.9066  -13.2668   26.1865 C   0  0  0  0  0  0  0  0  0  0  0  0
    6.9657  -13.1629   25.3185 C   0  0  0  0  0  0  0  0  0  0  0  0
    7.8608  -17.2062   22.9227 C   0  0  0  0  0  0  0  0  0  0  0  0
    7.2062  -18.1442   22.4147 O   0  0  0  0  0  0  0  0  0  0  0  0
    9.0956  -16.8791   22.3174 N   0  0  0  0  0  0  0  0  0  0  0  0
   10.2760  -17.7499   22.4247 C   0  0  1  0  0  0  0  0  0  0  0  0
   11.4100  -17.1078   21.6569 C   0  0  0  0  0  0  0  0  0  0  0  0
   12.6423  -17.9581   21.6694 C   0  0  0  0  0  0  0  0  0  0  0  0
   13.2871  -17.9817   20.3080 C   0  0  0  0  0  0  0  0  0  0  0  0
   14.0422  -18.9141   19.9531 O   0  0  0  0  0  0  0  0  0  0  0  0
   10.6313  -18.0044   23.8121 C   0  0  0  0  0  0  0  0  0  0  0  0
   11.3227  -17.1276   24.4172 O   0  0  0  0  0  0  0  0  0  0  0  0
   13.0498  -16.9544   19.4101 O   0  0  0  0  0  0  0  0  0  0  0  0
    6.5277  -21.7409   22.8542 N   0  0  0  0  0  0  0  0  0  0  0  0
    6.5695  -22.5094   24.0484 C   0  0  0  0  0  0  0  0  0  0  0  0
    6.0080  -23.6767   24.1252 N   0  0  0  0  0  0  0  0  0  0  0  0
    7.2297  -22.0483   25.2234 N   0  0  0  0  0  0  0  0  0  0  0  0
    7.8696  -20.7708   25.2326 C   0  0  0  0  0  0  0  0  0  0  0  0
    8.6039  -20.4302   26.4893 C   0  0  0  0  0  0  0  0  0  0  0  0
   10.0939  -20.6910   26.3839 C   0  0  0  0  0  0  0  0  0  0  0  0
   10.7687  -19.3940   25.8999 C   0  0  2  0  0  0  0  0  0  0  0  0
   10.2682  -19.1412   24.5466 N   0  0  0  0  0  0  0  0  0  0  0  0
   12.2251  -19.5885   25.9194 C   0  0  0  0  0  0  0  0  0  0  0  0
   12.8652  -19.8770   24.8537 O   0  0  0  0  0  0  0  0  0  0  0  0
   12.9679  -19.4689   27.0821 O   0  0  0  0  0  0  0  0  0  0  0  0
  2 13  1  0
  2  1  1  1
  3  4  1  0
  3  2  1  0
  4  5  2  0
  6  5  1  0
  7  6  1  0
  8  7  2  0
  9  8  1  0
 10  9  2  0
 10 11  1  0
 11 12  2  0
 12  7  1  0
 12  4  1  0
 13 14  2  0
 15 16  1  0
 15 13  1  0
 17 18  1  0
 16 17  1  6
 19 18  1  0
 20 19  2  0
 21 22  2  0
 21 16  1  0
 23 19  1  0
 24 25  1  0
 25 27  1  0
 26 25  2  0
 27 28  1  0
 29 28  1  0
 30 29  1  0
 31 32  1  0
 31 30  1  6
 32 21  1  0
 33 31  1  0
 34 33  2  0
 35 33  1  0
M  END
$$$$
