WER.pdb
     RDKit          3D

 35 36  0  0  1  0  0  0  0  0999 V2000
    8.2190  -16.1377   22.0222 N   0  0  0  0  0  0  0  0  0  0  0  0
    8.8737  -15.8434   23.2928 C   0  0  1  0  0  0  0  0  0  0  0  0
    7.8008  -15.4913   24.2414 C   0  0  0  0  0  0  0  0  0  0  0  0
    7.0524  -14.2891   24.0623 C   0  0  0  0  0  0  0  0  0  0  0  0
    6.3307  -13.9668   22.9304 C   0  0  0  0  0  0  0  0  0  0  0  0
    5.7508  -12.7654   23.1151 N   0  0  0  0  0  0  0  0  0  0  0  0
    6.0696  -12.2823   24.3419 C   0  0  0  0  0  0  0  0  0  0  0  0
    5.7486  -11.1195   25.0244 C   0  0  0  0  0  0  0  0  0  0  0  0
    6.2586  -10.9457   26.2930 C   0  0  0  0  0  0  0  0  0  0  0  0
    7.0662  -11.9047   26.8640 C   0  0  0  0  0  0  0  0  0  0  0  0
    7.3854  -13.0547   26.1912 C   0  0  0  0  0  0  0  0  0  0  0  0
    6.8839  -13.2418   24.9266 C   0  0  0  0  0  0  0  0  0  0  0  0
    9.6277  -17.0706   23.6235 C   0  0  0  0  0  0  0  0  0  0  0  0
    9.0460  -18.1784   23.6494 O   0  0  0  0  0  0  0  0  0  0  0  0
   11.0098  -17.0603   23.9202 N   0  0  0  0  0  0  0  0  0  0  0  0
   11.6742  -18.1838   24.5981 C   0  0  1  0  0  0  0  0  0  0  0  0
   13.1464  -18.1414   24.2536 C   0  0  0  0  0  0  0  0  0  0  0  0
   13.7517  -16.8070   24.5610 C   0  0  0  0  0  0  0  0  0  0  0  0
   14.6733  -16.3717   23.4516 C   0  0  0  0  0  0  0  0  0  0  0  0
   14.9025  -17.1016   22.4614 O   0  0  0  0  0  0  0  0  0  0  0  0
   11.4486  -18.1534   26.0348 C   0  0  0  0  0  0  0  0  0  0  0  0
   11.9666  -17.2008   26.6960 O   0  0  0  0  0  0  0  0  0  0  0  0
   15.2925  -15.1343   23.5092 O   0  0  0  0  0  0  0  0  0  0  0  0
    5.7286  -22.0305   25.6790 N   0  0  0  0  0  0  0  0  0  0  0  0
    6.5380  -20.9911   25.1470 C   0  0  0  0  0  0  0  0  0  0  0  0
    6.6240  -20.7835   23.8689 N   0  0  0  0  0  0  0  0  0  0  0  0
    7.2951  -20.1184   25.9802 N   0  0  0  0  0  0  0  0  0  0  0  0
    7.2679  -20.2789   27.3998 C   0  0  0  0  0  0  0  0  0  0  0  0
    8.1506  -19.3484   28.1675 C   0  0  0  0  0  0  0  0  0  0  0  0
    9.4472  -20.0014   28.6052 C   0  0  0  0  0  0  0  0  0  0  0  0
   10.6047  -19.0617   28.2192 C   0  0  2  0  0  0  0  0  0  0  0  0
   10.6975  -19.0900   26.7574 N   0  0  0  0  0  0  0  0  0  0  0  0
   11.8357  -19.5485   28.8571 C   0  0  0  0  0  0  0  0  0  0  0  0
   12.8126  -19.9808   28.1590 O   0  0  0  0  0  0  0  0  0  0  0  0
   11.9960  -19.5616   30.2326 O   0  0  0  0  0  0  0  0  0  0  0  0
  2 13  1  0
  2  1  1  6
  3  4  1  0
  3  2  1  0
  4  5  2  0
  6  5  1  0
  7  6  1  0
  8  7  2  0
  9  8  1  0
 10  9  2  0
 10 11  1  0
 11 12  2  0
 12  7  1  0
 12  4  1  0
 13 14  2  0
 15 16  1  0
 15 13  1  0
 17 18  1  0
 16 17  1  1
 19 18  1  0
 20 19  2  0
 21 22  2  0
 21 16  1  0
 23 19  1  0
 24 25  1  0
 25 27  1  0
 26 25  2  0
 27 28  1  0
 29 28  1  0
 30 29  1  0
 31 32  1  0
 31 30  1  6
 32 21  1  0
 33 31  1  0
 34 33  2  0
 35 33  1  0
M  END
$$$$
