WER.pdb
     RDKit          3D

 35 36  0  0  1  0  0  0  0  0999 V2000
    6.8252  -16.7914   23.0478 N   0  0  0  0  0  0  0  0  0  0  0  0
    8.0557  -16.0324   23.2466 C   0  0  1  0  0  0  0  0  0  0  0  0
    8.1026  -15.6845   24.6789 C   0  0  0  0  0  0  0  0  0  0  0  0
    7.1963  -14.7187   25.2114 C   0  0  0  0  0  0  0  0  0  0  0  0
    5.9870  -15.0124   25.8091 C   0  0  0  0  0  0  0  0  0  0  0  0
    5.4048  -13.8610   26.1952 N   0  0  0  0  0  0  0  0  0  0  0  0
    6.1979  -12.8102   25.8688 C   0  0  0  0  0  0  0  0  0  0  0  0
    6.0832  -11.4387   26.0328 C   0  0  0  0  0  0  0  0  0  0  0  0
    7.1057  -10.6385   25.5705 C   0  0  0  0  0  0  0  0  0  0  0  0
    8.2110  -11.1912   24.9613 C   0  0  0  0  0  0  0  0  0  0  0  0
    8.3265  -12.5465   24.7974 C   0  0  0  0  0  0  0  0  0  0  0  0
    7.3156  -13.3562   25.2538 C   0  0  0  0  0  0  0  0  0  0  0  0
    9.1337  -16.9303   22.7820 C   0  0  0  0  0  0  0  0  0  0  0  0
    8.9506  -18.1679   22.7483 O   0  0  0  0  0  0  0  0  0  0  0  0
   10.3960  -16.4529   22.3615 N   0  0  0  0  0  0  0  0  0  0  0  0
   11.6373  -17.2051   22.5994 C   0  0  1  0  0  0  0  0  0  0  0  0
   12.8023  -16.3512   22.1508 C   0  0  0  0  0  0  0  0  0  0  0  0
   12.7594  -16.0802   20.6789 C   0  0  0  0  0  0  0  0  0  0  0  0
   13.4576  -17.1750   19.9151 C   0  0  0  0  0  0  0  0  0  0  0  0
   14.3676  -17.8612   20.4315 O   0  0  0  0  0  0  0  0  0  0  0  0
   11.7614  -17.6103   23.9909 C   0  0  0  0  0  0  0  0  0  0  0  0
   11.7468  -16.7003   24.8767 O   0  0  0  0  0  0  0  0  0  0  0  0
   13.0971  -17.4461   18.6057 O   0  0  0  0  0  0  0  0  0  0  0  0
    6.9311  -22.9983   26.4543 N   0  0  0  0  0  0  0  0  0  0  0  0
    6.8630  -21.8530   27.2921 C   0  0  0  0  0  0  0  0  0  0  0  0
    6.0468  -21.7955   28.2993 N   0  0  0  0  0  0  0  0  0  0  0  0
    7.6842  -20.7086   27.0794 N   0  0  0  0  0  0  0  0  0  0  0  0
    8.8243  -20.7929   26.2222 C   0  0  0  0  0  0  0  0  0  0  0  0
   10.1498  -20.7508   26.9119 C   0  0  0  0  0  0  0  0  0  0  0  0
   11.3134  -20.7283   25.9399 C   0  0  0  0  0  0  0  0  0  0  0  0
   11.8388  -19.2827   25.8634 C   0  0  2  0  0  0  0  0  0  0  0  0
   11.8911  -18.9306   24.4423 N   0  0  0  0  0  0  0  0  0  0  0  0
   13.1668  -19.2333   26.4905 C   0  0  0  0  0  0  0  0  0  0  0  0
   14.2198  -19.5124   25.8257 O   0  0  0  0  0  0  0  0  0  0  0  0
   13.3404  -18.8846   27.8195 O   0  0  0  0  0  0  0  0  0  0  0  0
  2 13  1  0
  2  1  1  1
  3  4  1  0
  3  2  1  0
  4  5  2  0
  6  5  1  0
  7  6  1  0
  8  7  2  0
  9  8  1  0
 10  9  2  0
 10 11  1  0
 11 12  2  0
 12  7  1  0
 12  4  1  0
 13 14  2  0
 15 16  1  0
 15 13  1  0
 17 18  1  0
 16 17  1  1
 19 18  1  0
 20 19  2  0
 21 22  2  0
 21 16  1  0
 23 19  1  0
 24 25  1  0
 25 27  1  0
 26 25  2  0
 27 28  1  0
 29 28  1  0
 30 29  1  0
 31 32  1  0
 31 30  1  6
 32 21  1  0
 33 31  1  0
 34 33  2  0
 35 33  1  0
M  END
$$$$
