WER.pdb
     RDKit          3D

 35 36  0  0  1  0  0  0  0  0999 V2000
    7.0564  -17.4178   23.7195 N   0  0  0  0  0  0  0  0  0  0  0  0
    8.2296  -16.5499   23.7168 C   0  0  1  0  0  0  0  0  0  0  0  0
    8.2964  -15.9371   25.0565 C   0  0  0  0  0  0  0  0  0  0  0  0
    7.3233  -14.9702   25.4512 C   0  0  0  0  0  0  0  0  0  0  0  0
    6.0633  -15.2654   25.9320 C   0  0  0  0  0  0  0  0  0  0  0  0
    5.4246  -14.1121   26.2071 N   0  0  0  0  0  0  0  0  0  0  0  0
    6.2296  -13.0585   25.9209 C   0  0  0  0  0  0  0  0  0  0  0  0
    6.0752  -11.6844   26.0145 C   0  0  0  0  0  0  0  0  0  0  0  0
    7.1268  -10.8818   25.6275 C   0  0  0  0  0  0  0  0  0  0  0  0
    8.2988  -11.4349   25.1599 C   0  0  0  0  0  0  0  0  0  0  0  0
    8.4536  -12.7929   25.0659 C   0  0  0  0  0  0  0  0  0  0  0  0
    7.4145  -13.6049   25.4486 C   0  0  0  0  0  0  0  0  0  0  0  0
    9.3586  -17.4403   23.3756 C   0  0  0  0  0  0  0  0  0  0  0  0
    9.3605  -18.6303   23.7632 O   0  0  0  0  0  0  0  0  0  0  0  0
   10.4679  -17.0082   22.6133 N   0  0  0  0  0  0  0  0  0  0  0  0
   11.6716  -17.8357   22.4425 C   0  0  1  0  0  0  0  0  0  0  0  0
   12.1341  -17.7091   21.0080 C   0  0  0  0  0  0  0  0  0  0  0  0
   11.9555  -16.3171   20.4865 C   0  0  0  0  0  0  0  0  0  0  0  0
   12.7398  -16.1197   19.2154 C   0  0  0  0  0  0  0  0  0  0  0  0
   13.9660  -15.8711   19.2301 O   0  0  0  0  0  0  0  0  0  0  0  0
   12.7149  -17.4677   23.3870 C   0  0  0  0  0  0  0  0  0  0  0  0
   12.9334  -16.2311   23.5764 O   0  0  0  0  0  0  0  0  0  0  0  0
   12.1061  -16.2129   17.9876 O   0  0  0  0  0  0  0  0  0  0  0  0
   10.8537  -20.6979   27.8316 N   0  0  0  0  0  0  0  0  0  0  0  0
   11.7328  -20.9992   28.9062 C   0  0  0  0  0  0  0  0  0  0  0  0
   11.4624  -21.9352   29.7632 N   0  0  0  0  0  0  0  0  0  0  0  0
   12.9573  -20.2983   29.1029 N   0  0  0  0  0  0  0  0  0  0  0  0
   13.9267  -20.2393   28.0548 C   0  0  0  0  0  0  0  0  0  0  0  0
   13.7539  -19.1162   27.0837 C   0  0  0  0  0  0  0  0  0  0  0  0
   14.8114  -19.1160   25.9969 C   0  0  0  0  0  0  0  0  0  0  0  0
   14.5297  -17.9249   25.0622 C   0  0  2  0  0  0  0  0  0  0  0  0
   13.5026  -18.3683   24.1165 N   0  0  0  0  0  0  0  0  0  0  0  0
   15.7797  -17.5570   24.3828 C   0  0  0  0  0  0  0  0  0  0  0  0
   15.9335  -17.7591   23.1321 O   0  0  0  0  0  0  0  0  0  0  0  0
   16.8413  -16.9783   25.0579 O   0  0  0  0  0  0  0  0  0  0  0  0
  2 13  1  0
  2  1  1  1
  3  4  1  0
  3  2  1  0
  4  5  2  0
  6  5  1  0
  7  6  1  0
  8  7  2  0
  9  8  1  0
 10  9  2  0
 10 11  1  0
 11 12  2  0
 12  7  1  0
 12  4  1  0
 13 14  2  0
 15 16  1  0
 15 13  1  0
 17 18  1  0
 16 17  1  6
 19 18  1  0
 20 19  2  0
 21 22  2  0
 21 16  1  0
 23 19  1  0
 24 25  1  0
 25 27  1  0
 26 25  2  0
 27 28  1  0
 29 28  1  0
 30 29  1  0
 31 32  1  0
 31 30  1  1
 32 21  1  0
 33 31  1  0
 34 33  2  0
 35 33  1  0
M  END
$$$$
