WER.pdb
     RDKit          3D

 35 36  0  0  1  0  0  0  0  0999 V2000
    6.6247  -17.7099   24.3529 N   0  0  0  0  0  0  0  0  0  0  0  0
    7.6494  -16.6951   24.1296 C   0  0  1  0  0  0  0  0  0  0  0  0
    7.8028  -15.9715   25.4055 C   0  0  0  0  0  0  0  0  0  0  0  0
    6.9575  -14.8612   25.7053 C   0  0  0  0  0  0  0  0  0  0  0  0
    5.7599  -14.9391   26.3877 C   0  0  0  0  0  0  0  0  0  0  0  0
    5.2403  -13.7010   26.4917 N   0  0  0  0  0  0  0  0  0  0  0  0
    6.0635  -12.8029   25.8953 C   0  0  0  0  0  0  0  0  0  0  0  0
    6.0117  -11.4294   25.7178 C   0  0  0  0  0  0  0  0  0  0  0  0
    7.0487  -10.8187   25.0460 C   0  0  0  0  0  0  0  0  0  0  0  0
    8.1070  -11.5578   24.5645 C   0  0  0  0  0  0  0  0  0  0  0  0
    8.1603  -12.9157   24.7382 C   0  0  0  0  0  0  0  0  0  0  0  0
    7.1344  -13.5377   25.4063 C   0  0  0  0  0  0  0  0  0  0  0  0
    8.8404  -17.4503   23.6878 C   0  0  0  0  0  0  0  0  0  0  0  0
    9.0622  -18.5959   24.1404 O   0  0  0  0  0  0  0  0  0  0  0  0
    9.7686  -16.9340   22.7551 N   0  0  0  0  0  0  0  0  0  0  0  0
   11.0735  -17.5685   22.5147 C   0  0  1  0  0  0  0  0  0  0  0  0
   11.6991  -16.9201   21.2998 C   0  0  0  0  0  0  0  0  0  0  0  0
   11.0122  -17.3302   20.0343 C   0  0  0  0  0  0  0  0  0  0  0  0
   11.5378  -16.5414   18.8632 C   0  0  0  0  0  0  0  0  0  0  0  0
   12.5306  -15.7874   18.9695 O   0  0  0  0  0  0  0  0  0  0  0  0
   11.9353  -17.4840   23.6834 C   0  0  0  0  0  0  0  0  0  0  0  0
   11.7593  -16.5110   24.4804 O   0  0  0  0  0  0  0  0  0  0  0  0
   10.9208  -16.6402   17.6273 O   0  0  0  0  0  0  0  0  0  0  0  0
   13.4154  -22.1433   30.7031 N   0  0  0  0  0  0  0  0  0  0  0  0
   13.0594  -20.7679   30.7067 C   0  0  0  0  0  0  0  0  0  0  0  0
   12.4378  -20.2295   31.7105 N   0  0  0  0  0  0  0  0  0  0  0  0
   13.3652  -19.9032   29.6168 N   0  0  0  0  0  0  0  0  0  0  0  0
   13.8466  -20.4440   28.3849 C   0  0  0  0  0  0  0  0  0  0  0  0
   14.2450  -19.4370   27.3545 C   0  0  0  0  0  0  0  0  0  0  0  0
   13.2996  -19.4089   26.1693 C   0  0  0  0  0  0  0  0  0  0  0  0
   13.7489  -18.2725   25.2320 C   0  0  2  0  0  0  0  0  0  0  0  0
   12.9483  -18.3951   24.0113 N   0  0  0  0  0  0  0  0  0  0  0  0
   15.1855  -18.4267   24.9643 C   0  0  0  0  0  0  0  0  0  0  0  0
   16.0592  -17.9650   25.7719 O   0  0  0  0  0  0  0  0  0  0  0  0
   15.6582  -19.0743   23.8350 O   0  0  0  0  0  0  0  0  0  0  0  0
  2 13  1  0
  2  1  1  1
  3  4  1  0
  3  2  1  0
  4  5  2  0
  6  5  1  0
  7  6  1  0
  8  7  2  0
  9  8  1  0
 10  9  2  0
 10 11  1  0
 11 12  2  0
 12  7  1  0
 12  4  1  0
 13 14  2  0
 15 16  1  0
 15 13  1  0
 17 18  1  0
 16 17  1  6
 19 18  1  0
 20 19  2  0
 21 22  2  0
 21 16  1  0
 23 19  1  0
 24 25  1  0
 25 27  1  0
 26 25  2  0
 27 28  1  0
 29 28  1  0
 30 29  1  0
 31 32  1  0
 31 30  1  1
 32 21  1  0
 33 31  1  0
 34 33  2  0
 35 33  1  0
M  END
$$$$
