WER.pdb
     RDKit          3D

 35 36  0  0  1  0  0  0  0  0999 V2000
    6.9319  -17.8510   25.0599 N   0  0  0  0  0  0  0  0  0  0  0  0
    7.5925  -16.8863   24.1866 C   0  0  1  0  0  0  0  0  0  0  0  0
    8.0380  -15.7788   25.0525 C   0  0  0  0  0  0  0  0  0  0  0  0
    7.0958  -14.8178   25.5280 C   0  0  0  0  0  0  0  0  0  0  0  0
    5.9166  -15.1200   26.1794 C   0  0  0  0  0  0  0  0  0  0  0  0
    5.2851  -13.9705   26.4855 N   0  0  0  0  0  0  0  0  0  0  0  0
    6.0161  -12.9127   26.0536 C   0  0  0  0  0  0  0  0  0  0  0  0
    5.8352  -11.5396   26.1082 C   0  0  0  0  0  0  0  0  0  0  0  0
    6.8051  -10.7313   25.5553 C   0  0  0  0  0  0  0  0  0  0  0  0
    7.9232  -11.2777   24.9643 C   0  0  0  0  0  0  0  0  0  0  0  0
    8.1041  -12.6346   24.9086 C   0  0  0  0  0  0  0  0  0  0  0  0
    7.1463  -13.4523   25.4560 C   0  0  0  0  0  0  0  0  0  0  0  0
    8.6766  -17.6482   23.5322 C   0  0  0  0  0  0  0  0  0  0  0  0
    9.3449  -18.4795   24.1869 O   0  0  0  0  0  0  0  0  0  0  0  0
    9.0087  -17.4840   22.1680 N   0  0  0  0  0  0  0  0  0  0  0  0
   10.3535  -17.7745   21.6483 C   0  0  1  0  0  0  0  0  0  0  0  0
   10.3406  -17.5563   20.1517 C   0  0  0  0  0  0  0  0  0  0  0  0
   11.6743  -17.8450   19.5357 C   0  0  0  0  0  0  0  0  0  0  0  0
   11.5570  -17.9526   18.0375 C   0  0  0  0  0  0  0  0  0  0  0  0
   11.2498  -16.9684   17.3287 O   0  0  0  0  0  0  0  0  0  0  0  0
   11.3698  -16.9699   22.3086 C   0  0  0  0  0  0  0  0  0  0  0  0
   11.3959  -15.7253   22.0573 O   0  0  0  0  0  0  0  0  0  0  0  0
   11.7925  -19.1636   17.4084 O   0  0  0  0  0  0  0  0  0  0  0  0
   11.3204  -19.1348   27.4875 N   0  0  0  0  0  0  0  0  0  0  0  0
   11.2266  -17.9657   28.2893 C   0  0  0  0  0  0  0  0  0  0  0  0
   11.4494  -17.9986   29.5673 N   0  0  0  0  0  0  0  0  0  0  0  0
   10.8884  -16.6955   27.7403 N   0  0  0  0  0  0  0  0  0  0  0  0
   11.9183  -15.7869   27.3461 C   0  0  0  0  0  0  0  0  0  0  0  0
   12.1682  -15.6997   25.8750 C   0  0  0  0  0  0  0  0  0  0  0  0
   13.1221  -16.7696   25.3802 C   0  0  0  0  0  0  0  0  0  0  0  0
   13.3033  -16.5777   23.8630 C   0  0  2  0  0  0  0  0  0  0  0  0
   12.3272  -17.4535   23.2104 N   0  0  0  0  0  0  0  0  0  0  0  0
   14.6842  -16.9334   23.5077 C   0  0  0  0  0  0  0  0  0  0  0  0
   14.9456  -18.0152   22.8831 O   0  0  0  0  0  0  0  0  0  0  0  0
   15.7590  -16.1212   23.8286 O   0  0  0  0  0  0  0  0  0  0  0  0
  2 13  1  0
  2  1  1  1
  3  4  1  0
  3  2  1  0
  4  5  2  0
  6  5  1  0
  7  6  1  0
  8  7  2  0
  9  8  1  0
 10  9  2  0
 10 11  1  0
 11 12  2  0
 12  7  1  0
 12  4  1  0
 13 14  2  0
 15 16  1  0
 15 13  1  0
 17 18  1  0
 16 17  1  6
 19 18  1  0
 20 19  2  0
 21 22  2  0
 21 16  1  0
 23 19  1  0
 24 25  1  0
 25 27  1  0
 26 25  2  0
 27 28  1  0
 29 28  1  0
 30 29  1  0
 31 32  1  0
 31 30  1  1
 32 21  1  0
 33 31  1  0
 34 33  2  0
 35 33  1  0
M  END
$$$$
