WER.pdb
     RDKit          3D

 35 36  0  0  1  0  0  0  0  0999 V2000
    7.2319  -16.5481   22.4685 N   0  0  0  0  0  0  0  0  0  0  0  0
    8.5090  -16.0528   22.9720 C   0  0  1  0  0  0  0  0  0  0  0  0
    8.4140  -16.0791   24.4435 C   0  0  0  0  0  0  0  0  0  0  0  0
    7.4190  -15.3034   25.1110 C   0  0  0  0  0  0  0  0  0  0  0  0
    6.2966  -15.8174   25.7289 C   0  0  0  0  0  0  0  0  0  0  0  0
    5.5888  -14.7999   26.2555 N   0  0  0  0  0  0  0  0  0  0  0  0
    6.2137  -13.6229   26.0024 C   0  0  0  0  0  0  0  0  0  0  0  0
    5.9260  -12.3024   26.3098 C   0  0  0  0  0  0  0  0  0  0  0  0
    6.8036  -11.3278   25.8860 C   0  0  0  0  0  0  0  0  0  0  0  0
    7.9358  -11.6614   25.1753 C   0  0  0  0  0  0  0  0  0  0  0  0
    8.2221  -12.9659   24.8698 C   0  0  0  0  0  0  0  0  0  0  0  0
    7.3569  -13.9477   25.2861 C   0  0  0  0  0  0  0  0  0  0  0  0
    9.5221  -16.9583   22.3909 C   0  0  0  0  0  0  0  0  0  0  0  0
    9.3991  -18.1981   22.5092 O   0  0  0  0  0  0  0  0  0  0  0  0
   10.6543  -16.4861   21.6886 N   0  0  0  0  0  0  0  0  0  0  0  0
   11.9549  -17.1703   21.7480 C   0  0  1  0  0  0  0  0  0  0  0  0
   12.8773  -16.5233   20.7389 C   0  0  0  0  0  0  0  0  0  0  0  0
   14.2672  -17.0736   20.8224 C   0  0  0  0  0  0  0  0  0  0  0  0
   15.1286  -16.5146   19.7199 C   0  0  0  0  0  0  0  0  0  0  0  0
   14.6865  -15.6829   18.8963 O   0  0  0  0  0  0  0  0  0  0  0  0
   12.5130  -17.1474   23.0911 C   0  0  0  0  0  0  0  0  0  0  0  0
   12.4300  -16.0642   23.7489 O   0  0  0  0  0  0  0  0  0  0  0  0
   16.4478  -16.9179   19.5981 O   0  0  0  0  0  0  0  0  0  0  0  0
    8.6184  -22.2452   27.1459 N   0  0  0  0  0  0  0  0  0  0  0  0
    9.4428  -22.8106   26.1364 C   0  0  0  0  0  0  0  0  0  0  0  0
    9.2203  -23.9984   25.6637 N   0  0  0  0  0  0  0  0  0  0  0  0
   10.5533  -22.1097   25.5843 N   0  0  0  0  0  0  0  0  0  0  0  0
   10.8990  -20.8128   26.0746 C   0  0  0  0  0  0  0  0  0  0  0  0
   12.0622  -20.1609   25.3991 C   0  0  0  0  0  0  0  0  0  0  0  0
   12.3510  -18.7748   25.9419 C   0  0  0  0  0  0  0  0  0  0  0  0
   13.5274  -18.1877   25.1399 C   0  0  2  0  0  0  0  0  0  0  0  0
   13.1347  -18.2290   23.7292 N   0  0  0  0  0  0  0  0  0  0  0  0
   14.7238  -19.0001   25.4010 C   0  0  0  0  0  0  0  0  0  0  0  0
   15.2648  -19.6921   24.4752 O   0  0  0  0  0  0  0  0  0  0  0  0
   15.3180  -19.0543   26.6507 O   0  0  0  0  0  0  0  0  0  0  0  0
  2 13  1  0
  2  1  1  6
  3  4  1  0
  3  2  1  0
  4  5  2  0
  6  5  1  0
  7  6  1  0
  8  7  2  0
  9  8  1  0
 10  9  2  0
 10 11  1  0
 11 12  2  0
 12  7  1  0
 12  4  1  0
 13 14  2  0
 15 16  1  0
 15 13  1  0
 17 18  1  0
 16 17  1  6
 19 18  1  0
 20 19  2  0
 21 22  2  0
 21 16  1  0
 23 19  1  0
 24 25  1  0
 25 27  1  0
 26 25  2  0
 27 28  1  0
 29 28  1  0
 30 29  1  0
 31 32  1  0
 31 30  1  1
 32 21  1  0
 33 31  1  0
 34 33  2  0
 35 33  1  0
M  END
$$$$
