PHM.pdb
     RDKit          3D

 26 27  0  0  1  0  0  0  0  0999 V2000
    8.7912  -15.0231   18.3226 N   0  0  0  0  0  0  0  0  0  0  0  0
    8.8697  -14.1382   17.1753 C   0  0  0  0  0  0  0  0  0  0  0  0
    7.9680  -12.9609   17.4628 C   0  0  0  0  0  0  0  0  0  0  0  0
    7.5090  -13.2079   18.8932 C   0  0  0  0  0  0  0  0  0  0  0  0
    8.6223  -14.0773   19.4137 C   0  0  1  0  0  0  0  0  0  0  0  0
    8.3236  -14.7322   20.6897 C   0  0  0  0  0  0  0  0  0  0  0  0
    8.0518  -14.0341   21.6789 O   0  0  0  0  0  0  0  0  0  0  0  0
    8.3323  -16.1643   20.8461 N   0  0  0  0  0  0  0  0  0  0  0  0
    7.9903  -16.8184   22.0687 C   0  0  1  0  0  0  0  0  0  0  0  0
    8.1108  -18.3209   22.0047 C   0  0  0  0  0  0  0  0  0  0  0  0
    7.6780  -18.9228   23.2891 C   0  0  0  0  0  0  0  0  0  0  0  0
    8.4777  -19.4763   24.2642 C   0  0  0  0  0  0  0  0  0  0  0  0
    7.6931  -19.9158   25.2823 N   0  0  0  0  0  0  0  0  0  0  0  0
    6.4203  -19.6435   24.9533 C   0  0  0  0  0  0  0  0  0  0  0  0
    6.4262  -19.0462   23.7521 N   0  0  0  0  0  0  0  0  0  0  0  0
    8.6526  -16.2363   23.2554 C   0  0  0  0  0  0  0  0  0  0  0  0
    9.8988  -16.0388   23.3244 O   0  0  0  0  0  0  0  0  0  0  0  0
    6.0383  -11.2925   25.9729 C   0  0  0  0  0  0  0  0  0  0  0  0
    7.1651  -11.6812   27.3329 S   0  0  0  0  0  0  0  0  0  0  0  0
    8.2365  -13.0937   26.9105 C   0  0  0  0  0  0  0  0  0  0  0  0
    7.6006  -13.9809   25.8906 C   0  0  0  0  0  0  0  0  0  0  0  0
    8.5443  -15.0797   25.4828 C   0  0  2  0  0  0  0  0  0  0  0  0
    7.9170  -15.8500   24.4263 N   0  0  0  0  0  0  0  0  0  0  0  0
    8.9056  -15.9592   26.6144 C   0  0  0  0  0  0  0  0  0  0  0  0
    8.2591  -17.0157   26.8143 O   0  0  0  0  0  0  0  0  0  0  0  0
    9.9463  -15.6590   27.4768 O   0  0  0  0  0  0  0  0  0  0  0  0
  1  2  1  0
  2  3  1  0
  4  3  1  0
  5  6  1  1
  5  1  1  0
  5  4  1  0
  6  8  1  0
  7  6  2  0
  8  9  1  0
  9 10  1  6
 10 11  1  0
 11 12  2  0
 11 15  1  0
 12 13  1  0
 13 14  1  0
 15 14  2  0
 16  9  1  0
 17 16  2  0
 18 19  1  0
 20 19  1  0
 21 20  1  0
 22 21  1  1
 22 23  1  0
 22 24  1  0
 23 16  1  0
 24 26  1  0
 25 24  2  0
M  END
$$$$
