PHM.pdb
     RDKit          3D

 26 27  0  0  1  0  0  0  0  0999 V2000
    6.5834  -18.6566   19.9981 N   0  0  0  0  0  0  0  0  0  0  0  0
    6.4131  -19.6030   18.9115 C   0  0  0  0  0  0  0  0  0  0  0  0
    7.5118  -19.3300   17.9114 C   0  0  0  0  0  0  0  0  0  0  0  0
    8.3593  -18.2679   18.5981 C   0  0  0  0  0  0  0  0  0  0  0  0
    8.0299  -18.5189   20.0454 C   0  0  1  0  0  0  0  0  0  0  0  0
    8.4681  -17.4550   20.9522 C   0  0  0  0  0  0  0  0  0  0  0  0
    9.6368  -17.4589   21.3694 O   0  0  0  0  0  0  0  0  0  0  0  0
    7.5925  -16.3955   21.3839 N   0  0  0  0  0  0  0  0  0  0  0  0
    8.0072  -15.3487   22.2624 C   0  0  1  0  0  0  0  0  0  0  0  0
    7.4220  -14.0019   21.9165 C   0  0  0  0  0  0  0  0  0  0  0  0
    7.7633  -13.6408   20.5192 C   0  0  0  0  0  0  0  0  0  0  0  0
    6.8905  -13.3863   19.4847 C   0  0  0  0  0  0  0  0  0  0  0  0
    7.6039  -13.0924   18.3667 N   0  0  0  0  0  0  0  0  0  0  0  0
    8.9046  -13.1609   18.6922 C   0  0  0  0  0  0  0  0  0  0  0  0
    8.9856  -13.4915   19.9899 N   0  0  0  0  0  0  0  0  0  0  0  0
    7.8666  -15.6888   23.6942 C   0  0  0  0  0  0  0  0  0  0  0  0
    6.8027  -15.4982   24.3489 O   0  0  0  0  0  0  0  0  0  0  0  0
    8.1494  -20.8630   27.3437 C   0  0  0  0  0  0  0  0  0  0  0  0
    6.7003  -20.0028   26.6873 S   0  0  0  0  0  0  0  0  0  0  0  0
    7.0636  -18.2411   26.3938 C   0  0  0  0  0  0  0  0  0  0  0  0
    8.4907  -18.0309   26.0057 C   0  0  0  0  0  0  0  0  0  0  0  0
    8.7891  -16.5631   25.8612 C   0  0  2  0  0  0  0  0  0  0  0  0
    8.9421  -16.2663   24.4499 N   0  0  0  0  0  0  0  0  0  0  0  0
   10.0008  -16.1596   26.6051 C   0  0  0  0  0  0  0  0  0  0  0  0
   11.0310  -15.8133   25.9783 O   0  0  0  0  0  0  0  0  0  0  0  0
   10.0453  -16.1484   27.9888 O   0  0  0  0  0  0  0  0  0  0  0  0
  1  2  1  0
  2  3  1  0
  4  3  1  0
  5  6  1  1
  5  1  1  0
  5  4  1  0
  6  8  1  0
  7  6  2  0
  8  9  1  0
  9 10  1  6
 10 11  1  0
 11 12  2  0
 11 15  1  0
 12 13  1  0
 13 14  1  0
 15 14  2  0
 16  9  1  0
 17 16  2  0
 18 19  1  0
 20 19  1  0
 21 20  1  0
 22 21  1  6
 22 23  1  0
 22 24  1  0
 23 16  1  0
 24 26  1  0
 25 24  2  0
M  END
$$$$
