PHM.pdb
     RDKit          3D

 26 27  0  0  1  0  0  0  0  0999 V2000
    8.9735  -15.1317   18.2278 N   0  0  0  0  0  0  0  0  0  0  0  0
    9.0558  -14.3230   17.0258 C   0  0  0  0  0  0  0  0  0  0  0  0
    7.9871  -13.2609   17.1338 C   0  0  0  0  0  0  0  0  0  0  0  0
    7.4193  -13.4711   18.5307 C   0  0  0  0  0  0  0  0  0  0  0  0
    8.5750  -14.1463   19.2196 C   0  0  1  0  0  0  0  0  0  0  0  0
    8.2331  -14.7486   20.5106 C   0  0  0  0  0  0  0  0  0  0  0  0
    7.8277  -14.0199   21.4297 O   0  0  0  0  0  0  0  0  0  0  0  0
    8.3486  -16.1627   20.7607 N   0  0  0  0  0  0  0  0  0  0  0  0
    7.9895  -16.7678   22.0034 C   0  0  1  0  0  0  0  0  0  0  0  0
    8.2402  -18.2549   22.0463 C   0  0  0  0  0  0  0  0  0  0  0  0
    7.7504  -18.8183   23.3277 C   0  0  0  0  0  0  0  0  0  0  0  0
    6.4589  -19.1779   23.6432 C   0  0  0  0  0  0  0  0  0  0  0  0
    6.4304  -19.6510   24.9162 N   0  0  0  0  0  0  0  0  0  0  0  0
    7.6836  -19.5903   25.3942 C   0  0  0  0  0  0  0  0  0  0  0  0
    8.4669  -19.0876   24.4280 N   0  0  0  0  0  0  0  0  0  0  0  0
    8.5270  -16.0576   23.1833 C   0  0  0  0  0  0  0  0  0  0  0  0
    9.7551  -15.8024   23.3366 O   0  0  0  0  0  0  0  0  0  0  0  0
    6.7598  -10.2818   28.1756 C   0  0  0  0  0  0  0  0  0  0  0  0
    6.1660  -11.5565   27.0385 S   0  0  0  0  0  0  0  0  0  0  0  0
    7.5137  -12.6881   26.5642 C   0  0  0  0  0  0  0  0  0  0  0  0
    7.0502  -13.7150   25.5832 C   0  0  0  0  0  0  0  0  0  0  0  0
    8.1677  -14.6631   25.2418 C   0  0  2  0  0  0  0  0  0  0  0  0
    7.6808  -15.6027   24.2502 N   0  0  0  0  0  0  0  0  0  0  0  0
    8.6750  -15.3848   26.4276 C   0  0  0  0  0  0  0  0  0  0  0  0
    9.4449  -14.8031   27.2295 O   0  0  0  0  0  0  0  0  0  0  0  0
    8.3289  -16.6987   26.6934 O   0  0  0  0  0  0  0  0  0  0  0  0
  1  2  1  0
  2  3  1  0
  4  3  1  0
  5  6  1  1
  5  1  1  0
  5  4  1  0
  6  8  1  0
  7  6  2  0
  8  9  1  0
  9 10  1  6
 10 11  1  0
 11 12  2  0
 11 15  1  0
 12 13  1  0
 13 14  1  0
 15 14  2  0
 16  9  1  0
 17 16  2  0
 18 19  1  0
 20 19  1  0
 21 20  1  0
 22 21  1  1
 22 23  1  0
 22 24  1  0
 23 16  1  0
 24 26  1  0
 25 24  2  0
M  END
$$$$
