PHM.pdb
     RDKit          3D

 26 27  0  0  1  0  0  0  0  0999 V2000
    9.2473  -14.5666   18.6194 N   0  0  0  0  0  0  0  0  0  0  0  0
    9.0537  -13.6308   17.5275 C   0  0  0  0  0  0  0  0  0  0  0  0
    7.6780  -13.0308   17.6984 C   0  0  0  0  0  0  0  0  0  0  0  0
    7.2039  -13.6052   19.0261 C   0  0  0  0  0  0  0  0  0  0  0  0
    8.5150  -13.9194   19.6958 C   0  0  1  0  0  0  0  0  0  0  0  0
    8.3917  -14.7655   20.8855 C   0  0  0  0  0  0  0  0  0  0  0  0
    7.6027  -14.4344   21.7842 O   0  0  0  0  0  0  0  0  0  0  0  0
    9.1542  -15.9756   21.0579 N   0  0  0  0  0  0  0  0  0  0  0  0
    9.0137  -16.8323   22.1918 C   0  0  1  0  0  0  0  0  0  0  0  0
    9.6750  -18.1772   22.0189 C   0  0  0  0  0  0  0  0  0  0  0  0
    8.9224  -18.9933   21.0355 C   0  0  0  0  0  0  0  0  0  0  0  0
    7.5717  -18.9477   20.7708 C   0  0  0  0  0  0  0  0  0  0  0  0
    7.2801  -19.8550   19.8029 N   0  0  0  0  0  0  0  0  0  0  0  0
    8.4287  -20.4619   19.4638 C   0  0  0  0  0  0  0  0  0  0  0  0
    9.4082  -19.9337   20.2131 N   0  0  0  0  0  0  0  0  0  0  0  0
    9.3599  -16.1791   23.4721 C   0  0  0  0  0  0  0  0  0  0  0  0
   10.4878  -15.6566   23.6989 O   0  0  0  0  0  0  0  0  0  0  0  0
    6.4156  -10.3926   26.1193 C   0  0  0  0  0  0  0  0  0  0  0  0
    6.1926  -12.1607   26.4263 S   0  0  0  0  0  0  0  0  0  0  0  0
    7.6901  -13.0963   25.9745 C   0  0  0  0  0  0  0  0  0  0  0  0
    7.4956  -14.5664   26.1548 C   0  0  0  0  0  0  0  0  0  0  0  0
    8.7341  -15.3179   25.7475 C   0  0  2  0  0  0  0  0  0  0  0  0
    8.4273  -16.0920   24.5602 N   0  0  0  0  0  0  0  0  0  0  0  0
    9.2343  -16.2015   26.8216 C   0  0  0  0  0  0  0  0  0  0  0  0
    9.0583  -17.4411   26.7419 O   0  0  0  0  0  0  0  0  0  0  0  0
    9.9004  -15.7078   27.9304 O   0  0  0  0  0  0  0  0  0  0  0  0
  1  2  1  0
  2  3  1  0
  4  3  1  0
  5  6  1  1
  5  1  1  0
  5  4  1  0
  6  8  1  0
  7  6  2  0
  8  9  1  0
  9 10  1  6
 10 11  1  0
 11 12  2  0
 11 15  1  0
 12 13  1  0
 13 14  1  0
 15 14  2  0
 16  9  1  0
 17 16  2  0
 18 19  1  0
 20 19  1  0
 21 20  1  0
 22 21  1  1
 22 23  1  0
 22 24  1  0
 23 16  1  0
 24 26  1  0
 25 24  2  0
M  END
$$$$
