PHM.pdb
     RDKit          3D

 26 27  0  0  1  0  0  0  0  0999 V2000
    9.1815  -14.6424   18.6574 N   0  0  0  0  0  0  0  0  0  0  0  0
    8.9987  -13.7239   17.5491 C   0  0  0  0  0  0  0  0  0  0  0  0
    7.6981  -12.9943   17.7898 C   0  0  0  0  0  0  0  0  0  0  0  0
    7.2666  -13.4846   19.1650 C   0  0  0  0  0  0  0  0  0  0  0  0
    8.5869  -13.9000   19.7570 C   0  0  1  0  0  0  0  0  0  0  0  0
    8.4699  -14.6970   20.9806 C   0  0  0  0  0  0  0  0  0  0  0  0
    7.8208  -14.2455   21.9369 O   0  0  0  0  0  0  0  0  0  0  0  0
    9.0816  -15.9937   21.1221 N   0  0  0  0  0  0  0  0  0  0  0  0
    8.9955  -16.7717   22.3165 C   0  0  1  0  0  0  0  0  0  0  0  0
    9.6041  -18.1461   22.1879 C   0  0  0  0  0  0  0  0  0  0  0  0
    8.8714  -18.9352   21.1681 C   0  0  0  0  0  0  0  0  0  0  0  0
    7.5376  -19.2783   21.1762 C   0  0  0  0  0  0  0  0  0  0  0  0
    7.2612  -20.0041   20.0618 N   0  0  0  0  0  0  0  0  0  0  0  0
    8.4024  -20.1161   19.3635 C   0  0  0  0  0  0  0  0  0  0  0  0
    9.3625  -19.4684   20.0406 N   0  0  0  0  0  0  0  0  0  0  0  0
    9.4485  -16.0506   23.5250 C   0  0  0  0  0  0  0  0  0  0  0  0
   10.6052  -15.5553   23.6418 O   0  0  0  0  0  0  0  0  0  0  0  0
    6.0601  -11.4156   26.0111 C   0  0  0  0  0  0  0  0  0  0  0  0
    6.7960  -12.0066   27.5537 S   0  0  0  0  0  0  0  0  0  0  0  0
    8.1380  -13.1949   27.2242 C   0  0  0  0  0  0  0  0  0  0  0  0
    7.8322  -14.0566   26.0429 C   0  0  0  0  0  0  0  0  0  0  0  0
    8.9830  -14.9807   25.7498 C   0  0  2  0  0  0  0  0  0  0  0  0
    8.5954  -15.8605   24.6641 N   0  0  0  0  0  0  0  0  0  0  0  0
    9.3850  -15.7707   26.9324 C   0  0  0  0  0  0  0  0  0  0  0  0
    9.8817  -15.1927   27.9290 O   0  0  0  0  0  0  0  0  0  0  0  0
    9.2329  -17.1458   26.9854 O   0  0  0  0  0  0  0  0  0  0  0  0
  1  2  1  0
  2  3  1  0
  4  3  1  0
  5  6  1  1
  5  1  1  0
  5  4  1  0
  6  8  1  0
  7  6  2  0
  8  9  1  0
  9 10  1  6
 10 11  1  0
 11 12  2  0
 11 15  1  0
 12 13  1  0
 13 14  1  0
 15 14  2  0
 16  9  1  0
 17 16  2  0
 18 19  1  0
 20 19  1  0
 21 20  1  0
 22 21  1  1
 22 23  1  0
 22 24  1  0
 23 16  1  0
 24 26  1  0
 25 24  2  0
M  END
$$$$
