PHM.pdb
     RDKit          3D

 26 27  0  0  1  0  0  0  0  0999 V2000
    8.9777  -15.0410   18.2313 N   0  0  0  0  0  0  0  0  0  0  0  0
    8.9892  -14.1970   17.0511 C   0  0  0  0  0  0  0  0  0  0  0  0
    7.8617  -13.2039   17.2070 C   0  0  0  0  0  0  0  0  0  0  0  0
    7.3338  -13.4849   18.6071 C   0  0  0  0  0  0  0  0  0  0  0  0
    8.5403  -14.1080   19.2569 C   0  0  1  0  0  0  0  0  0  0  0  0
    8.2592  -14.7639   20.5364 C   0  0  0  0  0  0  0  0  0  0  0  0
    7.7896  -14.0939   21.4694 O   0  0  0  0  0  0  0  0  0  0  0  0
    8.5069  -16.1655   20.7594 N   0  0  0  0  0  0  0  0  0  0  0  0
    8.1656  -16.8353   21.9736 C   0  0  1  0  0  0  0  0  0  0  0  0
    8.4995  -18.3065   21.9668 C   0  0  0  0  0  0  0  0  0  0  0  0
    7.9722  -18.9553   23.1918 C   0  0  0  0  0  0  0  0  0  0  0  0
    8.6979  -19.4896   24.2331 C   0  0  0  0  0  0  0  0  0  0  0  0
    7.8393  -19.9876   25.1605 N   0  0  0  0  0  0  0  0  0  0  0  0
    6.5933  -19.7703   24.7101 C   0  0  0  0  0  0  0  0  0  0  0  0
    6.6884  -19.1485   23.5251 N   0  0  0  0  0  0  0  0  0  0  0  0
    8.6457  -16.1400   23.1868 C   0  0  0  0  0  0  0  0  0  0  0  0
    9.8578  -15.8374   23.3763 O   0  0  0  0  0  0  0  0  0  0  0  0
    6.7658  -10.0380   26.3548 C   0  0  0  0  0  0  0  0  0  0  0  0
    6.2155  -11.6572   26.9427 S   0  0  0  0  0  0  0  0  0  0  0  0
    7.4925  -12.9254   26.6552 C   0  0  0  0  0  0  0  0  0  0  0  0
    7.1047  -13.8568   25.5536 C   0  0  0  0  0  0  0  0  0  0  0  0
    8.1953  -14.8627   25.3026 C   0  0  2  0  0  0  0  0  0  0  0  0
    7.7573  -15.7555   24.2470 N   0  0  0  0  0  0  0  0  0  0  0  0
    8.5403  -15.6326   26.5161 C   0  0  0  0  0  0  0  0  0  0  0  0
    7.9645  -16.7230   26.7476 O   0  0  0  0  0  0  0  0  0  0  0  0
    9.4891  -15.1915   27.4228 O   0  0  0  0  0  0  0  0  0  0  0  0
  1  2  1  0
  2  3  1  0
  4  3  1  0
  5  6  1  1
  5  1  1  0
  5  4  1  0
  6  8  1  0
  7  6  2  0
  8  9  1  0
  9 10  1  6
 10 11  1  0
 11 12  2  0
 11 15  1  0
 12 13  1  0
 13 14  1  0
 15 14  2  0
 16  9  1  0
 17 16  2  0
 18 19  1  0
 20 19  1  0
 21 20  1  0
 22 21  1  1
 22 23  1  0
 22 24  1  0
 23 16  1  0
 24 26  1  0
 25 24  2  0
M  END
$$$$
