PHM.pdb
     RDKit          3D

 26 27  0  0  1  0  0  0  0  0999 V2000
    6.3875  -19.8703   23.0053 N   0  0  0  0  0  0  0  0  0  0  0  0
    6.0201  -21.2726   23.0682 C   0  0  0  0  0  0  0  0  0  0  0  0
    6.5973  -21.9361   21.8400 C   0  0  0  0  0  0  0  0  0  0  0  0
    7.4104  -20.8266   21.1876 C   0  0  0  0  0  0  0  0  0  0  0  0
    7.6924  -19.9355   22.3677 C   0  0  1  0  0  0  0  0  0  0  0  0
    8.2140  -18.6144   22.0089 C   0  0  0  0  0  0  0  0  0  0  0  0
    9.4412  -18.4510   21.9245 O   0  0  0  0  0  0  0  0  0  0  0  0
    7.3555  -17.4872   21.7478 N   0  0  0  0  0  0  0  0  0  0  0  0
    7.8470  -16.2073   21.3479 C   0  0  1  0  0  0  0  0  0  0  0  0
    6.9719  -15.5139   20.3334 C   0  0  0  0  0  0  0  0  0  0  0  0
    7.6648  -14.3189   19.7936 C   0  0  0  0  0  0  0  0  0  0  0  0
    7.4577  -13.0032   20.1439 C   0  0  0  0  0  0  0  0  0  0  0  0
    8.2937  -12.2158   19.4184 N   0  0  0  0  0  0  0  0  0  0  0  0
    9.0153  -13.0228   18.6244 C   0  0  0  0  0  0  0  0  0  0  0  0
    8.6266  -14.2849   18.8606 N   0  0  0  0  0  0  0  0  0  0  0  0
    8.2169  -15.3356   22.4832 C   0  0  0  0  0  0  0  0  0  0  0  0
    7.9912  -14.0924   22.5025 O   0  0  0  0  0  0  0  0  0  0  0  0
    6.5265  -11.0334   26.6762 C   0  0  0  0  0  0  0  0  0  0  0  0
    6.3359  -12.8119   26.9423 S   0  0  0  0  0  0  0  0  0  0  0  0
    7.8735  -13.7019   26.5355 C   0  0  0  0  0  0  0  0  0  0  0  0
    7.7313  -14.5008   25.2812 C   0  0  0  0  0  0  0  0  0  0  0  0
    9.0714  -15.0091   24.8229 C   0  0  2  0  0  0  0  0  0  0  0  0
    8.8662  -15.8470   23.6571 N   0  0  0  0  0  0  0  0  0  0  0  0
    9.7782  -15.7633   25.8794 C   0  0  0  0  0  0  0  0  0  0  0  0
    9.8272  -17.0158   25.8249 O   0  0  0  0  0  0  0  0  0  0  0  0
   10.3985  -15.1326   26.9443 O   0  0  0  0  0  0  0  0  0  0  0  0
  1  2  1  0
  2  3  1  0
  4  3  1  0
  5  6  1  6
  5  1  1  0
  5  4  1  0
  6  8  1  0
  7  6  2  0
  8  9  1  0
  9 10  1  1
 10 11  1  0
 11 12  2  0
 11 15  1  0
 12 13  1  0
 13 14  1  0
 15 14  2  0
 16  9  1  0
 17 16  2  0
 18 19  1  0
 20 19  1  0
 21 20  1  0
 22 21  1  1
 22 23  1  0
 22 24  1  0
 23 16  1  0
 24 26  1  0
 25 24  2  0
M  END
$$$$
