PHM.pdb
     RDKit          3D

 26 27  0  0  1  0  0  0  0  0999 V2000
    9.1154  -14.5743   18.3036 N   0  0  0  0  0  0  0  0  0  0  0  0
    8.8539  -13.6553   17.2116 C   0  0  0  0  0  0  0  0  0  0  0  0
    7.5136  -13.0145   17.4846 C   0  0  0  0  0  0  0  0  0  0  0  0
    7.1394  -13.5493   18.8600 C   0  0  0  0  0  0  0  0  0  0  0  0
    8.4941  -13.8861   19.4234 C   0  0  1  0  0  0  0  0  0  0  0  0
    8.4506  -14.7048   20.6376 C   0  0  0  0  0  0  0  0  0  0  0  0
    7.8049  -14.3004   21.6171 O   0  0  0  0  0  0  0  0  0  0  0  0
    9.1315  -15.9700   20.7437 N   0  0  0  0  0  0  0  0  0  0  0  0
    9.1037  -16.7753   21.9228 C   0  0  1  0  0  0  0  0  0  0  0  0
    9.7763  -18.1153   21.7554 C   0  0  0  0  0  0  0  0  0  0  0  0
    9.0606  -18.9220   20.7373 C   0  0  0  0  0  0  0  0  0  0  0  0
    7.7345  -18.8280   20.3775 C   0  0  0  0  0  0  0  0  0  0  0  0
    7.4734  -19.7440   19.4090 N   0  0  0  0  0  0  0  0  0  0  0  0
    8.6166  -20.4038   19.1632 C   0  0  0  0  0  0  0  0  0  0  0  0
    9.5627  -19.8990   19.9692 N   0  0  0  0  0  0  0  0  0  0  0  0
    9.5415  -16.0575   23.1388 C   0  0  0  0  0  0  0  0  0  0  0  0
   10.1993  -14.9791   23.1060 O   0  0  0  0  0  0  0  0  0  0  0  0
    6.2226  -11.5143   27.6357 C   0  0  0  0  0  0  0  0  0  0  0  0
    6.3609  -12.7027   26.2796 S   0  0  0  0  0  0  0  0  0  0  0  0
    7.7894  -13.8080   26.5227 C   0  0  0  0  0  0  0  0  0  0  0  0
    8.0239  -14.6747   25.3287 C   0  0  0  0  0  0  0  0  0  0  0  0
    9.1553  -15.6332   25.5845 C   0  0  2  0  0  0  0  0  0  0  0  0
    9.2462  -16.5416   24.4577 N   0  0  0  0  0  0  0  0  0  0  0  0
    8.9777  -16.3903   26.8414 C   0  0  0  0  0  0  0  0  0  0  0  0
    8.4645  -17.5348   26.8129 O   0  0  0  0  0  0  0  0  0  0  0  0
    9.3612  -15.8785   28.0694 O   0  0  0  0  0  0  0  0  0  0  0  0
  1  2  1  0
  2  3  1  0
  4  3  1  0
  5  6  1  1
  5  1  1  0
  5  4  1  0
  6  8  1  0
  7  6  2  0
  8  9  1  0
  9 10  1  6
 10 11  1  0
 11 12  2  0
 11 15  1  0
 12 13  1  0
 13 14  1  0
 15 14  2  0
 16  9  1  0
 17 16  2  0
 18 19  1  0
 20 19  1  0
 21 20  1  0
 22 21  1  6
 22 23  1  0
 22 24  1  0
 23 16  1  0
 24 26  1  0
 25 24  2  0
M  END
$$$$
