PHM.pdb
     RDKit          3D

 26 27  0  0  1  0  0  0  0  0999 V2000
    9.2507  -14.5480   18.4317 N   0  0  0  0  0  0  0  0  0  0  0  0
    9.0625  -13.6125   17.3386 C   0  0  0  0  0  0  0  0  0  0  0  0
    7.7367  -12.9259   17.5679 C   0  0  0  0  0  0  0  0  0  0  0  0
    7.2933  -13.4568   18.9241 C   0  0  0  0  0  0  0  0  0  0  0  0
    8.6135  -13.8459   19.5338 C   0  0  1  0  0  0  0  0  0  0  0  0
    8.4963  -14.6711   20.7386 C   0  0  0  0  0  0  0  0  0  0  0  0
    7.7578  -14.2929   21.6614 O   0  0  0  0  0  0  0  0  0  0  0  0
    9.2080  -15.9134   20.8991 N   0  0  0  0  0  0  0  0  0  0  0  0
    9.0155  -16.7854   22.0136 C   0  0  1  0  0  0  0  0  0  0  0  0
    9.6201  -18.1541   21.8217 C   0  0  0  0  0  0  0  0  0  0  0  0
    8.8158  -18.9360   20.8516 C   0  0  0  0  0  0  0  0  0  0  0  0
    7.5518  -18.6458   20.3880 C   0  0  0  0  0  0  0  0  0  0  0  0
    7.1697  -19.6114   19.5123 N   0  0  0  0  0  0  0  0  0  0  0  0
    8.1769  -20.4951   19.4262 C   0  0  0  0  0  0  0  0  0  0  0  0
    9.1602  -20.0762   20.2369 N   0  0  0  0  0  0  0  0  0  0  0  0
    9.3726  -16.1732   23.3110 C   0  0  0  0  0  0  0  0  0  0  0  0
   10.4810  -15.6055   23.5259 O   0  0  0  0  0  0  0  0  0  0  0  0
    6.5009  -10.8625   27.0850 C   0  0  0  0  0  0  0  0  0  0  0  0
    6.2579  -12.6460   26.9109 S   0  0  0  0  0  0  0  0  0  0  0  0
    7.8099  -13.4733   26.4329 C   0  0  0  0  0  0  0  0  0  0  0  0
    7.6289  -14.9505   26.3041 C   0  0  0  0  0  0  0  0  0  0  0  0
    8.8520  -15.5826   25.6966 C   0  0  2  0  0  0  0  0  0  0  0  0
    8.4743  -16.1812   24.4309 N   0  0  0  0  0  0  0  0  0  0  0  0
    9.4601  -16.5967   26.5832 C   0  0  0  0  0  0  0  0  0  0  0  0
    9.2713  -17.8163   26.3572 O   0  0  0  0  0  0  0  0  0  0  0  0
   10.2425  -16.2491   27.6712 O   0  0  0  0  0  0  0  0  0  0  0  0
  1  2  1  0
  2  3  1  0
  4  3  1  0
  5  6  1  1
  5  1  1  0
  5  4  1  0
  6  8  1  0
  7  6  2  0
  8  9  1  0
  9 10  1  6
 10 11  1  0
 11 12  2  0
 11 15  1  0
 12 13  1  0
 13 14  1  0
 15 14  2  0
 16  9  1  0
 17 16  2  0
 18 19  1  0
 20 19  1  0
 21 20  1  0
 22 21  1  1
 22 23  1  0
 22 24  1  0
 23 16  1  0
 24 26  1  0
 25 24  2  0
M  END
$$$$
