DFL.pdb
     RDKit          3D

 28 28  0  0  1  0  0  0  0  0999 V2000
   31.9604  -23.1074  -20.0971 N   0  0  0  0  0  0  0  0  0  0  0  0
   32.9614  -23.9114  -20.7814 C   0  0  1  0  0  0  0  0  0  0  0  0
   33.8680  -23.0507  -21.5906 C   0  0  0  0  0  0  0  0  0  0  0  0
   33.0696  -22.0220  -22.3275 C   0  0  0  0  0  0  0  0  0  0  0  0
   31.8543  -21.8745  -22.1406 O   0  0  0  0  0  0  0  0  0  0  0  0
   33.7604  -24.6911  -19.7914 C   0  0  0  0  0  0  0  0  0  0  0  0
   34.7327  -25.3810  -20.1674 O   0  0  0  0  0  0  0  0  0  0  0  0
   33.7482  -21.2236  -23.2432 O   0  0  0  0  0  0  0  0  0  0  0  0
   33.4656  -24.7003  -18.4027 N   0  0  0  0  0  0  0  0  0  0  0  0
   34.2041  -25.5262  -17.5135 C   0  0  1  0  0  0  0  0  0  0  0  0
   34.5791  -24.8643  -16.2413 C   0  0  0  0  0  0  0  0  0  0  0  0
   35.3792  -25.6323  -15.3033 C   0  0  0  0  0  0  0  0  0  0  0  0
   34.7836  -26.0105  -14.1104 C   0  0  0  0  0  0  0  0  0  0  0  0
   35.4125  -26.7369  -13.1519 C   0  0  0  0  0  0  0  0  0  0  0  0
   36.7312  -27.1534  -13.3346 C   0  0  0  0  0  0  0  0  0  0  0  0
   37.3465  -26.7889  -14.5135 C   0  0  0  0  0  0  0  0  0  0  0  0
   36.6860  -26.0493  -15.4735 C   0  0  0  0  0  0  0  0  0  0  0  0
   33.8248  -26.9430  -17.4519 C   0  0  0  0  0  0  0  0  0  0  0  0
   32.6208  -27.2580  -17.5060 O   0  0  0  0  0  0  0  0  0  0  0  0
   32.5303  -31.5408  -17.9202 C   0  0  0  0  0  0  0  0  0  0  0  0
   32.5958  -30.3670  -18.8383 C   0  0  2  0  0  0  0  0  0  0  0  0
   32.1067  -30.6649  -20.2084 C   0  0  0  0  0  0  0  0  0  0  0  0
   33.8391  -29.5653  -18.7859 C   0  0  0  0  0  0  0  0  0  0  0  0
   34.4748  -29.3841  -17.4365 C   0  0  2  0  0  0  0  0  0  0  0  0
   34.8071  -27.9345  -17.3401 N   0  0  0  0  0  0  0  0  0  0  0  0
   35.6636  -30.1830  -17.1804 C   0  0  0  0  0  0  0  0  0  0  0  0
   36.7472  -29.9812  -17.8059 O   0  0  0  0  0  0  0  0  0  0  0  0
   35.7418  -31.2276  -16.2446 O   0  0  0  0  0  0  0  0  0  0  0  0
  2  6  1  0
  2  1  1  1
  3  2  1  0
  4  3  1  0
  4  8  1  0
  5  4  2  0
  6  7  2  0
  9  6  1  0
 10  9  1  0
 11 12  1  0
 10 11  1  1
 12 17  2  0
 13 14  2  0
 13 12  1  0
 14 15  1  0
 15 16  2  0
 17 16  1  0
 18 10  1  0
 19 18  2  0
 21 20  1  6
 21 23  1  0
 22 21  1  0
 24 23  1  6
 24 25  1  0
 24 26  1  0
 25 18  1  0
 26 27  2  0
 26 28  1  0
M  END
$$$$
