DFL.pdb
     RDKit          3D

 28 28  0  0  1  0  0  0  0  0999 V2000
   27.9234  -23.1139  -17.9565 N   0  0  0  0  0  0  0  0  0  0  0  0
   27.8802  -21.7757  -17.3871 C   0  0  1  0  0  0  0  0  0  0  0  0
   27.2902  -20.8087  -18.3537 C   0  0  0  0  0  0  0  0  0  0  0  0
   28.2292  -20.5969  -19.4991 C   0  0  0  0  0  0  0  0  0  0  0  0
   29.4396  -20.3971  -19.3292 O   0  0  0  0  0  0  0  0  0  0  0  0
   27.0807  -21.7777  -16.1272 C   0  0  0  0  0  0  0  0  0  0  0  0
   26.0846  -22.5242  -16.0125 O   0  0  0  0  0  0  0  0  0  0  0  0
   27.6897  -20.6333  -20.7813 O   0  0  0  0  0  0  0  0  0  0  0  0
   27.3925  -20.9482  -15.0181 N   0  0  0  0  0  0  0  0  0  0  0  0
   26.5734  -20.9570  -13.8573 C   0  0  1  0  0  0  0  0  0  0  0  0
   27.3106  -20.7212  -12.5932 C   0  0  0  0  0  0  0  0  0  0  0  0
   26.5239  -20.5950  -11.3788 C   0  0  0  0  0  0  0  0  0  0  0  0
   26.4168  -21.7110  -10.5640 C   0  0  0  0  0  0  0  0  0  0  0  0
   25.7223  -21.7283   -9.3981 C   0  0  0  0  0  0  0  0  0  0  0  0
   25.0667  -20.5811   -8.9510 C   0  0  0  0  0  0  0  0  0  0  0  0
   25.1576  -19.4572   -9.7446 C   0  0  0  0  0  0  0  0  0  0  0  0
   25.8698  -19.4643  -10.9268 C   0  0  0  0  0  0  0  0  0  0  0  0
   25.2374  -20.3616  -13.9816 C   0  0  0  0  0  0  0  0  0  0  0  0
   25.1041  -19.2730  -14.5721 O   0  0  0  0  0  0  0  0  0  0  0  0
   20.6021  -21.0094  -16.8397 C   0  0  0  0  0  0  0  0  0  0  0  0
   21.0845  -20.3590  -15.5870 C   0  0  2  0  0  0  0  0  0  0  0  0
   20.8551  -18.8920  -15.5610 C   0  0  0  0  0  0  0  0  0  0  0  0
   22.4158  -20.7857  -15.1002 C   0  0  0  0  0  0  0  0  0  0  0  0
   22.7358  -20.5026  -13.6597 C   0  0  2  0  0  0  0  0  0  0  0  0
   24.1195  -21.0137  -13.4474 N   0  0  0  0  0  0  0  0  0  0  0  0
   21.8346  -21.0902  -12.6801 C   0  0  0  0  0  0  0  0  0  0  0  0
   21.8590  -22.3291  -12.4140 O   0  0  0  0  0  0  0  0  0  0  0  0
   20.8736  -20.3770  -11.9449 O   0  0  0  0  0  0  0  0  0  0  0  0
  2  6  1  0
  2  1  1  6
  3  2  1  0
  4  3  1  0
  4  8  1  0
  5  4  2  0
  6  7  2  0
  9  6  1  0
 10  9  1  0
 11 12  1  0
 10 11  1  1
 12 17  2  0
 13 14  2  0
 13 12  1  0
 14 15  1  0
 15 16  2  0
 17 16  1  0
 18 10  1  0
 19 18  2  0
 21 20  1  6
 21 23  1  0
 22 21  1  0
 24 23  1  6
 24 25  1  0
 24 26  1  0
 25 18  1  0
 26 27  2  0
 26 28  1  0
M  END
$$$$
