DFL.pdb
     RDKit          3D

 28 28  0  0  1  0  0  0  0  0999 V2000
   15.8343  -10.9580  -17.0945 N   0  0  0  0  0  0  0  0  0  0  0  0
   16.2144  -10.4318  -15.7924 C   0  0  1  0  0  0  0  0  0  0  0  0
   16.9608  -11.4532  -15.0068 C   0  0  0  0  0  0  0  0  0  0  0  0
   16.0133  -12.4877  -14.4866 C   0  0  0  0  0  0  0  0  0  0  0  0
   14.7896  -12.3007  -14.4518 O   0  0  0  0  0  0  0  0  0  0  0  0
   17.0557   -9.2105  -15.9561 C   0  0  0  0  0  0  0  0  0  0  0  0
   17.8926   -9.1395  -16.8820 O   0  0  0  0  0  0  0  0  0  0  0  0
   16.5606  -13.6856  -14.0374 O   0  0  0  0  0  0  0  0  0  0  0  0
   16.9621   -8.0910  -15.0881 N   0  0  0  0  0  0  0  0  0  0  0  0
   17.7975   -6.9579  -15.2789 C   0  0  1  0  0  0  0  0  0  0  0  0
   17.0632   -5.7088  -15.5912 C   0  0  0  0  0  0  0  0  0  0  0  0
   16.2891   -5.6825  -16.8200 C   0  0  0  0  0  0  0  0  0  0  0  0
   14.9217   -5.8858  -16.7220 C   0  0  0  0  0  0  0  0  0  0  0  0
   14.0809   -5.8768  -17.7874 C   0  0  0  0  0  0  0  0  0  0  0  0
   14.5737   -5.6495  -19.0724 C   0  0  0  0  0  0  0  0  0  0  0  0
   15.9317   -5.4452  -19.1964 C   0  0  0  0  0  0  0  0  0  0  0  0
   16.7667   -5.4593  -18.0977 C   0  0  0  0  0  0  0  0  0  0  0  0
   18.9785   -6.8492  -14.4138 C   0  0  0  0  0  0  0  0  0  0  0  0
   18.8275   -6.7153  -13.1846 O   0  0  0  0  0  0  0  0  0  0  0  0
   22.0577   -9.8491  -13.5866 C   0  0  0  0  0  0  0  0  0  0  0  0
   22.3446   -9.2062  -14.9016 C   0  0  2  0  0  0  0  0  0  0  0  0
   23.3666   -9.9307  -15.6991 C   0  0  0  0  0  0  0  0  0  0  0  0
   22.4991   -7.7340  -14.8892 C   0  0  0  0  0  0  0  0  0  0  0  0
   21.4838   -6.9506  -14.1061 C   0  0  2  0  0  0  0  0  0  0  0  0
   20.2654   -6.9023  -14.9629 N   0  0  0  0  0  0  0  0  0  0  0  0
   21.8758   -5.6021  -13.7255 C   0  0  0  0  0  0  0  0  0  0  0  0
   21.5848   -4.5983  -14.4424 O   0  0  0  0  0  0  0  0  0  0  0  0
   22.5923   -5.2729  -12.5631 O   0  0  0  0  0  0  0  0  0  0  0  0
  2  6  1  0
  2  1  1  6
  3  2  1  0
  4  3  1  0
  4  8  1  0
  5  4  2  0
  6  7  2  0
  9  6  1  0
 10  9  1  0
 11 12  1  0
 10 11  1  1
 12 17  2  0
 13 14  2  0
 13 12  1  0
 14 15  1  0
 15 16  2  0
 17 16  1  0
 18 10  1  0
 19 18  2  0
 21 20  1  1
 21 23  1  0
 22 21  1  0
 24 23  1  6
 24 25  1  0
 24 26  1  0
 25 18  1  0
 26 27  2  0
 26 28  1  0
M  END
$$$$
