DFL.pdb
     RDKit          3D

 28 28  0  0  1  0  0  0  0  0999 V2000
   27.5992  -22.9086  -17.9264 N   0  0  0  0  0  0  0  0  0  0  0  0
   27.5265  -21.6052  -17.2840 C   0  0  1  0  0  0  0  0  0  0  0  0
   26.8209  -20.6251  -18.1552 C   0  0  0  0  0  0  0  0  0  0  0  0
   27.6986  -20.2411  -19.3044 C   0  0  0  0  0  0  0  0  0  0  0  0
   27.3227  -20.3380  -20.4804 O   0  0  0  0  0  0  0  0  0  0  0  0
   26.8185  -21.7148  -15.9752 C   0  0  0  0  0  0  0  0  0  0  0  0
   25.7921  -22.4205  -15.8695 O   0  0  0  0  0  0  0  0  0  0  0  0
   28.9705  -19.7633  -19.0037 O   0  0  0  0  0  0  0  0  0  0  0  0
   27.2538  -21.0358  -14.8069 N   0  0  0  0  0  0  0  0  0  0  0  0
   26.4742  -21.0696  -13.6197 C   0  0  1  0  0  0  0  0  0  0  0  0
   27.2504  -20.8406  -12.3779 C   0  0  0  0  0  0  0  0  0  0  0  0
   26.5062  -20.7705  -11.1325 C   0  0  0  0  0  0  0  0  0  0  0  0
   26.2341  -19.5132  -10.6168 C   0  0  0  0  0  0  0  0  0  0  0  0
   25.5408  -19.3040   -9.4689 C   0  0  0  0  0  0  0  0  0  0  0  0
   25.0504  -20.3841   -8.7348 C   0  0  0  0  0  0  0  0  0  0  0  0
   25.3088  -21.6460   -9.2268 C   0  0  0  0  0  0  0  0  0  0  0  0
   26.0166  -21.8333  -10.3967 C   0  0  0  0  0  0  0  0  0  0  0  0
   25.1277  -20.4895  -13.6916 C   0  0  0  0  0  0  0  0  0  0  0  0
   24.9959  -19.2743  -13.9315 O   0  0  0  0  0  0  0  0  0  0  0  0
   21.8964  -19.4233  -16.2070 C   0  0  0  0  0  0  0  0  0  0  0  0
   22.1798  -20.8683  -15.9690 C   0  0  2  0  0  0  0  0  0  0  0  0
   21.7145  -21.7474  -17.0716 C   0  0  0  0  0  0  0  0  0  0  0  0
   21.8896  -21.3755  -14.6089 C   0  0  0  0  0  0  0  0  0  0  0  0
   22.6222  -20.7246  -13.4699 C   0  0  2  0  0  0  0  0  0  0  0  0
   23.9988  -21.2950  -13.4993 N   0  0  0  0  0  0  0  0  0  0  0  0
   22.0381  -20.9074  -12.1499 C   0  0  0  0  0  0  0  0  0  0  0  0
   22.2150  -21.9729  -11.4869 O   0  0  0  0  0  0  0  0  0  0  0  0
   21.2439  -19.9582  -11.4857 O   0  0  0  0  0  0  0  0  0  0  0  0
  2  6  1  0
  2  1  1  6
  3  2  1  0
  4  3  1  0
  4  8  1  0
  5  4  2  0
  6  7  2  0
  9  6  1  0
 10  9  1  0
 11 12  1  0
 10 11  1  1
 12 17  2  0
 13 14  2  0
 13 12  1  0
 14 15  1  0
 15 16  2  0
 17 16  1  0
 18 10  1  0
 19 18  2  0
 21 20  1  6
 21 23  1  0
 22 21  1  0
 24 23  1  6
 24 25  1  0
 24 26  1  0
 25 18  1  0
 26 27  2  0
 26 28  1  0
M  END
$$$$
