DFL.pdb
     RDKit          3D

 28 28  0  0  1  0  0  0  0  0999 V2000
   27.1808  -22.0247  -17.5201 N   0  0  0  0  0  0  0  0  0  0  0  0
   27.3309  -20.8788  -16.6363 C   0  0  1  0  0  0  0  0  0  0  0  0
   26.7382  -19.6576  -17.2486 C   0  0  0  0  0  0  0  0  0  0  0  0
   27.6219  -19.1595  -18.3484 C   0  0  0  0  0  0  0  0  0  0  0  0
   28.7641  -19.6037  -18.5268 O   0  0  0  0  0  0  0  0  0  0  0  0
   26.6755  -21.1513  -15.3239 C   0  0  0  0  0  0  0  0  0  0  0  0
   25.6222  -21.8224  -15.2712 O   0  0  0  0  0  0  0  0  0  0  0  0
   27.1099  -18.1662  -19.1777 O   0  0  0  0  0  0  0  0  0  0  0  0
   27.1926  -20.6705  -14.0923 N   0  0  0  0  0  0  0  0  0  0  0  0
   26.4232  -20.7620  -12.9015 C   0  0  1  0  0  0  0  0  0  0  0  0
   27.1994  -20.5357  -11.6591 C   0  0  0  0  0  0  0  0  0  0  0  0
   26.4719  -20.5842  -10.4029 C   0  0  0  0  0  0  0  0  0  0  0  0
   26.1419  -19.3782   -9.8049 C   0  0  0  0  0  0  0  0  0  0  0  0
   25.4564  -19.2791   -8.6378 C   0  0  0  0  0  0  0  0  0  0  0  0
   25.0349  -20.4279   -7.9681 C   0  0  0  0  0  0  0  0  0  0  0  0
   25.3518  -21.6407   -8.5425 C   0  0  0  0  0  0  0  0  0  0  0  0
   26.0504  -21.7158   -9.7304 C   0  0  0  0  0  0  0  0  0  0  0  0
   25.0561  -20.2296  -12.9505 C   0  0  0  0  0  0  0  0  0  0  0  0
   24.8783  -19.0164  -13.1696 O   0  0  0  0  0  0  0  0  0  0  0  0
   21.7103  -19.6724  -15.4942 C   0  0  0  0  0  0  0  0  0  0  0  0
   21.9264  -21.0927  -15.0930 C   0  0  2  0  0  0  0  0  0  0  0  0
   21.2755  -22.0665  -16.0059 C   0  0  0  0  0  0  0  0  0  0  0  0
   21.7706  -21.3956  -13.6524 C   0  0  0  0  0  0  0  0  0  0  0  0
   22.5646  -20.5565  -12.6916 C   0  0  2  0  0  0  0  0  0  0  0  0
   23.9589  -21.0782  -12.7597 N   0  0  0  0  0  0  0  0  0  0  0  0
   22.1017  -20.5581  -11.3122 C   0  0  0  0  0  0  0  0  0  0  0  0
   21.1718  -19.7901  -10.9225 O   0  0  0  0  0  0  0  0  0  0  0  0
   22.6127  -21.3816  -10.2955 O   0  0  0  0  0  0  0  0  0  0  0  0
  2  6  1  0
  2  1  1  6
  3  2  1  0
  4  3  1  0
  4  8  1  0
  5  4  2  0
  6  7  2  0
  9  6  1  0
 10  9  1  0
 11 12  1  0
 10 11  1  1
 12 17  2  0
 13 14  2  0
 13 12  1  0
 14 15  1  0
 15 16  2  0
 17 16  1  0
 18 10  1  0
 19 18  2  0
 21 20  1  1
 21 23  1  0
 22 21  1  0
 24 23  1  6
 24 25  1  0
 24 26  1  0
 25 18  1  0
 26 27  2  0
 26 28  1  0
M  END
$$$$
