DFL.pdb
     RDKit          3D

 28 28  0  0  1  0  0  0  0  0999 V2000
   28.1756  -21.1795  -18.3330 N   0  0  0  0  0  0  0  0  0  0  0  0
   26.9761  -20.3819  -18.1285 C   0  0  1  0  0  0  0  0  0  0  0  0
   25.9815  -20.6365  -19.2072 C   0  0  0  0  0  0  0  0  0  0  0  0
   25.9005  -19.4502  -20.1152 C   0  0  0  0  0  0  0  0  0  0  0  0
   25.6242  -19.5596  -21.3174 O   0  0  0  0  0  0  0  0  0  0  0  0
   26.3695  -20.6950  -16.8017 C   0  0  0  0  0  0  0  0  0  0  0  0
   25.3803  -21.4553  -16.7232 O   0  0  0  0  0  0  0  0  0  0  0  0
   26.1484  -18.2005  -19.5556 O   0  0  0  0  0  0  0  0  0  0  0  0
   26.8630  -20.1558  -15.5847 N   0  0  0  0  0  0  0  0  0  0  0  0
   26.2035  -20.4258  -14.3557 C   0  0  1  0  0  0  0  0  0  0  0  0
   27.0608  -20.2589  -13.1581 C   0  0  0  0  0  0  0  0  0  0  0  0
   26.4321  -20.4368  -11.8608 C   0  0  0  0  0  0  0  0  0  0  0  0
   26.4648  -21.7037  -11.2997 C   0  0  0  0  0  0  0  0  0  0  0  0
   25.9258  -22.0061  -10.0914 C   0  0  0  0  0  0  0  0  0  0  0  0
   25.2974  -21.0185   -9.3327 C   0  0  0  0  0  0  0  0  0  0  0  0
   25.2511  -19.7494   -9.8697 C   0  0  0  0  0  0  0  0  0  0  0  0
   25.8063  -19.4664  -11.1011 C   0  0  0  0  0  0  0  0  0  0  0  0
   24.8014  -20.0050  -14.2469 C   0  0  0  0  0  0  0  0  0  0  0  0
   24.5123  -18.7992  -14.3656 O   0  0  0  0  0  0  0  0  0  0  0  0
   21.3224  -19.2465  -16.3258 C   0  0  0  0  0  0  0  0  0  0  0  0
   21.6464  -20.6916  -16.1475 C   0  0  2  0  0  0  0  0  0  0  0  0
   21.0433  -21.5616  -17.1890 C   0  0  0  0  0  0  0  0  0  0  0  0
   21.5463  -21.2180  -14.7675 C   0  0  0  0  0  0  0  0  0  0  0  0
   22.3907  -20.5475  -13.7212 C   0  0  2  0  0  0  0  0  0  0  0  0
   23.7943  -20.9506  -14.0185 N   0  0  0  0  0  0  0  0  0  0  0  0
   22.0654  -20.8673  -12.3396 C   0  0  0  0  0  0  0  0  0  0  0  0
   22.4737  -21.9341  -11.7906 O   0  0  0  0  0  0  0  0  0  0  0  0
   21.2928  -20.0588  -11.4896 O   0  0  0  0  0  0  0  0  0  0  0  0
  2  6  1  0
  2  1  1  6
  3  2  1  0
  4  3  1  0
  4  8  1  0
  5  4  2  0
  6  7  2  0
  9  6  1  0
 10  9  1  0
 11 12  1  0
 10 11  1  1
 12 17  2  0
 13 14  2  0
 13 12  1  0
 14 15  1  0
 15 16  2  0
 17 16  1  0
 18 10  1  0
 19 18  2  0
 21 20  1  1
 21 23  1  0
 22 21  1  0
 24 23  1  6
 24 25  1  0
 24 26  1  0
 25 18  1  0
 26 27  2  0
 26 28  1  0
M  END
$$$$
