DFL.pdb
     RDKit          3D

 28 28  0  0  1  0  0  0  0  0999 V2000
   28.4399  -21.3459  -14.5656 N   0  0  0  0  0  0  0  0  0  0  0  0
   27.6186  -20.2810  -14.0104 C   0  0  1  0  0  0  0  0  0  0  0  0
   26.9313  -19.5241  -15.0932 C   0  0  0  0  0  0  0  0  0  0  0  0
   27.9306  -18.7255  -15.8693 C   0  0  0  0  0  0  0  0  0  0  0  0
   28.3541  -19.0953  -16.9728 O   0  0  0  0  0  0  0  0  0  0  0  0
   26.6057  -20.8475  -13.0727 C   0  0  0  0  0  0  0  0  0  0  0  0
   26.1331  -21.9883  -13.2674 O   0  0  0  0  0  0  0  0  0  0  0  0
   28.3745  -17.5349  -15.3022 O   0  0  0  0  0  0  0  0  0  0  0  0
   26.1271  -20.1393  -11.9392 N   0  0  0  0  0  0  0  0  0  0  0  0
   25.1431  -20.7145  -11.0911 C   0  0  1  0  0  0  0  0  0  0  0  0
   25.3290  -20.4094   -9.6526 C   0  0  0  0  0  0  0  0  0  0  0  0
   26.6731  -20.5319   -9.1156 C   0  0  0  0  0  0  0  0  0  0  0  0
   27.5712  -21.3287   -9.8079 C   0  0  0  0  0  0  0  0  0  0  0  0
   28.8584  -21.5217   -9.4234 C   0  0  0  0  0  0  0  0  0  0  0  0
   29.3522  -20.9002   -8.2764 C   0  0  0  0  0  0  0  0  0  0  0  0
   28.4777  -20.1024   -7.5694 C   0  0  0  0  0  0  0  0  0  0  0  0
   27.1726  -19.9217   -7.9804 C   0  0  0  0  0  0  0  0  0  0  0  0
   23.7672  -20.7549  -11.6010 C   0  0  0  0  0  0  0  0  0  0  0  0
   22.8148  -20.6944  -10.8004 O   0  0  0  0  0  0  0  0  0  0  0  0
   21.6378  -17.9862  -14.6466 C   0  0  0  0  0  0  0  0  0  0  0  0
   22.5616  -18.9580  -15.3003 C   0  0  2  0  0  0  0  0  0  0  0  0
   22.8006  -18.6662  -16.7366 C   0  0  0  0  0  0  0  0  0  0  0  0
   22.3335  -20.3871  -14.9889 C   0  0  0  0  0  0  0  0  0  0  0  0
   22.1498  -20.7466  -13.5416 C   0  0  2  0  0  0  0  0  0  0  0  0
   23.5247  -20.8536  -12.9765 N   0  0  0  0  0  0  0  0  0  0  0  0
   21.4094  -21.9712  -13.2789 C   0  0  0  0  0  0  0  0  0  0  0  0
   20.1508  -21.9676  -13.1297 O   0  0  0  0  0  0  0  0  0  0  0  0
   21.9842  -23.2479  -13.1672 O   0  0  0  0  0  0  0  0  0  0  0  0
  2  6  1  0
  2  1  1  6
  3  2  1  0
  4  3  1  0
  4  8  1  0
  5  4  2  0
  6  7  2  0
  9  6  1  0
 10  9  1  0
 11 12  1  0
 10 11  1  1
 12 17  2  0
 13 14  2  0
 13 12  1  0
 14 15  1  0
 15 16  2  0
 17 16  1  0
 18 10  1  0
 19 18  2  0
 21 20  1  6
 21 23  1  0
 22 21  1  0
 24 23  1  6
 24 25  1  0
 24 26  1  0
 25 18  1  0
 26 27  2  0
 26 28  1  0
M  END
$$$$
