DFL.pdb
     RDKit          3D

 28 28  0  0  1  0  0  0  0  0999 V2000
   26.4554  -18.6385  -19.2555 N   0  0  0  0  0  0  0  0  0  0  0  0
   25.8445  -17.9528  -18.1270 C   0  0  1  0  0  0  0  0  0  0  0  0
   24.8180  -16.9795  -18.5924 C   0  0  0  0  0  0  0  0  0  0  0  0
   25.4862  -15.7583  -19.1408 C   0  0  0  0  0  0  0  0  0  0  0  0
   26.7093  -15.7054  -19.3275 O   0  0  0  0  0  0  0  0  0  0  0  0
   25.2166  -18.9413  -17.2023 C   0  0  0  0  0  0  0  0  0  0  0  0
   24.5672  -19.9077  -17.6572 O   0  0  0  0  0  0  0  0  0  0  0  0
   24.6755  -14.6675  -19.4398 O   0  0  0  0  0  0  0  0  0  0  0  0
   25.3117  -18.8398  -15.7895 N   0  0  0  0  0  0  0  0  0  0  0  0
   24.6869  -19.8033  -14.9530 C   0  0  1  0  0  0  0  0  0  0  0  0
   25.6192  -20.5151  -14.0467 C   0  0  0  0  0  0  0  0  0  0  0  0
   26.8413  -21.0406  -14.6299 C   0  0  0  0  0  0  0  0  0  0  0  0
   26.7816  -22.2884  -15.2302 C   0  0  0  0  0  0  0  0  0  0  0  0
   27.8444  -22.8915  -15.8208 C   0  0  0  0  0  0  0  0  0  0  0  0
   29.0860  -22.2566  -15.8546 C   0  0  0  0  0  0  0  0  0  0  0  0
   29.1716  -21.0140  -15.2632 C   0  0  0  0  0  0  0  0  0  0  0  0
   28.0764  -20.4212  -14.6683 C   0  0  0  0  0  0  0  0  0  0  0  0
   23.3588  -19.4657  -14.4267 C   0  0  0  0  0  0  0  0  0  0  0  0
   23.2595  -18.6491  -13.4914 O   0  0  0  0  0  0  0  0  0  0  0  0
   20.2567  -16.7043  -14.9967 C   0  0  0  0  0  0  0  0  0  0  0  0
   20.4446  -17.7015  -16.0900 C   0  0  2  0  0  0  0  0  0  0  0  0
   19.8879  -17.2566  -17.3929 C   0  0  0  0  0  0  0  0  0  0  0  0
   20.1579  -19.1120  -15.7440 C   0  0  0  0  0  0  0  0  0  0  0  0
   20.8425  -19.6659  -14.5266 C   0  0  2  0  0  0  0  0  0  0  0  0
   22.2107  -20.0505  -14.9749 N   0  0  0  0  0  0  0  0  0  0  0  0
   20.1915  -20.8017  -13.8916 C   0  0  0  0  0  0  0  0  0  0  0  0
   19.0985  -20.6749  -13.2628 O   0  0  0  0  0  0  0  0  0  0  0  0
   20.6817  -22.1179  -13.9054 O   0  0  0  0  0  0  0  0  0  0  0  0
  2  6  1  0
  2  1  1  6
  3  2  1  0
  4  3  1  0
  4  8  1  0
  5  4  2  0
  6  7  2  0
  9  6  1  0
 10  9  1  0
 11 12  1  0
 10 11  1  1
 12 17  2  0
 13 14  2  0
 13 12  1  0
 14 15  1  0
 15 16  2  0
 17 16  1  0
 18 10  1  0
 19 18  2  0
 21 20  1  1
 21 23  1  0
 22 21  1  0
 24 23  1  6
 24 25  1  0
 24 26  1  0
 25 18  1  0
 26 27  2  0
 26 28  1  0
M  END
$$$$
