DFL.pdb
     RDKit          3D

 28 28  0  0  1  0  0  0  0  0999 V2000
   27.1192  -22.2524  -17.8073 N   0  0  0  0  0  0  0  0  0  0  0  0
   27.0142  -21.0249  -17.0333 C   0  0  1  0  0  0  0  0  0  0  0  0
   26.2813  -19.9785  -17.7983 C   0  0  0  0  0  0  0  0  0  0  0  0
   27.1342  -19.4775  -18.9209 C   0  0  0  0  0  0  0  0  0  0  0  0
   28.2473  -18.9708  -18.7258 O   0  0  0  0  0  0  0  0  0  0  0  0
   26.3122  -21.2881  -15.7432 C   0  0  0  0  0  0  0  0  0  0  0  0
   25.1836  -21.8255  -15.7364 O   0  0  0  0  0  0  0  0  0  0  0  0
   26.6284  -19.6025  -20.2112 O   0  0  0  0  0  0  0  0  0  0  0  0
   26.8677  -20.9456  -14.4824 N   0  0  0  0  0  0  0  0  0  0  0  0
   26.0725  -20.9939  -13.3061 C   0  0  1  0  0  0  0  0  0  0  0  0
   26.8335  -20.7888  -12.0508 C   0  0  0  0  0  0  0  0  0  0  0  0
   26.0731  -20.7306  -10.8146 C   0  0  0  0  0  0  0  0  0  0  0  0
   25.8379  -21.9230  -10.1485 C   0  0  0  0  0  0  0  0  0  0  0  0
   25.1517  -22.0106   -8.9809 C   0  0  0  0  0  0  0  0  0  0  0  0
   24.6393  -20.8625   -8.3765 C   0  0  0  0  0  0  0  0  0  0  0  0
   24.8594  -19.6632   -9.0204 C   0  0  0  0  0  0  0  0  0  0  0  0
   25.5602  -19.5997  -10.2076 C   0  0  0  0  0  0  0  0  0  0  0  0
   24.7301  -20.4053  -13.3863 C   0  0  0  0  0  0  0  0  0  0  0  0
   24.6076  -19.1877  -13.6188 O   0  0  0  0  0  0  0  0  0  0  0  0
   19.3720  -20.7668  -14.3291 C   0  0  0  0  0  0  0  0  0  0  0  0
   20.4854  -20.0153  -14.9776 C   0  0  2  0  0  0  0  0  0  0  0  0
   20.2351  -19.7149  -16.4103 C   0  0  0  0  0  0  0  0  0  0  0  0
   21.8555  -20.4871  -14.6746 C   0  0  0  0  0  0  0  0  0  0  0  0
   22.2193  -20.6320  -13.2241 C   0  0  2  0  0  0  0  0  0  0  0  0
   23.5948  -21.2056  -13.2100 N   0  0  0  0  0  0  0  0  0  0  0  0
   21.3292  -21.4594  -12.4241 C   0  0  0  0  0  0  0  0  0  0  0  0
   20.3208  -20.9706  -11.8321 O   0  0  0  0  0  0  0  0  0  0  0  0
   21.4803  -22.8419  -12.2269 O   0  0  0  0  0  0  0  0  0  0  0  0
  2  6  1  0
  2  1  1  6
  3  2  1  0
  4  3  1  0
  4  8  1  0
  5  4  2  0
  6  7  2  0
  9  6  1  0
 10  9  1  0
 11 12  1  0
 10 11  1  1
 12 17  2  0
 13 14  2  0
 13 12  1  0
 14 15  1  0
 15 16  2  0
 17 16  1  0
 18 10  1  0
 19 18  2  0
 21 20  1  6
 21 23  1  0
 22 21  1  0
 24 23  1  6
 24 25  1  0
 24 26  1  0
 25 18  1  0
 26 27  2  0
 26 28  1  0
M  END
$$$$
