DFL.pdb
     RDKit          3D

 28 28  0  0  1  0  0  0  0  0999 V2000
   26.0532  -22.6936  -18.7512 N   0  0  0  0  0  0  0  0  0  0  0  0
   25.8678  -21.4005  -18.1107 C   0  0  1  0  0  0  0  0  0  0  0  0
   24.9819  -20.5272  -18.9293 C   0  0  0  0  0  0  0  0  0  0  0  0
   25.6692  -19.2291  -19.2142 C   0  0  0  0  0  0  0  0  0  0  0  0
   26.5622  -19.1308  -20.0666 O   0  0  0  0  0  0  0  0  0  0  0  0
   25.2799  -21.5788  -16.7509 C   0  0  0  0  0  0  0  0  0  0  0  0
   24.3815  -22.4262  -16.5575 O   0  0  0  0  0  0  0  0  0  0  0  0
   25.2651  -18.1186  -18.4794 O   0  0  0  0  0  0  0  0  0  0  0  0
   25.6908  -20.8113  -15.6295 N   0  0  0  0  0  0  0  0  0  0  0  0
   25.0334  -20.9527  -14.3781 C   0  0  1  0  0  0  0  0  0  0  0  0
   25.8251  -20.4748  -13.2198 C   0  0  0  0  0  0  0  0  0  0  0  0
   25.2163  -20.5891  -11.9060 C   0  0  0  0  0  0  0  0  0  0  0  0
   25.8292  -21.4233  -10.9845 C   0  0  0  0  0  0  0  0  0  0  0  0
   25.3726  -21.6139   -9.7207 C   0  0  0  0  0  0  0  0  0  0  0  0
   24.2282  -20.9508   -9.2772 C   0  0  0  0  0  0  0  0  0  0  0  0
   23.5994  -20.1154  -10.1760 C   0  0  0  0  0  0  0  0  0  0  0  0
   24.0829  -19.9381  -11.4564 C   0  0  0  0  0  0  0  0  0  0  0  0
   23.5864  -20.7064  -14.3554 C   0  0  0  0  0  0  0  0  0  0  0  0
   23.1380  -19.6450  -14.8286 O   0  0  0  0  0  0  0  0  0  0  0  0
   18.4996  -23.1752  -15.7506 C   0  0  0  0  0  0  0  0  0  0  0  0
   19.1589  -22.0690  -14.9978 C   0  0  2  0  0  0  0  0  0  0  0  0
   18.6571  -20.7227  -15.3730 C   0  0  0  0  0  0  0  0  0  0  0  0
   20.6291  -22.1631  -14.8528 C   0  0  0  0  0  0  0  0  0  0  0  0
   21.2487  -21.4122  -13.7084 C   0  0  2  0  0  0  0  0  0  0  0  0
   22.7148  -21.6584  -13.8129 N   0  0  0  0  0  0  0  0  0  0  0  0
   20.7787  -21.7750  -12.3800 C   0  0  0  0  0  0  0  0  0  0  0  0
   21.1611  -22.8392  -11.8077 O   0  0  0  0  0  0  0  0  0  0  0  0
   19.8834  -21.0142  -11.6103 O   0  0  0  0  0  0  0  0  0  0  0  0
  2  6  1  0
  2  1  1  6
  3  2  1  0
  4  3  1  0
  4  8  1  0
  5  4  2  0
  6  7  2  0
  9  6  1  0
 10  9  1  0
 11 12  1  0
 10 11  1  1
 12 17  2  0
 13 14  2  0
 13 12  1  0
 14 15  1  0
 15 16  2  0
 17 16  1  0
 18 10  1  0
 19 18  2  0
 21 20  1  6
 21 23  1  0
 22 21  1  0
 24 23  1  6
 24 25  1  0
 24 26  1  0
 25 18  1  0
 26 27  2  0
 26 28  1  0
M  END
$$$$
