DFL.pdb
     RDKit          3D

 28 28  0  0  1  0  0  0  0  0999 V2000
   19.7065  -14.0052  -17.4875 N   0  0  0  0  0  0  0  0  0  0  0  0
   20.6434  -13.0175  -18.0007 C   0  0  1  0  0  0  0  0  0  0  0  0
   20.4032  -12.7629  -19.4481 C   0  0  0  0  0  0  0  0  0  0  0  0
   20.6755  -14.0055  -20.2356 C   0  0  0  0  0  0  0  0  0  0  0  0
   21.4551  -14.8805  -19.8351 O   0  0  0  0  0  0  0  0  0  0  0  0
   20.5155  -11.7414  -17.2382 C   0  0  0  0  0  0  0  0  0  0  0  0
   19.3866  -11.2863  -16.9534 O   0  0  0  0  0  0  0  0  0  0  0  0
   20.0132  -14.1485  -21.4510 O   0  0  0  0  0  0  0  0  0  0  0  0
   21.6388  -10.9863  -16.8099 N   0  0  0  0  0  0  0  0  0  0  0  0
   21.4618   -9.7501  -16.1325 C   0  0  1  0  0  0  0  0  0  0  0  0
   22.5160   -9.4489  -15.1350 C   0  0  0  0  0  0  0  0  0  0  0  0
   22.3567   -8.2412  -14.3439 C   0  0  0  0  0  0  0  0  0  0  0  0
   21.9347   -8.3840  -13.0316 C   0  0  0  0  0  0  0  0  0  0  0  0
   21.7550   -7.3420  -12.1807 C   0  0  0  0  0  0  0  0  0  0  0  0
   22.0008   -6.0358  -12.6041 C   0  0  0  0  0  0  0  0  0  0  0  0
   22.4210   -5.8671  -13.9065 C   0  0  0  0  0  0  0  0  0  0  0  0
   22.5963   -6.9428  -14.7531 C   0  0  0  0  0  0  0  0  0  0  0  0
   20.9379   -8.6286  -16.9215 C   0  0  0  0  0  0  0  0  0  0  0  0
   21.4758   -8.3386  -18.0069 O   0  0  0  0  0  0  0  0  0  0  0  0
   17.0866   -4.7549  -17.8994 C   0  0  0  0  0  0  0  0  0  0  0  0
   17.4380   -5.9887  -18.6605 C   0  0  2  0  0  0  0  0  0  0  0  0
   16.3422   -6.4678  -19.5408 C   0  0  0  0  0  0  0  0  0  0  0  0
   18.1284   -7.0527  -17.8971 C   0  0  0  0  0  0  0  0  0  0  0  0
   19.3744   -6.6582  -17.1559 C   0  0  2  0  0  0  0  0  0  0  0  0
   19.8379   -7.8935  -16.4629 N   0  0  0  0  0  0  0  0  0  0  0  0
   19.2275   -5.5761  -16.1944 C   0  0  0  0  0  0  0  0  0  0  0  0
   18.6835   -5.7604  -15.0647 O   0  0  0  0  0  0  0  0  0  0  0  0
   19.6578   -4.2551  -16.4014 O   0  0  0  0  0  0  0  0  0  0  0  0
  2  6  1  0
  2  1  1  1
  3  2  1  0
  4  3  1  0
  4  8  1  0
  5  4  2  0
  6  7  2  0
  9  6  1  0
 10  9  1  0
 11 12  1  0
 10 11  1  6
 12 17  2  0
 13 14  2  0
 13 12  1  0
 14 15  1  0
 15 16  2  0
 17 16  1  0
 18 10  1  0
 19 18  2  0
 21 20  1  1
 21 23  1  0
 22 21  1  0
 24 23  1  1
 24 25  1  0
 24 26  1  0
 25 18  1  0
 26 27  2  0
 26 28  1  0
M  END
$$$$
