DFL.pdb
     RDKit          3D

 28 28  0  0  1  0  0  0  0  0999 V2000
   26.5874  -22.1843  -13.4732 N   0  0  0  0  0  0  0  0  0  0  0  0
   26.8495  -20.9220  -12.7989 C   0  0  1  0  0  0  0  0  0  0  0  0
   25.9393  -19.8556  -13.3007 C   0  0  0  0  0  0  0  0  0  0  0  0
   26.2916  -19.5085  -14.7127 C   0  0  0  0  0  0  0  0  0  0  0  0
   27.3825  -19.0054  -15.0138 O   0  0  0  0  0  0  0  0  0  0  0  0
   26.6748  -21.0792  -11.3254 C   0  0  0  0  0  0  0  0  0  0  0  0
   25.6733  -21.6709  -10.8677 O   0  0  0  0  0  0  0  0  0  0  0  0
   25.3391  -19.7744  -15.6917 O   0  0  0  0  0  0  0  0  0  0  0  0
   27.6077  -20.5727  -10.3827 N   0  0  0  0  0  0  0  0  0  0  0  0
   27.3050  -20.5754   -8.9947 C   0  0  1  0  0  0  0  0  0  0  0  0
   28.4282  -20.1458   -8.1282 C   0  0  0  0  0  0  0  0  0  0  0  0
   28.1374  -19.9294   -6.7217 C   0  0  0  0  0  0  0  0  0  0  0  0
   28.4379  -20.9544   -5.8386 C   0  0  0  0  0  0  0  0  0  0  0  0
   28.2272  -20.8809   -4.4999 C   0  0  0  0  0  0  0  0  0  0  0  0
   27.6840  -19.7274   -3.9340 C   0  0  0  0  0  0  0  0  0  0  0  0
   27.3756  -18.6931   -4.7922 C   0  0  0  0  0  0  0  0  0  0  0  0
   27.5989  -18.7917   -6.1505 C   0  0  0  0  0  0  0  0  0  0  0  0
   25.9534  -20.1528   -8.6080 C   0  0  0  0  0  0  0  0  0  0  0  0
   25.5199  -19.0525   -8.9992 O   0  0  0  0  0  0  0  0  0  0  0  0
   20.8126  -21.3644   -8.1347 C   0  0  0  0  0  0  0  0  0  0  0  0
   21.6353  -20.5907   -9.1091 C   0  0  2  0  0  0  0  0  0  0  0  0
   21.0999  -20.6330  -10.4937 C   0  0  0  0  0  0  0  0  0  0  0  0
   23.1020  -20.7628   -9.0074 C   0  0  0  0  0  0  0  0  0  0  0  0
   23.6967  -20.7262   -7.6281 C   0  0  2  0  0  0  0  0  0  0  0  0
   25.1535  -20.9813   -7.8116 N   0  0  0  0  0  0  0  0  0  0  0  0
   23.1445  -21.6733   -6.6714 C   0  0  0  0  0  0  0  0  0  0  0  0
   23.4305  -22.9071   -6.7172 O   0  0  0  0  0  0  0  0  0  0  0  0
   22.2667  -21.3390   -5.6271 O   0  0  0  0  0  0  0  0  0  0  0  0
  2  6  1  0
  2  1  1  6
  3  2  1  0
  4  3  1  0
  4  8  1  0
  5  4  2  0
  6  7  2  0
  9  6  1  0
 10  9  1  0
 11 12  1  0
 10 11  1  1
 12 17  2  0
 13 14  2  0
 13 12  1  0
 14 15  1  0
 15 16  2  0
 17 16  1  0
 18 10  1  0
 19 18  2  0
 21 20  1  1
 21 23  1  0
 22 21  1  0
 24 23  1  6
 24 25  1  0
 24 26  1  0
 25 18  1  0
 26 27  2  0
 26 28  1  0
M  END
$$$$
