DIW.pdb
     RDKit          3D

 31 32  0  0  1  0  0  0  0  0999 V2000
    8.0729  -19.0271   19.3409 N   0  0  0  0  0  0  0  0  0  0  0  0
    9.2586  -18.9852   20.1685 C   0  0  1  0  0  0  0  0  0  0  0  0
   10.3380  -19.7988   19.5263 C   0  0  0  0  0  0  0  0  0  0  0  0
    9.9709  -21.1952   19.2290 C   0  0  0  0  0  0  0  0  0  0  0  0
   10.7883  -22.0707   18.8598 O   0  0  0  0  0  0  0  0  0  0  0  0
    9.7427  -17.6067   20.4063 C   0  0  0  0  0  0  0  0  0  0  0  0
   10.8811  -17.2595   20.0391 O   0  0  0  0  0  0  0  0  0  0  0  0
    8.6491  -21.6300   19.3469 O   0  0  0  0  0  0  0  0  0  0  0  0
    7.1403  -12.1482   20.5082 C   0  0  0  0  0  0  0  0  0  0  0  0
    8.2607  -13.0184   20.8849 C   0  0  0  0  0  0  0  0  0  0  0  0
    8.0921  -14.4763   20.9016 C   0  0  2  0  0  0  0  0  0  0  0  0
    6.8574  -14.8908   21.6657 C   0  0  0  0  0  0  0  0  0  0  0  0
    9.2642  -15.3036   21.3456 C   0  0  2  0  0  0  0  0  0  0  0  0
    8.9267  -16.6786   21.0501 N   0  0  0  0  0  0  0  0  0  0  0  0
    9.6481  -15.0792   22.7394 C   0  0  0  0  0  0  0  0  0  0  0  0
   10.0920  -13.9736   23.1047 O   0  0  0  0  0  0  0  0  0  0  0  0
    9.5128  -16.1202   23.6791 N   0  0  0  0  0  0  0  0  0  0  0  0
   10.0097  -16.0588   25.0514 C   0  0  1  0  0  0  0  0  0  0  0  0
    8.9197  -16.3532   26.0225 C   0  0  0  0  0  0  0  0  0  0  0  0
    7.7670  -15.4520   26.0422 C   0  0  0  0  0  0  0  0  0  0  0  0
    6.4457  -15.7783   25.6804 C   0  0  0  0  0  0  0  0  0  0  0  0
    5.6849  -14.6944   25.7909 N   0  0  0  0  0  0  0  0  0  0  0  0
    6.4159  -13.6494   26.2088 C   0  0  0  0  0  0  0  0  0  0  0  0
    6.1326  -12.3429   26.4959 C   0  0  0  0  0  0  0  0  0  0  0  0
    7.0970  -11.4464   26.9473 C   0  0  0  0  0  0  0  0  0  0  0  0
    8.3839  -11.8983   27.1088 C   0  0  0  0  0  0  0  0  0  0  0  0
    8.6516  -13.2146   26.8146 C   0  0  0  0  0  0  0  0  0  0  0  0
    7.7052  -14.1082   26.3673 C   0  0  0  0  0  0  0  0  0  0  0  0
   11.1271  -16.9840   25.1745 C   0  0  0  0  0  0  0  0  0  0  0  0
   11.4638  -17.8455   24.1095 O   0  0  0  0  0  0  0  0  0  0  0  0
   11.8789  -17.1172   26.1838 O   0  0  0  0  0  0  0  0  0  0  0  0
  2  1  1  6
  3  2  1  0
  3  4  1  0
  4  5  2  0
  6  2  1  0
  6 14  1  0
  7  6  2  0
  8  4  1  0
  9 10  1  0
 11 10  1  0
 11 12  1  1
 13 11  1  0
 13 15  1  0
 13 14  1  1
 15 16  2  0
 17 15  1  0
 17 18  1  0
 18 19  1  1
 19 20  1  0
 20 28  1  0
 21 20  2  0
 21 22  1  0
 22 23  1  0
 23 24  1  0
 24 25  2  0
 26 25  1  0
 27 26  2  0
 28 23  2  0
 28 27  1  0
 29 30  1  0
 29 18  1  0
 31 29  2  0
M  END
$$$$
