DIW.pdb
     RDKit          3D

 31 32  0  0  1  0  0  0  0  0999 V2000
   12.3229  -16.8517   18.1781 N   0  0  0  0  0  0  0  0  0  0  0  0
   11.5248  -17.4585   19.2210 C   0  0  1  0  0  0  0  0  0  0  0  0
   12.2229  -18.6809   19.7289 C   0  0  0  0  0  0  0  0  0  0  0  0
   12.4402  -19.7362   18.7228 C   0  0  0  0  0  0  0  0  0  0  0  0
   13.5569  -20.0072   18.2223 O   0  0  0  0  0  0  0  0  0  0  0  0
   11.2505  -16.5338   20.3437 C   0  0  0  0  0  0  0  0  0  0  0  0
   12.1759  -15.9054   20.8917 O   0  0  0  0  0  0  0  0  0  0  0  0
   11.3778  -20.5152   18.2593 O   0  0  0  0  0  0  0  0  0  0  0  0
    7.0789  -13.4131   19.7445 C   0  0  0  0  0  0  0  0  0  0  0  0
    8.3078  -14.0163   20.2740 C   0  0  0  0  0  0  0  0  0  0  0  0
    8.2621  -14.8505   21.4807 C   0  0  2  0  0  0  0  0  0  0  0  0
    7.6550  -14.1140   22.6507 C   0  0  0  0  0  0  0  0  0  0  0  0
    9.5370  -15.5188   21.9088 C   0  0  2  0  0  0  0  0  0  0  0  0
    9.9472  -16.3578   20.8044 N   0  0  0  0  0  0  0  0  0  0  0  0
    9.4279  -16.2335   23.1808 C   0  0  0  0  0  0  0  0  0  0  0  0
    8.8631  -17.3428   23.2384 O   0  0  0  0  0  0  0  0  0  0  0  0
    9.9682  -15.6656   24.3515 N   0  0  0  0  0  0  0  0  0  0  0  0
   10.1135  -16.3770   25.6191 C   0  0  1  0  0  0  0  0  0  0  0  0
    9.6990  -15.5146   26.7603 C   0  0  0  0  0  0  0  0  0  0  0  0
    8.3264  -15.0076   26.7639 C   0  0  0  0  0  0  0  0  0  0  0  0
    7.1535  -15.7718   26.6104 C   0  0  0  0  0  0  0  0  0  0  0  0
    6.1011  -14.9606   26.6295 N   0  0  0  0  0  0  0  0  0  0  0  0
    6.4937  -13.6872   26.7885 C   0  0  0  0  0  0  0  0  0  0  0  0
    5.8352  -12.4933   26.8912 C   0  0  0  0  0  0  0  0  0  0  0  0
    6.4973  -11.2836   27.0807 C   0  0  0  0  0  0  0  0  0  0  0  0
    7.8681  -11.2962   27.1672 C   0  0  0  0  0  0  0  0  0  0  0  0
    8.5143  -12.5052   27.0609 C   0  0  0  0  0  0  0  0  0  0  0  0
    7.8686  -13.7061   26.8729 C   0  0  0  0  0  0  0  0  0  0  0  0
    9.3391  -17.6075   25.5438 C   0  0  0  0  0  0  0  0  0  0  0  0
    8.3674  -17.7813   24.5361 O   0  0  0  0  0  0  0  0  0  0  0  0
    9.4381  -18.6012   26.3213 O   0  0  0  0  0  0  0  0  0  0  0  0
  2  1  1  6
  3  2  1  0
  3  4  1  0
  4  5  2  0
  6  2  1  0
  6 14  1  0
  7  6  2  0
  8  4  1  0
  9 10  1  0
 11 10  1  0
 11 12  1  1
 13 11  1  0
 13 15  1  0
 13 14  1  6
 15 16  2  0
 17 15  1  0
 17 18  1  0
 18 19  1  1
 19 20  1  0
 20 28  1  0
 21 20  2  0
 21 22  1  0
 22 23  1  0
 23 24  1  0
 24 25  2  0
 26 25  1  0
 27 26  2  0
 28 23  2  0
 28 27  1  0
 29 30  1  0
 29 18  1  0
 31 29  2  0
M  END
$$$$
