DIW.pdb
     RDKit          3D

 31 32  0  0  1  0  0  0  0  0999 V2000
   11.3851  -16.2768   17.6171 N   0  0  0  0  0  0  0  0  0  0  0  0
   11.5248  -17.0913   18.8045 C   0  0  1  0  0  0  0  0  0  0  0  0
   12.9286  -17.6029   18.8898 C   0  0  0  0  0  0  0  0  0  0  0  0
   13.3403  -18.4781   17.7773 C   0  0  0  0  0  0  0  0  0  0  0  0
   12.5381  -19.0503   17.0027 O   0  0  0  0  0  0  0  0  0  0  0  0
   11.1805  -16.3600   20.0445 C   0  0  0  0  0  0  0  0  0  0  0  0
   12.0734  -15.9001   20.7812 O   0  0  0  0  0  0  0  0  0  0  0  0
   14.6907  -18.7237   17.5198 O   0  0  0  0  0  0  0  0  0  0  0  0
    7.0863  -12.9863   19.5852 C   0  0  0  0  0  0  0  0  0  0  0  0
    8.2657  -13.7003   20.0889 C   0  0  0  0  0  0  0  0  0  0  0  0
    8.1194  -14.7380   21.1165 C   0  0  2  0  0  0  0  0  0  0  0  0
    7.3666  -14.2319   22.3236 C   0  0  0  0  0  0  0  0  0  0  0  0
    9.3631  -15.4545   21.5586 C   0  0  2  0  0  0  0  0  0  0  0  0
    9.8464  -16.1800   20.4046 N   0  0  0  0  0  0  0  0  0  0  0  0
    9.1693  -16.2936   22.7414 C   0  0  0  0  0  0  0  0  0  0  0  0
    8.6603  -17.4264   22.6387 O   0  0  0  0  0  0  0  0  0  0  0  0
    9.5638  -15.8197   24.0081 N   0  0  0  0  0  0  0  0  0  0  0  0
    9.5075  -16.6096   25.2356 C   0  0  1  0  0  0  0  0  0  0  0  0
    9.1896  -15.7460   26.4065 C   0  0  0  0  0  0  0  0  0  0  0  0
    7.9359  -14.9922   26.3730 C   0  0  0  0  0  0  0  0  0  0  0  0
    6.6550  -15.5135   26.1070 C   0  0  0  0  0  0  0  0  0  0  0  0
    5.7702  -14.5222   26.1263 N   0  0  0  0  0  0  0  0  0  0  0  0
    6.3787  -13.3559   26.3916 C   0  0  0  0  0  0  0  0  0  0  0  0
    5.9451  -12.0677   26.5406 C   0  0  0  0  0  0  0  0  0  0  0  0
    6.8044  -11.0161   26.8461 C   0  0  0  0  0  0  0  0  0  0  0  0
    8.1412  -11.2897   27.0029 C   0  0  0  0  0  0  0  0  0  0  0  0
    8.5603  -12.5903   26.8486 C   0  0  0  0  0  0  0  0  0  0  0  0
    7.7186  -13.6364   26.5461 C   0  0  0  0  0  0  0  0  0  0  0  0
    8.5313  -17.6737   25.0499 C   0  0  0  0  0  0  0  0  0  0  0  0
    8.5853  -18.8406   25.8406 O   0  0  0  0  0  0  0  0  0  0  0  0
    7.5821  -17.6788   24.2129 O   0  0  0  0  0  0  0  0  0  0  0  0
  2  1  1  6
  3  2  1  0
  3  4  1  0
  4  5  2  0
  6  2  1  0
  6 14  1  0
  7  6  2  0
  8  4  1  0
  9 10  1  0
 11 10  1  0
 11 12  1  1
 13 11  1  0
 13 15  1  0
 13 14  1  6
 15 16  2  0
 17 15  1  0
 17 18  1  0
 18 19  1  1
 19 20  1  0
 20 28  1  0
 21 20  2  0
 21 22  1  0
 22 23  1  0
 23 24  1  0
 24 25  2  0
 26 25  1  0
 27 26  2  0
 28 23  2  0
 28 27  1  0
 29 30  1  0
 29 18  1  0
 31 29  2  0
M  END
$$$$
