DIW.pdb
     RDKit          3D

 31 32  0  0  1  0  0  0  0  0999 V2000
   10.5846  -17.7560   17.8601 N   0  0  0  0  0  0  0  0  0  0  0  0
   11.3196  -17.7060   19.1052 C   0  0  1  0  0  0  0  0  0  0  0  0
   12.4320  -16.7125   18.9823 C   0  0  0  0  0  0  0  0  0  0  0  0
   13.6861  -17.2490   18.4233 C   0  0  0  0  0  0  0  0  0  0  0  0
   13.8594  -18.4530   18.1210 O   0  0  0  0  0  0  0  0  0  0  0  0
   10.4634  -17.3609   20.2623 C   0  0  0  0  0  0  0  0  0  0  0  0
    9.9273  -16.2398   20.3457 O   0  0  0  0  0  0  0  0  0  0  0  0
   14.7833  -16.4161   18.1937 O   0  0  0  0  0  0  0  0  0  0  0  0
    7.1579  -21.1847   21.4524 C   0  0  0  0  0  0  0  0  0  0  0  0
    7.7140  -19.8268   21.4917 C   0  0  0  0  0  0  0  0  0  0  0  0
    8.6363  -19.4358   22.5644 C   0  0  2  0  0  0  0  0  0  0  0  0
    7.9774  -19.4943   23.9217 C   0  0  0  0  0  0  0  0  0  0  0  0
    9.3640  -18.1311   22.4102 C   0  0  2  0  0  0  0  0  0  0  0  0
   10.2496  -18.2907   21.2779 N   0  0  0  0  0  0  0  0  0  0  0  0
   10.0420  -17.6884   23.6287 C   0  0  0  0  0  0  0  0  0  0  0  0
   11.1295  -18.1933   23.9683 O   0  0  0  0  0  0  0  0  0  0  0  0
    9.4635  -16.6803   24.4249 N   0  0  0  0  0  0  0  0  0  0  0  0
   10.0966  -16.1018   25.6074 C   0  0  1  0  0  0  0  0  0  0  0  0
    9.6426  -14.6992   25.8180 C   0  0  0  0  0  0  0  0  0  0  0  0
    8.2019  -14.4583   25.9048 C   0  0  0  0  0  0  0  0  0  0  0  0
    7.1887  -15.4359   25.8767 C   0  0  0  0  0  0  0  0  0  0  0  0
    6.0046  -14.8360   25.9405 N   0  0  0  0  0  0  0  0  0  0  0  0
    6.1570  -13.5046   26.0115 C   0  0  0  0  0  0  0  0  0  0  0  0
    5.2913  -12.4508   26.1110 C   0  0  0  0  0  0  0  0  0  0  0  0
    5.7219  -11.1298   26.1945 C   0  0  0  0  0  0  0  0  0  0  0  0
    7.0726  -10.8808   26.1755 C   0  0  0  0  0  0  0  0  0  0  0  0
    7.9289  -11.9519   26.0740 C   0  0  0  0  0  0  0  0  0  0  0  0
    7.5128  -13.2612   25.9903 C   0  0  0  0  0  0  0  0  0  0  0  0
    9.8022  -16.9574   26.7481 C   0  0  0  0  0  0  0  0  0  0  0  0
    8.8763  -18.0149   26.6295 O   0  0  0  0  0  0  0  0  0  0  0  0
   10.3073  -16.8607   27.9044 O   0  0  0  0  0  0  0  0  0  0  0  0
  2  1  1  6
  3  2  1  0
  3  4  1  0
  4  5  2  0
  6  2  1  0
  6 14  1  0
  7  6  2  0
  8  4  1  0
  9 10  1  0
 11 10  1  0
 11 12  1  1
 13 11  1  0
 13 15  1  0
 13 14  1  6
 15 16  2  0
 17 15  1  0
 17 18  1  0
 18 19  1  1
 19 20  1  0
 20 28  1  0
 21 20  2  0
 21 22  1  0
 22 23  1  0
 23 24  1  0
 24 25  2  0
 26 25  1  0
 27 26  2  0
 28 23  2  0
 28 27  1  0
 29 30  1  0
 29 18  1  0
 31 29  2  0
M  END
$$$$
