DIW.pdb
     RDKit          3D

 31 32  0  0  1  0  0  0  0  0999 V2000
   12.3844  -17.2013   18.1919 N   0  0  0  0  0  0  0  0  0  0  0  0
   11.2146  -17.5203   18.9809 C   0  0  1  0  0  0  0  0  0  0  0  0
   11.3407  -18.9146   19.5095 C   0  0  0  0  0  0  0  0  0  0  0  0
   11.4841  -19.9596   18.4796 C   0  0  0  0  0  0  0  0  0  0  0  0
   10.7102  -20.0906   17.5025 O   0  0  0  0  0  0  0  0  0  0  0  0
   11.0041  -16.5757   20.1009 C   0  0  0  0  0  0  0  0  0  0  0  0
   11.9573  -16.2137   20.8162 O   0  0  0  0  0  0  0  0  0  0  0  0
   12.5245  -20.8892   18.5410 O   0  0  0  0  0  0  0  0  0  0  0  0
    6.8616  -13.1344   19.4585 C   0  0  0  0  0  0  0  0  0  0  0  0
    8.0940  -13.7660   19.9451 C   0  0  0  0  0  0  0  0  0  0  0  0
    8.0719  -14.5961   21.1553 C   0  0  2  0  0  0  0  0  0  0  0  0
    7.5431  -13.8367   22.3485 C   0  0  0  0  0  0  0  0  0  0  0  0
    9.3401  -15.3084   21.5293 C   0  0  2  0  0  0  0  0  0  0  0  0
    9.7295  -16.0810   20.3704 N   0  0  0  0  0  0  0  0  0  0  0  0
    9.2300  -16.1010   22.7542 C   0  0  0  0  0  0  0  0  0  0  0  0
    8.6307  -17.1936   22.7506 O   0  0  0  0  0  0  0  0  0  0  0  0
    9.8086  -15.6281   23.9485 N   0  0  0  0  0  0  0  0  0  0  0  0
    9.8864  -16.3998   25.1863 C   0  0  1  0  0  0  0  0  0  0  0  0
    9.4813  -15.5691   26.3541 C   0  0  0  0  0  0  0  0  0  0  0  0
    8.1532  -14.9555   26.3220 C   0  0  0  0  0  0  0  0  0  0  0  0
    6.9295  -15.6232   26.1233 C   0  0  0  0  0  0  0  0  0  0  0  0
    5.9439  -14.7318   26.1203 N   0  0  0  0  0  0  0  0  0  0  0  0
    6.4301  -13.4950   26.3069 C   0  0  0  0  0  0  0  0  0  0  0  0
    5.8644  -12.2539   26.4041 C   0  0  0  0  0  0  0  0  0  0  0  0
    6.6132  -11.1022   26.6287 C   0  0  0  0  0  0  0  0  0  0  0  0
    7.9754  -11.2236   26.7569 C   0  0  0  0  0  0  0  0  0  0  0  0
    8.5277  -12.4788   26.6555 C   0  0  0  0  0  0  0  0  0  0  0  0
    7.7959  -13.6230   26.4330 C   0  0  0  0  0  0  0  0  0  0  0  0
    9.0585  -17.5880   25.0368 C   0  0  0  0  0  0  0  0  0  0  0  0
    9.2446  -18.7012   25.8830 O   0  0  0  0  0  0  0  0  0  0  0  0
    8.1355  -17.7532   24.1868 O   0  0  0  0  0  0  0  0  0  0  0  0
  2  1  1  1
  3  2  1  0
  3  4  1  0
  4  5  2  0
  6  2  1  0
  6 14  1  0
  7  6  2  0
  8  4  1  0
  9 10  1  0
 11 10  1  0
 11 12  1  1
 13 11  1  0
 13 15  1  0
 13 14  1  6
 15 16  2  0
 17 15  1  0
 17 18  1  0
 18 19  1  1
 19 20  1  0
 20 28  1  0
 21 20  2  0
 21 22  1  0
 22 23  1  0
 23 24  1  0
 24 25  2  0
 26 25  1  0
 27 26  2  0
 28 23  2  0
 28 27  1  0
 29 30  1  0
 29 18  1  0
 31 29  2  0
M  END
$$$$
