DIW.pdb
     RDKit          3D

 31 32  0  0  1  0  0  0  0  0999 V2000
   12.2458  -16.4880   18.2044 N   0  0  0  0  0  0  0  0  0  0  0  0
   11.9662  -17.2492   19.4024 C   0  0  1  0  0  0  0  0  0  0  0  0
   13.2063  -17.9690   19.8307 C   0  0  0  0  0  0  0  0  0  0  0  0
   13.7068  -18.9704   18.8717 C   0  0  0  0  0  0  0  0  0  0  0  0
   12.9684  -19.6577   18.1277 O   0  0  0  0  0  0  0  0  0  0  0  0
   11.4655  -16.4072   20.5121 C   0  0  0  0  0  0  0  0  0  0  0  0
   12.2210  -15.6063   21.0946 O   0  0  0  0  0  0  0  0  0  0  0  0
   15.0753  -19.2139   18.7374 O   0  0  0  0  0  0  0  0  0  0  0  0
    6.8257  -14.2021   19.6553 C   0  0  0  0  0  0  0  0  0  0  0  0
    8.1109  -14.4959   20.3008 C   0  0  0  0  0  0  0  0  0  0  0  0
    8.1614  -15.3482   21.4946 C   0  0  2  0  0  0  0  0  0  0  0  0
    7.3522  -14.7719   22.6317 C   0  0  0  0  0  0  0  0  0  0  0  0
    9.5166  -15.7594   21.9946 C   0  0  2  0  0  0  0  0  0  0  0  0
   10.1371  -16.5046   20.9216 N   0  0  0  0  0  0  0  0  0  0  0  0
    9.4800  -16.4811   23.2667 C   0  0  0  0  0  0  0  0  0  0  0  0
    9.2599  -17.7073   23.2938 O   0  0  0  0  0  0  0  0  0  0  0  0
    9.6981  -15.7859   24.4725 N   0  0  0  0  0  0  0  0  0  0  0  0
    9.8097  -16.4249   25.7814 C   0  0  1  0  0  0  0  0  0  0  0  0
    9.3810  -15.4948   26.8626 C   0  0  0  0  0  0  0  0  0  0  0  0
    8.0790  -14.8425   26.7195 C   0  0  0  0  0  0  0  0  0  0  0  0
    6.8535  -15.4769   26.4387 C   0  0  0  0  0  0  0  0  0  0  0  0
    5.8993  -14.5567   26.3463 N   0  0  0  0  0  0  0  0  0  0  0  0
    6.4082  -13.3317   26.5497 C   0  0  0  0  0  0  0  0  0  0  0  0
    5.8758  -12.0727   26.5836 C   0  0  0  0  0  0  0  0  0  0  0  0
    6.6410  -10.9400   26.8463 C   0  0  0  0  0  0  0  0  0  0  0  0
    7.9850  -11.0997   27.0799 C   0  0  0  0  0  0  0  0  0  0  0  0
    8.5041  -12.3724   27.0411 C   0  0  0  0  0  0  0  0  0  0  0  0
    7.7560  -13.4982   26.7817 C   0  0  0  0  0  0  0  0  0  0  0  0
    9.0242  -17.6505   25.7601 C   0  0  0  0  0  0  0  0  0  0  0  0
    8.0835  -17.8800   24.7342 O   0  0  0  0  0  0  0  0  0  0  0  0
    9.0867  -18.5926   26.6027 O   0  0  0  0  0  0  0  0  0  0  0  0
  2  1  1  6
  3  2  1  0
  3  4  1  0
  4  5  2  0
  6  2  1  0
  6 14  1  0
  7  6  2  0
  8  4  1  0
  9 10  1  0
 11 10  1  0
 11 12  1  1
 13 11  1  0
 13 15  1  0
 13 14  1  6
 15 16  2  0
 17 15  1  0
 17 18  1  0
 18 19  1  1
 19 20  1  0
 20 28  1  0
 21 20  2  0
 21 22  1  0
 22 23  1  0
 23 24  1  0
 24 25  2  0
 26 25  1  0
 27 26  2  0
 28 23  2  0
 28 27  1  0
 29 30  1  0
 29 18  1  0
 31 29  2  0
M  END
$$$$
