DIW.pdb
     RDKit          3D

 31 32  0  0  1  0  0  0  0  0999 V2000
   10.1654  -17.9830   17.7530 N   0  0  0  0  0  0  0  0  0  0  0  0
   10.9868  -17.9556   18.9435 C   0  0  1  0  0  0  0  0  0  0  0  0
   12.1612  -17.0574   18.7125 C   0  0  0  0  0  0  0  0  0  0  0  0
   13.1834  -17.5935   17.7955 C   0  0  0  0  0  0  0  0  0  0  0  0
   13.1039  -18.7118   17.2350 O   0  0  0  0  0  0  0  0  0  0  0  0
   10.2422  -17.5106   20.1429 C   0  0  0  0  0  0  0  0  0  0  0  0
   10.1036  -16.2982   20.3927 O   0  0  0  0  0  0  0  0  0  0  0  0
   14.3320  -16.8590   17.4933 O   0  0  0  0  0  0  0  0  0  0  0  0
    6.3083  -20.4845   23.9209 C   0  0  0  0  0  0  0  0  0  0  0  0
    7.1826  -19.3425   23.6274 C   0  0  0  0  0  0  0  0  0  0  0  0
    8.1009  -19.3887   22.4835 C   0  0  2  0  0  0  0  0  0  0  0  0
    9.0014  -20.5998   22.5337 C   0  0  0  0  0  0  0  0  0  0  0  0
    8.9185  -18.1607   22.2022 C   0  0  2  0  0  0  0  0  0  0  0  0
    9.6882  -18.4484   21.0120 N   0  0  0  0  0  0  0  0  0  0  0  0
    9.7321  -17.7233   23.3368 C   0  0  0  0  0  0  0  0  0  0  0  0
   10.8787  -18.1803   23.5083 O   0  0  0  0  0  0  0  0  0  0  0  0
    9.2177  -16.7750   24.2428 N   0  0  0  0  0  0  0  0  0  0  0  0
    9.9788  -16.1953   25.3467 C   0  0  1  0  0  0  0  0  0  0  0  0
    9.5566  -14.7898   25.5999 C   0  0  0  0  0  0  0  0  0  0  0  0
    8.1792  -14.5638   26.0390 C   0  0  0  0  0  0  0  0  0  0  0  0
    7.1860  -15.5470   26.2117 C   0  0  0  0  0  0  0  0  0  0  0  0
    6.0532  -14.9595   26.5827 N   0  0  0  0  0  0  0  0  0  0  0  0
    6.2219  -13.6311   26.6727 C   0  0  0  0  0  0  0  0  0  0  0  0
    5.4081  -12.5892   27.0218 C   0  0  0  0  0  0  0  0  0  0  0  0
    5.8499  -11.2696   27.0569 C   0  0  0  0  0  0  0  0  0  0  0  0
    7.1574  -11.0098   26.7262 C   0  0  0  0  0  0  0  0  0  0  0  0
    7.9616  -12.0690   26.3767 C   0  0  0  0  0  0  0  0  0  0  0  0
    7.5339  -13.3767   26.3385 C   0  0  0  0  0  0  0  0  0  0  0  0
    9.8070  -17.0453   26.5162 C   0  0  0  0  0  0  0  0  0  0  0  0
   10.6632  -16.9129   27.6294 O   0  0  0  0  0  0  0  0  0  0  0  0
    8.9286  -17.9444   26.6636 O   0  0  0  0  0  0  0  0  0  0  0  0
  2  1  1  6
  3  2  1  0
  3  4  1  0
  4  5  2  0
  6  2  1  0
  6 14  1  0
  7  6  2  0
  8  4  1  0
  9 10  1  0
 11 10  1  0
 11 12  1  1
 13 11  1  0
 13 15  1  0
 13 14  1  6
 15 16  2  0
 17 15  1  0
 17 18  1  0
 18 19  1  1
 19 20  1  0
 20 28  1  0
 21 20  2  0
 21 22  1  0
 22 23  1  0
 23 24  1  0
 24 25  2  0
 26 25  1  0
 27 26  2  0
 28 23  2  0
 28 27  1  0
 29 30  1  0
 29 18  1  0
 31 29  2  0
M  END
$$$$
