DIW.pdb
     RDKit          3D

 31 32  0  0  1  0  0  0  0  0999 V2000
    9.5533  -19.0923   18.7839 N   0  0  0  0  0  0  0  0  0  0  0  0
    9.1964  -18.8013   20.1553 C   0  0  1  0  0  0  0  0  0  0  0  0
    9.6669  -19.9166   21.0352 C   0  0  0  0  0  0  0  0  0  0  0  0
    9.4623  -21.2697   20.4874 C   0  0  0  0  0  0  0  0  0  0  0  0
    8.3536  -21.7084   20.1009 O   0  0  0  0  0  0  0  0  0  0  0  0
    9.7544  -17.5158   20.6319 C   0  0  0  0  0  0  0  0  0  0  0  0
   10.9610  -17.2489   20.4767 O   0  0  0  0  0  0  0  0  0  0  0  0
   10.5285  -22.1635   20.3664 O   0  0  0  0  0  0  0  0  0  0  0  0
    6.5609  -13.4538   19.6230 C   0  0  0  0  0  0  0  0  0  0  0  0
    7.7196  -14.2770   19.9897 C   0  0  0  0  0  0  0  0  0  0  0  0
    8.1531  -14.3625   21.3893 C   0  0  2  0  0  0  0  0  0  0  0  0
    8.3906  -12.9972   21.9889 C   0  0  0  0  0  0  0  0  0  0  0  0
    9.3152  -15.2616   21.7002 C   0  0  2  0  0  0  0  0  0  0  0  0
    8.9317  -16.5868   21.2659 N   0  0  0  0  0  0  0  0  0  0  0  0
    9.7470  -15.2029   23.0969 C   0  0  0  0  0  0  0  0  0  0  0  0
   10.2588  -14.1650   23.5592 O   0  0  0  0  0  0  0  0  0  0  0  0
    9.5807  -16.3276   23.9289 N   0  0  0  0  0  0  0  0  0  0  0  0
    9.9992  -16.3849   25.3273 C   0  0  1  0  0  0  0  0  0  0  0  0
    8.8216  -16.5365   26.2262 C   0  0  0  0  0  0  0  0  0  0  0  0
    7.7859  -15.5045   26.1673 C   0  0  0  0  0  0  0  0  0  0  0  0
    6.4609  -15.6758   25.7220 C   0  0  0  0  0  0  0  0  0  0  0  0
    5.8295  -14.5079   25.7784 N   0  0  0  0  0  0  0  0  0  0  0  0
    6.6518  -13.5523   26.2385 C   0  0  0  0  0  0  0  0  0  0  0  0
    6.5087  -12.2180   26.5011 C   0  0  0  0  0  0  0  0  0  0  0  0
    7.5424  -11.4372   27.0104 C   0  0  0  0  0  0  0  0  0  0  0  0
    8.7532  -12.0370   27.2569 C   0  0  0  0  0  0  0  0  0  0  0  0
    8.8801  -13.3791   26.9862 C   0  0  0  0  0  0  0  0  0  0  0  0
    7.8643  -14.1592   26.4821 C   0  0  0  0  0  0  0  0  0  0  0  0
   10.9533  -17.4748   25.4743 C   0  0  0  0  0  0  0  0  0  0  0  0
   11.6160  -17.6853   26.7017 O   0  0  0  0  0  0  0  0  0  0  0  0
   11.2805  -18.3070   24.5788 O   0  0  0  0  0  0  0  0  0  0  0  0
  2  1  1  6
  3  2  1  0
  3  4  1  0
  4  5  2  0
  6  2  1  0
  6 14  1  0
  7  6  2  0
  8  4  1  0
  9 10  1  0
 11 10  1  0
 11 12  1  6
 13 11  1  0
 13 15  1  0
 13 14  1  1
 15 16  2  0
 17 15  1  0
 17 18  1  0
 18 19  1  1
 19 20  1  0
 20 28  1  0
 21 20  2  0
 21 22  1  0
 22 23  1  0
 23 24  1  0
 24 25  2  0
 26 25  1  0
 27 26  2  0
 28 23  2  0
 28 27  1  0
 29 30  1  0
 29 18  1  0
 31 29  2  0
M  END
$$$$
