DIW.pdb
     RDKit          3D

 31 32  0  0  1  0  0  0  0  0999 V2000
    9.3705  -19.9240   19.1854 N   0  0  0  0  0  0  0  0  0  0  0  0
    9.1258  -19.4186   20.5187 C   0  0  1  0  0  0  0  0  0  0  0  0
    9.7984  -20.3093   21.5155 C   0  0  0  0  0  0  0  0  0  0  0  0
    9.3612  -21.7168   21.4866 C   0  0  0  0  0  0  0  0  0  0  0  0
    8.5512  -22.1814   20.6504 O   0  0  0  0  0  0  0  0  0  0  0  0
    9.5902  -18.0245   20.6970 C   0  0  0  0  0  0  0  0  0  0  0  0
   10.7643  -17.7055   20.4304 O   0  0  0  0  0  0  0  0  0  0  0  0
    9.8425  -22.6368   22.4205 O   0  0  0  0  0  0  0  0  0  0  0  0
    6.8593  -12.5731   20.4465 C   0  0  0  0  0  0  0  0  0  0  0  0
    7.9567  -13.4048   20.9549 C   0  0  0  0  0  0  0  0  0  0  0  0
    7.8441  -14.8681   20.9402 C   0  0  2  0  0  0  0  0  0  0  0  0
    6.6020  -15.3437   21.6549 C   0  0  0  0  0  0  0  0  0  0  0  0
    9.0322  -15.6585   21.4085 C   0  0  2  0  0  0  0  0  0  0  0  0
    8.7147  -17.0493   21.1708 N   0  0  0  0  0  0  0  0  0  0  0  0
    9.4216  -15.3723   22.7894 C   0  0  0  0  0  0  0  0  0  0  0  0
    9.8649  -14.2509   23.1037 O   0  0  0  0  0  0  0  0  0  0  0  0
    9.2922  -16.3711   23.7746 N   0  0  0  0  0  0  0  0  0  0  0  0
    9.7979  -16.2499   25.1397 C   0  0  1  0  0  0  0  0  0  0  0  0
    8.6843  -16.3278   26.1253 C   0  0  0  0  0  0  0  0  0  0  0  0
    7.6368  -15.3090   26.0473 C   0  0  0  0  0  0  0  0  0  0  0  0
    6.2805  -15.5279   25.7384 C   0  0  0  0  0  0  0  0  0  0  0  0
    5.6443  -14.3613   25.7253 N   0  0  0  0  0  0  0  0  0  0  0  0
    6.4931  -13.3614   26.0094 C   0  0  0  0  0  0  0  0  0  0  0  0
    6.3594  -12.0070   26.1411 C   0  0  0  0  0  0  0  0  0  0  0  0
    7.4248  -11.1754   26.4741 C   0  0  0  0  0  0  0  0  0  0  0  0
    8.6584  -11.7443   26.6773 C   0  0  0  0  0  0  0  0  0  0  0  0
    8.7753  -13.1075   26.5399 C   0  0  0  0  0  0  0  0  0  0  0  0
    7.7282  -13.9377   26.2104 C   0  0  0  0  0  0  0  0  0  0  0  0
   10.7984  -17.2865   25.3500 C   0  0  0  0  0  0  0  0  0  0  0  0
   11.0648  -18.2388   24.3440 O   0  0  0  0  0  0  0  0  0  0  0  0
   11.5008  -17.4467   26.3905 O   0  0  0  0  0  0  0  0  0  0  0  0
  2  1  1  6
  3  2  1  0
  3  4  1  0
  4  5  2  0
  6  2  1  0
  6 14  1  0
  7  6  2  0
  8  4  1  0
  9 10  1  0
 11 10  1  0
 11 12  1  1
 13 11  1  0
 13 15  1  0
 13 14  1  1
 15 16  2  0
 17 15  1  0
 17 18  1  0
 18 19  1  1
 19 20  1  0
 20 28  1  0
 21 20  2  0
 21 22  1  0
 22 23  1  0
 23 24  1  0
 24 25  2  0
 26 25  1  0
 27 26  2  0
 28 23  2  0
 28 27  1  0
 29 30  1  0
 29 18  1  0
 31 29  2  0
M  END
$$$$
