DIW.pdb
     RDKit          3D

 31 32  0  0  1  0  0  0  0  0999 V2000
   12.3903  -16.8507   18.1934 N   0  0  0  0  0  0  0  0  0  0  0  0
   12.3149  -17.5244   19.4714 C   0  0  1  0  0  0  0  0  0  0  0  0
   13.6908  -17.9305   19.8974 C   0  0  0  0  0  0  0  0  0  0  0  0
   14.3194  -18.9695   19.0617 C   0  0  0  0  0  0  0  0  0  0  0  0
   13.8178  -19.4148   18.0029 O   0  0  0  0  0  0  0  0  0  0  0  0
   11.6892  -16.6907   20.5223 C   0  0  0  0  0  0  0  0  0  0  0  0
   12.3034  -15.7293   21.0221 O   0  0  0  0  0  0  0  0  0  0  0  0
   15.5475  -19.5308   19.4180 O   0  0  0  0  0  0  0  0  0  0  0  0
    6.7053  -15.3921   19.5576 C   0  0  0  0  0  0  0  0  0  0  0  0
    8.0485  -15.4808   20.1430 C   0  0  0  0  0  0  0  0  0  0  0  0
    8.2476  -16.1334   21.4424 C   0  0  2  0  0  0  0  0  0  0  0  0
    7.3530  -15.5480   22.5086 C   0  0  0  0  0  0  0  0  0  0  0  0
    9.6544  -16.2318   21.9591 C   0  0  2  0  0  0  0  0  0  0  0  0
   10.4003  -16.9762   20.9686 N   0  0  0  0  0  0  0  0  0  0  0  0
    9.7476  -16.7912   23.3078 C   0  0  0  0  0  0  0  0  0  0  0  0
    9.8774  -18.0189   23.4774 O   0  0  0  0  0  0  0  0  0  0  0  0
    9.6935  -15.9357   24.4258 N   0  0  0  0  0  0  0  0  0  0  0  0
    9.8519  -16.3788   25.8087 C   0  0  1  0  0  0  0  0  0  0  0  0
    9.4897  -15.2901   26.7581 C   0  0  0  0  0  0  0  0  0  0  0  0
    8.1470  -14.7179   26.6538 C   0  0  0  0  0  0  0  0  0  0  0  0
    6.9531  -15.4270   26.4194 C   0  0  0  0  0  0  0  0  0  0  0  0
    5.9429  -14.5662   26.3519 N   0  0  0  0  0  0  0  0  0  0  0  0
    6.3841  -13.3111   26.5285 C   0  0  0  0  0  0  0  0  0  0  0  0
    5.7786  -12.0858   26.5706 C   0  0  0  0  0  0  0  0  0  0  0  0
    6.4829  -10.9070   26.7985 C   0  0  0  0  0  0  0  0  0  0  0  0
    7.8411  -10.9840   26.9880 C   0  0  0  0  0  0  0  0  0  0  0  0
    8.4338  -12.2239   26.9416 C   0  0  0  0  0  0  0  0  0  0  0  0
    7.7463  -13.3947   26.7163 C   0  0  0  0  0  0  0  0  0  0  0  0
    9.0433  -17.5742   26.0009 C   0  0  0  0  0  0  0  0  0  0  0  0
    9.3344  -18.4748   27.0469 O   0  0  0  0  0  0  0  0  0  0  0  0
    8.0499  -17.9248   25.2996 O   0  0  0  0  0  0  0  0  0  0  0  0
  2  1  1  6
  3  2  1  0
  3  4  1  0
  4  5  2  0
  6  2  1  0
  6 14  1  0
  7  6  2  0
  8  4  1  0
  9 10  1  0
 11 10  1  0
 11 12  1  1
 13 11  1  0
 13 15  1  0
 13 14  1  6
 15 16  2  0
 17 15  1  0
 17 18  1  0
 18 19  1  1
 19 20  1  0
 20 28  1  0
 21 20  2  0
 21 22  1  0
 22 23  1  0
 23 24  1  0
 24 25  2  0
 26 25  1  0
 27 26  2  0
 28 23  2  0
 28 27  1  0
 29 30  1  0
 29 18  1  0
 31 29  2  0
M  END
$$$$
