DIW.pdb
     RDKit          3D

 31 32  0  0  1  0  0  0  0  0999 V2000
    9.7201  -18.6372   19.9126 N   0  0  0  0  0  0  0  0  0  0  0  0
   11.0120  -18.0852   20.2579 C   0  0  1  0  0  0  0  0  0  0  0  0
   11.8680  -18.0276   19.0317 C   0  0  0  0  0  0  0  0  0  0  0  0
   12.1463  -19.3328   18.4056 C   0  0  0  0  0  0  0  0  0  0  0  0
   11.9523  -20.4354   18.9692 O   0  0  0  0  0  0  0  0  0  0  0  0
   10.9157  -16.7396   20.8669 C   0  0  0  0  0  0  0  0  0  0  0  0
   11.9087  -15.9892   20.9134 O   0  0  0  0  0  0  0  0  0  0  0  0
   12.6578  -19.4117   17.1085 O   0  0  0  0  0  0  0  0  0  0  0  0
    5.6675  -14.9275   21.1520 C   0  0  0  0  0  0  0  0  0  0  0  0
    6.9752  -15.3560   21.6627 C   0  0  0  0  0  0  0  0  0  0  0  0
    8.1607  -14.5150   21.4590 C   0  0  2  0  0  0  0  0  0  0  0  0
    8.3377  -14.1346   20.0085 C   0  0  0  0  0  0  0  0  0  0  0  0
    9.4646  -15.0103   22.0157 C   0  0  2  0  0  0  0  0  0  0  0  0
    9.7070  -16.2967   21.4007 N   0  0  0  0  0  0  0  0  0  0  0  0
    9.5060  -15.0409   23.4779 C   0  0  0  0  0  0  0  0  0  0  0  0
    9.1368  -14.0542   24.1434 O   0  0  0  0  0  0  0  0  0  0  0  0
    9.9640  -16.1963   24.1412 N   0  0  0  0  0  0  0  0  0  0  0  0
   10.0690  -16.3241   25.5926 C   0  0  1  0  0  0  0  0  0  0  0  0
    8.7497  -16.6708   26.1901 C   0  0  0  0  0  0  0  0  0  0  0  0
    7.6784  -15.6790   26.0911 C   0  0  0  0  0  0  0  0  0  0  0  0
    6.3642  -15.9114   25.6416 C   0  0  0  0  0  0  0  0  0  0  0  0
    5.6912  -14.7657   25.6565 N   0  0  0  0  0  0  0  0  0  0  0  0
    6.4750  -13.7673   26.0923 C   0  0  0  0  0  0  0  0  0  0  0  0
    6.2823  -12.4315   26.3117 C   0  0  0  0  0  0  0  0  0  0  0  0
    7.2832  -11.5986   26.8037 C   0  0  0  0  0  0  0  0  0  0  0  0
    8.5124  -12.1466   27.0779 C   0  0  0  0  0  0  0  0  0  0  0  0
    8.6893  -13.4912   26.8506 C   0  0  0  0  0  0  0  0  0  0  0  0
    7.7062  -14.3225   26.3639 C   0  0  0  0  0  0  0  0  0  0  0  0
   11.0913  -17.3167   25.8912 C   0  0  0  0  0  0  0  0  0  0  0  0
   11.4568  -17.5886   27.2262 O   0  0  0  0  0  0  0  0  0  0  0  0
   11.7314  -18.0074   25.0457 O   0  0  0  0  0  0  0  0  0  0  0  0
  2  1  1  6
  3  2  1  0
  3  4  1  0
  4  5  2  0
  6  2  1  0
  6 14  1  0
  7  6  2  0
  8  4  1  0
  9 10  1  0
 11 10  1  0
 11 12  1  6
 13 11  1  0
 13 15  1  0
 13 14  1  6
 15 16  2  0
 17 15  1  0
 17 18  1  0
 18 19  1  6
 19 20  1  0
 20 28  1  0
 21 20  2  0
 21 22  1  0
 22 23  1  0
 23 24  1  0
 24 25  2  0
 26 25  1  0
 27 26  2  0
 28 23  2  0
 28 27  1  0
 29 30  1  0
 29 18  1  0
 31 29  2  0
M  END
$$$$
