DIW.pdb
     RDKit          3D

 31 32  0  0  1  0  0  0  0  0999 V2000
   11.0430  -16.9203   17.7319 N   0  0  0  0  0  0  0  0  0  0  0  0
   10.7683  -17.6044   18.9766 C   0  0  1  0  0  0  0  0  0  0  0  0
   11.8068  -18.6585   19.2003 C   0  0  0  0  0  0  0  0  0  0  0  0
   11.3440  -19.8373   19.9549 C   0  0  0  0  0  0  0  0  0  0  0  0
   10.1375  -20.1076   20.1607 O   0  0  0  0  0  0  0  0  0  0  0  0
   10.7259  -16.6868   20.1373 C   0  0  0  0  0  0  0  0  0  0  0  0
   11.7720  -16.1865   20.5921 O   0  0  0  0  0  0  0  0  0  0  0  0
   12.2560  -20.7447   20.4981 O   0  0  0  0  0  0  0  0  0  0  0  0
    7.1326  -12.8989   19.8859 C   0  0  0  0  0  0  0  0  0  0  0  0
    8.2800  -13.6825   20.3592 C   0  0  0  0  0  0  0  0  0  0  0  0
    8.1276  -14.6116   21.4851 C   0  0  2  0  0  0  0  0  0  0  0  0
    7.6045  -13.9178   22.7200 C   0  0  0  0  0  0  0  0  0  0  0  0
    9.3113  -15.4629   21.8451 C   0  0  2  0  0  0  0  0  0  0  0  0
    9.5086  -16.3737   20.7391 N   0  0  0  0  0  0  0  0  0  0  0  0
    9.1831  -16.1307   23.1406 C   0  0  0  0  0  0  0  0  0  0  0  0
    8.3208  -17.0129   23.3165 O   0  0  0  0  0  0  0  0  0  0  0  0
   10.0431  -15.7766   24.1988 N   0  0  0  0  0  0  0  0  0  0  0  0
   10.0863  -16.4625   25.4879 C   0  0  1  0  0  0  0  0  0  0  0  0
    9.6012  -15.5713   26.5780 C   0  0  0  0  0  0  0  0  0  0  0  0
    8.2518  -15.0194   26.4531 C   0  0  0  0  0  0  0  0  0  0  0  0
    7.0722  -15.7466   26.2027 C   0  0  0  0  0  0  0  0  0  0  0  0
    6.0503  -14.9012   26.1189 N   0  0  0  0  0  0  0  0  0  0  0  0
    6.4701  -13.6394   26.2995 C   0  0  0  0  0  0  0  0  0  0  0  0
    5.8459  -12.4232   26.3304 C   0  0  0  0  0  0  0  0  0  0  0  0
    6.5291  -11.2335   26.5663 C   0  0  0  0  0  0  0  0  0  0  0  0
    7.8854  -11.2899   26.7756 C   0  0  0  0  0  0  0  0  0  0  0  0
    8.4972  -12.5209   26.7402 C   0  0  0  0  0  0  0  0  0  0  0  0
    7.8305  -13.7022   26.5072 C   0  0  0  0  0  0  0  0  0  0  0  0
    9.3034  -17.6853   25.3813 C   0  0  0  0  0  0  0  0  0  0  0  0
    9.5518  -18.7720   26.2457 O   0  0  0  0  0  0  0  0  0  0  0  0
    8.3697  -17.9049   24.5557 O   0  0  0  0  0  0  0  0  0  0  0  0
  2  1  1  6
  3  2  1  0
  3  4  1  0
  4  5  2  0
  6  2  1  0
  6 14  1  0
  7  6  2  0
  8  4  1  0
  9 10  1  0
 11 10  1  0
 11 12  1  1
 13 11  1  0
 13 15  1  0
 13 14  1  6
 15 16  2  0
 17 15  1  0
 17 18  1  0
 18 19  1  1
 19 20  1  0
 20 28  1  0
 21 20  2  0
 21 22  1  0
 22 23  1  0
 23 24  1  0
 24 25  2  0
 26 25  1  0
 27 26  2  0
 28 23  2  0
 28 27  1  0
 29 30  1  0
 29 18  1  0
 31 29  2  0
M  END
$$$$
