SPG.pdb
     RDKit          3D

 18 18  0  0  1  0  0  0  0  0999 V2000
   28.1179  -17.3290  -15.9503 O   0  0  0  0  0  0  0  0  0  0  0  0
   27.0163  -18.1180  -15.6112 C   0  0  0  0  0  0  0  0  0  0  0  0
   27.3335  -19.5891  -15.7844 C   0  0  2  0  0  0  0  0  0  0  0  0
   27.4772  -19.9669  -17.1524 N   0  0  0  0  0  0  0  0  0  0  0  0
   26.2249  -20.3516  -15.1719 C   0  0  0  0  0  0  0  0  0  0  0  0
   25.2662  -20.6650  -15.9454 O   0  0  0  0  0  0  0  0  0  0  0  0
   26.1564  -20.7479  -13.8193 N   0  0  0  0  0  0  0  0  0  0  0  0
   27.2110  -20.5334  -12.8541 C   0  0  0  0  0  0  0  0  0  0  0  0
   26.6949  -21.1699  -11.5559 C   0  0  0  0  0  0  0  0  0  0  0  0
   25.7246  -22.1906  -12.0947 C   0  0  0  0  0  0  0  0  0  0  0  0
   25.0416  -21.4204  -13.1989 C   0  0  1  0  0  0  0  0  0  0  0  0
   24.0552  -20.4824  -12.5921 C   0  0  0  0  0  0  0  0  0  0  0  0
   24.3646  -19.6578  -11.7064 O   0  0  0  0  0  0  0  0  0  0  0  0
   22.7159  -20.5425  -13.0529 N   0  0  0  0  0  0  0  0  0  0  0  0
   21.9296  -21.7454  -13.0613 C   0  0  0  0  0  0  0  0  0  0  0  0
   20.7267  -21.5417  -13.8944 C   0  0  0  0  0  0  0  0  0  0  0  0
   20.7899  -20.8006  -15.0522 O   0  0  0  0  0  0  0  0  0  0  0  0
   19.6110  -22.0329  -13.5801 O   0  0  0  0  0  0  0  0  0  0  0  0
  2  1  1  0
  3  2  1  0
  3  4  1  6
  5  6  2  0
  5  3  1  0
  7  5  1  0
  8  7  1  0
  9  8  1  0
 10  9  1  0
 10 11  1  0
 11  7  1  0
 11 12  1  1
 12 13  2  0
 14 12  1  0
 14 15  1  0
 15 16  1  0
 16 18  2  0
 16 17  1  0
M  END
$$$$
