SPG.pdb
     RDKit          3D

 18 18  0  0  1  0  0  0  0  0999 V2000
   16.4174  -10.4891  -17.8354 O   0  0  0  0  0  0  0  0  0  0  0  0
   17.4196  -10.1781  -16.9134 C   0  0  0  0  0  0  0  0  0  0  0  0
   18.5489  -11.1851  -16.9852 C   0  0  2  0  0  0  0  0  0  0  0  0
   18.2036  -12.4456  -16.4138 N   0  0  0  0  0  0  0  0  0  0  0  0
   19.6984  -10.6073  -16.2569 C   0  0  0  0  0  0  0  0  0  0  0  0
   19.7874  -10.9050  -15.0244 O   0  0  0  0  0  0  0  0  0  0  0  0
   20.6825   -9.7671  -16.8198 N   0  0  0  0  0  0  0  0  0  0  0  0
   20.7358   -9.3987  -18.2166 C   0  0  0  0  0  0  0  0  0  0  0  0
   21.9912   -8.5249  -18.3479 C   0  0  0  0  0  0  0  0  0  0  0  0
   22.8148   -9.0172  -17.1848 C   0  0  0  0  0  0  0  0  0  0  0  0
   21.7734   -9.1563  -16.1008 C   0  0  1  0  0  0  0  0  0  0  0  0
   21.4429   -7.8016  -15.5747 C   0  0  0  0  0  0  0  0  0  0  0  0
   20.5022   -7.1140  -16.0244 O   0  0  0  0  0  0  0  0  0  0  0  0
   22.2394   -7.2900  -14.5195 N   0  0  0  0  0  0  0  0  0  0  0  0
   21.8417   -6.1926  -13.6812 C   0  0  0  0  0  0  0  0  0  0  0  0
   22.0442   -4.9209  -14.4055 C   0  0  0  0  0  0  0  0  0  0  0  0
   20.9840   -4.2687  -14.9922 O   0  0  0  0  0  0  0  0  0  0  0  0
   23.1817   -4.3920  -14.5122 O   0  0  0  0  0  0  0  0  0  0  0  0
  2  1  1  0
  3  2  1  0
  3  4  1  1
  5  6  2  0
  5  3  1  0
  7  5  1  0
  8  7  1  0
  9  8  1  0
 10  9  1  0
 10 11  1  0
 11  7  1  0
 11 12  1  6
 12 13  2  0
 14 12  1  0
 14 15  1  0
 15 16  1  0
 16 18  2  0
 16 17  1  0
M  END
$$$$
