SPG.pdb
     RDKit          3D

 18 18  0  0  1  0  0  0  0  0999 V2000
   20.7780  -19.5890  -13.3712 O   0  0  0  0  0  0  0  0  0  0  0  0
   21.9774  -19.2451  -12.7434 C   0  0  0  0  0  0  0  0  0  0  0  0
   22.7678  -20.4841  -12.3762 C   0  0  2  0  0  0  0  0  0  0  0  0
   23.4612  -21.0479  -13.4879 N   0  0  0  0  0  0  0  0  0  0  0  0
   21.8091  -21.4712  -11.8357 C   0  0  0  0  0  0  0  0  0  0  0  0
   21.4026  -22.3601  -12.6482 O   0  0  0  0  0  0  0  0  0  0  0  0
   21.3237  -21.4969  -10.5109 N   0  0  0  0  0  0  0  0  0  0  0  0
   21.6900  -20.5396   -9.4914 C   0  0  0  0  0  0  0  0  0  0  0  0
   20.9536  -21.0061   -8.2277 C   0  0  0  0  0  0  0  0  0  0  0  0
   20.7816  -22.4765   -8.5137 C   0  0  0  0  0  0  0  0  0  0  0  0
   20.4026  -22.4686   -9.9749 C   0  0  1  0  0  0  0  0  0  0  0  0
   18.9762  -22.0549  -10.0995 C   0  0  0  0  0  0  0  0  0  0  0  0
   18.6316  -20.8703  -10.2940 O   0  0  0  0  0  0  0  0  0  0  0  0
   17.9842  -23.0618   -9.9915 N   0  0  0  0  0  0  0  0  0  0  0  0
   16.8541  -23.1646  -10.8733 C   0  0  0  0  0  0  0  0  0  0  0  0
   15.7135  -22.4201  -10.3012 C   0  0  0  0  0  0  0  0  0  0  0  0
   14.5007  -22.3830  -10.9503 O   0  0  0  0  0  0  0  0  0  0  0  0
   15.8071  -21.7984   -9.2105 O   0  0  0  0  0  0  0  0  0  0  0  0
  2  1  1  0
  3  2  1  0
  3  4  1  6
  5  6  2  0
  5  3  1  0
  7  5  1  0
  8  7  1  0
  9  8  1  0
 10  9  1  0
 10 11  1  0
 11  7  1  0
 11 12  1  1
 12 13  2  0
 14 12  1  0
 14 15  1  0
 15 16  1  0
 16 18  2  0
 16 17  1  0
M  END
$$$$
