SPG.pdb
     RDKit          3D

 18 18  0  0  1  0  0  0  0  0999 V2000
   16.0089  -19.0856    4.6249 O   0  0  0  0  0  0  0  0  0  0  0  0
   16.9761  -18.7982    3.6591 C   0  0  0  0  0  0  0  0  0  0  0  0
   17.6645  -20.0644    3.1926 C   0  0  2  0  0  0  0  0  0  0  0  0
   16.7570  -21.0167    2.6411 N   0  0  0  0  0  0  0  0  0  0  0  0
   18.3471  -20.6498    4.3661 C   0  0  0  0  0  0  0  0  0  0  0  0
   17.9448  -21.7985    4.7325 O   0  0  0  0  0  0  0  0  0  0  0  0
   19.3907  -20.0381    5.0926 N   0  0  0  0  0  0  0  0  0  0  0  0
   19.9230  -18.7255    4.8033 C   0  0  0  0  0  0  0  0  0  0  0  0
   21.0551  -18.5244    5.8205 C   0  0  0  0  0  0  0  0  0  0  0  0
   21.4314  -19.9519    6.1273 C   0  0  0  0  0  0  0  0  0  0  0  0
   20.0801  -20.6189    6.2184 C   0  0  1  0  0  0  0  0  0  0  0  0
   19.4598  -20.2716    7.5283 C   0  0  0  0  0  0  0  0  0  0  0  0
   18.7225  -19.2754    7.6828 O   0  0  0  0  0  0  0  0  0  0  0  0
   19.7281  -21.1196    8.6321 N   0  0  0  0  0  0  0  0  0  0  0  0
   19.1143  -20.9659    9.9224 C   0  0  0  0  0  0  0  0  0  0  0  0
   19.4797  -22.1111   10.7813 C   0  0  0  0  0  0  0  0  0  0  0  0
   20.3411  -23.0839   10.3281 O   0  0  0  0  0  0  0  0  0  0  0  0
   19.0219  -22.2388   11.9470 O   0  0  0  0  0  0  0  0  0  0  0  0
  2  1  1  0
  3  2  1  0
  3  4  1  1
  5  6  2  0
  5  3  1  0
  7  5  1  0
  8  7  1  0
  9  8  1  0
 10  9  1  0
 10 11  1  0
 11  7  1  0
 11 12  1  1
 12 13  2  0
 14 12  1  0
 14 15  1  0
 15 16  1  0
 16 18  2  0
 16 17  1  0
M  END
$$$$
