SPG.pdb
     RDKit          3D

 18 18  0  0  1  0  0  0  0  0999 V2000
   20.9382  -11.6936  -20.0522 O   0  0  0  0  0  0  0  0  0  0  0  0
   20.6689  -10.9666  -18.8903 C   0  0  0  0  0  0  0  0  0  0  0  0
   20.6493  -11.8754  -17.6786 C   0  0  2  0  0  0  0  0  0  0  0  0
   19.5104  -12.7337  -17.6489 N   0  0  0  0  0  0  0  0  0  0  0  0
   20.6501  -11.0089  -16.4808 C   0  0  0  0  0  0  0  0  0  0  0  0
   19.5096  -10.6990  -16.0130 O   0  0  0  0  0  0  0  0  0  0  0  0
   21.8014  -10.5120  -15.8336 N   0  0  0  0  0  0  0  0  0  0  0  0
   23.1557  -10.7819  -16.2613 C   0  0  0  0  0  0  0  0  0  0  0  0
   24.0451  -10.0740  -15.2295 C   0  0  0  0  0  0  0  0  0  0  0  0
   23.1303  -10.0334  -14.0316 C   0  0  0  0  0  0  0  0  0  0  0  0
   21.8066   -9.6723  -14.6610 C   0  0  1  0  0  0  0  0  0  0  0  0
   21.8080   -8.2170  -14.9824 C   0  0  0  0  0  0  0  0  0  0  0  0
   22.3159   -7.7569  -16.0266 O   0  0  0  0  0  0  0  0  0  0  0  0
   21.2019   -7.3344  -14.0532 N   0  0  0  0  0  0  0  0  0  0  0  0
   20.8067   -5.9901  -14.3725 C   0  0  0  0  0  0  0  0  0  0  0  0
   21.9488   -5.0773  -14.1603 C   0  0  0  0  0  0  0  0  0  0  0  0
   23.1607   -5.5573  -13.7192 O   0  0  0  0  0  0  0  0  0  0  0  0
   21.8574   -3.8398  -14.3725 O   0  0  0  0  0  0  0  0  0  0  0  0
  2  1  1  0
  3  2  1  0
  3  4  1  6
  5  6  2  0
  5  3  1  0
  7  5  1  0
  8  7  1  0
  9  8  1  0
 10  9  1  0
 10 11  1  0
 11  7  1  0
 11 12  1  6
 12 13  2  0
 14 12  1  0
 14 15  1  0
 15 16  1  0
 16 18  2  0
 16 17  1  0
M  END
$$$$
