SPG.pdb
     RDKit          3D

 18 18  0  0  1  0  0  0  0  0999 V2000
   18.7310  -17.4282  -13.1880 O   0  0  0  0  0  0  0  0  0  0  0  0
   19.9952  -16.8357  -13.2272 C   0  0  0  0  0  0  0  0  0  0  0  0
   20.1278  -15.9287  -14.4333 C   0  0  2  0  0  0  0  0  0  0  0  0
   19.0229  -15.0386  -14.5806 N   0  0  0  0  0  0  0  0  0  0  0  0
   20.2292  -16.7969  -15.6256 C   0  0  0  0  0  0  0  0  0  0  0  0
   19.1610  -16.9541  -16.2963 O   0  0  0  0  0  0  0  0  0  0  0  0
   21.4015  -17.4494  -16.0629 N   0  0  0  0  0  0  0  0  0  0  0  0
   22.6901  -17.3252  -15.4195 C   0  0  0  0  0  0  0  0  0  0  0  0
   23.6433  -18.1704  -16.2761 C   0  0  0  0  0  0  0  0  0  0  0  0
   22.9392  -18.1471  -17.6092 C   0  0  0  0  0  0  0  0  0  0  0  0
   21.4961  -18.3264  -17.2038 C   0  0  1  0  0  0  0  0  0  0  0  0
   21.2669  -19.7589  -16.8624 C   0  0  0  0  0  0  0  0  0  0  0  0
   21.4521  -20.2173  -15.7154 O   0  0  0  0  0  0  0  0  0  0  0  0
   20.8191  -20.6209  -17.8949 N   0  0  0  0  0  0  0  0  0  0  0  0
   20.5248  -22.0137  -17.6981 C   0  0  0  0  0  0  0  0  0  0  0  0
   19.1342  -22.1608  -17.2215 C   0  0  0  0  0  0  0  0  0  0  0  0
   18.3110  -21.0643  -17.1037 O   0  0  0  0  0  0  0  0  0  0  0  0
   18.6552  -23.2822  -16.9086 O   0  0  0  0  0  0  0  0  0  0  0  0
  2  1  1  0
  3  2  1  0
  3  4  1  6
  5  6  2  0
  5  3  1  0
  7  5  1  0
  8  7  1  0
  9  8  1  0
 10  9  1  0
 10 11  1  0
 11  7  1  0
 11 12  1  1
 12 13  2  0
 14 12  1  0
 14 15  1  0
 15 16  1  0
 16 18  2  0
 16 17  1  0
M  END
$$$$
