SPG.pdb
     RDKit          3D

 18 18  0  0  1  0  0  0  0  0999 V2000
   23.1692  -12.5711  -20.4594 O   0  0  0  0  0  0  0  0  0  0  0  0
   23.0902  -11.7928  -19.3023 C   0  0  0  0  0  0  0  0  0  0  0  0
   23.4758  -12.6022  -18.0813 C   0  0  2  0  0  0  0  0  0  0  0  0
   22.7212  -13.8060  -17.9544 N   0  0  0  0  0  0  0  0  0  0  0  0
   23.2483  -11.7458  -16.8979 C   0  0  0  0  0  0  0  0  0  0  0  0
   22.0990  -11.8263  -16.3609 O   0  0  0  0  0  0  0  0  0  0  0  0
   24.1951  -10.8645  -16.3339 N   0  0  0  0  0  0  0  0  0  0  0  0
   25.5284  -10.6609  -16.8544 C   0  0  0  0  0  0  0  0  0  0  0  0
   26.1818   -9.6619  -15.8891 C   0  0  0  0  0  0  0  0  0  0  0  0
   25.3891   -9.9081  -14.6304 C   0  0  0  0  0  0  0  0  0  0  0  0
   23.9846  -10.0438  -15.1669 C   0  0  1  0  0  0  0  0  0  0  0  0
   23.4606   -8.6868  -15.4914 C   0  0  0  0  0  0  0  0  0  0  0  0
   23.7120   -8.1061  -16.5683 O   0  0  0  0  0  0  0  0  0  0  0  0
   22.6440   -8.0454  -14.5264 N   0  0  0  0  0  0  0  0  0  0  0  0
   21.7694   -6.9455  -14.8273 C   0  0  0  0  0  0  0  0  0  0  0  0
   22.4320   -5.6759  -14.4647 C   0  0  0  0  0  0  0  0  0  0  0  0
   23.7592   -5.4650  -14.7613 O   0  0  0  0  0  0  0  0  0  0  0  0
   21.8145   -4.7494  -13.8771 O   0  0  0  0  0  0  0  0  0  0  0  0
  2  1  1  0
  3  2  1  0
  3  4  1  1
  5  6  2  0
  5  3  1  0
  7  5  1  0
  8  7  1  0
  9  8  1  0
 10  9  1  0
 10 11  1  0
 11  7  1  0
 11 12  1  6
 12 13  2  0
 14 12  1  0
 14 15  1  0
 15 16  1  0
 16 18  2  0
 16 17  1  0
M  END
$$$$
