SPG.pdb
     RDKit          3D

 18 18  0  0  1  0  0  0  0  0999 V2000
   18.9197   -6.9308  -18.1713 O   0  0  0  0  0  0  0  0  0  0  0  0
   19.5271   -8.1226  -18.5732 C   0  0  0  0  0  0  0  0  0  0  0  0
   19.3267   -9.2065  -17.5340 C   0  0  2  0  0  0  0  0  0  0  0  0
   17.9531   -9.5357  -17.3356 N   0  0  0  0  0  0  0  0  0  0  0  0
   19.9074   -8.7121  -16.2675 C   0  0  0  0  0  0  0  0  0  0  0  0
   19.0808   -8.2848  -15.4016 O   0  0  0  0  0  0  0  0  0  0  0  0
   21.2838   -8.6815  -15.9577 N   0  0  0  0  0  0  0  0  0  0  0  0
   22.3266   -9.1598  -16.8373 C   0  0  0  0  0  0  0  0  0  0  0  0
   23.6299   -8.9606  -16.0507 C   0  0  0  0  0  0  0  0  0  0  0  0
   23.1238   -8.9911  -14.6308 C   0  0  0  0  0  0  0  0  0  0  0  0
   21.8558   -8.1782  -14.7332 C   0  0  1  0  0  0  0  0  0  0  0  0
   22.2151   -6.7336  -14.8046 C   0  0  0  0  0  0  0  0  0  0  0  0
   22.5670   -6.1773  -15.8661 O   0  0  0  0  0  0  0  0  0  0  0  0
   22.1473   -5.9758  -13.6084 N   0  0  0  0  0  0  0  0  0  0  0  0
   22.3137   -4.5492  -13.5587 C   0  0  0  0  0  0  0  0  0  0  0  0
   21.1392   -3.8947  -14.1707 C   0  0  0  0  0  0  0  0  0  0  0  0
   19.8624   -4.2666  -13.8168 O   0  0  0  0  0  0  0  0  0  0  0  0
   21.2607   -2.9823  -15.0296 O   0  0  0  0  0  0  0  0  0  0  0  0
  2  1  1  0
  3  2  1  0
  3  4  1  1
  5  6  2  0
  5  3  1  0
  7  5  1  0
  8  7  1  0
  9  8  1  0
 10  9  1  0
 10 11  1  0
 11  7  1  0
 11 12  1  6
 12 13  2  0
 14 12  1  0
 14 15  1  0
 15 16  1  0
 16 18  2  0
 16 17  1  0
M  END
$$$$
