SPG.pdb
     RDKit          3D

 18 18  0  0  1  0  0  0  0  0999 V2000
   28.0147  -18.7822  -17.4361 O   0  0  0  0  0  0  0  0  0  0  0  0
   27.3679  -19.5273  -16.4475 C   0  0  0  0  0  0  0  0  0  0  0  0
   28.1268  -20.8047  -16.1525 C   0  0  2  0  0  0  0  0  0  0  0  0
   27.9639  -21.7924  -17.1687 N   0  0  0  0  0  0  0  0  0  0  0  0
   27.6214  -21.3276  -14.8654 C   0  0  0  0  0  0  0  0  0  0  0  0
   26.6049  -22.0880  -14.9303 O   0  0  0  0  0  0  0  0  0  0  0  0
   28.1746  -21.0491  -13.5975 N   0  0  0  0  0  0  0  0  0  0  0  0
   29.3436  -20.2262  -13.3827 C   0  0  0  0  0  0  0  0  0  0  0  0
   29.5780  -20.2598  -11.8659 C   0  0  0  0  0  0  0  0  0  0  0  0
   28.9223  -21.5662  -11.4961 C   0  0  0  0  0  0  0  0  0  0  0  0
   27.6694  -21.5365  -12.3377 C   0  0  1  0  0  0  0  0  0  0  0  0
   26.6861  -20.6131  -11.7039 C   0  0  0  0  0  0  0  0  0  0  0  0
   26.6186  -19.3992  -11.9902 O   0  0  0  0  0  0  0  0  0  0  0  0
   25.7982  -21.1535  -10.7399 N   0  0  0  0  0  0  0  0  0  0  0  0
   24.7151  -22.0409  -11.0635 C   0  0  0  0  0  0  0  0  0  0  0  0
   23.6564  -21.2895  -11.7684 C   0  0  0  0  0  0  0  0  0  0  0  0
   23.4797  -21.4285  -13.1260 O   0  0  0  0  0  0  0  0  0  0  0  0
   22.8845  -20.5024  -11.1604 O   0  0  0  0  0  0  0  0  0  0  0  0
  2  1  1  0
  3  2  1  0
  3  4  1  6
  5  6  2  0
  5  3  1  0
  7  5  1  0
  8  7  1  0
  9  8  1  0
 10  9  1  0
 10 11  1  0
 11  7  1  0
 11 12  1  1
 12 13  2  0
 14 12  1  0
 14 15  1  0
 15 16  1  0
 16 18  2  0
 16 17  1  0
M  END
$$$$
