SPG.pdb
     RDKit          3D

 18 18  0  0  1  0  0  0  0  0999 V2000
   24.3644  -22.7679  -11.6699 O   0  0  0  0  0  0  0  0  0  0  0  0
   25.5605  -22.4181  -11.0390 C   0  0  0  0  0  0  0  0  0  0  0  0
   25.5851  -20.9390  -10.7131 C   0  0  2  0  0  0  0  0  0  0  0  0
   24.3132  -20.4418  -10.3010 N   0  0  0  0  0  0  0  0  0  0  0  0
   26.0251  -20.2288  -11.9328 C   0  0  0  0  0  0  0  0  0  0  0  0
   25.1507  -19.5062  -12.5063 O   0  0  0  0  0  0  0  0  0  0  0  0
   27.3183  -20.2941  -12.4937 N   0  0  0  0  0  0  0  0  0  0  0  0
   28.4253  -21.0136  -11.9048 C   0  0  0  0  0  0  0  0  0  0  0  0
   29.6114  -20.7525  -12.8438 C   0  0  0  0  0  0  0  0  0  0  0  0
   29.2050  -19.4443  -13.4739 C   0  0  0  0  0  0  0  0  0  0  0  0
   27.7317  -19.6610  -13.7218 C   0  0  1  0  0  0  0  0  0  0  0  0
   27.5689  -20.5372  -14.9164 C   0  0  0  0  0  0  0  0  0  0  0  0
   27.6662  -21.7811  -14.8594 O   0  0  0  0  0  0  0  0  0  0  0  0
   27.2910  -19.9148  -16.1595 N   0  0  0  0  0  0  0  0  0  0  0  0
   26.4346  -20.4859  -17.1624 C   0  0  0  0  0  0  0  0  0  0  0  0
   25.2189  -19.6581  -17.3015 C   0  0  0  0  0  0  0  0  0  0  0  0
   24.6891  -19.3889  -18.5427 O   0  0  0  0  0  0  0  0  0  0  0  0
   24.6284  -19.1732  -16.3009 O   0  0  0  0  0  0  0  0  0  0  0  0
  2  1  1  0
  3  2  1  0
  3  4  1  6
  5  6  2  0
  5  3  1  0
  7  5  1  0
  8  7  1  0
  9  8  1  0
 10  9  1  0
 10 11  1  0
 11  7  1  0
 11 12  1  6
 12 13  2  0
 14 12  1  0
 14 15  1  0
 15 16  1  0
 16 18  2  0
 16 17  1  0
M  END
$$$$
