SPG.pdb
     RDKit          3D

 18 18  0  0  1  0  0  0  0  0999 V2000
   20.5933  -12.0422  -16.5329 O   0  0  0  0  0  0  0  0  0  0  0  0
   21.1550  -10.8014  -16.2232 C   0  0  0  0  0  0  0  0  0  0  0  0
   22.6676  -10.8672  -16.2734 C   0  0  2  0  0  0  0  0  0  0  0  0
   23.2073  -11.8624  -15.4056 N   0  0  0  0  0  0  0  0  0  0  0  0
   23.1774   -9.5361  -15.8812 C   0  0  0  0  0  0  0  0  0  0  0  0
   23.2505   -9.3100  -14.6325 O   0  0  0  0  0  0  0  0  0  0  0  0
   23.5802   -8.5207  -16.7744 N   0  0  0  0  0  0  0  0  0  0  0  0
   23.5350   -8.6387  -18.2145 C   0  0  0  0  0  0  0  0  0  0  0  0
   24.1100   -7.3152  -18.7383 C   0  0  0  0  0  0  0  0  0  0  0  0
   24.9715   -6.8888  -17.5767 C   0  0  0  0  0  0  0  0  0  0  0  0
   24.0941   -7.2274  -16.3958 C   0  0  1  0  0  0  0  0  0  0  0  0
   23.0328   -6.1885  -16.2717 C   0  0  0  0  0  0  0  0  0  0  0  0
   22.0363   -6.1485  -17.0237 O   0  0  0  0  0  0  0  0  0  0  0  0
   23.1769   -5.2150  -15.2513 N   0  0  0  0  0  0  0  0  0  0  0  0
   22.1371   -4.2983  -14.8723 C   0  0  0  0  0  0  0  0  0  0  0  0
   21.1389   -5.0020  -14.0410 C   0  0  0  0  0  0  0  0  0  0  0  0
   20.1076   -5.7034  -14.6225 O   0  0  0  0  0  0  0  0  0  0  0  0
   21.1935   -4.9865  -12.7833 O   0  0  0  0  0  0  0  0  0  0  0  0
  2  1  1  0
  3  2  1  0
  3  4  1  1
  5  6  2  0
  5  3  1  0
  7  5  1  0
  8  7  1  0
  9  8  1  0
 10  9  1  0
 10 11  1  0
 11  7  1  0
 11 12  1  6
 12 13  2  0
 14 12  1  0
 14 15  1  0
 15 16  1  0
 16 18  2  0
 16 17  1  0
M  END
$$$$
