SPG.pdb
     RDKit          3D

 18 18  0  0  1  0  0  0  0  0999 V2000
   19.4846  -11.5851  -19.1839 O   0  0  0  0  0  0  0  0  0  0  0  0
   19.5049  -10.9000  -17.9668 C   0  0  0  0  0  0  0  0  0  0  0  0
   19.8375  -11.8390  -16.8256 C   0  0  2  0  0  0  0  0  0  0  0  0
   18.7929  -12.7716  -16.5539 N   0  0  0  0  0  0  0  0  0  0  0  0
   20.0833  -11.0054  -15.6296 C   0  0  0  0  0  0  0  0  0  0  0  0
   19.0606  -10.7024  -14.9383 O   0  0  0  0  0  0  0  0  0  0  0  0
   21.3447  -10.5324  -15.2096 N   0  0  0  0  0  0  0  0  0  0  0  0
   22.5948  -10.8662  -15.8541 C   0  0  0  0  0  0  0  0  0  0  0  0
   23.6719  -10.1606  -15.0182 C   0  0  0  0  0  0  0  0  0  0  0  0
   22.9808  -10.0484  -13.6828 C   0  0  0  0  0  0  0  0  0  0  0  0
   21.5800   -9.6574  -14.0875 C   0  0  1  0  0  0  0  0  0  0  0  0
   21.5717   -8.2139  -14.4581 C   0  0  0  0  0  0  0  0  0  0  0  0
   21.8138   -7.8130  -15.6160 O   0  0  0  0  0  0  0  0  0  0  0  0
   21.2732   -7.2722  -13.4414 N   0  0  0  0  0  0  0  0  0  0  0  0
   20.7750   -5.9496  -13.7019 C   0  0  0  0  0  0  0  0  0  0  0  0
   21.9107   -5.0217  -13.8801 C   0  0  0  0  0  0  0  0  0  0  0  0
   23.2080   -5.4699  -13.7798 O   0  0  0  0  0  0  0  0  0  0  0  0
   21.7365   -3.7997  -14.1274 O   0  0  0  0  0  0  0  0  0  0  0  0
  2  1  1  0
  3  2  1  0
  3  4  1  1
  5  6  2  0
  5  3  1  0
  7  5  1  0
  8  7  1  0
  9  8  1  0
 10  9  1  0
 10 11  1  0
 11  7  1  0
 11 12  1  6
 12 13  2  0
 14 12  1  0
 14 15  1  0
 15 16  1  0
 16 18  2  0
 16 17  1  0
M  END
$$$$
