SPG.pdb
     RDKit          3D

 18 18  0  0  1  0  0  0  0  0999 V2000
   21.5945   -9.8719  -19.5905 O   0  0  0  0  0  0  0  0  0  0  0  0
   20.9081   -9.2726  -18.5318 C   0  0  0  0  0  0  0  0  0  0  0  0
   21.6200   -9.5223  -17.2182 C   0  0  2  0  0  0  0  0  0  0  0  0
   21.6262  -10.8991  -16.8451 N   0  0  0  0  0  0  0  0  0  0  0  0
   20.9216   -8.7300  -16.1837 C   0  0  0  0  0  0  0  0  0  0  0  0
   19.8507   -9.2340  -15.7204 O   0  0  0  0  0  0  0  0  0  0  0  0
   21.3496   -7.4815  -15.6845 N   0  0  0  0  0  0  0  0  0  0  0  0
   22.5349   -6.7877  -16.1358 C   0  0  0  0  0  0  0  0  0  0  0  0
   22.6011   -5.5172  -15.2766 C   0  0  0  0  0  0  0  0  0  0  0  0
   21.8333   -5.9495  -14.0531 C   0  0  0  0  0  0  0  0  0  0  0  0
   20.6830   -6.7156  -14.6603 C   0  0  1  0  0  0  0  0  0  0  0  0
   19.6929   -5.7443  -15.2058 C   0  0  0  0  0  0  0  0  0  0  0  0
   19.7372   -5.3237  -16.3810 O   0  0  0  0  0  0  0  0  0  0  0  0
   18.6652   -5.2918  -14.3405 N   0  0  0  0  0  0  0  0  0  0  0  0
   17.4098   -4.7659  -14.8016 C   0  0  0  0  0  0  0  0  0  0  0  0
   17.5808   -3.3503  -15.1879 C   0  0  0  0  0  0  0  0  0  0  0  0
   16.7301   -2.7607  -16.0948 O   0  0  0  0  0  0  0  0  0  0  0  0
   18.5009   -2.6379  -14.7075 O   0  0  0  0  0  0  0  0  0  0  0  0
  2  1  1  0
  3  2  1  0
  3  4  1  1
  5  6  2  0
  5  3  1  0
  7  5  1  0
  8  7  1  0
  9  8  1  0
 10  9  1  0
 10 11  1  0
 11  7  1  0
 11 12  1  6
 12 13  2  0
 14 12  1  0
 14 15  1  0
 15 16  1  0
 16 18  2  0
 16 17  1  0
M  END
$$$$
