EYI.pdb
     RDKit          3D

 30 30  0  0  1  0  0  0  0  0999 V2000
    5.7223  -17.9952   19.8156 N   0  0  0  0  0  0  0  0  0  0  0  0
    7.1058  -17.7916   20.3176 C   0  0  1  0  0  0  0  0  0  0  0  0
    7.6141  -16.5562   19.6562 C   0  0  0  0  0  0  0  0  0  0  0  0
    8.7975  -16.7237   18.7623 C   0  0  0  0  0  0  0  0  0  0  0  0
    9.6416  -15.5331   18.6421 C   0  0  0  0  0  0  0  0  0  0  0  0
    9.1539  -14.4524   18.2349 O   0  0  0  0  0  0  0  0  0  0  0  0
    7.0311  -17.7551   21.7771 C   0  0  0  0  0  0  0  0  0  0  0  0
    6.0261  -17.1841   22.3294 O   0  0  0  0  0  0  0  0  0  0  0  0
   10.9836  -15.5688   18.9709 O   0  0  0  0  0  0  0  0  0  0  0  0
    8.3179  -18.8760   30.4764 O   0  0  0  0  0  0  0  0  0  0  0  0
    8.3060  -19.0234   29.0848 C   0  0  0  0  0  0  0  0  0  0  0  0
    9.4862  -18.8506   28.3696 C   0  0  0  0  0  0  0  0  0  0  0  0
    9.4973  -18.9915   26.9942 C   0  0  0  0  0  0  0  0  0  0  0  0
    8.3383  -19.3075   26.2907 C   0  0  0  0  0  0  0  0  0  0  0  0
    8.3257  -19.4632   24.8218 C   0  0  0  0  0  0  0  0  0  0  0  0
    7.7736  -18.2283   24.1325 C   0  0  2  0  0  0  0  0  0  0  0  0
    7.9724  -18.2977   22.6845 N   0  0  0  0  0  0  0  0  0  0  0  0
    8.4192  -16.9931   24.6410 C   0  0  0  0  0  0  0  0  0  0  0  0
    9.5574  -16.6278   24.2120 O   0  0  0  0  0  0  0  0  0  0  0  0
    7.1782  -19.4734   27.0305 C   0  0  0  0  0  0  0  0  0  0  0  0
    7.1610  -19.3343   28.4015 C   0  0  0  0  0  0  0  0  0  0  0  0
    5.7904  -12.3382   25.7930 C   0  0  0  0  0  0  0  0  0  0  0  0
    6.8420  -13.3329   25.4496 C   0  0  0  0  0  0  0  0  0  0  0  0
    7.5080  -13.9446   26.6656 C   0  0  2  0  0  0  0  0  0  0  0  0
    8.3095  -12.8767   27.3790 C   0  0  0  0  0  0  0  0  0  0  0  0
    8.4521  -14.9978   26.2063 C   0  0  2  0  0  0  0  0  0  0  0  0
    7.8434  -16.1519   25.6087 N   0  0  0  0  0  0  0  0  0  0  0  0
    9.3685  -15.4844   27.2729 C   0  0  0  0  0  0  0  0  0  0  0  0
    9.0165  -16.2865   28.1753 O   0  0  0  0  0  0  0  0  0  0  0  0
   10.6863  -15.0532   27.3060 O   0  0  0  0  0  0  0  0  0  0  0  0
  2  3  1  0
  2  1  1  6
  3  4  1  0
  4  5  1  0
  5  6  2  0
  7  8  2  0
  7  2  1  0
  9  5  1  0
 10 11  1  0
 11 21  2  0
 12 13  2  0
 12 11  1  0
 13 14  1  0
 14 15  1  0
 14 20  2  0
 16 15  1  1
 16 17  1  0
 17  7  1  0
 18 16  1  0
 18 19  2  0
 21 20  1  0
 22 23  1  0
 23 24  1  0
 24 25  1  6
 24 26  1  0
 26 27  1  1
 27 18  1  0
 28 26  1  0
 29 28  2  0
 30 28  1  0
M  END
$$$$
