EYI.pdb
     RDKit          3D

 30 30  0  0  1  0  0  0  0  0999 V2000
    8.6111  -18.4168   19.5482 N   0  0  0  0  0  0  0  0  0  0  0  0
    9.4939  -18.3690   20.7424 C   0  0  1  0  0  0  0  0  0  0  0  0
   10.5912  -17.4148   20.4144 C   0  0  0  0  0  0  0  0  0  0  0  0
   11.6219  -17.8987   19.4493 C   0  0  0  0  0  0  0  0  0  0  0  0
   12.9915  -17.4887   19.7668 C   0  0  0  0  0  0  0  0  0  0  0  0
   13.9269  -17.7452   18.9727 O   0  0  0  0  0  0  0  0  0  0  0  0
    8.6524  -18.0132   21.8835 C   0  0  0  0  0  0  0  0  0  0  0  0
    7.5998  -17.3122   21.6791 O   0  0  0  0  0  0  0  0  0  0  0  0
   13.2857  -16.8155   20.9374 O   0  0  0  0  0  0  0  0  0  0  0  0
    4.4609  -22.8424   22.1128 O   0  0  0  0  0  0  0  0  0  0  0  0
    5.2237  -21.9354   22.8570 C   0  0  0  0  0  0  0  0  0  0  0  0
    4.6220  -20.7853   23.3565 C   0  0  0  0  0  0  0  0  0  0  0  0
    5.3568  -19.8757   24.0943 C   0  0  0  0  0  0  0  0  0  0  0  0
    6.7084  -20.0820   24.3569 C   0  0  0  0  0  0  0  0  0  0  0  0
    7.5136  -19.1247   25.1426 C   0  0  0  0  0  0  0  0  0  0  0  0
    7.9590  -17.9433   24.2996 C   0  0  2  0  0  0  0  0  0  0  0  0
    8.8713  -18.3664   23.2367 N   0  0  0  0  0  0  0  0  0  0  0  0
    8.6388  -16.9165   25.1270 C   0  0  0  0  0  0  0  0  0  0  0  0
    9.8827  -16.9940   25.3709 O   0  0  0  0  0  0  0  0  0  0  0  0
    7.2800  -21.2366   23.8463 C   0  0  0  0  0  0  0  0  0  0  0  0
    6.5526  -22.1469   23.1102 C   0  0  0  0  0  0  0  0  0  0  0  0
    6.3354  -11.9557   25.4939 C   0  0  0  0  0  0  0  0  0  0  0  0
    7.4265  -12.9648   25.4272 C   0  0  0  0  0  0  0  0  0  0  0  0
    7.7391  -13.5986   26.7677 C   0  0  2  0  0  0  0  0  0  0  0  0
    8.5488  -12.6250   27.5973 C   0  0  0  0  0  0  0  0  0  0  0  0
    8.5729  -14.8078   26.5346 C   0  0  2  0  0  0  0  0  0  0  0  0
    7.9835  -15.8086   25.6915 N   0  0  0  0  0  0  0  0  0  0  0  0
    9.0062  -15.4847   27.7869 C   0  0  0  0  0  0  0  0  0  0  0  0
   10.0377  -15.1591   28.4285 O   0  0  0  0  0  0  0  0  0  0  0  0
    8.2593  -16.5327   28.3039 O   0  0  0  0  0  0  0  0  0  0  0  0
  2  3  1  0
  2  1  1  6
  3  4  1  0
  4  5  1  0
  5  6  2  0
  7  8  2  0
  7  2  1  0
  9  5  1  0
 10 11  1  0
 11 21  2  0
 12 13  2  0
 12 11  1  0
 13 14  1  0
 14 15  1  0
 14 20  2  0
 16 15  1  1
 16 17  1  0
 17  7  1  0
 18 16  1  0
 18 19  2  0
 21 20  1  0
 22 23  1  0
 23 24  1  0
 24 25  1  1
 24 26  1  0
 26 27  1  6
 27 18  1  0
 28 26  1  0
 29 28  2  0
 30 28  1  0
M  END
$$$$
