EYI.pdb
     RDKit          3D

 30 30  0  0  1  0  0  0  0  0999 V2000
    9.7836  -16.2167   18.0780 N   0  0  0  0  0  0  0  0  0  0  0  0
    8.9857  -16.9860   19.0677 C   0  0  1  0  0  0  0  0  0  0  0  0
    9.5505  -18.3654   19.0798 C   0  0  0  0  0  0  0  0  0  0  0  0
    8.5635  -19.4845   19.0439 C   0  0  0  0  0  0  0  0  0  0  0  0
    9.1506  -20.8176   19.1948 C   0  0  0  0  0  0  0  0  0  0  0  0
    9.2369  -21.3443   20.3291 O   0  0  0  0  0  0  0  0  0  0  0  0
    9.0496  -16.2541   20.3315 C   0  0  0  0  0  0  0  0  0  0  0  0
   10.1944  -15.8905   20.7768 O   0  0  0  0  0  0  0  0  0  0  0  0
    9.6201  -21.5226   18.1027 O   0  0  0  0  0  0  0  0  0  0  0  0
    7.1881  -12.1122   27.9563 O   0  0  0  0  0  0  0  0  0  0  0  0
    7.1354  -12.6295   26.6571 C   0  0  0  0  0  0  0  0  0  0  0  0
    6.5678  -13.8809   26.4427 C   0  0  0  0  0  0  0  0  0  0  0  0
    6.5053  -14.4112   25.1673 C   0  0  0  0  0  0  0  0  0  0  0  0
    7.0040  -13.7148   24.0698 C   0  0  0  0  0  0  0  0  0  0  0  0
    6.9483  -14.2606   22.6983 C   0  0  0  0  0  0  0  0  0  0  0  0
    8.1429  -15.1488   22.4001 C   0  0  2  0  0  0  0  0  0  0  0  0
    7.9550  -15.8853   21.1498 N   0  0  0  0  0  0  0  0  0  0  0  0
    8.3764  -16.1233   23.4941 C   0  0  0  0  0  0  0  0  0  0  0  0
    7.6424  -17.1522   23.6189 O   0  0  0  0  0  0  0  0  0  0  0  0
    7.5635  -12.4707   24.3147 C   0  0  0  0  0  0  0  0  0  0  0  0
    7.6286  -11.9370   25.5837 C   0  0  0  0  0  0  0  0  0  0  0  0
   12.7318  -19.6256   25.0616 C   0  0  0  0  0  0  0  0  0  0  0  0
   11.5972  -18.8221   25.5913 C   0  0  0  0  0  0  0  0  0  0  0  0
   11.1363  -17.7365   24.6399 C   0  0  2  0  0  0  0  0  0  0  0  0
   12.2448  -16.7183   24.4784 C   0  0  0  0  0  0  0  0  0  0  0  0
    9.9640  -17.0479   25.2425 C   0  0  2  0  0  0  0  0  0  0  0  0
    9.3965  -15.9930   24.4522 N   0  0  0  0  0  0  0  0  0  0  0  0
   10.2298  -16.4911   26.5966 C   0  0  0  0  0  0  0  0  0  0  0  0
   10.2233  -15.2598   26.8523 O   0  0  0  0  0  0  0  0  0  0  0  0
   10.5024  -17.3431   27.6564 O   0  0  0  0  0  0  0  0  0  0  0  0
  2  3  1  0
  2  1  1  6
  3  4  1  0
  4  5  1  0
  5  6  2  0
  7  8  2  0
  7  2  1  0
  9  5  1  0
 10 11  1  0
 11 21  2  0
 12 13  2  0
 12 11  1  0
 13 14  1  0
 14 15  1  0
 14 20  2  0
 16 15  1  1
 16 17  1  0
 17  7  1  0
 18 16  1  0
 18 19  2  0
 21 20  1  0
 22 23  1  0
 23 24  1  0
 24 25  1  1
 24 26  1  0
 26 27  1  6
 27 18  1  0
 28 26  1  0
 29 28  2  0
 30 28  1  0
M  END
$$$$
