EYI.pdb
     RDKit          3D

 30 30  0  0  1  0  0  0  0  0999 V2000
    9.4874  -19.7827   21.6849 N   0  0  0  0  0  0  0  0  0  0  0  0
    9.2668  -18.4756   21.0136 C   0  0  1  0  0  0  0  0  0  0  0  0
    8.7522  -18.7867   19.6496 C   0  0  0  0  0  0  0  0  0  0  0  0
    8.8073  -17.6770   18.6530 C   0  0  0  0  0  0  0  0  0  0  0  0
    8.3305  -18.0368   17.3159 C   0  0  0  0  0  0  0  0  0  0  0  0
    7.9934  -19.2174   17.0628 O   0  0  0  0  0  0  0  0  0  0  0  0
    8.3779  -17.6967   21.8738 C   0  0  0  0  0  0  0  0  0  0  0  0
    8.0995  -16.4909   21.5428 O   0  0  0  0  0  0  0  0  0  0  0  0
    8.2405  -17.0947   16.3086 O   0  0  0  0  0  0  0  0  0  0  0  0
    8.7621  -21.4505   28.3275 O   0  0  0  0  0  0  0  0  0  0  0  0
    8.0732  -20.6234   27.4333 C   0  0  0  0  0  0  0  0  0  0  0  0
    7.5653  -19.4081   27.8798 C   0  0  0  0  0  0  0  0  0  0  0  0
    6.8815  -18.5754   27.0133 C   0  0  0  0  0  0  0  0  0  0  0  0
    6.6827  -18.9253   25.6806 C   0  0  0  0  0  0  0  0  0  0  0  0
    5.9556  -18.0522   24.7366 C   0  0  0  0  0  0  0  0  0  0  0  0
    6.9084  -17.2531   23.8656 C   0  0  2  0  0  0  0  0  0  0  0  0
    7.7653  -18.1350   23.0724 N   0  0  0  0  0  0  0  0  0  0  0  0
    7.7702  -16.3649   24.6837 C   0  0  0  0  0  0  0  0  0  0  0  0
    9.0311  -16.5154   24.7019 O   0  0  0  0  0  0  0  0  0  0  0  0
    7.2001  -20.1419   25.2651 C   0  0  0  0  0  0  0  0  0  0  0  0
    7.8826  -20.9761   26.1241 C   0  0  0  0  0  0  0  0  0  0  0  0
    5.6923  -11.4491   25.9634 C   0  0  0  0  0  0  0  0  0  0  0  0
    6.7683  -12.4018   25.5785 C   0  0  0  0  0  0  0  0  0  0  0  0
    7.3110  -13.1971   26.7487 C   0  0  2  0  0  0  0  0  0  0  0  0
    8.2807  -12.3327   27.5258 C   0  0  0  0  0  0  0  0  0  0  0  0
    8.0614  -14.3658   26.2170 C   0  0  2  0  0  0  0  0  0  0  0  0
    7.2785  -15.3169   25.4808 N   0  0  0  0  0  0  0  0  0  0  0  0
    8.8075  -15.1208   27.2598 C   0  0  0  0  0  0  0  0  0  0  0  0
    8.3993  -16.2013   27.7573 O   0  0  0  0  0  0  0  0  0  0  0  0
   10.0194  -14.6394   27.7320 O   0  0  0  0  0  0  0  0  0  0  0  0
  2  3  1  0
  2  1  1  1
  3  4  1  0
  4  5  1  0
  5  6  2  0
  7  8  2  0
  7  2  1  0
  9  5  1  0
 10 11  1  0
 11 21  2  0
 12 13  2  0
 12 11  1  0
 13 14  1  0
 14 15  1  0
 14 20  2  0
 16 15  1  1
 16 17  1  0
 17  7  1  0
 18 16  1  0
 18 19  2  0
 21 20  1  0
 22 23  1  0
 23 24  1  0
 24 25  1  6
 24 26  1  0
 26 27  1  1
 27 18  1  0
 28 26  1  0
 29 28  2  0
 30 28  1  0
M  END
$$$$
