EYI.pdb
     RDKit          3D

 30 30  0  0  1  0  0  0  0  0999 V2000
   11.2199  -16.9933   19.2275 N   0  0  0  0  0  0  0  0  0  0  0  0
   11.7178  -17.4833   20.5389 C   0  0  1  0  0  0  0  0  0  0  0  0
   13.2039  -17.5290   20.4323 C   0  0  0  0  0  0  0  0  0  0  0  0
   13.7693  -18.5507   19.5027 C   0  0  0  0  0  0  0  0  0  0  0  0
   15.1529  -18.9344   19.7903 C   0  0  0  0  0  0  0  0  0  0  0  0
   16.0300  -18.8480   18.8988 O   0  0  0  0  0  0  0  0  0  0  0  0
   11.1738  -16.5938   21.5634 C   0  0  0  0  0  0  0  0  0  0  0  0
   11.5502  -15.3694   21.5806 O   0  0  0  0  0  0  0  0  0  0  0  0
   15.5245  -19.3970   21.0386 O   0  0  0  0  0  0  0  0  0  0  0  0
    7.0740  -13.1691   18.3659 O   0  0  0  0  0  0  0  0  0  0  0  0
    7.3523  -13.8160   19.5752 C   0  0  0  0  0  0  0  0  0  0  0  0
    7.8131  -13.0731   20.6569 C   0  0  0  0  0  0  0  0  0  0  0  0
    8.0943  -13.6918   21.8610 C   0  0  0  0  0  0  0  0  0  0  0  0
    7.9262  -15.0640   22.0251 C   0  0  0  0  0  0  0  0  0  0  0  0
    8.2198  -15.7469   23.3016 C   0  0  0  0  0  0  0  0  0  0  0  0
    9.7121  -15.9410   23.5026 C   0  0  2  0  0  0  0  0  0  0  0  0
   10.2451  -16.9388   22.5746 N   0  0  0  0  0  0  0  0  0  0  0  0
   10.0177  -16.3719   24.8890 C   0  0  0  0  0  0  0  0  0  0  0  0
   10.4540  -17.5404   25.1277 O   0  0  0  0  0  0  0  0  0  0  0  0
    7.4659  -15.7775   20.9298 C   0  0  0  0  0  0  0  0  0  0  0  0
    7.1840  -15.1664   19.7271 C   0  0  0  0  0  0  0  0  0  0  0  0
    9.6379  -12.3760   28.6598 C   0  0  0  0  0  0  0  0  0  0  0  0
   10.2118  -13.4948   27.8645 C   0  0  0  0  0  0  0  0  0  0  0  0
    9.8255  -14.8628   28.3896 C   0  0  2  0  0  0  0  0  0  0  0  0
   10.6170  -15.1503   29.6476 C   0  0  0  0  0  0  0  0  0  0  0  0
   10.1961  -15.8807   27.3707 C   0  0  2  0  0  0  0  0  0  0  0  0
    9.8549  -15.5491   26.0168 N   0  0  0  0  0  0  0  0  0  0  0  0
    9.6396  -17.2327   27.6478 C   0  0  0  0  0  0  0  0  0  0  0  0
    8.5251  -17.6243   27.2163 O   0  0  0  0  0  0  0  0  0  0  0  0
   10.3584  -18.1351   28.4175 O   0  0  0  0  0  0  0  0  0  0  0  0
  2  3  1  0
  2  1  1  6
  3  4  1  0
  4  5  1  0
  5  6  2  0
  7  8  2  0
  7  2  1  0
  9  5  1  0
 10 11  1  0
 11 21  2  0
 12 13  2  0
 12 11  1  0
 13 14  1  0
 14 15  1  0
 14 20  2  0
 16 15  1  1
 16 17  1  0
 17  7  1  0
 18 16  1  0
 18 19  2  0
 21 20  1  0
 22 23  1  0
 23 24  1  0
 24 25  1  1
 24 26  1  0
 26 27  1  6
 27 18  1  0
 28 26  1  0
 29 28  2  0
 30 28  1  0
M  END
$$$$
