EYI.pdb
     RDKit          3D

 30 30  0  0  1  0  0  0  0  0999 V2000
    5.4244  -16.8430   19.9218 N   0  0  0  0  0  0  0  0  0  0  0  0
    6.6711  -17.5302   20.3477 C   0  0  1  0  0  0  0  0  0  0  0  0
    7.7889  -16.8521   19.6317 C   0  0  0  0  0  0  0  0  0  0  0  0
    7.4004  -15.9026   18.5476 C   0  0  0  0  0  0  0  0  0  0  0  0
    8.5259  -15.2220   17.9038 C   0  0  0  0  0  0  0  0  0  0  0  0
    9.2618  -14.4539   18.5671 O   0  0  0  0  0  0  0  0  0  0  0  0
    6.7145  -17.4732   21.8077 C   0  0  0  0  0  0  0  0  0  0  0  0
    5.8801  -16.7191   22.4210 O   0  0  0  0  0  0  0  0  0  0  0  0
    8.8037  -15.4063   16.5625 O   0  0  0  0  0  0  0  0  0  0  0  0
    8.1643  -18.9631   30.4244 O   0  0  0  0  0  0  0  0  0  0  0  0
    8.1293  -19.0690   29.0294 C   0  0  0  0  0  0  0  0  0  0  0  0
    6.9089  -19.2555   28.3891 C   0  0  0  0  0  0  0  0  0  0  0  0
    6.8512  -19.3628   27.0118 C   0  0  0  0  0  0  0  0  0  0  0  0
    8.0021  -19.2879   26.2321 C   0  0  0  0  0  0  0  0  0  0  0  0
    7.9652  -19.3996   24.7597 C   0  0  0  0  0  0  0  0  0  0  0  0
    7.4952  -18.1095   24.1119 C   0  0  2  0  0  0  0  0  0  0  0  0
    7.6018  -18.1805   22.6543 N   0  0  0  0  0  0  0  0  0  0  0  0
    8.2853  -16.9478   24.5889 C   0  0  0  0  0  0  0  0  0  0  0  0
    9.4396  -16.7062   24.1177 O   0  0  0  0  0  0  0  0  0  0  0  0
    9.2030  -19.1017   26.8984 C   0  0  0  0  0  0  0  0  0  0  0  0
    9.2668  -18.9942   28.2709 C   0  0  0  0  0  0  0  0  0  0  0  0
    6.0191  -12.0899   25.6271 C   0  0  0  0  0  0  0  0  0  0  0  0
    7.0125  -13.1430   25.2843 C   0  0  0  0  0  0  0  0  0  0  0  0
    7.6698  -13.7648   26.4998 C   0  0  2  0  0  0  0  0  0  0  0  0
    8.5549  -12.7324   27.1649 C   0  0  0  0  0  0  0  0  0  0  0  0
    8.5338  -14.8871   26.0463 C   0  0  2  0  0  0  0  0  0  0  0  0
    7.8362  -16.0474   25.5703 N   0  0  0  0  0  0  0  0  0  0  0  0
    9.5045  -15.3470   27.0760 C   0  0  0  0  0  0  0  0  0  0  0  0
    9.2162  -16.1737   27.9789 O   0  0  0  0  0  0  0  0  0  0  0  0
   10.8035  -14.8612   27.0718 O   0  0  0  0  0  0  0  0  0  0  0  0
  2  3  1  0
  2  1  1  6
  3  4  1  0
  4  5  1  0
  5  6  2  0
  7  8  2  0
  7  2  1  0
  9  5  1  0
 10 11  1  0
 11 21  2  0
 12 13  2  0
 12 11  1  0
 13 14  1  0
 14 15  1  0
 14 20  2  0
 16 15  1  1
 16 17  1  0
 17  7  1  0
 18 16  1  0
 18 19  2  0
 21 20  1  0
 22 23  1  0
 23 24  1  0
 24 25  1  6
 24 26  1  0
 26 27  1  1
 27 18  1  0
 28 26  1  0
 29 28  2  0
 30 28  1  0
M  END
$$$$
