EYI.pdb
     RDKit          3D

 30 30  0  0  1  0  0  0  0  0999 V2000
   12.1134  -16.7501   19.9397 N   0  0  0  0  0  0  0  0  0  0  0  0
   10.8750  -17.3675   20.4810 C   0  0  1  0  0  0  0  0  0  0  0  0
   11.2190  -18.7810   20.8059 C   0  0  0  0  0  0  0  0  0  0  0  0
   12.1252  -19.4784   19.8467 C   0  0  0  0  0  0  0  0  0  0  0  0
   12.3228  -20.9028   20.1234 C   0  0  0  0  0  0  0  0  0  0  0  0
   11.5133  -21.7503   19.6782 O   0  0  0  0  0  0  0  0  0  0  0  0
   10.4376  -16.5383   21.6026 C   0  0  0  0  0  0  0  0  0  0  0  0
   11.2972  -15.7921   22.1903 O   0  0  0  0  0  0  0  0  0  0  0  0
   13.3950  -21.3458   20.8746 O   0  0  0  0  0  0  0  0  0  0  0  0
    6.0963  -11.5932   27.4748 O   0  0  0  0  0  0  0  0  0  0  0  0
    6.3989  -12.4805   26.4358 C   0  0  0  0  0  0  0  0  0  0  0  0
    7.0718  -12.0125   25.3123 C   0  0  0  0  0  0  0  0  0  0  0  0
    7.3809  -12.8717   24.2740 C   0  0  0  0  0  0  0  0  0  0  0  0
    7.0310  -14.2184   24.3217 C   0  0  0  0  0  0  0  0  0  0  0  0
    7.3505  -15.1550   23.2251 C   0  0  0  0  0  0  0  0  0  0  0  0
    8.8064  -15.5838   23.2612 C   0  0  2  0  0  0  0  0  0  0  0  0
    9.1278  -16.4592   22.1336 N   0  0  0  0  0  0  0  0  0  0  0  0
    9.1270  -16.2974   24.5218 C   0  0  0  0  0  0  0  0  0  0  0  0
    9.0934  -17.5656   24.5803 O   0  0  0  0  0  0  0  0  0  0  0  0
    6.3613  -14.6552   25.4537 C   0  0  0  0  0  0  0  0  0  0  0  0
    6.0506  -13.8035   26.4918 C   0  0  0  0  0  0  0  0  0  0  0  0
   10.5914  -13.0659   28.7985 C   0  0  0  0  0  0  0  0  0  0  0  0
   10.7308  -14.1372   27.7757 C   0  0  0  0  0  0  0  0  0  0  0  0
    9.9733  -15.4021   28.1258 C   0  0  2  0  0  0  0  0  0  0  0  0
   10.7186  -16.1371   29.2194 C   0  0  0  0  0  0  0  0  0  0  0  0
    9.9381  -16.2784   26.9247 C   0  0  2  0  0  0  0  0  0  0  0  0
    9.4830  -15.6499   25.7175 N   0  0  0  0  0  0  0  0  0  0  0  0
    9.1303  -17.5141   27.1109 C   0  0  0  0  0  0  0  0  0  0  0  0
    7.9163  -17.6018   26.7942 O   0  0  0  0  0  0  0  0  0  0  0  0
    9.7118  -18.6478   27.6586 O   0  0  0  0  0  0  0  0  0  0  0  0
  2  3  1  0
  2  1  1  1
  3  4  1  0
  4  5  1  0
  5  6  2  0
  7  8  2  0
  7  2  1  0
  9  5  1  0
 10 11  1  0
 11 21  2  0
 12 13  2  0
 12 11  1  0
 13 14  1  0
 14 15  1  0
 14 20  2  0
 16 15  1  1
 16 17  1  0
 17  7  1  0
 18 16  1  0
 18 19  2  0
 21 20  1  0
 22 23  1  0
 23 24  1  0
 24 25  1  1
 24 26  1  0
 26 27  1  6
 27 18  1  0
 28 26  1  0
 29 28  2  0
 30 28  1  0
M  END
$$$$
