EYI.pdb
     RDKit          3D

 30 30  0  0  1  0  0  0  0  0999 V2000
   10.6112  -17.4427   20.0372 N   0  0  0  0  0  0  0  0  0  0  0  0
    9.2445  -17.0190   20.4376 C   0  0  1  0  0  0  0  0  0  0  0  0
    8.3050  -17.9996   19.8231 C   0  0  0  0  0  0  0  0  0  0  0  0
    8.5954  -18.4008   18.4151 C   0  0  0  0  0  0  0  0  0  0  0  0
    7.4185  -18.4631   17.5459 C   0  0  0  0  0  0  0  0  0  0  0  0
    7.4894  -18.0673   16.3585 O   0  0  0  0  0  0  0  0  0  0  0  0
    9.2299  -16.9428   21.8974 C   0  0  0  0  0  0  0  0  0  0  0  0
    8.1490  -16.5876   22.4860 O   0  0  0  0  0  0  0  0  0  0  0  0
    6.2116  -18.9544   18.0066 O   0  0  0  0  0  0  0  0  0  0  0  0
   10.8607  -17.4528   30.5812 O   0  0  0  0  0  0  0  0  0  0  0  0
   10.9786  -17.5422   29.1896 C   0  0  0  0  0  0  0  0  0  0  0  0
   11.4740  -16.4568   28.4751 C   0  0  0  0  0  0  0  0  0  0  0  0
   11.5990  -16.5234   27.0997 C   0  0  0  0  0  0  0  0  0  0  0  0
   11.2361  -17.6682   26.3955 C   0  0  0  0  0  0  0  0  0  0  0  0
   11.3608  -17.7628   24.9267 C   0  0  0  0  0  0  0  0  0  0  0  0
   10.1663  -17.1445   24.2224 C   0  0  2  0  0  0  0  0  0  0  0  0
   10.3090  -17.2273   22.7685 N   0  0  0  0  0  0  0  0  0  0  0  0
    9.9946  -15.7206   24.6017 C   0  0  0  0  0  0  0  0  0  0  0  0
   10.7959  -14.8313   24.1776 O   0  0  0  0  0  0  0  0  0  0  0  0
   10.7459  -18.7332   27.1347 C   0  0  0  0  0  0  0  0  0  0  0  0
   10.6191  -18.6726   28.5057 C   0  0  0  0  0  0  0  0  0  0  0  0
    6.1067  -11.2993   26.3724 C   0  0  0  0  0  0  0  0  0  0  0  0
    7.4597  -11.9099   26.2735 C   0  0  0  0  0  0  0  0  0  0  0  0
    7.4356  -13.3437   25.7837 C   0  0  2  0  0  0  0  0  0  0  0  0
    6.5030  -14.1499   26.6623 C   0  0  0  0  0  0  0  0  0  0  0  0
    8.8028  -13.9122   25.9215 C   0  0  2  0  0  0  0  0  0  0  0  0
    8.9640  -15.2528   25.4351 N   0  0  0  0  0  0  0  0  0  0  0  0
    9.3241  -13.8824   27.3149 C   0  0  0  0  0  0  0  0  0  0  0  0
    9.4470  -14.9096   28.0301 O   0  0  0  0  0  0  0  0  0  0  0  0
    9.7042  -12.6783   27.8885 O   0  0  0  0  0  0  0  0  0  0  0  0
  2  3  1  0
  2  1  1  1
  3  4  1  0
  4  5  1  0
  5  6  2  0
  7  8  2  0
  7  2  1  0
  9  5  1  0
 10 11  1  0
 11 21  2  0
 12 13  2  0
 12 11  1  0
 13 14  1  0
 14 15  1  0
 14 20  2  0
 16 15  1  1
 16 17  1  0
 17  7  1  0
 18 16  1  0
 18 19  2  0
 21 20  1  0
 22 23  1  0
 23 24  1  0
 24 25  1  1
 24 26  1  0
 26 27  1  1
 27 18  1  0
 28 26  1  0
 29 28  2  0
 30 28  1  0
M  END
$$$$
