LII.pdb
     RDKit          3D

 25 24  0  0  1  0  0  0  0  0999 V2000
   27.9491  -22.6105  -15.0883 C   0  0  0  0  0  0  0  0  0  0  0  0
   28.0160  -21.1714  -15.5126 C   0  0  2  0  0  0  0  0  0  0  0  0
   29.3270  -20.8202  -16.1655 C   0  0  0  0  0  0  0  0  0  0  0  0
   27.7207  -20.2360  -14.3343 C   0  0  0  0  0  0  0  0  0  0  0  0
   26.4172  -20.7397  -13.7360 C   0  0  2  0  0  0  0  0  0  0  0  0
   25.3822  -20.5308  -14.7162 N   0  0  0  0  0  0  0  0  0  0  0  0
   26.1276  -20.0343  -12.4417 C   0  0  0  0  0  0  0  0  0  0  0  0
   26.1469  -18.8000  -12.4950 O   0  0  0  0  0  0  0  0  0  0  0  0
   21.6047  -20.1787  -10.8169 C   0  0  0  0  0  0  0  0  0  0  0  0
   23.0805  -19.9007  -10.9699 C   0  0  0  0  0  0  0  0  0  0  0  0
   23.8875  -20.6559   -9.9245 C   0  0  2  0  0  0  0  0  0  0  0  0
   23.3579  -20.2276   -8.5478 C   0  0  0  0  0  0  0  0  0  0  0  0
   25.3569  -20.3616  -10.0525 C   0  0  2  0  0  0  0  0  0  0  0  0
   25.8727  -20.8205  -11.3387 N   0  0  0  0  0  0  0  0  0  0  0  0
   26.1678  -20.8680   -8.9534 C   0  0  0  0  0  0  0  0  0  0  0  0
   26.3274  -22.1532   -8.8183 O   0  0  0  0  0  0  0  0  0  0  0  0
   29.4886  -17.8541   -5.3803 C   0  0  0  0  0  0  0  0  0  0  0  0
   28.2948  -18.5891   -5.9282 C   0  0  0  0  0  0  0  0  0  0  0  0
   28.7126  -19.9382   -6.4507 C   0  0  2  0  0  0  0  0  0  0  0  0
   29.6561  -19.7883   -7.5990 C   0  0  0  0  0  0  0  0  0  0  0  0
   27.4905  -20.7590   -6.8022 C   0  0  2  0  0  0  0  0  0  0  0  0
   26.8493  -20.1225   -7.9608 N   0  0  0  0  0  0  0  0  0  0  0  0
   26.5680  -20.9057   -5.6669 C   0  0  0  0  0  0  0  0  0  0  0  0
   26.9031  -21.6463   -4.5418 O   0  0  0  0  0  0  0  0  0  0  0  0
   25.4286  -20.3729   -5.6480 O   0  0  0  0  0  0  0  0  0  0  0  0
  2  1  1  1
  2  3  1  0
  4  5  1  0
  4  2  1  0
  5  6  1  6
  7  5  1  0
  7  8  2  0
 10  9  1  0
 11 10  1  0
 11 13  1  0
 11 12  1  1
 13 14  1  6
 14  7  1  0
 15 13  1  0
 16 15  2  0
 17 18  1  0
 18 19  1  0
 19 21  1  0
 19 20  1  6
 21 22  1  6
 21 23  1  0
 22 15  1  0
 23 24  1  0
 25 23  2  0
M  END
$$$$
