LII.pdb
     RDKit          3D

 25 24  0  0  1  0  0  0  0  0999 V2000
   28.8089  -17.3954  -15.3023 C   0  0  0  0  0  0  0  0  0  0  0  0
   28.2798  -18.2206  -16.4402 C   0  0  2  0  0  0  0  0  0  0  0  0
   27.8009  -17.3781  -17.5932 C   0  0  0  0  0  0  0  0  0  0  0  0
   27.1793  -19.1751  -15.9625 C   0  0  0  0  0  0  0  0  0  0  0  0
   27.8184  -20.0114  -14.8658 C   0  0  2  0  0  0  0  0  0  0  0  0
   28.8374  -20.8241  -15.4797 N   0  0  0  0  0  0  0  0  0  0  0  0
   26.7784  -20.8361  -14.1621 C   0  0  0  0  0  0  0  0  0  0  0  0
   26.5268  -21.9281  -14.6825 O   0  0  0  0  0  0  0  0  0  0  0  0
   26.5471  -20.5726   -8.7495 C   0  0  0  0  0  0  0  0  0  0  0  0
   26.3948  -21.0755  -10.1646 C   0  0  0  0  0  0  0  0  0  0  0  0
   25.1626  -20.4757  -10.8253 C   0  0  2  0  0  0  0  0  0  0  0  0
   23.9387  -20.9956  -10.0565 C   0  0  0  0  0  0  0  0  0  0  0  0
   25.0858  -20.8520  -12.2795 C   0  0  2  0  0  0  0  0  0  0  0  0
   26.2155  -20.3023  -13.0229 N   0  0  0  0  0  0  0  0  0  0  0  0
   23.8229  -20.5121  -12.9209 C   0  0  0  0  0  0  0  0  0  0  0  0
   23.4716  -19.2618  -13.0146 O   0  0  0  0  0  0  0  0  0  0  0  0
   22.6269  -21.6065  -17.6423 C   0  0  0  0  0  0  0  0  0  0  0  0
   22.6602  -20.9756  -16.2762 C   0  0  0  0  0  0  0  0  0  0  0  0
   21.4877  -21.4492  -15.4585 C   0  0  2  0  0  0  0  0  0  0  0  0
   20.2009  -21.0728  -16.1171 C   0  0  0  0  0  0  0  0  0  0  0  0
   21.5958  -20.9224  -14.0438 C   0  0  2  0  0  0  0  0  0  0  0  0
   22.8740  -21.3937  -13.4935 N   0  0  0  0  0  0  0  0  0  0  0  0
   20.4516  -21.3173  -13.2094 C   0  0  0  0  0  0  0  0  0  0  0  0
   19.4089  -20.4431  -12.9349 O   0  0  0  0  0  0  0  0  0  0  0  0
   20.3505  -22.4623  -12.6983 O   0  0  0  0  0  0  0  0  0  0  0  0
  2  1  1  1
  2  3  1  0
  4  5  1  0
  4  2  1  0
  5  6  1  6
  7  5  1  0
  7  8  2  0
 10  9  1  0
 11 10  1  0
 11 13  1  0
 11 12  1  1
 13 14  1  6
 14  7  1  0
 15 13  1  0
 16 15  2  0
 17 18  1  0
 18 19  1  0
 19 21  1  0
 19 20  1  6
 21 22  1  1
 21 23  1  0
 22 15  1  0
 23 24  1  0
 25 23  2  0
M  END
$$$$
