LII.pdb
     RDKit          3D

 25 24  0  0  1  0  0  0  0  0999 V2000
   29.0387  -20.0759  -15.6683 C   0  0  0  0  0  0  0  0  0  0  0  0
   28.5467  -18.6589  -15.7435 C   0  0  2  0  0  0  0  0  0  0  0  0
   29.6246  -17.6925  -16.1589 C   0  0  0  0  0  0  0  0  0  0  0  0
   27.9032  -18.2289  -14.4200 C   0  0  0  0  0  0  0  0  0  0  0  0
   26.8467  -19.2810  -14.1243 C   0  0  2  0  0  0  0  0  0  0  0  0
   25.8940  -19.2530  -15.2048 N   0  0  0  0  0  0  0  0  0  0  0  0
   26.2050  -19.0193  -12.7914 C   0  0  0  0  0  0  0  0  0  0  0  0
   25.7922  -17.8675  -12.6191 O   0  0  0  0  0  0  0  0  0  0  0  0
   21.9257  -20.8849  -11.9836 C   0  0  0  0  0  0  0  0  0  0  0  0
   23.2159  -20.1231  -11.8004 C   0  0  0  0  0  0  0  0  0  0  0  0
   24.1046  -20.7989  -10.7670 C   0  0  2  0  0  0  0  0  0  0  0  0
   23.3377  -20.7908   -9.4362 C   0  0  0  0  0  0  0  0  0  0  0  0
   25.4235  -20.0884  -10.6337 C   0  0  2  0  0  0  0  0  0  0  0  0
   26.1407  -20.0729  -11.9051 N   0  0  0  0  0  0  0  0  0  0  0  0
   26.2709  -20.5933   -9.5618 C   0  0  0  0  0  0  0  0  0  0  0  0
   26.7701  -21.7922   -9.6547 O   0  0  0  0  0  0  0  0  0  0  0  0
   29.5766  -19.3265   -4.5177 C   0  0  0  0  0  0  0  0  0  0  0  0
   28.7905  -20.3281   -5.3204 C   0  0  0  0  0  0  0  0  0  0  0  0
   28.0845  -19.6398   -6.4586 C   0  0  2  0  0  0  0  0  0  0  0  0
   27.2792  -18.4860   -5.9571 C   0  0  0  0  0  0  0  0  0  0  0  0
   27.2532  -20.6396   -7.2333 C   0  0  2  0  0  0  0  0  0  0  0  0
   26.6553  -19.9289   -8.3716 N   0  0  0  0  0  0  0  0  0  0  0  0
   26.2408  -21.2969   -6.3940 C   0  0  0  0  0  0  0  0  0  0  0  0
   26.5599  -22.3559   -5.5553 O   0  0  0  0  0  0  0  0  0  0  0  0
   25.0342  -20.9415   -6.3865 O   0  0  0  0  0  0  0  0  0  0  0  0
  2  1  1  1
  2  3  1  0
  4  5  1  0
  4  2  1  0
  5  6  1  6
  7  5  1  0
  7  8  2  0
 10  9  1  0
 11 10  1  0
 11 13  1  0
 11 12  1  1
 13 14  1  6
 14  7  1  0
 15 13  1  0
 16 15  2  0
 17 18  1  0
 18 19  1  0
 19 21  1  0
 19 20  1  1
 21 22  1  6
 21 23  1  0
 22 15  1  0
 23 24  1  0
 25 23  2  0
M  END
$$$$
