LII.pdb
     RDKit          3D

 25 24  0  0  1  0  0  0  0  0999 V2000
   25.3234  -13.8612  -15.0318 C   0  0  0  0  0  0  0  0  0  0  0  0
   25.7696  -13.3911  -16.3866 C   0  0  2  0  0  0  0  0  0  0  0  0
   27.2498  -13.1193  -16.4471 C   0  0  0  0  0  0  0  0  0  0  0  0
   24.9667  -12.1645  -16.8355 C   0  0  0  0  0  0  0  0  0  0  0  0
   23.5153  -12.6160  -16.8518 C   0  0  2  0  0  0  0  0  0  0  0  0
   23.3897  -13.6317  -17.8659 N   0  0  0  0  0  0  0  0  0  0  0  0
   22.6054  -11.4467  -17.1001 C   0  0  0  0  0  0  0  0  0  0  0  0
   22.6348  -10.9865  -18.2464 O   0  0  0  0  0  0  0  0  0  0  0  0
   17.8775  -12.0813  -15.6743 C   0  0  0  0  0  0  0  0  0  0  0  0
   18.8049  -11.1614  -16.4310 C   0  0  0  0  0  0  0  0  0  0  0  0
   19.5811  -10.2664  -15.4766 C   0  0  2  0  0  0  0  0  0  0  0  0
   18.7140   -9.0263  -15.2131 C   0  0  0  0  0  0  0  0  0  0  0  0
   20.9144   -9.8790  -16.0550 C   0  0  2  0  0  0  0  0  0  0  0  0
   21.8390  -11.0087  -16.0417 N   0  0  0  0  0  0  0  0  0  0  0  0
   21.5162   -8.7037  -15.4398 C   0  0  0  0  0  0  0  0  0  0  0  0
   21.9495   -8.7769  -14.2142 O   0  0  0  0  0  0  0  0  0  0  0  0
   25.3677   -4.2407  -16.5214 C   0  0  0  0  0  0  0  0  0  0  0  0
   24.2779   -4.7258  -15.6036 C   0  0  0  0  0  0  0  0  0  0  0  0
   23.5095   -5.8435  -16.2578 C   0  0  2  0  0  0  0  0  0  0  0  0
   22.9626   -5.4041  -17.5766 C   0  0  0  0  0  0  0  0  0  0  0  0
   22.4357   -6.3523  -15.3204 C   0  0  2  0  0  0  0  0  0  0  0  0
   21.7137   -7.4256  -16.0169 N   0  0  0  0  0  0  0  0  0  0  0  0
   21.5367   -5.2822  -14.8641 C   0  0  0  0  0  0  0  0  0  0  0  0
   20.2382   -5.1638  -15.3401 O   0  0  0  0  0  0  0  0  0  0  0  0
   21.8883   -4.4168  -14.0216 O   0  0  0  0  0  0  0  0  0  0  0  0
  2  1  1  1
  2  3  1  0
  4  5  1  0
  4  2  1  0
  5  6  1  6
  7  5  1  0
  7  8  2  0
 10  9  1  0
 11 10  1  0
 11 13  1  0
 11 12  1  6
 13 14  1  1
 14  7  1  0
 15 13  1  0
 16 15  2  0
 17 18  1  0
 18 19  1  0
 19 21  1  0
 19 20  1  6
 21 22  1  6
 21 23  1  0
 22 15  1  0
 23 24  1  0
 25 23  2  0
M  END
$$$$
