LII.pdb
     RDKit          3D

 25 24  0  0  1  0  0  0  0  0999 V2000
   21.9485  -18.6566  -13.0715 C   0  0  0  0  0  0  0  0  0  0  0  0
   21.1916  -19.7214  -12.3304 C   0  0  2  0  0  0  0  0  0  0  0  0
   19.9572  -19.1888  -11.6516 C   0  0  0  0  0  0  0  0  0  0  0  0
   22.0994  -20.4467  -11.3302 C   0  0  0  0  0  0  0  0  0  0  0  0
   23.3115  -20.8903  -12.1332 C   0  0  2  0  0  0  0  0  0  0  0  0
   22.8644  -21.8801  -13.0800 N   0  0  0  0  0  0  0  0  0  0  0  0
   24.3812  -21.4173  -11.2195 C   0  0  0  0  0  0  0  0  0  0  0  0
   24.1555  -22.5264  -10.7238 O   0  0  0  0  0  0  0  0  0  0  0  0
   29.0623  -21.6253  -13.1603 C   0  0  0  0  0  0  0  0  0  0  0  0
   27.8234  -21.7558  -12.3078 C   0  0  0  0  0  0  0  0  0  0  0  0
   27.9214  -20.8795  -11.0682 C   0  0  2  0  0  0  0  0  0  0  0  0
   29.1461  -21.3558  -10.2729 C   0  0  0  0  0  0  0  0  0  0  0  0
   26.6708  -20.9684  -10.2372 C   0  0  2  0  0  0  0  0  0  0  0  0
   25.4921  -20.6247  -11.0267 N   0  0  0  0  0  0  0  0  0  0  0  0
   26.7157  -20.1975   -9.0020 C   0  0  0  0  0  0  0  0  0  0  0  0
   26.4123  -18.9316   -9.0291 O   0  0  0  0  0  0  0  0  0  0  0  0
   26.9308  -22.4523   -3.9584 C   0  0  0  0  0  0  0  0  0  0  0  0
   26.5110  -21.4800   -5.0279 C   0  0  0  0  0  0  0  0  0  0  0  0
   27.6574  -20.5684   -5.3776 C   0  0  2  0  0  0  0  0  0  0  0  0
   28.0488  -19.7394   -4.1983 C   0  0  0  0  0  0  0  0  0  0  0  0
   27.3035  -19.7317   -6.5881 C   0  0  2  0  0  0  0  0  0  0  0  0
   27.0543  -20.6535   -7.7047 N   0  0  0  0  0  0  0  0  0  0  0  0
   28.3407  -18.7396   -6.9067 C   0  0  0  0  0  0  0  0  0  0  0  0
   29.5511  -19.1037   -7.4804 O   0  0  0  0  0  0  0  0  0  0  0  0
   28.1939  -17.5110   -6.6799 O   0  0  0  0  0  0  0  0  0  0  0  0
  2  1  1  1
  2  3  1  0
  4  5  1  0
  4  2  1  0
  5  6  1  6
  7  5  1  0
  7  8  2  0
 10  9  1  0
 11 10  1  0
 11 13  1  0
 11 12  1  1
 13 14  1  6
 14  7  1  0
 15 13  1  0
 16 15  2  0
 17 18  1  0
 18 19  1  0
 19 21  1  0
 19 20  1  1
 21 22  1  6
 21 23  1  0
 22 15  1  0
 23 24  1  0
 25 23  2  0
M  END
$$$$
