LII.pdb
     RDKit          3D

 25 24  0  0  1  0  0  0  0  0999 V2000
   24.0096  -21.0922   -9.7364 C   0  0  0  0  0  0  0  0  0  0  0  0
   25.4953  -20.9831   -9.9277 C   0  0  2  0  0  0  0  0  0  0  0  0
   26.1615  -20.1774   -8.8435 C   0  0  0  0  0  0  0  0  0  0  0  0
   25.8319  -20.4230  -11.3145 C   0  0  0  0  0  0  0  0  0  0  0  0
   25.1372  -21.3463  -12.3023 C   0  0  2  0  0  0  0  0  0  0  0  0
   25.7711  -22.6366  -12.2075 N   0  0  0  0  0  0  0  0  0  0  0  0
   25.2078  -20.7769  -13.6907 C   0  0  0  0  0  0  0  0  0  0  0  0
   26.3164  -20.3526  -14.0337 O   0  0  0  0  0  0  0  0  0  0  0  0
   21.9675  -23.2684  -17.2894 C   0  0  0  0  0  0  0  0  0  0  0  0
   23.1195  -22.5219  -16.6615 C   0  0  0  0  0  0  0  0  0  0  0  0
   22.7940  -21.0430  -16.5151 C   0  0  2  0  0  0  0  0  0  0  0  0
   22.5804  -20.4846  -17.9299 C   0  0  0  0  0  0  0  0  0  0  0  0
   23.8992  -20.3088  -15.8067 C   0  0  2  0  0  0  0  0  0  0  0  0
   24.0473  -20.7835  -14.4342 N   0  0  0  0  0  0  0  0  0  0  0  0
   23.7776  -18.8578  -15.8479 C   0  0  0  0  0  0  0  0  0  0  0  0
   22.8230  -18.2788  -15.1779 O   0  0  0  0  0  0  0  0  0  0  0  0
   26.4932  -13.6741  -15.1558 C   0  0  0  0  0  0  0  0  0  0  0  0
   25.2620  -14.3478  -15.6995 C   0  0  0  0  0  0  0  0  0  0  0  0
   25.4700  -15.8381  -15.7569 C   0  0  2  0  0  0  0  0  0  0  0  0
   26.8150  -16.1600  -16.3216 C   0  0  0  0  0  0  0  0  0  0  0  0
   24.3419  -16.4895  -16.5275 C   0  0  2  0  0  0  0  0  0  0  0  0
   24.5967  -17.9363  -16.5447 N   0  0  0  0  0  0  0  0  0  0  0  0
   24.1936  -15.9347  -17.8808 C   0  0  0  0  0  0  0  0  0  0  0  0
   23.4287  -14.8033  -18.1289 O   0  0  0  0  0  0  0  0  0  0  0  0
   24.7468  -16.4487  -18.8869 O   0  0  0  0  0  0  0  0  0  0  0  0
  2  1  1  1
  2  3  1  0
  4  5  1  0
  4  2  1  0
  5  6  1  6
  7  5  1  0
  7  8  2  0
 10  9  1  0
 11 10  1  0
 11 13  1  0
 11 12  1  6
 13 14  1  1
 14  7  1  0
 15 13  1  0
 16 15  2  0
 17 18  1  0
 18 19  1  0
 19 21  1  0
 19 20  1  6
 21 22  1  6
 21 23  1  0
 22 15  1  0
 23 24  1  0
 25 23  2  0
M  END
$$$$
