LII.pdb
     RDKit          3D

 25 24  0  0  1  0  0  0  0  0999 V2000
   27.7694  -18.2314  -17.4482 C   0  0  0  0  0  0  0  0  0  0  0  0
   28.9095  -18.7143  -16.5980 C   0  0  2  0  0  0  0  0  0  0  0  0
   30.0772  -19.1996  -17.4161 C   0  0  0  0  0  0  0  0  0  0  0  0
   28.4430  -19.7920  -15.6125 C   0  0  0  0  0  0  0  0  0  0  0  0
   27.1896  -19.2291  -14.9623 C   0  0  2  0  0  0  0  0  0  0  0  0
   27.5866  -18.0945  -14.1680 N   0  0  0  0  0  0  0  0  0  0  0  0
   26.5038  -20.2860  -14.1441 C   0  0  0  0  0  0  0  0  0  0  0  0
   26.3885  -21.3879  -14.6911 O   0  0  0  0  0  0  0  0  0  0  0  0
   27.1426  -20.3707   -8.7700 C   0  0  0  0  0  0  0  0  0  0  0  0
   26.8191  -20.8407  -10.1675 C   0  0  0  0  0  0  0  0  0  0  0  0
   25.4210  -20.4038  -10.5784 C   0  0  2  0  0  0  0  0  0  0  0  0
   24.4288  -21.1640   -9.6858 C   0  0  0  0  0  0  0  0  0  0  0  0
   25.1659  -20.6890  -12.0330 C   0  0  2  0  0  0  0  0  0  0  0  0
   26.0770  -19.9288  -12.8832 N   0  0  0  0  0  0  0  0  0  0  0  0
   23.7825  -20.4986  -12.4476 C   0  0  0  0  0  0  0  0  0  0  0  0
   23.3151  -19.2897  -12.5729 O   0  0  0  0  0  0  0  0  0  0  0  0
   19.8312  -21.8092  -16.5880 C   0  0  0  0  0  0  0  0  0  0  0  0
   19.9350  -21.4071  -15.1413 C   0  0  0  0  0  0  0  0  0  0  0  0
   21.3152  -21.7061  -14.6187 C   0  0  2  0  0  0  0  0  0  0  0  0
   21.6044  -23.1691  -14.7039 C   0  0  0  0  0  0  0  0  0  0  0  0
   21.4671  -21.1614  -13.2148 C   0  0  2  0  0  0  0  0  0  0  0  0
   22.8229  -21.4933  -12.7565 N   0  0  0  0  0  0  0  0  0  0  0  0
   20.4319  -21.6678  -12.3018 C   0  0  0  0  0  0  0  0  0  0  0  0
   20.6951  -22.6726  -11.3811 O   0  0  0  0  0  0  0  0  0  0  0  0
   19.2549  -21.2239  -12.3011 O   0  0  0  0  0  0  0  0  0  0  0  0
  2  1  1  6
  2  3  1  0
  4  5  1  0
  4  2  1  0
  5  6  1  1
  7  5  1  0
  7  8  2  0
 10  9  1  0
 11 10  1  0
 11 13  1  0
 11 12  1  1
 13 14  1  6
 14  7  1  0
 15 13  1  0
 16 15  2  0
 17 18  1  0
 18 19  1  0
 19 21  1  0
 19 20  1  1
 21 22  1  1
 21 23  1  0
 22 15  1  0
 23 24  1  0
 25 23  2  0
M  END
$$$$
