LII.pdb
     RDKit          3D

 25 24  0  0  1  0  0  0  0  0999 V2000
   26.4570  -17.2858  -17.5387 C   0  0  0  0  0  0  0  0  0  0  0  0
   25.1684  -18.0439  -17.6814 C   0  0  2  0  0  0  0  0  0  0  0  0
   23.9726  -17.1363  -17.8030 C   0  0  0  0  0  0  0  0  0  0  0  0
   24.9866  -19.0414  -16.5314 C   0  0  0  0  0  0  0  0  0  0  0  0
   26.2287  -19.9174  -16.5568 C   0  0  2  0  0  0  0  0  0  0  0  0
   26.1422  -20.7568  -17.7246 N   0  0  0  0  0  0  0  0  0  0  0  0
   26.3338  -20.7146  -15.2879 C   0  0  0  0  0  0  0  0  0  0  0  0
   25.5620  -21.6755  -15.2004 O   0  0  0  0  0  0  0  0  0  0  0  0
   31.2861  -21.2355  -13.0252 C   0  0  0  0  0  0  0  0  0  0  0  0
   29.8568  -21.4784  -13.4456 C   0  0  0  0  0  0  0  0  0  0  0  0
   28.8922  -20.6846  -12.5774 C   0  0  2  0  0  0  0  0  0  0  0  0
   29.0776  -21.1723  -11.1327 C   0  0  0  0  0  0  0  0  0  0  0  0
   27.4703  -20.8709  -13.0311 C   0  0  2  0  0  0  0  0  0  0  0  0
   27.2662  -20.3028  -14.3603 N   0  0  0  0  0  0  0  0  0  0  0  0
   26.4718  -20.3770  -12.0926 C   0  0  0  0  0  0  0  0  0  0  0  0
   26.3407  -19.0934  -11.9181 O   0  0  0  0  0  0  0  0  0  0  0  0
   21.5929  -20.7991  -12.3397 C   0  0  0  0  0  0  0  0  0  0  0  0
   22.9799  -20.3567  -11.9577 C   0  0  0  0  0  0  0  0  0  0  0  0
   23.3044  -20.8184  -10.5616 C   0  0  2  0  0  0  0  0  0  0  0  0
   22.3639  -20.2087   -9.5740 C   0  0  0  0  0  0  0  0  0  0  0  0
   24.7551  -20.5270  -10.2434 C   0  0  2  0  0  0  0  0  0  0  0  0
   25.5704  -21.1334  -11.3046 N   0  0  0  0  0  0  0  0  0  0  0  0
   25.1418  -20.9998   -8.9061 C   0  0  0  0  0  0  0  0  0  0  0  0
   25.3411  -22.3464   -8.6345 O   0  0  0  0  0  0  0  0  0  0  0  0
   25.3135  -20.2179   -7.9358 O   0  0  0  0  0  0  0  0  0  0  0  0
  2  1  1  1
  2  3  1  0
  4  5  1  0
  4  2  1  0
  5  6  1  6
  7  5  1  0
  7  8  2  0
 10  9  1  0
 11 10  1  0
 11 13  1  0
 11 12  1  1
 13 14  1  6
 14  7  1  0
 15 13  1  0
 16 15  2  0
 17 18  1  0
 18 19  1  0
 19 21  1  0
 19 20  1  1
 21 22  1  6
 21 23  1  0
 22 15  1  0
 23 24  1  0
 25 23  2  0
M  END
$$$$
