LII.pdb
     RDKit          3D

 25 24  0  0  1  0  0  0  0  0999 V2000
   21.9170  -18.6909  -12.6246 C   0  0  0  0  0  0  0  0  0  0  0  0
   21.2601  -19.8996  -12.0219 C   0  0  2  0  0  0  0  0  0  0  0  0
   19.9723  -19.5674  -11.3152 C   0  0  0  0  0  0  0  0  0  0  0  0
   22.2238  -20.6416  -11.0884 C   0  0  0  0  0  0  0  0  0  0  0  0
   23.4907  -20.8529  -11.9014 C   0  0  2  0  0  0  0  0  0  0  0  0
   23.1651  -21.7432  -12.9863 N   0  0  0  0  0  0  0  0  0  0  0  0
   24.5885  -21.3936  -11.0300 C   0  0  0  0  0  0  0  0  0  0  0  0
   24.4352  -22.5579  -10.6457 O   0  0  0  0  0  0  0  0  0  0  0  0
   29.2364  -21.4462  -12.9198 C   0  0  0  0  0  0  0  0  0  0  0  0
   28.0079  -21.6265  -12.0613 C   0  0  0  0  0  0  0  0  0  0  0  0
   28.0767  -20.7471  -10.8218 C   0  0  2  0  0  0  0  0  0  0  0  0
   29.3268  -21.1698  -10.0359 C   0  0  0  0  0  0  0  0  0  0  0  0
   26.8374  -20.8908   -9.9817 C   0  0  2  0  0  0  0  0  0  0  0  0
   25.6427  -20.5514  -10.7488 N   0  0  0  0  0  0  0  0  0  0  0  0
   26.8771  -20.1567   -8.7241 C   0  0  0  0  0  0  0  0  0  0  0  0
   26.4426  -18.9298   -8.6880 O   0  0  0  0  0  0  0  0  0  0  0  0
   27.5166  -22.4858   -3.7137 C   0  0  0  0  0  0  0  0  0  0  0  0
   27.0028  -21.6169   -4.8302 C   0  0  0  0  0  0  0  0  0  0  0  0
   28.0083  -20.5443   -5.1561 C   0  0  2  0  0  0  0  0  0  0  0  0
   28.3119  -19.7229   -3.9460 C   0  0  0  0  0  0  0  0  0  0  0  0
   27.5178  -19.7105   -6.3200 C   0  0  2  0  0  0  0  0  0  0  0  0
   27.3399  -20.6128   -7.4658 N   0  0  0  0  0  0  0  0  0  0  0  0
   28.4204  -18.5916   -6.6281 C   0  0  0  0  0  0  0  0  0  0  0  0
   28.1795  -17.3065   -6.1622 O   0  0  0  0  0  0  0  0  0  0  0  0
   29.4569  -18.7316   -7.3270 O   0  0  0  0  0  0  0  0  0  0  0  0
  2  1  1  1
  2  3  1  0
  4  5  1  0
  4  2  1  0
  5  6  1  6
  7  5  1  0
  7  8  2  0
 10  9  1  0
 11 10  1  0
 11 13  1  0
 11 12  1  1
 13 14  1  6
 14  7  1  0
 15 13  1  0
 16 15  2  0
 17 18  1  0
 18 19  1  0
 19 21  1  0
 19 20  1  1
 21 22  1  6
 21 23  1  0
 22 15  1  0
 23 24  1  0
 25 23  2  0
M  END
$$$$
