LII.pdb
     RDKit          3D

 25 24  0  0  1  0  0  0  0  0999 V2000
   27.8097  -15.6939  -15.4804 C   0  0  0  0  0  0  0  0  0  0  0  0
   26.7052  -15.9839  -16.4558 C   0  0  2  0  0  0  0  0  0  0  0  0
   25.8194  -14.7904  -16.6998 C   0  0  0  0  0  0  0  0  0  0  0  0
   25.8816  -17.1976  -16.0096 C   0  0  0  0  0  0  0  0  0  0  0  0
   26.8922  -18.3107  -15.7853 C   0  0  2  0  0  0  0  0  0  0  0  0
   27.4515  -18.6521  -17.0685 N   0  0  0  0  0  0  0  0  0  0  0  0
   26.2374  -19.4864  -15.1177 C   0  0  0  0  0  0  0  0  0  0  0  0
   25.6513  -20.2672  -15.8751 O   0  0  0  0  0  0  0  0  0  0  0  0
   28.7422  -21.0821  -10.6346 C   0  0  0  0  0  0  0  0  0  0  0  0
   27.8827  -21.2371  -11.8658 C   0  0  0  0  0  0  0  0  0  0  0  0
   26.4661  -20.7472  -11.6055 C   0  0  2  0  0  0  0  0  0  0  0  0
   25.7857  -21.7885  -10.7044 C   0  0  0  0  0  0  0  0  0  0  0  0
   25.7063  -20.5676  -12.8910 C   0  0  2  0  0  0  0  0  0  0  0  0
   26.3526  -19.5777  -13.7473 N   0  0  0  0  0  0  0  0  0  0  0  0
   24.2928  -20.2630  -12.7144 C   0  0  0  0  0  0  0  0  0  0  0  0
   23.9486  -19.1781  -12.0819 O   0  0  0  0  0  0  0  0  0  0  0  0
   19.4140  -18.9272  -15.4337 C   0  0  0  0  0  0  0  0  0  0  0  0
   19.8573  -19.6019  -14.1633 C   0  0  0  0  0  0  0  0  0  0  0  0
   21.2753  -20.0889  -14.3035 C   0  0  2  0  0  0  0  0  0  0  0  0
   21.3687  -21.1387  -15.3620 C   0  0  0  0  0  0  0  0  0  0  0  0
   21.7954  -20.5627  -12.9634 C   0  0  2  0  0  0  0  0  0  0  0  0
   23.1791  -21.0149  -13.1615 N   0  0  0  0  0  0  0  0  0  0  0  0
   20.9481  -21.6079  -12.3708 C   0  0  0  0  0  0  0  0  0  0  0  0
   21.3213  -22.9449  -12.3780 O   0  0  0  0  0  0  0  0  0  0  0  0
   19.8428  -21.3545  -11.8263 O   0  0  0  0  0  0  0  0  0  0  0  0
  2  1  1  1
  2  3  1  0
  4  5  1  0
  4  2  1  0
  5  6  1  6
  7  5  1  0
  7  8  2  0
 10  9  1  0
 11 10  1  0
 11 13  1  0
 11 12  1  1
 13 14  1  1
 14  7  1  0
 15 13  1  0
 16 15  2  0
 17 18  1  0
 18 19  1  0
 19 21  1  0
 19 20  1  6
 21 22  1  6
 21 23  1  0
 22 15  1  0
 23 24  1  0
 25 23  2  0
M  END
$$$$
