LII.pdb
     RDKit          3D

 25 24  0  0  1  0  0  0  0  0999 V2000
   26.9651  -13.3809  -15.2709 C   0  0  0  0  0  0  0  0  0  0  0  0
   27.2156  -12.8054  -16.6353 C   0  0  2  0  0  0  0  0  0  0  0  0
   28.6130  -12.2648  -16.7885 C   0  0  0  0  0  0  0  0  0  0  0  0
   26.1719  -11.7372  -16.9821 C   0  0  0  0  0  0  0  0  0  0  0  0
   24.8336  -12.4578  -16.9583 C   0  0  2  0  0  0  0  0  0  0  0  0
   24.8990  -13.5235  -17.9257 N   0  0  0  0  0  0  0  0  0  0  0  0
   23.7154  -11.4961  -17.2441 C   0  0  0  0  0  0  0  0  0  0  0  0
   23.5875  -11.1692  -18.4288 O   0  0  0  0  0  0  0  0  0  0  0  0
   18.9967  -12.7314  -16.1500 C   0  0  0  0  0  0  0  0  0  0  0  0
   20.1184  -11.9068  -16.7335 C   0  0  0  0  0  0  0  0  0  0  0  0
   20.5595  -10.8231  -15.7613 C   0  0  2  0  0  0  0  0  0  0  0  0
   19.4084   -9.8113  -15.6589 C   0  0  0  0  0  0  0  0  0  0  0  0
   21.8246  -10.1554  -16.2260 C   0  0  2  0  0  0  0  0  0  0  0  0
   22.9537  -11.0792  -16.1738 N   0  0  0  0  0  0  0  0  0  0  0  0
   22.1347   -8.9113  -15.5348 C   0  0  0  0  0  0  0  0  0  0  0  0
   22.4823   -8.9482  -14.2806 O   0  0  0  0  0  0  0  0  0  0  0  0
   24.5886   -4.9745  -18.0362 C   0  0  0  0  0  0  0  0  0  0  0  0
   24.1320   -5.9623  -16.9964 C   0  0  0  0  0  0  0  0  0  0  0  0
   23.0195   -5.3696  -16.1726 C   0  0  2  0  0  0  0  0  0  0  0  0
   23.4942   -4.1551  -15.4439 C   0  0  0  0  0  0  0  0  0  0  0  0
   22.4449   -6.4194  -15.2460 C   0  0  2  0  0  0  0  0  0  0  0  0
   22.1174   -7.5967  -16.0615 N   0  0  0  0  0  0  0  0  0  0  0  0
   21.2842   -5.9257  -14.4906 C   0  0  0  0  0  0  0  0  0  0  0  0
   20.0095   -5.9016  -15.0393 O   0  0  0  0  0  0  0  0  0  0  0  0
   21.3769   -5.4989  -13.3109 O   0  0  0  0  0  0  0  0  0  0  0  0
  2  1  1  1
  2  3  1  0
  4  5  1  0
  4  2  1  0
  5  6  1  6
  7  5  1  0
  7  8  2  0
 10  9  1  0
 11 10  1  0
 11 13  1  0
 11 12  1  6
 13 14  1  1
 14  7  1  0
 15 13  1  0
 16 15  2  0
 17 18  1  0
 18 19  1  0
 19 21  1  0
 19 20  1  1
 21 22  1  6
 21 23  1  0
 22 15  1  0
 23 24  1  0
 25 23  2  0
M  END
$$$$
