LVS.pdb
     RDKit          3D

 22 21  0  0  1  0  0  0  0  0999 V2000
   15.5669  -13.7636  -16.7713 C   0  0  0  0  0  0  0  0  0  0  0  0
   16.3637  -14.4104  -15.6595 C   0  0  2  0  0  0  0  0  0  0  0  0
   15.5893  -14.3068  -14.3856 C   0  0  0  0  0  0  0  0  0  0  0  0
   17.7129  -13.6921  -15.5507 C   0  0  0  0  0  0  0  0  0  0  0  0
   18.4360  -13.8243  -16.8744 C   0  0  2  0  0  0  0  0  0  0  0  0
   18.9063  -15.1729  -17.0202 N   0  0  0  0  0  0  0  0  0  0  0  0
   19.6111  -12.8703  -16.7999 C   0  0  0  0  0  0  0  0  0  0  0  0
   20.6057  -13.1967  -16.1560 O   0  0  0  0  0  0  0  0  0  0  0  0
   21.8107   -9.0575  -19.1494 C   0  0  0  0  0  0  0  0  0  0  0  0
   20.9020  -10.2673  -19.0334 C   0  0  2  0  0  0  0  0  0  0  0  0
   19.6797   -9.9144  -19.8343 C   0  0  0  0  0  0  0  0  0  0  0  0
   20.5811  -10.6224  -17.6401 C   0  0  2  0  0  0  0  0  0  0  0  0
   19.6072  -11.6489  -17.4275 N   0  0  0  0  0  0  0  0  0  0  0  0
   20.0405   -9.4681  -16.8861 C   0  0  0  0  0  0  0  0  0  0  0  0
   18.8296   -9.0699  -17.0753 O   0  0  0  0  0  0  0  0  0  0  0  0
   21.9451   -7.7249  -13.6595 O   0  0  0  0  0  0  0  0  0  0  0  0
   20.5413   -7.7192  -13.6981 C   0  0  0  0  0  0  0  0  0  0  0  0
   20.1616   -7.6221  -15.1803 C   0  0  2  0  0  0  0  0  0  0  0  0
   20.7457   -8.7211  -15.9259 N   0  0  0  0  0  0  0  0  0  0  0  0
   20.4683   -6.2975  -15.7264 C   0  0  0  0  0  0  0  0  0  0  0  0
   21.3620   -6.1734  -16.5909 O   0  0  0  0  0  0  0  0  0  0  0  0
   19.7880   -5.1728  -15.3056 O   0  0  0  0  0  0  0  0  0  0  0  0
  2  1  1  6
  2  4  1  0
  2  3  1  0
  4  5  1  0
  5  7  1  0
  5  6  1  1
  7  8  2  0
 10  9  1  1
 10 12  1  0
 11 10  1  0
 12 14  1  0
 12 13  1  6
 13  7  1  0
 14 15  2  0
 16 17  1  0
 18 17  1  1
 18 20  1  0
 19 14  1  0
 19 18  1  0
 20 21  2  0
 20 22  1  0
M  END
$$$$
