LVS.pdb
     RDKit          3D

 22 21  0  0  1  0  0  0  0  0999 V2000
   23.6167  -23.3828  -14.8407 C   0  0  0  0  0  0  0  0  0  0  0  0
   23.1703  -23.0800  -13.4272 C   0  0  2  0  0  0  0  0  0  0  0  0
   21.7966  -23.6325  -13.2247 C   0  0  0  0  0  0  0  0  0  0  0  0
   23.1942  -21.5609  -13.2276 C   0  0  0  0  0  0  0  0  0  0  0  0
   24.5522  -21.0418  -13.6506 C   0  0  2  0  0  0  0  0  0  0  0  0
   25.5311  -21.4410  -12.6792 N   0  0  0  0  0  0  0  0  0  0  0  0
   24.4286  -19.5317  -13.6720 C   0  0  0  0  0  0  0  0  0  0  0  0
   24.2184  -18.9345  -12.6185 O   0  0  0  0  0  0  0  0  0  0  0  0
   26.3684  -17.6889  -16.9056 C   0  0  0  0  0  0  0  0  0  0  0  0
   25.8998  -16.9090  -15.6911 C   0  0  2  0  0  0  0  0  0  0  0  0
   27.0336  -17.0008  -14.7081 C   0  0  0  0  0  0  0  0  0  0  0  0
   24.6291  -17.4060  -15.1353 C   0  0  2  0  0  0  0  0  0  0  0  0
   24.5428  -18.8011  -14.8290 N   0  0  0  0  0  0  0  0  0  0  0  0
   23.4957  -17.1823  -16.0618 C   0  0  0  0  0  0  0  0  0  0  0  0
   23.1305  -18.1030  -16.8862 O   0  0  0  0  0  0  0  0  0  0  0  0
   20.3439  -14.8660  -15.3339 O   0  0  0  0  0  0  0  0  0  0  0  0
   20.7705  -14.6218  -16.6495 C   0  0  0  0  0  0  0  0  0  0  0  0
   21.6123  -15.8385  -17.0513 C   0  0  2  0  0  0  0  0  0  0  0  0
   22.7269  -16.0074  -16.1381 N   0  0  0  0  0  0  0  0  0  0  0  0
   21.9982  -15.7802  -18.4636 C   0  0  0  0  0  0  0  0  0  0  0  0
   23.1109  -15.3110  -18.7851 O   0  0  0  0  0  0  0  0  0  0  0  0
   21.1551  -16.2351  -19.4573 O   0  0  0  0  0  0  0  0  0  0  0  0
  2  1  1  6
  2  4  1  0
  2  3  1  0
  4  5  1  0
  5  7  1  0
  5  6  1  1
  7  8  2  0
 10  9  1  6
 10 12  1  0
 11 10  1  0
 12 14  1  0
 12 13  1  6
 13  7  1  0
 14 15  2  0
 16 17  1  0
 18 17  1  1
 18 20  1  0
 19 14  1  0
 19 18  1  0
 20 21  2  0
 20 22  1  0
M  END
$$$$
