LVS.pdb
     RDKit          3D

 22 21  0  0  1  0  0  0  0  0999 V2000
   21.4454  -20.2085  -17.7851 C   0  0  0  0  0  0  0  0  0  0  0  0
   21.0821  -20.4665  -16.3392 C   0  0  2  0  0  0  0  0  0  0  0  0
   19.6126  -20.7225  -16.2477 C   0  0  0  0  0  0  0  0  0  0  0  0
   21.4861  -19.2407  -15.5131 C   0  0  0  0  0  0  0  0  0  0  0  0
   22.9546  -18.9613  -15.7541 C   0  0  2  0  0  0  0  0  0  0  0  0
   23.7317  -20.0499  -15.2322 N   0  0  0  0  0  0  0  0  0  0  0  0
   23.2637  -17.6900  -14.9897 C   0  0  0  0  0  0  0  0  0  0  0  0
   23.3139  -17.7281  -13.7622 O   0  0  0  0  0  0  0  0  0  0  0  0
   25.5715  -14.8630  -17.0439 C   0  0  0  0  0  0  0  0  0  0  0  0
   25.2965  -14.7878  -15.5534 C   0  0  2  0  0  0  0  0  0  0  0  0
   26.3440  -15.6603  -14.9197 C   0  0  0  0  0  0  0  0  0  0  0  0
   23.9277  -15.1965  -15.1930 C   0  0  2  0  0  0  0  0  0  0  0  0
   23.4910  -16.4908  -15.6189 N   0  0  0  0  0  0  0  0  0  0  0  0
   22.9105  -14.2818  -15.7602 C   0  0  0  0  0  0  0  0  0  0  0  0
   22.4997  -14.4284  -16.9728 O   0  0  0  0  0  0  0  0  0  0  0  0
   19.9330  -10.4708  -15.3466 O   0  0  0  0  0  0  0  0  0  0  0  0
   20.8909  -11.2507  -14.6785 C   0  0  0  0  0  0  0  0  0  0  0  0
   21.3533  -12.3065  -15.6894 C   0  0  2  0  0  0  0  0  0  0  0  0
   22.3055  -13.2129  -15.0758 N   0  0  0  0  0  0  0  0  0  0  0  0
   21.8281  -11.6885  -16.9302 C   0  0  0  0  0  0  0  0  0  0  0  0
   22.9790  -11.2047  -16.9828 O   0  0  0  0  0  0  0  0  0  0  0  0
   21.0280  -11.6270  -18.0532 O   0  0  0  0  0  0  0  0  0  0  0  0
  2  1  1  6
  2  4  1  0
  2  3  1  0
  4  5  1  0
  5  7  1  0
  5  6  1  1
  7  8  2  0
 10  9  1  6
 10 12  1  0
 11 10  1  0
 12 14  1  0
 12 13  1  6
 13  7  1  0
 14 15  2  0
 16 17  1  0
 18 17  1  1
 18 20  1  0
 19 14  1  0
 19 18  1  0
 20 21  2  0
 20 22  1  0
M  END
$$$$
