LVS.pdb
     RDKit          3D

 22 21  0  0  1  0  0  0  0  0999 V2000
   25.6734  -13.3591  -15.9226 C   0  0  0  0  0  0  0  0  0  0  0  0
   25.1939  -13.3470  -17.3576 C   0  0  2  0  0  0  0  0  0  0  0  0
   26.3745  -13.4838  -18.2635 C   0  0  0  0  0  0  0  0  0  0  0  0
   24.4500  -12.0309  -17.6075 C   0  0  0  0  0  0  0  0  0  0  0  0
   23.2039  -12.0121  -16.7475 C   0  0  2  0  0  0  0  0  0  0  0  0
   22.3794  -13.1362  -17.0906 N   0  0  0  0  0  0  0  0  0  0  0  0
   22.4876  -10.7206  -17.0869 C   0  0  0  0  0  0  0  0  0  0  0  0
   22.4091  -10.3721  -18.2629 O   0  0  0  0  0  0  0  0  0  0  0  0
   18.8206   -7.7817  -15.5536 C   0  0  0  0  0  0  0  0  0  0  0  0
   19.6261   -9.0550  -15.7343 C   0  0  2  0  0  0  0  0  0  0  0  0
   19.5311   -9.7666  -14.4135 C   0  0  0  0  0  0  0  0  0  0  0  0
   21.0197   -8.8085  -16.1439 C   0  0  2  0  0  0  0  0  0  0  0  0
   21.9200   -9.9205  -16.1260 N   0  0  0  0  0  0  0  0  0  0  0  0
   21.6828   -7.8096  -15.2748 C   0  0  0  0  0  0  0  0  0  0  0  0
   22.1598   -8.1518  -14.1276 O   0  0  0  0  0  0  0  0  0  0  0  0
   22.0189   -3.7390  -16.1477 O   0  0  0  0  0  0  0  0  0  0  0  0
   23.1472   -4.3624  -15.5901 C   0  0  0  0  0  0  0  0  0  0  0  0
   22.6119   -5.5300  -14.7531 C   0  0  2  0  0  0  0  0  0  0  0  0
   21.8637   -6.4508  -15.5880 N   0  0  0  0  0  0  0  0  0  0  0  0
   21.8773   -5.0545  -13.5779 C   0  0  0  0  0  0  0  0  0  0  0  0
   20.6325   -5.1564  -13.5399 O   0  0  0  0  0  0  0  0  0  0  0  0
   22.5325   -4.4913  -12.5015 O   0  0  0  0  0  0  0  0  0  0  0  0
  2  1  1  1
  2  4  1  0
  2  3  1  0
  4  5  1  0
  5  7  1  0
  5  6  1  6
  7  8  2  0
 10  9  1  1
 10 12  1  0
 11 10  1  0
 12 14  1  0
 12 13  1  1
 13  7  1  0
 14 15  2  0
 16 17  1  0
 18 17  1  6
 18 20  1  0
 19 14  1  0
 19 18  1  0
 20 21  2  0
 20 22  1  0
M  END
$$$$
