LVS.pdb
     RDKit          3D

 22 21  0  0  1  0  0  0  0  0999 V2000
   19.2848  -14.0760  -16.8336 C   0  0  0  0  0  0  0  0  0  0  0  0
   17.8862  -14.2778  -17.3745 C   0  0  2  0  0  0  0  0  0  0  0  0
   17.9505  -14.3563  -18.8654 C   0  0  0  0  0  0  0  0  0  0  0  0
   17.0164  -13.1025  -16.9160 C   0  0  0  0  0  0  0  0  0  0  0  0
   16.9787  -13.0940  -15.4023 C   0  0  2  0  0  0  0  0  0  0  0  0
   16.3246  -14.2863  -14.9421 N   0  0  0  0  0  0  0  0  0  0  0  0
   16.1660  -11.8746  -15.0165 C   0  0  0  0  0  0  0  0  0  0  0  0
   14.9995  -11.7901  -15.3942 O   0  0  0  0  0  0  0  0  0  0  0  0
   17.6153   -9.6952  -11.6150 C   0  0  0  0  0  0  0  0  0  0  0  0
   16.2028   -9.6113  -12.1634 C   0  0  2  0  0  0  0  0  0  0  0  0
   15.4596  -10.7363  -11.4986 C   0  0  0  0  0  0  0  0  0  0  0  0
   16.1441   -9.6867  -13.6336 C   0  0  2  0  0  0  0  0  0  0  0  0
   16.6855  -10.8552  -14.2572 N   0  0  0  0  0  0  0  0  0  0  0  0
   16.8846   -8.5756  -14.2739 C   0  0  0  0  0  0  0  0  0  0  0  0
   18.1650   -8.6317  -14.4081 O   0  0  0  0  0  0  0  0  0  0  0  0
   16.9633   -4.4522  -16.8036 O   0  0  0  0  0  0  0  0  0  0  0  0
   16.1335   -5.3316  -16.0891 C   0  0  0  0  0  0  0  0  0  0  0  0
   17.0708   -6.3414  -15.4166 C   0  0  2  0  0  0  0  0  0  0  0  0
   16.3060   -7.4010  -14.7865 N   0  0  0  0  0  0  0  0  0  0  0  0
   18.0226   -5.6764  -14.5229 C   0  0  0  0  0  0  0  0  0  0  0  0
   17.6633   -5.3343  -13.3759 O   0  0  0  0  0  0  0  0  0  0  0  0
   19.3184   -5.4158  -14.9201 O   0  0  0  0  0  0  0  0  0  0  0  0
  2  1  1  1
  2  4  1  0
  2  3  1  0
  4  5  1  0
  5  7  1  0
  5  6  1  6
  7  8  2  0
 10  9  1  6
 10 12  1  0
 11 10  1  0
 12 14  1  0
 12 13  1  6
 13  7  1  0
 14 15  2  0
 16 17  1  0
 18 17  1  1
 18 20  1  0
 19 14  1  0
 19 18  1  0
 20 21  2  0
 20 22  1  0
M  END
$$$$
