LVS.pdb
     RDKit          3D

 22 21  0  0  1  0  0  0  0  0999 V2000
   17.4296  -13.3968  -12.2607 C   0  0  0  0  0  0  0  0  0  0  0  0
   16.2556  -13.2334  -13.2010 C   0  0  2  0  0  0  0  0  0  0  0  0
   16.7160  -13.4907  -14.5993 C   0  0  0  0  0  0  0  0  0  0  0  0
   15.7083  -11.8103  -13.0482 C   0  0  0  0  0  0  0  0  0  0  0  0
   15.1980  -11.6409  -11.6328 C   0  0  2  0  0  0  0  0  0  0  0  0
   14.1799  -12.6212  -11.3801 N   0  0  0  0  0  0  0  0  0  0  0  0
   14.6037  -10.2483  -11.5721 C   0  0  0  0  0  0  0  0  0  0  0  0
   13.5444  -10.0249  -12.1541 O   0  0  0  0  0  0  0  0  0  0  0  0
   15.8426   -7.8791   -8.3115 C   0  0  0  0  0  0  0  0  0  0  0  0
   14.6780   -7.4803   -9.1988 C   0  0  2  0  0  0  0  0  0  0  0  0
   13.4750   -8.1364   -8.5806 C   0  0  0  0  0  0  0  0  0  0  0  0
   14.8653   -7.8596  -10.6101 C   0  0  2  0  0  0  0  0  0  0  0  0
   15.2062   -9.2211  -10.8885 N   0  0  0  0  0  0  0  0  0  0  0  0
   15.9570   -7.0897  -11.2491 C   0  0  0  0  0  0  0  0  0  0  0  0
   17.0736   -7.6592  -11.5480 O   0  0  0  0  0  0  0  0  0  0  0  0
   17.8253   -5.1757  -14.6254 O   0  0  0  0  0  0  0  0  0  0  0  0
   16.8869   -5.8534  -13.8302 C   0  0  0  0  0  0  0  0  0  0  0  0
   16.8319   -5.0903  -12.5017 C   0  0  2  0  0  0  0  0  0  0  0  0
   15.9000   -5.7267  -11.5900 N   0  0  0  0  0  0  0  0  0  0  0  0
   16.5820   -3.6622  -12.7139 C   0  0  0  0  0  0  0  0  0  0  0  0
   15.4174   -3.2164  -12.6339 O   0  0  0  0  0  0  0  0  0  0  0  0
   17.6109   -2.7888  -13.0029 O   0  0  0  0  0  0  0  0  0  0  0  0
  2  1  1  1
  2  4  1  0
  2  3  1  0
  4  5  1  0
  5  7  1  0
  5  6  1  6
  7  8  2  0
 10  9  1  1
 10 12  1  0
 11 10  1  0
 12 14  1  0
 12 13  1  1
 13  7  1  0
 14 15  2  0
 16 17  1  0
 18 17  1  6
 18 20  1  0
 19 14  1  0
 19 18  1  0
 20 21  2  0
 20 22  1  0
M  END
$$$$
