LVS.pdb
     RDKit          3D

 22 21  0  0  1  0  0  0  0  0999 V2000
   22.2074  -20.8775  -11.3787 C   0  0  0  0  0  0  0  0  0  0  0  0
   23.2860  -21.0809  -12.4200 C   0  0  2  0  0  0  0  0  0  0  0  0
   22.9892  -22.3287  -13.1869 C   0  0  0  0  0  0  0  0  0  0  0  0
   24.6375  -21.1759  -11.7040 C   0  0  0  0  0  0  0  0  0  0  0  0
   24.8511  -19.9046  -10.9096 C   0  0  2  0  0  0  0  0  0  0  0  0
   24.9884  -18.8009  -11.8175 N   0  0  0  0  0  0  0  0  0  0  0  0
   26.1418  -20.1091  -10.1426 C   0  0  0  0  0  0  0  0  0  0  0  0
   27.1179  -20.5725  -10.7284 O   0  0  0  0  0  0  0  0  0  0  0  0
   26.1997  -18.3031   -6.1908 C   0  0  0  0  0  0  0  0  0  0  0  0
   27.4437  -18.5324   -7.0289 C   0  0  2  0  0  0  0  0  0  0  0  0
   27.6200  -17.2655   -7.8189 C   0  0  0  0  0  0  0  0  0  0  0  0
   27.3545  -19.7259   -7.8882 C   0  0  2  0  0  0  0  0  0  0  0  0
   26.2635  -19.7950   -8.8114 N   0  0  0  0  0  0  0  0  0  0  0  0
   27.2187  -20.9690   -7.0950 C   0  0  0  0  0  0  0  0  0  0  0  0
   26.0552  -21.4078   -6.7570 O   0  0  0  0  0  0  0  0  0  0  0  0
   29.2005  -24.5602   -4.5055 O   0  0  0  0  0  0  0  0  0  0  0  0
   29.4592  -23.5639   -5.4609 C   0  0  0  0  0  0  0  0  0  0  0  0
   28.1483  -22.7855   -5.6225 C   0  0  2  0  0  0  0  0  0  0  0  0
   28.2846  -21.7715   -6.6511 N   0  0  0  0  0  0  0  0  0  0  0  0
   27.6668  -22.2740   -4.3367 C   0  0  0  0  0  0  0  0  0  0  0  0
   28.0596  -21.1619   -3.9238 O   0  0  0  0  0  0  0  0  0  0  0  0
   26.7817  -22.9969   -3.5628 O   0  0  0  0  0  0  0  0  0  0  0  0
  2  1  1  1
  2  4  1  0
  2  3  1  0
  4  5  1  0
  5  7  1  0
  5  6  1  6
  7  8  2  0
 10  9  1  6
 10 12  1  0
 11 10  1  0
 12 14  1  0
 12 13  1  6
 13  7  1  0
 14 15  2  0
 16 17  1  0
 18 17  1  1
 18 20  1  0
 19 14  1  0
 19 18  1  0
 20 21  2  0
 20 22  1  0
M  END
$$$$
