LVS.pdb
     RDKit          3D

 22 21  0  0  1  0  0  0  0  0999 V2000
   19.0317  -14.3988  -16.0189 C   0  0  0  0  0  0  0  0  0  0  0  0
   17.7053  -14.3938  -16.7467 C   0  0  2  0  0  0  0  0  0  0  0  0
   17.9612  -14.3893  -18.2190 C   0  0  0  0  0  0  0  0  0  0  0  0
   16.9213  -13.1503  -16.3142 C   0  0  0  0  0  0  0  0  0  0  0  0
   16.6229  -13.2609  -14.8338 C   0  0  2  0  0  0  0  0  0  0  0  0
   15.9200  -14.4881  -14.5867 N   0  0  0  0  0  0  0  0  0  0  0  0
   15.7348  -12.0787  -14.5023 C   0  0  0  0  0  0  0  0  0  0  0  0
   14.5784  -12.0649  -14.9185 O   0  0  0  0  0  0  0  0  0  0  0  0
   16.9317   -9.8254  -11.0895 C   0  0  0  0  0  0  0  0  0  0  0  0
   15.5444   -9.7650  -11.7015 C   0  0  2  0  0  0  0  0  0  0  0  0
   14.7826  -10.8858  -11.0506 C   0  0  0  0  0  0  0  0  0  0  0  0
   15.5520   -9.8663  -13.1713 C   0  0  2  0  0  0  0  0  0  0  0  0
   16.1746  -11.0168  -13.7510 N   0  0  0  0  0  0  0  0  0  0  0  0
   16.2650   -8.7308  -13.7998 C   0  0  0  0  0  0  0  0  0  0  0  0
   17.5500   -8.7359  -13.8971 O   0  0  0  0  0  0  0  0  0  0  0  0
   16.4118   -4.7651  -16.5057 O   0  0  0  0  0  0  0  0  0  0  0  0
   15.5799   -5.7694  -15.9844 C   0  0  0  0  0  0  0  0  0  0  0  0
   16.3971   -6.4671  -14.8909 C   0  0  2  0  0  0  0  0  0  0  0  0
   15.6545   -7.5844  -14.3386 N   0  0  0  0  0  0  0  0  0  0  0  0
   16.8765   -5.5120  -13.8885 C   0  0  0  0  0  0  0  0  0  0  0  0
   16.2389   -5.3543  -12.8254 O   0  0  0  0  0  0  0  0  0  0  0  0
   18.0257   -4.7751  -14.0913 O   0  0  0  0  0  0  0  0  0  0  0  0
  2  1  1  1
  2  4  1  0
  2  3  1  0
  4  5  1  0
  5  7  1  0
  5  6  1  6
  7  8  2  0
 10  9  1  1
 10 12  1  0
 11 10  1  0
 12 14  1  0
 12 13  1  1
 13  7  1  0
 14 15  2  0
 16 17  1  0
 18 17  1  6
 18 20  1  0
 19 14  1  0
 19 18  1  0
 20 21  2  0
 20 22  1  0
M  END
$$$$
