LVS.pdb
     RDKit          3D

 22 21  0  0  1  0  0  0  0  0999 V2000
   28.4828  -18.9677  -17.7489 C   0  0  0  0  0  0  0  0  0  0  0  0
   27.8995  -20.2760  -18.2361 C   0  0  2  0  0  0  0  0  0  0  0  0
   27.3280  -20.0723  -19.6017 C   0  0  0  0  0  0  0  0  0  0  0  0
   26.8221  -20.7245  -17.2430 C   0  0  0  0  0  0  0  0  0  0  0  0
   27.4235  -20.7348  -15.8534 C   0  0  2  0  0  0  0  0  0  0  0  0
   28.4900  -21.6949  -15.8102 N   0  0  0  0  0  0  0  0  0  0  0  0
   26.3053  -21.1593  -14.9229 C   0  0  0  0  0  0  0  0  0  0  0  0
   25.4224  -21.9005  -15.3491 O   0  0  0  0  0  0  0  0  0  0  0  0
   27.1305  -21.3302  -10.7300 C   0  0  0  0  0  0  0  0  0  0  0  0
   25.8524  -20.6375  -11.1652 C   0  0  2  0  0  0  0  0  0  0  0  0
   24.8517  -20.9550  -10.0892 C   0  0  0  0  0  0  0  0  0  0  0  0
   25.3934  -21.0504  -12.5029 C   0  0  2  0  0  0  0  0  0  0  0  0
   26.2403  -20.7455  -13.6152 N   0  0  0  0  0  0  0  0  0  0  0  0
   24.1036  -20.4188  -12.8640 C   0  0  0  0  0  0  0  0  0  0  0  0
   24.0096  -19.1389  -12.9803 O   0  0  0  0  0  0  0  0  0  0  0  0
   21.3307  -22.0880  -15.0836 O   0  0  0  0  0  0  0  0  0  0  0  0
   21.2837  -20.6954  -14.9082 C   0  0  0  0  0  0  0  0  0  0  0  0
   21.6547  -20.4433  -13.4421 C   0  0  2  0  0  0  0  0  0  0  0  0
   22.9027  -21.1063  -13.1141 N   0  0  0  0  0  0  0  0  0  0  0  0
   20.5456  -20.7754  -12.5440 C   0  0  0  0  0  0  0  0  0  0  0  0
   20.6940  -21.6598  -11.6738 O   0  0  0  0  0  0  0  0  0  0  0  0
   19.3295  -20.1293  -12.6362 O   0  0  0  0  0  0  0  0  0  0  0  0
  2  1  1  1
  2  4  1  0
  2  3  1  0
  4  5  1  0
  5  7  1  0
  5  6  1  6
  7  8  2  0
 10  9  1  1
 10 12  1  0
 11 10  1  0
 12 14  1  0
 12 13  1  6
 13  7  1  0
 14 15  2  0
 16 17  1  0
 18 17  1  6
 18 20  1  0
 19 14  1  0
 19 18  1  0
 20 21  2  0
 20 22  1  0
M  END
$$$$
