LVS.pdb
     RDKit          3D

 22 21  0  0  1  0  0  0  0  0999 V2000
   25.2540  -12.8647  -15.6786 C   0  0  0  0  0  0  0  0  0  0  0  0
   24.9293  -12.8269  -17.1559 C   0  0  2  0  0  0  0  0  0  0  0  0
   26.1968  -12.6411  -17.9253 C   0  0  0  0  0  0  0  0  0  0  0  0
   23.9518  -11.6738  -17.4066 C   0  0  0  0  0  0  0  0  0  0  0  0
   22.6673  -11.9611  -16.6581 C   0  0  2  0  0  0  0  0  0  0  0  0
   22.0426  -13.1225  -17.2257 N   0  0  0  0  0  0  0  0  0  0  0  0
   21.7876  -10.7450  -16.8660 C   0  0  0  0  0  0  0  0  0  0  0  0
   21.4569  -10.4351  -18.0085 O   0  0  0  0  0  0  0  0  0  0  0  0
   18.3964   -7.8419  -14.6849 C   0  0  0  0  0  0  0  0  0  0  0  0
   19.1788   -9.1125  -14.9612 C   0  0  2  0  0  0  0  0  0  0  0  0
   19.4107   -9.7287  -13.6097 C   0  0  0  0  0  0  0  0  0  0  0  0
   20.4334   -8.8748  -15.6962 C   0  0  2  0  0  0  0  0  0  0  0  0
   21.3434   -9.9718  -15.8217 N   0  0  0  0  0  0  0  0  0  0  0  0
   21.2516   -7.8143  -15.0645 C   0  0  0  0  0  0  0  0  0  0  0  0
   21.9898   -8.0771  -14.0415 O   0  0  0  0  0  0  0  0  0  0  0  0
   21.2893   -3.8462  -16.3029 O   0  0  0  0  0  0  0  0  0  0  0  0
   22.5185   -4.3736  -15.8746 C   0  0  0  0  0  0  0  0  0  0  0  0
   22.1746   -5.4813  -14.8721 C   0  0  2  0  0  0  0  0  0  0  0  0
   21.3177   -6.4757  -15.4899 N   0  0  0  0  0  0  0  0  0  0  0  0
   21.6460   -4.9279  -13.6226 C   0  0  0  0  0  0  0  0  0  0  0  0
   20.4393   -5.0814  -13.3362 O   0  0  0  0  0  0  0  0  0  0  0  0
   22.4555   -4.2347  -12.7456 O   0  0  0  0  0  0  0  0  0  0  0  0
  2  1  1  1
  2  4  1  0
  2  3  1  0
  4  5  1  0
  5  7  1  0
  5  6  1  6
  7  8  2  0
 10  9  1  1
 10 12  1  0
 11 10  1  0
 12 14  1  0
 12 13  1  1
 13  7  1  0
 14 15  2  0
 16 17  1  0
 18 17  1  6
 18 20  1  0
 19 14  1  0
 19 18  1  0
 20 21  2  0
 20 22  1  0
M  END
$$$$
