LVS.pdb
     RDKit          3D

 22 21  0  0  1  0  0  0  0  0999 V2000
   21.6544  -21.3888  -11.6433 C   0  0  0  0  0  0  0  0  0  0  0  0
   22.2698  -20.3942  -10.6835 C   0  0  2  0  0  0  0  0  0  0  0  0
   21.3047  -19.2751  -10.4614 C   0  0  0  0  0  0  0  0  0  0  0  0
   23.5820  -19.8855  -11.2898 C   0  0  0  0  0  0  0  0  0  0  0  0
   24.4650  -21.0774  -11.5936 C   0  0  2  0  0  0  0  0  0  0  0  0
   25.2472  -21.3909  -10.4312 N   0  0  0  0  0  0  0  0  0  0  0  0
   25.3717  -20.6412  -12.7267 C   0  0  0  0  0  0  0  0  0  0  0  0
   26.3709  -19.9735  -12.4692 O   0  0  0  0  0  0  0  0  0  0  0  0
   27.1813  -23.0187  -15.0319 C   0  0  0  0  0  0  0  0  0  0  0  0
   26.2461  -22.1813  -15.8845 C   0  0  2  0  0  0  0  0  0  0  0  0
   26.9736  -21.9883  -17.1859 C   0  0  0  0  0  0  0  0  0  0  0  0
   25.8700  -20.9044  -15.2531 C   0  0  2  0  0  0  0  0  0  0  0  0
   25.1184  -20.9649  -14.0370 N   0  0  0  0  0  0  0  0  0  0  0  0
   25.0255  -20.0753  -16.1433 C   0  0  0  0  0  0  0  0  0  0  0  0
   23.7482  -20.2427  -16.1789 O   0  0  0  0  0  0  0  0  0  0  0  0
   26.1673  -16.5796  -17.5374 O   0  0  0  0  0  0  0  0  0  0  0  0
   25.4193  -17.1780  -18.5644 C   0  0  0  0  0  0  0  0  0  0  0  0
   24.6383  -18.3207  -17.9049 C   0  0  2  0  0  0  0  0  0  0  0  0
   25.4944  -19.0624  -16.9984 N   0  0  0  0  0  0  0  0  0  0  0  0
   23.9596  -19.1516  -18.9028 C   0  0  0  0  0  0  0  0  0  0  0  0
   24.5565  -20.1246  -19.4113 O   0  0  0  0  0  0  0  0  0  0  0  0
   22.6649  -18.8838  -19.2989 O   0  0  0  0  0  0  0  0  0  0  0  0
  2  1  1  6
  2  4  1  0
  2  3  1  0
  4  5  1  0
  5  7  1  0
  5  6  1  1
  7  8  2  0
 10  9  1  1
 10 12  1  0
 11 10  1  0
 12 14  1  0
 12 13  1  1
 13  7  1  0
 14 15  2  0
 16 17  1  0
 18 17  1  6
 18 20  1  0
 19 14  1  0
 19 18  1  0
 20 21  2  0
 20 22  1  0
M  END
$$$$
