LVS.pdb
     RDKit          3D

 22 21  0  0  1  0  0  0  0  0999 V2000
   23.7555  -14.4499  -14.4710 C   0  0  0  0  0  0  0  0  0  0  0  0
   23.7307  -14.8605  -15.9271 C   0  0  2  0  0  0  0  0  0  0  0  0
   25.1269  -14.8397  -16.4596 C   0  0  0  0  0  0  0  0  0  0  0  0
   22.8295  -13.8835  -16.6896 C   0  0  0  0  0  0  0  0  0  0  0  0
   21.4270  -13.9850  -16.1281 C   0  0  2  0  0  0  0  0  0  0  0  0
   20.9299  -15.3145  -16.3434 N   0  0  0  0  0  0  0  0  0  0  0  0
   20.5963  -12.9876  -16.9099 C   0  0  0  0  0  0  0  0  0  0  0  0
   20.3828  -13.1927  -18.1028 O   0  0  0  0  0  0  0  0  0  0  0  0
   17.5703  -11.0165  -14.8536 C   0  0  0  0  0  0  0  0  0  0  0  0
   17.7573  -10.9548  -16.3583 C   0  0  2  0  0  0  0  0  0  0  0  0
   17.1123  -12.2074  -16.8826 C   0  0  0  0  0  0  0  0  0  0  0  0
   19.1683  -10.8336  -16.7647 C   0  0  2  0  0  0  0  0  0  0  0  0
   20.0701  -11.8576  -16.3339 N   0  0  0  0  0  0  0  0  0  0  0  0
   19.7856   -9.5884  -16.2536 C   0  0  0  0  0  0  0  0  0  0  0  0
   20.4169   -9.5822  -15.1301 O   0  0  0  0  0  0  0  0  0  0  0  0
   21.1887   -5.0066  -16.8426 O   0  0  0  0  0  0  0  0  0  0  0  0
   20.4074   -6.0305  -17.4027 C   0  0  0  0  0  0  0  0  0  0  0  0
   20.3381   -7.1350  -16.3416 C   0  0  2  0  0  0  0  0  0  0  0  0
   19.7607   -8.3416  -16.9034 N   0  0  0  0  0  0  0  0  0  0  0  0
   19.6759   -6.6655  -15.1218 C   0  0  0  0  0  0  0  0  0  0  0  0
   18.4335   -6.7492  -15.0174 O   0  0  0  0  0  0  0  0  0  0  0  0
   20.3973   -6.1278  -14.0752 O   0  0  0  0  0  0  0  0  0  0  0  0
  2  1  1  1
  2  4  1  0
  2  3  1  0
  4  5  1  0
  5  7  1  0
  5  6  1  6
  7  8  2  0
 10  9  1  1
 10 12  1  0
 11 10  1  0
 12 14  1  0
 12 13  1  1
 13  7  1  0
 14 15  2  0
 16 17  1  0
 18 17  1  6
 18 20  1  0
 19 14  1  0
 19 18  1  0
 20 21  2  0
 20 22  1  0
M  END
$$$$
