EFC.pdb
     RDKit          3D

 27 27  0  0  1  0  0  0  0  0999 V2000
    9.5651  -18.8775   21.8849 N   0  0  0  0  0  0  0  0  0  0  0  0
   10.3771  -17.7531   21.4209 C   0  0  1  0  0  0  0  0  0  0  0  0
   10.0516  -17.5902   19.9592 C   0  0  0  0  0  0  0  0  0  0  0  0
   11.1900  -17.9444   19.0558 C   0  0  0  0  0  0  0  0  0  0  0  0
   10.7881  -18.6336   17.8103 C   0  0  0  0  0  0  0  0  0  0  0  0
   11.5806  -19.0386   16.9360 O   0  0  0  0  0  0  0  0  0  0  0  0
   10.1036  -16.5353   22.2089 C   0  0  0  0  0  0  0  0  0  0  0  0
   10.8526  -15.5388   22.0722 O   0  0  0  0  0  0  0  0  0  0  0  0
    9.4243  -18.8676   17.5569 O   0  0  0  0  0  0  0  0  0  0  0  0
    9.0381  -16.4075   23.1244 N   0  0  0  0  0  0  0  0  0  0  0  0
    8.8096  -15.2213   23.9415 C   0  0  1  0  0  0  0  0  0  0  0  0
    7.3730  -15.0753   24.3189 C   0  0  0  0  0  0  0  0  0  0  0  0
    7.0495  -13.9187   25.1217 C   0  0  0  0  0  0  0  0  0  0  0  0
    6.3065  -14.0112   26.2665 C   0  0  0  0  0  0  0  0  0  0  0  0
    6.0056  -12.8709   27.0254 C   0  0  0  0  0  0  0  0  0  0  0  0
    6.4601  -11.6492   26.6170 C   0  0  0  0  0  0  0  0  0  0  0  0
    7.2021  -11.5357   25.4792 C   0  0  0  0  0  0  0  0  0  0  0  0
    7.4895  -12.6690   24.7434 C   0  0  0  0  0  0  0  0  0  0  0  0
    9.6832  -15.1673   25.1329 C   0  0  0  0  0  0  0  0  0  0  0  0
   10.4614  -14.1892   25.3696 O   0  0  0  0  0  0  0  0  0  0  0  0
    9.6802  -16.2192   26.0678 N   0  0  0  0  0  0  0  0  0  0  0  0
   10.4760  -16.1943   27.2908 C   0  0  1  0  0  0  0  0  0  0  0  0
    9.6606  -15.6071   28.4379 C   0  0  0  0  0  0  0  0  0  0  0  0
   10.1359  -13.8598   28.6724 S   0  0  0  0  0  0  0  0  0  0  0  0
   10.9713  -17.5130   27.7038 C   0  0  0  0  0  0  0  0  0  0  0  0
   11.7710  -17.6287   28.8190 O   0  0  0  0  0  0  0  0  0  0  0  0
   10.6760  -18.5319   27.0555 O   0  0  0  0  0  0  0  0  0  0  0  0
  2  1  1  1
  2  3  1  0
  4  3  1  0
  5  6  2  0
  5  4  1  0
  7 10  1  0
  7  2  1  0
  8  7  2  0
  9  5  1  0
 11 10  1  0
 12 13  1  0
 11 12  1  1
 13 14  2  0
 13 18  1  0
 14 15  1  0
 15 16  2  0
 17 16  1  0
 18 17  2  0
 19 11  1  0
 19 20  2  0
 21 19  1  0
 22 21  1  0
 22 23  1  1
 24 23  1  0
 25 22  1  0
 26 25  1  0
 27 25  2  0
M  END
$$$$
