EFC.pdb
     RDKit          3D

 27 27  0  0  1  0  0  0  0  0999 V2000
   10.4040  -16.6595   19.3435 N   0  0  0  0  0  0  0  0  0  0  0  0
    9.7263  -17.2485   20.4979 C   0  0  1  0  0  0  0  0  0  0  0  0
   10.4629  -18.5288   20.7943 C   0  0  0  0  0  0  0  0  0  0  0  0
   10.6144  -19.4151   19.5989 C   0  0  0  0  0  0  0  0  0  0  0  0
   10.8170  -20.8443   19.9217 C   0  0  0  0  0  0  0  0  0  0  0  0
    9.9812  -21.5661   20.5021 O   0  0  0  0  0  0  0  0  0  0  0  0
    9.7125  -16.3164   21.6424 C   0  0  0  0  0  0  0  0  0  0  0  0
   10.8020  -15.9064   22.1088 O   0  0  0  0  0  0  0  0  0  0  0  0
   12.0251  -21.4707   19.5654 O   0  0  0  0  0  0  0  0  0  0  0  0
    8.5379  -15.8427   22.2635 N   0  0  0  0  0  0  0  0  0  0  0  0
    8.5294  -15.0809   23.5070 C   0  0  1  0  0  0  0  0  0  0  0  0
    7.2425  -14.3506   23.7021 C   0  0  0  0  0  0  0  0  0  0  0  0
    7.1334  -13.5864   24.9232 C   0  0  0  0  0  0  0  0  0  0  0  0
    6.3205  -13.9719   25.9536 C   0  0  0  0  0  0  0  0  0  0  0  0
    6.2325  -13.2091   27.1270 C   0  0  0  0  0  0  0  0  0  0  0  0
    6.9684  -12.0643   27.2447 C   0  0  0  0  0  0  0  0  0  0  0  0
    7.7845  -11.6631   26.2293 C   0  0  0  0  0  0  0  0  0  0  0  0
    7.8595  -12.4260   25.0803 C   0  0  0  0  0  0  0  0  0  0  0  0
    8.8599  -15.9059   24.6884 C   0  0  0  0  0  0  0  0  0  0  0  0
    8.2505  -16.9887   24.9617 O   0  0  0  0  0  0  0  0  0  0  0  0
    9.8857  -15.5132   25.5682 N   0  0  0  0  0  0  0  0  0  0  0  0
   10.3205  -16.3332   26.6943 C   0  0  1  0  0  0  0  0  0  0  0  0
   11.8433  -16.3600   26.7695 C   0  0  0  0  0  0  0  0  0  0  0  0
   12.3501  -17.3460   28.2203 S   0  0  0  0  0  0  0  0  0  0  0  0
    9.8019  -15.8830   27.9917 C   0  0  0  0  0  0  0  0  0  0  0  0
    9.4758  -16.8066   28.9599 O   0  0  0  0  0  0  0  0  0  0  0  0
    9.6526  -14.6715   28.2282 O   0  0  0  0  0  0  0  0  0  0  0  0
  2  1  1  6
  2  3  1  0
  4  3  1  0
  5  6  2  0
  5  4  1  0
  7 10  1  0
  7  2  1  0
  8  7  2  0
  9  5  1  0
 11 10  1  0
 12 13  1  0
 11 12  1  1
 13 14  2  0
 13 18  1  0
 14 15  1  0
 15 16  2  0
 17 16  1  0
 18 17  2  0
 19 11  1  0
 19 20  2  0
 21 19  1  0
 22 21  1  0
 22 23  1  1
 24 23  1  0
 25 22  1  0
 26 25  1  0
 27 25  2  0
M  END
$$$$
