EFC.pdb
     RDKit          3D

 27 27  0  0  1  0  0  0  0  0999 V2000
    9.1011  -16.4871   19.2033 N   0  0  0  0  0  0  0  0  0  0  0  0
    9.4853  -17.2758   20.3735 C   0  0  1  0  0  0  0  0  0  0  0  0
   10.8425  -17.8459   20.0538 C   0  0  0  0  0  0  0  0  0  0  0  0
   11.3660  -18.7601   21.1158 C   0  0  0  0  0  0  0  0  0  0  0  0
   12.6801  -19.3643   20.8064 C   0  0  0  0  0  0  0  0  0  0  0  0
   12.8788  -20.5848   20.6418 O   0  0  0  0  0  0  0  0  0  0  0  0
    9.4831  -16.4514   21.5979 C   0  0  0  0  0  0  0  0  0  0  0  0
   10.5777  -16.1031   22.1011 O   0  0  0  0  0  0  0  0  0  0  0  0
   13.8109  -18.5370   20.6810 O   0  0  0  0  0  0  0  0  0  0  0  0
    8.3144  -16.0171   22.2577 N   0  0  0  0  0  0  0  0  0  0  0  0
    8.3217  -15.2458   23.4954 C   0  0  1  0  0  0  0  0  0  0  0  0
    7.2188  -14.2409   23.5301 C   0  0  0  0  0  0  0  0  0  0  0  0
    7.0956  -13.4862   24.7557 C   0  0  0  0  0  0  0  0  0  0  0  0
    6.1340  -13.7632   25.6883 C   0  0  0  0  0  0  0  0  0  0  0  0
    6.0363  -13.0122   26.8686 C   0  0  0  0  0  0  0  0  0  0  0  0
    6.9133  -11.9890   27.0921 C   0  0  0  0  0  0  0  0  0  0  0  0
    7.8788  -11.6971   26.1753 C   0  0  0  0  0  0  0  0  0  0  0  0
    7.9611  -12.4466   25.0179 C   0  0  0  0  0  0  0  0  0  0  0  0
    8.3064  -16.0979   24.7034 C   0  0  0  0  0  0  0  0  0  0  0  0
    7.4126  -16.9792   24.9104 O   0  0  0  0  0  0  0  0  0  0  0  0
    9.3051  -15.9612   25.6854 N   0  0  0  0  0  0  0  0  0  0  0  0
    9.5860  -16.9928   26.6785 C   0  0  1  0  0  0  0  0  0  0  0  0
   10.2758  -18.1833   26.0210 C   0  0  0  0  0  0  0  0  0  0  0  0
    9.5188  -19.7256   26.6392 S   0  0  0  0  0  0  0  0  0  0  0  0
   10.4230  -16.5319   27.7930 C   0  0  0  0  0  0  0  0  0  0  0  0
   10.7211  -17.3887   28.8292 O   0  0  0  0  0  0  0  0  0  0  0  0
   10.8682  -15.3712   27.8127 O   0  0  0  0  0  0  0  0  0  0  0  0
  2  1  1  6
  2  3  1  0
  4  3  1  0
  5  6  2  0
  5  4  1  0
  7 10  1  0
  7  2  1  0
  8  7  2  0
  9  5  1  0
 11 10  1  0
 12 13  1  0
 11 12  1  6
 13 14  2  0
 13 18  1  0
 14 15  1  0
 15 16  2  0
 17 16  1  0
 18 17  2  0
 19 11  1  0
 19 20  2  0
 21 19  1  0
 22 21  1  0
 22 23  1  6
 24 23  1  0
 25 22  1  0
 26 25  1  0
 27 25  2  0
M  END
$$$$
