EFC.pdb
     RDKit          3D

 27 27  0  0  1  0  0  0  0  0999 V2000
   11.5958  -16.5666   19.9580 N   0  0  0  0  0  0  0  0  0  0  0  0
   10.8833  -17.2384   21.0442 C   0  0  1  0  0  0  0  0  0  0  0  0
   11.7684  -18.3818   21.4672 C   0  0  0  0  0  0  0  0  0  0  0  0
   12.0536  -19.3497   20.3629 C   0  0  0  0  0  0  0  0  0  0  0  0
   10.9286  -20.2537   20.0392 C   0  0  0  0  0  0  0  0  0  0  0  0
    9.8844  -20.3569   20.7141 O   0  0  0  0  0  0  0  0  0  0  0  0
   10.5870  -16.3037   22.1476 C   0  0  0  0  0  0  0  0  0  0  0  0
   11.5106  -15.5923   22.6095 O   0  0  0  0  0  0  0  0  0  0  0  0
   11.0034  -21.0717   18.8972 O   0  0  0  0  0  0  0  0  0  0  0  0
    9.3131  -16.1488   22.7332 N   0  0  0  0  0  0  0  0  0  0  0  0
    9.0485  -15.2917   23.8831 C   0  0  1  0  0  0  0  0  0  0  0  0
    7.6240  -14.8491   23.9298 C   0  0  0  0  0  0  0  0  0  0  0  0
    7.2738  -13.9755   25.0257 C   0  0  0  0  0  0  0  0  0  0  0  0
    6.5375  -14.4069   26.0947 C   0  0  0  0  0  0  0  0  0  0  0  0
    6.2103  -13.5358   27.1439 C   0  0  0  0  0  0  0  0  0  0  0  0
    6.6320  -12.2373   27.0995 C   0  0  0  0  0  0  0  0  0  0  0  0
    7.3668  -11.7878   26.0431 C   0  0  0  0  0  0  0  0  0  0  0  0
    7.6804  -12.6590   25.0180 C   0  0  0  0  0  0  0  0  0  0  0  0
    9.4597  -15.9053   25.1636 C   0  0  0  0  0  0  0  0  0  0  0  0
    9.2170  -17.1205   25.4517 O   0  0  0  0  0  0  0  0  0  0  0  0
   10.1522  -15.1488   26.1273 N   0  0  0  0  0  0  0  0  0  0  0  0
   10.7795  -15.7456   27.3019 C   0  0  1  0  0  0  0  0  0  0  0  0
   11.2587  -14.6554   28.2544 C   0  0  0  0  0  0  0  0  0  0  0  0
    9.8333  -13.6252   28.7451 S   0  0  0  0  0  0  0  0  0  0  0  0
    9.9007  -16.6557   28.0464 C   0  0  0  0  0  0  0  0  0  0  0  0
   10.4286  -17.4869   29.0093 O   0  0  0  0  0  0  0  0  0  0  0  0
    8.6791  -16.6854   27.8168 O   0  0  0  0  0  0  0  0  0  0  0  0
  2  1  1  6
  2  3  1  0
  4  3  1  0
  5  6  2  0
  5  4  1  0
  7 10  1  0
  7  2  1  0
  8  7  2  0
  9  5  1  0
 11 10  1  0
 12 13  1  0
 11 12  1  1
 13 14  2  0
 13 18  1  0
 14 15  1  0
 15 16  2  0
 17 16  1  0
 18 17  2  0
 19 11  1  0
 19 20  2  0
 21 19  1  0
 22 21  1  0
 22 23  1  1
 24 23  1  0
 25 22  1  0
 26 25  1  0
 27 25  2  0
M  END
$$$$
