EFC.pdb
     RDKit          3D

 27 27  0  0  1  0  0  0  0  0999 V2000
   10.8817  -16.9672   20.1607 N   0  0  0  0  0  0  0  0  0  0  0  0
   10.1785  -17.4227   21.3594 C   0  0  1  0  0  0  0  0  0  0  0  0
   10.9985  -18.5623   21.9055 C   0  0  0  0  0  0  0  0  0  0  0  0
   10.8357  -19.8326   21.1327 C   0  0  0  0  0  0  0  0  0  0  0  0
   11.5423  -20.9946   21.7143 C   0  0  0  0  0  0  0  0  0  0  0  0
   12.2403  -20.9562   22.7475 O   0  0  0  0  0  0  0  0  0  0  0  0
   10.0073  -16.3228   22.3289 C   0  0  0  0  0  0  0  0  0  0  0  0
   11.0084  -15.6497   22.6713 O   0  0  0  0  0  0  0  0  0  0  0  0
   11.4452  -22.2499   21.0868 O   0  0  0  0  0  0  0  0  0  0  0  0
    8.7731  -15.9657   22.9110 N   0  0  0  0  0  0  0  0  0  0  0  0
    8.6437  -15.0502   24.0389 C   0  0  1  0  0  0  0  0  0  0  0  0
    7.3035  -14.3941   24.0707 C   0  0  0  0  0  0  0  0  0  0  0  0
    7.0928  -13.4490   25.1427 C   0  0  0  0  0  0  0  0  0  0  0  0
    7.7159  -12.2317   25.1737 C   0  0  0  0  0  0  0  0  0  0  0  0
    7.4942  -11.3344   26.2284 C   0  0  0  0  0  0  0  0  0  0  0  0
    6.6442  -11.6793   27.2405 C   0  0  0  0  0  0  0  0  0  0  0  0
    6.0135  -12.8877   27.2283 C   0  0  0  0  0  0  0  0  0  0  0  0
    6.2429  -13.7597   26.1818 C   0  0  0  0  0  0  0  0  0  0  0  0
    8.9575  -15.6877   25.3352 C   0  0  0  0  0  0  0  0  0  0  0  0
    8.3639  -16.7351   25.7466 O   0  0  0  0  0  0  0  0  0  0  0  0
    9.9485  -15.1463   26.1750 N   0  0  0  0  0  0  0  0  0  0  0  0
   10.3321  -15.7570   27.4436 C   0  0  1  0  0  0  0  0  0  0  0  0
   11.8376  -15.9970   27.4790 C   0  0  0  0  0  0  0  0  0  0  0  0
   12.3938  -16.5323   25.8243 S   0  0  0  0  0  0  0  0  0  0  0  0
    9.9634  -14.9615   28.6210 C   0  0  0  0  0  0  0  0  0  0  0  0
   10.1554  -15.4740   29.8848 O   0  0  0  0  0  0  0  0  0  0  0  0
    9.4774  -13.8246   28.4902 O   0  0  0  0  0  0  0  0  0  0  0  0
  2  1  1  6
  2  3  1  0
  4  3  1  0
  5  6  2  0
  5  4  1  0
  7 10  1  0
  7  2  1  0
  8  7  2  0
  9  5  1  0
 11 10  1  0
 12 13  1  0
 11 12  1  1
 13 14  2  0
 13 18  1  0
 14 15  1  0
 15 16  2  0
 17 16  1  0
 18 17  2  0
 19 11  1  0
 19 20  2  0
 21 19  1  0
 22 21  1  0
 22 23  1  6
 24 23  1  0
 25 22  1  0
 26 25  1  0
 27 25  2  0
M  END
$$$$
