EFC.pdb
     RDKit          3D

 27 27  0  0  1  0  0  0  0  0999 V2000
   10.7785  -16.4151   19.2945 N   0  0  0  0  0  0  0  0  0  0  0  0
    9.8386  -16.9706   20.2677 C   0  0  1  0  0  0  0  0  0  0  0  0
   10.2695  -18.3980   20.4826 C   0  0  0  0  0  0  0  0  0  0  0  0
    9.1507  -19.2972   20.9039 C   0  0  0  0  0  0  0  0  0  0  0  0
    9.5801  -20.4830   21.6767 C   0  0  0  0  0  0  0  0  0  0  0  0
   10.1256  -21.4913   21.1846 O   0  0  0  0  0  0  0  0  0  0  0  0
    9.8303  -16.1799   21.5141 C   0  0  0  0  0  0  0  0  0  0  0  0
   10.9201  -15.9091   22.0724 O   0  0  0  0  0  0  0  0  0  0  0  0
    9.3759  -20.5146   23.0682 O   0  0  0  0  0  0  0  0  0  0  0  0
    8.6608  -15.6961   22.1369 N   0  0  0  0  0  0  0  0  0  0  0  0
    8.6498  -15.0294   23.4340 C   0  0  1  0  0  0  0  0  0  0  0  0
    7.4290  -14.1905   23.6169 C   0  0  0  0  0  0  0  0  0  0  0  0
    7.3374  -13.4810   24.8719 C   0  0  0  0  0  0  0  0  0  0  0  0
    8.1421  -12.4148   25.1664 C   0  0  0  0  0  0  0  0  0  0  0  0
    8.0327  -11.7459   26.3941 C   0  0  0  0  0  0  0  0  0  0  0  0
    7.1098  -12.1636   27.3104 C   0  0  0  0  0  0  0  0  0  0  0  0
    6.2984  -13.2241   27.0361 C   0  0  0  0  0  0  0  0  0  0  0  0
    6.4192  -13.8717   25.8220 C   0  0  0  0  0  0  0  0  0  0  0  0
    8.8281  -15.9668   24.5631 C   0  0  0  0  0  0  0  0  0  0  0  0
    8.0811  -16.9818   24.7372 O   0  0  0  0  0  0  0  0  0  0  0  0
    9.8559  -15.7643   25.5028 N   0  0  0  0  0  0  0  0  0  0  0  0
   10.0953  -16.6691   26.6224 C   0  0  1  0  0  0  0  0  0  0  0  0
   11.4720  -17.3124   26.4947 C   0  0  0  0  0  0  0  0  0  0  0  0
   11.7311  -18.4476   27.9012 S   0  0  0  0  0  0  0  0  0  0  0  0
   10.0077  -16.0227   27.9374 C   0  0  0  0  0  0  0  0  0  0  0  0
    9.6081  -16.7506   29.0362 O   0  0  0  0  0  0  0  0  0  0  0  0
   10.2913  -14.8197   28.0719 O   0  0  0  0  0  0  0  0  0  0  0  0
  2  1  1  6
  2  3  1  0
  4  3  1  0
  5  6  2  0
  5  4  1  0
  7 10  1  0
  7  2  1  0
  8  7  2  0
  9  5  1  0
 11 10  1  0
 12 13  1  0
 11 12  1  1
 13 14  2  0
 13 18  1  0
 14 15  1  0
 15 16  2  0
 17 16  1  0
 18 17  2  0
 19 11  1  0
 19 20  2  0
 21 19  1  0
 22 21  1  0
 22 23  1  6
 24 23  1  0
 25 22  1  0
 26 25  1  0
 27 25  2  0
M  END
$$$$
