EFC.pdb
     RDKit          3D

 27 27  0  0  1  0  0  0  0  0999 V2000
   10.1211  -16.8482   19.7567 N   0  0  0  0  0  0  0  0  0  0  0  0
   10.7691  -17.3367   20.9734 C   0  0  1  0  0  0  0  0  0  0  0  0
   12.2335  -17.4503   20.6385 C   0  0  0  0  0  0  0  0  0  0  0  0
   12.5175  -18.4373   19.5509 C   0  0  0  0  0  0  0  0  0  0  0  0
   13.9539  -18.6063   19.2411 C   0  0  0  0  0  0  0  0  0  0  0  0
   14.7550  -19.2698   19.9299 O   0  0  0  0  0  0  0  0  0  0  0  0
   10.5097  -16.4378   22.1150 C   0  0  0  0  0  0  0  0  0  0  0  0
   11.3169  -15.5089   22.3562 O   0  0  0  0  0  0  0  0  0  0  0  0
   14.4933  -17.9906   18.0971 O   0  0  0  0  0  0  0  0  0  0  0  0
    9.3959  -16.5496   22.9734 N   0  0  0  0  0  0  0  0  0  0  0  0
    9.1177  -15.6232   24.0649 C   0  0  1  0  0  0  0  0  0  0  0  0
    7.7167  -15.1111   24.0152 C   0  0  0  0  0  0  0  0  0  0  0  0
    7.3554  -14.1703   25.0502 C   0  0  0  0  0  0  0  0  0  0  0  0
    7.7841  -12.8714   25.0359 C   0  0  0  0  0  0  0  0  0  0  0  0
    7.4194  -11.9802   26.0554 C   0  0  0  0  0  0  0  0  0  0  0  0
    6.6247  -12.4136   27.0784 C   0  0  0  0  0  0  0  0  0  0  0  0
    6.1869  -13.7041   27.1110 C   0  0  0  0  0  0  0  0  0  0  0  0
    6.5554  -14.5689   26.0988 C   0  0  0  0  0  0  0  0  0  0  0  0
    9.4328  -16.1896   25.3935 C   0  0  0  0  0  0  0  0  0  0  0  0
    9.1787  -17.3973   25.7027 O   0  0  0  0  0  0  0  0  0  0  0  0
   10.0414  -15.3940   26.3821 N   0  0  0  0  0  0  0  0  0  0  0  0
   10.5428  -15.9388   27.6396 C   0  0  1  0  0  0  0  0  0  0  0  0
   10.6996  -14.8261   28.6704 C   0  0  0  0  0  0  0  0  0  0  0  0
   11.0183  -13.2515   27.8026 S   0  0  0  0  0  0  0  0  0  0  0  0
    9.6894  -16.9851   28.2156 C   0  0  0  0  0  0  0  0  0  0  0  0
   10.1213  -17.6990   29.3112 O   0  0  0  0  0  0  0  0  0  0  0  0
    8.5754  -17.2358   27.7235 O   0  0  0  0  0  0  0  0  0  0  0  0
  2  1  1  6
  2  3  1  0
  4  3  1  0
  5  6  2  0
  5  4  1  0
  7 10  1  0
  7  2  1  0
  8  7  2  0
  9  5  1  0
 11 10  1  0
 12 13  1  0
 11 12  1  1
 13 14  2  0
 13 18  1  0
 14 15  1  0
 15 16  2  0
 17 16  1  0
 18 17  2  0
 19 11  1  0
 19 20  2  0
 21 19  1  0
 22 21  1  0
 22 23  1  1
 24 23  1  0
 25 22  1  0
 26 25  1  0
 27 25  2  0
M  END
$$$$
