EFC.pdb
     RDKit          3D

 27 27  0  0  1  0  0  0  0  0999 V2000
    9.2837  -17.8489   20.5035 N   0  0  0  0  0  0  0  0  0  0  0  0
   10.5501  -17.5971   21.1903 C   0  0  1  0  0  0  0  0  0  0  0  0
   11.5086  -17.1367   20.1232 C   0  0  0  0  0  0  0  0  0  0  0  0
   11.8092  -18.1887   19.1032 C   0  0  0  0  0  0  0  0  0  0  0  0
   13.0585  -17.9626   18.3444 C   0  0  0  0  0  0  0  0  0  0  0  0
   13.2038  -18.2031   17.1289 O   0  0  0  0  0  0  0  0  0  0  0  0
   10.3826  -16.6106   22.2755 C   0  0  0  0  0  0  0  0  0  0  0  0
   11.4012  -16.1456   22.8402 O   0  0  0  0  0  0  0  0  0  0  0  0
   14.1856  -17.4406   19.0047 O   0  0  0  0  0  0  0  0  0  0  0  0
    9.1334  -16.1425   22.7339 N   0  0  0  0  0  0  0  0  0  0  0  0
    8.9579  -15.3641   23.9546 C   0  0  1  0  0  0  0  0  0  0  0  0
    7.7012  -14.5596   23.9245 C   0  0  0  0  0  0  0  0  0  0  0  0
    7.4508  -13.7428   25.0895 C   0  0  0  0  0  0  0  0  0  0  0  0
    8.1575  -12.5995   25.3431 C   0  0  0  0  0  0  0  0  0  0  0  0
    7.8945  -11.8269   26.4835 C   0  0  0  0  0  0  0  0  0  0  0  0
    6.9189  -12.2202   27.3549 C   0  0  0  0  0  0  0  0  0  0  0  0
    6.2033  -13.3564   27.1202 C   0  0  0  0  0  0  0  0  0  0  0  0
    6.4751  -14.1058   25.9921 C   0  0  0  0  0  0  0  0  0  0  0  0
    9.0346  -16.1898   25.1785 C   0  0  0  0  0  0  0  0  0  0  0  0
    8.1240  -17.0148   25.5080 O   0  0  0  0  0  0  0  0  0  0  0  0
   10.1449  -16.0905   26.0375 N   0  0  0  0  0  0  0  0  0  0  0  0
   10.2997  -16.9165   27.2305 C   0  0  1  0  0  0  0  0  0  0  0  0
   11.6301  -17.6607   27.1870 C   0  0  0  0  0  0  0  0  0  0  0  0
   12.1510  -17.8469   25.4469 S   0  0  0  0  0  0  0  0  0  0  0  0
   10.2337  -16.1618   28.4879 C   0  0  0  0  0  0  0  0  0  0  0  0
   10.2108  -16.8312   29.6913 O   0  0  0  0  0  0  0  0  0  0  0  0
   10.1978  -14.9190   28.4794 O   0  0  0  0  0  0  0  0  0  0  0  0
  2  1  1  6
  2  3  1  0
  4  3  1  0
  5  6  2  0
  5  4  1  0
  7 10  1  0
  7  2  1  0
  8  7  2  0
  9  5  1  0
 11 10  1  0
 12 13  1  0
 11 12  1  6
 13 14  2  0
 13 18  1  0
 14 15  1  0
 15 16  2  0
 17 16  1  0
 18 17  2  0
 19 11  1  0
 19 20  2  0
 21 19  1  0
 22 21  1  0
 22 23  1  6
 24 23  1  0
 25 22  1  0
 26 25  1  0
 27 25  2  0
M  END
$$$$
