EFC.pdb
     RDKit          3D

 27 27  0  0  1  0  0  0  0  0999 V2000
   10.8291  -16.6659   19.8897 N   0  0  0  0  0  0  0  0  0  0  0  0
    9.9853  -17.2237   20.9460 C   0  0  1  0  0  0  0  0  0  0  0  0
   10.5786  -18.5688   21.2749 C   0  0  0  0  0  0  0  0  0  0  0  0
   11.6866  -18.9687   20.3530 C   0  0  0  0  0  0  0  0  0  0  0  0
   11.6516  -20.3879   19.9378 C   0  0  0  0  0  0  0  0  0  0  0  0
   12.5245  -20.9455   19.2425 O   0  0  0  0  0  0  0  0  0  0  0  0
    9.9245  -16.3224   22.1133 C   0  0  0  0  0  0  0  0  0  0  0  0
   10.9763  -15.7676   22.5115 O   0  0  0  0  0  0  0  0  0  0  0  0
   10.5737  -21.1998   20.3349 O   0  0  0  0  0  0  0  0  0  0  0  0
    8.7442  -16.0332   22.8295 N   0  0  0  0  0  0  0  0  0  0  0  0
    8.6918  -15.1330   23.9758 C   0  0  1  0  0  0  0  0  0  0  0  0
    7.3497  -14.4963   24.1210 C   0  0  0  0  0  0  0  0  0  0  0  0
    7.2223  -13.5388   25.1952 C   0  0  0  0  0  0  0  0  0  0  0  0
    7.7717  -12.2881   25.1251 C   0  0  0  0  0  0  0  0  0  0  0  0
    7.6340  -11.3794   26.1844 C   0  0  0  0  0  0  0  0  0  0  0  0
    6.9418  -11.7468   27.3032 C   0  0  0  0  0  0  0  0  0  0  0  0
    6.3868  -12.9886   27.3926 C   0  0  0  0  0  0  0  0  0  0  0  0
    6.5317  -13.8715   26.3401 C   0  0  0  0  0  0  0  0  0  0  0  0
    9.1147  -15.7814   25.2352 C   0  0  0  0  0  0  0  0  0  0  0  0
    8.7568  -16.9598   25.5544 O   0  0  0  0  0  0  0  0  0  0  0  0
    9.9492  -15.1020   26.1421 N   0  0  0  0  0  0  0  0  0  0  0  0
   10.5798  -15.7582   27.2827 C   0  0  1  0  0  0  0  0  0  0  0  0
   11.5440  -14.8006   27.9747 C   0  0  0  0  0  0  0  0  0  0  0  0
   13.1759  -14.9097   27.1631 S   0  0  0  0  0  0  0  0  0  0  0  0
    9.6272  -16.2567   28.2822 C   0  0  0  0  0  0  0  0  0  0  0  0
   10.0740  -17.0229   29.3358 O   0  0  0  0  0  0  0  0  0  0  0  0
    8.4156  -15.9942   28.1884 O   0  0  0  0  0  0  0  0  0  0  0  0
  2  1  1  6
  2  3  1  0
  4  3  1  0
  5  6  2  0
  5  4  1  0
  7 10  1  0
  7  2  1  0
  8  7  2  0
  9  5  1  0
 11 10  1  0
 12 13  1  0
 11 12  1  1
 13 14  2  0
 13 18  1  0
 14 15  1  0
 15 16  2  0
 17 16  1  0
 18 17  2  0
 19 11  1  0
 19 20  2  0
 21 19  1  0
 22 21  1  0
 22 23  1  1
 24 23  1  0
 25 22  1  0
 26 25  1  0
 27 25  2  0
M  END
$$$$
