EFC.pdb
     RDKit          3D

 27 27  0  0  1  0  0  0  0  0999 V2000
   11.7786  -16.8563   20.2660 N   0  0  0  0  0  0  0  0  0  0  0  0
   10.5896  -17.2888   20.9995 C   0  0  1  0  0  0  0  0  0  0  0  0
   10.8031  -18.7499   21.2981 C   0  0  0  0  0  0  0  0  0  0  0  0
   12.2465  -19.1277   21.4053 C   0  0  0  0  0  0  0  0  0  0  0  0
   12.9031  -19.4002   20.1083 C   0  0  0  0  0  0  0  0  0  0  0  0
   13.0988  -20.5387   19.6374 O   0  0  0  0  0  0  0  0  0  0  0  0
   10.3880  -16.4780   22.2164 C   0  0  0  0  0  0  0  0  0  0  0  0
   11.3776  -15.9242   22.7517 O   0  0  0  0  0  0  0  0  0  0  0  0
   13.3533  -18.3255   19.3201 O   0  0  0  0  0  0  0  0  0  0  0  0
    9.1363  -16.2761   22.8347 N   0  0  0  0  0  0  0  0  0  0  0  0
    8.9317  -15.4017   23.9838 C   0  0  1  0  0  0  0  0  0  0  0  0
    7.5339  -14.8819   24.0442 C   0  0  0  0  0  0  0  0  0  0  0  0
    7.2755  -13.8936   25.0656 C   0  0  0  0  0  0  0  0  0  0  0  0
    7.8118  -12.6362   25.0150 C   0  0  0  0  0  0  0  0  0  0  0  0
    7.5455  -11.6974   26.0222 C   0  0  0  0  0  0  0  0  0  0  0  0
    6.7392  -12.0416   27.0696 C   0  0  0  0  0  0  0  0  0  0  0  0
    6.1949  -13.2894   27.1385 C   0  0  0  0  0  0  0  0  0  0  0  0
    6.4673  -14.2022   26.1381 C   0  0  0  0  0  0  0  0  0  0  0  0
    9.3230  -16.0322   25.2624 C   0  0  0  0  0  0  0  0  0  0  0  0
    9.1094  -17.2605   25.5157 O   0  0  0  0  0  0  0  0  0  0  0  0
    9.9626  -15.2776   26.2634 N   0  0  0  0  0  0  0  0  0  0  0  0
   10.5227  -15.8764   27.4706 C   0  0  1  0  0  0  0  0  0  0  0  0
   10.8779  -14.7910   28.4810 C   0  0  0  0  0  0  0  0  0  0  0  0
   11.2984  -13.2574   27.5838 S   0  0  0  0  0  0  0  0  0  0  0  0
    9.6300  -16.8414   28.1239 C   0  0  0  0  0  0  0  0  0  0  0  0
   10.0903  -17.6004   29.1769 O   0  0  0  0  0  0  0  0  0  0  0  0
    8.4572  -16.9824   27.7360 O   0  0  0  0  0  0  0  0  0  0  0  0
  2  1  1  1
  2  3  1  0
  4  3  1  0
  5  6  2  0
  5  4  1  0
  7 10  1  0
  7  2  1  0
  8  7  2  0
  9  5  1  0
 11 10  1  0
 12 13  1  0
 11 12  1  1
 13 14  2  0
 13 18  1  0
 14 15  1  0
 15 16  2  0
 17 16  1  0
 18 17  2  0
 19 11  1  0
 19 20  2  0
 21 19  1  0
 22 21  1  0
 22 23  1  1
 24 23  1  0
 25 22  1  0
 26 25  1  0
 27 25  2  0
M  END
$$$$
