EFC.pdb
     RDKit          3D

 27 27  0  0  1  0  0  0  0  0999 V2000
    9.7076  -18.5493   20.8755 N   0  0  0  0  0  0  0  0  0  0  0  0
   10.8510  -17.6770   21.1409 C   0  0  1  0  0  0  0  0  0  0  0  0
   11.2080  -17.0570   19.8152 C   0  0  0  0  0  0  0  0  0  0  0  0
   11.5928  -18.0618   18.7760 C   0  0  0  0  0  0  0  0  0  0  0  0
   12.1107  -17.4735   17.5216 C   0  0  0  0  0  0  0  0  0  0  0  0
   13.2807  -17.0737   17.3556 O   0  0  0  0  0  0  0  0  0  0  0  0
   10.5295  -16.6742   22.1752 C   0  0  0  0  0  0  0  0  0  0  0  0
   11.3757  -15.7914   22.4534 O   0  0  0  0  0  0  0  0  0  0  0  0
   11.2539  -17.3379   16.4142 O   0  0  0  0  0  0  0  0  0  0  0  0
    9.3137  -16.6354   22.8894 N   0  0  0  0  0  0  0  0  0  0  0  0
    9.0509  -15.7189   23.9930 C   0  0  1  0  0  0  0  0  0  0  0  0
    7.6476  -15.2113   23.9713 C   0  0  0  0  0  0  0  0  0  0  0  0
    7.3387  -14.1788   24.9333 C   0  0  0  0  0  0  0  0  0  0  0  0
    7.6449  -12.8638   24.7141 C   0  0  0  0  0  0  0  0  0  0  0  0
    7.3352  -11.8826   25.6670 C   0  0  0  0  0  0  0  0  0  0  0  0
    6.7189  -12.2433   26.8315 C   0  0  0  0  0  0  0  0  0  0  0  0
    6.4054  -13.5484   27.0689 C   0  0  0  0  0  0  0  0  0  0  0  0
    6.7174  -14.5023   26.1198 C   0  0  0  0  0  0  0  0  0  0  0  0
    9.3904  -16.2951   25.3114 C   0  0  0  0  0  0  0  0  0  0  0  0
    9.2558  -17.5324   25.5750 O   0  0  0  0  0  0  0  0  0  0  0  0
    9.8882  -15.4754   26.3413 N   0  0  0  0  0  0  0  0  0  0  0  0
   10.5409  -16.0085   27.5326 C   0  0  1  0  0  0  0  0  0  0  0  0
   10.6623  -14.9233   28.5971 C   0  0  0  0  0  0  0  0  0  0  0  0
   11.1386  -13.3537   27.7950 S   0  0  0  0  0  0  0  0  0  0  0  0
    9.8485  -17.1600   28.1239 C   0  0  0  0  0  0  0  0  0  0  0  0
   10.4233  -17.8441   29.1719 O   0  0  0  0  0  0  0  0  0  0  0  0
    8.7437  -17.5270   27.6875 O   0  0  0  0  0  0  0  0  0  0  0  0
  2  1  1  6
  2  3  1  0
  4  3  1  0
  5  6  2  0
  5  4  1  0
  7 10  1  0
  7  2  1  0
  8  7  2  0
  9  5  1  0
 11 10  1  0
 12 13  1  0
 11 12  1  1
 13 14  2  0
 13 18  1  0
 14 15  1  0
 15 16  2  0
 17 16  1  0
 18 17  2  0
 19 11  1  0
 19 20  2  0
 21 19  1  0
 22 21  1  0
 22 23  1  1
 24 23  1  0
 25 22  1  0
 26 25  1  0
 27 25  2  0
M  END
$$$$
