EFC.pdb
     RDKit          3D

 27 27  0  0  1  0  0  0  0  0999 V2000
    9.5036  -17.1965   19.6593 N   0  0  0  0  0  0  0  0  0  0  0  0
   10.4386  -17.3678   20.7708 C   0  0  1  0  0  0  0  0  0  0  0  0
   11.8146  -17.2654   20.1662 C   0  0  0  0  0  0  0  0  0  0  0  0
   12.2104  -18.4787   19.3858 C   0  0  0  0  0  0  0  0  0  0  0  0
   13.5761  -18.4211   18.8208 C   0  0  0  0  0  0  0  0  0  0  0  0
   13.8486  -18.0564   17.6593 O   0  0  0  0  0  0  0  0  0  0  0  0
   10.2006  -16.3662   21.8286 C   0  0  0  0  0  0  0  0  0  0  0  0
   10.9675  -15.3779   21.9169 O   0  0  0  0  0  0  0  0  0  0  0  0
   14.6725  -18.7965   19.6182 O   0  0  0  0  0  0  0  0  0  0  0  0
    9.1509  -16.4409   22.7678 N   0  0  0  0  0  0  0  0  0  0  0  0
    8.8857  -15.4153   23.7701 C   0  0  1  0  0  0  0  0  0  0  0  0
    7.4574  -14.9825   23.7575 C   0  0  0  0  0  0  0  0  0  0  0  0
    7.1114  -13.9328   24.6878 C   0  0  0  0  0  0  0  0  0  0  0  0
    7.4714  -12.6293   24.4820 C   0  0  0  0  0  0  0  0  0  0  0  0
    7.1237  -11.6309   25.4035 C   0  0  0  0  0  0  0  0  0  0  0  0
    6.4155  -11.9630   26.5233 C   0  0  0  0  0  0  0  0  0  0  0  0
    6.0472  -13.2563   26.7467 C   0  0  0  0  0  0  0  0  0  0  0  0
    6.3977  -14.2274   25.8289 C   0  0  0  0  0  0  0  0  0  0  0  0
    9.3107  -15.8158   25.1282 C   0  0  0  0  0  0  0  0  0  0  0  0
    9.0001  -16.9376   25.6418 O   0  0  0  0  0  0  0  0  0  0  0  0
   10.0938  -14.9506   25.9147 N   0  0  0  0  0  0  0  0  0  0  0  0
   10.5093  -15.2752   27.2755 C   0  0  1  0  0  0  0  0  0  0  0  0
   10.2176  -14.1050   28.2087 C   0  0  0  0  0  0  0  0  0  0  0  0
   10.8001  -14.5234   29.8878 S   0  0  0  0  0  0  0  0  0  0  0  0
    9.8640  -16.4746   27.8231 C   0  0  0  0  0  0  0  0  0  0  0  0
   10.6297  -17.4703   28.3880 O   0  0  0  0  0  0  0  0  0  0  0  0
    8.6280  -16.6030   27.7829 O   0  0  0  0  0  0  0  0  0  0  0  0
  2  1  1  6
  2  3  1  0
  4  3  1  0
  5  6  2  0
  5  4  1  0
  7 10  1  0
  7  2  1  0
  8  7  2  0
  9  5  1  0
 11 10  1  0
 12 13  1  0
 11 12  1  1
 13 14  2  0
 13 18  1  0
 14 15  1  0
 15 16  2  0
 17 16  1  0
 18 17  2  0
 19 11  1  0
 19 20  2  0
 21 19  1  0
 22 21  1  0
 22 23  1  1
 24 23  1  0
 25 22  1  0
 26 25  1  0
 27 25  2  0
M  END
$$$$
