EFC.pdb
     RDKit          3D

 27 27  0  0  1  0  0  0  0  0999 V2000
    9.1368  -17.2221   19.9286 N   0  0  0  0  0  0  0  0  0  0  0  0
   10.0692  -17.4629   21.0293 C   0  0  1  0  0  0  0  0  0  0  0  0
   11.4375  -17.5152   20.4013 C   0  0  0  0  0  0  0  0  0  0  0  0
   11.8112  -18.8773   19.9084 C   0  0  0  0  0  0  0  0  0  0  0  0
   12.4789  -18.8858   18.5886 C   0  0  0  0  0  0  0  0  0  0  0  0
   12.8082  -17.8638   17.9535 O   0  0  0  0  0  0  0  0  0  0  0  0
    9.9533  -16.4186   22.0661 C   0  0  0  0  0  0  0  0  0  0  0  0
   10.8336  -15.5283   22.1366 O   0  0  0  0  0  0  0  0  0  0  0  0
   12.7807  -20.1139   17.9725 O   0  0  0  0  0  0  0  0  0  0  0  0
    8.9019  -16.3473   23.0037 N   0  0  0  0  0  0  0  0  0  0  0  0
    8.7597  -15.2749   23.9819 C   0  0  1  0  0  0  0  0  0  0  0  0
    7.3565  -14.7715   24.0540 C   0  0  0  0  0  0  0  0  0  0  0  0
    7.0797  -13.8349   25.1185 C   0  0  0  0  0  0  0  0  0  0  0  0
    6.5630  -14.2312   26.3214 C   0  0  0  0  0  0  0  0  0  0  0  0
    6.3020  -13.2994   27.3365 C   0  0  0  0  0  0  0  0  0  0  0  0
    6.5669  -11.9765   27.1227 C   0  0  0  0  0  0  0  0  0  0  0  0
    7.0820  -11.5613   25.9309 C   0  0  0  0  0  0  0  0  0  0  0  0
    7.3332  -12.4922   24.9417 C   0  0  0  0  0  0  0  0  0  0  0  0
    9.2629  -15.6482   25.3208 C   0  0  0  0  0  0  0  0  0  0  0  0
    9.3831  -14.8073   26.2679 O   0  0  0  0  0  0  0  0  0  0  0  0
    9.6310  -16.9777   25.5994 N   0  0  0  0  0  0  0  0  0  0  0  0
   10.2124  -17.3883   26.8733 C   0  0  1  0  0  0  0  0  0  0  0  0
    9.1128  -17.6172   27.9048 C   0  0  0  0  0  0  0  0  0  0  0  0
    8.0742  -19.0190   27.3662 S   0  0  0  0  0  0  0  0  0  0  0  0
   11.0272  -18.6064   26.7889 C   0  0  0  0  0  0  0  0  0  0  0  0
   11.1493  -19.2702   25.5884 O   0  0  0  0  0  0  0  0  0  0  0  0
   11.6115  -19.0484   27.7934 O   0  0  0  0  0  0  0  0  0  0  0  0
  2  1  1  6
  2  3  1  0
  4  3  1  0
  5  6  2  0
  5  4  1  0
  7 10  1  0
  7  2  1  0
  8  7  2  0
  9  5  1  0
 11 10  1  0
 12 13  1  0
 11 12  1  1
 13 14  2  0
 13 18  1  0
 14 15  1  0
 15 16  2  0
 17 16  1  0
 18 17  2  0
 19 11  1  0
 19 20  2  0
 21 19  1  0
 22 21  1  0
 22 23  1  1
 24 23  1  0
 25 22  1  0
 26 25  1  0
 27 25  2  0
M  END
$$$$
