KTA.pdb
     RDKit          3D

 22 21  0  0  1  0  0  0  0  0999 V2000
   18.0255  -14.0587  -14.8725 N   0  0  0  0  0  0  0  0  0  0  0  0
   18.6308  -14.0019  -16.1808 C   0  0  1  0  0  0  0  0  0  0  0  0
   17.9959  -14.9075  -17.1665 C   0  0  0  0  0  0  0  0  0  0  0  0
   17.3342  -16.1184  -16.6463 C   0  0  0  0  0  0  0  0  0  0  0  0
   16.1666  -15.8586  -15.7424 C   0  0  0  0  0  0  0  0  0  0  0  0
   15.5029  -17.1855  -15.3348 C   0  0  0  0  0  0  0  0  0  0  0  0
   15.7680  -17.3494  -13.9173 N   0  0  0  0  0  0  0  0  0  0  0  0
   18.5622  -12.5635  -16.6293 C   0  0  0  0  0  0  0  0  0  0  0  0
   18.9347  -12.2288  -17.7755 O   0  0  0  0  0  0  0  0  0  0  0  0
   16.3318   -8.2085  -15.9036 C   0  0  0  0  0  0  0  0  0  0  0  0
   16.6246   -9.6460  -15.6970 C   0  0  1  0  0  0  0  0  0  0  0  0
   15.5551  -10.3653  -16.2895 O   0  0  0  0  0  0  0  0  0  0  0  0
   17.9440  -10.1437  -16.2330 C   0  0  2  0  0  0  0  0  0  0  0  0
   18.0786  -11.5447  -15.7804 N   0  0  0  0  0  0  0  0  0  0  0  0
   19.1155   -9.3604  -15.8519 C   0  0  0  0  0  0  0  0  0  0  0  0
   19.4458   -9.3322  -14.6129 O   0  0  0  0  0  0  0  0  0  0  0  0
   21.9106   -7.2778  -17.3401 C   0  0  0  0  0  0  0  0  0  0  0  0
   21.1085   -7.9088  -16.2238 C   0  0  2  0  0  0  0  0  0  0  0  0
   19.9475   -8.6121  -16.7192 N   0  0  0  0  0  0  0  0  0  0  0  0
   20.7284   -6.8184  -15.2932 C   0  0  0  0  0  0  0  0  0  0  0  0
   19.6334   -6.2248  -15.4555 O   0  0  0  0  0  0  0  0  0  0  0  0
   21.5275   -6.4105  -14.2361 O   0  0  0  0  0  0  0  0  0  0  0  0
  2  1  1  1
  2  8  1  0
  3  2  1  0
  4  3  1  0
  5  6  1  0
  5  4  1  0
  6  7  1  0
  8 14  1  0
  8  9  2  0
 11 10  1  6
 12 11  1  0
 13 11  1  0
 13 15  1  0
 13 14  1  1
 15 16  2  0
 18 17  1  6
 19 18  1  0
 19 15  1  0
 20 18  1  0
 20 22  1  0
 21 20  2  0
M  END
$$$$
