KTA.pdb
     RDKit          3D

 22 21  0  0  1  0  0  0  0  0999 V2000
   18.2344  -12.5520  -19.1136 N   0  0  0  0  0  0  0  0  0  0  0  0
   17.9133  -11.8114  -17.9179 C   0  0  1  0  0  0  0  0  0  0  0  0
   17.9875  -12.6233  -16.6810 C   0  0  0  0  0  0  0  0  0  0  0  0
   16.9888  -13.6954  -16.5132 C   0  0  0  0  0  0  0  0  0  0  0  0
   17.0427  -14.4049  -15.1935 C   0  0  0  0  0  0  0  0  0  0  0  0
   15.9847  -15.5210  -15.1452 C   0  0  0  0  0  0  0  0  0  0  0  0
   16.1582  -16.1849  -13.8663 N   0  0  0  0  0  0  0  0  0  0  0  0
   18.8603  -10.6388  -17.8655 C   0  0  0  0  0  0  0  0  0  0  0  0
   20.0767  -10.7827  -18.1193 O   0  0  0  0  0  0  0  0  0  0  0  0
   19.2885   -5.7306  -18.1716 C   0  0  0  0  0  0  0  0  0  0  0  0
   18.5938   -7.0391  -18.1575 C   0  0  1  0  0  0  0  0  0  0  0  0
   18.3038   -7.3571  -19.5091 O   0  0  0  0  0  0  0  0  0  0  0  0
   19.3313   -8.1808  -17.5029 C   0  0  2  0  0  0  0  0  0  0  0  0
   18.4160   -9.3416  -17.5305 N   0  0  0  0  0  0  0  0  0  0  0  0
   19.8086   -7.9284  -16.1466 C   0  0  0  0  0  0  0  0  0  0  0  0
   18.9370   -7.7881  -15.2162 O   0  0  0  0  0  0  0  0  0  0  0  0
   22.9537   -7.7703  -14.0629 C   0  0  0  0  0  0  0  0  0  0  0  0
   21.5034   -7.4754  -14.3745 C   0  0  2  0  0  0  0  0  0  0  0  0
   21.1589   -7.8201  -15.7349 N   0  0  0  0  0  0  0  0  0  0  0  0
   21.2871   -6.0329  -14.1070 C   0  0  0  0  0  0  0  0  0  0  0  0
   21.1142   -5.2474  -15.0718 O   0  0  0  0  0  0  0  0  0  0  0  0
   21.2646   -5.4933  -12.8299 O   0  0  0  0  0  0  0  0  0  0  0  0
  2  1  1  6
  2  8  1  0
  3  2  1  0
  4  3  1  0
  5  6  1  0
  5  4  1  0
  6  7  1  0
  8 14  1  0
  8  9  2  0
 11 10  1  6
 12 11  1  0
 13 11  1  0
 13 15  1  0
 13 14  1  1
 15 16  2  0
 18 17  1  6
 19 18  1  0
 19 15  1  0
 20 18  1  0
 20 22  1  0
 21 20  2  0
M  END
$$$$
