KTA.pdb
     RDKit          3D

 22 21  0  0  1  0  0  0  0  0999 V2000
   17.1187  -25.0844   -4.9073 N   0  0  0  0  0  0  0  0  0  0  0  0
   15.9937  -25.4249   -4.0707 C   0  0  1  0  0  0  0  0  0  0  0  0
   16.2004  -26.6561   -3.2731 C   0  0  0  0  0  0  0  0  0  0  0  0
   16.7320  -27.8381   -3.9768 C   0  0  0  0  0  0  0  0  0  0  0  0
   15.6900  -28.7811   -4.4990 C   0  0  0  0  0  0  0  0  0  0  0  0
   16.3577  -30.0005   -5.1583 C   0  0  0  0  0  0  0  0  0  0  0  0
   15.2854  -30.7666   -5.7664 N   0  0  0  0  0  0  0  0  0  0  0  0
   15.7335  -24.2317   -3.1856 C   0  0  0  0  0  0  0  0  0  0  0  0
   16.6158  -23.3649   -2.9989 O   0  0  0  0  0  0  0  0  0  0  0  0
   12.2153  -21.6539   -0.7261 C   0  0  0  0  0  0  0  0  0  0  0  0
   12.7368  -22.6773   -1.6618 C   0  0  1  0  0  0  0  0  0  0  0  0
   12.2963  -22.3024   -2.9570 O   0  0  0  0  0  0  0  0  0  0  0  0
   14.2312  -22.8838   -1.6620 C   0  0  2  0  0  0  0  0  0  0  0  0
   14.4935  -24.0462   -2.5371 N   0  0  0  0  0  0  0  0  0  0  0  0
   14.8420  -23.0739   -0.3497 C   0  0  0  0  0  0  0  0  0  0  0  0
   14.8791  -24.2618    0.1324 O   0  0  0  0  0  0  0  0  0  0  0  0
   16.8261  -21.2562    2.3011 C   0  0  0  0  0  0  0  0  0  0  0  0
   15.9723  -22.3825    1.7626 C   0  0  2  0  0  0  0  0  0  0  0  0
   15.4123  -22.0687    0.4680 N   0  0  0  0  0  0  0  0  0  0  0  0
   14.9117  -22.6407    2.7664 C   0  0  0  0  0  0  0  0  0  0  0  0
   13.7912  -22.0890    2.6334 O   0  0  0  0  0  0  0  0  0  0  0  0
   15.0905  -23.4710    3.8624 O   0  0  0  0  0  0  0  0  0  0  0  0
  2  1  1  1
  2  8  1  0
  3  2  1  0
  4  3  1  0
  5  6  1  0
  5  4  1  0
  6  7  1  0
  8 14  1  0
  8  9  2  0
 11 10  1  1
 12 11  1  0
 13 11  1  0
 13 15  1  0
 13 14  1  6
 15 16  2  0
 18 17  1  1
 19 18  1  0
 19 15  1  0
 20 18  1  0
 20 22  1  0
 21 20  2  0
M  END
$$$$
