KTA.pdb
     RDKit          3D

 22 21  0  0  1  0  0  0  0  0999 V2000
   21.3589  -19.2453  -13.5395 N   0  0  0  0  0  0  0  0  0  0  0  0
   22.2367  -20.0213  -14.3812 C   0  0  1  0  0  0  0  0  0  0  0  0
   21.5717  -21.1805  -15.0206 C   0  0  0  0  0  0  0  0  0  0  0  0
   20.9714  -22.1925  -14.1317 C   0  0  0  0  0  0  0  0  0  0  0  0
   19.5977  -21.8571  -13.6334 C   0  0  0  0  0  0  0  0  0  0  0  0
   19.0234  -23.0322  -12.8231 C   0  0  0  0  0  0  0  0  0  0  0  0
   17.6874  -22.6303  -12.4229 N   0  0  0  0  0  0  0  0  0  0  0  0
   22.8025  -19.0739  -15.4094 C   0  0  0  0  0  0  0  0  0  0  0  0
   23.5902  -19.4790  -16.2926 O   0  0  0  0  0  0  0  0  0  0  0  0
   21.3426  -17.9149  -18.2160 C   0  0  0  0  0  0  0  0  0  0  0  0
   21.6811  -16.6984  -17.4411 C   0  0  1  0  0  0  0  0  0  0  0  0
   20.5201  -16.3537  -16.7027 O   0  0  0  0  0  0  0  0  0  0  0  0
   22.8704  -16.8024  -16.5186 C   0  0  2  0  0  0  0  0  0  0  0  0
   22.4686  -17.7024  -15.4167 N   0  0  0  0  0  0  0  0  0  0  0  0
   23.3763  -15.5364  -15.9964 C   0  0  0  0  0  0  0  0  0  0  0  0
   22.6970  -14.9458  -15.0828 O   0  0  0  0  0  0  0  0  0  0  0  0
   26.3551  -13.2110  -16.1966 C   0  0  0  0  0  0  0  0  0  0  0  0
   24.9470  -13.6085  -15.8134 C   0  0  2  0  0  0  0  0  0  0  0  0
   24.5621  -14.8738  -16.3955 N   0  0  0  0  0  0  0  0  0  0  0  0
   24.0517  -12.5116  -16.2544 C   0  0  0  0  0  0  0  0  0  0  0  0
   23.2996  -12.6916  -17.2442 O   0  0  0  0  0  0  0  0  0  0  0  0
   23.9972  -11.2774  -15.6248 O   0  0  0  0  0  0  0  0  0  0  0  0
  2  1  1  6
  2  8  1  0
  3  2  1  0
  4  3  1  0
  5  6  1  0
  5  4  1  0
  6  7  1  0
  8 14  1  0
  8  9  2  0
 11 10  1  1
 12 11  1  0
 13 11  1  0
 13 15  1  0
 13 14  1  1
 15 16  2  0
 18 17  1  6
 19 18  1  0
 19 15  1  0
 20 18  1  0
 20 22  1  0
 21 20  2  0
M  END
$$$$
