KTA.pdb
     RDKit          3D

 22 21  0  0  1  0  0  0  0  0999 V2000
   20.3906  -13.5156  -16.6866 N   0  0  0  0  0  0  0  0  0  0  0  0
   20.4033  -12.2694  -17.4133 C   0  0  1  0  0  0  0  0  0  0  0  0
   19.3499  -12.1787  -18.4511 C   0  0  0  0  0  0  0  0  0  0  0  0
   18.9891  -13.4200  -19.1609 C   0  0  0  0  0  0  0  0  0  0  0  0
   17.9137  -13.2645  -20.1939 C   0  0  0  0  0  0  0  0  0  0  0  0
   17.5886  -14.6258  -20.8333 C   0  0  0  0  0  0  0  0  0  0  0  0
   16.4758  -14.3913  -21.7350 N   0  0  0  0  0  0  0  0  0  0  0  0
   20.2667  -11.1689  -16.3912 C   0  0  0  0  0  0  0  0  0  0  0  0
   19.3365  -11.1798  -15.5549 O   0  0  0  0  0  0  0  0  0  0  0  0
   22.7468  -10.1781  -13.7922 C   0  0  0  0  0  0  0  0  0  0  0  0
   22.4009   -8.9872  -14.6028 C   0  0  1  0  0  0  0  0  0  0  0  0
   23.4522   -8.8173  -15.5399 O   0  0  0  0  0  0  0  0  0  0  0  0
   21.0721   -9.0264  -15.3159 C   0  0  2  0  0  0  0  0  0  0  0  0
   21.1757  -10.0903  -16.3372 N   0  0  0  0  0  0  0  0  0  0  0  0
   20.6423   -7.7683  -15.9189 C   0  0  0  0  0  0  0  0  0  0  0  0
   20.8829   -7.5829  -17.1650 O   0  0  0  0  0  0  0  0  0  0  0  0
   18.7365   -5.7513  -17.1573 C   0  0  0  0  0  0  0  0  0  0  0  0
   19.6314   -5.4894  -15.9665 C   0  0  2  0  0  0  0  0  0  0  0  0
   19.9727   -6.7059  -15.2652 N   0  0  0  0  0  0  0  0  0  0  0  0
   18.9133   -4.5366  -15.0858 C   0  0  0  0  0  0  0  0  0  0  0  0
   18.4872   -4.9299  -13.9716 O   0  0  0  0  0  0  0  0  0  0  0  0
   18.6818   -3.2132  -15.4290 O   0  0  0  0  0  0  0  0  0  0  0  0
  2  1  1  1
  2  8  1  0
  3  2  1  0
  4  3  1  0
  5  6  1  0
  5  4  1  0
  6  7  1  0
  8 14  1  0
  8  9  2  0
 11 10  1  6
 12 11  1  0
 13 11  1  0
 13 15  1  0
 13 14  1  6
 15 16  2  0
 18 17  1  6
 19 18  1  0
 19 15  1  0
 20 18  1  0
 20 22  1  0
 21 20  2  0
M  END
$$$$
