KTA.pdb
     RDKit          3D

 22 21  0  0  1  0  0  0  0  0999 V2000
   18.1104  -10.7068  -14.6378 N   0  0  0  0  0  0  0  0  0  0  0  0
   18.7881   -9.7998  -15.5319 C   0  0  1  0  0  0  0  0  0  0  0  0
   18.0641   -9.5714  -16.8040 C   0  0  0  0  0  0  0  0  0  0  0  0
   17.6701  -10.7604  -17.5825 C   0  0  0  0  0  0  0  0  0  0  0  0
   16.9275  -10.4646  -18.8508 C   0  0  0  0  0  0  0  0  0  0  0  0
   16.5705  -11.7735  -19.5767 C   0  0  0  0  0  0  0  0  0  0  0  0
   15.8180  -11.3874  -20.7561 N   0  0  0  0  0  0  0  0  0  0  0  0
   18.9902   -8.5119  -14.7735 C   0  0  0  0  0  0  0  0  0  0  0  0
   18.1768   -8.1482  -13.8955 O   0  0  0  0  0  0  0  0  0  0  0  0
   22.2559   -5.1932  -13.1827 C   0  0  0  0  0  0  0  0  0  0  0  0
   21.7502   -6.4360  -13.8110 C   0  0  1  0  0  0  0  0  0  0  0  0
   21.9456   -7.4751  -12.8653 O   0  0  0  0  0  0  0  0  0  0  0  0
   20.3135   -6.4165  -14.2705 C   0  0  2  0  0  0  0  0  0  0  0  0
   20.0966   -7.6713  -15.0217 N   0  0  0  0  0  0  0  0  0  0  0  0
   19.9225   -5.2591  -15.0698 C   0  0  0  0  0  0  0  0  0  0  0  0
   20.4088   -5.1494  -16.2515 O   0  0  0  0  0  0  0  0  0  0  0  0
   17.4696   -2.4222  -15.2281 C   0  0  0  0  0  0  0  0  0  0  0  0
   18.7959   -3.0830  -15.5313 C   0  0  2  0  0  0  0  0  0  0  0  0
   19.0443   -4.2208  -14.6759 N   0  0  0  0  0  0  0  0  0  0  0  0
   19.8433   -2.0450  -15.3744 C   0  0  0  0  0  0  0  0  0  0  0  0
   20.5843   -2.0670  -14.3604 O   0  0  0  0  0  0  0  0  0  0  0  0
   20.0544   -1.0344  -16.2999 O   0  0  0  0  0  0  0  0  0  0  0  0
  2  1  1  1
  2  8  1  0
  3  2  1  0
  4  3  1  0
  5  6  1  0
  5  4  1  0
  6  7  1  0
  8 14  1  0
  8  9  2  0
 11 10  1  1
 12 11  1  0
 13 11  1  0
 13 15  1  0
 13 14  1  6
 15 16  2  0
 18 17  1  1
 19 18  1  0
 19 15  1  0
 20 18  1  0
 20 22  1  0
 21 20  2  0
M  END
$$$$
