KTA.pdb
     RDKit          3D

 22 21  0  0  1  0  0  0  0  0999 V2000
   20.9453  -12.7394  -18.4473 N   0  0  0  0  0  0  0  0  0  0  0  0
   20.9626  -11.3942  -18.9683 C   0  0  1  0  0  0  0  0  0  0  0  0
   19.9826  -11.1681  -20.0561 C   0  0  0  0  0  0  0  0  0  0  0  0
   20.0503  -12.0635  -21.2260 C   0  0  0  0  0  0  0  0  0  0  0  0
   19.0092  -13.1420  -21.2541 C   0  0  0  0  0  0  0  0  0  0  0  0
   19.1645  -13.9992  -22.5224 C   0  0  0  0  0  0  0  0  0  0  0  0
   18.0878  -14.9717  -22.4852 N   0  0  0  0  0  0  0  0  0  0  0  0
   20.7127  -10.4728  -17.8007 C   0  0  0  0  0  0  0  0  0  0  0  0
   19.5482  -10.1797  -17.4505 O   0  0  0  0  0  0  0  0  0  0  0  0
   21.7447  -11.4469  -14.5458 C   0  0  0  0  0  0  0  0  0  0  0  0
   22.2491  -10.0650  -14.7214 C   0  0  1  0  0  0  0  0  0  0  0  0
   23.6310  -10.1745  -15.0221 O   0  0  0  0  0  0  0  0  0  0  0  0
   21.5556   -9.2277  -15.7674 C   0  0  2  0  0  0  0  0  0  0  0  0
   21.7745   -9.9082  -17.0616 N   0  0  0  0  0  0  0  0  0  0  0  0
   21.9754   -7.8313  -15.8378 C   0  0  0  0  0  0  0  0  0  0  0  0
   23.0928   -7.5649  -16.4083 O   0  0  0  0  0  0  0  0  0  0  0  0
   20.7193   -4.3348  -15.5903 C   0  0  0  0  0  0  0  0  0  0  0  0
   21.8065   -5.3755  -15.4403 C   0  0  2  0  0  0  0  0  0  0  0  0
   21.2683   -6.7124  -15.3353 N   0  0  0  0  0  0  0  0  0  0  0  0
   22.5938   -5.0097  -14.2380 C   0  0  0  0  0  0  0  0  0  0  0  0
   22.3694   -5.6004  -13.1524 O   0  0  0  0  0  0  0  0  0  0  0  0
   23.5806   -4.0356  -14.2448 O   0  0  0  0  0  0  0  0  0  0  0  0
  2  1  1  1
  2  8  1  0
  3  2  1  0
  4  3  1  0
  5  6  1  0
  5  4  1  0
  6  7  1  0
  8 14  1  0
  8  9  2  0
 11 10  1  6
 12 11  1  0
 13 11  1  0
 13 15  1  0
 13 14  1  6
 15 16  2  0
 18 17  1  1
 19 18  1  0
 19 15  1  0
 20 18  1  0
 20 22  1  0
 21 20  2  0
M  END
$$$$
