KTA.pdb
     RDKit          3D

 22 21  0  0  1  0  0  0  0  0999 V2000
   15.5974  -15.7896    5.1142 N   0  0  0  0  0  0  0  0  0  0  0  0
   16.3594  -16.7933    5.8166 C   0  0  1  0  0  0  0  0  0  0  0  0
   16.8704  -17.8711    4.9380 C   0  0  0  0  0  0  0  0  0  0  0  0
   15.9059  -18.8907    4.4852 C   0  0  0  0  0  0  0  0  0  0  0  0
   16.4620  -19.9022    3.5284 C   0  0  0  0  0  0  0  0  0  0  0  0
   15.3404  -20.8210    3.0133 C   0  0  0  0  0  0  0  0  0  0  0  0
   15.9708  -21.7469    2.0904 N   0  0  0  0  0  0  0  0  0  0  0  0
   17.4842  -16.0734    6.5176 C   0  0  0  0  0  0  0  0  0  0  0  0
   18.0304  -15.0747    5.9991 O   0  0  0  0  0  0  0  0  0  0  0  0
   17.2928  -14.2945    9.6904 C   0  0  0  0  0  0  0  0  0  0  0  0
   18.3819  -15.2925    9.8035 C   0  0  1  0  0  0  0  0  0  0  0  0
   17.8414  -16.4029   10.5013 O   0  0  0  0  0  0  0  0  0  0  0  0
   19.0084  -15.7485    8.5091 C   0  0  2  0  0  0  0  0  0  0  0  0
   17.9624  -16.4943    7.7772 N   0  0  0  0  0  0  0  0  0  0  0  0
   20.2204  -16.5512    8.6433 C   0  0  0  0  0  0  0  0  0  0  0  0
   20.0952  -17.8254    8.7190 O   0  0  0  0  0  0  0  0  0  0  0  0
   23.9919  -16.2516    8.8448 C   0  0  0  0  0  0  0  0  0  0  0  0
   22.6574  -16.9484    8.9904 C   0  0  2  0  0  0  0  0  0  0  0  0
   21.5497  -16.0674    8.6990 N   0  0  0  0  0  0  0  0  0  0  0  0
   22.5890  -17.4684   10.3775 C   0  0  0  0  0  0  0  0  0  0  0  0
   23.2693  -18.4768   10.6908 O   0  0  0  0  0  0  0  0  0  0  0  0
   21.8029  -16.8944   11.3650 O   0  0  0  0  0  0  0  0  0  0  0  0
  2  1  1  6
  2  8  1  0
  3  2  1  0
  4  3  1  0
  5  6  1  0
  5  4  1  0
  6  7  1  0
  8 14  1  0
  8  9  2  0
 11 10  1  6
 12 11  1  0
 13 11  1  0
 13 15  1  0
 13 14  1  1
 15 16  2  0
 18 17  1  1
 19 18  1  0
 19 15  1  0
 20 18  1  0
 20 22  1  0
 21 20  2  0
M  END
$$$$
