WGE.pdb
     RDKit          3D

 28 29  0  0  1  0  0  0  0  0999 V2000
    7.2338  -17.0826   23.3228 N   0  0  0  0  0  0  0  0  0  0  0  0
    8.0566  -15.9291   23.0557 C   0  0  1  0  0  0  0  0  0  0  0  0
    8.6547  -15.2906   24.2620 C   0  0  0  0  0  0  0  0  0  0  0  0
    7.5889  -14.8412   25.1845 C   0  0  0  0  0  0  0  0  0  0  0  0
    6.5756  -15.5287   25.8127 C   0  0  0  0  0  0  0  0  0  0  0  0
    5.8657  -14.6461   26.5479 N   0  0  0  0  0  0  0  0  0  0  0  0
    6.3951  -13.4266   26.4061 C   0  0  0  0  0  0  0  0  0  0  0  0
    6.0411  -12.1890   26.9459 C   0  0  0  0  0  0  0  0  0  0  0  0
    6.7858  -11.0784   26.6169 C   0  0  0  0  0  0  0  0  0  0  0  0
    7.8757  -11.1357   25.7689 C   0  0  0  0  0  0  0  0  0  0  0  0
    8.2134  -12.3677   25.2417 C   0  0  0  0  0  0  0  0  0  0  0  0
    7.4783  -13.4908   25.5612 C   0  0  0  0  0  0  0  0  0  0  0  0
    9.0466  -16.1953   21.9971 C   0  0  0  0  0  0  0  0  0  0  0  0
    9.1349  -15.3296   21.0553 O   0  0  0  0  0  0  0  0  0  0  0  0
    9.8670  -17.3333   21.9907 N   0  0  0  0  0  0  0  0  0  0  0  0
   11.1723  -17.2740   21.3961 C   0  0  0  0  0  0  0  0  0  0  0  0
   12.1776  -17.6295   22.4461 C   0  0  0  0  0  0  0  0  0  0  0  0
   12.1048  -17.2007   23.6294 O   0  0  0  0  0  0  0  0  0  0  0  0
   13.2797  -18.4818   22.1552 N   0  0  0  0  0  0  0  0  0  0  0  0
   14.6817  -18.0346   22.3987 C   0  0  1  0  0  0  0  0  0  0  0  0
   15.0721  -17.2406   21.1991 C   0  0  0  0  0  0  0  0  0  0  0  0
   16.3743  -16.5362   21.3431 C   0  0  0  0  0  0  0  0  0  0  0  0
   16.7306  -15.6318   20.2492 C   0  0  0  0  0  0  0  0  0  0  0  0
   16.1947  -14.4675   20.2335 O   0  0  0  0  0  0  0  0  0  0  0  0
   14.8356  -17.3417   23.6639 C   0  0  0  0  0  0  0  0  0  0  0  0
   14.0010  -16.3192   24.1235 O   0  0  0  0  0  0  0  0  0  0  0  0
   17.6036  -15.9247   19.2193 O   0  0  0  0  0  0  0  0  0  0  0  0
   15.7980  -17.6604   24.4251 O   0  0  0  0  0  0  0  0  0  0  0  0
  2 13  1  0
  2  3  1  0
  2  1  1  1
  4  3  1  0
  4 12  1  0
  5  4  2  0
  6  5  1  0
  6  7  1  0
  7  8  1  0
  7 12  2  0
  8  9  2  0
  9 10  1  0
 11 10  2  0
 12 11  1  0
 13 14  2  0
 15 16  1  0
 15 13  1  0
 17 16  1  0
 18 17  2  0
 19 17  1  0
 20 21  1  6
 20 19  1  0
 21 22  1  0
 23 22  1  0
 23 24  2  0
 25 20  1  0
 26 25  1  0
 27 23  1  0
 28 25  2  0
M  END
$$$$
