WGE.pdb
     RDKit          3D

 28 29  0  0  1  0  0  0  0  0999 V2000
    7.8164  -16.9150   23.6441 N   0  0  0  0  0  0  0  0  0  0  0  0
    7.7614  -15.9623   22.5633 C   0  0  1  0  0  0  0  0  0  0  0  0
    7.7408  -14.5333   22.9854 C   0  0  0  0  0  0  0  0  0  0  0  0
    7.1532  -14.4077   24.3374 C   0  0  0  0  0  0  0  0  0  0  0  0
    6.4413  -15.2971   25.1095 C   0  0  0  0  0  0  0  0  0  0  0  0
    6.1264  -14.6832   26.2702 N   0  0  0  0  0  0  0  0  0  0  0  0
    6.6144  -13.4385   26.2579 C   0  0  0  0  0  0  0  0  0  0  0  0
    6.5651  -12.4094   27.1997 C   0  0  0  0  0  0  0  0  0  0  0  0
    7.1706  -11.2073   26.9088 C   0  0  0  0  0  0  0  0  0  0  0  0
    7.8290  -10.9732   25.7163 C   0  0  0  0  0  0  0  0  0  0  0  0
    7.8687  -12.0012   24.7936 C   0  0  0  0  0  0  0  0  0  0  0  0
    7.2675  -13.2122   25.0691 C   0  0  0  0  0  0  0  0  0  0  0  0
    8.7782  -16.2418   21.5339 C   0  0  0  0  0  0  0  0  0  0  0  0
    9.0379  -15.2988   20.7048 O   0  0  0  0  0  0  0  0  0  0  0  0
    9.4467  -17.4715   21.4383 N   0  0  0  0  0  0  0  0  0  0  0  0
   10.4929  -17.6466   20.4709 C   0  0  0  0  0  0  0  0  0  0  0  0
   11.7383  -18.0421   21.2002 C   0  0  0  0  0  0  0  0  0  0  0  0
   12.7541  -18.5007   20.6110 O   0  0  0  0  0  0  0  0  0  0  0  0
   11.8376  -17.9168   22.6145 N   0  0  0  0  0  0  0  0  0  0  0  0
   12.8133  -18.7348   23.3914 C   0  0  1  0  0  0  0  0  0  0  0  0
   13.7056  -17.7606   24.0821 C   0  0  0  0  0  0  0  0  0  0  0  0
   14.5428  -16.9521   23.1558 C   0  0  0  0  0  0  0  0  0  0  0  0
   15.5102  -16.0576   23.7924 C   0  0  0  0  0  0  0  0  0  0  0  0
   15.0592  -15.0458   24.4374 O   0  0  0  0  0  0  0  0  0  0  0  0
   12.1666  -19.6944   24.2663 C   0  0  0  0  0  0  0  0  0  0  0  0
   12.8304  -20.6726   25.0117 O   0  0  0  0  0  0  0  0  0  0  0  0
   16.8832  -16.2081   23.7597 O   0  0  0  0  0  0  0  0  0  0  0  0
   10.9035  -19.6734   24.3732 O   0  0  0  0  0  0  0  0  0  0  0  0
  2 13  1  0
  2  3  1  0
  2  1  1  1
  4  3  1  0
  4 12  1  0
  5  4  2  0
  6  5  1  0
  6  7  1  0
  7  8  1  0
  7 12  2  0
  8  9  2  0
  9 10  1  0
 11 10  2  0
 12 11  1  0
 13 14  2  0
 15 16  1  0
 15 13  1  0
 17 16  1  0
 18 17  2  0
 19 17  1  0
 20 21  1  1
 20 19  1  0
 21 22  1  0
 23 22  1  0
 23 24  2  0
 25 20  1  0
 26 25  1  0
 27 23  1  0
 28 25  2  0
M  END
$$$$
