WGE.pdb
     RDKit          3D

 28 29  0  0  1  0  0  0  0  0999 V2000
    7.8084  -17.2111   23.8326 N   0  0  0  0  0  0  0  0  0  0  0  0
    7.6931  -16.3527   22.6798 C   0  0  1  0  0  0  0  0  0  0  0  0
    7.3283  -14.9399   22.9822 C   0  0  0  0  0  0  0  0  0  0  0  0
    6.9347  -14.8058   24.4021 C   0  0  0  0  0  0  0  0  0  0  0  0
    6.4262  -15.7180   25.2984 C   0  0  0  0  0  0  0  0  0  0  0  0
    6.2293  -15.0830   26.4737 N   0  0  0  0  0  0  0  0  0  0  0  0
    6.5956  -13.8031   26.3509 C   0  0  0  0  0  0  0  0  0  0  0  0
    6.5908  -12.7417   27.2576 C   0  0  0  0  0  0  0  0  0  0  0  0
    7.0362  -11.5063   26.8432 C   0  0  0  0  0  0  0  0  0  0  0  0
    7.4902  -11.2694   25.5594 C   0  0  0  0  0  0  0  0  0  0  0  0
    7.4881  -12.3295   24.6729 C   0  0  0  0  0  0  0  0  0  0  0  0
    7.0456  -13.5741   25.0717 C   0  0  0  0  0  0  0  0  0  0  0  0
    8.8646  -16.4655   21.7930 C   0  0  0  0  0  0  0  0  0  0  0  0
    8.9365  -15.6342   20.8194 O   0  0  0  0  0  0  0  0  0  0  0  0
    9.8693  -17.4270   21.9776 N   0  0  0  0  0  0  0  0  0  0  0  0
   11.0429  -17.4068   21.1510 C   0  0  0  0  0  0  0  0  0  0  0  0
   12.2314  -17.6559   22.0256 C   0  0  0  0  0  0  0  0  0  0  0  0
   12.1307  -17.8718   23.2635 O   0  0  0  0  0  0  0  0  0  0  0  0
   13.5516  -17.6620   21.4939 N   0  0  0  0  0  0  0  0  0  0  0  0
   14.7177  -18.0528   22.3377 C   0  0  1  0  0  0  0  0  0  0  0  0
   15.8519  -18.2669   21.3943 C   0  0  0  0  0  0  0  0  0  0  0  0
   16.2238  -17.0540   20.6176 C   0  0  0  0  0  0  0  0  0  0  0  0
   17.3253  -17.2214   19.6689 C   0  0  0  0  0  0  0  0  0  0  0  0
   17.8966  -18.3673   19.6077 O   0  0  0  0  0  0  0  0  0  0  0  0
   14.9816  -17.1022   23.4013 C   0  0  0  0  0  0  0  0  0  0  0  0
   15.7434  -17.3685   24.5423 O   0  0  0  0  0  0  0  0  0  0  0  0
   17.8105  -16.2426   18.8232 O   0  0  0  0  0  0  0  0  0  0  0  0
   14.4868  -15.9378   23.3204 O   0  0  0  0  0  0  0  0  0  0  0  0
  2 13  1  0
  2  3  1  0
  2  1  1  1
  4  3  1  0
  4 12  1  0
  5  4  2  0
  6  5  1  0
  6  7  1  0
  7  8  1  0
  7 12  2  0
  8  9  2  0
  9 10  1  0
 11 10  2  0
 12 11  1  0
 13 14  2  0
 15 16  1  0
 15 13  1  0
 17 16  1  0
 18 17  2  0
 19 17  1  0
 20 21  1  6
 20 19  1  0
 21 22  1  0
 23 22  1  0
 23 24  2  0
 25 20  1  0
 26 25  1  0
 27 23  1  0
 28 25  2  0
M  END
$$$$
