WGE.pdb
     RDKit          3D

 28 29  0  0  1  0  0  0  0  0999 V2000
    6.2770  -17.2032   23.9613 N   0  0  0  0  0  0  0  0  0  0  0  0
    7.4805  -16.5702   23.4819 C   0  0  1  0  0  0  0  0  0  0  0  0
    8.2297  -15.7879   24.5053 C   0  0  0  0  0  0  0  0  0  0  0  0
    7.2964  -14.9602   25.3007 C   0  0  0  0  0  0  0  0  0  0  0  0
    6.1791  -15.2918   26.0326 C   0  0  0  0  0  0  0  0  0  0  0  0
    5.6776  -14.1572   26.5659 N   0  0  0  0  0  0  0  0  0  0  0  0
    6.4386  -13.1218   26.1967 C   0  0  0  0  0  0  0  0  0  0  0  0
    6.3529  -11.7567   26.4752 C   0  0  0  0  0  0  0  0  0  0  0  0
    7.2988  -10.9060   25.9481 C   0  0  0  0  0  0  0  0  0  0  0  0
    8.3363  -11.3477   25.1488 C   0  0  0  0  0  0  0  0  0  0  0  0
    8.4075  -12.7016   24.8812 C   0  0  0  0  0  0  0  0  0  0  0  0
    7.4682  -13.5681   25.4017 C   0  0  0  0  0  0  0  0  0  0  0  0
    8.3370  -17.5122   22.7396 C   0  0  0  0  0  0  0  0  0  0  0  0
    7.7974  -18.6128   22.3634 O   0  0  0  0  0  0  0  0  0  0  0  0
    9.6826  -17.2471   22.4445 N   0  0  0  0  0  0  0  0  0  0  0  0
   10.4061  -18.1109   21.5548 C   0  0  0  0  0  0  0  0  0  0  0  0
   11.7856  -17.5555   21.3880 C   0  0  0  0  0  0  0  0  0  0  0  0
   12.5115  -17.8262   20.3935 O   0  0  0  0  0  0  0  0  0  0  0  0
   12.3524  -16.6816   22.3579 N   0  0  0  0  0  0  0  0  0  0  0  0
   13.2925  -17.1932   23.3968 C   0  0  1  0  0  0  0  0  0  0  0  0
   14.5292  -16.3707   23.2702 C   0  0  0  0  0  0  0  0  0  0  0  0
   15.0124  -16.2244   21.8710 C   0  0  0  0  0  0  0  0  0  0  0  0
   16.2334  -15.4360   21.7008 C   0  0  0  0  0  0  0  0  0  0  0  0
   16.7609  -14.9123   22.7451 O   0  0  0  0  0  0  0  0  0  0  0  0
   12.7049  -17.2091   24.7231 C   0  0  0  0  0  0  0  0  0  0  0  0
   13.2517  -17.8585   25.8333 O   0  0  0  0  0  0  0  0  0  0  0  0
   16.8759  -15.2027   20.5002 O   0  0  0  0  0  0  0  0  0  0  0  0
   11.6068  -16.6053   24.9151 O   0  0  0  0  0  0  0  0  0  0  0  0
  2 13  1  0
  2  3  1  0
  2  1  1  1
  4  3  1  0
  4 12  1  0
  5  4  2  0
  6  5  1  0
  6  7  1  0
  7  8  1  0
  7 12  2  0
  8  9  2  0
  9 10  1  0
 11 10  2  0
 12 11  1  0
 13 14  2  0
 15 16  1  0
 15 13  1  0
 17 16  1  0
 18 17  2  0
 19 17  1  0
 20 21  1  1
 20 19  1  0
 21 22  1  0
 23 22  1  0
 23 24  2  0
 25 20  1  0
 26 25  1  0
 27 23  1  0
 28 25  2  0
M  END
$$$$
