WGE.pdb
     RDKit          3D

 28 29  0  0  1  0  0  0  0  0999 V2000
    6.3687  -17.1150   22.7572 N   0  0  0  0  0  0  0  0  0  0  0  0
    7.6524  -16.4599   22.7144 C   0  0  1  0  0  0  0  0  0  0  0  0
    8.3614  -16.3803   24.0228 C   0  0  0  0  0  0  0  0  0  0  0  0
    7.5279  -15.6642   25.0135 C   0  0  0  0  0  0  0  0  0  0  0  0
    6.6016  -16.1174   25.9249 C   0  0  0  0  0  0  0  0  0  0  0  0
    6.1148  -15.0488   26.5916 N   0  0  0  0  0  0  0  0  0  0  0  0
    6.7011  -13.9380   26.1335 C   0  0  0  0  0  0  0  0  0  0  0  0
    6.5532  -12.5947   26.4832 C   0  0  0  0  0  0  0  0  0  0  0  0
    7.3063  -11.6464   25.8276 C   0  0  0  0  0  0  0  0  0  0  0  0
    8.2079  -11.9685   24.8308 C   0  0  0  0  0  0  0  0  0  0  0  0
    8.3427  -13.3022   24.4952 C   0  0  0  0  0  0  0  0  0  0  0  0
    7.5962  -14.2655   25.1423 C   0  0  0  0  0  0  0  0  0  0  0  0
    8.5021  -16.9889   21.6328 C   0  0  0  0  0  0  0  0  0  0  0  0
    7.9017  -17.5051   20.6243 O   0  0  0  0  0  0  0  0  0  0  0  0
    9.9036  -16.9462   21.6757 N   0  0  0  0  0  0  0  0  0  0  0  0
   10.6403  -16.4218   20.5606 C   0  0  0  0  0  0  0  0  0  0  0  0
   12.0928  -16.4247   20.9209 C   0  0  0  0  0  0  0  0  0  0  0  0
   12.9985  -16.1319   20.0943 O   0  0  0  0  0  0  0  0  0  0  0  0
   12.5277  -16.7623   22.2334 N   0  0  0  0  0  0  0  0  0  0  0  0
   13.9785  -16.9040   22.5491 C   0  0  1  0  0  0  0  0  0  0  0  0
   14.0545  -17.1683   24.0142 C   0  0  0  0  0  0  0  0  0  0  0  0
   13.5435  -18.5082   24.4098 C   0  0  0  0  0  0  0  0  0  0  0  0
   13.6311  -18.8246   25.8358 C   0  0  0  0  0  0  0  0  0  0  0  0
   14.2405  -17.9945   26.5992 O   0  0  0  0  0  0  0  0  0  0  0  0
   14.6376  -17.8930   21.7170 C   0  0  0  0  0  0  0  0  0  0  0  0
   16.0105  -17.9355   21.4590 O   0  0  0  0  0  0  0  0  0  0  0  0
   13.1094  -19.9522   26.4401 O   0  0  0  0  0  0  0  0  0  0  0  0
   13.9376  -18.7918   21.1608 O   0  0  0  0  0  0  0  0  0  0  0  0
  2 13  1  0
  2  3  1  0
  2  1  1  1
  4  3  1  0
  4 12  1  0
  5  4  2  0
  6  5  1  0
  6  7  1  0
  7  8  1  0
  7 12  2  0
  8  9  2  0
  9 10  1  0
 11 10  2  0
 12 11  1  0
 13 14  2  0
 15 16  1  0
 15 13  1  0
 17 16  1  0
 18 17  2  0
 19 17  1  0
 20 21  1  1
 20 19  1  0
 21 22  1  0
 23 22  1  0
 23 24  2  0
 25 20  1  0
 26 25  1  0
 27 23  1  0
 28 25  2  0
M  END
$$$$
