WGE.pdb
     RDKit          3D

 28 29  0  0  1  0  0  0  0  0999 V2000
    7.0005  -16.8599   23.1731 N   0  0  0  0  0  0  0  0  0  0  0  0
    7.7397  -15.8925   22.4007 C   0  0  1  0  0  0  0  0  0  0  0  0
    7.6683  -14.4941   22.9105 C   0  0  0  0  0  0  0  0  0  0  0  0
    7.0375  -14.4690   24.2485 C   0  0  0  0  0  0  0  0  0  0  0  0
    6.3627  -15.4362   24.9578 C   0  0  0  0  0  0  0  0  0  0  0  0
    5.9782  -14.8984   26.1352 N   0  0  0  0  0  0  0  0  0  0  0  0
    6.3864  -13.6266   26.1940 C   0  0  0  0  0  0  0  0  0  0  0  0
    6.2465  -12.6480   27.1795 C   0  0  0  0  0  0  0  0  0  0  0  0
    6.7823  -11.3983   26.9617 C   0  0  0  0  0  0  0  0  0  0  0  0
    7.4565  -11.0679   25.8013 C   0  0  0  0  0  0  0  0  0  0  0  0
    7.5863  -12.0468   24.8346 C   0  0  0  0  0  0  0  0  0  0  0  0
    7.0559  -13.3045   25.0367 C   0  0  0  0  0  0  0  0  0  0  0  0
    9.1199  -16.3383   22.1399 C   0  0  0  0  0  0  0  0  0  0  0  0
    9.8133  -15.6308   21.3258 O   0  0  0  0  0  0  0  0  0  0  0  0
    9.6770  -17.4790   22.7369 N   0  0  0  0  0  0  0  0  0  0  0  0
   10.4811  -18.3771   21.9573 C   0  0  0  0  0  0  0  0  0  0  0  0
   11.8269  -18.4763   22.6043 C   0  0  0  0  0  0  0  0  0  0  0  0
   12.7031  -19.3005   22.2272 O   0  0  0  0  0  0  0  0  0  0  0  0
   12.1877  -17.6319   23.6917 N   0  0  0  0  0  0  0  0  0  0  0  0
   13.2811  -18.0145   24.6313 C   0  0  1  0  0  0  0  0  0  0  0  0
   14.3481  -16.9882   24.4571 C   0  0  0  0  0  0  0  0  0  0  0  0
   15.0694  -17.0863   23.1598 C   0  0  0  0  0  0  0  0  0  0  0  0
   15.9853  -15.9855   22.8586 C   0  0  0  0  0  0  0  0  0  0  0  0
   16.7157  -15.5340   23.8104 O   0  0  0  0  0  0  0  0  0  0  0  0
   12.8137  -18.1815   25.9945 C   0  0  0  0  0  0  0  0  0  0  0  0
   13.5598  -18.7447   27.0333 O   0  0  0  0  0  0  0  0  0  0  0  0
   16.1346  -15.3819   21.6248 O   0  0  0  0  0  0  0  0  0  0  0  0
   11.6395  -17.8065   26.2909 O   0  0  0  0  0  0  0  0  0  0  0  0
  2 13  1  0
  2  3  1  0
  2  1  1  1
  4  3  1  0
  4 12  1  0
  5  4  2  0
  6  5  1  0
  6  7  1  0
  7  8  1  0
  7 12  2  0
  8  9  2  0
  9 10  1  0
 11 10  2  0
 12 11  1  0
 13 14  2  0
 15 16  1  0
 15 13  1  0
 17 16  1  0
 18 17  2  0
 19 17  1  0
 20 21  1  1
 20 19  1  0
 21 22  1  0
 23 22  1  0
 23 24  2  0
 25 20  1  0
 26 25  1  0
 27 23  1  0
 28 25  2  0
M  END
$$$$
