WGE.pdb
     RDKit          3D

 28 29  0  0  1  0  0  0  0  0999 V2000
    7.7404  -17.7502   24.3257 N   0  0  0  0  0  0  0  0  0  0  0  0
    7.8141  -16.7142   23.3255 C   0  0  1  0  0  0  0  0  0  0  0  0
    8.2638  -15.3856   23.8287 C   0  0  0  0  0  0  0  0  0  0  0  0
    7.3849  -14.9310   24.9286 C   0  0  0  0  0  0  0  0  0  0  0  0
    6.5937  -15.6287   25.8126 C   0  0  0  0  0  0  0  0  0  0  0  0
    5.9831  -14.7356   26.6207 N   0  0  0  0  0  0  0  0  0  0  0  0
    6.3610  -13.4997   26.2782 C   0  0  0  0  0  0  0  0  0  0  0  0
    6.0237  -12.2465   26.7923 C   0  0  0  0  0  0  0  0  0  0  0  0
    6.5806  -11.1205   26.2281 C   0  0  0  0  0  0  0  0  0  0  0  0
    7.4645  -11.1772   25.1670 C   0  0  0  0  0  0  0  0  0  0  0  0
    7.7881  -12.4248   24.6685 C   0  0  0  0  0  0  0  0  0  0  0  0
    7.2396  -13.5634   25.2222 C   0  0  0  0  0  0  0  0  0  0  0  0
    8.5563  -17.1567   22.1317 C   0  0  0  0  0  0  0  0  0  0  0  0
    9.4478  -18.0616   22.3060 O   0  0  0  0  0  0  0  0  0  0  0  0
    8.3230  -16.6309   20.8521 N   0  0  0  0  0  0  0  0  0  0  0  0
    9.0991  -17.0900   19.7350 C   0  0  0  0  0  0  0  0  0  0  0  0
   10.5096  -16.6290   19.9287 C   0  0  0  0  0  0  0  0  0  0  0  0
   10.7953  -15.4984   20.4076 O   0  0  0  0  0  0  0  0  0  0  0  0
   11.6123  -17.4573   19.5770 N   0  0  0  0  0  0  0  0  0  0  0  0
   12.9602  -17.2372   20.1765 C   0  0  1  0  0  0  0  0  0  0  0  0
   12.7498  -17.1936   21.6517 C   0  0  0  0  0  0  0  0  0  0  0  0
   14.0080  -17.0597   22.4339 C   0  0  0  0  0  0  0  0  0  0  0  0
   13.8518  -17.0451   23.8887 C   0  0  0  0  0  0  0  0  0  0  0  0
   14.3656  -16.0669   24.5384 O   0  0  0  0  0  0  0  0  0  0  0  0
   13.9369  -18.2123   19.7294 C   0  0  0  0  0  0  0  0  0  0  0  0
   13.7425  -19.5963   19.7253 O   0  0  0  0  0  0  0  0  0  0  0  0
   13.1921  -18.0036   24.6336 O   0  0  0  0  0  0  0  0  0  0  0  0
   15.0646  -17.8064   19.3162 O   0  0  0  0  0  0  0  0  0  0  0  0
  2 13  1  0
  2  3  1  0
  2  1  1  1
  4  3  1  0
  4 12  1  0
  5  4  2  0
  6  5  1  0
  6  7  1  0
  7  8  1  0
  7 12  2  0
  8  9  2  0
  9 10  1  0
 11 10  2  0
 12 11  1  0
 13 14  2  0
 15 16  1  0
 15 13  1  0
 17 16  1  0
 18 17  2  0
 19 17  1  0
 20 21  1  1
 20 19  1  0
 21 22  1  0
 23 22  1  0
 23 24  2  0
 25 20  1  0
 26 25  1  0
 27 23  1  0
 28 25  2  0
M  END
$$$$
