WGE.pdb
     RDKit          3D

 28 29  0  0  1  0  0  0  0  0999 V2000
    6.3184  -17.0600   23.2616 N   0  0  0  0  0  0  0  0  0  0  0  0
    7.5632  -16.3650   23.0461 C   0  0  1  0  0  0  0  0  0  0  0  0
    8.2507  -15.9076   24.2866 C   0  0  0  0  0  0  0  0  0  0  0  0
    7.2951  -15.2068   25.1723 C   0  0  0  0  0  0  0  0  0  0  0  0
    6.2397  -15.6696   25.9246 C   0  0  0  0  0  0  0  0  0  0  0  0
    5.6796  -14.6133   26.5522 N   0  0  0  0  0  0  0  0  0  0  0  0
    6.3441  -13.5009   26.2229 C   0  0  0  0  0  0  0  0  0  0  0  0
    6.1697  -12.1669   26.5954 C   0  0  0  0  0  0  0  0  0  0  0  0
    7.0250  -11.2140   26.0888 C   0  0  0  0  0  0  0  0  0  0  0  0
    8.0555  -11.5225   25.2209 C   0  0  0  0  0  0  0  0  0  0  0  0
    8.2151  -12.8471   24.8608 C   0  0  0  0  0  0  0  0  0  0  0  0
    7.3673  -13.8148   25.3593 C   0  0  0  0  0  0  0  0  0  0  0  0
    8.4545  -17.1064   22.1364 C   0  0  0  0  0  0  0  0  0  0  0  0
    7.8941  -17.8386   21.2454 O   0  0  0  0  0  0  0  0  0  0  0  0
    9.8534  -17.0366   22.2168 N   0  0  0  0  0  0  0  0  0  0  0  0
   10.6619  -17.6265   21.1876 C   0  0  0  0  0  0  0  0  0  0  0  0
   12.0987  -17.3918   21.5340 C   0  0  0  0  0  0  0  0  0  0  0  0
   13.0466  -17.7685   20.7931 O   0  0  0  0  0  0  0  0  0  0  0  0
   12.4694  -16.7215   22.7336 N   0  0  0  0  0  0  0  0  0  0  0  0
   13.2902  -17.4062   23.7739 C   0  0  1  0  0  0  0  0  0  0  0  0
   14.4913  -16.5472   23.9781 C   0  0  0  0  0  0  0  0  0  0  0  0
   15.3166  -16.3681   22.7535 C   0  0  0  0  0  0  0  0  0  0  0  0
   16.5013  -15.5227   22.9052 C   0  0  0  0  0  0  0  0  0  0  0  0
   17.2223  -15.3070   21.8675 O   0  0  0  0  0  0  0  0  0  0  0  0
   12.5366  -17.6957   24.9792 C   0  0  0  0  0  0  0  0  0  0  0  0
   12.9678  -18.5339   26.0111 O   0  0  0  0  0  0  0  0  0  0  0  0
   16.9174  -14.9294   24.0815 O   0  0  0  0  0  0  0  0  0  0  0  0
   11.3925  -17.1705   25.1287 O   0  0  0  0  0  0  0  0  0  0  0  0
  2 13  1  0
  2  3  1  0
  2  1  1  1
  4  3  1  0
  4 12  1  0
  5  4  2  0
  6  5  1  0
  6  7  1  0
  7  8  1  0
  7 12  2  0
  8  9  2  0
  9 10  1  0
 11 10  2  0
 12 11  1  0
 13 14  2  0
 15 16  1  0
 15 13  1  0
 17 16  1  0
 18 17  2  0
 19 17  1  0
 20 21  1  1
 20 19  1  0
 21 22  1  0
 23 22  1  0
 23 24  2  0
 25 20  1  0
 26 25  1  0
 27 23  1  0
 28 25  2  0
M  END
$$$$
