WGE.pdb
     RDKit          3D

 28 29  0  0  1  0  0  0  0  0999 V2000
    7.0414  -15.4121   22.2188 N   0  0  0  0  0  0  0  0  0  0  0  0
    8.3958  -15.3475   22.7092 C   0  0  1  0  0  0  0  0  0  0  0  0
    8.5795  -15.8162   24.1117 C   0  0  0  0  0  0  0  0  0  0  0  0
    7.5327  -15.2406   24.9846 C   0  0  0  0  0  0  0  0  0  0  0  0
    6.4566  -15.8162   25.6209 C   0  0  0  0  0  0  0  0  0  0  0  0
    5.8020  -14.8459   26.2942 N   0  0  0  0  0  0  0  0  0  0  0  0
    6.4268  -13.6790   26.1056 C   0  0  0  0  0  0  0  0  0  0  0  0
    6.1584  -12.3921   26.5751 C   0  0  0  0  0  0  0  0  0  0  0  0
    6.9933  -11.3596   26.2103 C   0  0  0  0  0  0  0  0  0  0  0  0
    8.0928  -11.5428   25.3930 C   0  0  0  0  0  0  0  0  0  0  0  0
    8.3451  -12.8221   24.9354 C   0  0  0  0  0  0  0  0  0  0  0  0
    7.5190  -13.8683   25.2917 C   0  0  0  0  0  0  0  0  0  0  0  0
    9.3491  -15.9633   21.7691 C   0  0  0  0  0  0  0  0  0  0  0  0
    9.9140  -15.1831   20.9227 O   0  0  0  0  0  0  0  0  0  0  0  0
    9.6445  -17.3347   21.7735 N   0  0  0  0  0  0  0  0  0  0  0  0
   10.1654  -17.9530   22.9598 C   0  0  0  0  0  0  0  0  0  0  0  0
   11.6039  -17.5627   23.0936 C   0  0  0  0  0  0  0  0  0  0  0  0
   12.0560  -16.4720   22.6518 O   0  0  0  0  0  0  0  0  0  0  0  0
   12.5442  -18.4164   23.7361 N   0  0  0  0  0  0  0  0  0  0  0  0
   13.2412  -17.9900   24.9839 C   0  0  1  0  0  0  0  0  0  0  0  0
   12.1678  -17.7459   25.9891 C   0  0  0  0  0  0  0  0  0  0  0  0
   11.6915  -18.9794   26.6705 C   0  0  0  0  0  0  0  0  0  0  0  0
   10.6987  -18.7776   27.7263 C   0  0  0  0  0  0  0  0  0  0  0  0
   10.2227  -19.8151   28.3098 O   0  0  0  0  0  0  0  0  0  0  0  0
   14.2641  -18.9300   25.4018 C   0  0  0  0  0  0  0  0  0  0  0  0
   15.2494  -18.6684   26.3579 O   0  0  0  0  0  0  0  0  0  0  0  0
   10.2225  -17.5538   28.1555 O   0  0  0  0  0  0  0  0  0  0  0  0
   14.2967  -20.0793   24.8676 O   0  0  0  0  0  0  0  0  0  0  0  0
  2 13  1  0
  2  3  1  0
  2  1  1  6
  4  3  1  0
  4 12  1  0
  5  4  2  0
  6  5  1  0
  6  7  1  0
  7  8  1  0
  7 12  2  0
  8  9  2  0
  9 10  1  0
 11 10  2  0
 12 11  1  0
 13 14  2  0
 15 16  1  0
 15 13  1  0
 17 16  1  0
 18 17  2  0
 19 17  1  0
 20 21  1  1
 20 19  1  0
 21 22  1  0
 23 22  1  0
 23 24  2  0
 25 20  1  0
 26 25  1  0
 27 23  1  0
 28 25  2  0
M  END
$$$$
