WGE.pdb
     RDKit          3D

 28 29  0  0  1  0  0  0  0  0999 V2000
    7.5265  -16.5879   23.0118 N   0  0  0  0  0  0  0  0  0  0  0  0
    8.5200  -15.5798   22.7372 C   0  0  1  0  0  0  0  0  0  0  0  0
    8.8483  -14.6911   23.8875 C   0  0  0  0  0  0  0  0  0  0  0  0
    7.7703  -14.7448   24.8994 C   0  0  0  0  0  0  0  0  0  0  0  0
    6.9135  -15.7569   25.2675 C   0  0  0  0  0  0  0  0  0  0  0  0
    6.1072  -15.2869   26.2433 N   0  0  0  0  0  0  0  0  0  0  0  0
    6.4249  -14.0146   26.5040 C   0  0  0  0  0  0  0  0  0  0  0  0
    5.9023  -13.0912   27.4110 C   0  0  0  0  0  0  0  0  0  0  0  0
    6.4407  -11.8247   27.4608 C   0  0  0  0  0  0  0  0  0  0  0  0
    7.4827  -11.4248   26.6455 C   0  0  0  0  0  0  0  0  0  0  0  0
    7.9889  -12.3497   25.7522 C   0  0  0  0  0  0  0  0  0  0  0  0
    7.4615  -13.6232   25.6895 C   0  0  0  0  0  0  0  0  0  0  0  0
    9.7165  -16.1503   22.0933 C   0  0  0  0  0  0  0  0  0  0  0  0
   10.5848  -15.3200   21.6451 O   0  0  0  0  0  0  0  0  0  0  0  0
    9.9239  -17.5313   21.9600 N   0  0  0  0  0  0  0  0  0  0  0  0
   11.1514  -18.0222   21.4004 C   0  0  0  0  0  0  0  0  0  0  0  0
   12.2597  -17.6916   22.3501 C   0  0  0  0  0  0  0  0  0  0  0  0
   12.9596  -16.6488   22.2411 O   0  0  0  0  0  0  0  0  0  0  0  0
   12.5809  -18.5508   23.4385 N   0  0  0  0  0  0  0  0  0  0  0  0
   13.7122  -18.2356   24.3579 C   0  0  1  0  0  0  0  0  0  0  0  0
   13.3126  -18.7622   25.6940 C   0  0  0  0  0  0  0  0  0  0  0  0
   11.9145  -18.4284   26.0772 C   0  0  0  0  0  0  0  0  0  0  0  0
   11.4781  -18.9274   27.3817 C   0  0  0  0  0  0  0  0  0  0  0  0
   11.7991  -18.2505   28.4219 O   0  0  0  0  0  0  0  0  0  0  0  0
   14.9856  -18.7265   23.8660 C   0  0  0  0  0  0  0  0  0  0  0  0
   15.1495  -19.5423   22.7431 O   0  0  0  0  0  0  0  0  0  0  0  0
   10.7422  -20.0771   27.5948 O   0  0  0  0  0  0  0  0  0  0  0  0
   16.0452  -18.4163   24.4892 O   0  0  0  0  0  0  0  0  0  0  0  0
  2 13  1  0
  2  3  1  0
  2  1  1  1
  4  3  1  0
  4 12  1  0
  5  4  2  0
  6  5  1  0
  6  7  1  0
  7  8  1  0
  7 12  2  0
  8  9  2  0
  9 10  1  0
 11 10  2  0
 12 11  1  0
 13 14  2  0
 15 16  1  0
 15 13  1  0
 17 16  1  0
 18 17  2  0
 19 17  1  0
 20 21  1  1
 20 19  1  0
 21 22  1  0
 23 22  1  0
 23 24  2  0
 25 20  1  0
 26 25  1  0
 27 23  1  0
 28 25  2  0
M  END
$$$$
