WGE.pdb
     RDKit          3D

 28 29  0  0  1  0  0  0  0  0999 V2000
    8.1943  -16.8488   22.6395 N   0  0  0  0  0  0  0  0  0  0  0  0
    7.4568  -16.6186   23.8569 C   0  0  1  0  0  0  0  0  0  0  0  0
    6.2872  -15.7053   23.7201 C   0  0  0  0  0  0  0  0  0  0  0  0
    6.7416  -14.2989   23.6525 C   0  0  0  0  0  0  0  0  0  0  0  0
    7.3458  -13.5824   22.6448 C   0  0  0  0  0  0  0  0  0  0  0  0
    7.5629  -12.3285   23.0965 N   0  0  0  0  0  0  0  0  0  0  0  0
    7.1170  -12.2285   24.3530 C   0  0  0  0  0  0  0  0  0  0  0  0
    7.1044  -11.1631   25.2549 C   0  0  0  0  0  0  0  0  0  0  0  0
    6.5680  -11.3548   26.5086 C   0  0  0  0  0  0  0  0  0  0  0  0
    6.0385  -12.5647   26.9162 C   0  0  0  0  0  0  0  0  0  0  0  0
    6.0588  -13.6101   26.0128 C   0  0  0  0  0  0  0  0  0  0  0  0
    6.5922  -13.4353   24.7523 C   0  0  0  0  0  0  0  0  0  0  0  0
    7.1228  -17.8797   24.5424 C   0  0  0  0  0  0  0  0  0  0  0  0
    5.9872  -18.4066   24.2652 O   0  0  0  0  0  0  0  0  0  0  0  0
    7.9842  -18.4982   25.4608 N   0  0  0  0  0  0  0  0  0  0  0  0
    7.4675  -19.4564   26.3966 C   0  0  0  0  0  0  0  0  0  0  0  0
    8.6073  -19.9542   27.2288 C   0  0  0  0  0  0  0  0  0  0  0  0
    8.4391  -20.6691   28.2534 O   0  0  0  0  0  0  0  0  0  0  0  0
    9.9556  -19.6404   26.8981 N   0  0  0  0  0  0  0  0  0  0  0  0
   11.0804  -20.0545   27.7858 C   0  0  1  0  0  0  0  0  0  0  0  0
   12.3200  -19.9079   26.9708 C   0  0  0  0  0  0  0  0  0  0  0  0
   12.4192  -18.6062   26.2577 C   0  0  0  0  0  0  0  0  0  0  0  0
   13.5834  -18.4480   25.3855 C   0  0  0  0  0  0  0  0  0  0  0  0
   13.4612  -18.7817   24.1539 O   0  0  0  0  0  0  0  0  0  0  0  0
   11.0917  -19.3359   29.0459 C   0  0  0  0  0  0  0  0  0  0  0  0
   10.3081  -18.2156   29.3357 O   0  0  0  0  0  0  0  0  0  0  0  0
   14.8177  -17.9653   25.7758 O   0  0  0  0  0  0  0  0  0  0  0  0
   11.8699  -19.7257   29.9677 O   0  0  0  0  0  0  0  0  0  0  0  0
  2 13  1  0
  2  3  1  0
  2  1  1  6
  4  3  1  0
  4 12  1  0
  5  4  2  0
  6  5  1  0
  6  7  1  0
  7  8  1  0
  7 12  2  0
  8  9  2  0
  9 10  1  0
 11 10  2  0
 12 11  1  0
 13 14  2  0
 15 16  1  0
 15 13  1  0
 17 16  1  0
 18 17  2  0
 19 17  1  0
 20 21  1  6
 20 19  1  0
 21 22  1  0
 23 22  1  0
 23 24  2  0
 25 20  1  0
 26 25  1  0
 27 23  1  0
 28 25  2  0
M  END
$$$$
