WGE.pdb
     RDKit          3D

 28 29  0  0  1  0  0  0  0  0999 V2000
    7.1528  -17.1750   23.4163 N   0  0  0  0  0  0  0  0  0  0  0  0
    7.8824  -16.0700   22.8456 C   0  0  1  0  0  0  0  0  0  0  0  0
    8.5215  -15.1596   23.8373 C   0  0  0  0  0  0  0  0  0  0  0  0
    7.5127  -14.6600   24.7974 C   0  0  0  0  0  0  0  0  0  0  0  0
    6.4651  -15.2889   25.4305 C   0  0  0  0  0  0  0  0  0  0  0  0
    5.8394  -14.3783   26.2069 N   0  0  0  0  0  0  0  0  0  0  0  0
    6.4550  -13.1977   26.0861 C   0  0  0  0  0  0  0  0  0  0  0  0
    6.2062  -11.9536   26.6685 C   0  0  0  0  0  0  0  0  0  0  0  0
    7.0242  -10.8919   26.3525 C   0  0  0  0  0  0  0  0  0  0  0  0
    8.0879  -11.0047   25.4771 C   0  0  0  0  0  0  0  0  0  0  0  0
    8.3211  -12.2422   24.9080 C   0  0  0  0  0  0  0  0  0  0  0  0
    7.5115  -13.3168   25.2139 C   0  0  0  0  0  0  0  0  0  0  0  0
    8.8119  -16.5130   21.7913 C   0  0  0  0  0  0  0  0  0  0  0  0
    9.4336  -15.5968   21.1445 O   0  0  0  0  0  0  0  0  0  0  0  0
    9.0268  -17.8650   21.4847 N   0  0  0  0  0  0  0  0  0  0  0  0
    9.9255  -18.2268   20.4253 C   0  0  0  0  0  0  0  0  0  0  0  0
   11.3076  -18.3025   20.9942 C   0  0  0  0  0  0  0  0  0  0  0  0
   12.3089  -18.6359   20.3047 O   0  0  0  0  0  0  0  0  0  0  0  0
   11.5616  -17.9965   22.3608 N   0  0  0  0  0  0  0  0  0  0  0  0
   12.9303  -18.1348   22.9373 C   0  0  1  0  0  0  0  0  0  0  0  0
   13.2515  -16.8144   23.5501 C   0  0  0  0  0  0  0  0  0  0  0  0
   13.9621  -15.8837   22.6327 C   0  0  0  0  0  0  0  0  0  0  0  0
   15.3497  -15.5814   22.9857 C   0  0  0  0  0  0  0  0  0  0  0  0
   15.6191  -15.3479   24.2170 O   0  0  0  0  0  0  0  0  0  0  0  0
   13.0464  -19.2676   23.8362 C   0  0  0  0  0  0  0  0  0  0  0  0
   14.2519  -19.8053   24.2951 O   0  0  0  0  0  0  0  0  0  0  0  0
   16.4080  -15.5242   22.0995 O   0  0  0  0  0  0  0  0  0  0  0  0
   11.9903  -19.8388   24.2431 O   0  0  0  0  0  0  0  0  0  0  0  0
  2 13  1  0
  2  3  1  0
  2  1  1  1
  4  3  1  0
  4 12  1  0
  5  4  2  0
  6  5  1  0
  6  7  1  0
  7  8  1  0
  7 12  2  0
  8  9  2  0
  9 10  1  0
 11 10  2  0
 12 11  1  0
 13 14  2  0
 15 16  1  0
 15 13  1  0
 17 16  1  0
 18 17  2  0
 19 17  1  0
 20 21  1  1
 20 19  1  0
 21 22  1  0
 23 22  1  0
 23 24  2  0
 25 20  1  0
 26 25  1  0
 27 23  1  0
 28 25  2  0
M  END
$$$$
