WGE.pdb
     RDKit          3D

 28 29  0  0  1  0  0  0  0  0999 V2000
    9.2594  -15.7557   23.2013 N   0  0  0  0  0  0  0  0  0  0  0  0
    8.5416  -16.3259   24.3141 C   0  0  1  0  0  0  0  0  0  0  0  0
    7.1178  -15.9010   24.4279 C   0  0  0  0  0  0  0  0  0  0  0  0
    6.9896  -14.4571   24.1318 C   0  0  0  0  0  0  0  0  0  0  0  0
    7.0801  -13.7559   22.9511 C   0  0  0  0  0  0  0  0  0  0  0  0
    6.8912  -12.4477   23.2272 N   0  0  0  0  0  0  0  0  0  0  0  0
    6.6847  -12.2987   24.5397 C   0  0  0  0  0  0  0  0  0  0  0  0
    6.4425  -11.1683   25.3221 C   0  0  0  0  0  0  0  0  0  0  0  0
    6.2626  -11.3203   26.6789 C   0  0  0  0  0  0  0  0  0  0  0  0
    6.3126  -12.5518   27.3044 C   0  0  0  0  0  0  0  0  0  0  0  0
    6.5540  -13.6614   26.5169 C   0  0  0  0  0  0  0  0  0  0  0  0
    6.7361  -13.5271   25.1558 C   0  0  0  0  0  0  0  0  0  0  0  0
    8.7113  -17.7881   24.3846 C   0  0  0  0  0  0  0  0  0  0  0  0
    8.1386  -18.3915   25.3603 O   0  0  0  0  0  0  0  0  0  0  0  0
    9.4590  -18.5138   23.4453 N   0  0  0  0  0  0  0  0  0  0  0  0
    9.6543  -19.9254   23.6191 C   0  0  0  0  0  0  0  0  0  0  0  0
   11.0062  -20.1361   24.2251 C   0  0  0  0  0  0  0  0  0  0  0  0
   11.3991  -21.2616   24.6353 O   0  0  0  0  0  0  0  0  0  0  0  0
   11.9272  -19.0605   24.3687 N   0  0  0  0  0  0  0  0  0  0  0  0
   13.2224  -19.2486   25.0840 C   0  0  1  0  0  0  0  0  0  0  0  0
   14.0022  -17.9991   24.8540 C   0  0  0  0  0  0  0  0  0  0  0  0
   14.3066  -17.7366   23.4218 C   0  0  0  0  0  0  0  0  0  0  0  0
   14.9712  -16.4643   23.1376 C   0  0  0  0  0  0  0  0  0  0  0  0
   16.1374  -16.2716   23.6335 O   0  0  0  0  0  0  0  0  0  0  0  0
   13.0439  -19.6068   26.4785 C   0  0  0  0  0  0  0  0  0  0  0  0
   13.9960  -20.2607   27.2654 O   0  0  0  0  0  0  0  0  0  0  0  0
   14.4473  -15.4395   22.3733 O   0  0  0  0  0  0  0  0  0  0  0  0
   11.9465  -19.3271   27.0483 O   0  0  0  0  0  0  0  0  0  0  0  0
  2 13  1  0
  2  3  1  0
  2  1  1  6
  4  3  1  0
  4 12  1  0
  5  4  2  0
  6  5  1  0
  6  7  1  0
  7  8  1  0
  7 12  2  0
  8  9  2  0
  9 10  1  0
 11 10  2  0
 12 11  1  0
 13 14  2  0
 15 16  1  0
 15 13  1  0
 17 16  1  0
 18 17  2  0
 19 17  1  0
 20 21  1  1
 20 19  1  0
 21 22  1  0
 23 22  1  0
 23 24  2  0
 25 20  1  0
 26 25  1  0
 27 23  1  0
 28 25  2  0
M  END
$$$$
