HCR.pdb
     RDKit          3D

 28 28  0  0  1  0  0  0  0  0999 V2000
   29.6708  -21.7394  -18.0824 N   0  0  0  0  0  0  0  0  0  0  0  0
   28.7457  -20.6891  -18.3932 C   0  0  1  0  0  0  0  0  0  0  0  0
   27.7630  -21.0669  -19.4724 C   0  0  0  0  0  0  0  0  0  0  0  0
   28.2740  -20.8659  -20.8265 C   0  0  0  0  0  0  0  0  0  0  0  0
   28.5651  -21.8506  -21.7482 C   0  0  0  0  0  0  0  0  0  0  0  0
   29.0080  -21.2422  -22.8666 N   0  0  0  0  0  0  0  0  0  0  0  0
   29.0076  -19.9218  -22.6874 C   0  0  0  0  0  0  0  0  0  0  0  0
   28.5573  -19.7024  -21.4374 N   0  0  0  0  0  0  0  0  0  0  0  0
   28.0268  -20.3545  -17.1242 C   0  0  0  0  0  0  0  0  0  0  0  0
   27.9325  -21.2032  -16.2012 O   0  0  0  0  0  0  0  0  0  0  0  0
   27.4258  -19.0862  -16.9008 N   0  0  0  0  0  0  0  0  0  0  0  0
   26.8270  -18.7275  -15.6205 C   0  0  1  0  0  0  0  0  0  0  0  0
   27.2247  -17.2967  -15.2996 C   0  0  0  0  0  0  0  0  0  0  0  0
   25.8552  -16.1909  -15.7510 S   0  0  0  0  0  0  0  0  0  0  0  0
   25.3626  -18.8818  -15.6722 C   0  0  0  0  0  0  0  0  0  0  0  0
   24.7215  -18.3168  -16.5877 O   0  0  0  0  0  0  0  0  0  0  0  0
   24.2832  -20.9752   -8.6762 N   0  0  0  0  0  0  0  0  0  0  0  0
   24.9523  -20.8442   -9.9145 C   0  0  0  0  0  0  0  0  0  0  0  0
   26.2240  -20.9934   -9.9466 N   0  0  0  0  0  0  0  0  0  0  0  0
   24.1981  -20.5500  -11.0933 N   0  0  0  0  0  0  0  0  0  0  0  0
   22.7545  -20.4786  -10.9869 C   0  0  0  0  0  0  0  0  0  0  0  0
   22.1347  -20.1504  -12.3258 C   0  0  0  0  0  0  0  0  0  0  0  0
   22.9142  -19.1579  -13.1085 C   0  0  0  0  0  0  0  0  0  0  0  0
   23.2415  -19.6138  -14.5112 C   0  0  2  0  0  0  0  0  0  0  0  0
   24.6764  -19.6497  -14.7145 N   0  0  0  0  0  0  0  0  0  0  0  0
   22.6247  -18.8220  -15.5643 C   0  0  0  0  0  0  0  0  0  0  0  0
   21.6390  -18.0771  -15.3349 O   0  0  0  0  0  0  0  0  0  0  0  0
   23.1156  -18.8718  -16.8580 O   0  0  0  0  0  0  0  0  0  0  0  0
  2  1  1  1
  2  9  1  0
  3  2  1  0
  4  3  1  0
  4  5  2  0
  6  5  1  0
  7  6  1  0
  8  7  2  0
  8  4  1  0
  9 10  2  0
 11 12  1  0
 11  9  1  0
 12 15  1  0
 12 13  1  6
 14 13  1  0
 15 16  2  0
 18 17  1  0
 19 18  2  0
 20 18  1  0
 21 20  1  0
 22 21  1  0
 23 22  1  0
 24 23  1  1
 24 26  1  0
 25 15  1  0
 25 24  1  0
 26 27  2  0
 26 28  1  0
M  END
$$$$
