HCR.pdb
     RDKit          3D

 28 28  0  0  1  0  0  0  0  0999 V2000
   28.1228  -21.2455  -17.8137 N   0  0  0  0  0  0  0  0  0  0  0  0
   28.3494  -20.2836  -16.7750 C   0  0  1  0  0  0  0  0  0  0  0  0
   27.5319  -19.0280  -16.9432 C   0  0  0  0  0  0  0  0  0  0  0  0
   27.9279  -18.2211  -18.0953 C   0  0  0  0  0  0  0  0  0  0  0  0
   29.2157  -17.8782  -18.4531 C   0  0  0  0  0  0  0  0  0  0  0  0
   29.1411  -17.1318  -19.5731 N   0  0  0  0  0  0  0  0  0  0  0  0
   27.8659  -16.9917  -19.9330 C   0  0  0  0  0  0  0  0  0  0  0  0
   27.1326  -17.6612  -19.0232 N   0  0  0  0  0  0  0  0  0  0  0  0
   28.0157  -20.9562  -15.4806 C   0  0  0  0  0  0  0  0  0  0  0  0
   26.9785  -21.6593  -15.3754 O   0  0  0  0  0  0  0  0  0  0  0  0
   28.8368  -20.8377  -14.3267 N   0  0  0  0  0  0  0  0  0  0  0  0
   28.4652  -21.4307  -13.0474 C   0  0  1  0  0  0  0  0  0  0  0  0
   29.7008  -21.4549  -12.1636 C   0  0  0  0  0  0  0  0  0  0  0  0
   30.3908  -19.7763  -12.0724 S   0  0  0  0  0  0  0  0  0  0  0  0
   27.3695  -20.6694  -12.4223 C   0  0  0  0  0  0  0  0  0  0  0  0
   27.2328  -19.4562  -12.7013 O   0  0  0  0  0  0  0  0  0  0  0  0
   19.5716  -19.2561  -13.0646 N   0  0  0  0  0  0  0  0  0  0  0  0
   20.5939  -19.8903  -13.8070 C   0  0  0  0  0  0  0  0  0  0  0  0
   20.4969  -19.9254  -15.0837 N   0  0  0  0  0  0  0  0  0  0  0  0
   21.7037  -20.4734  -13.1192 N   0  0  0  0  0  0  0  0  0  0  0  0
   21.5790  -20.7210  -11.6967 C   0  0  0  0  0  0  0  0  0  0  0  0
   22.8612  -20.3695  -10.9777 C   0  0  0  0  0  0  0  0  0  0  0  0
   24.0749  -20.9146  -11.6372 C   0  0  0  0  0  0  0  0  0  0  0  0
   25.3561  -20.6086  -10.8974 C   0  0  2  0  0  0  0  0  0  0  0  0
   26.4789  -21.2803  -11.5216 N   0  0  0  0  0  0  0  0  0  0  0  0
   25.3282  -20.9321   -9.4792 C   0  0  0  0  0  0  0  0  0  0  0  0
   24.9375  -20.0996   -8.6228 O   0  0  0  0  0  0  0  0  0  0  0  0
   25.7359  -22.1788   -9.0362 O   0  0  0  0  0  0  0  0  0  0  0  0
  2  1  1  6
  2  9  1  0
  3  2  1  0
  4  3  1  0
  4  5  2  0
  6  5  1  0
  7  6  1  0
  8  7  2  0
  8  4  1  0
  9 10  2  0
 11 12  1  0
 11  9  1  0
 12 15  1  0
 12 13  1  1
 14 13  1  0
 15 16  2  0
 18 17  1  0
 19 18  2  0
 20 18  1  0
 21 20  1  0
 22 21  1  0
 23 22  1  0
 24 23  1  6
 24 26  1  0
 25 15  1  0
 25 24  1  0
 26 27  2  0
 26 28  1  0
M  END
$$$$
