HCR.pdb
     RDKit          3D

 28 28  0  0  1  0  0  0  0  0999 V2000
   28.0592  -20.2754  -16.0450 N   0  0  0  0  0  0  0  0  0  0  0  0
   27.7254  -19.6336  -14.8072 C   0  0  1  0  0  0  0  0  0  0  0  0
   26.8707  -18.4050  -14.9898 C   0  0  0  0  0  0  0  0  0  0  0  0
   27.4596  -17.4091  -15.8822 C   0  0  0  0  0  0  0  0  0  0  0  0
   27.0419  -17.1047  -17.1616 C   0  0  0  0  0  0  0  0  0  0  0  0
   27.8501  -16.1341  -17.6328 N   0  0  0  0  0  0  0  0  0  0  0  0
   28.7546  -15.8170  -16.7072 C   0  0  0  0  0  0  0  0  0  0  0  0
   28.5073  -16.6019  -15.6412 N   0  0  0  0  0  0  0  0  0  0  0  0
   27.0115  -20.6486  -13.9710 C   0  0  0  0  0  0  0  0  0  0  0  0
   27.5739  -21.7298  -13.6610 O   0  0  0  0  0  0  0  0  0  0  0  0
   25.6881  -20.4476  -13.4936 N   0  0  0  0  0  0  0  0  0  0  0  0
   24.9930  -21.4489  -12.6931 C   0  0  1  0  0  0  0  0  0  0  0  0
   25.6839  -21.5338  -11.3425 C   0  0  0  0  0  0  0  0  0  0  0  0
   26.0068  -19.8497  -10.7409 S   0  0  0  0  0  0  0  0  0  0  0  0
   23.5688  -21.0999  -12.5496 C   0  0  0  0  0  0  0  0  0  0  0  0
   23.2584  -20.0094  -12.0177 O   0  0  0  0  0  0  0  0  0  0  0  0
   16.8597  -22.2897  -17.4198 N   0  0  0  0  0  0  0  0  0  0  0  0
   16.2038  -21.9456  -16.2157 C   0  0  0  0  0  0  0  0  0  0  0  0
   14.9835  -21.5601  -16.2673 N   0  0  0  0  0  0  0  0  0  0  0  0
   16.9140  -22.0357  -14.9778 N   0  0  0  0  0  0  0  0  0  0  0  0
   18.3307  -22.3384  -15.0174 C   0  0  0  0  0  0  0  0  0  0  0  0
   18.8779  -22.5229  -13.6206 C   0  0  0  0  0  0  0  0  0  0  0  0
   20.3400  -22.7807  -13.5899 C   0  0  0  0  0  0  0  0  0  0  0  0
   21.1427  -21.6497  -12.9905 C   0  0  2  0  0  0  0  0  0  0  0  0
   22.5570  -21.9676  -12.9981 N   0  0  0  0  0  0  0  0  0  0  0  0
   20.7409  -21.2692  -11.6450 C   0  0  0  0  0  0  0  0  0  0  0  0
   19.9482  -20.3158  -11.4406 O   0  0  0  0  0  0  0  0  0  0  0  0
   21.2284  -21.9570  -10.5467 O   0  0  0  0  0  0  0  0  0  0  0  0
  2  1  1  6
  2  9  1  0
  3  2  1  0
  4  3  1  0
  4  5  2  0
  6  5  1  0
  7  6  1  0
  8  7  2  0
  8  4  1  0
  9 10  2  0
 11 12  1  0
 11  9  1  0
 12 15  1  0
 12 13  1  1
 14 13  1  0
 15 16  2  0
 18 17  1  0
 19 18  2  0
 20 18  1  0
 21 20  1  0
 22 21  1  0
 23 22  1  0
 24 23  1  1
 24 26  1  0
 25 15  1  0
 25 24  1  0
 26 27  2  0
 26 28  1  0
M  END
$$$$
