HCR.pdb
     RDKit          3D

 28 28  0  0  1  0  0  0  0  0999 V2000
   27.1382  -22.0323  -11.5011 N   0  0  0  0  0  0  0  0  0  0  0  0
   26.0355  -21.1161  -11.5183 C   0  0  1  0  0  0  0  0  0  0  0  0
   26.3289  -19.8240  -10.7989 C   0  0  0  0  0  0  0  0  0  0  0  0
   26.3205  -19.9491   -9.3431 C   0  0  0  0  0  0  0  0  0  0  0  0
   26.0506  -21.0925   -8.6194 C   0  0  0  0  0  0  0  0  0  0  0  0
   26.1492  -20.7787   -7.3121 N   0  0  0  0  0  0  0  0  0  0  0  0
   26.4683  -19.4913   -7.1841 C   0  0  0  0  0  0  0  0  0  0  0  0
   26.5707  -18.9935   -8.4312 N   0  0  0  0  0  0  0  0  0  0  0  0
   25.7121  -20.8536  -12.9555 C   0  0  0  0  0  0  0  0  0  0  0  0
   26.5969  -20.9729  -13.8410 O   0  0  0  0  0  0  0  0  0  0  0  0
   24.4148  -20.4638  -13.3855 N   0  0  0  0  0  0  0  0  0  0  0  0
   24.0944  -20.2593  -14.7933 C   0  0  1  0  0  0  0  0  0  0  0  0
   24.2359  -21.5934  -15.5065 C   0  0  0  0  0  0  0  0  0  0  0  0
   23.2501  -22.8389  -14.6239 S   0  0  0  0  0  0  0  0  0  0  0  0
   22.7351  -19.7102  -14.9408 C   0  0  0  0  0  0  0  0  0  0  0  0
   21.8073  -20.1829  -14.2450 O   0  0  0  0  0  0  0  0  0  0  0  0
   22.0233  -11.3579  -16.1531 N   0  0  0  0  0  0  0  0  0  0  0  0
   22.2838  -12.1672  -15.0238 C   0  0  0  0  0  0  0  0  0  0  0  0
   23.0009  -11.6899  -14.0759 N   0  0  0  0  0  0  0  0  0  0  0  0
   21.7439  -13.4902  -14.9675 N   0  0  0  0  0  0  0  0  0  0  0  0
   20.9729  -13.9677  -16.0978 C   0  0  0  0  0  0  0  0  0  0  0  0
   20.5654  -15.4093  -15.8971 C   0  0  0  0  0  0  0  0  0  0  0  0
   21.7038  -16.3596  -15.9746 C   0  0  0  0  0  0  0  0  0  0  0  0
   21.3037  -17.8028  -15.7747 C   0  0  2  0  0  0  0  0  0  0  0  0
   22.4640  -18.6687  -15.8461 N   0  0  0  0  0  0  0  0  0  0  0  0
   20.2864  -18.2822  -16.6976 C   0  0  0  0  0  0  0  0  0  0  0  0
   19.5596  -17.4876  -17.3453 O   0  0  0  0  0  0  0  0  0  0  0  0
   20.0940  -19.6404  -16.8854 O   0  0  0  0  0  0  0  0  0  0  0  0
  2  1  1  6
  2  9  1  0
  3  2  1  0
  4  3  1  0
  4  5  2  0
  6  5  1  0
  7  6  1  0
  8  7  2  0
  8  4  1  0
  9 10  2  0
 11 12  1  0
 11  9  1  0
 12 15  1  0
 12 13  1  6
 14 13  1  0
 15 16  2  0
 18 17  1  0
 19 18  2  0
 20 18  1  0
 21 20  1  0
 22 21  1  0
 23 22  1  0
 24 23  1  6
 24 26  1  0
 25 15  1  0
 25 24  1  0
 26 27  2  0
 26 28  1  0
M  END
$$$$
