HCR.pdb
     RDKit          3D

 28 28  0  0  1  0  0  0  0  0999 V2000
   27.9216  -21.0584  -15.5542 N   0  0  0  0  0  0  0  0  0  0  0  0
   27.4239  -20.1866  -14.5306 C   0  0  1  0  0  0  0  0  0  0  0  0
   26.6917  -18.9882  -15.0790 C   0  0  0  0  0  0  0  0  0  0  0  0
   27.5361  -18.0989  -15.8735 C   0  0  0  0  0  0  0  0  0  0  0  0
   27.3954  -17.8175  -17.2170 C   0  0  0  0  0  0  0  0  0  0  0  0
   28.3739  -16.9544  -17.5559 N   0  0  0  0  0  0  0  0  0  0  0  0
   29.1206  -16.6825  -16.4863 C   0  0  0  0  0  0  0  0  0  0  0  0
   28.6002  -17.3870  -15.4634 N   0  0  0  0  0  0  0  0  0  0  0  0
   26.5161  -21.0051  -13.6673 C   0  0  0  0  0  0  0  0  0  0  0  0
   25.9336  -22.0175  -14.1333 O   0  0  0  0  0  0  0  0  0  0  0  0
   26.2702  -20.6874  -12.3042 N   0  0  0  0  0  0  0  0  0  0  0  0
   25.1940  -21.3131  -11.5449 C   0  0  1  0  0  0  0  0  0  0  0  0
   25.5072  -21.1543  -10.0667 C   0  0  0  0  0  0  0  0  0  0  0  0
   25.9298  -19.4176   -9.7390 S   0  0  0  0  0  0  0  0  0  0  0  0
   23.8962  -20.7066  -11.8896 C   0  0  0  0  0  0  0  0  0  0  0  0
   23.8335  -19.4717  -12.0887 O   0  0  0  0  0  0  0  0  0  0  0  0
   18.8873  -25.6946  -16.1112 N   0  0  0  0  0  0  0  0  0  0  0  0
   18.0617  -24.9331  -15.2529 C   0  0  0  0  0  0  0  0  0  0  0  0
   16.7924  -24.9798  -15.4178 N   0  0  0  0  0  0  0  0  0  0  0  0
   18.6597  -24.1343  -14.2286 N   0  0  0  0  0  0  0  0  0  0  0  0
   20.1036  -24.1419  -14.1047 C   0  0  0  0  0  0  0  0  0  0  0  0
   20.5493  -23.2329  -12.9823 C   0  0  0  0  0  0  0  0  0  0  0  0
   20.7836  -21.8322  -13.4163 C   0  0  0  0  0  0  0  0  0  0  0  0
   21.4272  -20.9688  -12.3566 C   0  0  2  0  0  0  0  0  0  0  0  0
   22.7322  -21.4883  -11.9982 N   0  0  0  0  0  0  0  0  0  0  0  0
   20.6302  -20.7938  -11.1521 C   0  0  0  0  0  0  0  0  0  0  0  0
   20.9672  -21.3152  -10.0596 O   0  0  0  0  0  0  0  0  0  0  0  0
   19.4691  -20.0403  -11.1829 O   0  0  0  0  0  0  0  0  0  0  0  0
  2  1  1  6
  2  9  1  0
  3  2  1  0
  4  3  1  0
  4  5  2  0
  6  5  1  0
  7  6  1  0
  8  7  2  0
  8  4  1  0
  9 10  2  0
 11 12  1  0
 11  9  1  0
 12 15  1  0
 12 13  1  1
 14 13  1  0
 15 16  2  0
 18 17  1  0
 19 18  2  0
 20 18  1  0
 21 20  1  0
 22 21  1  0
 23 22  1  0
 24 23  1  6
 24 26  1  0
 25 15  1  0
 25 24  1  0
 26 27  2  0
 26 28  1  0
M  END
$$$$
