HCR.pdb
     RDKit          3D

 28 28  0  0  1  0  0  0  0  0999 V2000
   26.3092  -17.7863  -16.7916 N   0  0  0  0  0  0  0  0  0  0  0  0
   25.5406  -17.8049  -15.5815 C   0  0  1  0  0  0  0  0  0  0  0  0
   24.2961  -16.9573  -15.6583 C   0  0  0  0  0  0  0  0  0  0  0  0
   24.5658  -15.5407  -15.8943 C   0  0  0  0  0  0  0  0  0  0  0  0
   24.0628  -14.7698  -16.9223 C   0  0  0  0  0  0  0  0  0  0  0  0
   24.5552  -13.5237  -16.7741 N   0  0  0  0  0  0  0  0  0  0  0  0
   25.3432  -13.4790  -15.7006 C   0  0  0  0  0  0  0  0  0  0  0  0
   25.3429  -14.7168  -15.1701 N   0  0  0  0  0  0  0  0  0  0  0  0
   25.1853  -19.2338  -15.3151 C   0  0  0  0  0  0  0  0  0  0  0  0
   25.8130  -20.1641  -15.8827 O   0  0  0  0  0  0  0  0  0  0  0  0
   24.1417  -19.6063  -14.4253 N   0  0  0  0  0  0  0  0  0  0  0  0
   24.0258  -20.9576  -13.8898 C   0  0  1  0  0  0  0  0  0  0  0  0
   25.3332  -21.3027  -13.1968 C   0  0  0  0  0  0  0  0  0  0  0  0
   25.2441  -23.0144  -12.5932 S   0  0  0  0  0  0  0  0  0  0  0  0
   22.8833  -21.0519  -12.9642 C   0  0  0  0  0  0  0  0  0  0  0  0
   22.8034  -20.2453  -12.0095 O   0  0  0  0  0  0  0  0  0  0  0  0
   16.3177  -17.1735  -12.8396 N   0  0  0  0  0  0  0  0  0  0  0  0
   17.6822  -16.8665  -13.0451 C   0  0  0  0  0  0  0  0  0  0  0  0
   18.0942  -15.6830  -12.7802 N   0  0  0  0  0  0  0  0  0  0  0  0
   18.5634  -17.8780  -13.5405 N   0  0  0  0  0  0  0  0  0  0  0  0
   17.9884  -19.1240  -14.0062 C   0  0  0  0  0  0  0  0  0  0  0  0
   18.5376  -20.2933  -13.2214 C   0  0  0  0  0  0  0  0  0  0  0  0
   19.9586  -20.5947  -13.5302 C   0  0  0  0  0  0  0  0  0  0  0  0
   20.4826  -21.8275  -12.8314 C   0  0  2  0  0  0  0  0  0  0  0  0
   21.8858  -22.0284  -13.1347 N   0  0  0  0  0  0  0  0  0  0  0  0
   19.7463  -23.0478  -13.1237 C   0  0  0  0  0  0  0  0  0  0  0  0
   20.0754  -23.8026  -14.0730 O   0  0  0  0  0  0  0  0  0  0  0  0
   18.6538  -23.4091  -12.3537 O   0  0  0  0  0  0  0  0  0  0  0  0
  2  1  1  6
  2  9  1  0
  3  2  1  0
  4  3  1  0
  4  5  2  0
  6  5  1  0
  7  6  1  0
  8  7  2  0
  8  4  1  0
  9 10  2  0
 11 12  1  0
 11  9  1  0
 12 15  1  0
 12 13  1  1
 14 13  1  0
 15 16  2  0
 18 17  1  0
 19 18  2  0
 20 18  1  0
 21 20  1  0
 22 21  1  0
 23 22  1  0
 24 23  1  6
 24 26  1  0
 25 15  1  0
 25 24  1  0
 26 27  2  0
 26 28  1  0
M  END
$$$$
