HCR.pdb
     RDKit          3D

 28 28  0  0  1  0  0  0  0  0999 V2000
   24.5847  -13.4019  -16.2085 N   0  0  0  0  0  0  0  0  0  0  0  0
   23.3237  -12.7896  -16.5090 C   0  0  1  0  0  0  0  0  0  0  0  0
   22.1472  -13.6893  -16.2269 C   0  0  0  0  0  0  0  0  0  0  0  0
   22.0860  -14.8631  -17.0949 C   0  0  0  0  0  0  0  0  0  0  0  0
   22.9714  -15.1851  -18.1030 C   0  0  0  0  0  0  0  0  0  0  0  0
   22.5559  -16.3431  -18.6541 N   0  0  0  0  0  0  0  0  0  0  0  0
   21.4511  -16.7608  -18.0373 C   0  0  0  0  0  0  0  0  0  0  0  0
   21.1724  -15.8492  -17.0861 N   0  0  0  0  0  0  0  0  0  0  0  0
   23.2393  -11.5433  -15.6852 C   0  0  0  0  0  0  0  0  0  0  0  0
   23.8790  -11.4464  -14.6068 O   0  0  0  0  0  0  0  0  0  0  0  0
   22.4482  -10.4274  -16.0706 N   0  0  0  0  0  0  0  0  0  0  0  0
   22.4060   -9.1995  -15.2851 C   0  0  1  0  0  0  0  0  0  0  0  0
   23.8035   -8.6036  -15.2682 C   0  0  0  0  0  0  0  0  0  0  0  0
   24.3187   -8.2656  -16.9777 S   0  0  0  0  0  0  0  0  0  0  0  0
   21.4243   -8.2569  -15.8495 C   0  0  0  0  0  0  0  0  0  0  0  0
   21.3324   -8.1437  -17.0934 O   0  0  0  0  0  0  0  0  0  0  0  0
   13.2159   -6.5042  -13.5588 N   0  0  0  0  0  0  0  0  0  0  0  0
   13.4353   -5.6386  -14.6546 C   0  0  0  0  0  0  0  0  0  0  0  0
   12.4379   -5.0044  -15.1482 N   0  0  0  0  0  0  0  0  0  0  0  0
   14.7565   -5.4931  -15.1820 N   0  0  0  0  0  0  0  0  0  0  0  0
   15.8163   -6.3042  -14.6171 C   0  0  0  0  0  0  0  0  0  0  0  0
   17.1410   -5.9855  -15.2715 C   0  0  0  0  0  0  0  0  0  0  0  0
   18.2558   -6.8418  -14.7926 C   0  0  0  0  0  0  0  0  0  0  0  0
   19.5664   -6.5815  -15.4978 C   0  0  2  0  0  0  0  0  0  0  0  0
   20.5926   -7.4859  -15.0179 N   0  0  0  0  0  0  0  0  0  0  0  0
   20.0456   -5.2114  -15.3979 C   0  0  0  0  0  0  0  0  0  0  0  0
   20.9946   -4.9011  -14.6348 O   0  0  0  0  0  0  0  0  0  0  0  0
   19.4602   -4.2072  -16.1500 O   0  0  0  0  0  0  0  0  0  0  0  0
  2  1  1  1
  2  9  1  0
  3  2  1  0
  4  3  1  0
  4  5  2  0
  6  5  1  0
  7  6  1  0
  8  7  2  0
  8  4  1  0
  9 10  2  0
 11 12  1  0
 11  9  1  0
 12 15  1  0
 12 13  1  6
 14 13  1  0
 15 16  2  0
 18 17  1  0
 19 18  2  0
 20 18  1  0
 21 20  1  0
 22 21  1  0
 23 22  1  0
 24 23  1  1
 24 26  1  0
 25 15  1  0
 25 24  1  0
 26 27  2  0
 26 28  1  0
M  END
$$$$
