HCR.pdb
     RDKit          3D

 28 28  0  0  1  0  0  0  0  0999 V2000
   17.1539  -18.0213  -16.2779 N   0  0  0  0  0  0  0  0  0  0  0  0
   18.0324  -17.0137  -16.7961 C   0  0  1  0  0  0  0  0  0  0  0  0
   18.5833  -17.3531  -18.1578 C   0  0  0  0  0  0  0  0  0  0  0  0
   19.4010  -18.5639  -18.1738 C   0  0  0  0  0  0  0  0  0  0  0  0
   20.7582  -18.6407  -17.9365 C   0  0  0  0  0  0  0  0  0  0  0  0
   21.1172  -19.9354  -18.0462 N   0  0  0  0  0  0  0  0  0  0  0  0
   20.0473  -20.6727  -18.3413 C   0  0  0  0  0  0  0  0  0  0  0  0
   19.0036  -19.8249  -18.4170 N   0  0  0  0  0  0  0  0  0  0  0  0
   17.2478  -15.7407  -16.8510 C   0  0  0  0  0  0  0  0  0  0  0  0
   16.0445  -15.7477  -17.2160 O   0  0  0  0  0  0  0  0  0  0  0  0
   17.8103  -14.4835  -16.5006 N   0  0  0  0  0  0  0  0  0  0  0  0
   17.0139  -13.2626  -16.4611 C   0  0  1  0  0  0  0  0  0  0  0  0
   15.9000  -13.4602  -15.4468 C   0  0  0  0  0  0  0  0  0  0  0  0
   16.6295  -13.9891  -13.8687 S   0  0  0  0  0  0  0  0  0  0  0  0
   17.8575  -12.1046  -16.1172 C   0  0  0  0  0  0  0  0  0  0  0  0
   18.7478  -12.2355  -15.2463 O   0  0  0  0  0  0  0  0  0  0  0  0
   17.3084   -4.2429  -19.7616 N   0  0  0  0  0  0  0  0  0  0  0  0
   16.4601   -4.8305  -18.7954 C   0  0  0  0  0  0  0  0  0  0  0  0
   15.2292   -4.4781  -18.7604 N   0  0  0  0  0  0  0  0  0  0  0  0
   16.9935   -5.7972  -17.8866 N   0  0  0  0  0  0  0  0  0  0  0  0
   18.3990   -6.1354  -17.9881 C   0  0  0  0  0  0  0  0  0  0  0  0
   18.7504   -7.2545  -17.0348 C   0  0  0  0  0  0  0  0  0  0  0  0
   18.0805   -8.5389  -17.3617 C   0  0  0  0  0  0  0  0  0  0  0  0
   18.3864   -9.6485  -16.3830 C   0  0  2  0  0  0  0  0  0  0  0  0
   17.6799  -10.8604  -16.7483 N   0  0  0  0  0  0  0  0  0  0  0  0
   18.1025   -9.3250  -14.9932 C   0  0  0  0  0  0  0  0  0  0  0  0
   18.9500   -8.7484  -14.2663 O   0  0  0  0  0  0  0  0  0  0  0  0
   16.8781   -9.6488  -14.4338 O   0  0  0  0  0  0  0  0  0  0  0  0
  2  1  1  6
  2  9  1  0
  3  2  1  0
  4  3  1  0
  4  5  2  0
  6  5  1  0
  7  6  1  0
  8  7  2  0
  8  4  1  0
  9 10  2  0
 11 12  1  0
 11  9  1  0
 12 15  1  0
 12 13  1  1
 14 13  1  0
 15 16  2  0
 18 17  1  0
 19 18  2  0
 20 18  1  0
 21 20  1  0
 22 21  1  0
 23 22  1  0
 24 23  1  6
 24 26  1  0
 25 15  1  0
 25 24  1  0
 26 27  2  0
 26 28  1  0
M  END
$$$$
