HCR.pdb
     RDKit          3D

 28 28  0  0  1  0  0  0  0  0999 V2000
   20.2517  -23.4622  -14.5906 N   0  0  0  0  0  0  0  0  0  0  0  0
   19.3345  -24.5159  -14.2684 C   0  0  1  0  0  0  0  0  0  0  0  0
   19.2976  -25.6065  -15.3087 C   0  0  0  0  0  0  0  0  0  0  0  0
   18.6724  -25.1974  -16.5644 C   0  0  0  0  0  0  0  0  0  0  0  0
   19.3110  -24.9913  -17.7700 C   0  0  0  0  0  0  0  0  0  0  0  0
   18.3748  -24.6263  -18.6686 N   0  0  0  0  0  0  0  0  0  0  0  0
   17.1794  -24.5945  -18.0809 C   0  0  0  0  0  0  0  0  0  0  0  0
   17.3722  -24.9451  -16.7951 N   0  0  0  0  0  0  0  0  0  0  0  0
   19.7577  -25.0694  -12.9441 C   0  0  0  0  0  0  0  0  0  0  0  0
   20.9754  -25.1255  -12.6354 O   0  0  0  0  0  0  0  0  0  0  0  0
   18.8246  -25.5505  -11.9862 N   0  0  0  0  0  0  0  0  0  0  0  0
   19.2418  -26.0492  -10.6810 C   0  0  1  0  0  0  0  0  0  0  0  0
   18.2256  -25.5825   -9.6524 C   0  0  0  0  0  0  0  0  0  0  0  0
   18.5454  -23.8372   -9.2605 S   0  0  0  0  0  0  0  0  0  0  0  0
   19.3551  -27.5181  -10.6996 C   0  0  0  0  0  0  0  0  0  0  0  0
   18.4374  -28.1943  -11.2182 O   0  0  0  0  0  0  0  0  0  0  0  0
   26.1735  -32.8656   -8.4075 N   0  0  0  0  0  0  0  0  0  0  0  0
   25.2410  -33.7215   -9.0371 C   0  0  0  0  0  0  0  0  0  0  0  0
   25.5605  -34.9472   -9.2273 N   0  0  0  0  0  0  0  0  0  0  0  0
   23.9725  -33.2015   -9.4437 N   0  0  0  0  0  0  0  0  0  0  0  0
   23.7303  -31.7807   -9.2920 C   0  0  0  0  0  0  0  0  0  0  0  0
   22.3294  -31.4262   -9.7351 C   0  0  0  0  0  0  0  0  0  0  0  0
   22.0561  -29.9668   -9.7130 C   0  0  0  0  0  0  0  0  0  0  0  0
   20.6404  -29.6091  -10.1007 C   0  0  2  0  0  0  0  0  0  0  0  0
   20.4719  -28.1700  -10.1470 N   0  0  0  0  0  0  0  0  0  0  0  0
   19.6144  -30.1876   -9.2466 C   0  0  0  0  0  0  0  0  0  0  0  0
   19.2675  -29.6378   -8.1713 O   0  0  0  0  0  0  0  0  0  0  0  0
   18.9900  -31.3707   -9.6036 O   0  0  0  0  0  0  0  0  0  0  0  0
  2  1  1  6
  2  9  1  0
  3  2  1  0
  4  3  1  0
  4  5  2  0
  6  5  1  0
  7  6  1  0
  8  7  2  0
  8  4  1  0
  9 10  2  0
 11 12  1  0
 11  9  1  0
 12 15  1  0
 12 13  1  1
 14 13  1  0
 15 16  2  0
 18 17  1  0
 19 18  2  0
 20 18  1  0
 21 20  1  0
 22 21  1  0
 23 22  1  0
 24 23  1  1
 24 26  1  0
 25 15  1  0
 25 24  1  0
 26 27  2  0
 26 28  1  0
M  END
$$$$
