HCR.pdb
     RDKit          3D

 28 28  0  0  1  0  0  0  0  0999 V2000
   25.7935  -21.3418   -9.2627 N   0  0  0  0  0  0  0  0  0  0  0  0
   25.1823  -21.0684  -10.5304 C   0  0  1  0  0  0  0  0  0  0  0  0
   23.8732  -20.3305  -10.4089 C   0  0  0  0  0  0  0  0  0  0  0  0
   22.8218  -21.1066   -9.7552 C   0  0  0  0  0  0  0  0  0  0  0  0
   22.5939  -21.1991   -8.3975 C   0  0  0  0  0  0  0  0  0  0  0  0
   21.5325  -22.0106   -8.2180 N   0  0  0  0  0  0  0  0  0  0  0  0
   21.0856  -22.4304   -9.4009 C   0  0  0  0  0  0  0  0  0  0  0  0
   21.8803  -21.8722  -10.3338 N   0  0  0  0  0  0  0  0  0  0  0  0
   26.1654  -20.2641  -11.3215 C   0  0  0  0  0  0  0  0  0  0  0  0
   26.6197  -19.1838  -10.8658 O   0  0  0  0  0  0  0  0  0  0  0  0
   26.6270  -20.6711  -12.6025 N   0  0  0  0  0  0  0  0  0  0  0  0
   27.5337  -19.8497  -13.3960 C   0  0  1  0  0  0  0  0  0  0  0  0
   28.8093  -20.6431  -13.6242 C   0  0  0  0  0  0  0  0  0  0  0  0
   29.6070  -20.9468  -12.0199 S   0  0  0  0  0  0  0  0  0  0  0  0
   26.9027  -19.4645  -14.6705 C   0  0  0  0  0  0  0  0  0  0  0  0
   26.1075  -20.2592  -15.2223 O   0  0  0  0  0  0  0  0  0  0  0  0
   22.0413  -12.9776  -16.9298 N   0  0  0  0  0  0  0  0  0  0  0  0
   21.8486  -14.2774  -16.4084 C   0  0  0  0  0  0  0  0  0  0  0  0
   20.7437  -14.5475  -15.8197 N   0  0  0  0  0  0  0  0  0  0  0  0
   22.8851  -15.2523  -16.5499 N   0  0  0  0  0  0  0  0  0  0  0  0
   24.1217  -14.8541  -17.1922 C   0  0  0  0  0  0  0  0  0  0  0  0
   24.9972  -16.0568  -17.4601 C   0  0  0  0  0  0  0  0  0  0  0  0
   25.6360  -16.6047  -16.2366 C   0  0  0  0  0  0  0  0  0  0  0  0
   26.5702  -17.7611  -16.5064 C   0  0  2  0  0  0  0  0  0  0  0  0
   27.1776  -18.2246  -15.2745 N   0  0  0  0  0  0  0  0  0  0  0  0
   27.6120  -17.4824  -17.4829 C   0  0  0  0  0  0  0  0  0  0  0  0
   27.4075  -17.6089  -18.7163 O   0  0  0  0  0  0  0  0  0  0  0  0
   28.8666  -17.0668  -17.0705 O   0  0  0  0  0  0  0  0  0  0  0  0
  2  1  1  1
  2  9  1  0
  3  2  1  0
  4  3  1  0
  4  5  2  0
  6  5  1  0
  7  6  1  0
  8  7  2  0
  8  4  1  0
  9 10  2  0
 11 12  1  0
 11  9  1  0
 12 15  1  0
 12 13  1  6
 14 13  1  0
 15 16  2  0
 18 17  1  0
 19 18  2  0
 20 18  1  0
 21 20  1  0
 22 21  1  0
 23 22  1  0
 24 23  1  1
 24 26  1  0
 25 15  1  0
 25 24  1  0
 26 27  2  0
 26 28  1  0
M  END
$$$$
