FGC.pdb
     RDKit          3D

 22 22  0  0  1  0  0  0  0  0999 V2000
    8.5858  -15.1791   25.9516 N   0  0  0  0  0  0  0  0  0  0  0  0
    7.9388  -15.6708   24.7346 C   0  0  1  0  0  0  0  0  0  0  0  0
    7.0661  -14.6086   24.1188 C   0  0  0  0  0  0  0  0  0  0  0  0
    6.7092  -13.5410   25.0722 C   0  0  0  0  0  0  0  0  0  0  0  0
    7.2937  -12.3079   24.9047 C   0  0  0  0  0  0  0  0  0  0  0  0
    6.9914  -11.2764   25.7717 C   0  0  0  0  0  0  0  0  0  0  0  0
    6.1002  -11.4882   26.8070 C   0  0  0  0  0  0  0  0  0  0  0  0
    5.5056  -12.7397   26.9787 C   0  0  0  0  0  0  0  0  0  0  0  0
    5.8255  -13.7578   26.0956 C   0  0  0  0  0  0  0  0  0  0  0  0
    8.9617  -16.0521   23.7256 C   0  0  0  0  0  0  0  0  0  0  0  0
    8.6953  -16.8487   22.7785 O   0  0  0  0  0  0  0  0  0  0  0  0
   10.2580  -15.5020   23.8425 N   0  0  0  0  0  0  0  0  0  0  0  0
   11.4440  -16.2862   23.6128 C   0  0  0  0  0  0  0  0  0  0  0  0
   11.9810  -16.6693   24.9617 C   0  0  0  0  0  0  0  0  0  0  0  0
   12.9991  -17.4287   25.0865 O   0  0  0  0  0  0  0  0  0  0  0  0
   11.3473  -16.1801   26.1119 N   0  0  0  0  0  0  0  0  0  0  0  0
   11.9897  -16.3366   27.3982 C   0  0  1  0  0  0  0  0  0  0  0  0
   11.9006  -15.0103   28.1601 C   0  0  0  0  0  0  0  0  0  0  0  0
   10.2058  -14.3785   28.0418 S   0  0  0  0  0  0  0  0  0  0  0  0
   11.2928  -17.4132   28.1335 C   0  0  0  0  0  0  0  0  0  0  0  0
   11.7872  -17.8009   29.3590 O   0  0  0  0  0  0  0  0  0  0  0  0
   10.2627  -17.9977   27.6922 O   0  0  0  0  0  0  0  0  0  0  0  0
  2 10  1  0
  2  1  1  1
  3  4  1  0
  3  2  1  0
  4  9  2  0
  4  5  1  0
  5  6  2  0
  6  7  1  0
  8  7  2  0
  9  8  1  0
 10 11  2  0
 12 10  1  0
 12 13  1  0
 13 14  1  0
 14 16  1  0
 14 15  2  0
 16 17  1  0
 17 20  1  0
 17 18  1  1
 19 18  1  0
 20 21  1  0
 22 20  2  0
M  END
$$$$
