FGC.pdb
     RDKit          3D

 22 22  0  0  1  0  0  0  0  0999 V2000
    6.2353  -16.5241   25.1742 N   0  0  0  0  0  0  0  0  0  0  0  0
    7.4918  -15.8836   24.7838 C   0  0  1  0  0  0  0  0  0  0  0  0
    7.8328  -14.7494   25.7144 C   0  0  0  0  0  0  0  0  0  0  0  0
    6.9021  -13.6116   25.5911 C   0  0  0  0  0  0  0  0  0  0  0  0
    5.8492  -13.5439   26.4726 C   0  0  0  0  0  0  0  0  0  0  0  0
    4.9509  -12.4977   26.3971 C   0  0  0  0  0  0  0  0  0  0  0  0
    5.1142  -11.5204   25.4333 C   0  0  0  0  0  0  0  0  0  0  0  0
    6.1827  -11.5874   24.5372 C   0  0  0  0  0  0  0  0  0  0  0  0
    7.0698  -12.6468   24.6338 C   0  0  0  0  0  0  0  0  0  0  0  0
    8.6087  -16.8629   24.8413 C   0  0  0  0  0  0  0  0  0  0  0  0
    8.5573  -17.8856   25.5857 O   0  0  0  0  0  0  0  0  0  0  0  0
    9.7479  -16.6302   24.0382 N   0  0  0  0  0  0  0  0  0  0  0  0
   10.8905  -17.5068   24.0612 C   0  0  0  0  0  0  0  0  0  0  0  0
   11.7725  -17.0432   25.1845 C   0  0  0  0  0  0  0  0  0  0  0  0
   13.0452  -17.0829   25.0971 O   0  0  0  0  0  0  0  0  0  0  0  0
   11.1824  -16.5547   26.3579 N   0  0  0  0  0  0  0  0  0  0  0  0
   12.0106  -16.2932   27.5144 C   0  0  1  0  0  0  0  0  0  0  0  0
   11.6412  -14.9211   28.0872 C   0  0  0  0  0  0  0  0  0  0  0  0
    9.8357  -14.7922   28.1834 S   0  0  0  0  0  0  0  0  0  0  0  0
   11.7660  -17.3608   28.5073 C   0  0  0  0  0  0  0  0  0  0  0  0
   12.5070  -17.3632   29.6680 O   0  0  0  0  0  0  0  0  0  0  0  0
   10.9080  -18.2744   28.3437 O   0  0  0  0  0  0  0  0  0  0  0  0
  2 10  1  0
  2  1  1  1
  3  4  1  0
  3  2  1  0
  4  9  2  0
  4  5  1  0
  5  6  2  0
  6  7  1  0
  8  7  2  0
  9  8  1  0
 10 11  2  0
 12 10  1  0
 12 13  1  0
 13 14  1  0
 14 16  1  0
 14 15  2  0
 16 17  1  0
 17 20  1  0
 17 18  1  1
 19 18  1  0
 20 21  1  0
 22 20  2  0
M  END
$$$$
