FGC.pdb
     RDKit          3D

 22 22  0  0  1  0  0  0  0  0999 V2000
    6.9940  -16.5503   26.1301 N   0  0  0  0  0  0  0  0  0  0  0  0
    6.5962  -16.2237   24.7602 C   0  0  1  0  0  0  0  0  0  0  0  0
    7.2085  -14.9214   24.3149 C   0  0  0  0  0  0  0  0  0  0  0  0
    7.1436  -13.8764   25.3541 C   0  0  0  0  0  0  0  0  0  0  0  0
    8.3139  -13.5208   25.9819 C   0  0  0  0  0  0  0  0  0  0  0  0
    8.3043  -12.5474   26.9616 C   0  0  0  0  0  0  0  0  0  0  0  0
    7.1154  -11.9331   27.3078 C   0  0  0  0  0  0  0  0  0  0  0  0
    5.9260  -12.2929   26.6714 C   0  0  0  0  0  0  0  0  0  0  0  0
    5.9623  -13.2719   25.6922 C   0  0  0  0  0  0  0  0  0  0  0  0
    7.0590  -17.2810   23.8235 C   0  0  0  0  0  0  0  0  0  0  0  0
    7.1395  -18.4935   24.1783 O   0  0  0  0  0  0  0  0  0  0  0  0
    7.4138  -16.9048   22.5084 N   0  0  0  0  0  0  0  0  0  0  0  0
    7.9122  -17.8572   21.5498 C   0  0  0  0  0  0  0  0  0  0  0  0
    9.3739  -18.0426   21.8394 C   0  0  0  0  0  0  0  0  0  0  0  0
   10.1349  -18.6983   21.0522 O   0  0  0  0  0  0  0  0  0  0  0  0
    9.9149  -17.4808   23.0037 N   0  0  0  0  0  0  0  0  0  0  0  0
   11.2912  -17.7564   23.3525 C   0  0  1  0  0  0  0  0  0  0  0  0
   11.8868  -16.5184   24.0307 C   0  0  0  0  0  0  0  0  0  0  0  0
   11.8408  -15.1314   22.8648 S   0  0  0  0  0  0  0  0  0  0  0  0
   11.3113  -18.9178   24.2668 C   0  0  0  0  0  0  0  0  0  0  0  0
   10.1187  -19.5322   24.5778 O   0  0  0  0  0  0  0  0  0  0  0  0
   12.3717  -19.3768   24.7791 O   0  0  0  0  0  0  0  0  0  0  0  0
  2 10  1  0
  2  1  1  1
  3  4  1  0
  3  2  1  0
  4  9  2  0
  4  5  1  0
  5  6  2  0
  6  7  1  0
  8  7  2  0
  9  8  1  0
 10 11  2  0
 12 10  1  0
 12 13  1  0
 13 14  1  0
 14 16  1  0
 14 15  2  0
 16 17  1  0
 17 20  1  0
 17 18  1  1
 19 18  1  0
 20 21  1  0
 22 20  2  0
M  END
$$$$
