FGC.pdb
     RDKit          3D

 22 22  0  0  1  0  0  0  0  0999 V2000
    6.9753  -16.0989   25.2071 N   0  0  0  0  0  0  0  0  0  0  0  0
    7.2055  -15.7422   23.8067 C   0  0  1  0  0  0  0  0  0  0  0  0
    6.7963  -14.3179   23.5368 C   0  0  0  0  0  0  0  0  0  0  0  0
    6.8345  -13.4750   24.7468 C   0  0  0  0  0  0  0  0  0  0  0  0
    7.9013  -12.6217   24.9023 C   0  0  0  0  0  0  0  0  0  0  0  0
    7.9819  -11.8125   26.0184 C   0  0  0  0  0  0  0  0  0  0  0  0
    6.9874  -11.8636   26.9772 C   0  0  0  0  0  0  0  0  0  0  0  0
    5.9033  -12.7294   26.8210 C   0  0  0  0  0  0  0  0  0  0  0  0
    5.8458  -13.5307   25.6927 C   0  0  0  0  0  0  0  0  0  0  0  0
    8.6492  -15.8653   23.4744 C   0  0  0  0  0  0  0  0  0  0  0  0
    9.1298  -15.3751   22.4109 O   0  0  0  0  0  0  0  0  0  0  0  0
    9.4907  -16.5499   24.3800 N   0  0  0  0  0  0  0  0  0  0  0  0
   10.9181  -16.6119   24.1984 C   0  0  0  0  0  0  0  0  0  0  0  0
   11.5399  -16.3419   25.5382 C   0  0  0  0  0  0  0  0  0  0  0  0
   12.7959  -16.1570   25.6689 O   0  0  0  0  0  0  0  0  0  0  0  0
   10.7194  -16.2919   26.6731 N   0  0  0  0  0  0  0  0  0  0  0  0
   11.3240  -16.1987   27.9837 C   0  0  1  0  0  0  0  0  0  0  0  0
   10.5520  -15.1666   28.8121 C   0  0  0  0  0  0  0  0  0  0  0  0
   10.1604  -13.7438   27.7598 S   0  0  0  0  0  0  0  0  0  0  0  0
   11.2618  -17.5335   28.6159 C   0  0  0  0  0  0  0  0  0  0  0  0
   10.6920  -17.6450   29.8647 O   0  0  0  0  0  0  0  0  0  0  0  0
   11.7068  -18.5809   28.0661 O   0  0  0  0  0  0  0  0  0  0  0  0
  2 10  1  0
  2  1  1  1
  3  4  1  0
  3  2  1  0
  4  9  2  0
  4  5  1  0
  5  6  2  0
  6  7  1  0
  8  7  2  0
  9  8  1  0
 10 11  2  0
 12 10  1  0
 12 13  1  0
 13 14  1  0
 14 16  1  0
 14 15  2  0
 16 17  1  0
 17 20  1  0
 17 18  1  1
 19 18  1  0
 20 21  1  0
 22 20  2  0
M  END
$$$$
