FGC.pdb
     RDKit          3D

 22 22  0  0  1  0  0  0  0  0999 V2000
    7.3263  -16.8795   25.9145 N   0  0  0  0  0  0  0  0  0  0  0  0
    7.0941  -16.8756   24.4696 C   0  0  1  0  0  0  0  0  0  0  0  0
    6.2842  -15.6751   24.0550 C   0  0  0  0  0  0  0  0  0  0  0  0
    6.5901  -14.4763   24.8582 C   0  0  0  0  0  0  0  0  0  0  0  0
    7.3787  -13.5049   24.2884 C   0  0  0  0  0  0  0  0  0  0  0  0
    7.6929  -12.3641   25.0006 C   0  0  0  0  0  0  0  0  0  0  0  0
    7.2121  -12.2030   26.2866 C   0  0  0  0  0  0  0  0  0  0  0  0
    6.4111  -13.1883   26.8669 C   0  0  0  0  0  0  0  0  0  0  0  0
    6.1104  -14.3231   26.1317 C   0  0  0  0  0  0  0  0  0  0  0  0
    8.3881  -16.8180   23.7402 C   0  0  0  0  0  0  0  0  0  0  0  0
    8.7020  -17.6876   22.8755 O   0  0  0  0  0  0  0  0  0  0  0  0
    9.2771  -15.7591   24.0323 N   0  0  0  0  0  0  0  0  0  0  0  0
   10.6712  -15.8116   23.6742 C   0  0  0  0  0  0  0  0  0  0  0  0
   11.4502  -15.8293   24.9577 C   0  0  0  0  0  0  0  0  0  0  0  0
   12.7180  -15.9759   24.9699 O   0  0  0  0  0  0  0  0  0  0  0  0
   10.7670  -15.6810   26.1722 N   0  0  0  0  0  0  0  0  0  0  0  0
   11.5133  -15.6739   27.4111 C   0  0  1  0  0  0  0  0  0  0  0  0
   11.3548  -14.3026   28.0759 C   0  0  0  0  0  0  0  0  0  0  0  0
    9.5895  -13.9092   28.1959 S   0  0  0  0  0  0  0  0  0  0  0  0
   10.9767  -16.7439   28.2786 C   0  0  0  0  0  0  0  0  0  0  0  0
    9.8602  -17.4331   27.8604 O   0  0  0  0  0  0  0  0  0  0  0  0
   11.4930  -17.0590   29.3884 O   0  0  0  0  0  0  0  0  0  0  0  0
  2 10  1  0
  2  1  1  1
  3  4  1  0
  3  2  1  0
  4  9  2  0
  4  5  1  0
  5  6  2  0
  6  7  1  0
  8  7  2  0
  9  8  1  0
 10 11  2  0
 12 10  1  0
 12 13  1  0
 13 14  1  0
 14 16  1  0
 14 15  2  0
 16 17  1  0
 17 20  1  0
 17 18  1  1
 19 18  1  0
 20 21  1  0
 22 20  2  0
M  END
$$$$
