FGC.pdb
     RDKit          3D

 22 22  0  0  1  0  0  0  0  0999 V2000
    7.5617  -15.4735   26.1448 N   0  0  0  0  0  0  0  0  0  0  0  0
    7.7033  -15.6054   24.6943 C   0  0  1  0  0  0  0  0  0  0  0  0
    7.2333  -14.3600   23.9893 C   0  0  0  0  0  0  0  0  0  0  0  0
    6.8542  -13.2843   24.9247 C   0  0  0  0  0  0  0  0  0  0  0  0
    5.7643  -13.4929   25.7365 C   0  0  0  0  0  0  0  0  0  0  0  0
    5.3702  -12.5154   26.6289 C   0  0  0  0  0  0  0  0  0  0  0  0
    6.0746  -11.3282   26.7026 C   0  0  0  0  0  0  0  0  0  0  0  0
    7.1816  -11.1146   25.8791 C   0  0  0  0  0  0  0  0  0  0  0  0
    7.5565  -12.1107   24.9926 C   0  0  0  0  0  0  0  0  0  0  0  0
    9.1300  -15.8147   24.3330 C   0  0  0  0  0  0  0  0  0  0  0  0
    9.9014  -14.8422   24.0847 O   0  0  0  0  0  0  0  0  0  0  0  0
    9.6196  -17.1387   24.2702 N   0  0  0  0  0  0  0  0  0  0  0  0
   11.0239  -17.4280   24.1335 C   0  0  0  0  0  0  0  0  0  0  0  0
   11.6594  -17.1403   25.4631 C   0  0  0  0  0  0  0  0  0  0  0  0
   12.9167  -17.2622   25.6451 O   0  0  0  0  0  0  0  0  0  0  0  0
   10.8505  -16.7275   26.5305 N   0  0  0  0  0  0  0  0  0  0  0  0
   11.4107  -16.6607   27.8622 C   0  0  1  0  0  0  0  0  0  0  0  0
   10.7824  -15.4765   28.6041 C   0  0  0  0  0  0  0  0  0  0  0  0
   10.9138  -13.9970   27.5653 S   0  0  0  0  0  0  0  0  0  0  0  0
   11.1106  -17.9329   28.5528 C   0  0  0  0  0  0  0  0  0  0  0  0
   11.6074  -18.1264   29.8225 O   0  0  0  0  0  0  0  0  0  0  0  0
   10.4187  -18.8549   28.0345 O   0  0  0  0  0  0  0  0  0  0  0  0
  2 10  1  0
  2  1  1  1
  3  4  1  0
  3  2  1  0
  4  9  2  0
  4  5  1  0
  5  6  2  0
  6  7  1  0
  8  7  2  0
  9  8  1  0
 10 11  2  0
 12 10  1  0
 12 13  1  0
 13 14  1  0
 14 16  1  0
 14 15  2  0
 16 17  1  0
 17 20  1  0
 17 18  1  1
 19 18  1  0
 20 21  1  0
 22 20  2  0
M  END
$$$$
