FGC.pdb
     RDKit          3D

 22 22  0  0  1  0  0  0  0  0999 V2000
    8.3258  -17.0923   27.2053 N   0  0  0  0  0  0  0  0  0  0  0  0
    7.5506  -16.4482   26.1444 C   0  0  1  0  0  0  0  0  0  0  0  0
    8.2295  -15.1920   25.6648 C   0  0  0  0  0  0  0  0  0  0  0  0
    7.6278  -13.9685   26.2278 C   0  0  0  0  0  0  0  0  0  0  0  0
    8.4284  -13.1501   26.9891 C   0  0  0  0  0  0  0  0  0  0  0  0
    7.9108  -11.9934   27.5379 C   0  0  0  0  0  0  0  0  0  0  0  0
    6.5867  -11.6620   27.3192 C   0  0  0  0  0  0  0  0  0  0  0  0
    5.7721  -12.4918   26.5464 C   0  0  0  0  0  0  0  0  0  0  0  0
    6.3152  -13.6463   26.0071 C   0  0  0  0  0  0  0  0  0  0  0  0
    7.4172  -17.3599   24.9779 C   0  0  0  0  0  0  0  0  0  0  0  0
    8.2484  -18.2905   24.7642 O   0  0  0  0  0  0  0  0  0  0  0  0
    6.3295  -17.1680   24.0965 N   0  0  0  0  0  0  0  0  0  0  0  0
    6.1629  -17.9603   22.9053 C   0  0  0  0  0  0  0  0  0  0  0  0
    7.1308  -17.4273   21.8886 C   0  0  0  0  0  0  0  0  0  0  0  0
    7.2766  -17.9806   20.7478 O   0  0  0  0  0  0  0  0  0  0  0  0
    7.8928  -16.2935   22.2013 N   0  0  0  0  0  0  0  0  0  0  0  0
    8.8337  -15.7797   21.2306 C   0  0  1  0  0  0  0  0  0  0  0  0
    8.4845  -14.3188   20.9286 C   0  0  0  0  0  0  0  0  0  0  0  0
    6.7289  -14.2138   20.4900 S   0  0  0  0  0  0  0  0  0  0  0  0
   10.1922  -15.8881   21.8033 C   0  0  0  0  0  0  0  0  0  0  0  0
   11.2677  -15.5326   21.0201 O   0  0  0  0  0  0  0  0  0  0  0  0
   10.4168  -16.2920   22.9797 O   0  0  0  0  0  0  0  0  0  0  0  0
  2 10  1  0
  2  1  1  1
  3  4  1  0
  3  2  1  0
  4  9  2  0
  4  5  1  0
  5  6  2  0
  6  7  1  0
  8  7  2  0
  9  8  1  0
 10 11  2  0
 12 10  1  0
 12 13  1  0
 13 14  1  0
 14 16  1  0
 14 15  2  0
 16 17  1  0
 17 20  1  0
 17 18  1  1
 19 18  1  0
 20 21  1  0
 22 20  2  0
M  END
$$$$
