FGC.pdb
     RDKit          3D

 22 22  0  0  1  0  0  0  0  0999 V2000
    6.1462  -16.9829   24.7109 N   0  0  0  0  0  0  0  0  0  0  0  0
    7.2826  -16.0672   24.6045 C   0  0  1  0  0  0  0  0  0  0  0  0
    7.5883  -15.4275   25.9335 C   0  0  0  0  0  0  0  0  0  0  0  0
    7.0872  -14.0433   26.0284 C   0  0  0  0  0  0  0  0  0  0  0  0
    7.8809  -13.0369   25.5312 C   0  0  0  0  0  0  0  0  0  0  0  0
    7.4553  -11.7247   25.5970 C   0  0  0  0  0  0  0  0  0  0  0  0
    6.2300  -11.4277   26.1639 C   0  0  0  0  0  0  0  0  0  0  0  0
    5.4226  -12.4484   26.6693 C   0  0  0  0  0  0  0  0  0  0  0  0
    5.8723  -13.7562   26.5913 C   0  0  0  0  0  0  0  0  0  0  0  0
    8.4987  -16.8037   24.1703 C   0  0  0  0  0  0  0  0  0  0  0  0
    8.6774  -18.0219   24.4645 O   0  0  0  0  0  0  0  0  0  0  0  0
    9.4684  -16.1107   23.4112 N   0  0  0  0  0  0  0  0  0  0  0  0
   10.7142  -16.7208   23.0239 C   0  0  0  0  0  0  0  0  0  0  0  0
   11.7128  -16.3903   24.0955 C   0  0  0  0  0  0  0  0  0  0  0  0
   12.9687  -16.5047   23.8992 O   0  0  0  0  0  0  0  0  0  0  0  0
   11.2530  -15.9452   25.3422 N   0  0  0  0  0  0  0  0  0  0  0  0
   12.2055  -15.6812   26.3980 C   0  0  1  0  0  0  0  0  0  0  0  0
   11.6851  -14.5228   27.2552 C   0  0  0  0  0  0  0  0  0  0  0  0
   10.0137  -14.9235   27.8308 S   0  0  0  0  0  0  0  0  0  0  0  0
   12.3496  -16.9103   27.2067 C   0  0  0  0  0  0  0  0  0  0  0  0
   13.3078  -16.9399   28.1953 O   0  0  0  0  0  0  0  0  0  0  0  0
   11.6351  -17.9388   27.0355 O   0  0  0  0  0  0  0  0  0  0  0  0
  2 10  1  0
  2  1  1  1
  3  4  1  0
  3  2  1  0
  4  9  2  0
  4  5  1  0
  5  6  2  0
  6  7  1  0
  8  7  2  0
  9  8  1  0
 10 11  2  0
 12 10  1  0
 12 13  1  0
 13 14  1  0
 14 16  1  0
 14 15  2  0
 16 17  1  0
 17 20  1  0
 17 18  1  1
 19 18  1  0
 20 21  1  0
 22 20  2  0
M  END
$$$$
