FGC.pdb
     RDKit          3D

 22 22  0  0  1  0  0  0  0  0999 V2000
    8.9422  -15.1398   25.6284 N   0  0  0  0  0  0  0  0  0  0  0  0
    8.0598  -15.7129   24.6114 C   0  0  1  0  0  0  0  0  0  0  0  0
    7.2310  -14.6434   23.9494 C   0  0  0  0  0  0  0  0  0  0  0  0
    6.8681  -13.5511   24.8719 C   0  0  0  0  0  0  0  0  0  0  0  0
    5.8432  -13.7743   25.7608 C   0  0  0  0  0  0  0  0  0  0  0  0
    5.4667  -12.7822   26.6446 C   0  0  0  0  0  0  0  0  0  0  0  0
    6.1232  -11.5657   26.6321 C   0  0  0  0  0  0  0  0  0  0  0  0
    7.1641  -11.3372   25.7302 C   0  0  0  0  0  0  0  0  0  0  0  0
    7.5227  -12.3484   24.8540 C   0  0  0  0  0  0  0  0  0  0  0  0
    8.8606  -16.3806   23.5518 C   0  0  0  0  0  0  0  0  0  0  0  0
    8.3655  -17.2832   22.8151 O   0  0  0  0  0  0  0  0  0  0  0  0
   10.2059  -15.9852   23.3771 N   0  0  0  0  0  0  0  0  0  0  0  0
   11.2986  -16.9137   23.5128 C   0  0  0  0  0  0  0  0  0  0  0  0
   11.9929  -16.5840   24.8027 C   0  0  0  0  0  0  0  0  0  0  0  0
   13.2575  -16.4217   24.8604 O   0  0  0  0  0  0  0  0  0  0  0  0
   11.2321  -16.4513   25.9720 N   0  0  0  0  0  0  0  0  0  0  0  0
   11.8969  -16.1608   27.2232 C   0  0  1  0  0  0  0  0  0  0  0  0
   11.7578  -14.6643   27.5212 C   0  0  0  0  0  0  0  0  0  0  0  0
   10.0348  -14.3109   27.9589 S   0  0  0  0  0  0  0  0  0  0  0  0
   11.2583  -16.9696   28.2831 C   0  0  0  0  0  0  0  0  0  0  0  0
   11.8413  -16.9997   29.5303 O   0  0  0  0  0  0  0  0  0  0  0  0
   10.2004  -17.6371   28.1013 O   0  0  0  0  0  0  0  0  0  0  0  0
  2 10  1  0
  2  1  1  1
  3  4  1  0
  3  2  1  0
  4  9  2  0
  4  5  1  0
  5  6  2  0
  6  7  1  0
  8  7  2  0
  9  8  1  0
 10 11  2  0
 12 10  1  0
 12 13  1  0
 13 14  1  0
 14 16  1  0
 14 15  2  0
 16 17  1  0
 17 20  1  0
 17 18  1  1
 19 18  1  0
 20 21  1  0
 22 20  2  0
M  END
$$$$
