FGC.pdb
     RDKit          3D

 22 22  0  0  1  0  0  0  0  0999 V2000
    6.5976  -18.5003   23.0713 N   0  0  0  0  0  0  0  0  0  0  0  0
    7.3547  -17.2599   22.8992 C   0  0  1  0  0  0  0  0  0  0  0  0
    6.4986  -16.0574   23.1994 C   0  0  0  0  0  0  0  0  0  0  0  0
    6.9419  -14.8483   22.4799 C   0  0  0  0  0  0  0  0  0  0  0  0
    7.1981  -13.7180   23.2195 C   0  0  0  0  0  0  0  0  0  0  0  0
    7.6156  -12.5611   22.5914 C   0  0  0  0  0  0  0  0  0  0  0  0
    7.7746  -12.5441   21.2183 C   0  0  0  0  0  0  0  0  0  0  0  0
    7.5149  -13.6909   20.4656 C   0  0  0  0  0  0  0  0  0  0  0  0
    7.0974  -14.8384   21.1194 C   0  0  0  0  0  0  0  0  0  0  0  0
    8.5131  -17.2301   23.8303 C   0  0  0  0  0  0  0  0  0  0  0  0
    8.5122  -17.8873   24.9123 O   0  0  0  0  0  0  0  0  0  0  0  0
    9.6342  -16.4433   23.4826 N   0  0  0  0  0  0  0  0  0  0  0  0
   10.9562  -16.7395   23.9714 C   0  0  0  0  0  0  0  0  0  0  0  0
   11.1505  -15.9292   25.2205 C   0  0  0  0  0  0  0  0  0  0  0  0
   12.3083  -15.7401   25.7231 O   0  0  0  0  0  0  0  0  0  0  0  0
   10.0316  -15.3669   25.8494 N   0  0  0  0  0  0  0  0  0  0  0  0
   10.1940  -14.6920   27.1183 C   0  0  1  0  0  0  0  0  0  0  0  0
    8.9305  -13.8757   27.4095 C   0  0  0  0  0  0  0  0  0  0  0  0
    8.6236  -12.7538   26.0193 S   0  0  0  0  0  0  0  0  0  0  0  0
   10.4096  -15.7173   28.1613 C   0  0  0  0  0  0  0  0  0  0  0  0
   10.3715  -17.0450   27.7978 O   0  0  0  0  0  0  0  0  0  0  0  0
   10.6279  -15.4353   29.3739 O   0  0  0  0  0  0  0  0  0  0  0  0
  2 10  1  0
  2  1  1  1
  3  4  1  0
  3  2  1  0
  4  9  2  0
  4  5  1  0
  5  6  2  0
  6  7  1  0
  8  7  2  0
  9  8  1  0
 10 11  2  0
 12 10  1  0
 12 13  1  0
 13 14  1  0
 14 16  1  0
 14 15  2  0
 16 17  1  0
 17 20  1  0
 17 18  1  1
 19 18  1  0
 20 21  1  0
 22 20  2  0
M  END
$$$$
