FGC.pdb
     RDKit          3D

 22 22  0  0  1  0  0  0  0  0999 V2000
    7.2071  -16.4590   26.3643 N   0  0  0  0  0  0  0  0  0  0  0  0
    6.6844  -15.9192   25.1085 C   0  0  1  0  0  0  0  0  0  0  0  0
    7.3471  -14.6110   24.7645 C   0  0  0  0  0  0  0  0  0  0  0  0
    7.1767  -13.5917   25.8172 C   0  0  0  0  0  0  0  0  0  0  0  0
    5.9580  -12.9622   25.9111 C   0  0  0  0  0  0  0  0  0  0  0  0
    5.7497  -12.0007   26.8803 C   0  0  0  0  0  0  0  0  0  0  0  0
    6.7697  -11.6743   27.7543 C   0  0  0  0  0  0  0  0  0  0  0  0
    8.0079  -12.3124   27.6605 C   0  0  0  0  0  0  0  0  0  0  0  0
    8.1915  -13.2732   26.6798 C   0  0  0  0  0  0  0  0  0  0  0  0
    6.9494  -16.8640   23.9919 C   0  0  0  0  0  0  0  0  0  0  0  0
    6.5594  -16.6233   22.8119 O   0  0  0  0  0  0  0  0  0  0  0  0
    7.6554  -18.0553   24.2734 N   0  0  0  0  0  0  0  0  0  0  0  0
    7.9799  -19.0115   23.2464 C   0  0  0  0  0  0  0  0  0  0  0  0
    9.2743  -18.5657   22.6295 C   0  0  0  0  0  0  0  0  0  0  0  0
    9.9732  -19.3466   21.9011 O   0  0  0  0  0  0  0  0  0  0  0  0
    9.7252  -17.2591   22.8600 N   0  0  0  0  0  0  0  0  0  0  0  0
   10.9893  -16.8344   22.3001 C   0  0  1  0  0  0  0  0  0  0  0  0
   10.8539  -15.3874   21.8148 C   0  0  0  0  0  0  0  0  0  0  0  0
    9.6511  -15.3333   20.4598 S   0  0  0  0  0  0  0  0  0  0  0  0
   12.0196  -16.9410   23.3549 C   0  0  0  0  0  0  0  0  0  0  0  0
   13.3262  -16.6503   23.0312 O   0  0  0  0  0  0  0  0  0  0  0  0
   11.7605  -17.2867   24.5427 O   0  0  0  0  0  0  0  0  0  0  0  0
  2 10  1  0
  2  1  1  1
  3  4  1  0
  3  2  1  0
  4  9  2  0
  4  5  1  0
  5  6  2  0
  6  7  1  0
  8  7  2  0
  9  8  1  0
 10 11  2  0
 12 10  1  0
 12 13  1  0
 13 14  1  0
 14 16  1  0
 14 15  2  0
 16 17  1  0
 17 20  1  0
 17 18  1  1
 19 18  1  0
 20 21  1  0
 22 20  2  0
M  END
$$$$
