FGC.pdb
     RDKit          3D

 22 22  0  0  1  0  0  0  0  0999 V2000
    7.5705  -16.7796   26.1352 N   0  0  0  0  0  0  0  0  0  0  0  0
    6.8835  -16.1336   25.0163 C   0  0  1  0  0  0  0  0  0  0  0  0
    7.5579  -14.8400   24.6414 C   0  0  0  0  0  0  0  0  0  0  0  0
    7.4239  -13.8045   25.6835 C   0  0  0  0  0  0  0  0  0  0  0  0
    6.1813  -13.2511   25.8836 C   0  0  0  0  0  0  0  0  0  0  0  0
    6.0053  -12.2780   26.8476 C   0  0  0  0  0  0  0  0  0  0  0  0
    7.0817  -11.8634   27.6095 C   0  0  0  0  0  0  0  0  0  0  0  0
    8.3442  -12.4242   27.4077 C   0  0  0  0  0  0  0  0  0  0  0  0
    8.4944  -13.3984   26.4346 C   0  0  0  0  0  0  0  0  0  0  0  0
    6.9064  -17.0152   23.8196 C   0  0  0  0  0  0  0  0  0  0  0  0
    7.6195  -18.0604   23.7786 O   0  0  0  0  0  0  0  0  0  0  0  0
    6.1061  -16.6621   22.7099 N   0  0  0  0  0  0  0  0  0  0  0  0
    6.1434  -17.4024   21.4750 C   0  0  0  0  0  0  0  0  0  0  0  0
    7.2720  -16.8368   20.6620 C   0  0  0  0  0  0  0  0  0  0  0  0
    7.7269  -17.4425   19.6348 O   0  0  0  0  0  0  0  0  0  0  0  0
    7.8393  -15.6130   21.0416 N   0  0  0  0  0  0  0  0  0  0  0  0
    8.9529  -15.0814   20.2870 C   0  0  1  0  0  0  0  0  0  0  0  0
    8.7358  -13.5793   20.0772 C   0  0  0  0  0  0  0  0  0  0  0  0
    7.1244  -13.3240   19.2876 S   0  0  0  0  0  0  0  0  0  0  0  0
   10.1911  -15.3316   21.0548 C   0  0  0  0  0  0  0  0  0  0  0  0
   11.3941  -14.9407   20.5103 O   0  0  0  0  0  0  0  0  0  0  0  0
   10.2011  -15.8881   22.1896 O   0  0  0  0  0  0  0  0  0  0  0  0
  2 10  1  0
  2  1  1  1
  3  4  1  0
  3  2  1  0
  4  9  2  0
  4  5  1  0
  5  6  2  0
  6  7  1  0
  8  7  2  0
  9  8  1  0
 10 11  2  0
 12 10  1  0
 12 13  1  0
 13 14  1  0
 14 16  1  0
 14 15  2  0
 16 17  1  0
 17 20  1  0
 17 18  1  1
 19 18  1  0
 20 21  1  0
 22 20  2  0
M  END
$$$$
