FGC.pdb
     RDKit          3D

 22 22  0  0  1  0  0  0  0  0999 V2000
    8.6131  -15.5879   25.3041 N   0  0  0  0  0  0  0  0  0  0  0  0
    7.4804  -15.4885   24.3828 C   0  0  1  0  0  0  0  0  0  0  0  0
    7.2055  -14.0535   24.0163 C   0  0  0  0  0  0  0  0  0  0  0  0
    7.0557  -13.1824   25.1972 C   0  0  0  0  0  0  0  0  0  0  0  0
    5.9493  -13.3631   25.9931 C   0  0  0  0  0  0  0  0  0  0  0  0
    5.7647  -12.5721   27.1100 C   0  0  0  0  0  0  0  0  0  0  0  0
    6.6953  -11.5992   27.4240 C   0  0  0  0  0  0  0  0  0  0  0  0
    7.8194  -11.4142   26.6170 C   0  0  0  0  0  0  0  0  0  0  0  0
    7.9814  -12.2205   25.5025 C   0  0  0  0  0  0  0  0  0  0  0  0
    7.7733  -16.2250   23.1252 C   0  0  0  0  0  0  0  0  0  0  0  0
    7.2340  -17.3412   22.8686 O   0  0  0  0  0  0  0  0  0  0  0  0
    8.6784  -15.6496   22.2052 N   0  0  0  0  0  0  0  0  0  0  0  0
    9.1173  -16.3502   21.0258 C   0  0  0  0  0  0  0  0  0  0  0  0
   10.3758  -17.0807   21.3961 C   0  0  0  0  0  0  0  0  0  0  0  0
   11.2868  -17.3242   20.5361 O   0  0  0  0  0  0  0  0  0  0  0  0
   10.5534  -17.5054   22.7197 N   0  0  0  0  0  0  0  0  0  0  0  0
   11.8716  -17.8943   23.1704 C   0  0  1  0  0  0  0  0  0  0  0  0
   12.7760  -16.6576   23.1792 C   0  0  0  0  0  0  0  0  0  0  0  0
   12.8037  -15.9629   24.8531 S   0  0  0  0  0  0  0  0  0  0  0  0
   11.7449  -18.4628   24.5291 C   0  0  0  0  0  0  0  0  0  0  0  0
   12.7890  -19.2069   25.0318 O   0  0  0  0  0  0  0  0  0  0  0  0
   10.7231  -18.2997   25.2549 O   0  0  0  0  0  0  0  0  0  0  0  0
  2 10  1  0
  2  1  1  1
  3  4  1  0
  3  2  1  0
  4  9  2  0
  4  5  1  0
  5  6  2  0
  6  7  1  0
  8  7  2  0
  9  8  1  0
 10 11  2  0
 12 10  1  0
 12 13  1  0
 13 14  1  0
 14 16  1  0
 14 15  2  0
 16 17  1  0
 17 20  1  0
 17 18  1  1
 19 18  1  0
 20 21  1  0
 22 20  2  0
M  END
$$$$
