FGC.pdb
     RDKit          3D

 22 22  0  0  1  0  0  0  0  0999 V2000
    7.1530  -16.0995   24.6948 N   0  0  0  0  0  0  0  0  0  0  0  0
    7.5445  -15.6500   23.3583 C   0  0  1  0  0  0  0  0  0  0  0  0
    7.2041  -14.1968   23.1549 C   0  0  0  0  0  0  0  0  0  0  0  0
    6.9478  -13.4886   24.4234 C   0  0  0  0  0  0  0  0  0  0  0  0
    7.4316  -12.2083   24.5538 C   0  0  0  0  0  0  0  0  0  0  0  0
    7.2173  -11.5043   25.7224 C   0  0  0  0  0  0  0  0  0  0  0  0
    6.5155  -12.0910   26.7589 C   0  0  0  0  0  0  0  0  0  0  0  0
    6.0235  -13.3910   26.6282 C   0  0  0  0  0  0  0  0  0  0  0  0
    6.2518  -14.0758   25.4461 C   0  0  0  0  0  0  0  0  0  0  0  0
    9.0122  -15.7973   23.1747 C   0  0  0  0  0  0  0  0  0  0  0  0
    9.5894  -15.4215   22.1126 O   0  0  0  0  0  0  0  0  0  0  0  0
    9.7656  -16.3734   24.2223 N   0  0  0  0  0  0  0  0  0  0  0  0
   11.2010  -16.4765   24.1634 C   0  0  0  0  0  0  0  0  0  0  0  0
   11.7212  -16.0940   25.5190 C   0  0  0  0  0  0  0  0  0  0  0  0
   12.9691  -15.9431   25.7397 O   0  0  0  0  0  0  0  0  0  0  0  0
   10.8125  -15.8979   26.5677 N   0  0  0  0  0  0  0  0  0  0  0  0
   11.3084  -15.7332   27.9163 C   0  0  1  0  0  0  0  0  0  0  0  0
   10.6925  -14.4660   28.5183 C   0  0  0  0  0  0  0  0  0  0  0  0
    9.7721  -13.5899   27.2258 S   0  0  0  0  0  0  0  0  0  0  0  0
   10.9234  -16.9275   28.6979 C   0  0  0  0  0  0  0  0  0  0  0  0
   10.1986  -17.9180   28.0735 O   0  0  0  0  0  0  0  0  0  0  0  0
   11.2272  -17.0855   29.9146 O   0  0  0  0  0  0  0  0  0  0  0  0
  2 10  1  0
  2  1  1  1
  3  4  1  0
  3  2  1  0
  4  9  2  0
  4  5  1  0
  5  6  2  0
  6  7  1  0
  8  7  2  0
  9  8  1  0
 10 11  2  0
 12 10  1  0
 12 13  1  0
 13 14  1  0
 14 16  1  0
 14 15  2  0
 16 17  1  0
 17 20  1  0
 17 18  1  1
 19 18  1  0
 20 21  1  0
 22 20  2  0
M  END
$$$$
