FGC.pdb
     RDKit          3D

 22 22  0  0  1  0  0  0  0  0999 V2000
    7.2404  -15.9708   25.5527 N   0  0  0  0  0  0  0  0  0  0  0  0
    7.3672  -15.7652   24.1095 C   0  0  1  0  0  0  0  0  0  0  0  0
    7.3403  -14.2985   23.7674 C   0  0  0  0  0  0  0  0  0  0  0  0
    6.9612  -13.4526   24.9149 C   0  0  0  0  0  0  0  0  0  0  0  0
    7.8237  -12.4483   25.2859 C   0  0  0  0  0  0  0  0  0  0  0  0
    7.5129  -11.6298   26.3540 C   0  0  0  0  0  0  0  0  0  0  0  0
    6.3330  -11.8240   27.0475 C   0  0  0  0  0  0  0  0  0  0  0  0
    5.4558  -12.8433   26.6722 C   0  0  0  0  0  0  0  0  0  0  0  0
    5.7906  -13.6505   25.5976 C   0  0  0  0  0  0  0  0  0  0  0  0
    8.6590  -16.3163   23.6223 C   0  0  0  0  0  0  0  0  0  0  0  0
    9.0494  -16.1389   22.4312 O   0  0  0  0  0  0  0  0  0  0  0  0
    9.4577  -17.0538   24.5251 N   0  0  0  0  0  0  0  0  0  0  0  0
   10.8499  -17.3209   24.2706 C   0  0  0  0  0  0  0  0  0  0  0  0
   11.5934  -16.9989   25.5347 C   0  0  0  0  0  0  0  0  0  0  0  0
   12.8658  -17.0729   25.6010 O   0  0  0  0  0  0  0  0  0  0  0  0
   10.8709  -16.6073   26.6699 N   0  0  0  0  0  0  0  0  0  0  0  0
   11.5638  -16.4295   27.9269 C   0  0  1  0  0  0  0  0  0  0  0  0
   11.2306  -15.0414   28.4832 C   0  0  0  0  0  0  0  0  0  0  0  0
    9.6152  -14.5252   27.8433 S   0  0  0  0  0  0  0  0  0  0  0  0
   11.1150  -17.4894   28.8545 C   0  0  0  0  0  0  0  0  0  0  0  0
   10.2300  -18.4380   28.3924 O   0  0  0  0  0  0  0  0  0  0  0  0
   11.5041  -17.5689   30.0545 O   0  0  0  0  0  0  0  0  0  0  0  0
  2 10  1  0
  2  1  1  1
  3  4  1  0
  3  2  1  0
  4  9  2  0
  4  5  1  0
  5  6  2  0
  6  7  1  0
  8  7  2  0
  9  8  1  0
 10 11  2  0
 12 10  1  0
 12 13  1  0
 13 14  1  0
 14 16  1  0
 14 15  2  0
 16 17  1  0
 17 20  1  0
 17 18  1  1
 19 18  1  0
 20 21  1  0
 22 20  2  0
M  END
$$$$
