TLT.pdb
     RDKit          3D

 23 22  0  0  1  0  0  0  0  0999 V2000
    7.5327  -16.8941   19.0009 C   0  0  0  0  0  0  0  0  0  0  0  0
    7.8375  -16.7010   20.4564 C   0  0  1  0  0  0  0  0  0  0  0  0
    8.3584  -17.8494   21.0364 O   0  0  0  0  0  0  0  0  0  0  0  0
    8.7638  -15.5559   20.7258 C   0  0  2  0  0  0  0  0  0  0  0  0
   10.0106  -15.6806   20.0039 N   0  0  0  0  0  0  0  0  0  0  0  0
    9.0093  -15.3085   22.1485 C   0  0  0  0  0  0  0  0  0  0  0  0
   10.0579  -15.6602   22.7447 O   0  0  0  0  0  0  0  0  0  0  0  0
    8.2152  -12.4003   26.7709 C   0  0  0  0  0  0  0  0  0  0  0  0
    7.0307  -13.1030   26.2045 C   0  0  1  0  0  0  0  0  0  0  0  0
    5.8022  -12.2110   26.4669 C   0  0  0  0  0  0  0  0  0  0  0  0
    7.0657  -13.4440   24.7581 C   0  0  0  0  0  0  0  0  0  0  0  0
    8.1517  -14.4006   24.3380 C   0  0  2  0  0  0  0  0  0  0  0  0
    8.0257  -14.6368   22.9189 N   0  0  0  0  0  0  0  0  0  0  0  0
    8.1192  -15.5913   25.1838 C   0  0  0  0  0  0  0  0  0  0  0  0
    6.9926  -16.1058   25.4533 O   0  0  0  0  0  0  0  0  0  0  0  0
    9.1451  -18.9878   24.5389 C   0  0  0  0  0  0  0  0  0  0  0  0
    9.8982  -18.5950   25.8112 C   0  0  1  0  0  0  0  0  0  0  0  0
   11.1398  -18.1140   25.3993 O   0  0  0  0  0  0  0  0  0  0  0  0
    9.1882  -17.4525   26.5141 C   0  0  2  0  0  0  0  0  0  0  0  0
    9.2459  -16.2337   25.7345 N   0  0  0  0  0  0  0  0  0  0  0  0
    9.9310  -17.2227   27.7775 C   0  0  0  0  0  0  0  0  0  0  0  0
    9.9980  -18.2056   28.7777 O   0  0  0  0  0  0  0  0  0  0  0  0
   10.5457  -16.1548   28.0480 O   0  0  0  0  0  0  0  0  0  0  0  0
  2  1  1  6
  2  3  1  0
  4  2  1  0
  4  6  1  0
  4  5  1  6
  6 13  1  0
  6  7  2  0
  9  8  1  6
  9 10  1  0
 11  9  1  0
 12 11  1  1
 13 12  1  0
 14 12  1  0
 14 15  2  0
 17 16  1  6
 17 19  1  0
 18 17  1  0
 19 20  1  6
 20 14  1  0
 21 19  1  0
 22 21  1  0
 23 21  2  0
M  END
$$$$
