TLT.pdb
     RDKit          3D

 23 22  0  0  1  0  0  0  0  0999 V2000
    7.5490  -16.8690   19.4322 C   0  0  0  0  0  0  0  0  0  0  0  0
    7.7821  -16.5517   20.8791 C   0  0  1  0  0  0  0  0  0  0  0  0
    8.1783  -17.6696   21.6003 O   0  0  0  0  0  0  0  0  0  0  0  0
    8.7765  -15.4538   21.0972 C   0  0  2  0  0  0  0  0  0  0  0  0
   10.0404  -15.7249   20.4489 N   0  0  0  0  0  0  0  0  0  0  0  0
    8.9789  -15.1024   22.5047 C   0  0  0  0  0  0  0  0  0  0  0  0
   10.0090  -15.4075   23.1564 O   0  0  0  0  0  0  0  0  0  0  0  0
    7.8708  -11.5596   26.6355 C   0  0  0  0  0  0  0  0  0  0  0  0
    6.8554  -12.5995   26.3118 C   0  0  1  0  0  0  0  0  0  0  0  0
    5.4688  -11.9800   26.5710 C   0  0  0  0  0  0  0  0  0  0  0  0
    6.8701  -13.1643   24.9369 C   0  0  0  0  0  0  0  0  0  0  0  0
    8.0902  -13.9711   24.5745 C   0  0  2  0  0  0  0  0  0  0  0  0
    7.9727  -14.3782   23.1939 N   0  0  0  0  0  0  0  0  0  0  0  0
    8.2759  -15.0516   25.5400 C   0  0  0  0  0  0  0  0  0  0  0  0
    8.5610  -14.7452   26.7364 O   0  0  0  0  0  0  0  0  0  0  0  0
    6.1271  -18.5685   25.6869 C   0  0  0  0  0  0  0  0  0  0  0  0
    7.6407  -18.7618   25.7949 C   0  0  1  0  0  0  0  0  0  0  0  0
    8.0954  -19.0259   24.5041 O   0  0  0  0  0  0  0  0  0  0  0  0
    8.3067  -17.4753   26.2477 C   0  0  2  0  0  0  0  0  0  0  0  0
    8.1617  -16.4275   25.2589 N   0  0  0  0  0  0  0  0  0  0  0  0
    9.7517  -17.7847   26.3775 C   0  0  0  0  0  0  0  0  0  0  0  0
   10.2240  -18.6903   27.3407 O   0  0  0  0  0  0  0  0  0  0  0  0
   10.6486  -17.2730   25.6528 O   0  0  0  0  0  0  0  0  0  0  0  0
  2  1  1  6
  2  3  1  0
  4  2  1  0
  4  6  1  0
  4  5  1  1
  6 13  1  0
  6  7  2  0
  9  8  1  6
  9 10  1  0
 11  9  1  0
 12 11  1  1
 13 12  1  0
 14 12  1  0
 14 15  2  0
 17 16  1  6
 17 19  1  0
 18 17  1  0
 19 20  1  6
 20 14  1  0
 21 19  1  0
 22 21  1  0
 23 21  2  0
M  END
$$$$
