TLT.pdb
     RDKit          3D

 23 22  0  0  1  0  0  0  0  0999 V2000
    6.1895  -15.7688   19.5722 C   0  0  0  0  0  0  0  0  0  0  0  0
    6.8629  -15.7740   20.9121 C   0  0  1  0  0  0  0  0  0  0  0  0
    7.7144  -16.8598   21.0629 O   0  0  0  0  0  0  0  0  0  0  0  0
    7.6208  -14.5163   21.2046 C   0  0  2  0  0  0  0  0  0  0  0  0
    8.5958  -14.2154   20.1798 N   0  0  0  0  0  0  0  0  0  0  0  0
    8.2365  -14.4854   22.5333 C   0  0  0  0  0  0  0  0  0  0  0  0
    9.4664  -14.6471   22.7336 O   0  0  0  0  0  0  0  0  0  0  0  0
    5.6245  -11.7027   26.6442 C   0  0  0  0  0  0  0  0  0  0  0  0
    6.6875  -12.3366   25.8162 C   0  0  1  0  0  0  0  0  0  0  0  0
    8.0143  -11.6328   26.1599 C   0  0  0  0  0  0  0  0  0  0  0  0
    6.8809  -13.8035   25.9588 C   0  0  0  0  0  0  0  0  0  0  0  0
    7.8927  -14.4229   25.0295 C   0  0  2  0  0  0  0  0  0  0  0  0
    7.4227  -14.2626   23.6734 N   0  0  0  0  0  0  0  0  0  0  0  0
    8.1736  -15.7952   25.4447 C   0  0  0  0  0  0  0  0  0  0  0  0
    7.1950  -16.5804   25.6241 O   0  0  0  0  0  0  0  0  0  0  0  0
    9.8693  -18.6078   23.7636 C   0  0  0  0  0  0  0  0  0  0  0  0
   10.5901  -18.4350   25.1018 C   0  0  1  0  0  0  0  0  0  0  0  0
   11.6908  -17.6173   24.8516 O   0  0  0  0  0  0  0  0  0  0  0  0
    9.7028  -17.6986   26.0886 C   0  0  2  0  0  0  0  0  0  0  0  0
    9.4558  -16.3364   25.6644 N   0  0  0  0  0  0  0  0  0  0  0  0
   10.4591  -17.6503   27.3640 C   0  0  0  0  0  0  0  0  0  0  0  0
   10.7858  -18.8205   28.0674 O   0  0  0  0  0  0  0  0  0  0  0  0
   10.8589  -16.5831   27.9049 O   0  0  0  0  0  0  0  0  0  0  0  0
  2  1  1  6
  2  3  1  0
  4  2  1  0
  4  6  1  0
  4  5  1  6
  6 13  1  0
  6  7  2  0
  9  8  1  1
  9 10  1  0
 11  9  1  0
 12 11  1  1
 13 12  1  0
 14 12  1  0
 14 15  2  0
 17 16  1  6
 17 19  1  0
 18 17  1  0
 19 20  1  6
 20 14  1  0
 21 19  1  0
 22 21  1  0
 23 21  2  0
M  END
$$$$
