TLT.pdb
     RDKit          3D

 23 22  0  0  1  0  0  0  0  0999 V2000
    6.5943  -17.1778   21.4167 C   0  0  0  0  0  0  0  0  0  0  0  0
    7.6448  -16.4338   20.6475 C   0  0  1  0  0  0  0  0  0  0  0  0
    7.3899  -16.4345   19.2830 O   0  0  0  0  0  0  0  0  0  0  0  0
    7.8337  -15.0214   21.1071 C   0  0  2  0  0  0  0  0  0  0  0  0
    8.5838  -14.2329   20.1547 N   0  0  0  0  0  0  0  0  0  0  0  0
    8.4091  -14.9019   22.4488 C   0  0  0  0  0  0  0  0  0  0  0  0
    9.6355  -15.0249   22.6929 O   0  0  0  0  0  0  0  0  0  0  0  0
    5.6638  -11.9158   26.3131 C   0  0  0  0  0  0  0  0  0  0  0  0
    6.7995  -12.5788   25.6146 C   0  0  1  0  0  0  0  0  0  0  0  0
    8.0938  -11.8982   26.0998 C   0  0  0  0  0  0  0  0  0  0  0  0
    6.9451  -14.0478   25.7890 C   0  0  0  0  0  0  0  0  0  0  0  0
    7.9897  -14.7082   24.9267 C   0  0  2  0  0  0  0  0  0  0  0  0
    7.5576  -14.6329   23.5507 N   0  0  0  0  0  0  0  0  0  0  0  0
    8.2726  -16.0505   25.4293 C   0  0  0  0  0  0  0  0  0  0  0  0
    7.3030  -16.8538   25.5749 O   0  0  0  0  0  0  0  0  0  0  0  0
   10.1505  -18.8822   24.0025 C   0  0  0  0  0  0  0  0  0  0  0  0
   10.7710  -18.6312   25.3780 C   0  0  1  0  0  0  0  0  0  0  0  0
   11.8641  -17.7923   25.1680 O   0  0  0  0  0  0  0  0  0  0  0  0
    9.7973  -17.8804   26.2678 C   0  0  2  0  0  0  0  0  0  0  0  0
    9.5477  -16.5438   25.7700 N   0  0  0  0  0  0  0  0  0  0  0  0
   10.4587  -17.7597   27.5901 C   0  0  0  0  0  0  0  0  0  0  0  0
   10.7902  -18.8925   28.3502 O   0  0  0  0  0  0  0  0  0  0  0  0
   10.7685  -16.6595   28.1240 O   0  0  0  0  0  0  0  0  0  0  0  0
  2  1  1  1
  2  3  1  0
  4  2  1  0
  4  6  1  0
  4  5  1  6
  6 13  1  0
  6  7  2  0
  9  8  1  1
  9 10  1  0
 11  9  1  0
 12 11  1  1
 13 12  1  0
 14 12  1  0
 14 15  2  0
 17 16  1  6
 17 19  1  0
 18 17  1  0
 19 20  1  6
 20 14  1  0
 21 19  1  0
 22 21  1  0
 23 21  2  0
M  END
$$$$
