TLT.pdb
     RDKit          3D

 23 22  0  0  1  0  0  0  0  0999 V2000
    6.8139  -16.0495   20.0379 C   0  0  0  0  0  0  0  0  0  0  0  0
    7.3052  -15.9924   21.4536 C   0  0  1  0  0  0  0  0  0  0  0  0
    7.9042  -17.1817   21.8454 O   0  0  0  0  0  0  0  0  0  0  0  0
    8.2520  -14.8617   21.7121 C   0  0  2  0  0  0  0  0  0  0  0  0
    9.3879  -14.8851   20.8173 N   0  0  0  0  0  0  0  0  0  0  0  0
    8.6901  -14.7566   23.1059 C   0  0  0  0  0  0  0  0  0  0  0  0
    9.8584  -15.0157   23.4890 O   0  0  0  0  0  0  0  0  0  0  0  0
    5.4723  -11.5060   26.3673 C   0  0  0  0  0  0  0  0  0  0  0  0
    6.6308  -12.1958   25.7353 C   0  0  1  0  0  0  0  0  0  0  0  0
    7.8670  -11.3015   25.9495 C   0  0  0  0  0  0  0  0  0  0  0  0
    6.9524  -13.5668   26.2112 C   0  0  0  0  0  0  0  0  0  0  0  0
    8.0902  -14.2549   25.5021 C   0  0  2  0  0  0  0  0  0  0  0  0
    7.7649  -14.3418   24.0977 N   0  0  0  0  0  0  0  0  0  0  0  0
    8.3924  -15.5227   26.1620 C   0  0  0  0  0  0  0  0  0  0  0  0
    8.7021  -15.5012   27.3909 O   0  0  0  0  0  0  0  0  0  0  0  0
    6.3951  -19.0396   25.8013 C   0  0  0  0  0  0  0  0  0  0  0  0
    7.9034  -19.1965   25.6002 C   0  0  1  0  0  0  0  0  0  0  0  0
    8.1258  -19.1226   24.2262 O   0  0  0  0  0  0  0  0  0  0  0  0
    8.6448  -18.0342   26.2350 C   0  0  2  0  0  0  0  0  0  0  0  0
    8.3675  -16.7904   25.5474 N   0  0  0  0  0  0  0  0  0  0  0  0
   10.0893  -18.3324   26.0756 C   0  0  0  0  0  0  0  0  0  0  0  0
   10.6786  -19.4510   26.6859 O   0  0  0  0  0  0  0  0  0  0  0  0
   10.8832  -17.6244   25.3976 O   0  0  0  0  0  0  0  0  0  0  0  0
  2  1  1  6
  2  3  1  0
  4  2  1  0
  4  6  1  0
  4  5  1  6
  6 13  1  0
  6  7  2  0
  9  8  1  1
  9 10  1  0
 11  9  1  0
 12 11  1  1
 13 12  1  0
 14 12  1  0
 14 15  2  0
 17 16  1  6
 17 19  1  0
 18 17  1  0
 19 20  1  6
 20 14  1  0
 21 19  1  0
 22 21  1  0
 23 21  2  0
M  END
$$$$
