TLT.pdb
     RDKit          3D

 23 22  0  0  1  0  0  0  0  0999 V2000
    7.8598  -17.1876   19.4905 C   0  0  0  0  0  0  0  0  0  0  0  0
    8.0447  -16.7839   20.9229 C   0  0  1  0  0  0  0  0  0  0  0  0
    8.5123  -17.8321   21.7034 O   0  0  0  0  0  0  0  0  0  0  0  0
    8.9496  -15.6041   21.0989 C   0  0  2  0  0  0  0  0  0  0  0  0
   10.2319  -15.7991   20.4591 N   0  0  0  0  0  0  0  0  0  0  0  0
    9.1219  -15.1863   22.4921 C   0  0  0  0  0  0  0  0  0  0  0  0
   10.1690  -15.3921   23.1555 O   0  0  0  0  0  0  0  0  0  0  0  0
    7.8102  -11.5158   26.4670 C   0  0  0  0  0  0  0  0  0  0  0  0
    6.8579  -12.6218   26.1717 C   0  0  1  0  0  0  0  0  0  0  0  0
    5.4364  -12.0739   26.4017 C   0  0  0  0  0  0  0  0  0  0  0  0
    6.9157  -13.2296   24.8164 C   0  0  0  0  0  0  0  0  0  0  0  0
    8.1484  -14.0429   24.5166 C   0  0  2  0  0  0  0  0  0  0  0  0
    8.0643  -14.5103   23.1528 N   0  0  0  0  0  0  0  0  0  0  0  0
    8.3188  -15.0791   25.5321 C   0  0  0  0  0  0  0  0  0  0  0  0
    8.4501  -14.7198   26.7405 O   0  0  0  0  0  0  0  0  0  0  0  0
    6.2050  -18.4941   25.7606 C   0  0  0  0  0  0  0  0  0  0  0  0
    7.7060  -18.7486   25.9096 C   0  0  1  0  0  0  0  0  0  0  0  0
    8.1745  -19.0859   24.6410 O   0  0  0  0  0  0  0  0  0  0  0  0
    8.4193  -17.4747   26.3242 C   0  0  2  0  0  0  0  0  0  0  0  0
    8.3478  -16.4664   25.2875 N   0  0  0  0  0  0  0  0  0  0  0  0
    9.8448  -17.8430   26.5063 C   0  0  0  0  0  0  0  0  0  0  0  0
   10.8475  -17.3291   25.6687 O   0  0  0  0  0  0  0  0  0  0  0  0
   10.2601  -18.6262   27.4037 O   0  0  0  0  0  0  0  0  0  0  0  0
  2  1  1  6
  2  3  1  0
  4  2  1  0
  4  6  1  0
  4  5  1  1
  6 13  1  0
  6  7  2  0
  9  8  1  6
  9 10  1  0
 11  9  1  0
 12 11  1  1
 13 12  1  0
 14 12  1  0
 14 15  2  0
 17 16  1  6
 17 19  1  0
 18 17  1  0
 19 20  1  6
 20 14  1  0
 21 19  1  0
 22 21  1  0
 23 21  2  0
M  END
$$$$
