TLT.pdb
     RDKit          3D

 23 22  0  0  1  0  0  0  0  0999 V2000
    6.3515  -15.6944   19.0086 C   0  0  0  0  0  0  0  0  0  0  0  0
    6.8513  -15.6955   20.4224 C   0  0  1  0  0  0  0  0  0  0  0  0
    7.2212  -16.9655   20.8431 O   0  0  0  0  0  0  0  0  0  0  0  0
    7.9925  -14.7542   20.6533 C   0  0  2  0  0  0  0  0  0  0  0  0
    9.1176  -15.0379   19.7902 N   0  0  0  0  0  0  0  0  0  0  0  0
    8.4193  -14.6649   22.0516 C   0  0  0  0  0  0  0  0  0  0  0  0
    9.4792  -15.1786   22.4893 O   0  0  0  0  0  0  0  0  0  0  0  0
    8.3121  -12.1618   26.9735 C   0  0  0  0  0  0  0  0  0  0  0  0
    7.0487  -12.8026   26.5146 C   0  0  1  0  0  0  0  0  0  0  0  0
    5.8841  -11.9311   27.0228 C   0  0  0  0  0  0  0  0  0  0  0  0
    6.8796  -13.0099   25.0525 C   0  0  0  0  0  0  0  0  0  0  0  0
    7.8869  -13.9216   24.4006 C   0  0  2  0  0  0  0  0  0  0  0  0
    7.6104  -13.9659   22.9838 N   0  0  0  0  0  0  0  0  0  0  0  0
    7.9031  -15.2129   25.0836 C   0  0  0  0  0  0  0  0  0  0  0  0
    6.7937  -15.7473   25.3840 O   0  0  0  0  0  0  0  0  0  0  0  0
    9.1079  -18.4359   23.7865 C   0  0  0  0  0  0  0  0  0  0  0  0
    9.8189  -18.2424   25.1271 C   0  0  1  0  0  0  0  0  0  0  0  0
   11.0458  -17.6476   24.8381 O   0  0  0  0  0  0  0  0  0  0  0  0
    9.0464  -17.2698   25.9994 C   0  0  2  0  0  0  0  0  0  0  0  0
    9.0597  -15.9334   25.4423 N   0  0  0  0  0  0  0  0  0  0  0  0
    9.7584  -17.2301   27.3002 C   0  0  0  0  0  0  0  0  0  0  0  0
    9.8599  -18.3685   28.1155 O   0  0  0  0  0  0  0  0  0  0  0  0
   10.3151  -16.1985   27.7663 O   0  0  0  0  0  0  0  0  0  0  0  0
  2  1  1  6
  2  3  1  0
  4  2  1  0
  4  6  1  0
  4  5  1  6
  6 13  1  0
  6  7  2  0
  9  8  1  6
  9 10  1  0
 11  9  1  0
 12 11  1  1
 13 12  1  0
 14 12  1  0
 14 15  2  0
 17 16  1  6
 17 19  1  0
 18 17  1  0
 19 20  1  6
 20 14  1  0
 21 19  1  0
 22 21  1  0
 23 21  2  0
M  END
$$$$
