TLT.pdb
     RDKit          3D

 23 22  0  0  1  0  0  0  0  0999 V2000
    6.5161  -16.2353   19.3888 C   0  0  0  0  0  0  0  0  0  0  0  0
    7.0620  -16.1231   20.7809 C   0  0  1  0  0  0  0  0  0  0  0  0
    7.8838  -17.1935   21.1060 O   0  0  0  0  0  0  0  0  0  0  0  0
    7.8033  -14.8465   21.0308 C   0  0  2  0  0  0  0  0  0  0  0  0
    8.8539  -14.6263   20.0617 N   0  0  0  0  0  0  0  0  0  0  0  0
    8.3183  -14.7122   22.3954 C   0  0  0  0  0  0  0  0  0  0  0  0
    9.5247  -14.8816   22.7032 O   0  0  0  0  0  0  0  0  0  0  0  0
    7.5763  -11.3412   25.3992 C   0  0  0  0  0  0  0  0  0  0  0  0
    7.0723  -12.4314   26.2796 C   0  0  1  0  0  0  0  0  0  0  0  0
    5.8345  -11.8866   27.0177 C   0  0  0  0  0  0  0  0  0  0  0  0
    6.7068  -13.7186   25.6322 C   0  0  0  0  0  0  0  0  0  0  0  0
    7.8017  -14.3864   24.8409 C   0  0  2  0  0  0  0  0  0  0  0  0
    7.4278  -14.3732   23.4461 N   0  0  0  0  0  0  0  0  0  0  0  0
    8.0918  -15.7018   25.4066 C   0  0  0  0  0  0  0  0  0  0  0  0
    7.1243  -16.4956   25.6075 O   0  0  0  0  0  0  0  0  0  0  0  0
   10.1732  -18.4118   23.9183 C   0  0  0  0  0  0  0  0  0  0  0  0
   10.7014  -18.1954   25.3375 C   0  0  1  0  0  0  0  0  0  0  0  0
   11.7645  -17.3006   25.2282 O   0  0  0  0  0  0  0  0  0  0  0  0
    9.6444  -17.5288   26.1988 C   0  0  2  0  0  0  0  0  0  0  0  0
    9.3718  -16.1787   25.7524 N   0  0  0  0  0  0  0  0  0  0  0  0
   10.2169  -17.4517   27.5652 C   0  0  0  0  0  0  0  0  0  0  0  0
   10.4964  -18.6088   28.3094 O   0  0  0  0  0  0  0  0  0  0  0  0
   10.4915  -16.3697   28.1529 O   0  0  0  0  0  0  0  0  0  0  0  0
  2  1  1  6
  2  3  1  0
  4  2  1  0
  4  6  1  0
  4  5  1  6
  6 13  1  0
  6  7  2  0
  9  8  1  6
  9 10  1  0
 11  9  1  0
 12 11  1  1
 13 12  1  0
 14 12  1  0
 14 15  2  0
 17 16  1  6
 17 19  1  0
 18 17  1  0
 19 20  1  6
 20 14  1  0
 21 19  1  0
 22 21  1  0
 23 21  2  0
M  END
$$$$
