TLT.pdb
     RDKit          3D

 23 22  0  0  1  0  0  0  0  0999 V2000
    6.1755  -16.1226   19.6689 C   0  0  0  0  0  0  0  0  0  0  0  0
    6.9544  -16.0852   20.9497 C   0  0  1  0  0  0  0  0  0  0  0  0
    7.8958  -17.1031   21.0169 O   0  0  0  0  0  0  0  0  0  0  0  0
    7.6355  -14.7748   21.1966 C   0  0  2  0  0  0  0  0  0  0  0  0
    8.5343  -14.4155   20.1222 N   0  0  0  0  0  0  0  0  0  0  0  0
    8.3132  -14.6889   22.4923 C   0  0  0  0  0  0  0  0  0  0  0  0
    9.5548  -14.8166   22.6374 O   0  0  0  0  0  0  0  0  0  0  0  0
    5.6989  -11.9171   26.5940 C   0  0  0  0  0  0  0  0  0  0  0  0
    6.7959  -12.5010   25.7737 C   0  0  1  0  0  0  0  0  0  0  0  0
    8.0736  -11.6970   26.0815 C   0  0  0  0  0  0  0  0  0  0  0  0
    7.0920  -13.9460   25.9579 C   0  0  0  0  0  0  0  0  0  0  0  0
    8.0935  -14.5356   24.9986 C   0  0  2  0  0  0  0  0  0  0  0  0
    7.5499  -14.4491   23.6635 N   0  0  0  0  0  0  0  0  0  0  0  0
    8.4766  -15.8742   25.4411 C   0  0  0  0  0  0  0  0  0  0  0  0
    7.5806  -16.7692   25.4917 O   0  0  0  0  0  0  0  0  0  0  0  0
   11.8499  -19.4399   26.0023 C   0  0  0  0  0  0  0  0  0  0  0  0
   11.4691  -18.0226   25.5705 C   0  0  1  0  0  0  0  0  0  0  0  0
   11.2844  -18.0696   24.1898 O   0  0  0  0  0  0  0  0  0  0  0  0
   10.1403  -17.6222   26.1848 C   0  0  2  0  0  0  0  0  0  0  0  0
    9.7748  -16.2693   25.8204 N   0  0  0  0  0  0  0  0  0  0  0  0
   10.3387  -17.6620   27.6544 C   0  0  0  0  0  0  0  0  0  0  0  0
   10.3603  -16.4876   28.4234 O   0  0  0  0  0  0  0  0  0  0  0  0
   10.4996  -18.7252   28.3140 O   0  0  0  0  0  0  0  0  0  0  0  0
  2  1  1  6
  2  3  1  0
  4  2  1  0
  4  6  1  0
  4  5  1  6
  6 13  1  0
  6  7  2  0
  9  8  1  1
  9 10  1  0
 11  9  1  0
 12 11  1  1
 13 12  1  0
 14 12  1  0
 14 15  2  0
 17 16  1  1
 17 19  1  0
 18 17  1  0
 19 20  1  6
 20 14  1  0
 21 19  1  0
 22 21  1  0
 23 21  2  0
M  END
$$$$
