TLT.pdb
     RDKit          3D

 23 22  0  0  1  0  0  0  0  0999 V2000
    5.9807  -16.7696   21.7790 C   0  0  0  0  0  0  0  0  0  0  0  0
    7.4467  -16.5600   21.5436 C   0  0  1  0  0  0  0  0  0  0  0  0
    7.8503  -17.0444   20.3070 O   0  0  0  0  0  0  0  0  0  0  0  0
    7.8735  -15.1304   21.6695 C   0  0  2  0  0  0  0  0  0  0  0  0
    8.7205  -14.7147   20.5735 N   0  0  0  0  0  0  0  0  0  0  0  0
    8.4907  -14.8026   22.9568 C   0  0  0  0  0  0  0  0  0  0  0  0
    9.7322  -14.7199   23.1318 O   0  0  0  0  0  0  0  0  0  0  0  0
    5.5774  -11.6792   26.5008 C   0  0  0  0  0  0  0  0  0  0  0  0
    6.6772  -12.3525   25.7561 C   0  0  1  0  0  0  0  0  0  0  0  0
    7.8899  -11.4024   25.7754 C   0  0  0  0  0  0  0  0  0  0  0  0
    7.1154  -13.6867   26.2434 C   0  0  0  0  0  0  0  0  0  0  0  0
    8.1786  -14.3667   25.4198 C   0  0  2  0  0  0  0  0  0  0  0  0
    7.6646  -14.5607   24.0842 N   0  0  0  0  0  0  0  0  0  0  0  0
    8.6400  -15.5730   26.1025 C   0  0  0  0  0  0  0  0  0  0  0  0
    9.0171  -15.4733   27.3085 O   0  0  0  0  0  0  0  0  0  0  0  0
    6.8478  -19.0647   26.4234 C   0  0  0  0  0  0  0  0  0  0  0  0
    8.2699  -19.2470   25.8902 C   0  0  1  0  0  0  0  0  0  0  0  0
    8.1670  -19.2762   24.5005 O   0  0  0  0  0  0  0  0  0  0  0  0
    9.1266  -18.0465   26.2486 C   0  0  2  0  0  0  0  0  0  0  0  0
    8.7020  -16.8608   25.5341 N   0  0  0  0  0  0  0  0  0  0  0  0
   10.5034  -18.3780   25.8069 C   0  0  0  0  0  0  0  0  0  0  0  0
   11.2075  -19.4628   26.3533 O   0  0  0  0  0  0  0  0  0  0  0  0
   11.1358  -17.7298   24.9286 O   0  0  0  0  0  0  0  0  0  0  0  0
  2  1  1  6
  2  3  1  0
  4  2  1  0
  4  6  1  0
  4  5  1  6
  6 13  1  0
  6  7  2  0
  9  8  1  1
  9 10  1  0
 11  9  1  0
 12 11  1  1
 13 12  1  0
 14 12  1  0
 14 15  2  0
 17 16  1  1
 17 19  1  0
 18 17  1  0
 19 20  1  6
 20 14  1  0
 21 19  1  0
 22 21  1  0
 23 21  2  0
M  END
$$$$
