TLT.pdb
     RDKit          3D

 23 22  0  0  1  0  0  0  0  0999 V2000
    6.6701  -16.9822   21.6319 C   0  0  0  0  0  0  0  0  0  0  0  0
    7.5875  -16.0981   20.8411 C   0  0  1  0  0  0  0  0  0  0  0  0
    7.2456  -16.0626   19.4963 O   0  0  0  0  0  0  0  0  0  0  0  0
    7.6619  -14.6963   21.3619 C   0  0  2  0  0  0  0  0  0  0  0  0
    8.2753  -13.7931   20.4136 N   0  0  0  0  0  0  0  0  0  0  0  0
    8.2978  -14.5805   22.6764 C   0  0  0  0  0  0  0  0  0  0  0  0
    9.5425  -14.5654   22.8477 O   0  0  0  0  0  0  0  0  0  0  0  0
    5.6589  -11.8661   26.6669 C   0  0  0  0  0  0  0  0  0  0  0  0
    6.7739  -12.4928   25.9042 C   0  0  1  0  0  0  0  0  0  0  0  0
    8.0594  -11.7205   26.2577 C   0  0  0  0  0  0  0  0  0  0  0  0
    7.0198  -13.9426   26.1211 C   0  0  0  0  0  0  0  0  0  0  0  0
    8.0050  -14.5865   25.1799 C   0  0  2  0  0  0  0  0  0  0  0  0
    7.4874  -14.4785   23.8360 N   0  0  0  0  0  0  0  0  0  0  0  0
    8.3128  -15.9407   25.6334 C   0  0  0  0  0  0  0  0  0  0  0  0
    7.3547  -16.7577   25.7782 O   0  0  0  0  0  0  0  0  0  0  0  0
   10.0427  -18.7541   24.1069 C   0  0  0  0  0  0  0  0  0  0  0  0
   10.7640  -18.5328   25.4376 C   0  0  1  0  0  0  0  0  0  0  0  0
   11.8579  -17.7150   25.1595 O   0  0  0  0  0  0  0  0  0  0  0  0
    9.8723  -17.7721   26.4018 C   0  0  2  0  0  0  0  0  0  0  0  0
    9.6006  -16.4316   25.9264 N   0  0  0  0  0  0  0  0  0  0  0  0
   10.6369  -17.6618   27.6682 C   0  0  0  0  0  0  0  0  0  0  0  0
   10.9306  -18.7917   28.4481 O   0  0  0  0  0  0  0  0  0  0  0  0
   11.0732  -16.5738   28.1343 O   0  0  0  0  0  0  0  0  0  0  0  0
  2  1  1  1
  2  3  1  0
  4  2  1  0
  4  6  1  0
  4  5  1  6
  6 13  1  0
  6  7  2  0
  9  8  1  1
  9 10  1  0
 11  9  1  0
 12 11  1  1
 13 12  1  0
 14 12  1  0
 14 15  2  0
 17 16  1  6
 17 19  1  0
 18 17  1  0
 19 20  1  6
 20 14  1  0
 21 19  1  0
 22 21  1  0
 23 21  2  0
M  END
$$$$
