TLT.pdb
     RDKit          3D

 23 22  0  0  1  0  0  0  0  0999 V2000
    6.8798  -16.1100   19.6961 C   0  0  0  0  0  0  0  0  0  0  0  0
    7.3846  -16.1557   21.1074 C   0  0  1  0  0  0  0  0  0  0  0  0
    8.1598  -17.2820   21.3471 O   0  0  0  0  0  0  0  0  0  0  0  0
    8.1594  -14.9376   21.5045 C   0  0  2  0  0  0  0  0  0  0  0  0
    9.2492  -14.6629   20.5945 N   0  0  0  0  0  0  0  0  0  0  0  0
    8.6317  -14.9559   22.8909 C   0  0  0  0  0  0  0  0  0  0  0  0
    9.8209  -15.1971   23.2172 O   0  0  0  0  0  0  0  0  0  0  0  0
    5.6623  -11.9244   26.4007 C   0  0  0  0  0  0  0  0  0  0  0  0
    6.7990  -12.6389   25.7567 C   0  0  1  0  0  0  0  0  0  0  0  0
    8.0780  -11.8399   26.0722 C   0  0  0  0  0  0  0  0  0  0  0  0
    7.0214  -14.0570   26.1426 C   0  0  0  0  0  0  0  0  0  0  0  0
    8.0604  -14.7976   25.3408 C   0  0  2  0  0  0  0  0  0  0  0  0
    7.7173  -14.6902   23.9421 N   0  0  0  0  0  0  0  0  0  0  0  0
    8.2080  -16.1573   25.8544 C   0  0  0  0  0  0  0  0  0  0  0  0
    7.1742  -16.8869   25.9277 O   0  0  0  0  0  0  0  0  0  0  0  0
    9.8709  -19.1563   24.5875 C   0  0  0  0  0  0  0  0  0  0  0  0
   10.4549  -18.9440   25.9854 C   0  0  1  0  0  0  0  0  0  0  0  0
   11.6357  -18.2241   25.8120 O   0  0  0  0  0  0  0  0  0  0  0  0
    9.5259  -18.0823   26.8208 C   0  0  2  0  0  0  0  0  0  0  0  0
    9.4165  -16.7435   26.2801 N   0  0  0  0  0  0  0  0  0  0  0  0
   10.1524  -17.9839   28.1619 C   0  0  0  0  0  0  0  0  0  0  0  0
   10.3931  -19.1246   28.9441 O   0  0  0  0  0  0  0  0  0  0  0  0
   10.5098  -16.8971   28.6935 O   0  0  0  0  0  0  0  0  0  0  0  0
  2  1  1  6
  2  3  1  0
  4  2  1  0
  4  6  1  0
  4  5  1  6
  6 13  1  0
  6  7  2  0
  9  8  1  1
  9 10  1  0
 11  9  1  0
 12 11  1  1
 13 12  1  0
 14 12  1  0
 14 15  2  0
 17 16  1  6
 17 19  1  0
 18 17  1  0
 19 20  1  6
 20 14  1  0
 21 19  1  0
 22 21  1  0
 23 21  2  0
M  END
$$$$
