TLT.pdb
     RDKit          3D

 23 22  0  0  1  0  0  0  0  0999 V2000
    9.5998  -18.7898   19.3659 C   0  0  0  0  0  0  0  0  0  0  0  0
   10.8234  -18.4634   18.5628 C   0  0  1  0  0  0  0  0  0  0  0  0
   10.9294  -19.2572   17.4290 O   0  0  0  0  0  0  0  0  0  0  0  0
   10.9064  -17.0240   18.1590 C   0  0  2  0  0  0  0  0  0  0  0  0
   12.0221  -16.7682   17.2752 N   0  0  0  0  0  0  0  0  0  0  0  0
   10.9097  -16.0872   19.2851 C   0  0  0  0  0  0  0  0  0  0  0  0
   11.9512  -15.7341   19.8928 O   0  0  0  0  0  0  0  0  0  0  0  0
    6.7239  -12.5379   19.5226 C   0  0  0  0  0  0  0  0  0  0  0  0
    8.0512  -13.1920   19.6889 C   0  0  1  0  0  0  0  0  0  0  0  0
    9.1159  -12.0788   19.6575 C   0  0  0  0  0  0  0  0  0  0  0  0
    8.2610  -14.0110   20.9115 C   0  0  0  0  0  0  0  0  0  0  0  0
    9.5508  -14.7884   20.9644 C   0  0  2  0  0  0  0  0  0  0  0  0
    9.6836  -15.5334   19.7344 N   0  0  0  0  0  0  0  0  0  0  0  0
    9.6049  -15.5779   22.1924 C   0  0  0  0  0  0  0  0  0  0  0  0
    9.4751  -14.9753   23.2999 O   0  0  0  0  0  0  0  0  0  0  0  0
    7.5868  -18.8623   23.1095 C   0  0  0  0  0  0  0  0  0  0  0  0
    9.0881  -19.0714   23.3159 C   0  0  1  0  0  0  0  0  0  0  0  0
    9.5711  -19.6362   22.1368 O   0  0  0  0  0  0  0  0  0  0  0  0
    9.7885  -17.7363   23.4902 C   0  0  2  0  0  0  0  0  0  0  0  0
    9.7880  -16.9734   22.2595 N   0  0  0  0  0  0  0  0  0  0  0  0
   11.1971  -18.0529   23.8312 C   0  0  0  0  0  0  0  0  0  0  0  0
   11.5342  -18.6909   25.0355 O   0  0  0  0  0  0  0  0  0  0  0  0
   12.1791  -17.7821   23.0871 O   0  0  0  0  0  0  0  0  0  0  0  0
  2  1  1  6
  2  3  1  0
  4  2  1  0
  4  6  1  0
  4  5  1  1
  6 13  1  0
  6  7  2  0
  9  8  1  1
  9 10  1  0
 11  9  1  0
 12 11  1  6
 13 12  1  0
 14 12  1  0
 14 15  2  0
 17 16  1  6
 17 19  1  0
 18 17  1  0
 19 20  1  6
 20 14  1  0
 21 19  1  0
 22 21  1  0
 23 21  2  0
M  END
$$$$
