HVC.pdb
     RDKit          3D

 24 24  0  0  1  0  0  0  0  0999 V2000
   10.8459  -16.1647   19.9480 N   0  0  0  0  0  0  0  0  0  0  0  0
    9.8791  -16.7919   20.8082 C   0  0  1  0  0  0  0  0  0  0  0  0
    9.9833  -18.2869   20.6227 C   0  0  0  0  0  0  0  0  0  0  0  0
    9.6971  -18.5811   19.1968 C   0  0  0  0  0  0  0  0  0  0  0  0
    8.4969  -18.3680   18.5134 C   0  0  0  0  0  0  0  0  0  0  0  0
    8.6350  -18.7610   17.2430 N   0  0  0  0  0  0  0  0  0  0  0  0
    9.8777  -19.2206   17.0755 C   0  0  0  0  0  0  0  0  0  0  0  0
   10.5192  -19.1072   18.2727 N   0  0  0  0  0  0  0  0  0  0  0  0
   10.0458  -16.3889   22.2288 C   0  0  0  0  0  0  0  0  0  0  0  0
   11.1968  -16.3396   22.7329 O   0  0  0  0  0  0  0  0  0  0  0  0
    6.6938  -15.1789   24.9331 C   0  0  0  0  0  0  0  0  0  0  0  0
    8.0901  -14.6501   24.8946 C   0  0  2  0  0  0  0  0  0  0  0  0
    8.2221  -13.4036   24.0638 C   0  0  0  0  0  0  0  0  0  0  0  0
    9.1026  -15.6917   24.4685 C   0  0  2  0  0  0  0  0  0  0  0  0
    8.9547  -16.0468   23.0752 N   0  0  0  0  0  0  0  0  0  0  0  0
    9.0666  -16.8864   25.3495 C   0  0  0  0  0  0  0  0  0  0  0  0
    8.5936  -17.9873   24.9700 O   0  0  0  0  0  0  0  0  0  0  0  0
    9.5688  -16.8637   26.6910 N   0  0  0  0  0  0  0  0  0  0  0  0
   10.1810  -18.0161   27.3229 C   0  0  1  0  0  0  0  0  0  0  0  0
   11.3217  -18.5796   26.5285 C   0  0  0  0  0  0  0  0  0  0  0  0
   12.0419  -19.9353   27.5133 S   0  0  0  0  0  0  0  0  0  0  0  0
   10.5420  -17.7375   28.7361 C   0  0  0  0  0  0  0  0  0  0  0  0
   10.6705  -18.7866   29.6245 O   0  0  0  0  0  0  0  0  0  0  0  0
   10.7395  -16.5728   29.1691 O   0  0  0  0  0  0  0  0  0  0  0  0
  2  1  1  6
  3  2  1  0
  4  3  1  0
  5  4  2  0
  6  7  1  0
  6  5  1  0
  7  8  2  0
  8  4  1  0
  9  2  1  0
  9 10  2  0
 12 11  1  6
 12 13  1  0
 12 14  1  0
 14 15  1  6
 14 16  1  0
 15  9  1  0
 16 17  2  0
 16 18  1  0
 18 19  1  0
 19 22  1  0
 19 20  1  6
 20 21  1  0
 22 24  2  0
 22 23  1  0
M  END
$$$$
