HVC.pdb
     RDKit          3D

 24 24  0  0  1  0  0  0  0  0999 V2000
    9.2264  -17.4410   16.6415 N   0  0  0  0  0  0  0  0  0  0  0  0
    8.3579  -17.2997   17.7788 C   0  0  1  0  0  0  0  0  0  0  0  0
    7.9494  -18.6805   18.2339 C   0  0  0  0  0  0  0  0  0  0  0  0
    6.8278  -19.1223   17.3688 C   0  0  0  0  0  0  0  0  0  0  0  0
    6.2746  -18.4359   16.2845 C   0  0  0  0  0  0  0  0  0  0  0  0
    5.2811  -19.1616   15.7613 N   0  0  0  0  0  0  0  0  0  0  0  0
    5.1682  -20.2918   16.4638 C   0  0  0  0  0  0  0  0  0  0  0  0
    6.1158  -20.2598   17.4428 N   0  0  0  0  0  0  0  0  0  0  0  0
    8.9854  -16.5109   18.8706 C   0  0  0  0  0  0  0  0  0  0  0  0
   10.2185  -16.6209   19.0913 O   0  0  0  0  0  0  0  0  0  0  0  0
    6.6847  -14.1456   21.8368 C   0  0  0  0  0  0  0  0  0  0  0  0
    7.9863  -13.7238   21.2378 C   0  0  2  0  0  0  0  0  0  0  0  0
    7.8221  -12.7406   20.1117 C   0  0  0  0  0  0  0  0  0  0  0  0
    8.8446  -14.8950   20.8101 C   0  0  2  0  0  0  0  0  0  0  0  0
    8.2576  -15.6157   19.7031 N   0  0  0  0  0  0  0  0  0  0  0  0
    9.1569  -15.7934   21.9502 C   0  0  0  0  0  0  0  0  0  0  0  0
    8.3529  -16.6709   22.3542 O   0  0  0  0  0  0  0  0  0  0  0  0
   10.3958  -15.7198   22.6659 N   0  0  0  0  0  0  0  0  0  0  0  0
   10.7241  -16.6050   23.7661 C   0  0  1  0  0  0  0  0  0  0  0  0
   11.9764  -17.3948   23.5256 C   0  0  0  0  0  0  0  0  0  0  0  0
   11.7493  -18.2934   21.9547 S   0  0  0  0  0  0  0  0  0  0  0  0
   10.7356  -15.8834   25.0639 C   0  0  0  0  0  0  0  0  0  0  0  0
   10.9826  -16.5828   26.2285 O   0  0  0  0  0  0  0  0  0  0  0  0
   10.5277  -14.6459   25.1542 O   0  0  0  0  0  0  0  0  0  0  0  0
  2  1  1  6
  3  2  1  0
  4  3  1  0
  5  4  2  0
  6  7  1  0
  6  5  1  0
  7  8  2  0
  8  4  1  0
  9  2  1  0
  9 10  2  0
 12 11  1  6
 12 13  1  0
 12 14  1  0
 14 15  1  6
 14 16  1  0
 15  9  1  0
 16 17  2  0
 16 18  1  0
 18 19  1  0
 19 22  1  0
 19 20  1  6
 20 21  1  0
 22 24  2  0
 22 23  1  0
M  END
$$$$
