HVC.pdb
     RDKit          3D

 24 24  0  0  1  0  0  0  0  0999 V2000
   11.4286  -17.4520   17.0409 N   0  0  0  0  0  0  0  0  0  0  0  0
   10.1489  -17.4981   17.6950 C   0  0  1  0  0  0  0  0  0  0  0  0
    9.8344  -18.9404   18.0135 C   0  0  0  0  0  0  0  0  0  0  0  0
    9.4811  -19.6125   16.7388 C   0  0  0  0  0  0  0  0  0  0  0  0
   10.3383  -20.3123   15.8855 C   0  0  0  0  0  0  0  0  0  0  0  0
    9.6439  -20.7715   14.8393 N   0  0  0  0  0  0  0  0  0  0  0  0
    8.3698  -20.3970   14.9807 C   0  0  0  0  0  0  0  0  0  0  0  0
    8.2791  -19.6901   16.1424 N   0  0  0  0  0  0  0  0  0  0  0  0
   10.1034  -16.6332   18.9024 C   0  0  0  0  0  0  0  0  0  0  0  0
   11.0227  -16.7055   19.7574 O   0  0  0  0  0  0  0  0  0  0  0  0
    8.1620  -12.6773   21.2190 C   0  0  0  0  0  0  0  0  0  0  0  0
    8.0181  -13.7259   20.1652 C   0  0  2  0  0  0  0  0  0  0  0  0
    6.6102  -14.2386   20.0366 C   0  0  0  0  0  0  0  0  0  0  0  0
    8.9949  -14.8698   20.3356 C   0  0  2  0  0  0  0  0  0  0  0  0
    9.0564  -15.7042   19.1569 N   0  0  0  0  0  0  0  0  0  0  0  0
    8.7066  -15.6617   21.5581 C   0  0  0  0  0  0  0  0  0  0  0  0
    8.3503  -16.8660   21.5102 O   0  0  0  0  0  0  0  0  0  0  0  0
    8.8154  -15.1055   22.8738 N   0  0  0  0  0  0  0  0  0  0  0  0
    9.4379  -15.8093   23.9779 C   0  0  1  0  0  0  0  0  0  0  0  0
   10.8084  -16.3201   23.6455 C   0  0  0  0  0  0  0  0  0  0  0  0
   11.4037  -17.2430   25.1017 S   0  0  0  0  0  0  0  0  0  0  0  0
    9.4073  -15.0051   25.2260 C   0  0  0  0  0  0  0  0  0  0  0  0
    9.5038  -15.6416   26.4474 O   0  0  0  0  0  0  0  0  0  0  0  0
    9.2958  -13.7519   25.2233 O   0  0  0  0  0  0  0  0  0  0  0  0
  2  1  1  1
  3  2  1  0
  4  3  1  0
  5  4  2  0
  6  7  1  0
  6  5  1  0
  7  8  2  0
  8  4  1  0
  9  2  1  0
  9 10  2  0
 12 11  1  1
 12 13  1  0
 12 14  1  0
 14 15  1  6
 14 16  1  0
 15  9  1  0
 16 17  2  0
 16 18  1  0
 18 19  1  0
 19 22  1  0
 19 20  1  6
 20 21  1  0
 22 24  2  0
 22 23  1  0
M  END
$$$$
