HVC.pdb
     RDKit          3D

 24 24  0  0  1  0  0  0  0  0999 V2000
    9.0745  -15.5363   20.7717 N   0  0  0  0  0  0  0  0  0  0  0  0
    8.1592  -15.7776   21.8542 C   0  0  1  0  0  0  0  0  0  0  0  0
    7.9631  -17.2696   21.9815 C   0  0  0  0  0  0  0  0  0  0  0  0
    7.2882  -17.7383   20.7462 C   0  0  0  0  0  0  0  0  0  0  0  0
    6.9893  -16.9852   19.6076 C   0  0  0  0  0  0  0  0  0  0  0  0
    6.3788  -17.7645   18.7090 N   0  0  0  0  0  0  0  0  0  0  0  0
    6.2699  -18.9935   19.2200 C   0  0  0  0  0  0  0  0  0  0  0  0
    6.8274  -18.9689   20.4635 N   0  0  0  0  0  0  0  0  0  0  0  0
    8.6177  -15.1605   23.1259 C   0  0  0  0  0  0  0  0  0  0  0  0
    9.8438  -15.1419   23.4045 O   0  0  0  0  0  0  0  0  0  0  0  0
    6.7692  -12.0176   25.0415 C   0  0  0  0  0  0  0  0  0  0  0  0
    7.1347  -13.1342   25.9635 C   0  0  2  0  0  0  0  0  0  0  0  0
    7.5820  -12.6545   27.3168 C   0  0  0  0  0  0  0  0  0  0  0  0
    8.1509  -14.0833   25.3651 C   0  0  2  0  0  0  0  0  0  0  0  0
    7.7314  -14.5744   24.0719 N   0  0  0  0  0  0  0  0  0  0  0  0
    8.4827  -15.1919   26.2955 C   0  0  0  0  0  0  0  0  0  0  0  0
    7.6331  -16.0461   26.6532 O   0  0  0  0  0  0  0  0  0  0  0  0
    9.7938  -15.3616   26.8473 N   0  0  0  0  0  0  0  0  0  0  0  0
   10.1272  -16.4257   27.7739 C   0  0  1  0  0  0  0  0  0  0  0  0
   11.2621  -17.2816   27.2953 C   0  0  0  0  0  0  0  0  0  0  0  0
   11.1370  -17.3697   25.4779 S   0  0  0  0  0  0  0  0  0  0  0  0
   10.3336  -15.9077   29.1502 C   0  0  0  0  0  0  0  0  0  0  0  0
   10.5614  -16.7948   30.1834 O   0  0  0  0  0  0  0  0  0  0  0  0
   10.3103  -14.6800   29.4239 O   0  0  0  0  0  0  0  0  0  0  0  0
  2  1  1  6
  3  2  1  0
  4  3  1  0
  5  4  2  0
  6  7  1  0
  6  5  1  0
  7  8  2  0
  8  4  1  0
  9  2  1  0
  9 10  2  0
 12 11  1  6
 12 13  1  0
 12 14  1  0
 14 15  1  6
 14 16  1  0
 15  9  1  0
 16 17  2  0
 16 18  1  0
 18 19  1  0
 19 22  1  0
 19 20  1  6
 20 21  1  0
 22 24  2  0
 22 23  1  0
M  END
$$$$
