HVC.pdb
     RDKit          3D

 24 24  0  0  1  0  0  0  0  0999 V2000
   11.5650  -16.4159   15.9610 N   0  0  0  0  0  0  0  0  0  0  0  0
   10.2922  -16.5222   16.6217 C   0  0  1  0  0  0  0  0  0  0  0  0
    9.9679  -17.9879   16.7861 C   0  0  0  0  0  0  0  0  0  0  0  0
    9.9766  -18.6016   15.4353 C   0  0  0  0  0  0  0  0  0  0  0  0
    9.3626  -18.1116   14.2795 C   0  0  0  0  0  0  0  0  0  0  0  0
    9.5989  -18.9483   13.2639 N   0  0  0  0  0  0  0  0  0  0  0  0
   10.3422  -19.9618   13.7155 C   0  0  0  0  0  0  0  0  0  0  0  0
   10.5682  -19.7424   15.0416 N   0  0  0  0  0  0  0  0  0  0  0  0
   10.2682  -15.7926   17.9160 C   0  0  0  0  0  0  0  0  0  0  0  0
   11.2972  -15.7687   18.6385 O   0  0  0  0  0  0  0  0  0  0  0  0
    8.4326  -12.1787   20.6907 C   0  0  0  0  0  0  0  0  0  0  0  0
    8.2911  -13.0793   19.5078 C   0  0  2  0  0  0  0  0  0  0  0  0
    6.8577  -13.3906   19.1761 C   0  0  0  0  0  0  0  0  0  0  0  0
    9.1032  -14.3504   19.6351 C   0  0  2  0  0  0  0  0  0  0  0  0
    9.1228  -15.1018   18.4003 N   0  0  0  0  0  0  0  0  0  0  0  0
    8.6495  -15.1808   20.7794 C   0  0  0  0  0  0  0  0  0  0  0  0
    7.6029  -15.8752   20.7326 O   0  0  0  0  0  0  0  0  0  0  0  0
    9.3746  -15.2456   22.0132 N   0  0  0  0  0  0  0  0  0  0  0  0
    9.9734  -16.4682   22.5120 C   0  0  1  0  0  0  0  0  0  0  0  0
   10.7864  -17.1848   21.4751 C   0  0  0  0  0  0  0  0  0  0  0  0
   11.4484  -18.6917   22.2609 S   0  0  0  0  0  0  0  0  0  0  0  0
   10.7206  -16.2358   23.7741 C   0  0  0  0  0  0  0  0  0  0  0  0
   11.0170  -14.9439   24.1607 O   0  0  0  0  0  0  0  0  0  0  0  0
   11.1024  -17.1747   24.5194 O   0  0  0  0  0  0  0  0  0  0  0  0
  2  1  1  1
  3  2  1  0
  4  3  1  0
  5  4  2  0
  6  7  1  0
  6  5  1  0
  7  8  2  0
  8  4  1  0
  9  2  1  0
  9 10  2  0
 12 11  1  1
 12 13  1  0
 12 14  1  0
 14 15  1  6
 14 16  1  0
 15  9  1  0
 16 17  2  0
 16 18  1  0
 18 19  1  0
 19 22  1  0
 19 20  1  6
 20 21  1  0
 22 24  2  0
 22 23  1  0
M  END
$$$$
