HVC.pdb
     RDKit          3D

 24 24  0  0  1  0  0  0  0  0999 V2000
    9.2082  -18.0581   17.3157 N   0  0  0  0  0  0  0  0  0  0  0  0
    8.2227  -17.8578   18.3435 C   0  0  1  0  0  0  0  0  0  0  0  0
    7.9682  -19.1853   19.0170 C   0  0  0  0  0  0  0  0  0  0  0  0
    7.2014  -20.0284   18.0670 C   0  0  0  0  0  0  0  0  0  0  0  0
    6.7855  -19.6860   16.7776 C   0  0  0  0  0  0  0  0  0  0  0  0
    6.1202  -20.7133   16.2395 N   0  0  0  0  0  0  0  0  0  0  0  0
    6.0883  -21.7086   17.1294 C   0  0  0  0  0  0  0  0  0  0  0  0
    6.7504  -21.2824   18.2418 N   0  0  0  0  0  0  0  0  0  0  0  0
    8.6259  -16.8048   19.3113 C   0  0  0  0  0  0  0  0  0  0  0  0
    9.8039  -16.7783   19.7504 O   0  0  0  0  0  0  0  0  0  0  0  0
    7.2680  -13.0431   19.0703 C   0  0  0  0  0  0  0  0  0  0  0  0
    7.3061  -13.4928   20.4940 C   0  0  2  0  0  0  0  0  0  0  0  0
    7.7431  -12.4084   21.4398 C   0  0  0  0  0  0  0  0  0  0  0  0
    8.1305  -14.7466   20.6936 C   0  0  2  0  0  0  0  0  0  0  0  0
    7.7377  -15.7988   19.7836 N   0  0  0  0  0  0  0  0  0  0  0  0
    8.1064  -15.2015   22.1068 C   0  0  0  0  0  0  0  0  0  0  0  0
    7.0456  -15.5536   22.6815 O   0  0  0  0  0  0  0  0  0  0  0  0
    9.2911  -15.2693   22.9095 N   0  0  0  0  0  0  0  0  0  0  0  0
    9.3452  -15.9716   24.1768 C   0  0  1  0  0  0  0  0  0  0  0  0
    8.7599  -17.3507   24.1049 C   0  0  0  0  0  0  0  0  0  0  0  0
    7.3093  -17.3751   25.2102 S   0  0  0  0  0  0  0  0  0  0  0  0
   10.7132  -15.9531   24.7542 C   0  0  0  0  0  0  0  0  0  0  0  0
   10.8848  -16.1904   26.1035 O   0  0  0  0  0  0  0  0  0  0  0  0
   11.7392  -15.7280   24.0617 O   0  0  0  0  0  0  0  0  0  0  0  0
  2  1  1  6
  3  2  1  0
  4  3  1  0
  5  4  2  0
  6  7  1  0
  6  5  1  0
  7  8  2  0
  8  4  1  0
  9  2  1  0
  9 10  2  0
 12 11  1  6
 12 13  1  0
 12 14  1  0
 14 15  1  6
 14 16  1  0
 15  9  1  0
 16 17  2  0
 16 18  1  0
 18 19  1  0
 19 22  1  0
 19 20  1  6
 20 21  1  0
 22 24  2  0
 22 23  1  0
M  END
$$$$
