HVC.pdb
     RDKit          3D

 24 24  0  0  1  0  0  0  0  0999 V2000
    5.9965  -16.3089   25.8855 N   0  0  0  0  0  0  0  0  0  0  0  0
    6.9629  -15.5446   25.1441 C   0  0  1  0  0  0  0  0  0  0  0  0
    7.7923  -14.7535   26.1273 C   0  0  0  0  0  0  0  0  0  0  0  0
    6.9965  -13.5680   26.5307 C   0  0  0  0  0  0  0  0  0  0  0  0
    6.0581  -12.8768   25.7596 C   0  0  0  0  0  0  0  0  0  0  0  0
    5.5550  -11.8659   26.4755 N   0  0  0  0  0  0  0  0  0  0  0  0
    6.1303  -11.8743   27.6807 C   0  0  0  0  0  0  0  0  0  0  0  0
    7.0086  -12.9162   27.7060 N   0  0  0  0  0  0  0  0  0  0  0  0
    7.7999  -16.4000   24.2633 C   0  0  0  0  0  0  0  0  0  0  0  0
    8.1683  -17.5345   24.6616 O   0  0  0  0  0  0  0  0  0  0  0  0
   10.1654  -16.9980   19.8752 C   0  0  0  0  0  0  0  0  0  0  0  0
    9.2980  -16.1727   20.7680 C   0  0  2  0  0  0  0  0  0  0  0  0
    9.7438  -14.7391   20.8567 C   0  0  0  0  0  0  0  0  0  0  0  0
    9.1339  -16.7725   22.1481 C   0  0  2  0  0  0  0  0  0  0  0  0
    8.2207  -16.0038   22.9633 N   0  0  0  0  0  0  0  0  0  0  0  0
   10.4427  -16.9697   22.8212 C   0  0  0  0  0  0  0  0  0  0  0  0
   11.1460  -16.0067   23.2184 O   0  0  0  0  0  0  0  0  0  0  0  0
   10.9909  -18.2710   23.0629 N   0  0  0  0  0  0  0  0  0  0  0  0
   12.2784  -18.4785   23.6963 C   0  0  1  0  0  0  0  0  0  0  0  0
   12.1959  -19.3521   24.9128 C   0  0  0  0  0  0  0  0  0  0  0  0
   11.1322  -18.4916   26.1189 S   0  0  0  0  0  0  0  0  0  0  0  0
   13.2996  -18.9390   22.7215 C   0  0  0  0  0  0  0  0  0  0  0  0
   14.6150  -19.0630   23.1224 O   0  0  0  0  0  0  0  0  0  0  0  0
   13.0189  -19.2261   21.5292 O   0  0  0  0  0  0  0  0  0  0  0  0
  2  1  1  1
  3  2  1  0
  4  3  1  0
  5  4  2  0
  6  7  1  0
  6  5  1  0
  7  8  2  0
  8  4  1  0
  9  2  1  0
  9 10  2  0
 12 11  1  6
 12 13  1  0
 12 14  1  0
 14 15  1  1
 14 16  1  0
 15  9  1  0
 16 17  2  0
 16 18  1  0
 18 19  1  0
 19 22  1  0
 19 20  1  1
 20 21  1  0
 22 24  2  0
 22 23  1  0
M  END
$$$$
