HVC.pdb
     RDKit          3D

 24 24  0  0  1  0  0  0  0  0999 V2000
    7.7328  -17.2826   20.6026 N   0  0  0  0  0  0  0  0  0  0  0  0
    7.5698  -16.0116   21.2549 C   0  0  1  0  0  0  0  0  0  0  0  0
    6.5313  -15.2217   20.4946 C   0  0  0  0  0  0  0  0  0  0  0  0
    7.2427  -14.4196   19.4690 C   0  0  0  0  0  0  0  0  0  0  0  0
    8.6212  -14.3613   19.2470 C   0  0  0  0  0  0  0  0  0  0  0  0
    8.8715  -13.5260   18.2335 N   0  0  0  0  0  0  0  0  0  0  0  0
    7.7095  -13.0401   17.7896 C   0  0  0  0  0  0  0  0  0  0  0  0
    6.7206  -13.5905   18.5490 N   0  0  0  0  0  0  0  0  0  0  0  0
    7.2232  -16.1579   22.6925 C   0  0  0  0  0  0  0  0  0  0  0  0
    6.0377  -16.4120   23.0263 O   0  0  0  0  0  0  0  0  0  0  0  0
    8.4751  -18.8444   24.9092 C   0  0  0  0  0  0  0  0  0  0  0  0
    7.4167  -17.8346   25.2102 C   0  0  2  0  0  0  0  0  0  0  0  0
    6.1737  -18.0244   24.3853 C   0  0  0  0  0  0  0  0  0  0  0  0
    7.9172  -16.4094   25.1106 C   0  0  2  0  0  0  0  0  0  0  0  0
    8.1751  -16.0246   23.7413 N   0  0  0  0  0  0  0  0  0  0  0  0
    9.0984  -16.1793   25.9805 C   0  0  0  0  0  0  0  0  0  0  0  0
   10.2671  -16.4638   25.6160 O   0  0  0  0  0  0  0  0  0  0  0  0
    8.9844  -15.6174   27.2934 N   0  0  0  0  0  0  0  0  0  0  0  0
   10.1344  -15.2434   28.0931 C   0  0  1  0  0  0  0  0  0  0  0  0
    9.9360  -13.9538   28.8328 C   0  0  0  0  0  0  0  0  0  0  0  0
    8.7636  -12.9525   27.8584 S   0  0  0  0  0  0  0  0  0  0  0  0
   10.5719  -16.3550   28.9753 C   0  0  0  0  0  0  0  0  0  0  0  0
   11.7172  -16.2111   29.7329 O   0  0  0  0  0  0  0  0  0  0  0  0
    9.9388  -17.4383   29.0666 O   0  0  0  0  0  0  0  0  0  0  0  0
  2  1  1  6
  3  2  1  0
  4  3  1  0
  5  4  2  0
  6  7  1  0
  6  5  1  0
  7  8  2  0
  8  4  1  0
  9  2  1  0
  9 10  2  0
 12 11  1  6
 12 13  1  0
 12 14  1  0
 14 15  1  6
 14 16  1  0
 15  9  1  0
 16 17  2  0
 16 18  1  0
 18 19  1  0
 19 22  1  0
 19 20  1  1
 20 21  1  0
 22 24  2  0
 22 23  1  0
M  END
$$$$
