HVC.pdb
     RDKit          3D

 24 24  0  0  1  0  0  0  0  0999 V2000
   11.9904  -18.5571   21.1738 N   0  0  0  0  0  0  0  0  0  0  0  0
   12.4121  -17.2048   21.4210 C   0  0  1  0  0  0  0  0  0  0  0  0
   12.4386  -16.4710   20.1013 C   0  0  0  0  0  0  0  0  0  0  0  0
   13.4670  -17.1191   19.2506 C   0  0  0  0  0  0  0  0  0  0  0  0
   14.7864  -17.4202   19.5994 C   0  0  0  0  0  0  0  0  0  0  0  0
   15.3971  -18.0012   18.5616 N   0  0  0  0  0  0  0  0  0  0  0  0
   14.5257  -18.0887   17.5534 C   0  0  0  0  0  0  0  0  0  0  0  0
   13.3504  -17.5481   17.9822 N   0  0  0  0  0  0  0  0  0  0  0  0
   11.5549  -16.5235   22.4256 C   0  0  0  0  0  0  0  0  0  0  0  0
   11.7739  -15.3208   22.7204 O   0  0  0  0  0  0  0  0  0  0  0  0
    8.1824  -18.5229   24.4291 C   0  0  0  0  0  0  0  0  0  0  0  0
    8.2205  -17.0781   24.0525 C   0  0  2  0  0  0  0  0  0  0  0  0
    7.5285  -16.7939   22.7480 C   0  0  0  0  0  0  0  0  0  0  0  0
    9.6219  -16.5057   24.0552 C   0  0  2  0  0  0  0  0  0  0  0  0
   10.4738  -17.1652   23.0914 N   0  0  0  0  0  0  0  0  0  0  0  0
   10.2171  -16.5148   25.4155 C   0  0  0  0  0  0  0  0  0  0  0  0
   10.9834  -17.4305   25.8077 O   0  0  0  0  0  0  0  0  0  0  0  0
    9.9575  -15.4800   26.3716 N   0  0  0  0  0  0  0  0  0  0  0  0
   10.4111  -15.5460   27.7470 C   0  0  1  0  0  0  0  0  0  0  0  0
   10.2644  -14.2417   28.4729 C   0  0  0  0  0  0  0  0  0  0  0  0
   10.0193  -12.9500   27.2087 S   0  0  0  0  0  0  0  0  0  0  0  0
    9.7928  -16.6846   28.4727 C   0  0  0  0  0  0  0  0  0  0  0  0
   10.3124  -17.0775   29.6901 O   0  0  0  0  0  0  0  0  0  0  0  0
    8.8028  -17.3181   28.0240 O   0  0  0  0  0  0  0  0  0  0  0  0
  2  1  1  6
  3  2  1  0
  4  3  1  0
  5  4  2  0
  6  7  1  0
  6  5  1  0
  7  8  2  0
  8  4  1  0
  9  2  1  0
  9 10  2  0
 12 11  1  6
 12 13  1  0
 12 14  1  0
 14 15  1  6
 14 16  1  0
 15  9  1  0
 16 17  2  0
 16 18  1  0
 18 19  1  0
 19 22  1  0
 19 20  1  1
 20 21  1  0
 22 24  2  0
 22 23  1  0
M  END
$$$$
