HVC.pdb
     RDKit          3D

 24 24  0  0  1  0  0  0  0  0999 V2000
   11.8307  -17.7903   20.8833 N   0  0  0  0  0  0  0  0  0  0  0  0
   10.7349  -17.8552   21.8121 C   0  0  1  0  0  0  0  0  0  0  0  0
   11.1714  -18.6812   22.9985 C   0  0  0  0  0  0  0  0  0  0  0  0
   11.2266  -20.0977   22.5606 C   0  0  0  0  0  0  0  0  0  0  0  0
   10.2768  -20.7860   21.8009 C   0  0  0  0  0  0  0  0  0  0  0  0
   10.6870  -22.0447   21.6140 N   0  0  0  0  0  0  0  0  0  0  0  0
   11.8657  -22.1998   22.2225 C   0  0  0  0  0  0  0  0  0  0  0  0
   12.1877  -21.0069   22.7977 N   0  0  0  0  0  0  0  0  0  0  0  0
   10.2564  -16.5064   22.2119 C   0  0  0  0  0  0  0  0  0  0  0  0
   11.0484  -15.7014   22.7650 O   0  0  0  0  0  0  0  0  0  0  0  0
    8.0000  -14.1098   20.0397 C   0  0  0  0  0  0  0  0  0  0  0  0
    7.4520  -14.1834   21.4271 C   0  0  2  0  0  0  0  0  0  0  0  0
    6.9119  -12.8673   21.9146 C   0  0  0  0  0  0  0  0  0  0  0  0
    8.4376  -14.7625   22.4195 C   0  0  2  0  0  0  0  0  0  0  0  0
    8.9225  -16.0585   22.0017 N   0  0  0  0  0  0  0  0  0  0  0  0
    7.8766  -14.7998   23.7938 C   0  0  0  0  0  0  0  0  0  0  0  0
    7.1176  -15.7219   24.1851 O   0  0  0  0  0  0  0  0  0  0  0  0
    8.1633  -13.7867   24.7653 N   0  0  0  0  0  0  0  0  0  0  0  0
    7.4502  -13.6766   26.0229 C   0  0  1  0  0  0  0  0  0  0  0  0
    8.0848  -12.7017   26.9698 C   0  0  0  0  0  0  0  0  0  0  0  0
    9.8593  -13.1145   27.0537 S   0  0  0  0  0  0  0  0  0  0  0  0
    6.0033  -13.4184   25.8103 C   0  0  0  0  0  0  0  0  0  0  0  0
    5.1320  -13.5127   26.8772 O   0  0  0  0  0  0  0  0  0  0  0  0
    5.5263  -13.1129   24.6869 O   0  0  0  0  0  0  0  0  0  0  0  0
  2  1  1  6
  3  2  1  0
  4  3  1  0
  5  4  2  0
  6  7  1  0
  6  5  1  0
  7  8  2  0
  8  4  1  0
  9  2  1  0
  9 10  2  0
 12 11  1  6
 12 13  1  0
 12 14  1  0
 14 15  1  6
 14 16  1  0
 15  9  1  0
 16 17  2  0
 16 18  1  0
 18 19  1  0
 19 22  1  0
 19 20  1  1
 20 21  1  0
 22 24  2  0
 22 23  1  0
M  END
$$$$
