HVC.pdb
     RDKit          3D

 24 24  0  0  1  0  0  0  0  0999 V2000
   10.4202  -16.8344   15.9101 N   0  0  0  0  0  0  0  0  0  0  0  0
    9.4032  -17.0738   16.8980 C   0  0  1  0  0  0  0  0  0  0  0  0
    9.3351  -18.5607   17.1531 C   0  0  0  0  0  0  0  0  0  0  0  0
    8.6878  -19.1870   15.9741 C   0  0  0  0  0  0  0  0  0  0  0  0
    7.7276  -18.6169   15.1339 C   0  0  0  0  0  0  0  0  0  0  0  0
    7.3910  -19.4967   14.1851 N   0  0  0  0  0  0  0  0  0  0  0  0
    8.0953  -20.6150   14.3769 C   0  0  0  0  0  0  0  0  0  0  0  0
    8.8841  -20.4176   15.4707 N   0  0  0  0  0  0  0  0  0  0  0  0
    9.6374  -16.2999   18.1447 C   0  0  0  0  0  0  0  0  0  0  0  0
   10.7929  -16.2451   18.6379 O   0  0  0  0  0  0  0  0  0  0  0  0
    7.4836  -12.9295   19.1970 C   0  0  0  0  0  0  0  0  0  0  0  0
    7.7024  -13.8807   20.3276 C   0  0  2  0  0  0  0  0  0  0  0  0
    7.9044  -13.1871   21.6465 C   0  0  0  0  0  0  0  0  0  0  0  0
    8.8198  -14.8662   20.0600 C   0  0  2  0  0  0  0  0  0  0  0  0
    8.6078  -15.5990   18.8322 N   0  0  0  0  0  0  0  0  0  0  0  0
    9.0402  -15.7744   21.2139 C   0  0  0  0  0  0  0  0  0  0  0  0
    8.2192  -16.6724   21.5287 O   0  0  0  0  0  0  0  0  0  0  0  0
   10.2036  -15.6873   22.0453 N   0  0  0  0  0  0  0  0  0  0  0  0
   10.4532  -16.5939   23.1489 C   0  0  1  0  0  0  0  0  0  0  0  0
   11.6688  -17.4471   22.9394 C   0  0  0  0  0  0  0  0  0  0  0  0
   11.4697  -18.2764   21.3273 S   0  0  0  0  0  0  0  0  0  0  0  0
   10.4647  -15.8801   24.4510 C   0  0  0  0  0  0  0  0  0  0  0  0
   10.6278  -16.5986   25.6188 O   0  0  0  0  0  0  0  0  0  0  0  0
   10.3309  -14.6324   24.5423 O   0  0  0  0  0  0  0  0  0  0  0  0
  2  1  1  6
  3  2  1  0
  4  3  1  0
  5  4  2  0
  6  7  1  0
  6  5  1  0
  7  8  2  0
  8  4  1  0
  9  2  1  0
  9 10  2  0
 12 11  1  6
 12 13  1  0
 12 14  1  0
 14 15  1  6
 14 16  1  0
 15  9  1  0
 16 17  2  0
 16 18  1  0
 18 19  1  0
 19 22  1  0
 19 20  1  6
 20 21  1  0
 22 24  2  0
 22 23  1  0
M  END
$$$$
