HVC.pdb
     RDKit          3D

 24 24  0  0  1  0  0  0  0  0999 V2000
    9.1767  -15.9577   20.4231 N   0  0  0  0  0  0  0  0  0  0  0  0
    8.4388  -16.2512   21.6219 C   0  0  1  0  0  0  0  0  0  0  0  0
    8.5110  -17.7395   21.8670 C   0  0  0  0  0  0  0  0  0  0  0  0
    7.9605  -18.4169   20.6672 C   0  0  0  0  0  0  0  0  0  0  0  0
    6.6140  -18.5760   20.3287 C   0  0  0  0  0  0  0  0  0  0  0  0
    6.5238  -19.2408   19.1722 N   0  0  0  0  0  0  0  0  0  0  0  0
    7.7590  -19.5192   18.7474 C   0  0  0  0  0  0  0  0  0  0  0  0
    8.6297  -19.0129   19.6655 N   0  0  0  0  0  0  0  0  0  0  0  0
    8.9234  -15.4657   22.7866 C   0  0  0  0  0  0  0  0  0  0  0  0
   10.1579  -15.3748   23.0084 O   0  0  0  0  0  0  0  0  0  0  0  0
    7.9538  -12.4978   26.6845 C   0  0  0  0  0  0  0  0  0  0  0  0
    7.4400  -13.3018   25.5355 C   0  0  2  0  0  0  0  0  0  0  0  0
    6.1879  -14.0656   25.8678 C   0  0  0  0  0  0  0  0  0  0  0  0
    8.4888  -14.2180   24.9422 C   0  0  2  0  0  0  0  0  0  0  0  0
    8.0537  -14.7930   23.6894 N   0  0  0  0  0  0  0  0  0  0  0  0
    8.9185  -15.2605   25.9083 C   0  0  0  0  0  0  0  0  0  0  0  0
    9.0180  -16.4722   25.5895 O   0  0  0  0  0  0  0  0  0  0  0  0
    9.2482  -14.9545   27.2685 N   0  0  0  0  0  0  0  0  0  0  0  0
   10.2020  -15.7262   28.0409 C   0  0  1  0  0  0  0  0  0  0  0  0
   11.5311  -15.8617   27.3591 C   0  0  0  0  0  0  0  0  0  0  0  0
   12.4197  -14.2872   27.6003 S   0  0  0  0  0  0  0  0  0  0  0  0
   10.3147  -15.2212   29.4328 C   0  0  0  0  0  0  0  0  0  0  0  0
   10.9632  -15.9850   30.3828 O   0  0  0  0  0  0  0  0  0  0  0  0
    9.8398  -14.1133   29.7933 O   0  0  0  0  0  0  0  0  0  0  0  0
  2  1  1  6
  3  2  1  0
  4  3  1  0
  5  4  2  0
  6  7  1  0
  6  5  1  0
  7  8  2  0
  8  4  1  0
  9  2  1  0
  9 10  2  0
 12 11  1  1
 12 13  1  0
 12 14  1  0
 14 15  1  6
 14 16  1  0
 15  9  1  0
 16 17  2  0
 16 18  1  0
 18 19  1  0
 19 22  1  0
 19 20  1  6
 20 21  1  0
 22 24  2  0
 22 23  1  0
M  END
$$$$
