HVC.pdb
     RDKit          3D

 24 24  0  0  1  0  0  0  0  0999 V2000
    9.0177  -17.3078   16.3158 N   0  0  0  0  0  0  0  0  0  0  0  0
    8.2413  -17.3543   17.5252 C   0  0  1  0  0  0  0  0  0  0  0  0
    7.9972  -18.8035   17.8728 C   0  0  0  0  0  0  0  0  0  0  0  0
    7.0958  -19.3655   16.8369 C   0  0  0  0  0  0  0  0  0  0  0  0
    5.8771  -18.8393   16.4001 C   0  0  0  0  0  0  0  0  0  0  0  0
    5.3647  -19.6342   15.4551 N   0  0  0  0  0  0  0  0  0  0  0  0
    6.2033  -20.6555   15.2618 C   0  0  0  0  0  0  0  0  0  0  0  0
    7.2571  -20.4838   16.1090 N   0  0  0  0  0  0  0  0  0  0  0  0
    8.8883  -16.6110   18.6374 C   0  0  0  0  0  0  0  0  0  0  0  0
   10.1093  -16.7888   18.8803 O   0  0  0  0  0  0  0  0  0  0  0  0
    6.7144  -14.1498   21.6618 C   0  0  0  0  0  0  0  0  0  0  0  0
    7.9871  -13.7694   20.9790 C   0  0  2  0  0  0  0  0  0  0  0  0
    7.7744  -12.8321   19.8223 C   0  0  0  0  0  0  0  0  0  0  0  0
    8.8102  -14.9678   20.5574 C   0  0  2  0  0  0  0  0  0  0  0  0
    8.1929  -15.6866   19.4657 N   0  0  0  0  0  0  0  0  0  0  0  0
    9.1109  -15.8600   21.7056 C   0  0  0  0  0  0  0  0  0  0  0  0
    8.3865  -16.8440   21.9999 O   0  0  0  0  0  0  0  0  0  0  0  0
   10.2470  -15.6584   22.5546 N   0  0  0  0  0  0  0  0  0  0  0  0
   10.5679  -16.5358   23.6633 C   0  0  1  0  0  0  0  0  0  0  0  0
   11.7891  -17.3698   23.4126 C   0  0  0  0  0  0  0  0  0  0  0  0
   13.1845  -16.2191   23.1777 S   0  0  0  0  0  0  0  0  0  0  0  0
   10.6279  -15.7939   24.9483 C   0  0  0  0  0  0  0  0  0  0  0  0
   10.8615  -16.4836   26.1213 O   0  0  0  0  0  0  0  0  0  0  0  0
   10.4735  -14.5473   25.0201 O   0  0  0  0  0  0  0  0  0  0  0  0
  2  1  1  6
  3  2  1  0
  4  3  1  0
  5  4  2  0
  6  7  1  0
  6  5  1  0
  7  8  2  0
  8  4  1  0
  9  2  1  0
  9 10  2  0
 12 11  1  6
 12 13  1  0
 12 14  1  0
 14 15  1  6
 14 16  1  0
 15  9  1  0
 16 17  2  0
 16 18  1  0
 18 19  1  0
 19 22  1  0
 19 20  1  6
 20 21  1  0
 22 24  2  0
 22 23  1  0
M  END
$$$$
