HVC.pdb
     RDKit          3D

 24 24  0  0  1  0  0  0  0  0999 V2000
   10.3180  -16.4496   15.8562 N   0  0  0  0  0  0  0  0  0  0  0  0
    9.3996  -16.8131   16.9011 C   0  0  1  0  0  0  0  0  0  0  0  0
    9.3861  -18.3190   17.0135 C   0  0  0  0  0  0  0  0  0  0  0  0
    8.8592  -18.8576   15.7353 C   0  0  0  0  0  0  0  0  0  0  0  0
    7.5438  -18.7926   15.2681 C   0  0  0  0  0  0  0  0  0  0  0  0
    7.4673  -19.3919   14.0755 N   0  0  0  0  0  0  0  0  0  0  0  0
    8.6816  -19.8431   13.7507 C   0  0  0  0  0  0  0  0  0  0  0  0
    9.5252  -19.5128   14.7690 N   0  0  0  0  0  0  0  0  0  0  0  0
    9.7290  -16.1562   18.1927 C   0  0  0  0  0  0  0  0  0  0  0  0
   10.9227  -16.1162   18.5863 O   0  0  0  0  0  0  0  0  0  0  0  0
    6.7644  -14.1464   20.9340 C   0  0  0  0  0  0  0  0  0  0  0  0
    8.1569  -13.7436   20.5745 C   0  0  2  0  0  0  0  0  0  0  0  0
    8.2074  -12.7556   19.4418 C   0  0  0  0  0  0  0  0  0  0  0  0
    9.0594  -14.9270   20.2982 C   0  0  2  0  0  0  0  0  0  0  0  0
    8.7514  -15.5541   19.0327 N   0  0  0  0  0  0  0  0  0  0  0  0
    9.0437  -15.9037   21.4165 C   0  0  0  0  0  0  0  0  0  0  0  0
    8.7040  -17.1031   21.2566 O   0  0  0  0  0  0  0  0  0  0  0  0
    9.4148  -15.5436   22.7526 N   0  0  0  0  0  0  0  0  0  0  0  0
   10.4141  -16.2663   23.5148 C   0  0  1  0  0  0  0  0  0  0  0  0
   11.6870  -16.4816   22.7513 C   0  0  0  0  0  0  0  0  0  0  0  0
   12.7691  -17.5147   23.7946 S   0  0  0  0  0  0  0  0  0  0  0  0
   10.6360  -15.6506   24.8478 C   0  0  0  0  0  0  0  0  0  0  0  0
   10.6869  -16.4555   25.9685 O   0  0  0  0  0  0  0  0  0  0  0  0
   10.7822  -14.4112   25.0071 O   0  0  0  0  0  0  0  0  0  0  0  0
  2  1  1  6
  3  2  1  0
  4  3  1  0
  5  4  2  0
  6  7  1  0
  6  5  1  0
  7  8  2  0
  8  4  1  0
  9  2  1  0
  9 10  2  0
 12 11  1  6
 12 13  1  0
 12 14  1  0
 14 15  1  6
 14 16  1  0
 15  9  1  0
 16 17  2  0
 16 18  1  0
 18 19  1  0
 19 22  1  0
 19 20  1  6
 20 21  1  0
 22 24  2  0
 22 23  1  0
M  END
$$$$
