HVC.pdb
     RDKit          3D

 24 24  0  0  1  0  0  0  0  0999 V2000
    8.8309  -17.4528   16.7005 N   0  0  0  0  0  0  0  0  0  0  0  0
    8.1097  -17.4114   17.9438 C   0  0  1  0  0  0  0  0  0  0  0  0
    7.8676  -18.8319   18.3955 C   0  0  0  0  0  0  0  0  0  0  0  0
    6.8666  -19.4282   17.4768 C   0  0  0  0  0  0  0  0  0  0  0  0
    5.8666  -18.7592   16.7660 C   0  0  0  0  0  0  0  0  0  0  0  0
    5.1670  -19.6435   16.0475 N   0  0  0  0  0  0  0  0  0  0  0  0
    5.6741  -20.8598   16.2644 C   0  0  0  0  0  0  0  0  0  0  0  0
    6.7110  -20.7194   17.1378 N   0  0  0  0  0  0  0  0  0  0  0  0
    8.8137  -16.6060   18.9753 C   0  0  0  0  0  0  0  0  0  0  0  0
   10.0407  -16.7896   19.1808 O   0  0  0  0  0  0  0  0  0  0  0  0
    6.7724  -13.9178   21.9123 C   0  0  0  0  0  0  0  0  0  0  0  0
    8.0660  -13.6431   21.2181 C   0  0  2  0  0  0  0  0  0  0  0  0
    7.9109  -12.7410   20.0249 C   0  0  0  0  0  0  0  0  0  0  0  0
    8.8142  -14.9053   20.8461 C   0  0  2  0  0  0  0  0  0  0  0  0
    8.1678  -15.6145   19.7651 N   0  0  0  0  0  0  0  0  0  0  0  0
    9.0372  -15.7802   22.0249 C   0  0  0  0  0  0  0  0  0  0  0  0
    8.2322  -16.6893   22.3489 O   0  0  0  0  0  0  0  0  0  0  0  0
   10.1851  -15.6461   22.8715 N   0  0  0  0  0  0  0  0  0  0  0  0
   10.4314  -16.5118   24.0081 C   0  0  1  0  0  0  0  0  0  0  0  0
   11.7789  -17.1688   23.9597 C   0  0  0  0  0  0  0  0  0  0  0  0
   11.9049  -18.2413   25.4296 S   0  0  0  0  0  0  0  0  0  0  0  0
   10.1740  -15.8137   25.2932 C   0  0  0  0  0  0  0  0  0  0  0  0
    9.8816  -14.4643   25.2872 O   0  0  0  0  0  0  0  0  0  0  0  0
   10.2101  -16.4024   26.4045 O   0  0  0  0  0  0  0  0  0  0  0  0
  2  1  1  6
  3  2  1  0
  4  3  1  0
  5  4  2  0
  6  7  1  0
  6  5  1  0
  7  8  2  0
  8  4  1  0
  9  2  1  0
  9 10  2  0
 12 11  1  6
 12 13  1  0
 12 14  1  0
 14 15  1  6
 14 16  1  0
 15  9  1  0
 16 17  2  0
 16 18  1  0
 18 19  1  0
 19 22  1  0
 19 20  1  1
 20 21  1  0
 22 24  2  0
 22 23  1  0
M  END
$$$$
