PTR.pdb
     RDKit          3D

 26 26  0  0  1  0  0  0  0  0999 V2000
   27.5355  -21.1419  -16.0619 N   0  0  0  0  0  0  0  0  0  0  0  0
   27.8583  -20.1656  -17.0918 C   0  0  0  0  0  0  0  0  0  0  0  0
   27.0887  -18.9093  -16.7860 C   0  0  0  0  0  0  0  0  0  0  0  0
   26.1950  -19.3358  -15.6116 C   0  0  0  0  0  0  0  0  0  0  0  0
   27.1386  -20.3127  -14.9371 C   0  0  1  0  0  0  0  0  0  0  0  0
   26.5309  -21.0795  -13.8491 C   0  0  0  0  0  0  0  0  0  0  0  0
   26.8907  -22.2455  -13.5378 O   0  0  0  0  0  0  0  0  0  0  0  0
   26.9339  -21.2336  -10.6064 C   0  0  0  0  0  0  0  0  0  0  0  0
   25.4743  -20.8485  -10.6556 C   0  0  1  0  0  0  0  0  0  0  0  0
   25.3576  -19.4816  -10.3451 O   0  0  0  0  0  0  0  0  0  0  0  0
   24.8513  -21.1605  -11.9904 C   0  0  2  0  0  0  0  0  0  0  0  0
   25.4780  -20.4997  -13.0901 N   0  0  0  0  0  0  0  0  0  0  0  0
   23.3695  -20.9184  -11.9609 C   0  0  0  0  0  0  0  0  0  0  0  0
   22.8260  -20.0291  -12.6778 O   0  0  0  0  0  0  0  0  0  0  0  0
   16.7067  -24.4745   -7.7967 N   0  0  0  0  0  0  0  0  0  0  0  0
   16.2688  -24.5391   -9.1294 C   0  0  0  0  0  0  0  0  0  0  0  0
   15.0160  -24.7811   -9.3809 N   0  0  0  0  0  0  0  0  0  0  0  0
   17.1881  -24.3409  -10.1919 N   0  0  0  0  0  0  0  0  0  0  0  0
   18.5659  -23.9981   -9.9410 C   0  0  0  0  0  0  0  0  0  0  0  0
   18.9288  -22.6204  -10.5108 C   0  0  0  0  0  0  0  0  0  0  0  0
   20.3687  -22.3920  -10.1537 C   0  0  0  0  0  0  0  0  0  0  0  0
   21.0900  -21.4320  -11.0489 C   0  0  2  0  0  0  0  0  0  0  0  0
   22.5108  -21.6774  -11.1261 N   0  0  0  0  0  0  0  0  0  0  0  0
   20.9114  -20.0758  -10.4330 C   0  0  0  0  0  0  0  0  0  0  0  0
   21.7668  -19.6367   -9.4402 O   0  0  0  0  0  0  0  0  0  0  0  0
   19.9865  -19.3082  -10.7995 O   0  0  0  0  0  0  0  0  0  0  0  0
  2  1  1  0
  3  2  1  0
  4  3  1  0
  4  5  1  0
  5  1  1  0
  5  6  1  1
  6  7  2  0
  9  8  1  6
 10  9  1  0
 11  9  1  0
 11 12  1  6
 12  6  1  0
 13 11  1  0
 14 13  2  0
 16 15  1  0
 17 16  2  0
 18 16  1  0
 19 18  1  0
 20 19  1  0
 20 21  1  0
 22 21  1  1
 22 24  1  0
 22 23  1  0
 23 13  1  0
 24 25  1  0
 26 24  2  0
M  END
$$$$
