PTR.pdb
     RDKit          3D

 26 26  0  0  1  0  0  0  0  0999 V2000
   25.2622  -21.9320  -15.5525 N   0  0  0  0  0  0  0  0  0  0  0  0
   26.4923  -22.1411  -16.3017 C   0  0  0  0  0  0  0  0  0  0  0  0
   27.1910  -20.8130  -16.4102 C   0  0  0  0  0  0  0  0  0  0  0  0
   26.1643  -19.8391  -15.8123 C   0  0  0  0  0  0  0  0  0  0  0  0
   25.5566  -20.7492  -14.7625 C   0  0  1  0  0  0  0  0  0  0  0  0
   24.3746  -20.1960  -14.1008 C   0  0  0  0  0  0  0  0  0  0  0  0
   24.2966  -19.0031  -13.7048 O   0  0  0  0  0  0  0  0  0  0  0  0
   22.3339  -18.4026  -14.8593 C   0  0  0  0  0  0  0  0  0  0  0  0
   21.4065  -19.5712  -14.6237 C   0  0  1  0  0  0  0  0  0  0  0  0
   21.1876  -20.2274  -15.8484 O   0  0  0  0  0  0  0  0  0  0  0  0
   21.9432  -20.5192  -13.5843 C   0  0  2  0  0  0  0  0  0  0  0  0
   23.2434  -21.0287  -13.8822 N   0  0  0  0  0  0  0  0  0  0  0  0
   20.9604  -21.6191  -13.3025 C   0  0  0  0  0  0  0  0  0  0  0  0
   21.0992  -22.7772  -13.7924 O   0  0  0  0  0  0  0  0  0  0  0  0
   19.4462  -24.2723   -7.5110 N   0  0  0  0  0  0  0  0  0  0  0  0
   18.0542  -24.3951   -7.3724 C   0  0  0  0  0  0  0  0  0  0  0  0
   17.5323  -24.4600   -6.1830 N   0  0  0  0  0  0  0  0  0  0  0  0
   17.2254  -24.4474   -8.5229 N   0  0  0  0  0  0  0  0  0  0  0  0
   17.6882  -23.9795   -9.8058 C   0  0  0  0  0  0  0  0  0  0  0  0
   17.9437  -22.4665   -9.8082 C   0  0  0  0  0  0  0  0  0  0  0  0
   17.7970  -22.0252  -11.2354 C   0  0  0  0  0  0  0  0  0  0  0  0
   18.9040  -22.4662  -12.1429 C   0  0  2  0  0  0  0  0  0  0  0  0
   19.8301  -21.4088  -12.4729 N   0  0  0  0  0  0  0  0  0  0  0  0
   18.2472  -22.8903  -13.4232 C   0  0  0  0  0  0  0  0  0  0  0  0
   18.0249  -24.2282  -13.6894 O   0  0  0  0  0  0  0  0  0  0  0  0
   17.8844  -22.0478  -14.2819 O   0  0  0  0  0  0  0  0  0  0  0  0
  2  1  1  0
  3  2  1  0
  4  3  1  0
  4  5  1  0
  5  1  1  0
  5  6  1  6
  6  7  2  0
  9  8  1  6
 10  9  1  0
 11  9  1  0
 11 12  1  6
 12  6  1  0
 13 11  1  0
 14 13  2  0
 16 15  1  0
 17 16  2  0
 18 16  1  0
 19 18  1  0
 20 19  1  0
 20 21  1  0
 22 21  1  1
 22 24  1  0
 22 23  1  0
 23 13  1  0
 24 25  1  0
 26 24  2  0
M  END
$$$$
