PTR.pdb
     RDKit          3D

 26 26  0  0  1  0  0  0  0  0999 V2000
   28.0871  -21.8387  -17.8267 N   0  0  0  0  0  0  0  0  0  0  0  0
   29.1508  -22.6829  -18.3501 C   0  0  0  0  0  0  0  0  0  0  0  0
   29.9735  -23.1557  -17.1824 C   0  0  0  0  0  0  0  0  0  0  0  0
   29.3785  -22.3669  -16.0061 C   0  0  0  0  0  0  0  0  0  0  0  0
   27.9334  -22.3132  -16.4625 C   0  0  1  0  0  0  0  0  0  0  0  0
   27.0795  -21.4464  -15.6495 C   0  0  0  0  0  0  0  0  0  0  0  0
   26.9124  -21.6025  -14.4112 O   0  0  0  0  0  0  0  0  0  0  0  0
   27.2988  -17.7914  -14.9843 C   0  0  0  0  0  0  0  0  0  0  0  0
   25.9565  -18.0298  -15.6343 C   0  0  1  0  0  0  0  0  0  0  0  0
   26.0171  -17.5903  -16.9691 O   0  0  0  0  0  0  0  0  0  0  0  0
   25.5366  -19.4734  -15.5532 C   0  0  2  0  0  0  0  0  0  0  0  0
   26.3924  -20.3660  -16.2671 N   0  0  0  0  0  0  0  0  0  0  0  0
   24.0978  -19.6372  -15.9509 C   0  0  0  0  0  0  0  0  0  0  0  0
   23.7682  -20.0715  -17.0924 O   0  0  0  0  0  0  0  0  0  0  0  0
   17.7246  -22.9894  -11.6303 N   0  0  0  0  0  0  0  0  0  0  0  0
   18.8110  -23.3647  -12.4369 C   0  0  0  0  0  0  0  0  0  0  0  0
   19.3459  -24.5403  -12.2846 N   0  0  0  0  0  0  0  0  0  0  0  0
   19.3194  -22.4664  -13.4106 N   0  0  0  0  0  0  0  0  0  0  0  0
   18.7733  -21.1416  -13.5705 C   0  0  0  0  0  0  0  0  0  0  0  0
   19.4040  -20.3987  -14.7557 C   0  0  0  0  0  0  0  0  0  0  0  0
   20.8535  -20.2218  -14.4081 C   0  0  0  0  0  0  0  0  0  0  0  0
   21.6517  -19.4637  -15.4238 C   0  0  2  0  0  0  0  0  0  0  0  0
   23.0415  -19.3116  -15.0631 N   0  0  0  0  0  0  0  0  0  0  0  0
   21.0580  -18.0869  -15.4751 C   0  0  0  0  0  0  0  0  0  0  0  0
   19.8516  -17.8652  -16.1121 O   0  0  0  0  0  0  0  0  0  0  0  0
   21.6366  -17.1055  -14.9451 O   0  0  0  0  0  0  0  0  0  0  0  0
  2  1  1  0
  3  2  1  0
  4  3  1  0
  4  5  1  0
  5  1  1  0
  5  6  1  1
  6  7  2  0
  9  8  1  6
 10  9  1  0
 11  9  1  0
 11 12  1  6
 12  6  1  0
 13 11  1  0
 14 13  2  0
 16 15  1  0
 17 16  2  0
 18 16  1  0
 19 18  1  0
 20 19  1  0
 20 21  1  0
 22 21  1  1
 22 24  1  0
 22 23  1  0
 23 13  1  0
 24 25  1  0
 26 24  2  0
M  END
$$$$
