PTR.pdb
     RDKit          3D

 26 26  0  0  1  0  0  0  0  0999 V2000
   26.2591  -21.6157  -15.3818 N   0  0  0  0  0  0  0  0  0  0  0  0
   27.2199  -22.6050  -15.8470 C   0  0  0  0  0  0  0  0  0  0  0  0
   26.4436  -23.7709  -16.3964 C   0  0  0  0  0  0  0  0  0  0  0  0
   24.9934  -23.4126  -16.0378 C   0  0  0  0  0  0  0  0  0  0  0  0
   25.0791  -21.9051  -16.1780 C   0  0  1  0  0  0  0  0  0  0  0  0
   23.8889  -21.1911  -15.7150 C   0  0  0  0  0  0  0  0  0  0  0  0
   23.7878  -19.9359  -15.7204 O   0  0  0  0  0  0  0  0  0  0  0  0
   21.9286  -19.3371  -16.3311 C   0  0  0  0  0  0  0  0  0  0  0  0
   20.9618  -20.4255  -15.9290 C   0  0  1  0  0  0  0  0  0  0  0  0
   20.5999  -21.1541  -17.0765 O   0  0  0  0  0  0  0  0  0  0  0  0
   21.5339  -21.3271  -14.8674 C   0  0  2  0  0  0  0  0  0  0  0  0
   22.7764  -21.9307  -15.2290 N   0  0  0  0  0  0  0  0  0  0  0  0
   20.5226  -22.3457  -14.4261 C   0  0  0  0  0  0  0  0  0  0  0  0
   20.8159  -23.5717  -14.3191 O   0  0  0  0  0  0  0  0  0  0  0  0
   19.9435  -24.5255   -7.3419 N   0  0  0  0  0  0  0  0  0  0  0  0
   18.9222  -25.2563   -7.9703 C   0  0  0  0  0  0  0  0  0  0  0  0
   18.6297  -26.4482   -7.5402 N   0  0  0  0  0  0  0  0  0  0  0  0
   18.2159  -24.6960   -9.0660 N   0  0  0  0  0  0  0  0  0  0  0  0
   18.6088  -23.4381   -9.6510 C   0  0  0  0  0  0  0  0  0  0  0  0
   17.6592  -23.0053  -10.7759 C   0  0  0  0  0  0  0  0  0  0  0  0
   18.5044  -22.2557  -11.7642 C   0  0  0  0  0  0  0  0  0  0  0  0
   18.3803  -22.7301  -13.1795 C   0  0  2  0  0  0  0  0  0  0  0  0
   19.1904  -21.9786  -14.1089 N   0  0  0  0  0  0  0  0  0  0  0  0
   16.9480  -22.5094  -13.5672 C   0  0  0  0  0  0  0  0  0  0  0  0
   16.0639  -23.5703  -13.6240 O   0  0  0  0  0  0  0  0  0  0  0  0
   16.5162  -21.3635  -13.8490 O   0  0  0  0  0  0  0  0  0  0  0  0
  2  1  1  0
  3  2  1  0
  4  3  1  0
  4  5  1  0
  5  1  1  0
  5  6  1  1
  6  7  2  0
  9  8  1  6
 10  9  1  0
 11  9  1  0
 11 12  1  6
 12  6  1  0
 13 11  1  0
 14 13  2  0
 16 15  1  0
 17 16  2  0
 18 16  1  0
 19 18  1  0
 20 19  1  0
 20 21  1  0
 22 21  1  1
 22 24  1  0
 22 23  1  0
 23 13  1  0
 24 25  1  0
 26 24  2  0
M  END
$$$$
