PTR.pdb
     RDKit          3D

 26 26  0  0  1  0  0  0  0  0999 V2000
   31.2141  -20.7024  -11.4487 N   0  0  0  0  0  0  0  0  0  0  0  0
   31.9747  -21.7604  -10.8006 C   0  0  0  0  0  0  0  0  0  0  0  0
   30.9968  -22.6501  -10.0823 C   0  0  0  0  0  0  0  0  0  0  0  0
   29.6677  -21.8978  -10.2482 C   0  0  0  0  0  0  0  0  0  0  0  0
   29.9021  -21.3011  -11.6226 C   0  0  1  0  0  0  0  0  0  0  0  0
   28.8846  -20.3355  -12.0387 C   0  0  0  0  0  0  0  0  0  0  0  0
   29.0816  -19.0922  -12.0724 O   0  0  0  0  0  0  0  0  0  0  0  0
   27.7289  -19.7026  -15.1938 C   0  0  0  0  0  0  0  0  0  0  0  0
   27.1077  -18.9882  -14.0170 C   0  0  1  0  0  0  0  0  0  0  0  0
   26.0818  -18.1494  -14.4886 O   0  0  0  0  0  0  0  0  0  0  0  0
   26.5932  -19.9494  -12.9785 C   0  0  2  0  0  0  0  0  0  0  0  0
   27.5993  -20.8007  -12.4291 N   0  0  0  0  0  0  0  0  0  0  0  0
   25.4225  -20.7302  -13.5029 C   0  0  0  0  0  0  0  0  0  0  0  0
   25.5764  -21.7371  -14.2532 O   0  0  0  0  0  0  0  0  0  0  0  0
   19.8197  -22.9032   -8.7301 N   0  0  0  0  0  0  0  0  0  0  0  0
   18.8994  -22.9512   -9.7896 C   0  0  0  0  0  0  0  0  0  0  0  0
   17.7464  -23.5257   -9.6110 N   0  0  0  0  0  0  0  0  0  0  0  0
   19.2270  -22.3759  -11.0447 N   0  0  0  0  0  0  0  0  0  0  0  0
   20.3426  -22.8534  -11.8234 C   0  0  0  0  0  0  0  0  0  0  0  0
   20.6268  -21.9534  -13.0331 C   0  0  0  0  0  0  0  0  0  0  0  0
   21.8021  -21.1029  -12.6480 C   0  0  0  0  0  0  0  0  0  0  0  0
   22.9529  -21.1567  -13.6052 C   0  0  2  0  0  0  0  0  0  0  0  0
   24.0889  -20.3732  -13.1803 N   0  0  0  0  0  0  0  0  0  0  0  0
   22.4566  -20.5521  -14.8854 C   0  0  0  0  0  0  0  0  0  0  0  0
   21.7315  -21.3098  -15.7856 O   0  0  0  0  0  0  0  0  0  0  0  0
   22.6850  -19.3503  -15.1723 O   0  0  0  0  0  0  0  0  0  0  0  0
  2  1  1  0
  3  2  1  0
  4  3  1  0
  4  5  1  0
  5  1  1  0
  5  6  1  1
  6  7  2  0
  9  8  1  6
 10  9  1  0
 11  9  1  0
 11 12  1  6
 12  6  1  0
 13 11  1  0
 14 13  2  0
 16 15  1  0
 17 16  2  0
 18 16  1  0
 19 18  1  0
 20 19  1  0
 20 21  1  0
 22 21  1  1
 22 24  1  0
 22 23  1  0
 23 13  1  0
 24 25  1  0
 26 24  2  0
M  END
$$$$
