PTR.pdb
     RDKit          3D

 26 26  0  0  1  0  0  0  0  0999 V2000
   14.4488  -23.4596   -2.3015 N   0  0  0  0  0  0  0  0  0  0  0  0
   13.3804  -23.3783   -3.2863 C   0  0  0  0  0  0  0  0  0  0  0  0
   12.1504  -22.8716   -2.5832 C   0  0  0  0  0  0  0  0  0  0  0  0
   12.5866  -22.8476   -1.1104 C   0  0  0  0  0  0  0  0  0  0  0  0
   14.0470  -22.4865   -1.3007 C   0  0  1  0  0  0  0  0  0  0  0  0
   14.8475  -22.5612   -0.0781 C   0  0  0  0  0  0  0  0  0  0  0  0
   15.3426  -23.6322    0.3618 O   0  0  0  0  0  0  0  0  0  0  0  0
   17.9061  -20.2754    0.6348 C   0  0  0  0  0  0  0  0  0  0  0  0
   16.9290  -20.1786    1.7825 C   0  0  1  0  0  0  0  0  0  0  0  0
   16.2537  -18.9477    1.6974 O   0  0  0  0  0  0  0  0  0  0  0  0
   15.9615  -21.3322    1.8010 C   0  0  2  0  0  0  0  0  0  0  0  0
   15.0924  -21.3768    0.6691 N   0  0  0  0  0  0  0  0  0  0  0  0
   15.2004  -21.3737    3.0949 C   0  0  0  0  0  0  0  0  0  0  0  0
   13.9979  -20.9885    3.1722 O   0  0  0  0  0  0  0  0  0  0  0  0
   16.9269  -25.6497   10.6722 N   0  0  0  0  0  0  0  0  0  0  0  0
   15.6758  -25.0609   10.9169 C   0  0  0  0  0  0  0  0  0  0  0  0
   15.0347  -25.3502   12.0107 N   0  0  0  0  0  0  0  0  0  0  0  0
   15.1175  -24.1569    9.9764 N   0  0  0  0  0  0  0  0  0  0  0  0
   15.7932  -23.8421    8.7422 C   0  0  0  0  0  0  0  0  0  0  0  0
   14.9499  -22.9304    7.8411 C   0  0  0  0  0  0  0  0  0  0  0  0
   15.7264  -22.7777    6.5656 C   0  0  0  0  0  0  0  0  0  0  0  0
   15.0877  -21.8830    5.5483 C   0  0  2  0  0  0  0  0  0  0  0  0
   15.7965  -21.8473    4.2909 N   0  0  0  0  0  0  0  0  0  0  0  0
   15.1409  -20.4978    6.1220 C   0  0  0  0  0  0  0  0  0  0  0  0
   14.0805  -19.9997    6.8553 O   0  0  0  0  0  0  0  0  0  0  0  0
   16.1425  -19.7583    5.9525 O   0  0  0  0  0  0  0  0  0  0  0  0
  2  1  1  0
  3  2  1  0
  4  3  1  0
  4  5  1  0
  5  1  1  0
  5  6  1  1
  6  7  2  0
  9  8  1  6
 10  9  1  0
 11  9  1  0
 11 12  1  6
 12  6  1  0
 13 11  1  0
 14 13  2  0
 16 15  1  0
 17 16  2  0
 18 16  1  0
 19 18  1  0
 20 19  1  0
 20 21  1  0
 22 21  1  1
 22 24  1  0
 22 23  1  0
 23 13  1  0
 24 25  1  0
 26 24  2  0
M  END
$$$$
