PTR.pdb
     RDKit          3D

 26 26  0  0  1  0  0  0  0  0999 V2000
   38.2877   -5.5288   -7.8084 N   0  0  0  0  0  0  0  0  0  0  0  0
   37.3525   -4.5063   -7.3634 C   0  0  0  0  0  0  0  0  0  0  0  0
   36.1182   -5.2052   -6.8614 C   0  0  0  0  0  0  0  0  0  0  0  0
   36.3868   -6.6731   -7.2262 C   0  0  0  0  0  0  0  0  0  0  0  0
   37.8912   -6.6938   -7.0366 C   0  0  1  0  0  0  0  0  0  0  0  0
   38.5361   -7.9261   -7.4912 C   0  0  0  0  0  0  0  0  0  0  0  0
   38.2531   -9.0654   -7.0353 O   0  0  0  0  0  0  0  0  0  0  0  0
   38.5504   -9.4016  -10.9044 C   0  0  0  0  0  0  0  0  0  0  0  0
   39.9947   -9.1674  -10.5300 C   0  0  1  0  0  0  0  0  0  0  0  0
   40.4619   -8.0347  -11.2207 O   0  0  0  0  0  0  0  0  0  0  0  0
   40.1763   -9.0140   -9.0432 C   0  0  2  0  0  0  0  0  0  0  0  0
   39.5372   -7.8593   -8.4983 N   0  0  0  0  0  0  0  0  0  0  0  0
   41.6295   -9.0795   -8.6703 C   0  0  0  0  0  0  0  0  0  0  0  0
   42.2946   -8.0381   -8.3994 O   0  0  0  0  0  0  0  0  0  0  0  0
   46.5998  -16.0785   -6.5748 N   0  0  0  0  0  0  0  0  0  0  0  0
   47.1973  -15.0018   -5.9000 C   0  0  0  0  0  0  0  0  0  0  0  0
   48.1358  -15.2326   -5.0298 N   0  0  0  0  0  0  0  0  0  0  0  0
   46.7789  -13.6726   -6.1676 N   0  0  0  0  0  0  0  0  0  0  0  0
   45.8199  -13.3795   -7.2036 C   0  0  0  0  0  0  0  0  0  0  0  0
   45.5579  -11.8734   -7.3355 C   0  0  0  0  0  0  0  0  0  0  0  0
   44.1037  -11.7359   -7.6810 C   0  0  0  0  0  0  0  0  0  0  0  0
   43.7175  -10.4010   -8.2398 C   0  0  2  0  0  0  0  0  0  0  0  0
   42.3233  -10.3142   -8.6052 N   0  0  0  0  0  0  0  0  0  0  0  0
   44.5132  -10.2327   -9.5004 C   0  0  0  0  0  0  0  0  0  0  0  0
   45.8475   -9.8761   -9.4469 O   0  0  0  0  0  0  0  0  0  0  0  0
   43.9928  -10.4095  -10.6303 O   0  0  0  0  0  0  0  0  0  0  0  0
  2  1  1  0
  3  2  1  0
  4  3  1  0
  4  5  1  0
  5  1  1  0
  5  6  1  6
  6  7  2  0
  9  8  1  1
 10  9  1  0
 11  9  1  0
 11 12  1  6
 12  6  1  0
 13 11  1  0
 14 13  2  0
 16 15  1  0
 17 16  2  0
 18 16  1  0
 19 18  1  0
 20 19  1  0
 20 21  1  0
 22 21  1  6
 22 24  1  0
 22 23  1  0
 23 13  1  0
 24 25  1  0
 26 24  2  0
M  END
$$$$
