PTR.pdb
     RDKit          3D

 26 26  0  0  1  0  0  0  0  0999 V2000
   24.8989  -14.6241  -19.4565 N   0  0  0  0  0  0  0  0  0  0  0  0
   24.9180  -15.8755  -20.1994 C   0  0  0  0  0  0  0  0  0  0  0  0
   24.5930  -16.9832  -19.2343 C   0  0  0  0  0  0  0  0  0  0  0  0
   24.5649  -16.2572  -17.8808 C   0  0  0  0  0  0  0  0  0  0  0  0
   24.0181  -14.9193  -18.3398 C   0  0  1  0  0  0  0  0  0  0  0  0
   24.0339  -13.8798  -17.3101 C   0  0  0  0  0  0  0  0  0  0  0  0
   23.3287  -13.9259  -16.2678 O   0  0  0  0  0  0  0  0  0  0  0  0
   26.3554   -9.9114  -15.4434 C   0  0  0  0  0  0  0  0  0  0  0  0
   26.2926  -10.9832  -16.5057 C   0  0  1  0  0  0  0  0  0  0  0  0
   27.3505  -11.8867  -16.2981 O   0  0  0  0  0  0  0  0  0  0  0  0
   24.9639  -11.6913  -16.5175 C   0  0  2  0  0  0  0  0  0  0  0  0
   24.8806  -12.7495  -17.4725 N   0  0  0  0  0  0  0  0  0  0  0  0
   23.8350  -10.7120  -16.6652 C   0  0  0  0  0  0  0  0  0  0  0  0
   23.4904  -10.2592  -17.7951 O   0  0  0  0  0  0  0  0  0  0  0  0
   15.6721  -11.2195  -15.1023 N   0  0  0  0  0  0  0  0  0  0  0  0
   15.7527   -9.8350  -15.3229 C   0  0  0  0  0  0  0  0  0  0  0  0
   14.6600   -9.1452  -15.4696 N   0  0  0  0  0  0  0  0  0  0  0  0
   17.0179   -9.1957  -15.3845 N   0  0  0  0  0  0  0  0  0  0  0  0
   18.2446   -9.9383  -15.2343 C   0  0  0  0  0  0  0  0  0  0  0  0
   19.4782   -9.0799  -15.5439 C   0  0  0  0  0  0  0  0  0  0  0  0
   20.6626   -9.9896  -15.3934 C   0  0  0  0  0  0  0  0  0  0  0  0
   21.9860   -9.3431  -15.6661 C   0  0  2  0  0  0  0  0  0  0  0  0
   23.1030  -10.2497  -15.5425 N   0  0  0  0  0  0  0  0  0  0  0  0
   22.1576   -8.2885  -14.6129 C   0  0  0  0  0  0  0  0  0  0  0  0
   21.4334   -7.1128  -14.6713 O   0  0  0  0  0  0  0  0  0  0  0  0
   22.9581   -8.4437  -13.6570 O   0  0  0  0  0  0  0  0  0  0  0  0
  2  1  1  0
  3  2  1  0
  4  3  1  0
  4  5  1  0
  5  1  1  0
  5  6  1  1
  6  7  2  0
  9  8  1  1
 10  9  1  0
 11  9  1  0
 11 12  1  6
 12  6  1  0
 13 11  1  0
 14 13  2  0
 16 15  1  0
 17 16  2  0
 18 16  1  0
 19 18  1  0
 20 19  1  0
 20 21  1  0
 22 21  1  1
 22 24  1  0
 22 23  1  0
 23 13  1  0
 24 25  1  0
 26 24  2  0
M  END
$$$$
