PTR.pdb
     RDKit          3D

 26 26  0  0  1  0  0  0  0  0999 V2000
   25.1761  -20.0840  -17.4502 N   0  0  0  0  0  0  0  0  0  0  0  0
   26.1240  -20.1317  -18.5535 C   0  0  0  0  0  0  0  0  0  0  0  0
   26.5305  -18.7172  -18.8663 C   0  0  0  0  0  0  0  0  0  0  0  0
   25.6027  -17.8896  -17.9640 C   0  0  0  0  0  0  0  0  0  0  0  0
   25.5111  -18.8374  -16.7839 C   0  0  1  0  0  0  0  0  0  0  0  0
   24.5254  -18.4463  -15.7756 C   0  0  0  0  0  0  0  0  0  0  0  0
   24.4787  -17.2980  -15.2610 O   0  0  0  0  0  0  0  0  0  0  0  0
   22.4614  -16.6610  -15.3355 C   0  0  0  0  0  0  0  0  0  0  0  0
   21.6177  -17.8993  -15.1458 C   0  0  1  0  0  0  0  0  0  0  0  0
   21.0449  -18.2488  -16.3820 O   0  0  0  0  0  0  0  0  0  0  0  0
   22.4108  -19.0418  -14.5688 C   0  0  2  0  0  0  0  0  0  0  0  0
   23.5608  -19.3945  -15.3381 N   0  0  0  0  0  0  0  0  0  0  0  0
   21.5284  -20.2274  -14.3028 C   0  0  0  0  0  0  0  0  0  0  0  0
   21.3452  -21.1289  -15.1713 O   0  0  0  0  0  0  0  0  0  0  0  0
   18.3736  -24.3965   -7.6873 N   0  0  0  0  0  0  0  0  0  0  0  0
   18.2686  -25.2645   -8.7862 C   0  0  0  0  0  0  0  0  0  0  0  0
   17.4147  -26.2447   -8.7489 N   0  0  0  0  0  0  0  0  0  0  0  0
   19.0889  -25.0712   -9.9278 N   0  0  0  0  0  0  0  0  0  0  0  0
   19.7376  -23.8092  -10.1836 C   0  0  0  0  0  0  0  0  0  0  0  0
   18.8372  -22.8492  -10.9725 C   0  0  0  0  0  0  0  0  0  0  0  0
   19.6945  -21.6652  -11.3133 C   0  0  0  0  0  0  0  0  0  0  0  0
   20.0614  -21.5552  -12.7613 C   0  0  2  0  0  0  0  0  0  0  0  0
   20.8592  -20.3903  -13.0635 N   0  0  0  0  0  0  0  0  0  0  0  0
   18.7682  -21.4074  -13.5071 C   0  0  0  0  0  0  0  0  0  0  0  0
   18.0930  -22.5209  -13.9704 O   0  0  0  0  0  0  0  0  0  0  0  0
   18.2676  -20.2767  -13.7297 O   0  0  0  0  0  0  0  0  0  0  0  0
  2  1  1  0
  3  2  1  0
  4  3  1  0
  4  5  1  0
  5  1  1  0
  5  6  1  1
  6  7  2  0
  9  8  1  6
 10  9  1  0
 11  9  1  0
 11 12  1  6
 12  6  1  0
 13 11  1  0
 14 13  2  0
 16 15  1  0
 17 16  2  0
 18 16  1  0
 19 18  1  0
 20 19  1  0
 20 21  1  0
 22 21  1  1
 22 24  1  0
 22 23  1  0
 23 13  1  0
 24 25  1  0
 26 24  2  0
M  END
$$$$
