PTR.pdb
     RDKit          3D

 26 26  0  0  1  0  0  0  0  0999 V2000
   22.9386  -20.5850  -16.1276 N   0  0  0  0  0  0  0  0  0  0  0  0
   24.0028  -20.1589  -17.0244 C   0  0  0  0  0  0  0  0  0  0  0  0
   24.6378  -18.9324  -16.4275 C   0  0  0  0  0  0  0  0  0  0  0  0
   23.7270  -18.6275  -15.2286 C   0  0  0  0  0  0  0  0  0  0  0  0
   23.3562  -20.0469  -14.8446 C   0  0  1  0  0  0  0  0  0  0  0  0
   22.3147  -20.1386  -13.8209 C   0  0  0  0  0  0  0  0  0  0  0  0
   22.4561  -19.7044  -12.6474 O   0  0  0  0  0  0  0  0  0  0  0  0
   19.4585  -18.3272  -13.4236 C   0  0  0  0  0  0  0  0  0  0  0  0
   18.9121  -19.7301  -13.5443 C   0  0  1  0  0  0  0  0  0  0  0  0
   18.3762  -19.8961  -14.8342 O   0  0  0  0  0  0  0  0  0  0  0  0
   19.9579  -20.7723  -13.2491 C   0  0  2  0  0  0  0  0  0  0  0  0
   21.0703  -20.7454  -14.1439 N   0  0  0  0  0  0  0  0  0  0  0  0
   19.3430  -22.1394  -13.1591 C   0  0  0  0  0  0  0  0  0  0  0  0
   19.4423  -22.9772  -14.1018 O   0  0  0  0  0  0  0  0  0  0  0  0
   17.0417  -24.8686   -5.5661 N   0  0  0  0  0  0  0  0  0  0  0  0
   17.9851  -25.5465   -6.3551 C   0  0  0  0  0  0  0  0  0  0  0  0
   18.5282  -26.6397   -5.9064 N   0  0  0  0  0  0  0  0  0  0  0  0
   18.3413  -25.0407   -7.6321 N   0  0  0  0  0  0  0  0  0  0  0  0
   17.8033  -23.7976   -8.1261 C   0  0  0  0  0  0  0  0  0  0  0  0
   18.4725  -23.3616   -9.4363 C   0  0  0  0  0  0  0  0  0  0  0  0
   18.0770  -24.3837  -10.4620 C   0  0  0  0  0  0  0  0  0  0  0  0
   18.0815  -23.8858  -11.8746 C   0  0  2  0  0  0  0  0  0  0  0  0
   18.6217  -22.5537  -12.0110 N   0  0  0  0  0  0  0  0  0  0  0  0
   16.6433  -23.8218  -12.2967 C   0  0  0  0  0  0  0  0  0  0  0  0
   15.9601  -24.9729  -12.6408 O   0  0  0  0  0  0  0  0  0  0  0  0
   16.0255  -22.7289  -12.3491 O   0  0  0  0  0  0  0  0  0  0  0  0
  2  1  1  0
  3  2  1  0
  4  3  1  0
  4  5  1  0
  5  1  1  0
  5  6  1  1
  6  7  2  0
  9  8  1  6
 10  9  1  0
 11  9  1  0
 11 12  1  6
 12  6  1  0
 13 11  1  0
 14 13  2  0
 16 15  1  0
 17 16  2  0
 18 16  1  0
 19 18  1  0
 20 19  1  0
 20 21  1  0
 22 21  1  1
 22 24  1  0
 22 23  1  0
 23 13  1  0
 24 25  1  0
 26 24  2  0
M  END
$$$$
