SFE.pdb
     RDKit          3D

 27 27  0  0  1  0  0  0  0  0999 V2000
   18.2814   -7.9129  -19.8927 O   0  0  0  0  0  0  0  0  0  0  0  0
   19.4931   -8.6198  -20.0168 C   0  0  0  0  0  0  0  0  0  0  0  0
   19.5829   -9.5112  -18.8005 C   0  0  2  0  0  0  0  0  0  0  0  0
   18.4270  -10.3894  -18.8141 N   0  0  0  0  0  0  0  0  0  0  0  0
   19.6008   -8.7883  -17.5211 C   0  0  0  0  0  0  0  0  0  0  0  0
   18.5481   -8.4790  -16.9052 O   0  0  0  0  0  0  0  0  0  0  0  0
   20.8218   -8.3904  -16.8967 N   0  0  0  0  0  0  0  0  0  0  0  0
   20.9015   -7.7455  -15.6064 C   0  0  1  0  0  0  0  0  0  0  0  0
   21.7273   -8.6195  -14.6967 C   0  0  0  0  0  0  0  0  0  0  0  0
   20.9951   -9.7696  -14.1682 C   0  0  0  0  0  0  0  0  0  0  0  0
   20.1652   -9.6033  -13.0864 C   0  0  0  0  0  0  0  0  0  0  0  0
   19.4268  -10.6494  -12.5421 C   0  0  0  0  0  0  0  0  0  0  0  0
   19.5221  -11.8924  -13.0930 C   0  0  0  0  0  0  0  0  0  0  0  0
   20.3570  -12.0775  -14.1854 C   0  0  0  0  0  0  0  0  0  0  0  0
   21.0813  -11.0328  -14.7142 C   0  0  0  0  0  0  0  0  0  0  0  0
   21.4476   -6.3872  -15.7814 C   0  0  0  0  0  0  0  0  0  0  0  0
   22.4528   -6.1946  -16.5070 O   0  0  0  0  0  0  0  0  0  0  0  0
   20.8595   -5.2675  -15.1409 N   0  0  0  0  0  0  0  0  0  0  0  0
   21.3449   -3.9002  -15.4122 C   0  0  1  0  0  0  0  0  0  0  0  0
   20.1705   -2.9850  -15.2214 C   0  0  0  0  0  0  0  0  0  0  0  0
   19.1576   -3.0116  -16.3143 C   0  0  0  0  0  0  0  0  0  0  0  0
   17.8684   -3.6089  -15.8339 C   0  0  0  0  0  0  0  0  0  0  0  0
   16.9052   -3.7573  -16.6432 O   0  0  0  0  0  0  0  0  0  0  0  0
   22.4015   -3.5341  -14.4443 C   0  0  0  0  0  0  0  0  0  0  0  0
   22.4664   -4.2243  -13.3676 O   0  0  0  0  0  0  0  0  0  0  0  0
   17.7406   -3.9959  -14.5072 O   0  0  0  0  0  0  0  0  0  0  0  0
   23.3159   -2.5341  -14.5854 O   0  0  0  0  0  0  0  0  0  0  0  0
  2  1  1  0
  3  2  1  0
  3  4  1  1
  5  3  1  0
  5  6  2  0
  7  5  1  0
  8  7  1  0
  8  9  1  1
 10  9  1  0
 10 15  2  0
 11 10  1  0
 12 11  2  0
 12 13  1  0
 13 14  2  0
 14 15  1  0
 16  8  1  0
 17 16  2  0
 18 16  1  0
 19 24  1  0
 19 18  1  0
 19 20  1  1
 21 20  1  0
 21 22  1  0
 22 23  2  0
 24 27  1  0
 25 24  2  0
 26 22  1  0
M  END
$$$$
