SFE.pdb
     RDKit          3D

 27 27  0  0  1  0  0  0  0  0999 V2000
   27.1204  -20.4778  -19.2951 O   0  0  0  0  0  0  0  0  0  0  0  0
   27.3926  -20.1803  -17.9457 C   0  0  0  0  0  0  0  0  0  0  0  0
   27.9082  -21.4606  -17.3317 C   0  0  2  0  0  0  0  0  0  0  0  0
   27.7107  -22.5226  -18.3015 N   0  0  0  0  0  0  0  0  0  0  0  0
   27.2380  -21.8442  -16.0813 C   0  0  0  0  0  0  0  0  0  0  0  0
   26.5864  -22.9142  -15.9649 O   0  0  0  0  0  0  0  0  0  0  0  0
   27.2862  -21.0198  -14.9163 N   0  0  0  0  0  0  0  0  0  0  0  0
   26.4354  -21.1951  -13.7618 C   0  0  1  0  0  0  0  0  0  0  0  0
   26.9822  -20.3436  -12.6441 C   0  0  0  0  0  0  0  0  0  0  0  0
   26.2440  -20.4817  -11.3894 C   0  0  0  0  0  0  0  0  0  0  0  0
   25.1789  -19.6519  -11.1371 C   0  0  0  0  0  0  0  0  0  0  0  0
   24.4228  -19.7381   -9.9723 C   0  0  0  0  0  0  0  0  0  0  0  0
   24.7410  -20.6767   -9.0367 C   0  0  0  0  0  0  0  0  0  0  0  0
   25.8150  -21.5218   -9.2756 C   0  0  0  0  0  0  0  0  0  0  0  0
   26.5540  -21.4256  -10.4333 C   0  0  0  0  0  0  0  0  0  0  0  0
   25.0471  -20.8665  -14.1341 C   0  0  0  0  0  0  0  0  0  0  0  0
   24.7985  -19.8531  -14.8306 O   0  0  0  0  0  0  0  0  0  0  0  0
   23.9606  -21.6777  -13.7200 N   0  0  0  0  0  0  0  0  0  0  0  0
   22.5743  -21.3300  -14.0884 C   0  0  1  0  0  0  0  0  0  0  0  0
   22.0305  -22.5001  -14.8553 C   0  0  0  0  0  0  0  0  0  0  0  0
   20.6091  -22.3752  -15.2857 C   0  0  0  0  0  0  0  0  0  0  0  0
   20.4991  -21.5528  -16.5352 C   0  0  0  0  0  0  0  0  0  0  0  0
   19.5775  -20.6900  -16.6398 O   0  0  0  0  0  0  0  0  0  0  0  0
   21.7585  -21.1328  -12.8706 C   0  0  0  0  0  0  0  0  0  0  0  0
   21.9559  -21.9469  -11.9020 O   0  0  0  0  0  0  0  0  0  0  0  0
   21.4084  -21.7420  -17.5666 O   0  0  0  0  0  0  0  0  0  0  0  0
   20.8169  -20.1678  -12.6758 O   0  0  0  0  0  0  0  0  0  0  0  0
  2  1  1  0
  3  2  1  0
  3  4  1  6
  5  3  1  0
  5  6  2  0
  7  5  1  0
  8  7  1  0
  8  9  1  1
 10  9  1  0
 10 15  2  0
 11 10  1  0
 12 11  2  0
 12 13  1  0
 13 14  2  0
 14 15  1  0
 16  8  1  0
 17 16  2  0
 18 16  1  0
 19 24  1  0
 19 18  1  0
 19 20  1  6
 21 20  1  0
 21 22  1  0
 22 23  2  0
 24 27  1  0
 25 24  2  0
 26 22  1  0
M  END
$$$$
