SFE.pdb
     RDKit          3D

 27 27  0  0  1  0  0  0  0  0999 V2000
    9.6712  -13.3706    7.9744 O   0  0  0  0  0  0  0  0  0  0  0  0
   10.9621  -13.9237    8.0795 C   0  0  0  0  0  0  0  0  0  0  0  0
   11.4358  -14.1501    6.6630 C   0  0  2  0  0  0  0  0  0  0  0  0
   10.7660  -15.3361    6.1608 N   0  0  0  0  0  0  0  0  0  0  0  0
   12.8865  -14.3476    6.5349 C   0  0  0  0  0  0  0  0  0  0  0  0
   13.4139  -15.4898    6.5201 O   0  0  0  0  0  0  0  0  0  0  0  0
   13.7900  -13.2479    6.4195 N   0  0  0  0  0  0  0  0  0  0  0  0
   15.2223  -13.3841    6.2880 C   0  0  1  0  0  0  0  0  0  0  0  0
   15.7497  -12.1454    5.6094 C   0  0  0  0  0  0  0  0  0  0  0  0
   17.2043  -12.1350    5.4603 C   0  0  0  0  0  0  0  0  0  0  0  0
   17.7912  -12.9261    4.5031 C   0  0  0  0  0  0  0  0  0  0  0  0
   19.1667  -12.9538    4.2957 C   0  0  0  0  0  0  0  0  0  0  0  0
   19.9747  -12.1717    5.0657 C   0  0  0  0  0  0  0  0  0  0  0  0
   19.3978  -11.3678    6.0381 C   0  0  0  0  0  0  0  0  0  0  0  0
   18.0348  -11.3499    6.2317 C   0  0  0  0  0  0  0  0  0  0  0  0
   15.8060  -13.6254    7.6203 C   0  0  0  0  0  0  0  0  0  0  0  0
   15.3847  -12.9985    8.6221 O   0  0  0  0  0  0  0  0  0  0  0  0
   16.8515  -14.5642    7.8086 N   0  0  0  0  0  0  0  0  0  0  0  0
   17.4744  -14.7463    9.1343 C   0  0  1  0  0  0  0  0  0  0  0  0
   17.3374  -16.2020    9.4736 C   0  0  0  0  0  0  0  0  0  0  0  0
   17.8095  -16.5866   10.8339 C   0  0  0  0  0  0  0  0  0  0  0  0
   17.6644  -18.0634   11.0525 C   0  0  0  0  0  0  0  0  0  0  0  0
   17.0344  -18.4891   12.0656 O   0  0  0  0  0  0  0  0  0  0  0  0
   18.9110  -14.4002    9.0733 C   0  0  0  0  0  0  0  0  0  0  0  0
   19.5163  -14.6287    7.9682 O   0  0  0  0  0  0  0  0  0  0  0  0
   18.2200  -18.9522   10.1427 O   0  0  0  0  0  0  0  0  0  0  0  0
   19.6558  -13.8599   10.0778 O   0  0  0  0  0  0  0  0  0  0  0  0
  2  1  1  0
  3  2  1  0
  3  4  1  1
  5  3  1  0
  5  6  2  0
  7  5  1  0
  8  7  1  0
  8  9  1  1
 10  9  1  0
 10 15  2  0
 11 10  1  0
 12 11  2  0
 12 13  1  0
 13 14  2  0
 14 15  1  0
 16  8  1  0
 17 16  2  0
 18 16  1  0
 19 24  1  0
 19 18  1  0
 19 20  1  6
 21 20  1  0
 21 22  1  0
 22 23  2  0
 24 27  1  0
 25 24  2  0
 26 22  1  0
M  END
$$$$
