SFE.pdb
     RDKit          3D

 27 27  0  0  1  0  0  0  0  0999 V2000
   23.3792   -8.8645  -21.5646 O   0  0  0  0  0  0  0  0  0  0  0  0
   22.3660   -8.7655  -20.5914 C   0  0  0  0  0  0  0  0  0  0  0  0
   23.0092   -9.1468  -19.2788 C   0  0  2  0  0  0  0  0  0  0  0  0
   23.3084  -10.5663  -19.3330 N   0  0  0  0  0  0  0  0  0  0  0  0
   22.1706   -8.8945  -18.0986 C   0  0  0  0  0  0  0  0  0  0  0  0
   21.1572   -9.5897  -17.8290 O   0  0  0  0  0  0  0  0  0  0  0  0
   22.4572   -7.8379  -17.1818 N   0  0  0  0  0  0  0  0  0  0  0  0
   21.6651   -7.5422  -16.0102 C   0  0  1  0  0  0  0  0  0  0  0  0
   22.5865   -7.5159  -14.8171 C   0  0  0  0  0  0  0  0  0  0  0  0
   22.9388   -8.8458  -14.3213 C   0  0  0  0  0  0  0  0  0  0  0  0
   24.1823   -9.3612  -14.5942 C   0  0  0  0  0  0  0  0  0  0  0  0
   24.5899  -10.6119  -14.1410 C   0  0  0  0  0  0  0  0  0  0  0  0
   23.7316  -11.3657  -13.3975 C   0  0  0  0  0  0  0  0  0  0  0  0
   22.4711  -10.8602  -13.1141 C   0  0  0  0  0  0  0  0  0  0  0  0
   22.0816   -9.6203  -13.5686 C   0  0  0  0  0  0  0  0  0  0  0  0
   20.9393   -6.2774  -16.2280 C   0  0  0  0  0  0  0  0  0  0  0  0
   21.5520   -5.2494  -16.6046 O   0  0  0  0  0  0  0  0  0  0  0  0
   19.5400   -6.1848  -16.0201 N   0  0  0  0  0  0  0  0  0  0  0  0
   18.8297   -4.9059  -16.2162 C   0  0  1  0  0  0  0  0  0  0  0  0
   17.9626   -5.0811  -17.4289 C   0  0  0  0  0  0  0  0  0  0  0  0
   17.1557   -3.8885  -17.8133 C   0  0  0  0  0  0  0  0  0  0  0  0
   17.7726   -3.1798  -18.9824 C   0  0  0  0  0  0  0  0  0  0  0  0
   18.8214   -2.4892  -18.8158 O   0  0  0  0  0  0  0  0  0  0  0  0
   17.9695   -4.6174  -15.0483 C   0  0  0  0  0  0  0  0  0  0  0  0
   17.5106   -5.6239  -14.4031 O   0  0  0  0  0  0  0  0  0  0  0  0
   17.1909   -3.2870  -20.2380 O   0  0  0  0  0  0  0  0  0  0  0  0
   17.6172   -3.3844  -14.5885 O   0  0  0  0  0  0  0  0  0  0  0  0
  2  1  1  0
  3  2  1  0
  3  4  1  6
  5  3  1  0
  5  6  2  0
  7  5  1  0
  8  7  1  0
  8  9  1  1
 10  9  1  0
 10 15  2  0
 11 10  1  0
 12 11  2  0
 12 13  1  0
 13 14  2  0
 14 15  1  0
 16  8  1  0
 17 16  2  0
 18 16  1  0
 19 24  1  0
 19 18  1  0
 19 20  1  6
 21 20  1  0
 21 22  1  0
 22 23  2  0
 24 27  1  0
 25 24  2  0
 26 22  1  0
M  END
$$$$
