SFE.pdb
     RDKit          3D

 27 27  0  0  1  0  0  0  0  0999 V2000
   14.9113  -27.2499   -3.4788 O   0  0  0  0  0  0  0  0  0  0  0  0
   14.7329  -26.1095   -4.2857 C   0  0  0  0  0  0  0  0  0  0  0  0
   15.9376  -25.2317   -4.0400 C   0  0  2  0  0  0  0  0  0  0  0  0
   17.1219  -26.0504   -4.2257 N   0  0  0  0  0  0  0  0  0  0  0  0
   15.9899  -24.6389   -2.6963 C   0  0  0  0  0  0  0  0  0  0  0  0
   16.7922  -25.0374   -1.8129 O   0  0  0  0  0  0  0  0  0  0  0  0
   15.1270  -23.5685   -2.3102 N   0  0  0  0  0  0  0  0  0  0  0  0
   15.1115  -22.9725   -0.9942 C   0  0  1  0  0  0  0  0  0  0  0  0
   14.9954  -21.4782   -1.1589 C   0  0  0  0  0  0  0  0  0  0  0  0
   14.9907  -20.7492    0.1087 C   0  0  0  0  0  0  0  0  0  0  0  0
   16.1595  -20.6203    0.8185 C   0  0  0  0  0  0  0  0  0  0  0  0
   16.2311  -19.9271    2.0227 C   0  0  0  0  0  0  0  0  0  0  0  0
   15.1054  -19.3498    2.5296 C   0  0  0  0  0  0  0  0  0  0  0  0
   13.9162  -19.4719    1.8256 C   0  0  0  0  0  0  0  0  0  0  0  0
   13.8603  -20.1602    0.6346 C   0  0  0  0  0  0  0  0  0  0  0  0
   14.0160  -23.5703   -0.2092 C   0  0  0  0  0  0  0  0  0  0  0  0
   13.0458  -24.1180   -0.7860 O   0  0  0  0  0  0  0  0  0  0  0  0
   14.0249  -23.5445    1.2082 N   0  0  0  0  0  0  0  0  0  0  0  0
   12.8920  -24.0899    1.9813 C   0  0  1  0  0  0  0  0  0  0  0  0
   13.2618  -25.4988    2.3437 C   0  0  0  0  0  0  0  0  0  0  0  0
   14.4236  -25.6354    3.2671 C   0  0  0  0  0  0  0  0  0  0  0  0
   14.6638  -27.0745    3.6149 C   0  0  0  0  0  0  0  0  0  0  0  0
   13.9006  -27.9697    3.1451 O   0  0  0  0  0  0  0  0  0  0  0  0
   12.7004  -23.3090    3.2227 C   0  0  0  0  0  0  0  0  0  0  0  0
   13.6678  -22.5538    3.5881 O   0  0  0  0  0  0  0  0  0  0  0  0
   15.7209  -27.4147    4.4474 O   0  0  0  0  0  0  0  0  0  0  0  0
   11.5938  -23.3122    4.0171 O   0  0  0  0  0  0  0  0  0  0  0  0
  2  1  1  0
  3  2  1  0
  3  4  1  1
  5  3  1  0
  5  6  2  0
  7  5  1  0
  8  7  1  0
  8  9  1  6
 10  9  1  0
 10 15  2  0
 11 10  1  0
 12 11  2  0
 12 13  1  0
 13 14  2  0
 14 15  1  0
 16  8  1  0
 17 16  2  0
 18 16  1  0
 19 24  1  0
 19 18  1  0
 19 20  1  1
 21 20  1  0
 21 22  1  0
 22 23  2  0
 24 27  1  0
 25 24  2  0
 26 22  1  0
M  END
$$$$
