SFE.pdb
     RDKit          3D

 27 27  0  0  1  0  0  0  0  0999 V2000
   26.4246  -19.7516  -13.9922 O   0  0  0  0  0  0  0  0  0  0  0  0
   27.8269  -19.7091  -13.8690 C   0  0  0  0  0  0  0  0  0  0  0  0
   28.2447  -21.0765  -13.3813 C   0  0  2  0  0  0  0  0  0  0  0  0
   27.6919  -22.0569  -14.2982 N   0  0  0  0  0  0  0  0  0  0  0  0
   27.7852  -21.4007  -12.0236 C   0  0  0  0  0  0  0  0  0  0  0  0
   26.8067  -22.1608  -11.8052 O   0  0  0  0  0  0  0  0  0  0  0  0
   28.4255  -20.8683  -10.8635 N   0  0  0  0  0  0  0  0  0  0  0  0
   27.8561  -20.8983   -9.5360 C   0  0  1  0  0  0  0  0  0  0  0  0
   28.8633  -20.3085   -8.5816 C   0  0  0  0  0  0  0  0  0  0  0  0
   28.3761  -20.2075   -7.2066 C   0  0  0  0  0  0  0  0  0  0  0  0
   27.9030  -19.0039   -6.7439 C   0  0  0  0  0  0  0  0  0  0  0  0
   27.4101  -18.8400   -5.4532 C   0  0  0  0  0  0  0  0  0  0  0  0
   27.3912  -19.9062   -4.6044 C   0  0  0  0  0  0  0  0  0  0  0  0
   27.8668  -21.1287   -5.0558 C   0  0  0  0  0  0  0  0  0  0  0  0
   28.3511  -21.2766   -6.3361 C   0  0  0  0  0  0  0  0  0  0  0  0
   26.5649  -20.1866   -9.5511 C   0  0  0  0  0  0  0  0  0  0  0  0
   26.5058  -18.9839   -9.9033 O   0  0  0  0  0  0  0  0  0  0  0  0
   25.3617  -20.8333   -9.1715 N   0  0  0  0  0  0  0  0  0  0  0  0
   24.0688  -20.1244   -9.2388 C   0  0  1  0  0  0  0  0  0  0  0  0
   23.7505  -19.9553  -10.6959 C   0  0  0  0  0  0  0  0  0  0  0  0
   23.2513  -21.1786  -11.3854 C   0  0  0  0  0  0  0  0  0  0  0  0
   22.9573  -20.8965  -12.8289 C   0  0  0  0  0  0  0  0  0  0  0  0
   23.1295  -19.7284  -13.2880 O   0  0  0  0  0  0  0  0  0  0  0  0
   23.0085  -20.9391   -8.6068 C   0  0  0  0  0  0  0  0  0  0  0  0
   23.3695  -22.0416   -8.0647 O   0  0  0  0  0  0  0  0  0  0  0  0
   22.5004  -21.9170  -13.6511 O   0  0  0  0  0  0  0  0  0  0  0  0
   21.6829  -20.6317   -8.5425 O   0  0  0  0  0  0  0  0  0  0  0  0
  2  1  1  0
  3  2  1  0
  3  4  1  6
  5  3  1  0
  5  6  2  0
  7  5  1  0
  8  7  1  0
  8  9  1  1
 10  9  1  0
 10 15  2  0
 11 10  1  0
 12 11  2  0
 12 13  1  0
 13 14  2  0
 14 15  1  0
 16  8  1  0
 17 16  2  0
 18 16  1  0
 19 24  1  0
 19 18  1  0
 19 20  1  6
 21 20  1  0
 21 22  1  0
 22 23  2  0
 24 27  1  0
 25 24  2  0
 26 22  1  0
M  END
$$$$
