SFE.pdb
     RDKit          3D

 27 27  0  0  1  0  0  0  0  0999 V2000
   26.6875  -18.0964  -15.4314 O   0  0  0  0  0  0  0  0  0  0  0  0
   27.7316  -18.0076  -14.4905 C   0  0  0  0  0  0  0  0  0  0  0  0
   28.1118  -19.4301  -14.1531 C   0  0  2  0  0  0  0  0  0  0  0  0
   28.5027  -20.0844  -15.3886 N   0  0  0  0  0  0  0  0  0  0  0  0
   27.0332  -20.2138  -13.5348 C   0  0  0  0  0  0  0  0  0  0  0  0
   26.4744  -21.1755  -14.1229 O   0  0  0  0  0  0  0  0  0  0  0  0
   26.5513  -19.9284  -12.2212 N   0  0  0  0  0  0  0  0  0  0  0  0
   25.5480  -20.7106  -11.5366 C   0  0  1  0  0  0  0  0  0  0  0  0
   25.5822  -20.3397  -10.0755 C   0  0  0  0  0  0  0  0  0  0  0  0
   26.8856  -20.5546   -9.4484 C   0  0  0  0  0  0  0  0  0  0  0  0
   27.8587  -21.2429  -10.1309 C   0  0  0  0  0  0  0  0  0  0  0  0
   29.1253  -21.4699   -9.6018 C   0  0  0  0  0  0  0  0  0  0  0  0
   29.4250  -20.9976   -8.3589 C   0  0  0  0  0  0  0  0  0  0  0  0
   28.4528  -20.3014   -7.6557 C   0  0  0  0  0  0  0  0  0  0  0  0
   27.2036  -20.0834   -8.1921 C   0  0  0  0  0  0  0  0  0  0  0  0
   24.2401  -20.4805  -12.1771 C   0  0  0  0  0  0  0  0  0  0  0  0
   23.8317  -19.3131  -12.3875 O   0  0  0  0  0  0  0  0  0  0  0  0
   23.4114  -21.5613  -12.5711 N   0  0  0  0  0  0  0  0  0  0  0  0
   22.1600  -21.3217  -13.3162 C   0  0  1  0  0  0  0  0  0  0  0  0
   21.8665  -22.5838  -14.0738 C   0  0  0  0  0  0  0  0  0  0  0  0
   20.6156  -22.5647  -14.8838 C   0  0  0  0  0  0  0  0  0  0  0  0
   20.9285  -22.4999  -16.3493 C   0  0  0  0  0  0  0  0  0  0  0  0
   22.0183  -22.9805  -16.7804 O   0  0  0  0  0  0  0  0  0  0  0  0
   21.0502  -21.0572  -12.3750 C   0  0  0  0  0  0  0  0  0  0  0  0
   19.9911  -20.5266  -12.8613 O   0  0  0  0  0  0  0  0  0  0  0  0
   20.0213  -21.9153  -17.2220 O   0  0  0  0  0  0  0  0  0  0  0  0
   21.0422  -21.3240  -11.0391 O   0  0  0  0  0  0  0  0  0  0  0  0
  2  1  1  0
  3  2  1  0
  3  4  1  6
  5  3  1  0
  5  6  2  0
  7  5  1  0
  8  7  1  0
  8  9  1  1
 10  9  1  0
 10 15  2  0
 11 10  1  0
 12 11  2  0
 12 13  1  0
 13 14  2  0
 14 15  1  0
 16  8  1  0
 17 16  2  0
 18 16  1  0
 19 24  1  0
 19 18  1  0
 19 20  1  1
 21 20  1  0
 21 22  1  0
 22 23  2  0
 24 27  1  0
 25 24  2  0
 26 22  1  0
M  END
$$$$
