SFE.pdb
     RDKit          3D

 27 27  0  0  1  0  0  0  0  0999 V2000
   15.7385  -13.3123  -16.5240 O   0  0  0  0  0  0  0  0  0  0  0  0
   16.5719  -12.2401  -16.1509 C   0  0  0  0  0  0  0  0  0  0  0  0
   17.9694  -12.8075  -16.0657 C   0  0  2  0  0  0  0  0  0  0  0  0
   17.9616  -13.8410  -15.0463 N   0  0  0  0  0  0  0  0  0  0  0  0
   19.0022  -11.8215  -15.7183 C   0  0  0  0  0  0  0  0  0  0  0  0
   19.0750  -11.2924  -14.5792 O   0  0  0  0  0  0  0  0  0  0  0  0
   19.9910  -11.4018  -16.6593 N   0  0  0  0  0  0  0  0  0  0  0  0
   21.0583  -10.4761  -16.3571 C   0  0  1  0  0  0  0  0  0  0  0  0
   22.3606  -11.1118  -16.7730 C   0  0  0  0  0  0  0  0  0  0  0  0
   23.5160  -10.2277  -16.6253 C   0  0  0  0  0  0  0  0  0  0  0  0
   24.1342  -10.1219  -15.4033 C   0  0  0  0  0  0  0  0  0  0  0  0
   25.2467   -9.3128  -15.1952 C   0  0  0  0  0  0  0  0  0  0  0  0
   25.7523   -8.5911  -16.2350 C   0  0  0  0  0  0  0  0  0  0  0  0
   25.1387   -8.6857  -17.4756 C   0  0  0  0  0  0  0  0  0  0  0  0
   24.0386   -9.4912  -17.6672 C   0  0  0  0  0  0  0  0  0  0  0  0
   20.7839   -9.1917  -17.0271 C   0  0  0  0  0  0  0  0  0  0  0  0
   20.3879   -9.1671  -18.2172 O   0  0  0  0  0  0  0  0  0  0  0  0
   20.9578   -7.9564  -16.3534 N   0  0  0  0  0  0  0  0  0  0  0  0
   20.7499   -6.6757  -17.0572 C   0  0  1  0  0  0  0  0  0  0  0  0
   20.5926   -5.6263  -15.9956 C   0  0  0  0  0  0  0  0  0  0  0  0
   20.2721   -4.2588  -16.4938 C   0  0  0  0  0  0  0  0  0  0  0  0
   19.9808   -3.3290  -15.3534 C   0  0  0  0  0  0  0  0  0  0  0  0
   20.0412   -3.7574  -14.1629 O   0  0  0  0  0  0  0  0  0  0  0  0
   21.9336   -6.3508  -17.8823 C   0  0  0  0  0  0  0  0  0  0  0  0
   23.0477   -6.8748  -17.5303 O   0  0  0  0  0  0  0  0  0  0  0  0
   19.6488   -2.0062  -15.6108 O   0  0  0  0  0  0  0  0  0  0  0  0
   21.9561   -5.5486  -18.9832 O   0  0  0  0  0  0  0  0  0  0  0  0
  2  1  1  0
  3  2  1  0
  3  4  1  1
  5  3  1  0
  5  6  2  0
  7  5  1  0
  8  7  1  0
  8  9  1  6
 10  9  1  0
 10 15  2  0
 11 10  1  0
 12 11  2  0
 12 13  1  0
 13 14  2  0
 14 15  1  0
 16  8  1  0
 17 16  2  0
 18 16  1  0
 19 24  1  0
 19 18  1  0
 19 20  1  1
 21 20  1  0
 21 22  1  0
 22 23  2  0
 24 27  1  0
 25 24  2  0
 26 22  1  0
M  END
$$$$
