SFE.pdb
     RDKit          3D

 27 27  0  0  1  0  0  0  0  0999 V2000
   25.4880  -20.1185  -18.2205 O   0  0  0  0  0  0  0  0  0  0  0  0
   26.8089  -20.1298  -17.7321 C   0  0  0  0  0  0  0  0  0  0  0  0
   27.0334  -21.5128  -17.1674 C   0  0  2  0  0  0  0  0  0  0  0  0
   26.6242  -22.4710  -18.1783 N   0  0  0  0  0  0  0  0  0  0  0  0
   26.2840  -21.7914  -15.9343 C   0  0  0  0  0  0  0  0  0  0  0  0
   25.2856  -22.5566  -15.9089 O   0  0  0  0  0  0  0  0  0  0  0  0
   26.6462  -21.2060  -14.6832 N   0  0  0  0  0  0  0  0  0  0  0  0
   25.8388  -21.2814  -13.4874 C   0  0  1  0  0  0  0  0  0  0  0  0
   26.6480  -20.7296  -12.3411 C   0  0  0  0  0  0  0  0  0  0  0  0
   25.9074  -20.6624  -11.0820 C   0  0  0  0  0  0  0  0  0  0  0  0
   25.6903  -21.8126  -10.3634 C   0  0  0  0  0  0  0  0  0  0  0  0
   25.0082  -21.8198   -9.1508 C   0  0  0  0  0  0  0  0  0  0  0  0
   24.5307  -20.6475   -8.6455 C   0  0  0  0  0  0  0  0  0  0  0  0
   24.7403  -19.4768   -9.3597 C   0  0  0  0  0  0  0  0  0  0  0  0
   25.4179  -19.4845  -10.5582 C   0  0  0  0  0  0  0  0  0  0  0  0
   24.5709  -20.5651  -13.7181 C   0  0  0  0  0  0  0  0  0  0  0  0
   24.5715  -19.4213  -14.2338 O   0  0  0  0  0  0  0  0  0  0  0  0
   23.3239  -21.1411  -13.3675 N   0  0  0  0  0  0  0  0  0  0  0  0
   22.0754  -20.3603  -13.4686 C   0  0  1  0  0  0  0  0  0  0  0  0
   21.3817  -20.8248  -14.7160 C   0  0  0  0  0  0  0  0  0  0  0  0
   20.0942  -20.1394  -15.0222 C   0  0  0  0  0  0  0  0  0  0  0  0
   18.9370  -21.0810  -14.8663 C   0  0  0  0  0  0  0  0  0  0  0  0
   18.8498  -22.0980  -15.6164 O   0  0  0  0  0  0  0  0  0  0  0  0
   21.2065  -20.6371  -12.3042 C   0  0  0  0  0  0  0  0  0  0  0  0
   21.3350  -21.7812  -11.7435 O   0  0  0  0  0  0  0  0  0  0  0  0
   17.9715  -20.8318  -13.9010 O   0  0  0  0  0  0  0  0  0  0  0  0
   20.2819  -19.7933  -11.7667 O   0  0  0  0  0  0  0  0  0  0  0  0
  2  1  1  0
  3  2  1  0
  3  4  1  6
  5  3  1  0
  5  6  2  0
  7  5  1  0
  8  7  1  0
  8  9  1  1
 10  9  1  0
 10 15  2  0
 11 10  1  0
 12 11  2  0
 12 13  1  0
 13 14  2  0
 14 15  1  0
 16  8  1  0
 17 16  2  0
 18 16  1  0
 19 24  1  0
 19 18  1  0
 19 20  1  6
 21 20  1  0
 21 22  1  0
 22 23  2  0
 24 27  1  0
 25 24  2  0
 26 22  1  0
M  END
$$$$
