SFE.pdb
     RDKit          3D

 27 27  0  0  1  0  0  0  0  0999 V2000
   21.2076   -8.6169  -22.5428 O   0  0  0  0  0  0  0  0  0  0  0  0
   21.2492   -8.4250  -21.1482 C   0  0  0  0  0  0  0  0  0  0  0  0
   22.1418   -9.5151  -20.6032 C   0  0  2  0  0  0  0  0  0  0  0  0
   21.5401  -10.7895  -20.9515 N   0  0  0  0  0  0  0  0  0  0  0  0
   22.3271   -9.4728  -19.1460 C   0  0  0  0  0  0  0  0  0  0  0  0
   21.4603   -9.9033  -18.3420 O   0  0  0  0  0  0  0  0  0  0  0  0
   23.5094   -8.9362  -18.5514 N   0  0  0  0  0  0  0  0  0  0  0  0
   23.7708   -8.9257  -17.1306 C   0  0  1  0  0  0  0  0  0  0  0  0
   25.1018   -9.5937  -16.8948 C   0  0  0  0  0  0  0  0  0  0  0  0
   25.0713  -11.0425  -17.0906 C   0  0  0  0  0  0  0  0  0  0  0  0
   25.3155  -11.5611  -18.3388 C   0  0  0  0  0  0  0  0  0  0  0  0
   25.3182  -12.9289  -18.5934 C   0  0  0  0  0  0  0  0  0  0  0  0
   25.0693  -13.7990  -17.5742 C   0  0  0  0  0  0  0  0  0  0  0  0
   24.8194  -13.2914  -16.3075 C   0  0  0  0  0  0  0  0  0  0  0  0
   24.8207  -11.9352  -16.0700 C   0  0  0  0  0  0  0  0  0  0  0  0
   23.7089   -7.5363  -16.6412 C   0  0  0  0  0  0  0  0  0  0  0  0
   24.3703   -6.6327  -17.2071 O   0  0  0  0  0  0  0  0  0  0  0  0
   22.9078   -7.1818  -15.5265 N   0  0  0  0  0  0  0  0  0  0  0  0
   22.7950   -5.7753  -15.0934 C   0  0  1  0  0  0  0  0  0  0  0  0
   21.9281   -5.0853  -16.1061 C   0  0  0  0  0  0  0  0  0  0  0  0
   20.5382   -5.6110  -16.2191 C   0  0  0  0  0  0  0  0  0  0  0  0
   19.7306   -4.7857  -17.1764 C   0  0  0  0  0  0  0  0  0  0  0  0
   19.0947   -3.7754  -16.7527 O   0  0  0  0  0  0  0  0  0  0  0  0
   22.1394   -5.7015  -13.7698 C   0  0  0  0  0  0  0  0  0  0  0  0
   21.6264   -6.7833  -13.3154 O   0  0  0  0  0  0  0  0  0  0  0  0
   19.6870   -5.1342  -18.5192 O   0  0  0  0  0  0  0  0  0  0  0  0
   22.0279   -4.5948  -12.9833 O   0  0  0  0  0  0  0  0  0  0  0  0
  2  1  1  0
  3  2  1  0
  3  4  1  1
  5  3  1  0
  5  6  2  0
  7  5  1  0
  8  7  1  0
  8  9  1  6
 10  9  1  0
 10 15  2  0
 11 10  1  0
 12 11  2  0
 12 13  1  0
 13 14  2  0
 14 15  1  0
 16  8  1  0
 17 16  2  0
 18 16  1  0
 19 24  1  0
 19 18  1  0
 19 20  1  6
 21 20  1  0
 21 22  1  0
 22 23  2  0
 24 27  1  0
 25 24  2  0
 26 22  1  0
M  END
$$$$
