SFE.pdb
     RDKit          3D

 27 27  0  0  1  0  0  0  0  0999 V2000
   27.9601  -18.6081  -18.3067 O   0  0  0  0  0  0  0  0  0  0  0  0
   27.3678  -19.8835  -18.3845 C   0  0  0  0  0  0  0  0  0  0  0  0
   28.1728  -20.7742  -17.4675 C   0  0  2  0  0  0  0  0  0  0  0  0
   28.5828  -21.9368  -18.2342 N   0  0  0  0  0  0  0  0  0  0  0  0
   27.4422  -21.2367  -16.2792 C   0  0  0  0  0  0  0  0  0  0  0  0
   26.6266  -22.1939  -16.3179 O   0  0  0  0  0  0  0  0  0  0  0  0
   27.6149  -20.6229  -15.0015 N   0  0  0  0  0  0  0  0  0  0  0  0
   26.7747  -20.8832  -13.8554 C   0  0  1  0  0  0  0  0  0  0  0  0
   27.5352  -20.4814  -12.6170 C   0  0  0  0  0  0  0  0  0  0  0  0
   26.7894  -20.6966  -11.3777 C   0  0  0  0  0  0  0  0  0  0  0  0
   26.5557  -19.6361  -10.5368 C   0  0  0  0  0  0  0  0  0  0  0  0
   25.8404  -19.7654   -9.3504 C   0  0  0  0  0  0  0  0  0  0  0  0
   25.3481  -20.9859   -8.9963 C   0  0  0  0  0  0  0  0  0  0  0  0
   25.5766  -22.0678   -9.8341 C   0  0  0  0  0  0  0  0  0  0  0  0
   26.2856  -21.9250  -11.0057 C   0  0  0  0  0  0  0  0  0  0  0  0
   25.4962  -20.1688  -14.0250 C   0  0  0  0  0  0  0  0  0  0  0  0
   25.4831  -18.9402  -14.2785 O   0  0  0  0  0  0  0  0  0  0  0  0
   24.2539  -20.8418  -13.9078 N   0  0  0  0  0  0  0  0  0  0  0  0
   22.9846  -20.0886  -13.8926 C   0  0  1  0  0  0  0  0  0  0  0  0
   22.3240  -20.3394  -15.2169 C   0  0  0  0  0  0  0  0  0  0  0  0
   20.9658  -19.7465  -15.3740 C   0  0  0  0  0  0  0  0  0  0  0  0
   20.3580  -20.1428  -16.6868 C   0  0  0  0  0  0  0  0  0  0  0  0
   20.5468  -21.3110  -17.1388 O   0  0  0  0  0  0  0  0  0  0  0  0
   22.1066  -20.5930  -12.8146 C   0  0  0  0  0  0  0  0  0  0  0  0
   21.3034  -19.7516  -12.2792 O   0  0  0  0  0  0  0  0  0  0  0  0
   19.5923  -19.2276  -17.3956 O   0  0  0  0  0  0  0  0  0  0  0  0
   22.0663  -21.8672  -12.3344 O   0  0  0  0  0  0  0  0  0  0  0  0
  2  1  1  0
  3  2  1  0
  3  4  1  6
  5  3  1  0
  5  6  2  0
  7  5  1  0
  8  7  1  0
  8  9  1  1
 10  9  1  0
 10 15  2  0
 11 10  1  0
 12 11  2  0
 12 13  1  0
 13 14  2  0
 14 15  1  0
 16  8  1  0
 17 16  2  0
 18 16  1  0
 19 24  1  0
 19 18  1  0
 19 20  1  6
 21 20  1  0
 21 22  1  0
 22 23  2  0
 24 27  1  0
 25 24  2  0
 26 22  1  0
M  END
$$$$
