SFE.pdb
     RDKit          3D

 27 27  0  0  1  0  0  0  0  0999 V2000
   34.2725   -6.5954  -18.5012 O   0  0  0  0  0  0  0  0  0  0  0  0
   33.0274   -7.1799  -18.8039 C   0  0  0  0  0  0  0  0  0  0  0  0
   33.3038   -8.6432  -19.0577 C   0  0  2  0  0  0  0  0  0  0  0  0
   33.9049   -8.7541  -20.3744 N   0  0  0  0  0  0  0  0  0  0  0  0
   32.1100   -9.4995  -19.0195 C   0  0  0  0  0  0  0  0  0  0  0  0
   31.4147   -9.7350  -20.0413 O   0  0  0  0  0  0  0  0  0  0  0  0
   31.6646  -10.1189  -17.8125 N   0  0  0  0  0  0  0  0  0  0  0  0
   30.4586  -10.9067  -17.7012 C   0  0  1  0  0  0  0  0  0  0  0  0
   30.6526  -11.9041  -16.5872 C   0  0  0  0  0  0  0  0  0  0  0  0
   29.5016  -12.7825  -16.3823 C   0  0  0  0  0  0  0  0  0  0  0  0
   29.3203  -13.8631  -17.2105 C   0  0  0  0  0  0  0  0  0  0  0  0
   28.2572  -14.7486  -17.0633 C   0  0  0  0  0  0  0  0  0  0  0  0
   27.3530  -14.5472  -16.0636 C   0  0  0  0  0  0  0  0  0  0  0  0
   27.5210  -13.4594  -15.2191 C   0  0  0  0  0  0  0  0  0  0  0  0
   28.5783  -12.5916  -15.3761 C   0  0  0  0  0  0  0  0  0  0  0  0
   29.3119  -10.0030  -17.4960 C   0  0  0  0  0  0  0  0  0  0  0  0
   29.4025   -9.0290  -16.7105 O   0  0  0  0  0  0  0  0  0  0  0  0
   28.0831  -10.2050  -18.1735 N   0  0  0  0  0  0  0  0  0  0  0  0
   26.9425   -9.2932  -17.9585 C   0  0  1  0  0  0  0  0  0  0  0  0
   27.1939   -8.0863  -18.8148 C   0  0  0  0  0  0  0  0  0  0  0  0
   26.0954   -7.0794  -18.8355 C   0  0  0  0  0  0  0  0  0  0  0  0
   26.4747   -5.8913  -19.6688 C   0  0  0  0  0  0  0  0  0  0  0  0
   25.6764   -4.9126  -19.7669 O   0  0  0  0  0  0  0  0  0  0  0  0
   25.6856   -9.9388  -18.3954 C   0  0  0  0  0  0  0  0  0  0  0  0
   25.7938  -10.9689  -19.1484 O   0  0  0  0  0  0  0  0  0  0  0  0
   27.6977   -5.8723  -20.3248 O   0  0  0  0  0  0  0  0  0  0  0  0
   24.4212   -9.5465  -18.0743 O   0  0  0  0  0  0  0  0  0  0  0  0
  2  1  1  0
  3  2  1  0
  3  4  1  6
  5  3  1  0
  5  6  2  0
  7  5  1  0
  8  7  1  0
  8  9  1  1
 10  9  1  0
 10 15  2  0
 11 10  1  0
 12 11  2  0
 12 13  1  0
 13 14  2  0
 14 15  1  0
 16  8  1  0
 17 16  2  0
 18 16  1  0
 19 24  1  0
 19 18  1  0
 19 20  1  6
 21 20  1  0
 21 22  1  0
 22 23  2  0
 24 27  1  0
 25 24  2  0
 26 22  1  0
M  END
$$$$
