PNE.pdb
     RDKit          3D

 25 25  0  0  1  0  0  0  0  0999 V2000
   17.2669  -11.3690  -14.0378 N   0  0  0  0  0  0  0  0  0  0  0  0
   16.9340  -12.5211  -14.8455 C   0  0  0  0  0  0  0  0  0  0  0  0
   15.4180  -12.4379  -14.9986 C   0  0  0  0  0  0  0  0  0  0  0  0
   15.0643  -11.0084  -14.6118 C   0  0  0  0  0  0  0  0  0  0  0  0
   16.4027  -10.3564  -14.5529 C   0  0  1  0  0  0  0  0  0  0  0  0
   16.4280   -9.1029  -13.7681 C   0  0  0  0  0  0  0  0  0  0  0  0
   15.8163   -8.0795  -14.1666 O   0  0  0  0  0  0  0  0  0  0  0  0
   15.6793   -6.9236   -8.3041 N   0  0  0  0  0  0  0  0  0  0  0  0
   16.4309   -6.7626   -9.5276 C   0  0  0  0  0  0  0  0  0  0  0  0
   17.0233   -5.6851   -9.6501 O   0  0  0  0  0  0  0  0  0  0  0  0
   16.3919   -7.8859  -10.4514 C   0  0  0  0  0  0  0  0  0  0  0  0
   17.1058   -7.7542  -11.7361 C   0  0  2  0  0  0  0  0  0  0  0  0
   17.1264   -8.9630  -12.5369 N   0  0  0  0  0  0  0  0  0  0  0  0
   18.4943   -7.1800  -11.6187 C   0  0  0  0  0  0  0  0  0  0  0  0
   19.3451   -7.7222  -10.8668 O   0  0  0  0  0  0  0  0  0  0  0  0
   18.8873   -6.0306  -12.3336 N   0  0  0  0  0  0  0  0  0  0  0  0
   20.2649   -5.5666  -12.4145 C   0  0  1  0  0  0  0  0  0  0  0  0
   21.1347   -6.5516  -13.1054 C   0  0  0  0  0  0  0  0  0  0  0  0
   20.7914   -6.7169  -14.5431 C   0  0  0  0  0  0  0  0  0  0  0  0
   21.7001   -7.7728  -15.1407 C   0  0  0  0  0  0  0  0  0  0  0  0
   22.9244   -7.5204  -15.2578 O   0  0  0  0  0  0  0  0  0  0  0  0
   20.2844   -4.2592  -13.0745 C   0  0  0  0  0  0  0  0  0  0  0  0
   19.3086   -3.8073  -13.7016 O   0  0  0  0  0  0  0  0  0  0  0  0
   21.2286   -8.9921  -15.5567 O   0  0  0  0  0  0  0  0  0  0  0  0
   21.4282   -3.4800  -13.0081 O   0  0  0  0  0  0  0  0  0  0  0  0
  1  2  1  0
  1  5  1  0
  2  3  1  0
  3  4  1  0
  5  6  1  1
  5  4  1  0
  6 13  1  0
  7  6  2  0
  8  9  1  0
  9 10  2  0
 11  9  1  0
 12 11  1  1
 12 14  1  0
 13 12  1  0
 14 15  2  0
 16 14  1  0
 16 17  1  0
 17 22  1  0
 17 18  1  6
 19 18  1  0
 20 19  1  0
 21 20  2  0
 22 23  2  0
 22 25  1  0
 24 20  1  0
M  END
$$$$
