PNE.pdb
     RDKit          3D

 25 25  0  0  1  0  0  0  0  0999 V2000
   19.4857  -13.7736  -15.8336 N   0  0  0  0  0  0  0  0  0  0  0  0
   20.1719  -14.9908  -16.2053 C   0  0  0  0  0  0  0  0  0  0  0  0
   19.7604  -15.2169  -17.6572 C   0  0  0  0  0  0  0  0  0  0  0  0
   19.2035  -13.8770  -18.1185 C   0  0  0  0  0  0  0  0  0  0  0  0
   19.6030  -12.9690  -17.0068 C   0  0  1  0  0  0  0  0  0  0  0  0
   18.8216  -11.7147  -16.9434 C   0  0  0  0  0  0  0  0  0  0  0  0
   19.0203  -10.7880  -17.7693 O   0  0  0  0  0  0  0  0  0  0  0  0
   13.9518  -12.3481  -16.0788 N   0  0  0  0  0  0  0  0  0  0  0  0
   14.8953  -11.4309  -16.6759 C   0  0  0  0  0  0  0  0  0  0  0  0
   15.0332  -11.5316  -17.8997 O   0  0  0  0  0  0  0  0  0  0  0  0
   15.5567  -10.5128  -15.7614 C   0  0  0  0  0  0  0  0  0  0  0  0
   17.0000  -10.2674  -15.9461 C   0  0  2  0  0  0  0  0  0  0  0  0
   17.8136  -11.4675  -15.9707 N   0  0  0  0  0  0  0  0  0  0  0  0
   17.5850   -9.2576  -14.9925 C   0  0  0  0  0  0  0  0  0  0  0  0
   18.0146   -9.6204  -13.8669 O   0  0  0  0  0  0  0  0  0  0  0  0
   17.6706   -7.8889  -15.3181 N   0  0  0  0  0  0  0  0  0  0  0  0
   18.2963   -6.8957  -14.4569 C   0  0  1  0  0  0  0  0  0  0  0  0
   19.7215   -7.2184  -14.1946 C   0  0  0  0  0  0  0  0  0  0  0  0
   20.6137   -6.8569  -15.3285 C   0  0  0  0  0  0  0  0  0  0  0  0
   21.9965   -6.5608  -14.7826 C   0  0  0  0  0  0  0  0  0  0  0  0
   22.1521   -5.5587  -14.0423 O   0  0  0  0  0  0  0  0  0  0  0  0
   18.1362   -5.5739  -15.0672 C   0  0  0  0  0  0  0  0  0  0  0  0
   18.3754   -4.5165  -14.4552 O   0  0  0  0  0  0  0  0  0  0  0  0
   23.0804   -7.3507  -15.0710 O   0  0  0  0  0  0  0  0  0  0  0  0
   17.7015   -5.4780  -16.3793 O   0  0  0  0  0  0  0  0  0  0  0  0
  1  2  1  0
  1  5  1  0
  2  3  1  0
  3  4  1  0
  5  6  1  1
  5  4  1  0
  6 13  1  0
  7  6  2  0
  8  9  1  0
  9 10  2  0
 11  9  1  0
 12 11  1  1
 12 14  1  0
 13 12  1  0
 14 15  2  0
 16 14  1  0
 16 17  1  0
 17 22  1  0
 17 18  1  6
 19 18  1  0
 20 19  1  0
 21 20  2  0
 22 23  2  0
 22 25  1  0
 24 20  1  0
M  END
$$$$
