PNE.pdb
     RDKit          3D

 25 25  0  0  1  0  0  0  0  0999 V2000
   18.4132  -10.3268  -13.7882 N   0  0  0  0  0  0  0  0  0  0  0  0
   18.5941  -11.3369  -14.8067 C   0  0  0  0  0  0  0  0  0  0  0  0
   17.1713  -11.7493  -15.1731 C   0  0  0  0  0  0  0  0  0  0  0  0
   16.2888  -10.6356  -14.6262 C   0  0  0  0  0  0  0  0  0  0  0  0
   17.2868   -9.5903  -14.2640 C   0  0  1  0  0  0  0  0  0  0  0  0
   16.7857   -8.5880  -13.2986 C   0  0  0  0  0  0  0  0  0  0  0  0
   15.8833   -7.7750  -13.6224 O   0  0  0  0  0  0  0  0  0  0  0  0
   15.3437   -6.9737   -8.0068 N   0  0  0  0  0  0  0  0  0  0  0  0
   16.6522   -6.8313   -8.6030 C   0  0  0  0  0  0  0  0  0  0  0  0
   17.3257   -5.8823   -8.1874 O   0  0  0  0  0  0  0  0  0  0  0  0
   17.0039   -7.8201   -9.6106 C   0  0  0  0  0  0  0  0  0  0  0  0
   16.8086   -7.4660  -11.0297 C   0  0  2  0  0  0  0  0  0  0  0  0
   17.2724   -8.4703  -11.9673 N   0  0  0  0  0  0  0  0  0  0  0  0
   17.3418   -6.1087  -11.4099 C   0  0  0  0  0  0  0  0  0  0  0  0
   18.4506   -6.0021  -11.9951 O   0  0  0  0  0  0  0  0  0  0  0  0
   16.6318   -4.9242  -11.1276 N   0  0  0  0  0  0  0  0  0  0  0  0
   16.9243   -3.6432  -11.7545 C   0  0  1  0  0  0  0  0  0  0  0  0
   17.0192   -3.7653  -13.2311 C   0  0  0  0  0  0  0  0  0  0  0  0
   17.2350   -2.4576  -13.9062 C   0  0  0  0  0  0  0  0  0  0  0  0
   17.3653   -2.6969  -15.3973 C   0  0  0  0  0  0  0  0  0  0  0  0
   18.3011   -3.4234  -15.8132 O   0  0  0  0  0  0  0  0  0  0  0  0
   15.9031   -2.6750  -11.3484 C   0  0  0  0  0  0  0  0  0  0  0  0
   14.7312   -3.0030  -11.0861 O   0  0  0  0  0  0  0  0  0  0  0  0
   16.4957   -2.1465  -16.3044 O   0  0  0  0  0  0  0  0  0  0  0  0
   16.2380   -1.3344  -11.2467 O   0  0  0  0  0  0  0  0  0  0  0  0
  1  2  1  0
  1  5  1  0
  2  3  1  0
  3  4  1  0
  5  6  1  1
  5  4  1  0
  6 13  1  0
  7  6  2  0
  8  9  1  0
  9 10  2  0
 11  9  1  0
 12 11  1  1
 12 14  1  0
 13 12  1  0
 14 15  2  0
 16 14  1  0
 16 17  1  0
 17 22  1  0
 17 18  1  6
 19 18  1  0
 20 19  1  0
 21 20  2  0
 22 23  2  0
 22 25  1  0
 24 20  1  0
M  END
$$$$
