PNE.pdb
     RDKit          3D

 25 25  0  0  1  0  0  0  0  0999 V2000
   17.2868  -11.3694  -14.2590 N   0  0  0  0  0  0  0  0  0  0  0  0
   16.7553  -12.4633  -15.0410 C   0  0  0  0  0  0  0  0  0  0  0  0
   15.2588  -12.1731  -15.1108 C   0  0  0  0  0  0  0  0  0  0  0  0
   15.1259  -10.7095  -14.7128 C   0  0  0  0  0  0  0  0  0  0  0  0
   16.5420  -10.2469  -14.7312 C   0  0  1  0  0  0  0  0  0  0  0  0
   16.7818   -9.0104  -13.9556 C   0  0  0  0  0  0  0  0  0  0  0  0
   16.3267   -7.9055  -14.3458 O   0  0  0  0  0  0  0  0  0  0  0  0
   17.3824   -5.4691   -9.7920 N   0  0  0  0  0  0  0  0  0  0  0  0
   18.1247   -6.7088   -9.7724 C   0  0  0  0  0  0  0  0  0  0  0  0
   19.1327   -6.7138   -9.0577 O   0  0  0  0  0  0  0  0  0  0  0  0
   17.5900   -7.7842  -10.5934 C   0  0  0  0  0  0  0  0  0  0  0  0
   17.8632   -7.7534  -12.0431 C   0  0  2  0  0  0  0  0  0  0  0  0
   17.5245   -8.9774  -12.7430 N   0  0  0  0  0  0  0  0  0  0  0  0
   19.2593   -7.3138  -12.4025 C   0  0  0  0  0  0  0  0  0  0  0  0
   20.2315   -8.0982  -12.2519 O   0  0  0  0  0  0  0  0  0  0  0  0
   19.5266   -6.0268  -12.9113 N   0  0  0  0  0  0  0  0  0  0  0  0
   20.8019   -5.6446  -13.5005 C   0  0  1  0  0  0  0  0  0  0  0  0
   20.6439   -5.2043  -14.9096 C   0  0  0  0  0  0  0  0  0  0  0  0
   21.9329   -4.8134  -15.5406 C   0  0  0  0  0  0  0  0  0  0  0  0
   21.6659   -4.4016  -16.9747 C   0  0  0  0  0  0  0  0  0  0  0  0
   20.4918   -4.4695  -17.4144 O   0  0  0  0  0  0  0  0  0  0  0  0
   21.4149   -4.6079  -12.6671 C   0  0  0  0  0  0  0  0  0  0  0  0
   20.7515   -3.8663  -11.9189 O   0  0  0  0  0  0  0  0  0  0  0  0
   22.6636   -3.9581  -17.8054 O   0  0  0  0  0  0  0  0  0  0  0  0
   22.7888   -4.4316  -12.7004 O   0  0  0  0  0  0  0  0  0  0  0  0
  1  2  1  0
  1  5  1  0
  2  3  1  0
  3  4  1  0
  5  6  1  1
  5  4  1  0
  6 13  1  0
  7  6  2  0
  8  9  1  0
  9 10  2  0
 11  9  1  0
 12 11  1  1
 12 14  1  0
 13 12  1  0
 14 15  2  0
 16 14  1  0
 16 17  1  0
 17 22  1  0
 17 18  1  6
 19 18  1  0
 20 19  1  0
 21 20  2  0
 22 23  2  0
 22 25  1  0
 24 20  1  0
M  END
$$$$
