PNE.pdb
     RDKit          3D

 25 25  0  0  1  0  0  0  0  0999 V2000
   27.9905  -20.5385  -16.7710 N   0  0  0  0  0  0  0  0  0  0  0  0
   28.7389  -19.5588  -17.5265 C   0  0  0  0  0  0  0  0  0  0  0  0
   28.1839  -18.2209  -17.0461 C   0  0  0  0  0  0  0  0  0  0  0  0
   27.4550  -18.5436  -15.7488 C   0  0  0  0  0  0  0  0  0  0  0  0
   27.8951  -19.9411  -15.4781 C   0  0  1  0  0  0  0  0  0  0  0  0
   27.0132  -20.6809  -14.5492 C   0  0  0  0  0  0  0  0  0  0  0  0
   26.2175  -21.5564  -14.9742 O   0  0  0  0  0  0  0  0  0  0  0  0
   25.2262  -20.5773   -8.5722 N   0  0  0  0  0  0  0  0  0  0  0  0
   25.1190  -21.1096   -9.9113 C   0  0  0  0  0  0  0  0  0  0  0  0
   24.1530  -21.8535  -10.1122 O   0  0  0  0  0  0  0  0  0  0  0  0
   26.1584  -20.7013  -10.8439 C   0  0  0  0  0  0  0  0  0  0  0  0
   25.8841  -20.8265  -12.2884 C   0  0  2  0  0  0  0  0  0  0  0  0
   26.9981  -20.4647  -13.1434 N   0  0  0  0  0  0  0  0  0  0  0  0
   24.6269  -20.1314  -12.7441 C   0  0  0  0  0  0  0  0  0  0  0  0
   24.5849  -18.8759  -12.8162 O   0  0  0  0  0  0  0  0  0  0  0  0
   23.4670  -20.8488  -13.0997 N   0  0  0  0  0  0  0  0  0  0  0  0
   22.2319  -20.2139  -13.5370 C   0  0  1  0  0  0  0  0  0  0  0  0
   21.9531  -20.4874  -14.9693 C   0  0  0  0  0  0  0  0  0  0  0  0
   21.5863  -21.9058  -15.2258 C   0  0  0  0  0  0  0  0  0  0  0  0
   21.2649  -22.0653  -16.6985 C   0  0  0  0  0  0  0  0  0  0  0  0
   21.2885  -21.0492  -17.4357 O   0  0  0  0  0  0  0  0  0  0  0  0
   21.1391  -20.6605  -12.6701 C   0  0  0  0  0  0  0  0  0  0  0  0
   21.2548  -21.6144  -11.8786 O   0  0  0  0  0  0  0  0  0  0  0  0
   20.9498  -23.2813  -17.2501 O   0  0  0  0  0  0  0  0  0  0  0  0
   19.9192  -20.0055  -12.7201 O   0  0  0  0  0  0  0  0  0  0  0  0
  1  2  1  0
  1  5  1  0
  2  3  1  0
  3  4  1  0
  5  6  1  1
  5  4  1  0
  6 13  1  0
  7  6  2  0
  8  9  1  0
  9 10  2  0
 11  9  1  0
 12 11  1  1
 12 14  1  0
 13 12  1  0
 14 15  2  0
 16 14  1  0
 16 17  1  0
 17 22  1  0
 17 18  1  6
 19 18  1  0
 20 19  1  0
 21 20  2  0
 22 23  2  0
 22 25  1  0
 24 20  1  0
M  END
$$$$
