PNE.pdb
     RDKit          3D

 25 25  0  0  1  0  0  0  0  0999 V2000
   23.8841  -13.1279  -18.8120 N   0  0  0  0  0  0  0  0  0  0  0  0
   23.4687  -14.4397  -19.2560 C   0  0  0  0  0  0  0  0  0  0  0  0
   23.1655  -15.1879  -17.9610 C   0  0  0  0  0  0  0  0  0  0  0  0
   23.0347  -14.1005  -16.9032 C   0  0  0  0  0  0  0  0  0  0  0  0
   22.9949  -12.8603  -17.7279 C   0  0  1  0  0  0  0  0  0  0  0  0
   23.3291  -11.6288  -16.9799 C   0  0  0  0  0  0  0  0  0  0  0  0
   22.6634  -11.2863  -15.9701 O   0  0  0  0  0  0  0  0  0  0  0  0
   26.5880  -11.3053  -15.5036 N   0  0  0  0  0  0  0  0  0  0  0  0
   27.1213  -10.0765  -16.0454 C   0  0  0  0  0  0  0  0  0  0  0  0
   28.3423   -9.9286  -15.9267 O   0  0  0  0  0  0  0  0  0  0  0  0
   26.1544   -9.1780  -16.6573 C   0  0  0  0  0  0  0  0  0  0  0  0
   24.7280   -9.5526  -16.6058 C   0  0  2  0  0  0  0  0  0  0  0  0
   24.3993  -10.7619  -17.3355 N   0  0  0  0  0  0  0  0  0  0  0  0
   23.7805   -8.4417  -16.9792 C   0  0  0  0  0  0  0  0  0  0  0  0
   23.5795   -8.1569  -18.1882 O   0  0  0  0  0  0  0  0  0  0  0  0
   23.0950   -7.6890  -16.0044 N   0  0  0  0  0  0  0  0  0  0  0  0
   22.0967   -6.6788  -16.3246 C   0  0  1  0  0  0  0  0  0  0  0  0
   20.8020   -6.9566  -15.6532 C   0  0  0  0  0  0  0  0  0  0  0  0
   19.7354   -5.9921  -16.0335 C   0  0  0  0  0  0  0  0  0  0  0  0
   18.4308   -6.4380  -15.4035 C   0  0  0  0  0  0  0  0  0  0  0  0
   17.3964   -5.7567  -15.6093 O   0  0  0  0  0  0  0  0  0  0  0  0
   22.6277   -5.3611  -15.9688 C   0  0  0  0  0  0  0  0  0  0  0  0
   23.6324   -5.2123  -15.2489 O   0  0  0  0  0  0  0  0  0  0  0  0
   18.3445   -7.5592  -14.6177 O   0  0  0  0  0  0  0  0  0  0  0  0
   21.9982   -4.2221  -16.4446 O   0  0  0  0  0  0  0  0  0  0  0  0
  1  2  1  0
  1  5  1  0
  2  3  1  0
  3  4  1  0
  5  6  1  1
  5  4  1  0
  6 13  1  0
  7  6  2  0
  8  9  1  0
  9 10  2  0
 11  9  1  0
 12 11  1  6
 12 14  1  0
 13 12  1  0
 14 15  2  0
 16 14  1  0
 16 17  1  0
 17 22  1  0
 17 18  1  1
 19 18  1  0
 20 19  1  0
 21 20  2  0
 22 23  2  0
 22 25  1  0
 24 20  1  0
M  END
$$$$
