PNE.pdb
     RDKit          3D

 25 25  0  0  1  0  0  0  0  0999 V2000
   19.7558  -13.3283  -16.4491 N   0  0  0  0  0  0  0  0  0  0  0  0
   19.8987  -14.7130  -16.8399 C   0  0  0  0  0  0  0  0  0  0  0  0
   19.7741  -14.6812  -18.3605 C   0  0  0  0  0  0  0  0  0  0  0  0
   19.9881  -13.2221  -18.7394 C   0  0  0  0  0  0  0  0  0  0  0  0
   20.4813  -12.6329  -17.4629 C   0  0  1  0  0  0  0  0  0  0  0  0
   20.3427  -11.1624  -17.3852 C   0  0  0  0  0  0  0  0  0  0  0  0
   20.9317  -10.4143  -18.2060 O   0  0  0  0  0  0  0  0  0  0  0  0
   16.7558   -8.1998  -18.3168 N   0  0  0  0  0  0  0  0  0  0  0  0
   16.9467   -9.0999  -17.2027 C   0  0  0  0  0  0  0  0  0  0  0  0
   16.2633  -10.1291  -17.2273 O   0  0  0  0  0  0  0  0  0  0  0  0
   17.9148   -8.6781  -16.2020 C   0  0  0  0  0  0  0  0  0  0  0  0
   19.3252   -9.0683  -16.3917 C   0  0  2  0  0  0  0  0  0  0  0  0
   19.5544  -10.5002  -16.4037 N   0  0  0  0  0  0  0  0  0  0  0  0
   20.2885   -8.3917  -15.4506 C   0  0  0  0  0  0  0  0  0  0  0  0
   20.2212   -8.6022  -14.2119 O   0  0  0  0  0  0  0  0  0  0  0  0
   21.2852   -7.5091  -15.9135 N   0  0  0  0  0  0  0  0  0  0  0  0
   22.3328   -6.9627  -15.0628 C   0  0  1  0  0  0  0  0  0  0  0  0
   23.5375   -6.5923  -15.8474 C   0  0  0  0  0  0  0  0  0  0  0  0
   23.2859   -5.4789  -16.8011 C   0  0  0  0  0  0  0  0  0  0  0  0
   24.5437   -5.2418  -17.6130 C   0  0  0  0  0  0  0  0  0  0  0  0
   25.5824   -5.8833  -17.3195 O   0  0  0  0  0  0  0  0  0  0  0  0
   21.7905   -5.8234  -14.3191 C   0  0  0  0  0  0  0  0  0  0  0  0
   20.7537   -5.2267  -14.6638 O   0  0  0  0  0  0  0  0  0  0  0  0
   24.5834   -4.3510  -18.6556 O   0  0  0  0  0  0  0  0  0  0  0  0
   22.4459   -5.3781  -13.1825 O   0  0  0  0  0  0  0  0  0  0  0  0
  1  2  1  0
  1  5  1  0
  2  3  1  0
  3  4  1  0
  5  6  1  6
  5  4  1  0
  6 13  1  0
  7  6  2  0
  8  9  1  0
  9 10  2  0
 11  9  1  0
 12 11  1  1
 12 14  1  0
 13 12  1  0
 14 15  2  0
 16 14  1  0
 16 17  1  0
 17 22  1  0
 17 18  1  6
 19 18  1  0
 20 19  1  0
 21 20  2  0
 22 23  2  0
 22 25  1  0
 24 20  1  0
M  END
$$$$
