PNE.pdb
     RDKit          3D

 25 25  0  0  1  0  0  0  0  0999 V2000
   24.6393  -22.2097  -14.9427 N   0  0  0  0  0  0  0  0  0  0  0  0
   25.9940  -22.4390  -15.3930 C   0  0  0  0  0  0  0  0  0  0  0  0
   26.6183  -21.0466  -15.4059 C   0  0  0  0  0  0  0  0  0  0  0  0
   25.6849  -20.1922  -14.5592 C   0  0  0  0  0  0  0  0  0  0  0  0
   24.8019  -21.2151  -13.9318 C   0  0  1  0  0  0  0  0  0  0  0  0
   23.5222  -20.6754  -13.4228 C   0  0  0  0  0  0  0  0  0  0  0  0
   23.5024  -19.8360  -12.4872 O   0  0  0  0  0  0  0  0  0  0  0  0
   19.2939  -17.3202  -13.6219 N   0  0  0  0  0  0  0  0  0  0  0  0
   19.2575  -18.7239  -13.9631 C   0  0  0  0  0  0  0  0  0  0  0  0
   18.1405  -19.2511  -13.9274 O   0  0  0  0  0  0  0  0  0  0  0  0
   20.5357  -19.3300  -14.3027 C   0  0  0  0  0  0  0  0  0  0  0  0
   21.0000  -20.4726  -13.4926 C   0  0  2  0  0  0  0  0  0  0  0  0
   22.2517  -21.0538  -13.9382 N   0  0  0  0  0  0  0  0  0  0  0  0
   19.9659  -21.5497  -13.2883 C   0  0  0  0  0  0  0  0  0  0  0  0
   19.8295  -22.4693  -14.1362 O   0  0  0  0  0  0  0  0  0  0  0  0
   19.1231  -21.5677  -12.1587 N   0  0  0  0  0  0  0  0  0  0  0  0
   18.1530  -22.6212  -11.8966 C   0  0  1  0  0  0  0  0  0  0  0  0
   18.0880  -22.9586  -10.4523 C   0  0  0  0  0  0  0  0  0  0  0  0
   18.9750  -24.0944  -10.0840 C   0  0  0  0  0  0  0  0  0  0  0  0
   18.7836  -24.4021   -8.6122 C   0  0  0  0  0  0  0  0  0  0  0  0
   17.8696  -23.8121   -7.9853 O   0  0  0  0  0  0  0  0  0  0  0  0
   16.8507  -22.2047  -12.4220 C   0  0  0  0  0  0  0  0  0  0  0  0
   16.5320  -21.0094  -12.5607 O   0  0  0  0  0  0  0  0  0  0  0  0
   19.5750  -25.3025   -7.9450 O   0  0  0  0  0  0  0  0  0  0  0  0
   15.9232  -23.1681  -12.7846 O   0  0  0  0  0  0  0  0  0  0  0  0
  1  2  1  0
  1  5  1  0
  2  3  1  0
  3  4  1  0
  5  6  1  6
  5  4  1  0
  6 13  1  0
  7  6  2  0
  8  9  1  0
  9 10  2  0
 11  9  1  0
 12 11  1  6
 12 14  1  0
 13 12  1  0
 14 15  2  0
 16 14  1  0
 16 17  1  0
 17 22  1  0
 17 18  1  1
 19 18  1  0
 20 19  1  0
 21 20  2  0
 22 23  2  0
 22 25  1  0
 24 20  1  0
M  END
$$$$
