PNE.pdb
     RDKit          3D

 25 25  0  0  1  0  0  0  0  0999 V2000
   19.4082  -13.0398  -15.7794 N   0  0  0  0  0  0  0  0  0  0  0  0
   19.9314  -14.3350  -16.1528 C   0  0  0  0  0  0  0  0  0  0  0  0
   19.3112  -14.6020  -17.5213 C   0  0  0  0  0  0  0  0  0  0  0  0
   18.8147  -13.2435  -17.9969 C   0  0  0  0  0  0  0  0  0  0  0  0
   19.4360  -12.3165  -17.0097 C   0  0  1  0  0  0  0  0  0  0  0  0
   18.7808  -10.9927  -16.9316 C   0  0  0  0  0  0  0  0  0  0  0  0
   18.9675  -10.1265  -17.8233 O   0  0  0  0  0  0  0  0  0  0  0  0
   15.7765   -6.9661  -15.6264 N   0  0  0  0  0  0  0  0  0  0  0  0
   15.0906   -8.1639  -15.1992 C   0  0  0  0  0  0  0  0  0  0  0  0
   13.9310   -8.0007  -14.8045 O   0  0  0  0  0  0  0  0  0  0  0  0
   15.8520   -9.4003  -15.2895 C   0  0  0  0  0  0  0  0  0  0  0  0
   17.2276   -9.3322  -15.8191 C   0  0  2  0  0  0  0  0  0  0  0  0
   17.9135  -10.6088  -15.8716 N   0  0  0  0  0  0  0  0  0  0  0  0
   18.0981   -8.2970  -15.1544 C   0  0  0  0  0  0  0  0  0  0  0  0
   18.6067   -8.5234  -14.0260 O   0  0  0  0  0  0  0  0  0  0  0  0
   18.3708   -7.0538  -15.7600 N   0  0  0  0  0  0  0  0  0  0  0  0
   19.1584   -6.0064  -15.1256 C   0  0  1  0  0  0  0  0  0  0  0  0
   20.5331   -5.9419  -15.6826 C   0  0  0  0  0  0  0  0  0  0  0  0
   21.3332   -4.8225  -15.1177 C   0  0  0  0  0  0  0  0  0  0  0  0
   21.8676   -5.2432  -13.7630 C   0  0  0  0  0  0  0  0  0  0  0  0
   21.7238   -6.4367  -13.4008 O   0  0  0  0  0  0  0  0  0  0  0  0
   18.4492   -4.7325  -15.2654 C   0  0  0  0  0  0  0  0  0  0  0  0
   18.2449   -3.9671  -14.3051 O   0  0  0  0  0  0  0  0  0  0  0  0
   22.5016   -4.3637  -12.9225 O   0  0  0  0  0  0  0  0  0  0  0  0
   17.9795   -4.3478  -16.5109 O   0  0  0  0  0  0  0  0  0  0  0  0
  1  2  1  0
  1  5  1  0
  2  3  1  0
  3  4  1  0
  5  6  1  1
  5  4  1  0
  6 13  1  0
  7  6  2  0
  8  9  1  0
  9 10  2  0
 11  9  1  0
 12 11  1  1
 12 14  1  0
 13 12  1  0
 14 15  2  0
 16 14  1  0
 16 17  1  0
 17 22  1  0
 17 18  1  6
 19 18  1  0
 20 19  1  0
 21 20  2  0
 22 23  2  0
 22 25  1  0
 24 20  1  0
M  END
$$$$
