PNE.pdb
     RDKit          3D

 25 25  0  0  1  0  0  0  0  0999 V2000
   16.6351  -12.2773  -13.2506 N   0  0  0  0  0  0  0  0  0  0  0  0
   16.7090  -13.2233  -14.3415 C   0  0  0  0  0  0  0  0  0  0  0  0
   15.4647  -12.9248  -15.1728 C   0  0  0  0  0  0  0  0  0  0  0  0
   15.0057  -11.5493  -14.7086 C   0  0  0  0  0  0  0  0  0  0  0  0
   16.1611  -11.0908  -13.8873 C   0  0  1  0  0  0  0  0  0  0  0  0
   15.8329  -10.0031  -12.9403 C   0  0  0  0  0  0  0  0  0  0  0  0
   15.4907   -8.8671  -13.3557 O   0  0  0  0  0  0  0  0  0  0  0  0
   12.7709   -9.0849  -10.9388 N   0  0  0  0  0  0  0  0  0  0  0  0
   13.2457   -9.5493   -9.6555 C   0  0  0  0  0  0  0  0  0  0  0  0
   12.3689   -9.9091   -8.8625 O   0  0  0  0  0  0  0  0  0  0  0  0
   14.6880   -9.5324   -9.4661 C   0  0  0  0  0  0  0  0  0  0  0  0
   15.5322   -9.0978  -10.5956 C   0  0  2  0  0  0  0  0  0  0  0  0
   15.8780  -10.1544  -11.5266 N   0  0  0  0  0  0  0  0  0  0  0  0
   16.7657   -8.3325  -10.1903 C   0  0  0  0  0  0  0  0  0  0  0  0
   17.7849   -8.9428   -9.7756 O   0  0  0  0  0  0  0  0  0  0  0  0
   16.8243   -6.9258  -10.2568 N   0  0  0  0  0  0  0  0  0  0  0  0
   18.0651   -6.1686  -10.1764 C   0  0  1  0  0  0  0  0  0  0  0  0
   19.0110   -6.5514  -11.2548 C   0  0  0  0  0  0  0  0  0  0  0  0
   20.1868   -5.6444  -11.3407 C   0  0  0  0  0  0  0  0  0  0  0  0
   21.0257   -6.0494  -12.5365 C   0  0  0  0  0  0  0  0  0  0  0  0
   21.6194   -5.1557  -13.1887 O   0  0  0  0  0  0  0  0  0  0  0  0
   17.7482   -4.7389  -10.2063 C   0  0  0  0  0  0  0  0  0  0  0  0
   16.7283   -4.2871  -10.7589 O   0  0  0  0  0  0  0  0  0  0  0  0
   21.1566   -7.3577  -12.9278 O   0  0  0  0  0  0  0  0  0  0  0  0
   18.6084   -3.8380   -9.5993 O   0  0  0  0  0  0  0  0  0  0  0  0
  1  2  1  0
  1  5  1  0
  2  3  1  0
  3  4  1  0
  5  6  1  1
  5  4  1  0
  6 13  1  0
  7  6  2  0
  8  9  1  0
  9 10  2  0
 11  9  1  0
 12 11  1  1
 12 14  1  0
 13 12  1  0
 14 15  2  0
 16 14  1  0
 16 17  1  0
 17 22  1  0
 17 18  1  6
 19 18  1  0
 20 19  1  0
 21 20  2  0
 22 23  2  0
 22 25  1  0
 24 20  1  0
M  END
$$$$
