PNE.pdb
     RDKit          3D

 25 25  0  0  1  0  0  0  0  0999 V2000
   21.9773  -14.1589  -19.1317 N   0  0  0  0  0  0  0  0  0  0  0  0
   21.2998  -15.3075  -19.6904 C   0  0  0  0  0  0  0  0  0  0  0  0
   21.1217  -16.2452  -18.4998 C   0  0  0  0  0  0  0  0  0  0  0  0
   21.3424  -15.3677  -17.2752 C   0  0  0  0  0  0  0  0  0  0  0  0
   21.3428  -13.9987  -17.8631 C   0  0  1  0  0  0  0  0  0  0  0  0
   21.9829  -12.9761  -17.0074 C   0  0  0  0  0  0  0  0  0  0  0  0
   21.4472  -12.6076  -15.9315 O   0  0  0  0  0  0  0  0  0  0  0  0
   27.4346  -10.1693  -16.0413 N   0  0  0  0  0  0  0  0  0  0  0  0
   26.0102  -10.2674  -15.8192 C   0  0  0  0  0  0  0  0  0  0  0  0
   25.5532   -9.5106  -14.9557 O   0  0  0  0  0  0  0  0  0  0  0  0
   25.3035  -11.2403  -16.6381 C   0  0  0  0  0  0  0  0  0  0  0  0
   23.8368  -11.3281  -16.5025 C   0  0  2  0  0  0  0  0  0  0  0  0
   23.2188  -12.3487  -17.3268 N   0  0  0  0  0  0  0  0  0  0  0  0
   23.1181  -10.0140  -16.6695 C   0  0  0  0  0  0  0  0  0  0  0  0
   22.8963   -9.5520  -17.8186 O   0  0  0  0  0  0  0  0  0  0  0  0
   22.6752   -9.2620  -15.5627 N   0  0  0  0  0  0  0  0  0  0  0  0
   21.6812   -8.2024  -15.6570 C   0  0  1  0  0  0  0  0  0  0  0  0
   20.3968   -8.7040  -16.2073 C   0  0  0  0  0  0  0  0  0  0  0  0
   19.3442   -7.6548  -16.2653 C   0  0  0  0  0  0  0  0  0  0  0  0
   18.0911   -8.2573  -16.8689 C   0  0  0  0  0  0  0  0  0  0  0  0
   18.1318   -9.4390  -17.2914 O   0  0  0  0  0  0  0  0  0  0  0  0
   21.5120   -7.5951  -14.3350 C   0  0  0  0  0  0  0  0  0  0  0  0
   20.8157   -6.5808  -14.1445 O   0  0  0  0  0  0  0  0  0  0  0  0
   16.9170   -7.5545  -16.9680 O   0  0  0  0  0  0  0  0  0  0  0  0
   22.1459   -8.1599  -13.2401 O   0  0  0  0  0  0  0  0  0  0  0  0
  1  2  1  0
  1  5  1  0
  2  3  1  0
  3  4  1  0
  5  6  1  1
  5  4  1  0
  6 13  1  0
  7  6  2  0
  8  9  1  0
  9 10  2  0
 11  9  1  0
 12 11  1  6
 12 14  1  0
 13 12  1  0
 14 15  2  0
 16 14  1  0
 16 17  1  0
 17 22  1  0
 17 18  1  1
 19 18  1  0
 20 19  1  0
 21 20  2  0
 22 23  2  0
 22 25  1  0
 24 20  1  0
M  END
$$$$
