PNE.pdb
     RDKit          3D

 25 25  0  0  1  0  0  0  0  0999 V2000
   24.4088  -13.5520  -15.6274 N   0  0  0  0  0  0  0  0  0  0  0  0
   25.4940  -14.4944  -15.7836 C   0  0  0  0  0  0  0  0  0  0  0  0
   25.8656  -14.3869  -17.2597 C   0  0  0  0  0  0  0  0  0  0  0  0
   25.2337  -13.0830  -17.7275 C   0  0  0  0  0  0  0  0  0  0  0  0
   24.8185  -12.4540  -16.4423 C   0  0  1  0  0  0  0  0  0  0  0  0
   23.7820  -11.4092  -16.5905 C   0  0  0  0  0  0  0  0  0  0  0  0
   23.9947  -10.3829  -17.2845 O   0  0  0  0  0  0  0  0  0  0  0  0
   20.8317  -12.0645  -18.4359 N   0  0  0  0  0  0  0  0  0  0  0  0
   19.7858  -11.9391  -17.4468 C   0  0  0  0  0  0  0  0  0  0  0  0
   18.7460  -12.5607  -17.6905 O   0  0  0  0  0  0  0  0  0  0  0  0
   20.0929  -11.1008  -16.2981 C   0  0  0  0  0  0  0  0  0  0  0  0
   21.4447  -10.5166  -16.2058 C   0  0  2  0  0  0  0  0  0  0  0  0
   22.5010  -11.4833  -15.9765 N   0  0  0  0  0  0  0  0  0  0  0  0
   21.5614   -9.3726  -15.2315 C   0  0  0  0  0  0  0  0  0  0  0  0
   21.7846   -9.5950  -14.0134 O   0  0  0  0  0  0  0  0  0  0  0  0
   21.4254   -8.0304  -15.6398 N   0  0  0  0  0  0  0  0  0  0  0  0
   21.6235   -6.8957  -14.7495 C   0  0  1  0  0  0  0  0  0  0  0  0
   21.9358   -5.6558  -15.5041 C   0  0  0  0  0  0  0  0  0  0  0  0
   22.1556   -4.4808  -14.6190 C   0  0  0  0  0  0  0  0  0  0  0  0
   22.2168   -3.2322  -15.4763 C   0  0  0  0  0  0  0  0  0  0  0  0
   21.5753   -2.2164  -15.1113 O   0  0  0  0  0  0  0  0  0  0  0  0
   20.4338   -6.7417  -13.9093 C   0  0  0  0  0  0  0  0  0  0  0  0
   19.2769   -6.8703  -14.3507 O   0  0  0  0  0  0  0  0  0  0  0  0
   22.9488   -3.1768  -16.6352 O   0  0  0  0  0  0  0  0  0  0  0  0
   20.5838   -6.4405  -12.5652 O   0  0  0  0  0  0  0  0  0  0  0  0
  1  2  1  0
  1  5  1  0
  2  3  1  0
  3  4  1  0
  5  6  1  6
  5  4  1  0
  6 13  1  0
  7  6  2  0
  8  9  1  0
  9 10  2  0
 11  9  1  0
 12 11  1  1
 12 14  1  0
 13 12  1  0
 14 15  2  0
 16 14  1  0
 16 17  1  0
 17 22  1  0
 17 18  1  6
 19 18  1  0
 20 19  1  0
 21 20  2  0
 22 23  2  0
 22 25  1  0
 24 20  1  0
M  END
$$$$
