PNE.pdb
     RDKit          3D

 25 25  0  0  1  0  0  0  0  0999 V2000
   35.0956  -26.8934  -13.8569 N   0  0  0  0  0  0  0  0  0  0  0  0
   35.6092  -26.3271  -12.6297 C   0  0  0  0  0  0  0  0  0  0  0  0
   36.7235  -25.3933  -13.0930 C   0  0  0  0  0  0  0  0  0  0  0  0
   36.4708  -25.1917  -14.5809 C   0  0  0  0  0  0  0  0  0  0  0  0
   35.1144  -25.7834  -14.7542 C   0  0  1  0  0  0  0  0  0  0  0  0
   34.7900  -26.1471  -16.1507 C   0  0  0  0  0  0  0  0  0  0  0  0
   34.6302  -25.2610  -17.0280 O   0  0  0  0  0  0  0  0  0  0  0  0
   37.7528  -27.9617  -19.5292 N   0  0  0  0  0  0  0  0  0  0  0  0
   36.3488  -27.6211  -19.4999 C   0  0  0  0  0  0  0  0  0  0  0  0
   36.0250  -26.6413  -20.1797 O   0  0  0  0  0  0  0  0  0  0  0  0
   35.5039  -28.4731  -18.6773 C   0  0  0  0  0  0  0  0  0  0  0  0
   34.3657  -27.8514  -17.9735 C   0  0  2  0  0  0  0  0  0  0  0  0
   34.6382  -27.4895  -16.5960 N   0  0  0  0  0  0  0  0  0  0  0  0
   33.0787  -28.6302  -18.0655 C   0  0  0  0  0  0  0  0  0  0  0  0
   32.7660  -29.4506  -17.1642 O   0  0  0  0  0  0  0  0  0  0  0  0
   32.1900  -28.4741  -19.1484 N   0  0  0  0  0  0  0  0  0  0  0  0
   30.7439  -28.5883  -19.0241 C   0  0  1  0  0  0  0  0  0  0  0  0
   30.2208  -27.7430  -17.9214 C   0  0  0  0  0  0  0  0  0  0  0  0
   28.7400  -27.8069  -17.7973 C   0  0  0  0  0  0  0  0  0  0  0  0
   28.3333  -27.1476  -16.4944 C   0  0  0  0  0  0  0  0  0  0  0  0
   28.1763  -27.8661  -15.4767 O   0  0  0  0  0  0  0  0  0  0  0  0
   30.1317  -28.2518  -20.3114 C   0  0  0  0  0  0  0  0  0  0  0  0
   29.1370  -28.8507  -20.7605 O   0  0  0  0  0  0  0  0  0  0  0  0
   28.1318  -25.7944  -16.3919 O   0  0  0  0  0  0  0  0  0  0  0  0
   30.6689  -27.2272  -21.0738 O   0  0  0  0  0  0  0  0  0  0  0  0
  1  2  1  0
  1  5  1  0
  2  3  1  0
  3  4  1  0
  5  6  1  6
  5  4  1  0
  6 13  1  0
  7  6  2  0
  8  9  1  0
  9 10  2  0
 11  9  1  0
 12 11  1  1
 12 14  1  0
 13 12  1  0
 14 15  2  0
 16 14  1  0
 16 17  1  0
 17 22  1  0
 17 18  1  1
 19 18  1  0
 20 19  1  0
 21 20  2  0
 22 23  2  0
 22 25  1  0
 24 20  1  0
M  END
$$$$
