PNE.pdb
     RDKit          3D

 25 25  0  0  1  0  0  0  0  0999 V2000
   27.8181  -21.8306  -16.7920 N   0  0  0  0  0  0  0  0  0  0  0  0
   29.1092  -22.4813  -16.8052 C   0  0  0  0  0  0  0  0  0  0  0  0
   29.8330  -21.8396  -17.9854 C   0  0  0  0  0  0  0  0  0  0  0  0
   29.0407  -20.5753  -18.2888 C   0  0  0  0  0  0  0  0  0  0  0  0
   28.1391  -20.4758  -17.1068 C   0  0  1  0  0  0  0  0  0  0  0  0
   26.9508  -19.6227  -17.3258 C   0  0  0  0  0  0  0  0  0  0  0  0
   27.0741  -18.4001  -17.5912 O   0  0  0  0  0  0  0  0  0  0  0  0
   23.5039  -16.5986  -19.8166 N   0  0  0  0  0  0  0  0  0  0  0  0
   23.2665  -17.9164  -19.2733 C   0  0  0  0  0  0  0  0  0  0  0  0
   22.0816  -18.2624  -19.2158 O   0  0  0  0  0  0  0  0  0  0  0  0
   24.4490  -18.6600  -18.8669 C   0  0  0  0  0  0  0  0  0  0  0  0
   24.4502  -19.2879  -17.5316 C   0  0  2  0  0  0  0  0  0  0  0  0
   25.6150  -20.1063  -17.2552 N   0  0  0  0  0  0  0  0  0  0  0  0
   23.1889  -20.0430  -17.1995 C   0  0  0  0  0  0  0  0  0  0  0  0
   22.9474  -21.1497  -17.7473 O   0  0  0  0  0  0  0  0  0  0  0  0
   22.2446  -19.5462  -16.2786 N   0  0  0  0  0  0  0  0  0  0  0  0
   21.1070  -20.3178  -15.7990 C   0  0  1  0  0  0  0  0  0  0  0  0
   21.1765  -20.5421  -14.3330 C   0  0  0  0  0  0  0  0  0  0  0  0
   20.2531  -19.6608  -13.5694 C   0  0  0  0  0  0  0  0  0  0  0  0
   20.1073  -20.2116  -12.1648 C   0  0  0  0  0  0  0  0  0  0  0  0
   20.9746  -19.9157  -11.3065 O   0  0  0  0  0  0  0  0  0  0  0  0
   19.8732  -19.6331  -16.1915 C   0  0  0  0  0  0  0  0  0  0  0  0
   18.7841  -20.2242  -16.3106 O   0  0  0  0  0  0  0  0  0  0  0  0
   19.0606  -21.0211  -11.8023 O   0  0  0  0  0  0  0  0  0  0  0  0
   19.9013  -18.2711  -16.4445 O   0  0  0  0  0  0  0  0  0  0  0  0
  1  2  1  0
  1  5  1  0
  2  3  1  0
  3  4  1  0
  5  6  1  6
  5  4  1  0
  6 13  1  0
  7  6  2  0
  8  9  1  0
  9 10  2  0
 11  9  1  0
 12 11  1  6
 12 14  1  0
 13 12  1  0
 14 15  2  0
 16 14  1  0
 16 17  1  0
 17 22  1  0
 17 18  1  1
 19 18  1  0
 20 19  1  0
 21 20  2  0
 22 23  2  0
 22 25  1  0
 24 20  1  0
M  END
$$$$
