PNE.pdb
     RDKit          3D

 25 25  0  0  1  0  0  0  0  0999 V2000
   26.1745  -17.7742  -16.3595 N   0  0  0  0  0  0  0  0  0  0  0  0
   27.0369  -16.9289  -17.1547 C   0  0  0  0  0  0  0  0  0  0  0  0
   28.3694  -16.9595  -16.4116 C   0  0  0  0  0  0  0  0  0  0  0  0
   28.2692  -18.1591  -15.4794 C   0  0  0  0  0  0  0  0  0  0  0  0
   27.0401  -18.8413  -15.9729 C   0  0  1  0  0  0  0  0  0  0  0  0
   26.4327  -19.7698  -14.9947 C   0  0  0  0  0  0  0  0  0  0  0  0
   26.2509  -20.9803  -15.2807 O   0  0  0  0  0  0  0  0  0  0  0  0
   25.1815  -20.5180   -9.1712 N   0  0  0  0  0  0  0  0  0  0  0  0
   25.7459  -21.1430  -10.3455 C   0  0  0  0  0  0  0  0  0  0  0  0
   25.7864  -22.3778  -10.3233 O   0  0  0  0  0  0  0  0  0  0  0  0
   26.1906  -20.2399  -11.3959 C   0  0  0  0  0  0  0  0  0  0  0  0
   25.5036  -20.2995  -12.7005 C   0  0  2  0  0  0  0  0  0  0  0  0
   26.0193  -19.3756  -13.6921 N   0  0  0  0  0  0  0  0  0  0  0  0
   24.0025  -20.1940  -12.6170 C   0  0  0  0  0  0  0  0  0  0  0  0
   23.3470  -20.9991  -11.9061 O   0  0  0  0  0  0  0  0  0  0  0  0
   23.2854  -19.2066  -13.3222 N   0  0  0  0  0  0  0  0  0  0  0  0
   21.9224  -19.3904  -13.7998 C   0  0  1  0  0  0  0  0  0  0  0  0
   21.8904  -19.7443  -15.2413 C   0  0  0  0  0  0  0  0  0  0  0  0
   20.5097  -19.8027  -15.7912 C   0  0  0  0  0  0  0  0  0  0  0  0
   20.5870  -20.1768  -17.2581 C   0  0  0  0  0  0  0  0  0  0  0  0
   21.7164  -20.3462  -17.7799 O   0  0  0  0  0  0  0  0  0  0  0  0
   21.2649  -20.4036  -12.9713 C   0  0  0  0  0  0  0  0  0  0  0  0
   21.7359  -21.5433  -12.8014 O   0  0  0  0  0  0  0  0  0  0  0  0
   19.4652  -20.3359  -18.0317 O   0  0  0  0  0  0  0  0  0  0  0  0
   20.0682  -20.0977  -12.3433 O   0  0  0  0  0  0  0  0  0  0  0  0
  1  2  1  0
  1  5  1  0
  2  3  1  0
  3  4  1  0
  5  6  1  1
  5  4  1  0
  6 13  1  0
  7  6  2  0
  8  9  1  0
  9 10  2  0
 11  9  1  0
 12 11  1  1
 12 14  1  0
 13 12  1  0
 14 15  2  0
 16 14  1  0
 16 17  1  0
 17 22  1  0
 17 18  1  6
 19 18  1  0
 20 19  1  0
 21 20  2  0
 22 23  2  0
 22 25  1  0
 24 20  1  0
M  END
$$$$
