YCS.pdb
     RDKit          3D

 25 25  0  0  1  0  0  0  0  0999 V2000
   28.0497  -19.8252   -5.6927 O   0  0  0  0  0  0  0  0  0  0  0  0
   27.8070  -19.9042   -7.0547 C   0  0  0  0  0  0  0  0  0  0  0  0
   28.8467  -20.2460   -7.8935 C   0  0  0  0  0  0  0  0  0  0  0  0
   28.6133  -20.3267   -9.2504 C   0  0  0  0  0  0  0  0  0  0  0  0
   27.3630  -20.0742   -9.7978 C   0  0  0  0  0  0  0  0  0  0  0  0
   27.1629  -20.1744  -11.2664 C   0  0  0  0  0  0  0  0  0  0  0  0
   26.3998  -21.4338  -11.5389 C   0  0  2  0  0  0  0  0  0  0  0  0
   27.3318  -22.4878  -11.8575 N   0  0  0  0  0  0  0  0  0  0  0  0
   25.3808  -21.2565  -12.6129 C   0  0  0  0  0  0  0  0  0  0  0  0
   25.7219  -21.3180  -13.8215 O   0  0  0  0  0  0  0  0  0  0  0  0
   26.3215  -19.7299   -8.9402 C   0  0  0  0  0  0  0  0  0  0  0  0
   26.5443  -19.6462   -7.5794 C   0  0  0  0  0  0  0  0  0  0  0  0
   24.0045  -21.0146  -12.3373 N   0  0  0  0  0  0  0  0  0  0  0  0
   22.9962  -20.9868  -13.3675 C   0  0  1  0  0  0  0  0  0  0  0  0
   22.1388  -22.2293  -13.3652 C   0  0  0  0  0  0  0  0  0  0  0  0
   21.4046  -22.5897  -11.7748 S   0  0  0  0  0  0  0  0  0  0  0  0
   22.1238  -19.7934  -13.2766 C   0  0  0  0  0  0  0  0  0  0  0  0
   21.8028  -19.2398  -12.1929 O   0  0  0  0  0  0  0  0  0  0  0  0
   20.6230  -18.7512  -16.8499 O   0  0  0  0  0  0  0  0  0  0  0  0
   20.7158  -17.6631  -16.0153 C   0  0  0  0  0  0  0  0  0  0  0  0
   20.7635  -18.0889  -14.5416 C   0  0  2  0  0  0  0  0  0  0  0  0
   21.6187  -19.2386  -14.4759 N   0  0  0  0  0  0  0  0  0  0  0  0
   19.3854  -18.4978  -14.1887 C   0  0  0  0  0  0  0  0  0  0  0  0
   19.0929  -19.7164  -14.1465 O   0  0  0  0  0  0  0  0  0  0  0  0
   18.3705  -17.5877  -13.8939 O   0  0  0  0  0  0  0  0  0  0  0  0
  2  3  2  0
  2  1  1  0
  4  3  1  0
  5  4  2  0
  6  7  1  0
  6  5  1  0
  7  8  1  6
  9 13  1  0
  9  7  1  0
 10  9  2  0
 11  5  1  0
 11 12  2  0
 12  2  1  0
 14 13  1  0
 14 15  1  1
 16 15  1  0
 17 14  1  0
 18 17  2  0
 19 20  1  0
 21 20  1  6
 21 23  1  0
 21 22  1  0
 22 17  1  0
 23 25  1  0
 24 23  2  0
M  END
$$$$
