YCS.pdb
     RDKit          3D

 25 25  0  0  1  0  0  0  0  0999 V2000
   27.8203  -19.4769   -5.1818 O   0  0  0  0  0  0  0  0  0  0  0  0
   27.5766  -19.5691   -6.5428 C   0  0  0  0  0  0  0  0  0  0  0  0
   28.6017  -19.2831   -7.4197 C   0  0  0  0  0  0  0  0  0  0  0  0
   28.3671  -19.3725   -8.7759 C   0  0  0  0  0  0  0  0  0  0  0  0
   27.1299  -19.7419   -9.2853 C   0  0  0  0  0  0  0  0  0  0  0  0
   26.9279  -19.8236  -10.7548 C   0  0  0  0  0  0  0  0  0  0  0  0
   26.3186  -21.1573  -11.0592 C   0  0  2  0  0  0  0  0  0  0  0  0
   27.3584  -22.1572  -11.0688 N   0  0  0  0  0  0  0  0  0  0  0  0
   25.5500  -21.1497  -12.3368 C   0  0  0  0  0  0  0  0  0  0  0  0
   26.1556  -21.2130  -13.4369 O   0  0  0  0  0  0  0  0  0  0  0  0
   26.1031  -20.0281   -8.3895 C   0  0  0  0  0  0  0  0  0  0  0  0
   26.3271  -19.9417   -7.0291 C   0  0  0  0  0  0  0  0  0  0  0  0
   24.1285  -21.0725  -12.3808 N   0  0  0  0  0  0  0  0  0  0  0  0
   23.3852  -21.0784  -13.6163 C   0  0  1  0  0  0  0  0  0  0  0  0
   22.7348  -22.4132  -13.8886 C   0  0  0  0  0  0  0  0  0  0  0  0
   23.8960  -23.7705  -13.9776 S   0  0  0  0  0  0  0  0  0  0  0  0
   22.3543  -20.0160  -13.6641 C   0  0  0  0  0  0  0  0  0  0  0  0
   21.6689  -19.6582  -12.6711 O   0  0  0  0  0  0  0  0  0  0  0  0
   22.6920  -17.1318  -16.5857 O   0  0  0  0  0  0  0  0  0  0  0  0
   21.4545  -17.7219  -16.4882 C   0  0  0  0  0  0  0  0  0  0  0  0
   21.2054  -18.2731  -15.0777 C   0  0  2  0  0  0  0  0  0  0  0  0
   22.1221  -19.3613  -14.8964 N   0  0  0  0  0  0  0  0  0  0  0  0
   19.8250  -18.8075  -15.0849 C   0  0  0  0  0  0  0  0  0  0  0  0
   19.6225  -19.9943  -15.4354 O   0  0  0  0  0  0  0  0  0  0  0  0
   18.7118  -18.0523  -14.7166 O   0  0  0  0  0  0  0  0  0  0  0  0
  2  3  2  0
  2  1  1  0
  4  3  1  0
  5  4  2  0
  6  7  1  0
  6  5  1  0
  7  8  1  6
  9 13  1  0
  9  7  1  0
 10  9  2  0
 11  5  1  0
 11 12  2  0
 12  2  1  0
 14 13  1  0
 14 15  1  1
 16 15  1  0
 17 14  1  0
 18 17  2  0
 19 20  1  0
 21 20  1  6
 21 23  1  0
 21 22  1  0
 22 17  1  0
 23 25  1  0
 24 23  2  0
M  END
$$$$
