YCS.pdb
     RDKit          3D

 25 25  0  0  1  0  0  0  0  0999 V2000
   16.6568  -14.4590  -16.9967 O   0  0  0  0  0  0  0  0  0  0  0  0
   17.2737  -13.3366  -16.4677 C   0  0  0  0  0  0  0  0  0  0  0  0
   17.5065  -12.2578  -17.2945 C   0  0  0  0  0  0  0  0  0  0  0  0
   18.1200  -11.1368  -16.7756 C   0  0  0  0  0  0  0  0  0  0  0  0
   18.5106  -11.0614  -15.4458 C   0  0  0  0  0  0  0  0  0  0  0  0
   19.1682   -9.8311  -14.9352 C   0  0  0  0  0  0  0  0  0  0  0  0
   20.5250   -9.7435  -15.5631 C   0  0  2  0  0  0  0  0  0  0  0  0
   21.3559  -10.7975  -15.0339 N   0  0  0  0  0  0  0  0  0  0  0  0
   21.1498   -8.4028  -15.3751 C   0  0  0  0  0  0  0  0  0  0  0  0
   21.5000   -8.0261  -14.2278 O   0  0  0  0  0  0  0  0  0  0  0  0
   18.2700  -12.1573  -14.6214 C   0  0  0  0  0  0  0  0  0  0  0  0
   17.6561  -13.2852  -15.1308 C   0  0  0  0  0  0  0  0  0  0  0  0
   21.3779   -7.5007  -16.4534 N   0  0  0  0  0  0  0  0  0  0  0  0
   21.9775   -6.2023  -16.2702 C   0  0  1  0  0  0  0  0  0  0  0  0
   23.3671   -6.1241  -16.8549 C   0  0  0  0  0  0  0  0  0  0  0  0
   24.4972   -7.3346  -16.1796 S   0  0  0  0  0  0  0  0  0  0  0  0
   21.1505   -5.1101  -16.8330 C   0  0  0  0  0  0  0  0  0  0  0  0
   20.7205   -5.0937  -18.0156 O   0  0  0  0  0  0  0  0  0  0  0  0
   18.7932   -3.0373  -14.2327 O   0  0  0  0  0  0  0  0  0  0  0  0
   19.5521   -2.2381  -15.0539 C   0  0  0  0  0  0  0  0  0  0  0  0
   19.9207   -2.9616  -16.3562 C   0  0  2  0  0  0  0  0  0  0  0  0
   20.8213   -4.0182  -15.9960 N   0  0  0  0  0  0  0  0  0  0  0  0
   20.6501   -1.9727  -17.1816 C   0  0  0  0  0  0  0  0  0  0  0  0
   21.9021   -2.0159  -17.2371 O   0  0  0  0  0  0  0  0  0  0  0  0
   20.0131   -0.9737  -17.9174 O   0  0  0  0  0  0  0  0  0  0  0  0
  2  3  2  0
  2  1  1  0
  4  3  1  0
  5  4  2  0
  6  7  1  0
  6  5  1  0
  7  8  1  1
  9 13  1  0
  9  7  1  0
 10  9  2  0
 11  5  1  0
 11 12  2  0
 12  2  1  0
 14 13  1  0
 14 15  1  6
 16 15  1  0
 17 14  1  0
 18 17  2  0
 19 20  1  0
 21 20  1  1
 21 23  1  0
 21 22  1  0
 22 17  1  0
 23 25  1  0
 24 23  2  0
M  END
$$$$
