YCS.pdb
     RDKit          3D

 25 25  0  0  1  0  0  0  0  0999 V2000
   27.9807  -20.2301   -5.3853 O   0  0  0  0  0  0  0  0  0  0  0  0
   27.9139  -20.1770   -6.7684 C   0  0  0  0  0  0  0  0  0  0  0  0
   26.6786  -20.2631   -7.3751 C   0  0  0  0  0  0  0  0  0  0  0  0
   26.6036  -20.2111   -8.7514 C   0  0  0  0  0  0  0  0  0  0  0  0
   27.7344  -20.0746   -9.5447 C   0  0  0  0  0  0  0  0  0  0  0  0
   27.6005  -20.0236  -11.0234 C   0  0  0  0  0  0  0  0  0  0  0  0
   27.3179  -21.4131  -11.5051 C   0  0  2  0  0  0  0  0  0  0  0  0
   28.5644  -22.0542  -11.8463 N   0  0  0  0  0  0  0  0  0  0  0  0
   26.3585  -21.4319  -12.6463 C   0  0  0  0  0  0  0  0  0  0  0  0
   26.7847  -21.5114  -13.8266 O   0  0  0  0  0  0  0  0  0  0  0  0
   28.9758  -19.9888   -8.9200 C   0  0  0  0  0  0  0  0  0  0  0  0
   29.0623  -20.0398   -7.5422 C   0  0  0  0  0  0  0  0  0  0  0  0
   24.9472  -21.3628  -12.4681 N   0  0  0  0  0  0  0  0  0  0  0  0
   24.0167  -21.4674  -13.5646 C   0  0  1  0  0  0  0  0  0  0  0  0
   23.9549  -22.8643  -14.1338 C   0  0  0  0  0  0  0  0  0  0  0  0
   22.6247  -23.1018  -15.3054 S   0  0  0  0  0  0  0  0  0  0  0  0
   22.6504  -21.0321  -13.1938 C   0  0  0  0  0  0  0  0  0  0  0  0
   22.0195  -21.4732  -12.1981 O   0  0  0  0  0  0  0  0  0  0  0  0
   20.7717  -19.0581  -16.1184 O   0  0  0  0  0  0  0  0  0  0  0  0
   20.4063  -18.5491  -14.8951 C   0  0  0  0  0  0  0  0  0  0  0  0
   20.6963  -19.5448  -13.7639 C   0  0  2  0  0  0  0  0  0  0  0  0
   22.0120  -20.0634  -14.0031 N   0  0  0  0  0  0  0  0  0  0  0  0
   19.7146  -20.6412  -13.9218 C   0  0  0  0  0  0  0  0  0  0  0  0
   19.9946  -21.6226  -14.6504 O   0  0  0  0  0  0  0  0  0  0  0  0
   18.4691  -20.6476  -13.2942 O   0  0  0  0  0  0  0  0  0  0  0  0
  2  3  2  0
  2  1  1  0
  4  3  1  0
  5  4  2  0
  6  7  1  0
  6  5  1  0
  7  8  1  6
  9 13  1  0
  9  7  1  0
 10  9  2  0
 11  5  1  0
 11 12  2  0
 12  2  1  0
 14 13  1  0
 14 15  1  1
 16 15  1  0
 17 14  1  0
 18 17  2  0
 19 20  1  0
 21 20  1  6
 21 23  1  0
 21 22  1  0
 22 17  1  0
 23 25  1  0
 24 23  2  0
M  END
$$$$
