YCS.pdb
     RDKit          3D

 25 25  0  0  1  0  0  0  0  0999 V2000
   20.7296  -13.7530  -21.4628 O   0  0  0  0  0  0  0  0  0  0  0  0
   20.4925  -12.6083  -20.7187 C   0  0  0  0  0  0  0  0  0  0  0  0
   19.2351  -12.4129  -20.1874 C   0  0  0  0  0  0  0  0  0  0  0  0
   18.9911  -11.2761  -19.4455 C   0  0  0  0  0  0  0  0  0  0  0  0
   19.9732  -10.3221  -19.2173 C   0  0  0  0  0  0  0  0  0  0  0  0
   19.6600   -9.1142  -18.4112 C   0  0  0  0  0  0  0  0  0  0  0  0
   20.0676   -9.3901  -16.9968 C   0  0  2  0  0  0  0  0  0  0  0  0
   19.1464  -10.3384  -16.4194 N   0  0  0  0  0  0  0  0  0  0  0  0
   20.1596   -8.1451  -16.1816 C   0  0  0  0  0  0  0  0  0  0  0  0
   19.1709   -7.7587  -15.5077 O   0  0  0  0  0  0  0  0  0  0  0  0
   21.2386  -10.5311  -19.7592 C   0  0  0  0  0  0  0  0  0  0  0  0
   21.4940  -11.6663  -20.5039 C   0  0  0  0  0  0  0  0  0  0  0  0
   21.3381   -7.3476  -16.1226 N   0  0  0  0  0  0  0  0  0  0  0  0
   21.4214   -6.1355  -15.3462 C   0  0  1  0  0  0  0  0  0  0  0  0
   22.2351   -6.3148  -14.0874 C   0  0  0  0  0  0  0  0  0  0  0  0
   22.5055   -4.7935  -13.1869 S   0  0  0  0  0  0  0  0  0  0  0  0
   21.9702   -5.0000  -16.1229 C   0  0  0  0  0  0  0  0  0  0  0  0
   23.0987   -5.0112  -16.6798 O   0  0  0  0  0  0  0  0  0  0  0  0
   20.4855   -0.9198  -18.2633 O   0  0  0  0  0  0  0  0  0  0  0  0
   20.2477   -1.9937  -17.4391 C   0  0  0  0  0  0  0  0  0  0  0  0
   21.5549   -2.6822  -17.0236 C   0  0  2  0  0  0  0  0  0  0  0  0
   21.1835   -3.8311  -16.2493 N   0  0  0  0  0  0  0  0  0  0  0  0
   22.2619   -1.7228  -16.1458 C   0  0  0  0  0  0  0  0  0  0  0  0
   22.0338   -1.7277  -14.9128 O   0  0  0  0  0  0  0  0  0  0  0  0
   23.1873   -0.7930  -16.6196 O   0  0  0  0  0  0  0  0  0  0  0  0
  2  3  2  0
  2  1  1  0
  4  3  1  0
  5  4  2  0
  6  7  1  0
  6  5  1  0
  7  8  1  1
  9 13  1  0
  9  7  1  0
 10  9  2  0
 11  5  1  0
 11 12  2  0
 12  2  1  0
 14 13  1  0
 14 15  1  1
 16 15  1  0
 17 14  1  0
 18 17  2  0
 19 20  1  0
 21 20  1  1
 21 23  1  0
 21 22  1  0
 22 17  1  0
 23 25  1  0
 24 23  2  0
M  END
$$$$
