YCS.pdb
     RDKit          3D

 25 25  0  0  1  0  0  0  0  0999 V2000
   27.9714  -26.4038  -16.1929 O   0  0  0  0  0  0  0  0  0  0  0  0
   27.2140  -25.2533  -16.0421 C   0  0  0  0  0  0  0  0  0  0  0  0
   27.7698  -24.0433  -16.4008 C   0  0  0  0  0  0  0  0  0  0  0  0
   27.0224  -22.8935  -16.2537 C   0  0  0  0  0  0  0  0  0  0  0  0
   25.7271  -22.9171  -15.7553 C   0  0  0  0  0  0  0  0  0  0  0  0
   24.9634  -21.6505  -15.6161 C   0  0  0  0  0  0  0  0  0  0  0  0
   25.5750  -20.8688  -14.4946 C   0  0  2  0  0  0  0  0  0  0  0  0
   25.3200  -21.5542  -13.2511 N   0  0  0  0  0  0  0  0  0  0  0  0
   25.0890  -19.4597  -14.4565 C   0  0  0  0  0  0  0  0  0  0  0  0
   24.1615  -19.1340  -13.6726 O   0  0  0  0  0  0  0  0  0  0  0  0
   25.1774  -24.1451  -15.3967 C   0  0  0  0  0  0  0  0  0  0  0  0
   25.9172  -25.3030  -15.5399 C   0  0  0  0  0  0  0  0  0  0  0  0
   25.6326  -18.4343  -15.2820 N   0  0  0  0  0  0  0  0  0  0  0  0
   25.2857  -17.0433  -15.1279 C   0  0  1  0  0  0  0  0  0  0  0  0
   26.4835  -16.1862  -14.7966 C   0  0  0  0  0  0  0  0  0  0  0  0
   27.8732  -16.4436  -15.8926 S   0  0  0  0  0  0  0  0  0  0  0  0
   24.6078  -16.4910  -16.3233 C   0  0  0  0  0  0  0  0  0  0  0  0
   24.8373  -16.8744  -17.4999 O   0  0  0  0  0  0  0  0  0  0  0  0
   20.9194  -13.5183  -17.4693 O   0  0  0  0  0  0  0  0  0  0  0  0
   21.7594  -14.0729  -16.5334 C   0  0  0  0  0  0  0  0  0  0  0  0
   22.9018  -14.8536  -17.1974 C   0  0  2  0  0  0  0  0  0  0  0  0
   23.6443  -15.4721  -16.1375 N   0  0  0  0  0  0  0  0  0  0  0  0
   23.7600  -13.8429  -17.8554 C   0  0  0  0  0  0  0  0  0  0  0  0
   24.6008  -13.2077  -17.1757 O   0  0  0  0  0  0  0  0  0  0  0  0
   23.6873  -13.5489  -19.2168 O   0  0  0  0  0  0  0  0  0  0  0  0
  2  3  2  0
  2  1  1  0
  4  3  1  0
  5  4  2  0
  6  7  1  0
  6  5  1  0
  7  8  1  1
  9 13  1  0
  9  7  1  0
 10  9  2  0
 11  5  1  0
 11 12  2  0
 12  2  1  0
 14 13  1  0
 14 15  1  6
 16 15  1  0
 17 14  1  0
 18 17  2  0
 19 20  1  0
 21 20  1  1
 21 23  1  0
 21 22  1  0
 22 17  1  0
 23 25  1  0
 24 23  2  0
M  END
$$$$
