YCS.pdb
     RDKit          3D

 25 25  0  0  1  0  0  0  0  0999 V2000
   28.5980  -29.0891  -18.5059 O   0  0  0  0  0  0  0  0  0  0  0  0
   27.9889  -28.1407  -17.6999 C   0  0  0  0  0  0  0  0  0  0  0  0
   26.6312  -27.9365  -17.8284 C   0  0  0  0  0  0  0  0  0  0  0  0
   26.0174  -26.9943  -17.0298 C   0  0  0  0  0  0  0  0  0  0  0  0
   26.7251  -26.2449  -16.1001 C   0  0  0  0  0  0  0  0  0  0  0  0
   26.0174  -25.2419  -15.2633 C   0  0  0  0  0  0  0  0  0  0  0  0
   25.9057  -23.9789  -16.0601 C   0  0  2  0  0  0  0  0  0  0  0  0
   27.2258  -23.4340  -16.2639 N   0  0  0  0  0  0  0  0  0  0  0  0
   24.9928  -22.9870  -15.4228 C   0  0  0  0  0  0  0  0  0  0  0  0
   25.4669  -22.0288  -14.7610 O   0  0  0  0  0  0  0  0  0  0  0  0
   28.0954  -26.4606  -15.9800 C   0  0  0  0  0  0  0  0  0  0  0  0
   28.7204  -27.4019  -16.7750 C   0  0  0  0  0  0  0  0  0  0  0  0
   23.5746  -23.0676  -15.5253 N   0  0  0  0  0  0  0  0  0  0  0  0
   22.6942  -22.0767  -14.9578 C   0  0  1  0  0  0  0  0  0  0  0  0
   22.9716  -20.6910  -15.4885 C   0  0  0  0  0  0  0  0  0  0  0  0
   21.9276  -19.4277  -14.7724 S   0  0  0  0  0  0  0  0  0  0  0  0
   21.2642  -22.4008  -15.1670 C   0  0  0  0  0  0  0  0  0  0  0  0
   20.7167  -22.4610  -16.2986 O   0  0  0  0  0  0  0  0  0  0  0  0
   18.1161  -24.5119  -12.4906 O   0  0  0  0  0  0  0  0  0  0  0  0
   18.6251  -23.2433  -12.6335 C   0  0  0  0  0  0  0  0  0  0  0  0
   19.0631  -22.9741  -14.0796 C   0  0  2  0  0  0  0  0  0  0  0  0
   20.4615  -22.6587  -14.0310 N   0  0  0  0  0  0  0  0  0  0  0  0
   18.3173  -21.7725  -14.5164 C   0  0  0  0  0  0  0  0  0  0  0  0
   18.7685  -20.6332  -14.2504 O   0  0  0  0  0  0  0  0  0  0  0  0
   17.1158  -21.8340  -15.2220 O   0  0  0  0  0  0  0  0  0  0  0  0
  2  3  2  0
  2  1  1  0
  4  3  1  0
  5  4  2  0
  6  7  1  0
  6  5  1  0
  7  8  1  1
  9 13  1  0
  9  7  1  0
 10  9  2  0
 11  5  1  0
 11 12  2  0
 12  2  1  0
 14 13  1  0
 14 15  1  6
 16 15  1  0
 17 14  1  0
 18 17  2  0
 19 20  1  0
 21 20  1  1
 21 23  1  0
 21 22  1  0
 22 17  1  0
 23 25  1  0
 24 23  2  0
M  END
$$$$
