YCS.pdb
     RDKit          3D

 25 25  0  0  1  0  0  0  0  0999 V2000
   25.3638  -27.6267  -17.2449 O   0  0  0  0  0  0  0  0  0  0  0  0
   24.9762  -26.4168  -16.6917 C   0  0  0  0  0  0  0  0  0  0  0  0
   25.4799  -26.0615  -15.4582 C   0  0  0  0  0  0  0  0  0  0  0  0
   25.0989  -24.8588  -14.9007 C   0  0  0  0  0  0  0  0  0  0  0  0
   24.2234  -23.9947  -15.5438 C   0  0  0  0  0  0  0  0  0  0  0  0
   23.8439  -22.7103  -14.9010 C   0  0  0  0  0  0  0  0  0  0  0  0
   24.5223  -21.6057  -15.6510 C   0  0  2  0  0  0  0  0  0  0  0  0
   25.9442  -21.6868  -15.4214 N   0  0  0  0  0  0  0  0  0  0  0  0
   23.9820  -20.2632  -15.2917 C   0  0  0  0  0  0  0  0  0  0  0  0
   24.4586  -19.6334  -14.3134 O   0  0  0  0  0  0  0  0  0  0  0  0
   23.7219  -24.3651  -16.7888 C   0  0  0  0  0  0  0  0  0  0  0  0
   24.0969  -25.5675  -17.3564 C   0  0  0  0  0  0  0  0  0  0  0  0
   22.9270  -19.6380  -16.0158 N   0  0  0  0  0  0  0  0  0  0  0  0
   22.3323  -18.3902  -15.6055 C   0  0  1  0  0  0  0  0  0  0  0  0
   22.7058  -17.2483  -16.5196 C   0  0  0  0  0  0  0  0  0  0  0  0
   22.0846  -15.6622  -15.9746 S   0  0  0  0  0  0  0  0  0  0  0  0
   20.8568  -18.4701  -15.5045 C   0  0  0  0  0  0  0  0  0  0  0  0
   20.1259  -19.0477  -16.3506 O   0  0  0  0  0  0  0  0  0  0  0  0
   18.7499  -18.5670  -11.8525 O   0  0  0  0  0  0  0  0  0  0  0  0
   18.6125  -17.4821  -12.6852 C   0  0  0  0  0  0  0  0  0  0  0  0
   18.8121  -17.8745  -14.1554 C   0  0  2  0  0  0  0  0  0  0  0  0
   20.2265  -17.8629  -14.3931 N   0  0  0  0  0  0  0  0  0  0  0  0
   18.1843  -16.7987  -14.9551 C   0  0  0  0  0  0  0  0  0  0  0  0
   17.0578  -16.9886  -15.4721 O   0  0  0  0  0  0  0  0  0  0  0  0
   18.7850  -15.5589  -15.1724 O   0  0  0  0  0  0  0  0  0  0  0  0
  2  3  2  0
  2  1  1  0
  4  3  1  0
  5  4  2  0
  6  7  1  0
  6  5  1  0
  7  8  1  1
  9 13  1  0
  9  7  1  0
 10  9  2  0
 11  5  1  0
 11 12  2  0
 12  2  1  0
 14 13  1  0
 14 15  1  6
 16 15  1  0
 17 14  1  0
 18 17  2  0
 19 20  1  0
 21 20  1  1
 21 23  1  0
 21 22  1  0
 22 17  1  0
 23 25  1  0
 24 23  2  0
M  END
$$$$
