YCS.pdb
     RDKit          3D

 25 25  0  0  1  0  0  0  0  0999 V2000
   21.5202  -12.3103  -24.0463 O   0  0  0  0  0  0  0  0  0  0  0  0
   20.9536  -11.8766  -22.8584 C   0  0  0  0  0  0  0  0  0  0  0  0
   21.2483  -10.6065  -22.4095 C   0  0  0  0  0  0  0  0  0  0  0  0
   20.6884  -10.1674  -21.2280 C   0  0  0  0  0  0  0  0  0  0  0  0
   19.8368  -10.9654  -20.4766 C   0  0  0  0  0  0  0  0  0  0  0  0
   19.2592  -10.4459  -19.2103 C   0  0  0  0  0  0  0  0  0  0  0  0
   20.3652  -10.3615  -18.2041 C   0  0  2  0  0  0  0  0  0  0  0  0
   20.7708  -11.6970  -17.8394 N   0  0  0  0  0  0  0  0  0  0  0  0
   19.9821   -9.5565  -17.0089 C   0  0  0  0  0  0  0  0  0  0  0  0
   19.0553   -9.9492  -16.2554 O   0  0  0  0  0  0  0  0  0  0  0  0
   19.5472  -12.2458  -20.9406 C   0  0  0  0  0  0  0  0  0  0  0  0
   20.1026  -12.6958  -22.1228 C   0  0  0  0  0  0  0  0  0  0  0  0
   20.6261   -8.3338  -16.6644 N   0  0  0  0  0  0  0  0  0  0  0  0
   20.2319   -7.5380  -15.5285 C   0  0  1  0  0  0  0  0  0  0  0  0
   21.3598   -7.3445  -14.5439 C   0  0  0  0  0  0  0  0  0  0  0  0
   21.8058   -8.8363  -13.6639 S   0  0  0  0  0  0  0  0  0  0  0  0
   19.6960   -6.2142  -15.9208 C   0  0  0  0  0  0  0  0  0  0  0  0
   20.1249   -5.5446  -16.8964 O   0  0  0  0  0  0  0  0  0  0  0  0
   15.8279   -5.2479  -14.8134 O   0  0  0  0  0  0  0  0  0  0  0  0
   16.7901   -4.3187  -14.4977 C   0  0  0  0  0  0  0  0  0  0  0  0
   17.9952   -4.4155  -15.4429 C   0  0  2  0  0  0  0  0  0  0  0  0
   18.6393   -5.6650  -15.1573 N   0  0  0  0  0  0  0  0  0  0  0  0
   18.9043   -3.3114  -15.0618 C   0  0  0  0  0  0  0  0  0  0  0  0
   19.9912   -3.5725  -14.4935 O   0  0  0  0  0  0  0  0  0  0  0  0
   18.6172   -1.9680  -15.3027 O   0  0  0  0  0  0  0  0  0  0  0  0
  2  3  2  0
  2  1  1  0
  4  3  1  0
  5  4  2  0
  6  7  1  0
  6  5  1  0
  7  8  1  1
  9 13  1  0
  9  7  1  0
 10  9  2  0
 11  5  1  0
 11 12  2  0
 12  2  1  0
 14 13  1  0
 14 15  1  1
 16 15  1  0
 17 14  1  0
 18 17  2  0
 19 20  1  0
 21 20  1  1
 21 23  1  0
 21 22  1  0
 22 17  1  0
 23 25  1  0
 24 23  2  0
M  END
$$$$
