YCS.pdb
     RDKit          3D

 25 25  0  0  1  0  0  0  0  0999 V2000
   19.8887  -14.1136  -20.0049 O   0  0  0  0  0  0  0  0  0  0  0  0
   19.7120  -12.8625  -19.4360 C   0  0  0  0  0  0  0  0  0  0  0  0
   20.8158  -12.1954  -18.9480 C   0  0  0  0  0  0  0  0  0  0  0  0
   20.6483  -10.9496  -18.3803 C   0  0  0  0  0  0  0  0  0  0  0  0
   19.4018  -10.3465  -18.2852 C   0  0  0  0  0  0  0  0  0  0  0  0
   19.2741   -9.0028  -17.6647 C   0  0  0  0  0  0  0  0  0  0  0  0
   19.4243   -9.1669  -16.1837 C   0  0  2  0  0  0  0  0  0  0  0  0
   18.2948   -9.9072  -15.6765 N   0  0  0  0  0  0  0  0  0  0  0  0
   19.5859   -7.8605  -15.4834 C   0  0  0  0  0  0  0  0  0  0  0  0
   18.5734   -7.1847  -15.1689 O   0  0  0  0  0  0  0  0  0  0  0  0
   18.2952  -11.0303  -18.7816 C   0  0  0  0  0  0  0  0  0  0  0  0
   18.4516  -12.2787  -19.3522 C   0  0  0  0  0  0  0  0  0  0  0  0
   20.8591   -7.3213  -15.1418 N   0  0  0  0  0  0  0  0  0  0  0  0
   21.0246   -5.9950  -14.6010 C   0  0  1  0  0  0  0  0  0  0  0  0
   22.1735   -5.9122  -13.6252 C   0  0  0  0  0  0  0  0  0  0  0  0
   22.5019   -4.2527  -13.0450 S   0  0  0  0  0  0  0  0  0  0  0  0
   21.2063   -4.9704  -15.6549 C   0  0  0  0  0  0  0  0  0  0  0  0
   22.0806   -5.0396  -16.5575 O   0  0  0  0  0  0  0  0  0  0  0  0
   18.0922   -3.1340  -16.8603 O   0  0  0  0  0  0  0  0  0  0  0  0
   19.2619   -2.8734  -17.5333 C   0  0  0  0  0  0  0  0  0  0  0  0
   20.4482   -2.7461  -16.5680 C   0  0  2  0  0  0  0  0  0  0  0  0
   20.3491   -3.8451  -15.6515 N   0  0  0  0  0  0  0  0  0  0  0  0
   20.2375   -1.4836  -15.8246 C   0  0  0  0  0  0  0  0  0  0  0  0
   20.0107   -1.5216  -14.5919 O   0  0  0  0  0  0  0  0  0  0  0  0
   20.2771   -0.2265  -16.4274 O   0  0  0  0  0  0  0  0  0  0  0  0
  2  3  2  0
  2  1  1  0
  4  3  1  0
  5  4  2  0
  6  7  1  0
  6  5  1  0
  7  8  1  1
  9 13  1  0
  9  7  1  0
 10  9  2  0
 11  5  1  0
 11 12  2  0
 12  2  1  0
 14 13  1  0
 14 15  1  1
 16 15  1  0
 17 14  1  0
 18 17  2  0
 19 20  1  0
 21 20  1  6
 21 23  1  0
 21 22  1  0
 22 17  1  0
 23 25  1  0
 24 23  2  0
M  END
$$$$
