YCS.pdb
     RDKit          3D

 25 25  0  0  1  0  0  0  0  0999 V2000
   24.5305  -11.2879  -15.6627 O   0  0  0  0  0  0  0  0  0  0  0  0
   23.4102  -10.5517  -15.3117 C   0  0  0  0  0  0  0  0  0  0  0  0
   22.6551   -9.9777  -16.3127 C   0  0  0  0  0  0  0  0  0  0  0  0
   21.5386   -9.2434  -15.9716 C   0  0  0  0  0  0  0  0  0  0  0  0
   21.1515   -9.0644  -14.6507 C   0  0  0  0  0  0  0  0  0  0  0  0
   19.9402   -8.2643  -14.3353 C   0  0  0  0  0  0  0  0  0  0  0  0
   18.9014   -9.1998  -13.7982 C   0  0  2  0  0  0  0  0  0  0  0  0
   18.5663  -10.1642  -14.8174 N   0  0  0  0  0  0  0  0  0  0  0  0
   17.6935   -8.4795  -13.3029 C   0  0  0  0  0  0  0  0  0  0  0  0
   16.8392   -8.0473  -14.1180 O   0  0  0  0  0  0  0  0  0  0  0  0
   21.9223   -9.6490  -13.6493 C   0  0  0  0  0  0  0  0  0  0  0  0
   23.0427  -10.3866  -13.9798 C   0  0  0  0  0  0  0  0  0  0  0  0
   17.4474   -8.2478  -11.9194 N   0  0  0  0  0  0  0  0  0  0  0  0
   16.2651   -7.5764  -11.4394 C   0  0  1  0  0  0  0  0  0  0  0  0
   15.9193   -7.9655  -10.0224 C   0  0  0  0  0  0  0  0  0  0  0  0
   15.7623   -9.7308   -9.7826 S   0  0  0  0  0  0  0  0  0  0  0  0
   16.3742   -6.1019  -11.5264 C   0  0  0  0  0  0  0  0  0  0  0  0
   17.4104   -5.4559  -11.2217 O   0  0  0  0  0  0  0  0  0  0  0  0
   16.2405   -2.4445  -13.8423 O   0  0  0  0  0  0  0  0  0  0  0  0
   16.2100   -3.7595  -13.4438 C   0  0  0  0  0  0  0  0  0  0  0  0
   15.2555   -3.9650  -12.2597 C   0  0  2  0  0  0  0  0  0  0  0  0
   15.2502   -5.3714  -11.9782 N   0  0  0  0  0  0  0  0  0  0  0  0
   13.9133   -3.5693  -12.7423 C   0  0  0  0  0  0  0  0  0  0  0  0
   13.1825   -4.4189  -13.3048 O   0  0  0  0  0  0  0  0  0  0  0  0
   13.4022   -2.2788  -12.6053 O   0  0  0  0  0  0  0  0  0  0  0  0
  2  3  2  0
  2  1  1  0
  4  3  1  0
  5  4  2  0
  6  7  1  0
  6  5  1  0
  7  8  1  6
  9 13  1  0
  9  7  1  0
 10  9  2  0
 11  5  1  0
 11 12  2  0
 12  2  1  0
 14 13  1  0
 14 15  1  1
 16 15  1  0
 17 14  1  0
 18 17  2  0
 19 20  1  0
 21 20  1  6
 21 23  1  0
 21 22  1  0
 22 17  1  0
 23 25  1  0
 24 23  2  0
M  END
$$$$
