YCS.pdb
     RDKit          3D

 25 25  0  0  1  0  0  0  0  0999 V2000
   30.7131   -9.7106  -18.6859 O   0  0  0  0  0  0  0  0  0  0  0  0
   29.3825   -9.3841  -18.4788 C   0  0  0  0  0  0  0  0  0  0  0  0
   28.5799   -9.1505  -19.5756 C   0  0  0  0  0  0  0  0  0  0  0  0
   27.2543   -8.8249  -19.3779 C   0  0  0  0  0  0  0  0  0  0  0  0
   26.7031   -8.7252  -18.1079 C   0  0  0  0  0  0  0  0  0  0  0  0
   25.2692   -8.3715  -17.9481 C   0  0  0  0  0  0  0  0  0  0  0  0
   24.5480   -9.5923  -17.4662 C   0  0  2  0  0  0  0  0  0  0  0  0
   24.5636  -10.5890  -18.5090 N   0  0  0  0  0  0  0  0  0  0  0  0
   23.1595   -9.2882  -17.0158 C   0  0  0  0  0  0  0  0  0  0  0  0
   22.1983   -9.3982  -17.8188 O   0  0  0  0  0  0  0  0  0  0  0  0
   27.5239   -8.9635  -17.0088 C   0  0  0  0  0  0  0  0  0  0  0  0
   28.8532   -9.2903  -17.1953 C   0  0  0  0  0  0  0  0  0  0  0  0
   22.8539   -8.8683  -15.6896 N   0  0  0  0  0  0  0  0  0  0  0  0
   21.5083   -8.5967  -15.2483 C   0  0  1  0  0  0  0  0  0  0  0  0
   21.2630   -9.0630  -13.8337 C   0  0  0  0  0  0  0  0  0  0  0  0
   21.3097  -10.8411  -13.6477 S   0  0  0  0  0  0  0  0  0  0  0  0
   21.1536   -7.1628  -15.3565 C   0  0  0  0  0  0  0  0  0  0  0  0
   21.8627   -6.2282  -14.9008 O   0  0  0  0  0  0  0  0  0  0  0  0
   18.9419   -6.1286  -18.5922 O   0  0  0  0  0  0  0  0  0  0  0  0
   18.4611   -5.6020  -17.4173 C   0  0  0  0  0  0  0  0  0  0  0  0
   19.5690   -5.4795  -16.3624 C   0  0  2  0  0  0  0  0  0  0  0  0
   19.9473   -6.8174  -16.0098 N   0  0  0  0  0  0  0  0  0  0  0  0
   18.9446   -4.8338  -15.1859 C   0  0  0  0  0  0  0  0  0  0  0  0
   18.6238   -5.5314  -14.1945 O   0  0  0  0  0  0  0  0  0  0  0  0
   18.6864   -3.4652  -15.1132 O   0  0  0  0  0  0  0  0  0  0  0  0
  2  3  2  0
  2  1  1  0
  4  3  1  0
  5  4  2  0
  6  7  1  0
  6  5  1  0
  7  8  1  6
  9 13  1  0
  9  7  1  0
 10  9  2  0
 11  5  1  0
 11 12  2  0
 12  2  1  0
 14 13  1  0
 14 15  1  1
 16 15  1  0
 17 14  1  0
 18 17  2  0
 19 20  1  0
 21 20  1  6
 21 23  1  0
 21 22  1  0
 22 17  1  0
 23 25  1  0
 24 23  2  0
M  END
$$$$
