YCS.pdb
     RDKit          3D

 25 25  0  0  1  0  0  0  0  0999 V2000
   16.9804  -15.1794  -14.7486 O   0  0  0  0  0  0  0  0  0  0  0  0
   16.7328  -13.8872  -14.3135 C   0  0  0  0  0  0  0  0  0  0  0  0
   15.7442  -13.1565  -14.9382 C   0  0  0  0  0  0  0  0  0  0  0  0
   15.4916  -11.8697  -14.5110 C   0  0  0  0  0  0  0  0  0  0  0  0
   16.2026  -11.2873  -13.4708 C   0  0  0  0  0  0  0  0  0  0  0  0
   15.8923   -9.8975  -13.0479 C   0  0  0  0  0  0  0  0  0  0  0  0
   15.0719   -9.9725  -11.7972 C   0  0  2  0  0  0  0  0  0  0  0  0
   13.8378  -10.6614  -12.0861 N   0  0  0  0  0  0  0  0  0  0  0  0
   14.8258   -8.6283  -11.2008 C   0  0  0  0  0  0  0  0  0  0  0  0
   13.9189   -7.8903  -11.6631 O   0  0  0  0  0  0  0  0  0  0  0  0
   17.1982  -12.0356  -12.8483 C   0  0  0  0  0  0  0  0  0  0  0  0
   17.4595  -13.3255  -13.2682 C   0  0  0  0  0  0  0  0  0  0  0  0
   15.5823   -8.1205  -10.1061 N   0  0  0  0  0  0  0  0  0  0  0  0
   15.3098   -6.8428   -9.4960 C   0  0  1  0  0  0  0  0  0  0  0  0
   15.3928   -6.8965   -7.9897 C   0  0  0  0  0  0  0  0  0  0  0  0
   14.2300   -8.0354   -7.2486 S   0  0  0  0  0  0  0  0  0  0  0  0
   16.2041   -5.7727   -9.9949 C   0  0  0  0  0  0  0  0  0  0  0  0
   17.4592   -5.8110   -9.9101 O   0  0  0  0  0  0  0  0  0  0  0  0
   16.5021   -4.3145  -13.3487 O   0  0  0  0  0  0  0  0  0  0  0  0
   15.9610   -3.3268  -12.5608 C   0  0  0  0  0  0  0  0  0  0  0  0
   16.3536   -3.5059  -11.0880 C   0  0  2  0  0  0  0  0  0  0  0  0
   15.6182   -4.6382  -10.6038 N   0  0  0  0  0  0  0  0  0  0  0  0
   15.8779   -2.2921  -10.3870 C   0  0  0  0  0  0  0  0  0  0  0  0
   14.7830   -2.3188   -9.7764 O   0  0  0  0  0  0  0  0  0  0  0  0
   16.5914   -1.0938  -10.3650 O   0  0  0  0  0  0  0  0  0  0  0  0
  2  3  2  0
  2  1  1  0
  4  3  1  0
  5  4  2  0
  6  7  1  0
  6  5  1  0
  7  8  1  6
  9 13  1  0
  9  7  1  0
 10  9  2  0
 11  5  1  0
 11 12  2  0
 12  2  1  0
 14 13  1  0
 14 15  1  1
 16 15  1  0
 17 14  1  0
 18 17  2  0
 19 20  1  0
 21 20  1  6
 21 23  1  0
 21 22  1  0
 22 17  1  0
 23 25  1  0
 24 23  2  0
M  END
$$$$
