YCS.pdb
     RDKit          3D

 25 25  0  0  1  0  0  0  0  0999 V2000
   28.1743   -7.4287  -18.8850 O   0  0  0  0  0  0  0  0  0  0  0  0
   27.5240   -8.0796  -17.8488 C   0  0  0  0  0  0  0  0  0  0  0  0
   26.3072   -7.5918  -17.4209 C   0  0  0  0  0  0  0  0  0  0  0  0
   25.6536   -8.2340  -16.3901 C   0  0  0  0  0  0  0  0  0  0  0  0
   26.1835   -9.3570  -15.7699 C   0  0  0  0  0  0  0  0  0  0  0  0
   25.4400  -10.0128  -14.6635 C   0  0  0  0  0  0  0  0  0  0  0  0
   24.4595  -10.9663  -15.2737 C   0  0  2  0  0  0  0  0  0  0  0  0
   25.1650  -11.8658  -16.1537 N   0  0  0  0  0  0  0  0  0  0  0  0
   23.3504  -10.2627  -15.9792 C   0  0  0  0  0  0  0  0  0  0  0  0
   23.2803  -10.2963  -17.2342 O   0  0  0  0  0  0  0  0  0  0  0  0
   27.4127   -9.8397  -16.2111 C   0  0  0  0  0  0  0  0  0  0  0  0
   28.0760   -9.2041  -17.2429 C   0  0  0  0  0  0  0  0  0  0  0  0
   22.3382   -9.5345  -15.2909 N   0  0  0  0  0  0  0  0  0  0  0  0
   21.2289   -8.9106  -15.9686 C   0  0  1  0  0  0  0  0  0  0  0  0
   19.9066   -9.5434  -15.6081 C   0  0  0  0  0  0  0  0  0  0  0  0
   19.8243  -11.2910  -15.9792 S   0  0  0  0  0  0  0  0  0  0  0  0
   21.1559   -7.4531  -15.7159 C   0  0  0  0  0  0  0  0  0  0  0  0
   21.4785   -6.9129  -14.6259 O   0  0  0  0  0  0  0  0  0  0  0  0
   19.7676   -5.3408  -18.9182 O   0  0  0  0  0  0  0  0  0  0  0  0
   20.6852   -4.6758  -18.1406 C   0  0  0  0  0  0  0  0  0  0  0  0
   20.6640   -5.1812  -16.6917 C   0  0  2  0  0  0  0  0  0  0  0  0
   20.6971   -6.6136  -16.7580 N   0  0  0  0  0  0  0  0  0  0  0  0
   19.3613   -4.7589  -16.1299 C   0  0  0  0  0  0  0  0  0  0  0  0
   18.4468   -5.6044  -15.9839 O   0  0  0  0  0  0  0  0  0  0  0  0
   19.0848   -3.4473  -15.7446 O   0  0  0  0  0  0  0  0  0  0  0  0
  2  3  2  0
  2  1  1  0
  4  3  1  0
  5  4  2  0
  6  7  1  0
  6  5  1  0
  7  8  1  6
  9 13  1  0
  9  7  1  0
 10  9  2  0
 11  5  1  0
 11 12  2  0
 12  2  1  0
 14 13  1  0
 14 15  1  1
 16 15  1  0
 17 14  1  0
 18 17  2  0
 19 20  1  0
 21 20  1  6
 21 23  1  0
 21 22  1  0
 22 17  1  0
 23 25  1  0
 24 23  2  0
M  END
$$$$
