YCS.pdb
     RDKit          3D

 25 25  0  0  1  0  0  0  0  0999 V2000
   14.9841  -14.5036  -19.4639 O   0  0  0  0  0  0  0  0  0  0  0  0
   15.9222  -13.7776  -18.7476 C   0  0  0  0  0  0  0  0  0  0  0  0
   16.4368  -14.3218  -17.5897 C   0  0  0  0  0  0  0  0  0  0  0  0
   17.3709  -13.6055  -16.8710 C   0  0  0  0  0  0  0  0  0  0  0  0
   17.8091  -12.3528  -17.2778 C   0  0  0  0  0  0  0  0  0  0  0  0
   18.8174  -11.6214  -16.4683 C   0  0  0  0  0  0  0  0  0  0  0  0
   20.1145  -11.6532  -17.2161 C   0  0  2  0  0  0  0  0  0  0  0  0
   20.6343  -12.9988  -17.1970 N   0  0  0  0  0  0  0  0  0  0  0  0
   21.1017  -10.6738  -16.6780 C   0  0  0  0  0  0  0  0  0  0  0  0
   21.7293  -10.9290  -15.6188 O   0  0  0  0  0  0  0  0  0  0  0  0
   17.2819  -11.8145  -18.4486 C   0  0  0  0  0  0  0  0  0  0  0  0
   16.3457  -12.5234  -19.1763 C   0  0  0  0  0  0  0  0  0  0  0  0
   21.3804   -9.4311  -17.3155 N   0  0  0  0  0  0  0  0  0  0  0  0
   22.3862   -8.5165  -16.8349 C   0  0  1  0  0  0  0  0  0  0  0  0
   23.0828   -7.7873  -17.9583 C   0  0  0  0  0  0  0  0  0  0  0  0
   23.7569   -8.8745  -19.2081 S   0  0  0  0  0  0  0  0  0  0  0  0
   21.8429   -7.5274  -15.8757 C   0  0  0  0  0  0  0  0  0  0  0  0
   22.5470   -6.6798  -15.2675 O   0  0  0  0  0  0  0  0  0  0  0  0
   18.1510   -4.8511  -14.8826 O   0  0  0  0  0  0  0  0  0  0  0  0
   18.7994   -5.8162  -15.6154 C   0  0  0  0  0  0  0  0  0  0  0  0
   19.7816   -6.6144  -14.7473 C   0  0  2  0  0  0  0  0  0  0  0  0
   20.4508   -7.5309  -15.6245 N   0  0  0  0  0  0  0  0  0  0  0  0
   18.9523   -7.3849  -13.7936 C   0  0  0  0  0  0  0  0  0  0  0  0
   18.4048   -8.4489  -14.1686 O   0  0  0  0  0  0  0  0  0  0  0  0
   18.7393   -6.9888  -12.4734 O   0  0  0  0  0  0  0  0  0  0  0  0
  2  3  2  0
  2  1  1  0
  4  3  1  0
  5  4  2  0
  6  7  1  0
  6  5  1  0
  7  8  1  1
  9 13  1  0
  9  7  1  0
 10  9  2  0
 11  5  1  0
 11 12  2  0
 12  2  1  0
 14 13  1  0
 14 15  1  6
 16 15  1  0
 17 14  1  0
 18 17  2  0
 19 20  1  0
 21 20  1  6
 21 23  1  0
 21 22  1  0
 22 17  1  0
 23 25  1  0
 24 23  2  0
M  END
$$$$
