YCS.pdb
     RDKit          3D

 25 25  0  0  1  0  0  0  0  0999 V2000
   21.6028  -16.4743  -22.9223 O   0  0  0  0  0  0  0  0  0  0  0  0
   21.0756  -15.5263  -22.0601 C   0  0  0  0  0  0  0  0  0  0  0  0
   21.7953  -14.3741  -21.8232 C   0  0  0  0  0  0  0  0  0  0  0  0
   21.2773  -13.4255  -20.9663 C   0  0  0  0  0  0  0  0  0  0  0  0
   20.0530  -13.5954  -20.3348 C   0  0  0  0  0  0  0  0  0  0  0  0
   19.5386  -12.5437  -19.4203 C   0  0  0  0  0  0  0  0  0  0  0  0
   20.1290  -12.7869  -18.0657 C   0  0  2  0  0  0  0  0  0  0  0  0
   19.5396  -13.9776  -17.5037 N   0  0  0  0  0  0  0  0  0  0  0  0
   19.9694  -11.6131  -17.1602 C   0  0  0  0  0  0  0  0  0  0  0  0
   18.8734  -11.4109  -16.5780 O   0  0  0  0  0  0  0  0  0  0  0  0
   19.3361  -14.7631  -20.5823 C   0  0  0  0  0  0  0  0  0  0  0  0
   19.8456  -15.7198  -21.4388 C   0  0  0  0  0  0  0  0  0  0  0  0
   21.0189  -10.6830  -16.9116 N   0  0  0  0  0  0  0  0  0  0  0  0
   20.8541   -9.5304  -16.0610 C   0  0  1  0  0  0  0  0  0  0  0  0
   21.9082   -9.4572  -14.9828 C   0  0  0  0  0  0  0  0  0  0  0  0
   21.6458   -8.1294  -13.8139 S   0  0  0  0  0  0  0  0  0  0  0  0
   20.8467   -8.2595  -16.8215 C   0  0  0  0  0  0  0  0  0  0  0  0
   21.7008   -7.9603  -17.6961 O   0  0  0  0  0  0  0  0  0  0  0  0
   17.2775   -6.1376  -17.0042 O   0  0  0  0  0  0  0  0  0  0  0  0
   18.3989   -5.4174  -16.6684 C   0  0  0  0  0  0  0  0  0  0  0  0
   19.6715   -6.0667  -17.2290 C   0  0  2  0  0  0  0  0  0  0  0  0
   19.8212   -7.3228  -16.5530 N   0  0  0  0  0  0  0  0  0  0  0  0
   20.7898   -5.1785  -16.8400 C   0  0  0  0  0  0  0  0  0  0  0  0
   21.5267   -5.4967  -15.8766 O   0  0  0  0  0  0  0  0  0  0  0  0
   21.0788   -3.9821  -17.4961 O   0  0  0  0  0  0  0  0  0  0  0  0
  2  3  2  0
  2  1  1  0
  4  3  1  0
  5  4  2  0
  6  7  1  0
  6  5  1  0
  7  8  1  1
  9 13  1  0
  9  7  1  0
 10  9  2  0
 11  5  1  0
 11 12  2  0
 12  2  1  0
 14 13  1  0
 14 15  1  1
 16 15  1  0
 17 14  1  0
 18 17  2  0
 19 20  1  0
 21 20  1  1
 21 23  1  0
 21 22  1  0
 22 17  1  0
 23 25  1  0
 24 23  2  0
M  END
$$$$
