YCS.pdb
     RDKit          3D

 25 25  0  0  1  0  0  0  0  0999 V2000
   27.5157  -17.4077  -15.0677 O   0  0  0  0  0  0  0  0  0  0  0  0
   26.8308  -16.2741  -15.4750 C   0  0  0  0  0  0  0  0  0  0  0  0
   26.3985  -15.3818  -14.5166 C   0  0  0  0  0  0  0  0  0  0  0  0
   25.7161  -14.2510  -14.9139 C   0  0  0  0  0  0  0  0  0  0  0  0
   25.4509  -13.9836  -16.2498 C   0  0  0  0  0  0  0  0  0  0  0  0
   24.7118  -12.7512  -16.6264 C   0  0  0  0  0  0  0  0  0  0  0  0
   23.2611  -12.9807  -16.3341 C   0  0  2  0  0  0  0  0  0  0  0  0
   22.7887  -14.0812  -17.1384 N   0  0  0  0  0  0  0  0  0  0  0  0
   22.4408  -11.7534  -16.5438 C   0  0  0  0  0  0  0  0  0  0  0  0
   22.1756  -11.3644  -17.7097 O   0  0  0  0  0  0  0  0  0  0  0  0
   25.8926  -14.8923  -17.2079 C   0  0  0  0  0  0  0  0  0  0  0  0
   26.5772  -16.0282  -16.8210 C   0  0  0  0  0  0  0  0  0  0  0  0
   21.9271  -10.9763  -15.4665 N   0  0  0  0  0  0  0  0  0  0  0  0
   21.0956   -9.8159  -15.6693 C   0  0  1  0  0  0  0  0  0  0  0  0
   19.7709   -9.9268  -14.9537 C   0  0  0  0  0  0  0  0  0  0  0  0
   18.8515  -11.4021  -15.3736 S   0  0  0  0  0  0  0  0  0  0  0  0
   21.7650   -8.5591  -15.2620 C   0  0  0  0  0  0  0  0  0  0  0  0
   22.4863   -8.4487  -14.2365 O   0  0  0  0  0  0  0  0  0  0  0  0
   22.2981   -3.9541  -16.8214 O   0  0  0  0  0  0  0  0  0  0  0  0
   21.7717   -5.2151  -16.9688 C   0  0  0  0  0  0  0  0  0  0  0  0
   22.2195   -6.1462  -15.8340 C   0  0  2  0  0  0  0  0  0  0  0  0
   21.5867   -7.4116  -16.0699 N   0  0  0  0  0  0  0  0  0  0  0  0
   21.6736   -5.5641  -14.5873 C   0  0  0  0  0  0  0  0  0  0  0  0
   22.2694   -4.6070  -14.0384 O   0  0  0  0  0  0  0  0  0  0  0  0
   20.5101   -6.0274  -13.9736 O   0  0  0  0  0  0  0  0  0  0  0  0
  2  3  2  0
  2  1  1  0
  4  3  1  0
  5  4  2  0
  6  7  1  0
  6  5  1  0
  7  8  1  6
  9 13  1  0
  9  7  1  0
 10  9  2  0
 11  5  1  0
 11 12  2  0
 12  2  1  0
 14 13  1  0
 14 15  1  1
 16 15  1  0
 17 14  1  0
 18 17  2  0
 19 20  1  0
 21 20  1  6
 21 23  1  0
 21 22  1  0
 22 17  1  0
 23 25  1  0
 24 23  2  0
M  END
$$$$
