EQC.pdb
     RDKit          3D

 25 24  0  0  1  0  0  0  0  0999 V2000
   10.6105  -17.4263   20.3400 N   0  0  0  0  0  0  0  0  0  0  0  0
   10.6475  -17.9538   21.6771 C   0  0  1  0  0  0  0  0  0  0  0  0
   12.0031  -17.7383   22.3119 C   0  0  0  0  0  0  0  0  0  0  0  0
   12.3224  -16.2529   22.1825 C   0  0  0  0  0  0  0  0  0  0  0  0
   13.7050  -15.9659   22.6497 C   0  0  0  0  0  0  0  0  0  0  0  0
   13.9962  -15.0938   23.4844 O   0  0  0  0  0  0  0  0  0  0  0  0
    9.5624  -17.3071   22.4579 C   0  0  0  0  0  0  0  0  0  0  0  0
    8.9030  -16.3486   22.0025 O   0  0  0  0  0  0  0  0  0  0  0  0
   14.7201  -16.7364   22.1025 O   0  0  0  0  0  0  0  0  0  0  0  0
    7.7701  -19.9464   27.8464 N   0  0  0  0  0  0  0  0  0  0  0  0
    7.0167  -20.2262   26.6903 C   0  0  0  0  0  0  0  0  0  0  0  0
    6.2523  -21.2099   26.6740 O   0  0  0  0  0  0  0  0  0  0  0  0
    7.1364  -19.3551   25.5078 C   0  0  0  0  0  0  0  0  0  0  0  0
    8.0496  -18.1731   25.7776 C   0  0  0  0  0  0  0  0  0  0  0  0
    8.1662  -17.2810   24.5598 C   0  0  2  0  0  0  0  0  0  0  0  0
    9.2476  -17.7698   23.7531 N   0  0  0  0  0  0  0  0  0  0  0  0
    8.2999  -15.8801   24.9537 C   0  0  0  0  0  0  0  0  0  0  0  0
    9.4558  -15.4246   25.1539 O   0  0  0  0  0  0  0  0  0  0  0  0
    7.2250  -14.9675   25.1350 N   0  0  0  0  0  0  0  0  0  0  0  0
    7.4153  -13.5894   25.5470 C   0  0  1  0  0  0  0  0  0  0  0  0
    6.1102  -12.8270   25.5743 C   0  0  0  0  0  0  0  0  0  0  0  0
    6.3360  -11.1802   26.2776 S   0  0  0  0  0  0  0  0  0  0  0  0
    7.9299  -13.6255   26.9469 C   0  0  0  0  0  0  0  0  0  0  0  0
    8.6409  -12.5543   27.5061 O   0  0  0  0  0  0  0  0  0  0  0  0
    7.7595  -14.6156   27.7124 O   0  0  0  0  0  0  0  0  0  0  0  0
  2  7  1  0
  2  1  1  6
  3  2  1  0
  4  3  1  0
  5  4  1  0
  5  9  1  0
  6  5  2  0
  7  8  2  0
 11 13  1  0
 11 10  1  0
 12 11  2  0
 15 14  1  1
 14 13  1  0
 16 15  1  0
 16  7  1  0
 17 18  2  0
 17 15  1  0
 19 17  1  0
 20 19  1  0
 20 23  1  0
 20 21  1  1
 22 21  1  0
 23 24  1  0
 25 23  2  0
M  END
$$$$
