EQC.pdb
     RDKit          3D

 25 24  0  0  1  0  0  0  0  0999 V2000
   13.6619  -20.7035   23.2770 N   0  0  0  0  0  0  0  0  0  0  0  0
   13.5214  -19.2902   23.0534 C   0  0  1  0  0  0  0  0  0  0  0  0
   13.3150  -18.9874   21.5861 C   0  0  0  0  0  0  0  0  0  0  0  0
   14.6395  -19.2678   20.8847 C   0  0  0  0  0  0  0  0  0  0  0  0
   14.6085  -18.7797   19.4801 C   0  0  0  0  0  0  0  0  0  0  0  0
   14.0804  -19.3909   18.5369 O   0  0  0  0  0  0  0  0  0  0  0  0
   12.3906  -18.8023   23.8830 C   0  0  0  0  0  0  0  0  0  0  0  0
   11.5745  -17.9585   23.4554 O   0  0  0  0  0  0  0  0  0  0  0  0
   15.2164  -17.5582   19.2314 O   0  0  0  0  0  0  0  0  0  0  0  0
   11.5477  -23.0471   28.3756 N   0  0  0  0  0  0  0  0  0  0  0  0
   10.6869  -21.9390   28.2598 C   0  0  0  0  0  0  0  0  0  0  0  0
    9.8985  -21.6695   29.1861 O   0  0  0  0  0  0  0  0  0  0  0  0
   10.7233  -21.1053   27.0452 C   0  0  0  0  0  0  0  0  0  0  0  0
   11.2559  -19.7150   27.3404 C   0  0  0  0  0  0  0  0  0  0  0  0
   11.2033  -18.8348   26.1095 C   0  0  2  0  0  0  0  0  0  0  0  0
   12.2109  -19.2900   25.1947 N   0  0  0  0  0  0  0  0  0  0  0  0
   11.3205  -17.4247   26.4746 C   0  0  0  0  0  0  0  0  0  0  0  0
   11.7893  -16.6251   25.6234 O   0  0  0  0  0  0  0  0  0  0  0  0
   10.9469  -16.8623   27.7258 N   0  0  0  0  0  0  0  0  0  0  0  0
   10.8677  -15.4327   27.9609 C   0  0  1  0  0  0  0  0  0  0  0  0
    9.7265  -14.8012   27.1966 C   0  0  0  0  0  0  0  0  0  0  0  0
    9.5064  -13.0736   27.6704 S   0  0  0  0  0  0  0  0  0  0  0  0
   10.5755  -15.2505   29.4125 C   0  0  0  0  0  0  0  0  0  0  0  0
   10.8462  -14.0481   30.0808 O   0  0  0  0  0  0  0  0  0  0  0  0
   10.0693  -16.1606   30.1273 O   0  0  0  0  0  0  0  0  0  0  0  0
  2  7  1  0
  2  1  1  6
  3  2  1  0
  4  3  1  0
  5  4  1  0
  5  9  1  0
  6  5  2  0
  7  8  2  0
 11 13  1  0
 11 10  1  0
 12 11  2  0
 15 14  1  1
 14 13  1  0
 16 15  1  0
 16  7  1  0
 17 18  2  0
 17 15  1  0
 19 17  1  0
 20 19  1  0
 20 23  1  0
 20 21  1  6
 22 21  1  0
 23 24  1  0
 25 23  2  0
M  END
$$$$
