EQC.pdb
     RDKit          3D

 25 24  0  0  1  0  0  0  0  0999 V2000
   10.6795  -16.6094   18.5900 N   0  0  0  0  0  0  0  0  0  0  0  0
   11.2268  -16.8450   19.8985 C   0  0  1  0  0  0  0  0  0  0  0  0
   12.5498  -16.1334   20.0733 C   0  0  0  0  0  0  0  0  0  0  0  0
   12.4937  -14.8752   19.2137 C   0  0  0  0  0  0  0  0  0  0  0  0
   13.7918  -14.1502   19.2510 C   0  0  0  0  0  0  0  0  0  0  0  0
   14.1819  -13.3650   18.3715 O   0  0  0  0  0  0  0  0  0  0  0  0
   10.2256  -16.4050   20.9030 C   0  0  0  0  0  0  0  0  0  0  0  0
    9.2775  -15.6490   20.6022 O   0  0  0  0  0  0  0  0  0  0  0  0
   14.6038  -14.3825   20.3511 O   0  0  0  0  0  0  0  0  0  0  0  0
   10.3828  -20.1791   25.0195 N   0  0  0  0  0  0  0  0  0  0  0  0
   10.7680  -19.0216   25.7226 C   0  0  0  0  0  0  0  0  0  0  0  0
   11.5501  -19.1165   26.6877 O   0  0  0  0  0  0  0  0  0  0  0  0
   10.2445  -17.7063   25.3134 C   0  0  0  0  0  0  0  0  0  0  0  0
    9.2820  -17.8291   24.1463 C   0  0  0  0  0  0  0  0  0  0  0  0
    9.3391  -16.6048   23.2572 C   0  0  2  0  0  0  0  0  0  0  0  0
   10.3256  -16.8391   22.2417 N   0  0  0  0  0  0  0  0  0  0  0  0
    9.5710  -15.3988   24.0491 C   0  0  0  0  0  0  0  0  0  0  0  0
   10.4991  -14.6245   23.6986 O   0  0  0  0  0  0  0  0  0  0  0  0
    8.8315  -15.0123   25.2001 N   0  0  0  0  0  0  0  0  0  0  0  0
    8.4886  -13.6341   25.4968 C   0  0  1  0  0  0  0  0  0  0  0  0
    7.5198  -13.0669   24.4844 C   0  0  0  0  0  0  0  0  0  0  0  0
    6.9127  -11.4485   25.0038 S   0  0  0  0  0  0  0  0  0  0  0  0
    7.7906  -13.6381   26.8153 C   0  0  0  0  0  0  0  0  0  0  0  0
    7.7812  -12.5158   27.6557 O   0  0  0  0  0  0  0  0  0  0  0  0
    7.1680  -14.6449   27.2560 O   0  0  0  0  0  0  0  0  0  0  0  0
  2  7  1  0
  2  1  1  6
  3  2  1  0
  4  3  1  0
  5  4  1  0
  5  9  1  0
  6  5  2  0
  7  8  2  0
 11 13  1  0
 11 10  1  0
 12 11  2  0
 15 14  1  1
 14 13  1  0
 16 15  1  0
 16  7  1  0
 17 18  2  0
 17 15  1  0
 19 17  1  0
 20 19  1  0
 20 23  1  0
 20 21  1  6
 22 21  1  0
 23 24  1  0
 25 23  2  0
M  END
$$$$
