EQC.pdb
     RDKit          3D

 25 24  0  0  1  0  0  0  0  0999 V2000
   11.3765  -17.1757   21.5389 N   0  0  0  0  0  0  0  0  0  0  0  0
    9.9776  -16.9262   21.3197 C   0  0  1  0  0  0  0  0  0  0  0  0
    9.3636  -17.9933   20.4414 C   0  0  0  0  0  0  0  0  0  0  0  0
   10.0315  -17.8817   19.0752 C   0  0  0  0  0  0  0  0  0  0  0  0
    9.5226  -18.9292   18.1500 C   0  0  0  0  0  0  0  0  0  0  0  0
    9.8987  -19.0695   16.9748 O   0  0  0  0  0  0  0  0  0  0  0  0
    9.3101  -16.8485   22.6439 C   0  0  0  0  0  0  0  0  0  0  0  0
    8.0740  -16.7030   22.7522 O   0  0  0  0  0  0  0  0  0  0  0  0
    8.5647  -19.7952   18.6557 O   0  0  0  0  0  0  0  0  0  0  0  0
   11.6525  -19.2907   27.8804 N   0  0  0  0  0  0  0  0  0  0  0  0
   10.6246  -18.4828   28.4030 C   0  0  0  0  0  0  0  0  0  0  0  0
   10.3826  -18.5043   29.6250 O   0  0  0  0  0  0  0  0  0  0  0  0
    9.8418  -17.6176   27.5029 C   0  0  0  0  0  0  0  0  0  0  0  0
   10.3485  -17.6978   26.0744 C   0  0  0  0  0  0  0  0  0  0  0  0
    9.5441  -16.8020   25.1561 C   0  0  2  0  0  0  0  0  0  0  0  0
   10.0712  -16.9390   23.8285 N   0  0  0  0  0  0  0  0  0  0  0  0
    9.5284  -15.4283   25.6542 C   0  0  0  0  0  0  0  0  0  0  0  0
   10.5948  -14.7622   25.6005 O   0  0  0  0  0  0  0  0  0  0  0  0
    8.3990  -14.7627   26.2042 N   0  0  0  0  0  0  0  0  0  0  0  0
    8.4619  -13.4270   26.7675 C   0  0  1  0  0  0  0  0  0  0  0  0
    7.0843  -12.8376   26.9679 C   0  0  0  0  0  0  0  0  0  0  0  0
    6.1601  -12.8078   25.4180 S   0  0  0  0  0  0  0  0  0  0  0  0
    9.0822  -13.5579   28.1179 C   0  0  0  0  0  0  0  0  0  0  0  0
    9.4091  -12.4398   28.8981 O   0  0  0  0  0  0  0  0  0  0  0  0
    9.3507  -14.6757   28.6414 O   0  0  0  0  0  0  0  0  0  0  0  0
  2  7  1  0
  2  1  1  1
  3  2  1  0
  4  3  1  0
  5  4  1  0
  5  9  1  0
  6  5  2  0
  7  8  2  0
 11 13  1  0
 11 10  1  0
 12 11  2  0
 15 14  1  1
 14 13  1  0
 16 15  1  0
 16  7  1  0
 17 18  2  0
 17 15  1  0
 19 17  1  0
 20 19  1  0
 20 23  1  0
 20 21  1  1
 22 21  1  0
 23 24  1  0
 25 23  2  0
M  END
$$$$
