EQC.pdb
     RDKit          3D

 25 24  0  0  1  0  0  0  0  0999 V2000
    7.7683  -18.4646   19.6570 N   0  0  0  0  0  0  0  0  0  0  0  0
    8.7144  -18.2554   20.7192 C   0  0  1  0  0  0  0  0  0  0  0  0
    9.8650  -17.3867   20.2625 C   0  0  0  0  0  0  0  0  0  0  0  0
   10.8346  -17.2824   21.4347 C   0  0  0  0  0  0  0  0  0  0  0  0
   12.0236  -16.4678   21.0675 C   0  0  0  0  0  0  0  0  0  0  0  0
   12.0932  -15.2340   21.1901 O   0  0  0  0  0  0  0  0  0  0  0  0
    7.9913  -17.6555   21.8691 C   0  0  0  0  0  0  0  0  0  0  0  0
    7.2521  -16.6572   21.7355 O   0  0  0  0  0  0  0  0  0  0  0  0
   13.1150  -17.1539   20.5561 O   0  0  0  0  0  0  0  0  0  0  0  0
    8.1553  -20.2758   27.6528 N   0  0  0  0  0  0  0  0  0  0  0  0
    7.3524  -19.1391   27.8662 C   0  0  0  0  0  0  0  0  0  0  0  0
    6.9046  -18.9037   29.0047 O   0  0  0  0  0  0  0  0  0  0  0  0
    7.0467  -18.2354   26.7431 C   0  0  0  0  0  0  0  0  0  0  0  0
    7.7380  -18.6800   25.4671 C   0  0  0  0  0  0  0  0  0  0  0  0
    7.5130  -17.6867   24.3467 C   0  0  2  0  0  0  0  0  0  0  0  0
    8.1261  -18.2100   23.1594 N   0  0  0  0  0  0  0  0  0  0  0  0
    7.9868  -16.3580   24.7282 C   0  0  0  0  0  0  0  0  0  0  0  0
    9.2023  -16.0846   24.5507 O   0  0  0  0  0  0  0  0  0  0  0  0
    7.1867  -15.3269   25.2920 N   0  0  0  0  0  0  0  0  0  0  0  0
    7.6712  -13.9769   25.5107 C   0  0  1  0  0  0  0  0  0  0  0  0
    6.5366  -13.0033   25.7345 C   0  0  0  0  0  0  0  0  0  0  0  0
    7.1627  -11.3455   26.0765 S   0  0  0  0  0  0  0  0  0  0  0  0
    8.4761  -14.0063   26.7665 C   0  0  0  0  0  0  0  0  0  0  0  0
    9.2789  -12.9267   27.1612 O   0  0  0  0  0  0  0  0  0  0  0  0
    8.4862  -14.9979   27.5488 O   0  0  0  0  0  0  0  0  0  0  0  0
  2  7  1  0
  2  1  1  6
  3  2  1  0
  4  3  1  0
  5  4  1  0
  5  9  1  0
  6  5  2  0
  7  8  2  0
 11 13  1  0
 11 10  1  0
 12 11  2  0
 15 14  1  1
 14 13  1  0
 16 15  1  0
 16  7  1  0
 17 18  2  0
 17 15  1  0
 19 17  1  0
 20 19  1  0
 20 23  1  0
 20 21  1  1
 22 21  1  0
 23 24  1  0
 25 23  2  0
M  END
$$$$
