EQC.pdb
     RDKit          3D

 25 24  0  0  1  0  0  0  0  0999 V2000
   10.7286  -16.2242   20.5313 N   0  0  0  0  0  0  0  0  0  0  0  0
   10.9486  -17.2157   21.5490 C   0  0  1  0  0  0  0  0  0  0  0  0
   12.4255  -17.4637   21.7596 C   0  0  0  0  0  0  0  0  0  0  0  0
   13.0721  -16.1056   22.0099 C   0  0  0  0  0  0  0  0  0  0  0  0
   14.5424  -16.2437   22.1866 C   0  0  0  0  0  0  0  0  0  0  0  0
   15.1158  -16.2815   23.2875 O   0  0  0  0  0  0  0  0  0  0  0  0
   10.2825  -16.7545   22.7935 C   0  0  0  0  0  0  0  0  0  0  0  0
   10.1041  -15.5420   23.0360 O   0  0  0  0  0  0  0  0  0  0  0  0
   15.3031  -16.3344   21.0305 O   0  0  0  0  0  0  0  0  0  0  0  0
    8.0167  -20.8741   27.0675 N   0  0  0  0  0  0  0  0  0  0  0  0
    7.5354  -19.6452   27.5579 C   0  0  0  0  0  0  0  0  0  0  0  0
    6.8151  -19.6250   28.5743 O   0  0  0  0  0  0  0  0  0  0  0  0
    7.8859  -18.3916   26.8672 C   0  0  0  0  0  0  0  0  0  0  0  0
    8.6793  -18.6572   25.6008 C   0  0  0  0  0  0  0  0  0  0  0  0
    9.1249  -17.3640   24.9514 C   0  0  2  0  0  0  0  0  0  0  0  0
    9.8292  -17.6925   23.7450 N   0  0  0  0  0  0  0  0  0  0  0  0
    9.8942  -16.5502   25.8901 C   0  0  0  0  0  0  0  0  0  0  0  0
   11.0892  -16.8722   26.1183 O   0  0  0  0  0  0  0  0  0  0  0  0
    9.4084  -15.4073   26.5822 N   0  0  0  0  0  0  0  0  0  0  0  0
   10.2436  -14.5813   27.4339 C   0  0  1  0  0  0  0  0  0  0  0  0
    9.6179  -13.2294   27.6916 C   0  0  0  0  0  0  0  0  0  0  0  0
    7.8240  -13.3627   27.8382 S   0  0  0  0  0  0  0  0  0  0  0  0
   10.3381  -15.2773   28.7500 C   0  0  0  0  0  0  0  0  0  0  0  0
    9.6684  -16.4826   29.0042 O   0  0  0  0  0  0  0  0  0  0  0  0
   11.0222  -14.8292   29.7127 O   0  0  0  0  0  0  0  0  0  0  0  0
  2  7  1  0
  2  1  1  6
  3  2  1  0
  4  3  1  0
  5  4  1  0
  5  9  1  0
  6  5  2  0
  7  8  2  0
 11 13  1  0
 11 10  1  0
 12 11  2  0
 15 14  1  1
 14 13  1  0
 16 15  1  0
 16  7  1  0
 17 18  2  0
 17 15  1  0
 19 17  1  0
 20 19  1  0
 20 23  1  0
 20 21  1  1
 22 21  1  0
 23 24  1  0
 25 23  2  0
M  END
$$$$
