EQC.pdb
     RDKit          3D

 25 24  0  0  1  0  0  0  0  0999 V2000
    5.4751  -17.9342   20.5241 N   0  0  0  0  0  0  0  0  0  0  0  0
    6.6597  -18.2319   21.2828 C   0  0  1  0  0  0  0  0  0  0  0  0
    7.9074  -17.8412   20.5227 C   0  0  0  0  0  0  0  0  0  0  0  0
    7.5406  -16.6427   19.6542 C   0  0  0  0  0  0  0  0  0  0  0  0
    8.6839  -16.2458   18.7895 C   0  0  0  0  0  0  0  0  0  0  0  0
    9.6822  -16.9537   18.5785 O   0  0  0  0  0  0  0  0  0  0  0  0
    6.5622  -17.5260   22.5856 C   0  0  0  0  0  0  0  0  0  0  0  0
    5.6872  -16.6614   22.8037 O   0  0  0  0  0  0  0  0  0  0  0  0
    8.6076  -14.9977   18.1898 O   0  0  0  0  0  0  0  0  0  0  0  0
    9.8152  -19.5504   27.6180 N   0  0  0  0  0  0  0  0  0  0  0  0
    9.1499  -18.4261   28.1431 C   0  0  0  0  0  0  0  0  0  0  0  0
    9.2698  -18.1455   29.3511 O   0  0  0  0  0  0  0  0  0  0  0  0
    8.3166  -17.5888   27.2622 C   0  0  0  0  0  0  0  0  0  0  0  0
    8.3121  -18.1128   25.8377 C   0  0  0  0  0  0  0  0  0  0  0  0
    7.4060  -17.2844   24.9515 C   0  0  2  0  0  0  0  0  0  0  0  0
    7.4717  -17.8222   23.6228 N   0  0  0  0  0  0  0  0  0  0  0  0
    7.7486  -15.8665   25.0401 C   0  0  0  0  0  0  0  0  0  0  0  0
    8.6981  -15.4372   24.3346 O   0  0  0  0  0  0  0  0  0  0  0  0
    7.0962  -14.9098   25.8649 N   0  0  0  0  0  0  0  0  0  0  0  0
    7.4268  -13.4971   25.8549 C   0  0  1  0  0  0  0  0  0  0  0  0
    6.2040  -12.6336   26.0663 C   0  0  0  0  0  0  0  0  0  0  0  0
    5.4250  -12.9906   27.6548 S   0  0  0  0  0  0  0  0  0  0  0  0
    8.3356  -13.2591   27.0138 C   0  0  0  0  0  0  0  0  0  0  0  0
    8.9796  -12.0299   27.2143 O   0  0  0  0  0  0  0  0  0  0  0  0
    8.5815  -14.1427   27.8823 O   0  0  0  0  0  0  0  0  0  0  0  0
  2  7  1  0
  2  1  1  6
  3  2  1  0
  4  3  1  0
  5  4  1  0
  5  9  1  0
  6  5  2  0
  7  8  2  0
 11 13  1  0
 11 10  1  0
 12 11  2  0
 15 14  1  1
 14 13  1  0
 16 15  1  0
 16  7  1  0
 17 18  2  0
 17 15  1  0
 19 17  1  0
 20 19  1  0
 20 23  1  0
 20 21  1  1
 22 21  1  0
 23 24  1  0
 25 23  2  0
M  END
$$$$
