EQC.pdb
     RDKit          3D

 25 24  0  0  1  0  0  0  0  0999 V2000
    9.0210  -12.9199   19.1571 N   0  0  0  0  0  0  0  0  0  0  0  0
    9.1795  -14.2588   19.6568 C   0  0  1  0  0  0  0  0  0  0  0  0
   10.6409  -14.6353   19.7554 C   0  0  0  0  0  0  0  0  0  0  0  0
   11.3993  -13.7245   18.7961 C   0  0  0  0  0  0  0  0  0  0  0  0
   12.8598  -14.0014   18.8463 C   0  0  0  0  0  0  0  0  0  0  0  0
   13.7164  -13.3645   18.2118 O   0  0  0  0  0  0  0  0  0  0  0  0
    8.4967  -14.3435   20.9727 C   0  0  0  0  0  0  0  0  0  0  0  0
    8.0783  -13.3265   21.5657 O   0  0  0  0  0  0  0  0  0  0  0  0
   13.2683  -15.0452   19.6630 O   0  0  0  0  0  0  0  0  0  0  0  0
    6.2593  -19.8007   23.2139 N   0  0  0  0  0  0  0  0  0  0  0  0
    6.1821  -18.9831   24.3575 C   0  0  0  0  0  0  0  0  0  0  0  0
    5.6988  -19.4389   25.4115 O   0  0  0  0  0  0  0  0  0  0  0  0
    6.6728  -17.5948   24.3014 C   0  0  0  0  0  0  0  0  0  0  0  0
    7.2621  -17.2674   22.9416 C   0  0  0  0  0  0  0  0  0  0  0  0
    7.6203  -15.7999   22.8379 C   0  0  2  0  0  0  0  0  0  0  0  0
    8.3026  -15.5963   21.5920 N   0  0  0  0  0  0  0  0  0  0  0  0
    8.3757  -15.3660   24.0111 C   0  0  0  0  0  0  0  0  0  0  0  0
    9.5816  -15.7133   24.1060 O   0  0  0  0  0  0  0  0  0  0  0  0
    7.8648  -14.5733   25.0749 N   0  0  0  0  0  0  0  0  0  0  0  0
    8.6632  -14.1682   26.2166 C   0  0  1  0  0  0  0  0  0  0  0  0
    8.0182  -13.0319   26.9770 C   0  0  0  0  0  0  0  0  0  0  0  0
    6.7869  -12.1889   25.9618 S   0  0  0  0  0  0  0  0  0  0  0  0
    8.7173  -15.3377   27.1412 C   0  0  0  0  0  0  0  0  0  0  0  0
    9.5148  -15.3384   28.2944 O   0  0  0  0  0  0  0  0  0  0  0  0
    8.0533  -16.3945   26.9462 O   0  0  0  0  0  0  0  0  0  0  0  0
  2  7  1  0
  2  1  1  1
  3  2  1  0
  4  3  1  0
  5  4  1  0
  5  9  1  0
  6  5  2  0
  7  8  2  0
 11 13  1  0
 11 10  1  0
 12 11  2  0
 15 14  1  1
 14 13  1  0
 16 15  1  0
 16  7  1  0
 17 18  2  0
 17 15  1  0
 19 17  1  0
 20 19  1  0
 20 23  1  0
 20 21  1  1
 22 21  1  0
 23 24  1  0
 25 23  2  0
M  END
$$$$
