EQC.pdb
     RDKit          3D

 25 24  0  0  1  0  0  0  0  0999 V2000
   11.2792  -16.7399   20.3998 N   0  0  0  0  0  0  0  0  0  0  0  0
   11.4220  -17.6675   21.4891 C   0  0  1  0  0  0  0  0  0  0  0  0
   12.8715  -17.8142   21.8949 C   0  0  0  0  0  0  0  0  0  0  0  0
   13.4027  -16.4094   22.1583 C   0  0  0  0  0  0  0  0  0  0  0  0
   14.8419  -16.4490   22.5314 C   0  0  0  0  0  0  0  0  0  0  0  0
   15.5152  -17.4888   22.6193 O   0  0  0  0  0  0  0  0  0  0  0  0
   10.5784  -17.1906   22.6143 C   0  0  0  0  0  0  0  0  0  0  0  0
   10.2207  -15.9975   22.7112 O   0  0  0  0  0  0  0  0  0  0  0  0
   15.4511  -15.2311   22.7942 O   0  0  0  0  0  0  0  0  0  0  0  0
    7.9509  -21.2657   26.6887 N   0  0  0  0  0  0  0  0  0  0  0  0
    7.3943  -20.0403   27.1022 C   0  0  0  0  0  0  0  0  0  0  0  0
    6.5430  -20.0239   28.0117 O   0  0  0  0  0  0  0  0  0  0  0  0
    7.8213  -18.7858   26.4578 C   0  0  0  0  0  0  0  0  0  0  0  0
    8.7322  -19.0509   25.2729 C   0  0  0  0  0  0  0  0  0  0  0  0
    9.2763  -17.7594   24.6996 C   0  0  2  0  0  0  0  0  0  0  0  0
   10.1557  -18.0907   23.6152 N   0  0  0  0  0  0  0  0  0  0  0  0
    9.8958  -16.9480   25.7452 C   0  0  0  0  0  0  0  0  0  0  0  0
   11.0520  -17.2575   26.1339 O   0  0  0  0  0  0  0  0  0  0  0  0
    9.3019  -15.8205   26.3755 N   0  0  0  0  0  0  0  0  0  0  0  0
    9.9374  -15.0894   27.4557 C   0  0  1  0  0  0  0  0  0  0  0  0
    9.0570  -13.9744   27.9722 C   0  0  0  0  0  0  0  0  0  0  0  0
   10.0237  -12.7566   28.8887 S   0  0  0  0  0  0  0  0  0  0  0  0
   10.1239  -16.0547   28.5779 C   0  0  0  0  0  0  0  0  0  0  0  0
    9.3850  -17.2429   28.6678 O   0  0  0  0  0  0  0  0  0  0  0  0
   10.9528  -15.8651   29.5119 O   0  0  0  0  0  0  0  0  0  0  0  0
  2  7  1  0
  2  1  1  6
  3  2  1  0
  4  3  1  0
  5  4  1  0
  5  9  1  0
  6  5  2  0
  7  8  2  0
 11 13  1  0
 11 10  1  0
 12 11  2  0
 15 14  1  1
 14 13  1  0
 16 15  1  0
 16  7  1  0
 17 18  2  0
 17 15  1  0
 19 17  1  0
 20 19  1  0
 20 23  1  0
 20 21  1  1
 22 21  1  0
 23 24  1  0
 25 23  2  0
M  END
$$$$
