EQC.pdb
     RDKit          3D

 25 24  0  0  1  0  0  0  0  0999 V2000
    5.5586  -18.4810   20.3903 N   0  0  0  0  0  0  0  0  0  0  0  0
    6.7507  -17.8658   20.9077 C   0  0  1  0  0  0  0  0  0  0  0  0
    7.2157  -16.7384   20.0134 C   0  0  0  0  0  0  0  0  0  0  0  0
    7.7605  -17.3776   18.7408 C   0  0  0  0  0  0  0  0  0  0  0  0
    9.1475  -17.8728   18.9489 C   0  0  0  0  0  0  0  0  0  0  0  0
    9.6079  -18.2281   20.0462 O   0  0  0  0  0  0  0  0  0  0  0  0
    6.4654  -17.3957   22.2870 C   0  0  0  0  0  0  0  0  0  0  0  0
    5.3836  -16.8471   22.5866 O   0  0  0  0  0  0  0  0  0  0  0  0
    9.9624  -17.9328   17.8283 O   0  0  0  0  0  0  0  0  0  0  0  0
    7.5078  -20.1184   28.0527 N   0  0  0  0  0  0  0  0  0  0  0  0
    8.1768  -18.8865   27.9210 C   0  0  0  0  0  0  0  0  0  0  0  0
    9.2288  -18.6836   28.5568 O   0  0  0  0  0  0  0  0  0  0  0  0
    7.6295  -17.8456   27.0331 C   0  0  0  0  0  0  0  0  0  0  0  0
    7.8163  -18.2070   25.5708 C   0  0  0  0  0  0  0  0  0  0  0  0
    7.2680  -17.1253   24.6642 C   0  0  2  0  0  0  0  0  0  0  0  0
    7.4268  -17.5614   23.3063 N   0  0  0  0  0  0  0  0  0  0  0  0
    7.8941  -15.8375   24.9555 C   0  0  0  0  0  0  0  0  0  0  0  0
    9.0713  -15.6426   24.5557 O   0  0  0  0  0  0  0  0  0  0  0  0
    7.2849  -14.7647   25.6621 N   0  0  0  0  0  0  0  0  0  0  0  0
    7.8968  -13.4562   25.7991 C   0  0  1  0  0  0  0  0  0  0  0  0
    6.8603  -12.3613   25.9090 C   0  0  0  0  0  0  0  0  0  0  0  0
    5.6045  -12.7782   27.1364 S   0  0  0  0  0  0  0  0  0  0  0  0
    8.6574  -13.4686   27.0824 C   0  0  0  0  0  0  0  0  0  0  0  0
    8.6419  -14.5731   27.9459 O   0  0  0  0  0  0  0  0  0  0  0  0
    9.3588  -12.4926   27.4707 O   0  0  0  0  0  0  0  0  0  0  0  0
  2  7  1  0
  2  1  1  6
  3  2  1  0
  4  3  1  0
  5  4  1  0
  5  9  1  0
  6  5  2  0
  7  8  2  0
 11 13  1  0
 11 10  1  0
 12 11  2  0
 15 14  1  1
 14 13  1  0
 16 15  1  0
 16  7  1  0
 17 18  2  0
 17 15  1  0
 19 17  1  0
 20 19  1  0
 20 23  1  0
 20 21  1  1
 22 21  1  0
 23 24  1  0
 25 23  2  0
M  END
$$$$
