LHY.pdb
     RDKit          3D

 31 32  0  0  1  0  0  0  0  0999 V2000
   24.7672  -32.2430  -15.0334 C   0  0  0  0  0  0  0  0  0  0  0  0
   25.4260  -33.3093  -14.1453 C   0  0  1  0  0  0  0  0  0  0  0  0
   26.8717  -33.3744  -14.5436 C   0  0  0  0  0  0  0  0  0  0  0  0
   25.2552  -32.8460  -12.7376 C   0  0  0  0  0  0  0  0  0  0  0  0
   25.9856  -33.6448  -11.7072 C   0  0  2  0  0  0  0  0  0  0  0  0
   25.4358  -34.9860  -11.6916 N   0  0  0  0  0  0  0  0  0  0  0  0
   25.7313  -32.9602  -10.3874 C   0  0  0  0  0  0  0  0  0  0  0  0
   26.1548  -31.7791  -10.2124 O   0  0  0  0  0  0  0  0  0  0  0  0
   25.0251  -33.6808   -9.4032 N   0  0  0  0  0  0  0  0  0  0  0  0
   24.8054  -33.0858   -8.1002 C   0  0  1  0  0  0  0  0  0  0  0  0
   23.4022  -33.2417   -7.6372 C   0  0  0  0  0  0  0  0  0  0  0  0
   22.5099  -32.1919   -8.1703 C   0  0  0  0  0  0  0  0  0  0  0  0
   22.8888  -31.1010   -8.9663 C   0  0  0  0  0  0  0  0  0  0  0  0
   21.7958  -30.3781   -9.2440 N   0  0  0  0  0  0  0  0  0  0  0  0
   20.7408  -30.9442   -8.6715 C   0  0  0  0  0  0  0  0  0  0  0  0
   21.1678  -32.0309   -8.0281 N   0  0  0  0  0  0  0  0  0  0  0  0
   25.7059  -33.6898   -7.0800 C   0  0  0  0  0  0  0  0  0  0  0  0
   26.1960  -34.8383   -7.1969 O   0  0  0  0  0  0  0  0  0  0  0  0
   30.8408  -34.8457    0.0163 O   0  0  0  0  0  0  0  0  0  0  0  0
   30.1178  -34.2993   -1.0480 C   0  0  0  0  0  0  0  0  0  0  0  0
   30.6073  -34.2677   -2.3327 C   0  0  0  0  0  0  0  0  0  0  0  0
   29.8847  -33.7282   -3.3634 C   0  0  0  0  0  0  0  0  0  0  0  0
   28.6178  -33.1850   -3.1603 C   0  0  0  0  0  0  0  0  0  0  0  0
   27.8358  -32.5872   -4.2550 C   0  0  0  0  0  0  0  0  0  0  0  0
   26.9548  -33.6167   -4.8944 C   0  0  2  0  0  0  0  0  0  0  0  0
   26.0707  -32.9900   -5.8923 N   0  0  0  0  0  0  0  0  0  0  0  0
   26.1009  -34.3711   -3.9707 C   0  0  0  0  0  0  0  0  0  0  0  0
   24.9715  -33.9405   -3.6665 O   0  0  0  0  0  0  0  0  0  0  0  0
   28.1389  -33.2213   -1.8761 C   0  0  0  0  0  0  0  0  0  0  0  0
   28.8651  -33.7654   -0.8310 C   0  0  0  0  0  0  0  0  0  0  0  0
   26.5322  -35.5608   -3.4283 O   0  0  0  0  0  0  0  0  0  0  0  0
  2  1  1  6
  3  2  1  0
  4  5  1  0
  4  2  1  0
  5  6  1  1
  7  5  1  0
  7  8  2  0
  9  7  1  0
 10  9  1  0
 10 11  1  1
 12 11  1  0
 13 12  2  0
 14 15  1  0
 14 13  1  0
 15 16  2  0
 16 12  1  0
 17 10  1  0
 18 17  2  0
 20 19  1  0
 20 30  2  0
 21 20  1  0
 22 21  2  0
 22 23  1  0
 23 29  2  0
 24 23  1  0
 25 26  1  0
 25 24  1  1
 26 17  1  0
 27 25  1  0
 28 27  2  0
 29 30  1  0
 31 27  1  0
M  END
$$$$
