LHY.pdb
     RDKit          3D

 31 32  0  0  1  0  0  0  0  0999 V2000
   43.9212   -3.4274   -8.9322 C   0  0  0  0  0  0  0  0  0  0  0  0
   42.8750   -4.2731   -8.1906 C   0  0  1  0  0  0  0  0  0  0  0  0
   43.4976   -4.6940   -6.8914 C   0  0  0  0  0  0  0  0  0  0  0  0
   41.6923   -3.3882   -7.9820 C   0  0  0  0  0  0  0  0  0  0  0  0
   40.6246   -3.9438   -7.0962 C   0  0  2  0  0  0  0  0  0  0  0  0
   40.1077   -5.1539   -7.7042 N   0  0  0  0  0  0  0  0  0  0  0  0
   39.5463   -2.8914   -7.0276 C   0  0  0  0  0  0  0  0  0  0  0  0
   39.8313   -1.7435   -6.5737 O   0  0  0  0  0  0  0  0  0  0  0  0
   38.2587   -3.2452   -7.4789 N   0  0  0  0  0  0  0  0  0  0  0  0
   37.2020   -2.2536   -7.4765 C   0  0  1  0  0  0  0  0  0  0  0  0
   36.1889   -2.5050   -8.5339 C   0  0  0  0  0  0  0  0  0  0  0  0
   36.6296   -2.0359   -9.8636 C   0  0  0  0  0  0  0  0  0  0  0  0
   37.8082   -1.3317  -10.1507 C   0  0  0  0  0  0  0  0  0  0  0  0
   37.8470   -1.0878  -11.4673 N   0  0  0  0  0  0  0  0  0  0  0  0
   36.7615   -1.5954  -12.0376 C   0  0  0  0  0  0  0  0  0  0  0  0
   36.0316   -2.1635  -11.0775 N   0  0  0  0  0  0  0  0  0  0  0  0
   36.5074   -2.2182   -6.1601 C   0  0  0  0  0  0  0  0  0  0  0  0
   36.0424   -3.2430   -5.6064 O   0  0  0  0  0  0  0  0  0  0  0  0
   33.7882   -0.4161    1.9393 O   0  0  0  0  0  0  0  0  0  0  0  0
   34.4594   -0.4790    0.7147 C   0  0  0  0  0  0  0  0  0  0  0  0
   34.8618   -1.6688    0.1548 C   0  0  0  0  0  0  0  0  0  0  0  0
   35.5184   -1.7115   -1.0463 C   0  0  0  0  0  0  0  0  0  0  0  0
   35.8107   -0.5508   -1.7596 C   0  0  0  0  0  0  0  0  0  0  0  0
   36.5298   -0.5793   -3.0439 C   0  0  0  0  0  0  0  0  0  0  0  0
   35.6099   -0.9918   -4.1522 C   0  0  2  0  0  0  0  0  0  0  0  0
   36.3261   -1.0013   -5.4394 N   0  0  0  0  0  0  0  0  0  0  0  0
   34.4198   -0.1515   -4.3236 C   0  0  0  0  0  0  0  0  0  0  0  0
   34.3964    0.7317   -5.2028 O   0  0  0  0  0  0  0  0  0  0  0  0
   35.4054    0.6301   -1.1928 C   0  0  0  0  0  0  0  0  0  0  0  0
   34.7415    0.6786    0.0206 C   0  0  0  0  0  0  0  0  0  0  0  0
   33.3158   -0.3250   -3.5195 O   0  0  0  0  0  0  0  0  0  0  0  0
  2  1  1  6
  3  2  1  0
  4  5  1  0
  4  2  1  0
  5  6  1  6
  7  5  1  0
  7  8  2  0
  9  7  1  0
 10  9  1  0
 10 11  1  6
 12 11  1  0
 13 12  2  0
 14 15  1  0
 14 13  1  0
 15 16  2  0
 16 12  1  0
 17 10  1  0
 18 17  2  0
 20 19  1  0
 20 30  2  0
 21 20  1  0
 22 21  2  0
 22 23  1  0
 23 29  2  0
 24 23  1  0
 25 26  1  0
 25 24  1  1
 26 17  1  0
 27 25  1  0
 28 27  2  0
 29 30  1  0
 31 27  1  0
M  END
$$$$
