LHY.pdb
     RDKit          3D

 31 32  0  0  1  0  0  0  0  0999 V2000
   30.0928  -39.9560   -1.8218 C   0  0  0  0  0  0  0  0  0  0  0  0
   29.9947  -39.4385   -3.2648 C   0  0  1  0  0  0  0  0  0  0  0  0
   28.9399  -40.2574   -3.9499 C   0  0  0  0  0  0  0  0  0  0  0  0
   29.6102  -38.0003   -3.1688 C   0  0  0  0  0  0  0  0  0  0  0  0
   29.4329  -37.2960   -4.4749 C   0  0  2  0  0  0  0  0  0  0  0  0
   30.7364  -37.1279   -5.0862 N   0  0  0  0  0  0  0  0  0  0  0  0
   28.8311  -35.9519   -4.1487 C   0  0  0  0  0  0  0  0  0  0  0  0
   29.5780  -35.0340   -3.6963 O   0  0  0  0  0  0  0  0  0  0  0  0
   27.4489  -35.7846   -4.3676 N   0  0  0  0  0  0  0  0  0  0  0  0
   26.8280  -34.5072   -4.0796 C   0  0  1  0  0  0  0  0  0  0  0  0
   25.5650  -34.3093   -4.8368 C   0  0  0  0  0  0  0  0  0  0  0  0
   25.7659  -33.5400   -6.0820 C   0  0  0  0  0  0  0  0  0  0  0  0
   26.9767  -33.0047   -6.5450 C   0  0  0  0  0  0  0  0  0  0  0  0
   26.7473  -32.3779   -7.7064 N   0  0  0  0  0  0  0  0  0  0  0  0
   25.4600  -32.4820   -8.0119 C   0  0  0  0  0  0  0  0  0  0  0  0
   24.8713  -33.1781   -7.0392 N   0  0  0  0  0  0  0  0  0  0  0  0
   26.5297  -34.3754   -2.6269 C   0  0  0  0  0  0  0  0  0  0  0  0
   26.1850  -35.3453   -1.9104 O   0  0  0  0  0  0  0  0  0  0  0  0
   25.5993  -31.2894    5.5862 O   0  0  0  0  0  0  0  0  0  0  0  0
   25.9153  -31.4197    4.2308 C   0  0  0  0  0  0  0  0  0  0  0  0
   26.8726  -32.2970    3.7780 C   0  0  0  0  0  0  0  0  0  0  0  0
   27.1692  -32.4115    2.4459 C   0  0  0  0  0  0  0  0  0  0  0  0
   26.5150  -31.6442    1.4843 C   0  0  0  0  0  0  0  0  0  0  0  0
   26.8340  -31.7444    0.0506 C   0  0  0  0  0  0  0  0  0  0  0  0
   26.2822  -33.0138   -0.5230 C   0  0  2  0  0  0  0  0  0  0  0  0
   26.6186  -33.1218   -1.9531 N   0  0  0  0  0  0  0  0  0  0  0  0
   24.8289  -33.1743   -0.4055 C   0  0  0  0  0  0  0  0  0  0  0  0
   24.0637  -32.5194   -1.1399 O   0  0  0  0  0  0  0  0  0  0  0  0
   25.5626  -30.7726    1.9459 C   0  0  0  0  0  0  0  0  0  0  0  0
   25.2591  -30.6532    3.2910 C   0  0  0  0  0  0  0  0  0  0  0  0
   24.2906  -34.0467    0.5135 O   0  0  0  0  0  0  0  0  0  0  0  0
  2  1  1  1
  3  2  1  0
  4  5  1  0
  4  2  1  0
  5  6  1  1
  7  5  1  0
  7  8  2  0
  9  7  1  0
 10  9  1  0
 10 11  1  6
 12 11  1  0
 13 12  2  0
 14 15  1  0
 14 13  1  0
 15 16  2  0
 16 12  1  0
 17 10  1  0
 18 17  2  0
 20 19  1  0
 20 30  2  0
 21 20  1  0
 22 21  2  0
 22 23  1  0
 23 29  2  0
 24 23  1  0
 25 26  1  0
 25 24  1  6
 26 17  1  0
 27 25  1  0
 28 27  2  0
 29 30  1  0
 31 27  1  0
M  END
$$$$
