LHY.pdb
     RDKit          3D

 31 32  0  0  1  0  0  0  0  0999 V2000
   20.6783  -12.8909  -23.7684 C   0  0  0  0  0  0  0  0  0  0  0  0
   19.7236  -12.6094  -22.5984 C   0  0  1  0  0  0  0  0  0  0  0  0
   19.3655  -13.9384  -21.9998 C   0  0  0  0  0  0  0  0  0  0  0  0
   20.4775  -11.7504  -21.6397 C   0  0  0  0  0  0  0  0  0  0  0  0
   19.7501  -11.4040  -20.3811 C   0  0  2  0  0  0  0  0  0  0  0  0
   18.3518  -11.1959  -20.7016 N   0  0  0  0  0  0  0  0  0  0  0  0
   20.3675  -10.1229  -19.8783 C   0  0  0  0  0  0  0  0  0  0  0  0
   21.5666  -10.1339  -19.4694 O   0  0  0  0  0  0  0  0  0  0  0  0
   19.5665   -8.9633  -19.8900 N   0  0  0  0  0  0  0  0  0  0  0  0
   20.0963   -7.7222  -19.3618 C   0  0  1  0  0  0  0  0  0  0  0  0
   19.4524   -6.5289  -19.9696 C   0  0  0  0  0  0  0  0  0  0  0  0
   20.1369   -5.2705  -19.6086 C   0  0  0  0  0  0  0  0  0  0  0  0
   21.4926   -4.9718  -19.8086 C   0  0  0  0  0  0  0  0  0  0  0  0
   21.7274   -3.7358  -19.3487 N   0  0  0  0  0  0  0  0  0  0  0  0
   20.6001   -3.2278  -18.8664 C   0  0  0  0  0  0  0  0  0  0  0  0
   19.6468   -4.1467  -19.0218 N   0  0  0  0  0  0  0  0  0  0  0  0
   19.9163   -7.6515  -17.8856 C   0  0  0  0  0  0  0  0  0  0  0  0
   18.8163   -7.8633  -17.3215 O   0  0  0  0  0  0  0  0  0  0  0  0
   19.2201  -13.4058  -15.9980 O   0  0  0  0  0  0  0  0  0  0  0  0
   19.7767  -12.1588  -15.6996 C   0  0  0  0  0  0  0  0  0  0  0  0
   19.2187  -11.3037  -14.7784 C   0  0  0  0  0  0  0  0  0  0  0  0
   19.7780  -10.0854  -14.4985 C   0  0  0  0  0  0  0  0  0  0  0  0
   20.9402   -9.6529  -15.1339 C   0  0  0  0  0  0  0  0  0  0  0  0
   21.5443   -8.3395  -14.8555 C   0  0  0  0  0  0  0  0  0  0  0  0
   20.7864   -7.2534  -15.5562 C   0  0  2  0  0  0  0  0  0  0  0  0
   20.9976   -7.3345  -17.0118 N   0  0  0  0  0  0  0  0  0  0  0  0
   21.1250   -5.8871  -15.1437 C   0  0  0  0  0  0  0  0  0  0  0  0
   21.6414   -5.0959  -15.9566 O   0  0  0  0  0  0  0  0  0  0  0  0
   21.4885  -10.5125  -16.0506 C   0  0  0  0  0  0  0  0  0  0  0  0
   20.9273  -11.7448  -16.3369 C   0  0  0  0  0  0  0  0  0  0  0  0
   20.8785   -5.4601  -13.8582 O   0  0  0  0  0  0  0  0  0  0  0  0
  2  1  1  6
  3  2  1  0
  4  5  1  0
  4  2  1  0
  5  6  1  6
  7  5  1  0
  7  8  2  0
  9  7  1  0
 10  9  1  0
 10 11  1  6
 12 11  1  0
 13 12  2  0
 14 15  1  0
 14 13  1  0
 15 16  2  0
 16 12  1  0
 17 10  1  0
 18 17  2  0
 20 19  1  0
 20 30  2  0
 21 20  1  0
 22 21  2  0
 22 23  1  0
 23 29  2  0
 24 23  1  0
 25 26  1  0
 25 24  1  1
 26 17  1  0
 27 25  1  0
 28 27  2  0
 29 30  1  0
 31 27  1  0
M  END
$$$$
