LHY.pdb
     RDKit          3D

 31 32  0  0  1  0  0  0  0  0999 V2000
   28.1649  -15.0093  -19.0811 C   0  0  0  0  0  0  0  0  0  0  0  0
   28.1292  -16.4847  -18.6553 C   0  0  1  0  0  0  0  0  0  0  0  0
   29.3164  -16.7094  -17.7649 C   0  0  0  0  0  0  0  0  0  0  0  0
   26.8413  -16.6799  -17.9281 C   0  0  0  0  0  0  0  0  0  0  0  0
   26.7510  -17.9261  -17.1082 C   0  0  2  0  0  0  0  0  0  0  0  0
   27.2704  -19.0295  -17.8917 N   0  0  0  0  0  0  0  0  0  0  0  0
   25.2850  -18.1338  -16.8202 C   0  0  0  0  0  0  0  0  0  0  0  0
   24.6339  -17.2165  -16.2376 O   0  0  0  0  0  0  0  0  0  0  0  0
   24.7075  -19.3556  -17.2205 N   0  0  0  0  0  0  0  0  0  0  0  0
   23.3252  -19.6367  -16.8884 C   0  0  1  0  0  0  0  0  0  0  0  0
   22.6883  -20.5642  -17.8588 C   0  0  0  0  0  0  0  0  0  0  0  0
   22.1023  -19.8579  -19.0165 C   0  0  0  0  0  0  0  0  0  0  0  0
   21.9096  -18.4740  -19.1384 C   0  0  0  0  0  0  0  0  0  0  0  0
   21.3531  -18.2263  -20.3315 N   0  0  0  0  0  0  0  0  0  0  0  0
   21.1792  -19.3719  -20.9785 C   0  0  0  0  0  0  0  0  0  0  0  0
   21.6278  -20.3499  -20.1913 N   0  0  0  0  0  0  0  0  0  0  0  0
   23.2144  -20.2320  -15.5283 C   0  0  0  0  0  0  0  0  0  0  0  0
   23.9750  -21.1405  -15.1172 O   0  0  0  0  0  0  0  0  0  0  0  0
   26.5857  -21.6236   -8.7180 O   0  0  0  0  0  0  0  0  0  0  0  0
   25.6893  -21.0408   -9.6183 C   0  0  0  0  0  0  0  0  0  0  0  0
   26.0504  -20.6969  -10.8999 C   0  0  0  0  0  0  0  0  0  0  0  0
   25.1586  -20.1266  -11.7688 C   0  0  0  0  0  0  0  0  0  0  0  0
   23.8413  -19.8669  -11.3962 C   0  0  0  0  0  0  0  0  0  0  0  0
   22.8756  -19.2397  -12.3135 C   0  0  0  0  0  0  0  0  0  0  0  0
   22.2496  -20.2706  -13.2025 C   0  0  2  0  0  0  0  0  0  0  0  0
   22.2237  -19.7999  -14.5981 N   0  0  0  0  0  0  0  0  0  0  0  0
   20.8789  -20.6540  -12.8480 C   0  0  0  0  0  0  0  0  0  0  0  0
   19.9109  -20.1548  -13.4543 O   0  0  0  0  0  0  0  0  0  0  0  0
   23.4913  -20.2132  -10.1165 C   0  0  0  0  0  0  0  0  0  0  0  0
   24.3888  -20.7899   -9.2347 C   0  0  0  0  0  0  0  0  0  0  0  0
   20.6420  -21.5669  -11.8450 O   0  0  0  0  0  0  0  0  0  0  0  0
  2  1  1  1
  3  2  1  0
  4  5  1  0
  4  2  1  0
  5  6  1  6
  7  5  1  0
  7  8  2  0
  9  7  1  0
 10  9  1  0
 10 11  1  6
 12 11  1  0
 13 12  2  0
 14 15  1  0
 14 13  1  0
 15 16  2  0
 16 12  1  0
 17 10  1  0
 18 17  2  0
 20 19  1  0
 20 30  2  0
 21 20  1  0
 22 21  2  0
 22 23  1  0
 23 29  2  0
 24 23  1  0
 25 26  1  0
 25 24  1  1
 26 17  1  0
 27 25  1  0
 28 27  2  0
 29 30  1  0
 31 27  1  0
M  END
$$$$
