LHY.pdb
     RDKit          3D

 31 32  0  0  1  0  0  0  0  0999 V2000
   21.5970  -13.8927  -21.1645 C   0  0  0  0  0  0  0  0  0  0  0  0
   20.8204  -13.7601  -19.8458 C   0  0  1  0  0  0  0  0  0  0  0  0
   21.3684  -14.7994  -18.9118 C   0  0  0  0  0  0  0  0  0  0  0  0
   21.0708  -12.3758  -19.3494 C   0  0  0  0  0  0  0  0  0  0  0  0
   20.4835  -12.0586  -18.0124 C   0  0  2  0  0  0  0  0  0  0  0  0
   19.1284  -12.5717  -17.9730 N   0  0  0  0  0  0  0  0  0  0  0  0
   20.4763  -10.5542  -17.9033 C   0  0  0  0  0  0  0  0  0  0  0  0
   21.5708   -9.9229  -17.9946 O   0  0  0  0  0  0  0  0  0  0  0  0
   19.2337   -9.9198  -17.7027 N   0  0  0  0  0  0  0  0  0  0  0  0
   19.1640   -8.4725  -17.6822 C   0  0  1  0  0  0  0  0  0  0  0  0
   17.9644   -7.9546  -18.3897 C   0  0  0  0  0  0  0  0  0  0  0  0
   18.1071   -8.0065  -19.8591 C   0  0  0  0  0  0  0  0  0  0  0  0
   19.2414   -7.6434  -20.5999 C   0  0  0  0  0  0  0  0  0  0  0  0
   18.9777   -7.8315  -21.8997 N   0  0  0  0  0  0  0  0  0  0  0  0
   17.7407   -8.2937  -22.0319 C   0  0  0  0  0  0  0  0  0  0  0  0
   17.2185   -8.3988  -20.8099 N   0  0  0  0  0  0  0  0  0  0  0  0
   19.1424   -7.9598  -16.2847 C   0  0  0  0  0  0  0  0  0  0  0  0
   18.3986   -8.4366  -15.3945 O   0  0  0  0  0  0  0  0  0  0  0  0
   20.9477   -5.5001   -8.2444 O   0  0  0  0  0  0  0  0  0  0  0  0
   20.9729   -5.9065   -9.5815 C   0  0  0  0  0  0  0  0  0  0  0  0
   21.6730   -5.2219  -10.5471 C   0  0  0  0  0  0  0  0  0  0  0  0
   21.6865   -5.6348  -11.8528 C   0  0  0  0  0  0  0  0  0  0  0  0
   20.9911   -6.7691  -12.2665 C   0  0  0  0  0  0  0  0  0  0  0  0
   20.9829   -7.2163  -13.6691 C   0  0  0  0  0  0  0  0  0  0  0  0
   19.9806   -6.4358  -14.4636 C   0  0  2  0  0  0  0  0  0  0  0  0
   19.9767   -6.8813  -15.8677 N   0  0  0  0  0  0  0  0  0  0  0  0
   20.1807   -4.9827  -14.4696 C   0  0  0  0  0  0  0  0  0  0  0  0
   20.9100   -4.4532  -15.3306 O   0  0  0  0  0  0  0  0  0  0  0  0
   20.2962   -7.4444  -11.2965 C   0  0  0  0  0  0  0  0  0  0  0  0
   20.2794   -7.0313   -9.9756 C   0  0  0  0  0  0  0  0  0  0  0  0
   19.5689   -4.1855  -13.5284 O   0  0  0  0  0  0  0  0  0  0  0  0
  2  1  1  6
  3  2  1  0
  4  5  1  0
  4  2  1  0
  5  6  1  6
  7  5  1  0
  7  8  2  0
  9  7  1  0
 10  9  1  0
 10 11  1  1
 12 11  1  0
 13 12  2  0
 14 15  1  0
 14 13  1  0
 15 16  2  0
 16 12  1  0
 17 10  1  0
 18 17  2  0
 20 19  1  0
 20 30  2  0
 21 20  1  0
 22 21  2  0
 22 23  1  0
 23 29  2  0
 24 23  1  0
 25 26  1  0
 25 24  1  1
 26 17  1  0
 27 25  1  0
 28 27  2  0
 29 30  1  0
 31 27  1  0
M  END
$$$$
