LHY.pdb
     RDKit          3D

 31 32  0  0  1  0  0  0  0  0999 V2000
   28.0175  -13.5910  -15.1334 C   0  0  0  0  0  0  0  0  0  0  0  0
   27.3023  -13.7779  -16.4799 C   0  0  1  0  0  0  0  0  0  0  0  0
   28.3518  -14.1676  -17.4796 C   0  0  0  0  0  0  0  0  0  0  0  0
   26.2979  -14.8615  -16.2740 C   0  0  0  0  0  0  0  0  0  0  0  0
   25.5943  -15.3259  -17.5080 C   0  0  2  0  0  0  0  0  0  0  0  0
   24.7283  -14.2598  -17.9711 N   0  0  0  0  0  0  0  0  0  0  0  0
   24.7751  -16.5243  -17.0983 C   0  0  0  0  0  0  0  0  0  0  0  0
   23.8046  -16.3654  -16.2996 O   0  0  0  0  0  0  0  0  0  0  0  0
   25.1372  -17.7769  -17.6334 N   0  0  0  0  0  0  0  0  0  0  0  0
   24.3711  -18.9550  -17.2795 C   0  0  1  0  0  0  0  0  0  0  0  0
   24.3802  -19.9793  -18.3558 C   0  0  0  0  0  0  0  0  0  0  0  0
   23.4915  -21.1213  -18.0584 C   0  0  0  0  0  0  0  0  0  0  0  0
   22.7485  -21.3158  -16.8848 C   0  0  0  0  0  0  0  0  0  0  0  0
   22.0711  -22.4660  -16.9969 N   0  0  0  0  0  0  0  0  0  0  0  0
   22.3384  -23.0172  -18.1741 C   0  0  0  0  0  0  0  0  0  0  0  0
   23.1893  -22.2122  -18.8106 N   0  0  0  0  0  0  0  0  0  0  0  0
   24.8971  -19.5784  -16.0340 C   0  0  0  0  0  0  0  0  0  0  0  0
   26.1036  -19.8855  -15.8818 O   0  0  0  0  0  0  0  0  0  0  0  0
   26.1762  -21.2072   -7.5147 O   0  0  0  0  0  0  0  0  0  0  0  0
   25.7080  -20.7584   -8.7530 C   0  0  0  0  0  0  0  0  0  0  0  0
   26.4903  -20.0279   -9.6163 C   0  0  0  0  0  0  0  0  0  0  0  0
   26.0148  -19.5964  -10.8260 C   0  0  0  0  0  0  0  0  0  0  0  0
   24.7145  -19.8768  -11.2408 C   0  0  0  0  0  0  0  0  0  0  0  0
   24.1839  -19.4063  -12.5309 C   0  0  0  0  0  0  0  0  0  0  0  0
   24.6215  -20.3124  -13.6410 C   0  0  2  0  0  0  0  0  0  0  0  0
   24.0502  -19.8682  -14.9240 N   0  0  0  0  0  0  0  0  0  0  0  0
   24.2655  -21.7255  -13.4731 C   0  0  0  0  0  0  0  0  0  0  0  0
   23.1066  -22.1140  -13.7173 O   0  0  0  0  0  0  0  0  0  0  0  0
   23.9426  -20.6054  -10.3729 C   0  0  0  0  0  0  0  0  0  0  0  0
   24.4185  -21.0439   -9.1494 C   0  0  0  0  0  0  0  0  0  0  0  0
   25.2019  -22.6397  -13.0453 O   0  0  0  0  0  0  0  0  0  0  0  0
  2  1  1  1
  3  2  1  0
  4  5  1  0
  4  2  1  0
  5  6  1  1
  7  5  1  0
  7  8  2  0
  9  7  1  0
 10  9  1  0
 10 11  1  6
 12 11  1  0
 13 12  2  0
 14 15  1  0
 14 13  1  0
 15 16  2  0
 16 12  1  0
 17 10  1  0
 18 17  2  0
 20 19  1  0
 20 30  2  0
 21 20  1  0
 22 21  2  0
 22 23  1  0
 23 29  2  0
 24 23  1  0
 25 26  1  0
 25 24  1  1
 26 17  1  0
 27 25  1  0
 28 27  2  0
 29 30  1  0
 31 27  1  0
M  END
$$$$
