LHY.pdb
     RDKit          3D

 31 32  0  0  1  0  0  0  0  0999 V2000
   22.5138  -11.2228  -24.3991 C   0  0  0  0  0  0  0  0  0  0  0  0
   23.1371  -12.6242  -24.3152 C   0  0  1  0  0  0  0  0  0  0  0  0
   24.3596  -12.5056  -23.4526 C   0  0  0  0  0  0  0  0  0  0  0  0
   22.1034  -13.5065  -23.7000 C   0  0  0  0  0  0  0  0  0  0  0  0
   22.5237  -14.9220  -23.4700 C   0  0  2  0  0  0  0  0  0  0  0  0
   22.7827  -15.5385  -24.7561 N   0  0  0  0  0  0  0  0  0  0  0  0
   21.3606  -15.6000  -22.7899 C   0  0  0  0  0  0  0  0  0  0  0  0
   20.3598  -15.9522  -23.4823 O   0  0  0  0  0  0  0  0  0  0  0  0
   21.4492  -15.8098  -21.3989 N   0  0  0  0  0  0  0  0  0  0  0  0
   20.3728  -16.4908  -20.7078 C   0  0  1  0  0  0  0  0  0  0  0  0
   20.8661  -17.3466  -19.5979 C   0  0  0  0  0  0  0  0  0  0  0  0
   19.7772  -18.0820  -18.9227 C   0  0  0  0  0  0  0  0  0  0  0  0
   19.2086  -19.2952  -19.3373 C   0  0  0  0  0  0  0  0  0  0  0  0
   18.2523  -19.6365  -18.4636 N   0  0  0  0  0  0  0  0  0  0  0  0
   18.1774  -18.7114  -17.5149 C   0  0  0  0  0  0  0  0  0  0  0  0
   19.0906  -17.7798  -17.7893 N   0  0  0  0  0  0  0  0  0  0  0  0
   19.3965  -15.5151  -20.1496 C   0  0  0  0  0  0  0  0  0  0  0  0
   19.7423  -14.4389  -19.6064 O   0  0  0  0  0  0  0  0  0  0  0  0
   12.7200  -19.0174  -21.5522 O   0  0  0  0  0  0  0  0  0  0  0  0
   13.5413  -17.8987  -21.3854 C   0  0  0  0  0  0  0  0  0  0  0  0
   14.6693  -17.6924  -22.1446 C   0  0  0  0  0  0  0  0  0  0  0  0
   15.4625  -16.5901  -21.9674 C   0  0  0  0  0  0  0  0  0  0  0  0
   15.1650  -15.6237  -21.0087 C   0  0  0  0  0  0  0  0  0  0  0  0
   16.0165  -14.4419  -20.7955 C   0  0  0  0  0  0  0  0  0  0  0  0
   17.0433  -14.7176  -19.7398 C   0  0  2  0  0  0  0  0  0  0  0  0
   17.9906  -15.7480  -20.1993 N   0  0  0  0  0  0  0  0  0  0  0  0
   16.5094  -15.1636  -18.4484 C   0  0  0  0  0  0  0  0  0  0  0  0
   16.8157  -16.2838  -17.9957 O   0  0  0  0  0  0  0  0  0  0  0  0
   14.0386  -15.8387  -20.2571 C   0  0  0  0  0  0  0  0  0  0  0  0
   13.2337  -16.9509  -20.4323 C   0  0  0  0  0  0  0  0  0  0  0  0
   15.6659  -14.3551  -17.7202 O   0  0  0  0  0  0  0  0  0  0  0  0
  2  1  1  1
  3  2  1  0
  4  5  1  0
  4  2  1  0
  5  6  1  6
  7  5  1  0
  7  8  2  0
  9  7  1  0
 10  9  1  0
 10 11  1  1
 12 11  1  0
 13 12  2  0
 14 15  1  0
 14 13  1  0
 15 16  2  0
 16 12  1  0
 17 10  1  0
 18 17  2  0
 20 19  1  0
 20 30  2  0
 21 20  1  0
 22 21  2  0
 22 23  1  0
 23 29  2  0
 24 23  1  0
 25 26  1  0
 25 24  1  6
 26 17  1  0
 27 25  1  0
 28 27  2  0
 29 30  1  0
 31 27  1  0
M  END
$$$$
