LHY.pdb
     RDKit          3D

 31 32  0  0  1  0  0  0  0  0999 V2000
   28.7414  -12.3649  -17.7674 C   0  0  0  0  0  0  0  0  0  0  0  0
   27.5431  -12.6803  -16.8596 C   0  0  1  0  0  0  0  0  0  0  0  0
   28.1021  -13.1735  -15.5569 C   0  0  0  0  0  0  0  0  0  0  0  0
   26.7929  -11.4012  -16.6964 C   0  0  0  0  0  0  0  0  0  0  0  0
   25.6412  -11.4507  -15.7454 C   0  0  2  0  0  0  0  0  0  0  0  0
   24.9981  -12.7437  -15.8705 N   0  0  0  0  0  0  0  0  0  0  0  0
   24.6975  -10.3539  -16.1715 C   0  0  0  0  0  0  0  0  0  0  0  0
   25.1431   -9.1767  -16.3153 O   0  0  0  0  0  0  0  0  0  0  0  0
   23.3492  -10.7011  -16.3909 N   0  0  0  0  0  0  0  0  0  0  0  0
   22.4051   -9.6811  -16.8011 C   0  0  1  0  0  0  0  0  0  0  0  0
   21.0945  -10.2534  -17.2040 C   0  0  0  0  0  0  0  0  0  0  0  0
   20.1002   -9.2127  -17.5367 C   0  0  0  0  0  0  0  0  0  0  0  0
   19.0900   -8.7252  -16.6947 C   0  0  0  0  0  0  0  0  0  0  0  0
   18.3969   -7.7914  -17.3595 N   0  0  0  0  0  0  0  0  0  0  0  0
   18.9060   -7.6543  -18.5774 C   0  0  0  0  0  0  0  0  0  0  0  0
   19.9265   -8.5054  -18.6843 N   0  0  0  0  0  0  0  0  0  0  0  0
   22.1718   -8.6996  -15.7061 C   0  0  0  0  0  0  0  0  0  0  0  0
   22.0590   -9.0342  -14.5026 O   0  0  0  0  0  0  0  0  0  0  0  0
   25.8794   -2.7731  -18.3301 O   0  0  0  0  0  0  0  0  0  0  0  0
   25.2143   -3.5173  -17.3515 C   0  0  0  0  0  0  0  0  0  0  0  0
   24.2913   -2.9573  -16.4998 C   0  0  0  0  0  0  0  0  0  0  0  0
   23.6490   -3.7020  -15.5467 C   0  0  0  0  0  0  0  0  0  0  0  0
   23.8998   -5.0640  -15.3936 C   0  0  0  0  0  0  0  0  0  0  0  0
   23.2294   -5.8743  -14.3635 C   0  0  0  0  0  0  0  0  0  0  0  0
   21.8944   -6.3466  -14.8529 C   0  0  2  0  0  0  0  0  0  0  0  0
   22.0608   -7.3013  -15.9624 N   0  0  0  0  0  0  0  0  0  0  0  0
   20.9895   -5.2910  -15.3204 C   0  0  0  0  0  0  0  0  0  0  0  0
   20.7042   -5.1994  -16.5303 O   0  0  0  0  0  0  0  0  0  0  0  0
   24.8217   -5.6127  -16.2474 C   0  0  0  0  0  0  0  0  0  0  0  0
   25.4734   -4.8645  -17.2124 C   0  0  0  0  0  0  0  0  0  0  0  0
   20.4443   -4.3897  -14.4338 O   0  0  0  0  0  0  0  0  0  0  0  0
  2  1  1  6
  3  2  1  0
  4  5  1  0
  4  2  1  0
  5  6  1  6
  7  5  1  0
  7  8  2  0
  9  7  1  0
 10  9  1  0
 10 11  1  1
 12 11  1  0
 13 12  2  0
 14 15  1  0
 14 13  1  0
 15 16  2  0
 16 12  1  0
 17 10  1  0
 18 17  2  0
 20 19  1  0
 20 30  2  0
 21 20  1  0
 22 21  2  0
 22 23  1  0
 23 29  2  0
 24 23  1  0
 25 26  1  0
 25 24  1  6
 26 17  1  0
 27 25  1  0
 28 27  2  0
 29 30  1  0
 31 27  1  0
M  END
$$$$
