LHY.pdb
     RDKit          3D

 31 32  0  0  1  0  0  0  0  0999 V2000
   35.1343  -26.0154  -22.5863 C   0  0  0  0  0  0  0  0  0  0  0  0
   34.1633  -26.0495  -21.3966 C   0  0  1  0  0  0  0  0  0  0  0  0
   32.9575  -25.2500  -21.7962 C   0  0  0  0  0  0  0  0  0  0  0  0
   33.8303  -27.4856  -21.1685 C   0  0  0  0  0  0  0  0  0  0  0  0
   32.8206  -27.7471  -20.0983 C   0  0  2  0  0  0  0  0  0  0  0  0
   33.3705  -27.3072  -18.8313 N   0  0  0  0  0  0  0  0  0  0  0  0
   32.6015  -29.2393  -20.0833 C   0  0  0  0  0  0  0  0  0  0  0  0
   32.0593  -29.7943  -21.0848 O   0  0  0  0  0  0  0  0  0  0  0  0
   33.0178  -29.9491  -18.9390 N   0  0  0  0  0  0  0  0  0  0  0  0
   32.8790  -31.3911  -18.9013 C   0  0  1  0  0  0  0  0  0  0  0  0
   34.1517  -32.0723  -18.5493 C   0  0  0  0  0  0  0  0  0  0  0  0
   35.0601  -32.2083  -19.7064 C   0  0  0  0  0  0  0  0  0  0  0  0
   34.7116  -32.6439  -20.9932 C   0  0  0  0  0  0  0  0  0  0  0  0
   35.8109  -32.6301  -21.7584 N   0  0  0  0  0  0  0  0  0  0  0  0
   36.8414  -32.2109  -21.0348 C   0  0  0  0  0  0  0  0  0  0  0  0
   36.3924  -31.9580  -19.8053 N   0  0  0  0  0  0  0  0  0  0  0  0
   31.8398  -31.8009  -17.9171 C   0  0  0  0  0  0  0  0  0  0  0  0
   32.0274  -31.7775  -16.6773 O   0  0  0  0  0  0  0  0  0  0  0  0
   24.8453  -33.0094  -13.0447 O   0  0  0  0  0  0  0  0  0  0  0  0
   25.9318  -32.6724  -13.8571 C   0  0  0  0  0  0  0  0  0  0  0  0
   27.2228  -33.0309  -13.5478 C   0  0  0  0  0  0  0  0  0  0  0  0
   28.2754  -32.6920  -14.3558 C   0  0  0  0  0  0  0  0  0  0  0  0
   28.0891  -31.9672  -15.5310 C   0  0  0  0  0  0  0  0  0  0  0  0
   29.2121  -31.5816  -16.4014 C   0  0  0  0  0  0  0  0  0  0  0  0
   29.5602  -32.6996  -17.3362 C   0  0  2  0  0  0  0  0  0  0  0  0
   30.5511  -32.2508  -18.3296 N   0  0  0  0  0  0  0  0  0  0  0  0
   28.4306  -33.2711  -18.0772 C   0  0  0  0  0  0  0  0  0  0  0  0
   27.6978  -34.1262  -17.5430 O   0  0  0  0  0  0  0  0  0  0  0  0
   26.7984  -31.6145  -15.8303 C   0  0  0  0  0  0  0  0  0  0  0  0
   25.7312  -31.9546  -15.0172 C   0  0  0  0  0  0  0  0  0  0  0  0
   28.1641  -32.8733  -19.3680 O   0  0  0  0  0  0  0  0  0  0  0  0
  2  1  1  6
  3  2  1  0
  4  5  1  0
  4  2  1  0
  5  6  1  1
  7  5  1  0
  7  8  2  0
  9  7  1  0
 10  9  1  0
 10 11  1  1
 12 11  1  0
 13 12  2  0
 14 15  1  0
 14 13  1  0
 15 16  2  0
 16 12  1  0
 17 10  1  0
 18 17  2  0
 20 19  1  0
 20 30  2  0
 21 20  1  0
 22 21  2  0
 22 23  1  0
 23 29  2  0
 24 23  1  0
 25 26  1  0
 25 24  1  6
 26 17  1  0
 27 25  1  0
 28 27  2  0
 29 30  1  0
 31 27  1  0
M  END
$$$$
