LHY.pdb
     RDKit          3D

 31 32  0  0  1  0  0  0  0  0999 V2000
   17.5165  -12.9903  -16.4100 C   0  0  0  0  0  0  0  0  0  0  0  0
   19.0051  -13.3292  -16.5794 C   0  0  1  0  0  0  0  0  0  0  0  0
   19.2795  -13.3577  -18.0548 C   0  0  0  0  0  0  0  0  0  0  0  0
   19.7628  -12.2438  -15.8916 C   0  0  0  0  0  0  0  0  0  0  0  0
   21.2435  -12.2699  -16.0921 C   0  0  2  0  0  0  0  0  0  0  0  0
   21.8042  -13.2982  -15.2380 N   0  0  0  0  0  0  0  0  0  0  0  0
   21.7477  -10.9110  -15.6744 C   0  0  0  0  0  0  0  0  0  0  0  0
   21.5881  -10.5346  -14.4754 O   0  0  0  0  0  0  0  0  0  0  0  0
   22.3796  -10.1193  -16.6544 N   0  0  0  0  0  0  0  0  0  0  0  0
   22.9612   -8.8459  -16.2800 C   0  0  1  0  0  0  0  0  0  0  0  0
   24.2867   -8.6222  -16.9130 C   0  0  0  0  0  0  0  0  0  0  0  0
   25.3174   -9.5557  -16.4141 C   0  0  0  0  0  0  0  0  0  0  0  0
   25.2364  -10.3471  -15.2590 C   0  0  0  0  0  0  0  0  0  0  0  0
   26.3685  -11.0546  -15.1489 N   0  0  0  0  0  0  0  0  0  0  0  0
   27.1678  -10.7609  -16.1668 C   0  0  0  0  0  0  0  0  0  0  0  0
   26.5388   -9.8629  -16.9252 N   0  0  0  0  0  0  0  0  0  0  0  0
   22.0647   -7.7189  -16.6577 C   0  0  0  0  0  0  0  0  0  0  0  0
   21.4407   -7.6785  -17.7449 O   0  0  0  0  0  0  0  0  0  0  0  0
   16.6802   -0.8238  -16.6239 O   0  0  0  0  0  0  0  0  0  0  0  0
   17.4671   -1.9211  -16.2624 C   0  0  0  0  0  0  0  0  0  0  0  0
   18.4353   -1.8452  -15.2888 C   0  0  0  0  0  0  0  0  0  0  0  0
   19.1971   -2.9309  -14.9474 C   0  0  0  0  0  0  0  0  0  0  0  0
   19.0280   -4.1657  -15.5704 C   0  0  0  0  0  0  0  0  0  0  0  0
   19.8498   -5.3375  -15.2257 C   0  0  0  0  0  0  0  0  0  0  0  0
   20.9763   -5.4944  -16.2010 C   0  0  2  0  0  0  0  0  0  0  0  0
   21.8584   -6.6023  -15.7953 N   0  0  0  0  0  0  0  0  0  0  0  0
   21.8216   -4.3087  -16.3776 C   0  0  0  0  0  0  0  0  0  0  0  0
   22.8498   -4.1627  -15.6885 O   0  0  0  0  0  0  0  0  0  0  0  0
   18.0604   -4.2308  -16.5396 C   0  0  0  0  0  0  0  0  0  0  0  0
   17.2878   -3.1367  -16.8882 C   0  0  0  0  0  0  0  0  0  0  0  0
   21.4933   -3.3436  -17.3030 O   0  0  0  0  0  0  0  0  0  0  0  0
  2  1  1  6
  3  2  1  0
  4  5  1  0
  4  2  1  0
  5  6  1  1
  7  5  1  0
  7  8  2  0
  9  7  1  0
 10  9  1  0
 10 11  1  6
 12 11  1  0
 13 12  2  0
 14 15  1  0
 14 13  1  0
 15 16  2  0
 16 12  1  0
 17 10  1  0
 18 17  2  0
 20 19  1  0
 20 30  2  0
 21 20  1  0
 22 21  2  0
 22 23  1  0
 23 29  2  0
 24 23  1  0
 25 26  1  0
 25 24  1  1
 26 17  1  0
 27 25  1  0
 28 27  2  0
 29 30  1  0
 31 27  1  0
M  END
$$$$
