LHY.pdb
     RDKit          3D

 31 32  0  0  1  0  0  0  0  0999 V2000
   30.6568  -24.5011  -19.6812 C   0  0  0  0  0  0  0  0  0  0  0  0
   31.4221  -25.2407  -18.5735 C   0  0  1  0  0  0  0  0  0  0  0  0
   32.8634  -25.2776  -18.9908 C   0  0  0  0  0  0  0  0  0  0  0  0
   31.2224  -24.4484  -17.3255 C   0  0  0  0  0  0  0  0  0  0  0  0
   29.9574  -24.7318  -16.5821 C   0  0  2  0  0  0  0  0  0  0  0  0
   29.1583  -25.6498  -17.3695 N   0  0  0  0  0  0  0  0  0  0  0  0
   29.2474  -23.4085  -16.4417 C   0  0  0  0  0  0  0  0  0  0  0  0
   29.8227  -22.4606  -15.8290 O   0  0  0  0  0  0  0  0  0  0  0  0
   27.9619  -23.2937  -17.0082 N   0  0  0  0  0  0  0  0  0  0  0  0
   27.1942  -22.0821  -16.8014 C   0  0  1  0  0  0  0  0  0  0  0  0
   26.2623  -21.8050  -17.9250 C   0  0  0  0  0  0  0  0  0  0  0  0
   25.5107  -20.5466  -17.7403 C   0  0  0  0  0  0  0  0  0  0  0  0
   26.0412  -19.2484  -17.7583 C   0  0  0  0  0  0  0  0  0  0  0  0
   25.0430  -18.3789  -17.5535 N   0  0  0  0  0  0  0  0  0  0  0  0
   23.9057  -19.0467  -17.4058 C   0  0  0  0  0  0  0  0  0  0  0  0
   24.1851  -20.3454  -17.5175 N   0  0  0  0  0  0  0  0  0  0  0  0
   26.4018  -22.1616  -15.5434 C   0  0  0  0  0  0  0  0  0  0  0  0
   25.8029  -23.2015  -15.1790 O   0  0  0  0  0  0  0  0  0  0  0  0
   22.7593  -20.5434   -7.7078 O   0  0  0  0  0  0  0  0  0  0  0  0
   23.5391  -20.4563   -8.8646 C   0  0  0  0  0  0  0  0  0  0  0  0
   23.0643  -19.9114  -10.0345 C   0  0  0  0  0  0  0  0  0  0  0  0
   23.8427  -19.8343  -11.1587 C   0  0  0  0  0  0  0  0  0  0  0  0
   25.1543  -20.3044  -11.1715 C   0  0  0  0  0  0  0  0  0  0  0  0
   25.9980  -20.2431  -12.3763 C   0  0  0  0  0  0  0  0  0  0  0  0
   25.4546  -21.1422  -13.4446 C   0  0  2  0  0  0  0  0  0  0  0  0
   26.2740  -21.0457  -14.6650 N   0  0  0  0  0  0  0  0  0  0  0  0
   24.0642  -20.8832  -13.8335 C   0  0  0  0  0  0  0  0  0  0  0  0
   23.7958  -19.9594  -14.6260 O   0  0  0  0  0  0  0  0  0  0  0  0
   25.6181  -20.8459  -10.0003 C   0  0  0  0  0  0  0  0  0  0  0  0
   24.8355  -20.9261   -8.8616 C   0  0  0  0  0  0  0  0  0  0  0  0
   23.0393  -21.6533  -13.3313 O   0  0  0  0  0  0  0  0  0  0  0  0
  2  1  1  6
  3  2  1  0
  4  5  1  0
  4  2  1  0
  5  6  1  6
  7  5  1  0
  7  8  2  0
  9  7  1  0
 10  9  1  0
 10 11  1  6
 12 11  1  0
 13 12  2  0
 14 15  1  0
 14 13  1  0
 15 16  2  0
 16 12  1  0
 17 10  1  0
 18 17  2  0
 20 19  1  0
 20 30  2  0
 21 20  1  0
 22 21  2  0
 22 23  1  0
 23 29  2  0
 24 23  1  0
 25 26  1  0
 25 24  1  1
 26 17  1  0
 27 25  1  0
 28 27  2  0
 29 30  1  0
 31 27  1  0
M  END
$$$$
