LHY.pdb
     RDKit          3D

 31 32  0  0  1  0  0  0  0  0999 V2000
   27.4394  -18.9476   -6.4835 C   0  0  0  0  0  0  0  0  0  0  0  0
   28.1977  -19.9284   -7.3905 C   0  0  1  0  0  0  0  0  0  0  0  0
   28.9313  -20.8771   -6.4879 C   0  0  0  0  0  0  0  0  0  0  0  0
   27.1646  -20.6248   -8.2109 C   0  0  0  0  0  0  0  0  0  0  0  0
   27.6863  -21.3879   -9.3852 C   0  0  2  0  0  0  0  0  0  0  0  0
   29.0113  -20.8927   -9.7022 N   0  0  0  0  0  0  0  0  0  0  0  0
   26.7372  -21.1073  -10.5234 C   0  0  0  0  0  0  0  0  0  0  0  0
   26.8136  -19.9992  -11.1327 O   0  0  0  0  0  0  0  0  0  0  0  0
   25.8009  -22.1074  -10.8548 N   0  0  0  0  0  0  0  0  0  0  0  0
   25.0740  -22.0213  -12.1054 C   0  0  1  0  0  0  0  0  0  0  0  0
   24.8352  -23.3559  -12.7132 C   0  0  0  0  0  0  0  0  0  0  0  0
   24.1590  -23.2685  -14.0238 C   0  0  0  0  0  0  0  0  0  0  0  0
   23.7503  -22.0952  -14.6744 C   0  0  0  0  0  0  0  0  0  0  0  0
   23.1766  -22.4321  -15.8371 N   0  0  0  0  0  0  0  0  0  0  0  0
   23.1954  -23.7528  -15.9667 C   0  0  0  0  0  0  0  0  0  0  0  0
   23.7837  -24.2546  -14.8807 N   0  0  0  0  0  0  0  0  0  0  0  0
   23.7585  -21.3515  -11.9121 C   0  0  0  0  0  0  0  0  0  0  0  0
   23.0983  -21.4386  -10.8493 O   0  0  0  0  0  0  0  0  0  0  0  0
   21.9985  -19.3811  -19.0513 O   0  0  0  0  0  0  0  0  0  0  0  0
   21.9524  -19.1774  -17.6692 C   0  0  0  0  0  0  0  0  0  0  0  0
   20.7727  -19.1791  -16.9626 C   0  0  0  0  0  0  0  0  0  0  0  0
   20.7465  -18.9779  -15.6082 C   0  0  0  0  0  0  0  0  0  0  0  0
   21.9146  -18.7614  -14.8801 C   0  0  0  0  0  0  0  0  0  0  0  0
   21.9012  -18.5276  -13.4267 C   0  0  0  0  0  0  0  0  0  0  0  0
   21.9071  -19.8295  -12.6850 C   0  0  2  0  0  0  0  0  0  0  0  0
   23.1613  -20.5600  -12.9369 N   0  0  0  0  0  0  0  0  0  0  0  0
   20.8025  -20.7390  -13.0076 C   0  0  0  0  0  0  0  0  0  0  0  0
   21.0054  -21.7485  -13.7100 O   0  0  0  0  0  0  0  0  0  0  0  0
   23.0853  -18.7614  -15.5938 C   0  0  0  0  0  0  0  0  0  0  0  0
   23.1172  -18.9645  -16.9625 C   0  0  0  0  0  0  0  0  0  0  0  0
   19.5307  -20.4924  -12.5415 O   0  0  0  0  0  0  0  0  0  0  0  0
  2  1  1  1
  3  2  1  0
  4  5  1  0
  4  2  1  0
  5  6  1  6
  7  5  1  0
  7  8  2  0
  9  7  1  0
 10  9  1  0
 10 11  1  1
 12 11  1  0
 13 12  2  0
 14 15  1  0
 14 13  1  0
 15 16  2  0
 16 12  1  0
 17 10  1  0
 18 17  2  0
 20 19  1  0
 20 30  2  0
 21 20  1  0
 22 21  2  0
 22 23  1  0
 23 29  2  0
 24 23  1  0
 25 26  1  0
 25 24  1  6
 26 17  1  0
 27 25  1  0
 28 27  2  0
 29 30  1  0
 31 27  1  0
M  END
$$$$
