LHY.pdb
     RDKit          3D

 31 32  0  0  1  0  0  0  0  0999 V2000
   22.5436  -11.9061  -21.8054 C   0  0  0  0  0  0  0  0  0  0  0  0
   23.5698  -10.8136  -22.1414 C   0  0  1  0  0  0  0  0  0  0  0  0
   22.9614   -9.9610  -23.2164 C   0  0  0  0  0  0  0  0  0  0  0  0
   23.7939  -10.0474  -20.8812 C   0  0  0  0  0  0  0  0  0  0  0  0
   24.7094   -8.8722  -21.0001 C   0  0  2  0  0  0  0  0  0  0  0  0
   26.0590   -9.3100  -20.7033 N   0  0  0  0  0  0  0  0  0  0  0  0
   24.2456   -7.8728  -19.9700 C   0  0  0  0  0  0  0  0  0  0  0  0
   24.5634   -8.0444  -18.7557 O   0  0  0  0  0  0  0  0  0  0  0  0
   23.4713   -6.7838  -20.4187 N   0  0  0  0  0  0  0  0  0  0  0  0
   22.9827   -5.8108  -19.4625 C   0  0  1  0  0  0  0  0  0  0  0  0
   22.4193   -4.6043  -20.1218 C   0  0  0  0  0  0  0  0  0  0  0  0
   22.0644   -3.5445  -19.1557 C   0  0  0  0  0  0  0  0  0  0  0  0
   22.7486   -3.2327  -17.9717 C   0  0  0  0  0  0  0  0  0  0  0  0
   22.1179   -2.2141  -17.3725 N   0  0  0  0  0  0  0  0  0  0  0  0
   21.0705   -1.8574  -18.1052 C   0  0  0  0  0  0  0  0  0  0  0  0
   21.0378   -2.6540  -19.1737 N   0  0  0  0  0  0  0  0  0  0  0  0
   21.9315   -6.4026  -18.5899 C   0  0  0  0  0  0  0  0  0  0  0  0
   20.9659   -7.0653  -19.0386 O   0  0  0  0  0  0  0  0  0  0  0  0
   17.3898   -9.9695  -12.0537 O   0  0  0  0  0  0  0  0  0  0  0  0
   18.4073   -9.4171  -12.8370 C   0  0  0  0  0  0  0  0  0  0  0  0
   19.2288   -8.4143  -12.3782 C   0  0  0  0  0  0  0  0  0  0  0  0
   20.2210   -7.8848  -13.1598 C   0  0  0  0  0  0  0  0  0  0  0  0
   20.4462   -8.3368  -14.4584 C   0  0  0  0  0  0  0  0  0  0  0  0
   21.4981   -7.7666  -15.3162 C   0  0  0  0  0  0  0  0  0  0  0  0
   20.9025   -6.8423  -16.3340 C   0  0  2  0  0  0  0  0  0  0  0  0
   21.9590   -6.2499  -17.1725 N   0  0  0  0  0  0  0  0  0  0  0  0
   20.1105   -5.7354  -15.7871 C   0  0  0  0  0  0  0  0  0  0  0  0
   20.6635   -4.6639  -15.4716 O   0  0  0  0  0  0  0  0  0  0  0  0
   19.6218   -9.3366  -14.9064 C   0  0  0  0  0  0  0  0  0  0  0  0
   18.6178   -9.8751  -14.1205 C   0  0  0  0  0  0  0  0  0  0  0  0
   18.7505   -5.8630  -15.6148 O   0  0  0  0  0  0  0  0  0  0  0  0
  2  1  1  1
  3  2  1  0
  4  5  1  0
  4  2  1  0
  5  6  1  1
  7  5  1  0
  7  8  2  0
  9  7  1  0
 10  9  1  0
 10 11  1  6
 12 11  1  0
 13 12  2  0
 14 15  1  0
 14 13  1  0
 15 16  2  0
 16 12  1  0
 17 10  1  0
 18 17  2  0
 20 19  1  0
 20 30  2  0
 21 20  1  0
 22 21  2  0
 22 23  1  0
 23 29  2  0
 24 23  1  0
 25 26  1  0
 25 24  1  1
 26 17  1  0
 27 25  1  0
 28 27  2  0
 29 30  1  0
 31 27  1  0
M  END
$$$$
