LHY.pdb
     RDKit          3D

 31 32  0  0  1  0  0  0  0  0999 V2000
   30.4434  -27.6270  -18.7730 C   0  0  0  0  0  0  0  0  0  0  0  0
   30.4631  -26.4393  -17.7991 C   0  0  1  0  0  0  0  0  0  0  0  0
   31.3961  -25.4166  -18.3790 C   0  0  0  0  0  0  0  0  0  0  0  0
   29.0607  -25.9362  -17.7235 C   0  0  0  0  0  0  0  0  0  0  0  0
   28.2136  -26.5571  -16.6604 C   0  0  2  0  0  0  0  0  0  0  0  0
   28.1993  -27.9921  -16.8650 N   0  0  0  0  0  0  0  0  0  0  0  0
   26.8282  -25.9892  -16.8425 C   0  0  0  0  0  0  0  0  0  0  0  0
   26.6470  -24.7439  -16.6969 O   0  0  0  0  0  0  0  0  0  0  0  0
   25.7922  -26.8869  -17.1701 N   0  0  0  0  0  0  0  0  0  0  0  0
   24.4402  -26.3911  -17.3323 C   0  0  1  0  0  0  0  0  0  0  0  0
   23.8474  -26.7830  -18.6372 C   0  0  0  0  0  0  0  0  0  0  0  0
   24.2585  -25.8875  -19.7378 C   0  0  0  0  0  0  0  0  0  0  0  0
   24.9206  -24.6578  -19.6089 C   0  0  0  0  0  0  0  0  0  0  0  0
   25.1169  -24.1509  -20.8332 N   0  0  0  0  0  0  0  0  0  0  0  0
   24.6186  -24.9858  -21.7366 C   0  0  0  0  0  0  0  0  0  0  0  0
   24.1041  -26.0264  -21.0811 N   0  0  0  0  0  0  0  0  0  0  0  0
   23.5549  -26.8923  -16.2453 C   0  0  0  0  0  0  0  0  0  0  0  0
   23.7566  -27.9754  -15.6460 O   0  0  0  0  0  0  0  0  0  0  0  0
   18.9139  -27.7280   -9.0120 O   0  0  0  0  0  0  0  0  0  0  0  0
   19.7130  -27.3246  -10.0856 C   0  0  0  0  0  0  0  0  0  0  0  0
   19.4760  -26.1654  -10.7864 C   0  0  0  0  0  0  0  0  0  0  0  0
   20.2696  -25.7856  -11.8359 C   0  0  0  0  0  0  0  0  0  0  0  0
   21.3563  -26.5559  -12.2448 C   0  0  0  0  0  0  0  0  0  0  0  0
   22.2088  -26.1692  -13.3811 C   0  0  0  0  0  0  0  0  0  0  0  0
   21.6058  -26.6327  -14.6720 C   0  0  2  0  0  0  0  0  0  0  0  0
   22.4087  -26.1619  -15.8139 N   0  0  0  0  0  0  0  0  0  0  0  0
   20.2230  -26.2032  -14.9071 C   0  0  0  0  0  0  0  0  0  0  0  0
   19.9908  -25.1354  -15.5067 O   0  0  0  0  0  0  0  0  0  0  0  0
   21.5840  -27.7097  -11.5399 C   0  0  0  0  0  0  0  0  0  0  0  0
   20.7850  -28.0978  -10.4785 C   0  0  0  0  0  0  0  0  0  0  0  0
   19.1657  -26.9697  -14.4709 O   0  0  0  0  0  0  0  0  0  0  0  0
  2  1  1  6
  3  2  1  0
  4  5  1  0
  4  2  1  0
  5  6  1  6
  7  5  1  0
  7  8  2  0
  9  7  1  0
 10  9  1  0
 10 11  1  6
 12 11  1  0
 13 12  2  0
 14 15  1  0
 14 13  1  0
 15 16  2  0
 16 12  1  0
 17 10  1  0
 18 17  2  0
 20 19  1  0
 20 30  2  0
 21 20  1  0
 22 21  2  0
 22 23  1  0
 23 29  2  0
 24 23  1  0
 25 26  1  0
 25 24  1  1
 26 17  1  0
 27 25  1  0
 28 27  2  0
 29 30  1  0
 31 27  1  0
M  END
$$$$
