PIH.pdb
     RDKit          3D

 26 27  0  0  1  0  0  0  0  0999 V2000
    8.0298  -15.0971   20.2252 N   0  0  0  0  0  0  0  0  0  0  0  0
    8.0910  -16.3545   19.5273 C   0  0  0  0  0  0  0  0  0  0  0  0
    6.8931  -17.1437   19.9459 C   0  0  0  0  0  0  0  0  0  0  0  0
    6.6816  -16.6785   21.3745 C   0  0  0  0  0  0  0  0  0  0  0  0
    7.2011  -15.2565   21.3768 C   0  0  1  0  0  0  0  0  0  0  0  0
    8.0181  -15.0138   22.6182 C   0  0  0  0  0  0  0  0  0  0  0  0
    9.2731  -15.0311   22.5519 O   0  0  0  0  0  0  0  0  0  0  0  0
    6.1651  -11.5132   26.5200 C   0  0  0  0  0  0  0  0  0  0  0  0
    7.0741  -12.1882   25.5392 C   0  0  0  0  0  0  0  0  0  0  0  0
    7.5085  -13.5417   25.9860 C   0  0  2  0  0  0  0  0  0  0  0  0
    8.4937  -13.2592   27.1501 C   0  0  0  0  0  0  0  0  0  0  0  0
    8.2123  -14.3944   24.9894 C   0  0  2  0  0  0  0  0  0  0  0  0
    7.3696  -14.7659   23.8619 N   0  0  0  0  0  0  0  0  0  0  0  0
    8.6242  -15.6939   25.5798 C   0  0  0  0  0  0  0  0  0  0  0  0
    7.6890  -16.5483   25.7925 O   0  0  0  0  0  0  0  0  0  0  0  0
    9.9058  -16.1132   25.9311 N   0  0  0  0  0  0  0  0  0  0  0  0
   10.1248  -17.5182   26.4245 C   0  0  1  0  0  0  0  0  0  0  0  0
   11.4264  -17.9078   25.8102 C   0  0  0  0  0  0  0  0  0  0  0  0
   11.4180  -18.1663   24.3686 C   0  0  0  0  0  0  0  0  0  0  0  0
   10.4310  -18.2922   23.4290 C   0  0  0  0  0  0  0  0  0  0  0  0
   10.9847  -18.4801   22.2094 N   0  0  0  0  0  0  0  0  0  0  0  0
   12.2962  -18.4706   22.3841 C   0  0  0  0  0  0  0  0  0  0  0  0
   12.5938  -18.2832   23.6751 N   0  0  0  0  0  0  0  0  0  0  0  0
   10.1999  -17.3662   27.8929 C   0  0  0  0  0  0  0  0  0  0  0  0
   10.2282  -18.4291   28.7573 O   0  0  0  0  0  0  0  0  0  0  0  0
   10.2416  -16.2225   28.4018 O   0  0  0  0  0  0  0  0  0  0  0  0
  2  1  1  0
  3  2  1  0
  4  3  1  0
  4  5  1  0
  5  1  1  0
  5  6  1  1
  6  7  2  0
  9  8  1  0
  9 10  1  0
 10 11  1  1
 12 10  1  0
 13  6  1  0
 12 13  1  6
 14 12  1  0
 14 15  2  0
 16 14  1  0
 17 16  1  0
 18 19  1  0
 17 18  1  6
 19 23  1  0
 20 21  1  0
 20 19  2  0
 21 22  1  0
 22 23  2  0
 24 17  1  0
 24 25  1  0
 26 24  2  0
M  END
$$$$
