PIH.pdb
     RDKit          3D

 26 27  0  0  1  0  0  0  0  0999 V2000
    6.2888  -19.0903   18.8980 N   0  0  0  0  0  0  0  0  0  0  0  0
    5.9545  -20.4600   19.1882 C   0  0  0  0  0  0  0  0  0  0  0  0
    4.7246  -20.4376   20.0367 C   0  0  0  0  0  0  0  0  0  0  0  0
    4.8940  -19.1487   20.8190 C   0  0  0  0  0  0  0  0  0  0  0  0
    5.6843  -18.2558   19.8861 C   0  0  1  0  0  0  0  0  0  0  0  0
    6.7585  -17.5357   20.6576 C   0  0  0  0  0  0  0  0  0  0  0  0
    7.9060  -18.0406   20.7480 O   0  0  0  0  0  0  0  0  0  0  0  0
    7.3466  -11.9908   20.7214 C   0  0  0  0  0  0  0  0  0  0  0  0
    7.7081  -13.4440   20.6813 C   0  0  0  0  0  0  0  0  0  0  0  0
    7.4500  -14.1427   21.9718 C   0  0  2  0  0  0  0  0  0  0  0  0
    8.5279  -13.5761   22.9324 C   0  0  0  0  0  0  0  0  0  0  0  0
    7.5679  -15.6266   21.9782 C   0  0  2  0  0  0  0  0  0  0  0  0
    6.4735  -16.2875   21.2817 N   0  0  0  0  0  0  0  0  0  0  0  0
    7.5027  -16.1714   23.3587 C   0  0  0  0  0  0  0  0  0  0  0  0
    6.4212  -15.9444   24.0135 O   0  0  0  0  0  0  0  0  0  0  0  0
    8.4687  -16.9085   24.0407 N   0  0  0  0  0  0  0  0  0  0  0  0
    8.1911  -17.3951   25.4377 C   0  0  1  0  0  0  0  0  0  0  0  0
    8.3883  -18.8700   25.3421 C   0  0  0  0  0  0  0  0  0  0  0  0
    8.2905  -19.6255   26.5929 C   0  0  0  0  0  0  0  0  0  0  0  0
    7.9858  -19.2935   27.8851 C   0  0  0  0  0  0  0  0  0  0  0  0
    7.9882  -20.4064   28.6539 N   0  0  0  0  0  0  0  0  0  0  0  0
    8.2883  -21.4172   27.8547 C   0  0  0  0  0  0  0  0  0  0  0  0
    8.4771  -20.9828   26.6032 N   0  0  0  0  0  0  0  0  0  0  0  0
    9.2246  -16.7243   26.2543 C   0  0  0  0  0  0  0  0  0  0  0  0
    9.1370  -16.5916   27.6154 O   0  0  0  0  0  0  0  0  0  0  0  0
   10.2421  -16.2441   25.7039 O   0  0  0  0  0  0  0  0  0  0  0  0
  2  1  1  0
  3  2  1  0
  4  3  1  0
  4  5  1  0
  5  1  1  0
  5  6  1  1
  6  7  2  0
  9  8  1  0
  9 10  1  0
 10 11  1  1
 12 10  1  0
 13  6  1  0
 12 13  1  6
 14 12  1  0
 14 15  2  0
 16 14  1  0
 17 16  1  0
 18 19  1  0
 17 18  1  6
 19 23  1  0
 20 21  1  0
 20 19  2  0
 21 22  1  0
 22 23  2  0
 24 17  1  0
 24 25  1  0
 26 24  2  0
M  END
$$$$
