PIH.pdb
     RDKit          3D

 26 27  0  0  1  0  0  0  0  0999 V2000
    7.5944  -14.8042   20.4242 N   0  0  0  0  0  0  0  0  0  0  0  0
    7.8887  -15.9742   19.6391 C   0  0  0  0  0  0  0  0  0  0  0  0
    6.8882  -17.0169   20.0198 C   0  0  0  0  0  0  0  0  0  0  0  0
    6.6287  -16.6991   21.4805 C   0  0  0  0  0  0  0  0  0  0  0  0
    6.8492  -15.2042   21.5743 C   0  0  1  0  0  0  0  0  0  0  0  0
    7.6360  -14.8816   22.8170 C   0  0  0  0  0  0  0  0  0  0  0  0
    8.8754  -14.6883   22.7376 O   0  0  0  0  0  0  0  0  0  0  0  0
    7.2413  -11.3285   25.8004 C   0  0  0  0  0  0  0  0  0  0  0  0
    6.2952  -12.4786   25.9620 C   0  0  0  0  0  0  0  0  0  0  0  0
    6.9850  -13.7552   26.3006 C   0  0  2  0  0  0  0  0  0  0  0  0
    7.9576  -13.3690   27.4454 C   0  0  0  0  0  0  0  0  0  0  0  0
    7.7823  -14.4046   25.2243 C   0  0  2  0  0  0  0  0  0  0  0  0
    6.9767  -14.7964   24.0767 N   0  0  0  0  0  0  0  0  0  0  0  0
    8.3930  -15.6757   25.6915 C   0  0  0  0  0  0  0  0  0  0  0  0
    7.5804  -16.6123   26.0264 O   0  0  0  0  0  0  0  0  0  0  0  0
    9.7455  -15.9896   25.8095 N   0  0  0  0  0  0  0  0  0  0  0  0
   10.1581  -17.3635   26.2651 C   0  0  1  0  0  0  0  0  0  0  0  0
   11.4731  -17.5761   25.5950 C   0  0  0  0  0  0  0  0  0  0  0  0
   11.4577  -17.6480   24.1323 C   0  0  0  0  0  0  0  0  0  0  0  0
   10.5587  -18.1118   23.2105 C   0  0  0  0  0  0  0  0  0  0  0  0
   11.0285  -17.8860   21.9625 N   0  0  0  0  0  0  0  0  0  0  0  0
   12.2013  -17.2898   22.1023 C   0  0  0  0  0  0  0  0  0  0  0  0
   12.4922  -17.1298   23.3985 N   0  0  0  0  0  0  0  0  0  0  0  0
   10.2714  -17.2266   27.7326 C   0  0  0  0  0  0  0  0  0  0  0  0
   10.3126  -16.0158   28.3729 O   0  0  0  0  0  0  0  0  0  0  0  0
   10.3344  -18.2493   28.4529 O   0  0  0  0  0  0  0  0  0  0  0  0
  2  1  1  0
  3  2  1  0
  4  3  1  0
  4  5  1  0
  5  1  1  0
  5  6  1  1
  6  7  2  0
  9  8  1  0
  9 10  1  0
 10 11  1  1
 12 10  1  0
 13  6  1  0
 12 13  1  6
 14 12  1  0
 14 15  2  0
 16 14  1  0
 17 16  1  0
 18 19  1  0
 17 18  1  6
 19 23  1  0
 20 21  1  0
 20 19  2  0
 21 22  1  0
 22 23  2  0
 24 17  1  0
 24 25  1  0
 26 24  2  0
M  END
$$$$
