PIH.pdb
     RDKit          3D

 26 27  0  0  1  0  0  0  0  0999 V2000
    6.9851  -14.8002   20.7178 N   0  0  0  0  0  0  0  0  0  0  0  0
    6.1974  -13.7851   20.0689 C   0  0  0  0  0  0  0  0  0  0  0  0
    7.1363  -12.9671   19.2429 C   0  0  0  0  0  0  0  0  0  0  0  0
    8.4171  -13.0260   20.0541 C   0  0  0  0  0  0  0  0  0  0  0  0
    8.3445  -14.3656   20.7557 C   0  0  1  0  0  0  0  0  0  0  0  0
    8.7816  -14.2152   22.1888 C   0  0  0  0  0  0  0  0  0  0  0  0
    9.9963  -14.0309   22.4540 O   0  0  0  0  0  0  0  0  0  0  0  0
    5.6321  -11.9208   26.2063 C   0  0  0  0  0  0  0  0  0  0  0  0
    6.7955  -12.2704   25.3299 C   0  0  0  0  0  0  0  0  0  0  0  0
    7.2962  -13.6558   25.5541 C   0  0  2  0  0  0  0  0  0  0  0  0
    7.9428  -13.6024   26.9629 C   0  0  0  0  0  0  0  0  0  0  0  0
    8.3174  -14.1731   24.6026 C   0  0  2  0  0  0  0  0  0  0  0  0
    7.8210  -14.2818   23.2384 N   0  0  0  0  0  0  0  0  0  0  0  0
    8.7332  -15.5563   24.9501 C   0  0  0  0  0  0  0  0  0  0  0  0
    7.8497  -16.4758   24.7956 O   0  0  0  0  0  0  0  0  0  0  0  0
    9.9703  -15.9917   25.4209 N   0  0  0  0  0  0  0  0  0  0  0  0
   10.1834  -17.4495   25.7287 C   0  0  1  0  0  0  0  0  0  0  0  0
   11.4026  -17.7999   24.9450 C   0  0  0  0  0  0  0  0  0  0  0  0
   11.9872  -19.1184   25.1994 C   0  0  0  0  0  0  0  0  0  0  0  0
   11.6535  -20.1679   26.0118 C   0  0  0  0  0  0  0  0  0  0  0  0
   12.5206  -21.1876   25.8177 N   0  0  0  0  0  0  0  0  0  0  0  0
   13.3812  -20.7822   24.8982 C   0  0  0  0  0  0  0  0  0  0  0  0
   13.0894  -19.5378   24.5021 N   0  0  0  0  0  0  0  0  0  0  0  0
   10.4083  -17.4699   27.1895 C   0  0  0  0  0  0  0  0  0  0  0  0
   10.2836  -18.6013   27.9527 O   0  0  0  0  0  0  0  0  0  0  0  0
   10.7302  -16.4175   27.7874 O   0  0  0  0  0  0  0  0  0  0  0  0
  2  1  1  0
  3  2  1  0
  4  3  1  0
  4  5  1  0
  5  1  1  0
  5  6  1  1
  6  7  2  0
  9  8  1  0
  9 10  1  0
 10 11  1  1
 12 10  1  0
 13  6  1  0
 12 13  1  6
 14 12  1  0
 14 15  2  0
 16 14  1  0
 17 16  1  0
 18 19  1  0
 17 18  1  6
 19 23  1  0
 20 21  1  0
 20 19  2  0
 21 22  1  0
 22 23  2  0
 24 17  1  0
 24 25  1  0
 26 24  2  0
M  END
$$$$
