PIH.pdb
     RDKit          3D

 26 27  0  0  1  0  0  0  0  0999 V2000
    7.1461  -15.3262   21.1340 N   0  0  0  0  0  0  0  0  0  0  0  0
    6.3745  -14.3926   20.3563 C   0  0  0  0  0  0  0  0  0  0  0  0
    7.3330  -13.6714   19.4652 C   0  0  0  0  0  0  0  0  0  0  0  0
    8.5944  -13.6354   20.3076 C   0  0  0  0  0  0  0  0  0  0  0  0
    8.5045  -14.8872   21.1543 C   0  0  1  0  0  0  0  0  0  0  0  0
    8.9079  -14.5748   22.5710 C   0  0  0  0  0  0  0  0  0  0  0  0
   10.1040  -14.2880   22.8299 O   0  0  0  0  0  0  0  0  0  0  0  0
    5.8628  -11.7026   26.1184 C   0  0  0  0  0  0  0  0  0  0  0  0
    6.9910  -12.2779   25.3183 C   0  0  0  0  0  0  0  0  0  0  0  0
    7.4211  -13.6200   25.8021 C   0  0  2  0  0  0  0  0  0  0  0  0
    8.0801  -13.3346   27.1768 C   0  0  0  0  0  0  0  0  0  0  0  0
    8.4072  -14.3605   24.9684 C   0  0  2  0  0  0  0  0  0  0  0  0
    7.9367  -14.6047   23.6125 N   0  0  0  0  0  0  0  0  0  0  0  0
    8.6692  -15.7177   25.5127 C   0  0  0  0  0  0  0  0  0  0  0  0
    7.6543  -16.4977   25.6196 O   0  0  0  0  0  0  0  0  0  0  0  0
    9.8850  -16.2624   25.9212 N   0  0  0  0  0  0  0  0  0  0  0  0
    9.9236  -17.6433   26.5186 C   0  0  1  0  0  0  0  0  0  0  0  0
   11.0549  -18.3033   25.8058 C   0  0  0  0  0  0  0  0  0  0  0  0
   11.5289  -19.5716   26.3641 C   0  0  0  0  0  0  0  0  0  0  0  0
   11.0935  -20.3922   27.3692 C   0  0  0  0  0  0  0  0  0  0  0  0
   11.8841  -21.4874   27.4375 N   0  0  0  0  0  0  0  0  0  0  0  0
   12.7977  -21.3538   26.4899 C   0  0  0  0  0  0  0  0  0  0  0  0
   12.6136  -20.2091   25.8219 N   0  0  0  0  0  0  0  0  0  0  0  0
   10.2044  -17.3986   27.9491 C   0  0  0  0  0  0  0  0  0  0  0  0
   10.7231  -16.2215   28.4218 O   0  0  0  0  0  0  0  0  0  0  0  0
    9.9667  -18.2915   28.7947 O   0  0  0  0  0  0  0  0  0  0  0  0
  2  1  1  0
  3  2  1  0
  4  3  1  0
  4  5  1  0
  5  1  1  0
  5  6  1  1
  6  7  2  0
  9  8  1  0
  9 10  1  0
 10 11  1  1
 12 10  1  0
 13  6  1  0
 12 13  1  6
 14 12  1  0
 14 15  2  0
 16 14  1  0
 17 16  1  0
 18 19  1  0
 17 18  1  6
 19 23  1  0
 20 21  1  0
 20 19  2  0
 21 22  1  0
 22 23  2  0
 24 17  1  0
 24 25  1  0
 26 24  2  0
M  END
$$$$
