PIH.pdb
     RDKit          3D

 26 27  0  0  1  0  0  0  0  0999 V2000
    9.2976  -18.2869   16.2469 N   0  0  0  0  0  0  0  0  0  0  0  0
    9.4586  -19.7160   16.3083 C   0  0  0  0  0  0  0  0  0  0  0  0
    8.2134  -20.2684   16.9226 C   0  0  0  0  0  0  0  0  0  0  0  0
    7.7994  -19.1582   17.8702 C   0  0  0  0  0  0  0  0  0  0  0  0
    8.3127  -17.8989   17.2048 C   0  0  1  0  0  0  0  0  0  0  0  0
    8.9434  -16.9989   18.2341 C   0  0  0  0  0  0  0  0  0  0  0  0
   10.1931  -16.8686   18.2665 O   0  0  0  0  0  0  0  0  0  0  0  0
    6.5278  -12.2463   20.1482 C   0  0  0  0  0  0  0  0  0  0  0  0
    7.6171  -13.1465   19.6511 C   0  0  0  0  0  0  0  0  0  0  0  0
    7.8845  -14.2937   20.5637 C   0  0  2  0  0  0  0  0  0  0  0  0
    8.5543  -13.6447   21.8030 C   0  0  0  0  0  0  0  0  0  0  0  0
    8.7899  -15.3645   20.0641 C   0  0  2  0  0  0  0  0  0  0  0  0
    8.1256  -16.2986   19.1666 N   0  0  0  0  0  0  0  0  0  0  0  0
    9.2877  -16.2173   21.1740 C   0  0  0  0  0  0  0  0  0  0  0  0
    8.4688  -17.0929   21.6350 O   0  0  0  0  0  0  0  0  0  0  0  0
   10.5412  -16.1951   21.7822 N   0  0  0  0  0  0  0  0  0  0  0  0
   10.9635  -17.3359   22.6685 C   0  0  1  0  0  0  0  0  0  0  0  0
   11.6241  -18.2859   21.7280 C   0  0  0  0  0  0  0  0  0  0  0  0
   10.8916  -19.5159   21.4190 C   0  0  0  0  0  0  0  0  0  0  0  0
    9.7163  -20.0612   21.8596 C   0  0  0  0  0  0  0  0  0  0  0  0
    9.4717  -21.2137   21.1954 N   0  0  0  0  0  0  0  0  0  0  0  0
   10.4772  -21.3850   20.3528 C   0  0  0  0  0  0  0  0  0  0  0  0
   11.3530  -20.3791   20.4602 N   0  0  0  0  0  0  0  0  0  0  0  0
   11.9079  -16.7107   23.6183 C   0  0  0  0  0  0  0  0  0  0  0  0
   12.3220  -15.4082   23.5178 O   0  0  0  0  0  0  0  0  0  0  0  0
   12.3691  -17.3784   24.5724 O   0  0  0  0  0  0  0  0  0  0  0  0
  2  1  1  0
  3  2  1  0
  4  3  1  0
  4  5  1  0
  5  1  1  0
  5  6  1  1
  6  7  2  0
  9  8  1  0
  9 10  1  0
 10 11  1  1
 12 10  1  0
 13  6  1  0
 12 13  1  6
 14 12  1  0
 14 15  2  0
 16 14  1  0
 17 16  1  0
 18 19  1  0
 17 18  1  6
 19 23  1  0
 20 21  1  0
 20 19  2  0
 21 22  1  0
 22 23  2  0
 24 17  1  0
 24 25  1  0
 26 24  2  0
M  END
$$$$
