PIH.pdb
     RDKit          3D

 26 27  0  0  1  0  0  0  0  0999 V2000
    7.9640  -14.9540   20.0317 N   0  0  0  0  0  0  0  0  0  0  0  0
    8.1122  -16.2265   19.3753 C   0  0  0  0  0  0  0  0  0  0  0  0
    6.9391  -17.0616   19.7745 C   0  0  0  0  0  0  0  0  0  0  0  0
    6.6519  -16.5664   21.1796 C   0  0  0  0  0  0  0  0  0  0  0  0
    7.1014  -15.1209   21.1570 C   0  0  1  0  0  0  0  0  0  0  0  0
    7.8586  -14.8024   22.4191 C   0  0  0  0  0  0  0  0  0  0  0  0
    9.1110  -14.7021   22.3862 O   0  0  0  0  0  0  0  0  0  0  0  0
    5.7762  -11.4199   26.3100 C   0  0  0  0  0  0  0  0  0  0  0  0
    6.6944  -12.0799   25.3276 C   0  0  0  0  0  0  0  0  0  0  0  0
    7.1733  -13.4144   25.7859 C   0  0  2  0  0  0  0  0  0  0  0  0
    8.1114  -13.0921   26.9782 C   0  0  0  0  0  0  0  0  0  0  0  0
    7.9416  -14.2343   24.8095 C   0  0  2  0  0  0  0  0  0  0  0  0
    7.1566  -14.6158   23.6443 N   0  0  0  0  0  0  0  0  0  0  0  0
    8.3666  -15.5287   25.4018 C   0  0  0  0  0  0  0  0  0  0  0  0
    7.4305  -16.3532   25.7081 O   0  0  0  0  0  0  0  0  0  0  0  0
    9.6611  -15.9719   25.6658 N   0  0  0  0  0  0  0  0  0  0  0  0
    9.8798  -17.3484   26.2337 C   0  0  1  0  0  0  0  0  0  0  0  0
   11.1612  -17.7868   25.6097 C   0  0  0  0  0  0  0  0  0  0  0  0
   11.1534  -17.9656   24.1561 C   0  0  0  0  0  0  0  0  0  0  0  0
   10.1779  -18.2340   23.2345 C   0  0  0  0  0  0  0  0  0  0  0  0
   10.7148  -18.2446   21.9931 N   0  0  0  0  0  0  0  0  0  0  0  0
   12.0044  -17.9860   22.1369 C   0  0  0  0  0  0  0  0  0  0  0  0
   12.3044  -17.8118   23.4292 N   0  0  0  0  0  0  0  0  0  0  0  0
    9.9949  -17.1131   27.6885 C   0  0  0  0  0  0  0  0  0  0  0  0
   10.0099  -18.1238   28.6137 O   0  0  0  0  0  0  0  0  0  0  0  0
   10.0853  -15.9436   28.1275 O   0  0  0  0  0  0  0  0  0  0  0  0
  2  1  1  0
  3  2  1  0
  4  3  1  0
  4  5  1  0
  5  1  1  0
  5  6  1  1
  6  7  2  0
  9  8  1  0
  9 10  1  0
 10 11  1  1
 12 10  1  0
 13  6  1  0
 12 13  1  6
 14 12  1  0
 14 15  2  0
 16 14  1  0
 17 16  1  0
 18 19  1  0
 17 18  1  6
 19 23  1  0
 20 21  1  0
 20 19  2  0
 21 22  1  0
 22 23  2  0
 24 17  1  0
 24 25  1  0
 26 24  2  0
M  END
$$$$
