PIH.pdb
     RDKit          3D

 26 27  0  0  1  0  0  0  0  0999 V2000
    7.0602  -15.1367   20.9750 N   0  0  0  0  0  0  0  0  0  0  0  0
    6.3489  -14.1208   20.2443 C   0  0  0  0  0  0  0  0  0  0  0  0
    7.3408  -13.4554   19.3462 C   0  0  0  0  0  0  0  0  0  0  0  0
    8.6220  -13.5475   20.1537 C   0  0  0  0  0  0  0  0  0  0  0  0
    8.4504  -14.8116   20.9690 C   0  0  1  0  0  0  0  0  0  0  0  0
    8.9145  -14.5744   22.3817 C   0  0  0  0  0  0  0  0  0  0  0  0
   10.1263  -14.3279   22.6068 O   0  0  0  0  0  0  0  0  0  0  0  0
    5.8592  -11.7139   25.9436 C   0  0  0  0  0  0  0  0  0  0  0  0
    6.9295  -12.3043   25.0776 C   0  0  0  0  0  0  0  0  0  0  0  0
    7.4773  -13.5798   25.6192 C   0  0  2  0  0  0  0  0  0  0  0  0
    8.1710  -13.1634   26.9425 C   0  0  0  0  0  0  0  0  0  0  0  0
    8.4792  -14.2989   24.7856 C   0  0  2  0  0  0  0  0  0  0  0  0
    7.9827  -14.6294   23.4575 N   0  0  0  0  0  0  0  0  0  0  0  0
    8.8367  -15.6135   25.3782 C   0  0  0  0  0  0  0  0  0  0  0  0
    7.9040  -16.4956   25.4196 O   0  0  0  0  0  0  0  0  0  0  0  0
   10.0652  -16.0203   25.8947 N   0  0  0  0  0  0  0  0  0  0  0  0
   10.2441  -17.4359   26.3736 C   0  0  1  0  0  0  0  0  0  0  0  0
   11.6370  -17.7732   25.9617 C   0  0  0  0  0  0  0  0  0  0  0  0
   11.8819  -17.8968   24.5231 C   0  0  0  0  0  0  0  0  0  0  0  0
   11.0929  -17.7917   23.4098 C   0  0  0  0  0  0  0  0  0  0  0  0
   11.8491  -17.9481   22.2994 N   0  0  0  0  0  0  0  0  0  0  0  0
   13.0904  -18.1465   22.7122 C   0  0  0  0  0  0  0  0  0  0  0  0
   13.1474  -18.1216   24.0489 N   0  0  0  0  0  0  0  0  0  0  0  0
   10.0825  -17.3331   27.8393 C   0  0  0  0  0  0  0  0  0  0  0  0
    9.9723  -18.4242   28.6610 O   0  0  0  0  0  0  0  0  0  0  0  0
   10.0413  -16.2071   28.3864 O   0  0  0  0  0  0  0  0  0  0  0  0
  2  1  1  0
  3  2  1  0
  4  3  1  0
  4  5  1  0
  5  1  1  0
  5  6  1  1
  6  7  2  0
  9  8  1  0
  9 10  1  0
 10 11  1  1
 12 10  1  0
 13  6  1  0
 12 13  1  6
 14 12  1  0
 14 15  2  0
 16 14  1  0
 17 16  1  0
 18 19  1  0
 17 18  1  1
 19 23  1  0
 20 21  1  0
 20 19  2  0
 21 22  1  0
 22 23  2  0
 24 17  1  0
 24 25  1  0
 26 24  2  0
M  END
$$$$
