PIH.pdb
     RDKit          3D

 26 27  0  0  1  0  0  0  0  0999 V2000
    8.7784  -17.0714   17.6436 N   0  0  0  0  0  0  0  0  0  0  0  0
    9.1674  -18.3842   17.1994 C   0  0  0  0  0  0  0  0  0  0  0  0
    8.2373  -19.3569   17.8490 C   0  0  0  0  0  0  0  0  0  0  0  0
    7.9326  -18.6798   19.1722 C   0  0  0  0  0  0  0  0  0  0  0  0
    8.0451  -17.2024   18.8615 C   0  0  1  0  0  0  0  0  0  0  0  0
    8.7871  -16.5032   19.9696 C   0  0  0  0  0  0  0  0  0  0  0  0
   10.0086  -16.2403   19.8330 O   0  0  0  0  0  0  0  0  0  0  0  0
    7.7055  -12.7701   24.7591 C   0  0  0  0  0  0  0  0  0  0  0  0
    8.6514  -13.6807   24.0379 C   0  0  0  0  0  0  0  0  0  0  0  0
    7.9990  -14.4403   22.9344 C   0  0  2  0  0  0  0  0  0  0  0  0
    6.9050  -15.2786   23.6458 C   0  0  0  0  0  0  0  0  0  0  0  0
    8.8541  -15.3751   22.1530 C   0  0  2  0  0  0  0  0  0  0  0  0
    8.1059  -16.1418   21.1672 N   0  0  0  0  0  0  0  0  0  0  0  0
    9.4701  -16.4073   23.0259 C   0  0  0  0  0  0  0  0  0  0  0  0
    8.7484  -17.4354   23.2942 O   0  0  0  0  0  0  0  0  0  0  0  0
   10.7431  -16.4085   23.5926 N   0  0  0  0  0  0  0  0  0  0  0  0
   11.3068  -17.6815   24.1645 C   0  0  1  0  0  0  0  0  0  0  0  0
   12.7006  -17.7177   23.6359 C   0  0  0  0  0  0  0  0  0  0  0  0
   13.5858  -18.7418   24.1949 C   0  0  0  0  0  0  0  0  0  0  0  0
   13.4112  -19.7743   25.0760 C   0  0  0  0  0  0  0  0  0  0  0  0
   14.5697  -20.4594   25.2101 N   0  0  0  0  0  0  0  0  0  0  0  0
   15.4532  -19.8652   24.4247 C   0  0  0  0  0  0  0  0  0  0  0  0
   14.8940  -18.8247   23.7962 N   0  0  0  0  0  0  0  0  0  0  0  0
   11.2470  -17.4659   25.6256 C   0  0  0  0  0  0  0  0  0  0  0  0
   11.0471  -16.2358   26.1955 O   0  0  0  0  0  0  0  0  0  0  0  0
   11.3817  -18.4356   26.4068 O   0  0  0  0  0  0  0  0  0  0  0  0
  2  1  1  0
  3  2  1  0
  4  3  1  0
  4  5  1  0
  5  1  1  0
  5  6  1  1
  6  7  2  0
  9  8  1  0
  9 10  1  0
 10 11  1  1
 12 10  1  0
 13  6  1  0
 12 13  1  6
 14 12  1  0
 14 15  2  0
 16 14  1  0
 17 16  1  0
 18 19  1  0
 17 18  1  6
 19 23  1  0
 20 21  1  0
 20 19  2  0
 21 22  1  0
 22 23  2  0
 24 17  1  0
 24 25  1  0
 26 24  2  0
M  END
$$$$
