PIH.pdb
     RDKit          3D

 26 27  0  0  1  0  0  0  0  0999 V2000
    7.0858  -15.0513   20.9441 N   0  0  0  0  0  0  0  0  0  0  0  0
    6.2929  -14.0658   20.2571 C   0  0  0  0  0  0  0  0  0  0  0  0
    7.2267  -13.2794   19.3953 C   0  0  0  0  0  0  0  0  0  0  0  0
    8.5102  -13.3013   20.2041 C   0  0  0  0  0  0  0  0  0  0  0  0
    8.4439  -14.6114   20.9599 C   0  0  1  0  0  0  0  0  0  0  0  0
    8.8850  -14.4015   22.3843 C   0  0  0  0  0  0  0  0  0  0  0  0
   10.0691  -14.0562   22.6258 O   0  0  0  0  0  0  0  0  0  0  0  0
    6.0424  -11.6911   26.1442 C   0  0  0  0  0  0  0  0  0  0  0  0
    7.1342  -12.2687   25.2966 C   0  0  0  0  0  0  0  0  0  0  0  0
    7.4863  -13.6661   25.6756 C   0  0  2  0  0  0  0  0  0  0  0  0
    8.1210  -13.5290   27.0841 C   0  0  0  0  0  0  0  0  0  0  0  0
    8.4578  -14.3834   24.8052 C   0  0  2  0  0  0  0  0  0  0  0  0
    7.9627  -14.5939   23.4525 N   0  0  0  0  0  0  0  0  0  0  0  0
    8.7317  -15.7535   25.3100 C   0  0  0  0  0  0  0  0  0  0  0  0
    7.7354  -16.5638   25.3367 O   0  0  0  0  0  0  0  0  0  0  0  0
    9.9413  -16.2812   25.7573 N   0  0  0  0  0  0  0  0  0  0  0  0
   10.0205  -17.7265   26.1701 C   0  0  1  0  0  0  0  0  0  0  0  0
   11.2804  -18.2057   25.5327 C   0  0  0  0  0  0  0  0  0  0  0  0
   11.2726  -18.3199   24.0726 C   0  0  0  0  0  0  0  0  0  0  0  0
   10.3203  -18.1334   23.1075 C   0  0  0  0  0  0  0  0  0  0  0  0
   10.8670  -18.3255   21.8854 N   0  0  0  0  0  0  0  0  0  0  0  0
   12.1401  -18.6260   22.0837 C   0  0  0  0  0  0  0  0  0  0  0  0
   12.4202  -18.6314   23.3922 N   0  0  0  0  0  0  0  0  0  0  0  0
   10.1042  -17.6657   27.6446 C   0  0  0  0  0  0  0  0  0  0  0  0
   10.0057  -18.7711   28.4485 O   0  0  0  0  0  0  0  0  0  0  0  0
   10.2736  -16.5642   28.2164 O   0  0  0  0  0  0  0  0  0  0  0  0
  2  1  1  0
  3  2  1  0
  4  3  1  0
  4  5  1  0
  5  1  1  0
  5  6  1  1
  6  7  2  0
  9  8  1  0
  9 10  1  0
 10 11  1  1
 12 10  1  0
 13  6  1  0
 12 13  1  6
 14 12  1  0
 14 15  2  0
 16 14  1  0
 17 16  1  0
 18 19  1  0
 17 18  1  6
 19 23  1  0
 20 21  1  0
 20 19  2  0
 21 22  1  0
 22 23  2  0
 24 17  1  0
 24 25  1  0
 26 24  2  0
M  END
$$$$
