PIH.pdb
     RDKit          3D

 26 27  0  0  1  0  0  0  0  0999 V2000
    7.8780  -15.1351   19.8166 N   0  0  0  0  0  0  0  0  0  0  0  0
    7.9728  -16.4284   19.1918 C   0  0  0  0  0  0  0  0  0  0  0  0
    6.8156  -17.2356   19.6840 C   0  0  0  0  0  0  0  0  0  0  0  0
    6.6170  -16.6950   21.0877 C   0  0  0  0  0  0  0  0  0  0  0  0
    7.0810  -15.2569   20.9948 C   0  0  1  0  0  0  0  0  0  0  0  0
    7.9145  -14.9110   22.2003 C   0  0  0  0  0  0  0  0  0  0  0  0
    9.1672  -14.8767   22.1031 O   0  0  0  0  0  0  0  0  0  0  0  0
    7.3478  -11.6455   27.3893 C   0  0  0  0  0  0  0  0  0  0  0  0
    8.1521  -12.6115   26.5743 C   0  0  0  0  0  0  0  0  0  0  0  0
    7.4077  -13.1377   25.3956 C   0  0  2  0  0  0  0  0  0  0  0  0
    6.1931  -13.8784   26.0135 C   0  0  0  0  0  0  0  0  0  0  0  0
    8.1243  -14.0960   24.5102 C   0  0  2  0  0  0  0  0  0  0  0  0
    7.2842  -14.6242   23.4449 N   0  0  0  0  0  0  0  0  0  0  0  0
    8.5654  -15.3017   25.2577 C   0  0  0  0  0  0  0  0  0  0  0  0
    7.6671  -16.1884   25.4957 O   0  0  0  0  0  0  0  0  0  0  0  0
    9.8400  -15.6018   25.7341 N   0  0  0  0  0  0  0  0  0  0  0  0
   10.1360  -16.9791   26.2641 C   0  0  1  0  0  0  0  0  0  0  0  0
   11.4990  -17.2737   25.7360 C   0  0  0  0  0  0  0  0  0  0  0  0
   11.5855  -17.6538   24.3243 C   0  0  0  0  0  0  0  0  0  0  0  0
   10.6646  -17.8348   23.3282 C   0  0  0  0  0  0  0  0  0  0  0  0
   11.2978  -18.1396   22.1725 N   0  0  0  0  0  0  0  0  0  0  0  0
   12.5931  -18.1478   22.4420 C   0  0  0  0  0  0  0  0  0  0  0  0
   12.8035  -17.8584   23.7314 N   0  0  0  0  0  0  0  0  0  0  0  0
   10.1091  -16.8031   27.7315 C   0  0  0  0  0  0  0  0  0  0  0  0
   10.0493  -17.8511   28.6124 O   0  0  0  0  0  0  0  0  0  0  0  0
   10.1418  -15.6520   28.2239 O   0  0  0  0  0  0  0  0  0  0  0  0
  2  1  1  0
  3  2  1  0
  4  3  1  0
  4  5  1  0
  5  1  1  0
  5  6  1  1
  6  7  2  0
  9  8  1  0
  9 10  1  0
 10 11  1  1
 12 10  1  0
 13  6  1  0
 12 13  1  6
 14 12  1  0
 14 15  2  0
 16 14  1  0
 17 16  1  0
 18 19  1  0
 17 18  1  6
 19 23  1  0
 20 21  1  0
 20 19  2  0
 21 22  1  0
 22 23  2  0
 24 17  1  0
 24 25  1  0
 26 24  2  0
M  END
$$$$
