PIH.pdb
     RDKit          3D

 26 27  0  0  1  0  0  0  0  0999 V2000
    9.1782  -18.1198   16.2798 N   0  0  0  0  0  0  0  0  0  0  0  0
    9.4011  -19.5362   16.1533 C   0  0  0  0  0  0  0  0  0  0  0  0
    8.2237  -20.2191   16.7700 C   0  0  0  0  0  0  0  0  0  0  0  0
    7.8295  -19.2535   17.8719 C   0  0  0  0  0  0  0  0  0  0  0  0
    8.2450  -17.8993   17.3376 C   0  0  1  0  0  0  0  0  0  0  0  0
    8.9064  -17.1011   18.4297 C   0  0  0  0  0  0  0  0  0  0  0  0
   10.1583  -16.9915   18.4510 O   0  0  0  0  0  0  0  0  0  0  0  0
    6.7803  -12.2400   20.2949 C   0  0  0  0  0  0  0  0  0  0  0  0
    7.7422  -13.2769   19.8013 C   0  0  0  0  0  0  0  0  0  0  0  0
    7.9117  -14.4116   20.7521 C   0  0  2  0  0  0  0  0  0  0  0  0
    8.5529  -13.7630   22.0066 C   0  0  0  0  0  0  0  0  0  0  0  0
    8.7874  -15.5357   20.3216 C   0  0  2  0  0  0  0  0  0  0  0  0
    8.1150  -16.4733   19.4338 N   0  0  0  0  0  0  0  0  0  0  0  0
    9.2112  -16.3681   21.4768 C   0  0  0  0  0  0  0  0  0  0  0  0
    8.3019  -17.0895   22.0270 O   0  0  0  0  0  0  0  0  0  0  0  0
   10.4798  -16.4739   22.0433 N   0  0  0  0  0  0  0  0  0  0  0  0
   10.7328  -17.4849   23.1293 C   0  0  1  0  0  0  0  0  0  0  0  0
   12.0066  -18.1380   22.7120 C   0  0  0  0  0  0  0  0  0  0  0  0
   11.9173  -19.1050   21.6157 C   0  0  0  0  0  0  0  0  0  0  0  0
   10.9616  -19.9944   21.2052 C   0  0  0  0  0  0  0  0  0  0  0  0
   11.3755  -20.6206   20.0801 N   0  0  0  0  0  0  0  0  0  0  0  0
   12.5697  -20.1295   19.7918 C   0  0  0  0  0  0  0  0  0  0  0  0
   12.9283  -19.2120   20.6973 N   0  0  0  0  0  0  0  0  0  0  0  0
   10.8766  -16.6611   24.3483 C   0  0  0  0  0  0  0  0  0  0  0  0
   10.8118  -17.1780   25.6157 O   0  0  0  0  0  0  0  0  0  0  0  0
   11.0684  -15.4273   24.2501 O   0  0  0  0  0  0  0  0  0  0  0  0
  2  1  1  0
  3  2  1  0
  4  3  1  0
  4  5  1  0
  5  1  1  0
  5  6  1  1
  6  7  2  0
  9  8  1  0
  9 10  1  0
 10 11  1  1
 12 10  1  0
 13  6  1  0
 12 13  1  6
 14 12  1  0
 14 15  2  0
 16 14  1  0
 17 16  1  0
 18 19  1  0
 17 18  1  6
 19 23  1  0
 20 21  1  0
 20 19  2  0
 21 22  1  0
 22 23  2  0
 24 17  1  0
 24 25  1  0
 26 24  2  0
M  END
$$$$
