PIH.pdb
     RDKit          3D

 26 27  0  0  1  0  0  0  0  0999 V2000
    7.0606  -15.1068   20.9748 N   0  0  0  0  0  0  0  0  0  0  0  0
    6.2851  -14.1260   20.2616 C   0  0  0  0  0  0  0  0  0  0  0  0
    7.2339  -13.3738   19.3857 C   0  0  0  0  0  0  0  0  0  0  0  0
    8.5138  -13.3959   20.2001 C   0  0  0  0  0  0  0  0  0  0  0  0
    8.4250  -14.6869   20.9860 C   0  0  1  0  0  0  0  0  0  0  0  0
    8.8638  -14.4503   22.4069 C   0  0  0  0  0  0  0  0  0  0  0  0
   10.0430  -14.0849   22.6426 O   0  0  0  0  0  0  0  0  0  0  0  0
    5.8748  -11.7840   26.1098 C   0  0  0  0  0  0  0  0  0  0  0  0
    6.9477  -12.3488   25.2301 C   0  0  0  0  0  0  0  0  0  0  0  0
    7.4236  -13.6870   25.6804 C   0  0  2  0  0  0  0  0  0  0  0  0
    8.0797  -13.4125   27.0587 C   0  0  0  0  0  0  0  0  0  0  0  0
    8.4291  -14.3753   24.8254 C   0  0  2  0  0  0  0  0  0  0  0  0
    7.9448  -14.6405   23.4783 N   0  0  0  0  0  0  0  0  0  0  0  0
    8.7699  -15.7185   25.3607 C   0  0  0  0  0  0  0  0  0  0  0  0
    7.8058  -16.5631   25.4446 O   0  0  0  0  0  0  0  0  0  0  0  0
   10.0121  -16.1882   25.7826 N   0  0  0  0  0  0  0  0  0  0  0  0
   10.1506  -17.6058   26.2692 C   0  0  1  0  0  0  0  0  0  0  0  0
   11.4447  -18.0550   25.6801 C   0  0  0  0  0  0  0  0  0  0  0  0
   11.5144  -18.1086   24.2182 C   0  0  0  0  0  0  0  0  0  0  0  0
   10.6427  -18.4947   23.2364 C   0  0  0  0  0  0  0  0  0  0  0  0
   11.2036  -18.2893   22.0229 N   0  0  0  0  0  0  0  0  0  0  0  0
   12.4056  -17.7820   22.2431 C   0  0  0  0  0  0  0  0  0  0  0  0
   12.6268  -17.6588   23.5570 N   0  0  0  0  0  0  0  0  0  0  0  0
   10.2007  -17.4680   27.7401 C   0  0  0  0  0  0  0  0  0  0  0  0
   10.2109  -18.5392   28.5946 O   0  0  0  0  0  0  0  0  0  0  0  0
   10.2369  -16.3293   28.2606 O   0  0  0  0  0  0  0  0  0  0  0  0
  2  1  1  0
  3  2  1  0
  4  3  1  0
  4  5  1  0
  5  1  1  0
  5  6  1  1
  6  7  2  0
  9  8  1  0
  9 10  1  0
 10 11  1  1
 12 10  1  0
 13  6  1  0
 12 13  1  6
 14 12  1  0
 14 15  2  0
 16 14  1  0
 17 16  1  0
 18 19  1  0
 17 18  1  6
 19 23  1  0
 20 21  1  0
 20 19  2  0
 21 22  1  0
 22 23  2  0
 24 17  1  0
 24 25  1  0
 26 24  2  0
M  END
$$$$
