LSV.pdb
     RDKit          3D

 22 21  0  0  1  0  0  0  0  0999 V2000
    7.3256  -12.4965   19.3567 C   0  0  0  0  0  0  0  0  0  0  0  0
    7.9175  -13.7581   19.9882 C   0  0  2  0  0  0  0  0  0  0  0  0
    9.4094  -13.6834   20.0189 C   0  0  0  0  0  0  0  0  0  0  0  0
    7.4762  -14.9848   19.2761 C   0  0  0  0  0  0  0  0  0  0  0  0
    7.7766  -16.2240   20.0410 C   0  0  2  0  0  0  0  0  0  0  0  0
    7.3464  -17.3864   19.2616 N   0  0  0  0  0  0  0  0  0  0  0  0
    7.1501  -16.2702   21.3673 C   0  0  0  0  0  0  0  0  0  0  0  0
    5.9236  -16.1071   21.5322 O   0  0  0  0  0  0  0  0  0  0  0  0
    6.4925  -18.7292   23.6960 O   0  0  0  0  0  0  0  0  0  0  0  0
    7.3051  -17.8702   24.4106 C   0  0  0  0  0  0  0  0  0  0  0  0
    7.3318  -16.4782   23.8328 C   0  0  2  0  0  0  0  0  0  0  0  0
    7.9352  -16.5060   22.5231 N   0  0  0  0  0  0  0  0  0  0  0  0
    8.0679  -15.5442   24.7299 C   0  0  0  0  0  0  0  0  0  0  0  0
    9.3301  -15.4644   24.6962 O   0  0  0  0  0  0  0  0  0  0  0  0
    6.1617  -12.2405   25.9316 C   0  0  0  0  0  0  0  0  0  0  0  0
    6.9883  -12.7863   27.0667 C   0  0  2  0  0  0  0  0  0  0  0  0
    7.6434  -11.6674   27.8100 C   0  0  0  0  0  0  0  0  0  0  0  0
    7.9884  -13.7951   26.5396 C   0  0  2  0  0  0  0  0  0  0  0  0
    7.3442  -14.7275   25.6400 N   0  0  0  0  0  0  0  0  0  0  0  0
    8.6246  -14.5316   27.6599 C   0  0  0  0  0  0  0  0  0  0  0  0
    8.2310  -15.6776   28.0173 O   0  0  0  0  0  0  0  0  0  0  0  0
    9.6833  -13.9444   28.3351 O   0  0  0  0  0  0  0  0  0  0  0  0
  2  1  1  6
  2  4  1  0
  2  3  1  0
  4  5  1  0
  5  7  1  0
  5  6  1  6
  7  8  2  0
  9 10  1  0
 11 10  1  1
 11 13  1  0
 12  7  1  0
 12 11  1  0
 13 19  1  0
 13 14  2  0
 16 18  1  0
 16 15  1  6
 17 16  1  0
 18 20  1  0
 18 19  1  6
 20 21  2  0
 20 22  1  0
M  END
$$$$
