LSV.pdb
     RDKit          3D

 22 21  0  0  1  0  0  0  0  0999 V2000
    9.5522  -13.1779   19.4413 C   0  0  0  0  0  0  0  0  0  0  0  0
    8.0407  -13.3931   19.5405 C   0  0  2  0  0  0  0  0  0  0  0  0
    7.3130  -12.0937   19.4211 C   0  0  0  0  0  0  0  0  0  0  0  0
    7.6679  -14.0797   20.8040 C   0  0  0  0  0  0  0  0  0  0  0  0
    8.3005  -15.4195   20.9297 C   0  0  2  0  0  0  0  0  0  0  0  0
    7.6309  -16.3544   20.0234 N   0  0  0  0  0  0  0  0  0  0  0  0
    8.2756  -15.9629   22.2927 C   0  0  0  0  0  0  0  0  0  0  0  0
    7.2110  -16.1545   22.9155 O   0  0  0  0  0  0  0  0  0  0  0  0
   11.2249  -18.4307   23.7940 O   0  0  0  0  0  0  0  0  0  0  0  0
    9.9144  -18.3058   24.2132 C   0  0  0  0  0  0  0  0  0  0  0  0
    9.4573  -16.8708   24.2762 C   0  0  2  0  0  0  0  0  0  0  0  0
    9.4841  -16.2928   22.9550 N   0  0  0  0  0  0  0  0  0  0  0  0
   10.3079  -16.0824   25.2111 C   0  0  0  0  0  0  0  0  0  0  0  0
   11.4335  -15.6326   24.8488 O   0  0  0  0  0  0  0  0  0  0  0  0
    8.7218  -14.2301   28.7400 C   0  0  0  0  0  0  0  0  0  0  0  0
    9.9962  -13.8977   28.0085 C   0  0  2  0  0  0  0  0  0  0  0  0
    9.7144  -12.9463   26.8910 C   0  0  0  0  0  0  0  0  0  0  0  0
   10.6653  -15.1703   27.5308 C   0  0  2  0  0  0  0  0  0  0  0  0
    9.8510  -15.8291   26.5325 N   0  0  0  0  0  0  0  0  0  0  0  0
   10.9097  -16.0893   28.6701 C   0  0  0  0  0  0  0  0  0  0  0  0
   11.7002  -15.7950   29.6105 O   0  0  0  0  0  0  0  0  0  0  0  0
   10.2504  -17.3083   28.7037 O   0  0  0  0  0  0  0  0  0  0  0  0
  2  1  1  1
  2  4  1  0
  2  3  1  0
  4  5  1  0
  5  7  1  0
  5  6  1  6
  7  8  2  0
  9 10  1  0
 11 10  1  6
 11 13  1  0
 12  7  1  0
 12 11  1  0
 13 19  1  0
 13 14  2  0
 16 18  1  0
 16 15  1  6
 17 16  1  0
 18 20  1  0
 18 19  1  6
 20 21  2  0
 20 22  1  0
M  END
$$$$
