LSV.pdb
     RDKit          3D

 22 21  0  0  1  0  0  0  0  0999 V2000
    9.9747  -13.1179   19.1419 C   0  0  0  0  0  0  0  0  0  0  0  0
    8.6698  -13.4730   18.4265 C   0  0  2  0  0  0  0  0  0  0  0  0
    7.9595  -12.2373   17.9787 C   0  0  0  0  0  0  0  0  0  0  0  0
    7.7815  -14.2966   19.2864 C   0  0  0  0  0  0  0  0  0  0  0  0
    8.5090  -15.4093   19.9524 C   0  0  2  0  0  0  0  0  0  0  0  0
    8.4467  -16.6008   19.1038 N   0  0  0  0  0  0  0  0  0  0  0  0
    7.9981  -15.7377   21.2884 C   0  0  0  0  0  0  0  0  0  0  0  0
    6.8265  -15.4839   21.6360 O   0  0  0  0  0  0  0  0  0  0  0  0
   10.1570  -18.1544   24.0555 O   0  0  0  0  0  0  0  0  0  0  0  0
    8.7833  -18.0181   23.9990 C   0  0  0  0  0  0  0  0  0  0  0  0
    8.3520  -16.6381   23.5730 C   0  0  2  0  0  0  0  0  0  0  0  0
    8.8372  -16.3653   22.2424 N   0  0  0  0  0  0  0  0  0  0  0  0
    8.8419  -15.6083   24.5314 C   0  0  0  0  0  0  0  0  0  0  0  0
   10.0475  -15.2249   24.5187 O   0  0  0  0  0  0  0  0  0  0  0  0
    7.6740  -11.8487   27.4307 C   0  0  0  0  0  0  0  0  0  0  0  0
    7.2156  -12.9871   26.5569 C   0  0  2  0  0  0  0  0  0  0  0  0
    5.9675  -13.5921   27.1134 C   0  0  0  0  0  0  0  0  0  0  0  0
    8.3308  -14.0008   26.4009 C   0  0  2  0  0  0  0  0  0  0  0  0
    7.9434  -15.0448   25.4771 N   0  0  0  0  0  0  0  0  0  0  0  0
    8.6827  -14.5940   27.7149 C   0  0  0  0  0  0  0  0  0  0  0  0
    8.2771  -15.7385   28.0634 O   0  0  0  0  0  0  0  0  0  0  0  0
    9.4810  -13.8702   28.5870 O   0  0  0  0  0  0  0  0  0  0  0  0
  2  1  1  1
  2  4  1  0
  2  3  1  0
  4  5  1  0
  5  7  1  0
  5  6  1  6
  7  8  2  0
  9 10  1  0
 11 10  1  1
 11 13  1  0
 12  7  1  0
 12 11  1  0
 13 19  1  0
 13 14  2  0
 16 18  1  0
 16 15  1  1
 17 16  1  0
 18 20  1  0
 18 19  1  6
 20 21  2  0
 20 22  1  0
M  END
$$$$
