LSV.pdb
     RDKit          3D

 22 21  0  0  1  0  0  0  0  0999 V2000
    9.6029  -14.0141   19.3563 C   0  0  0  0  0  0  0  0  0  0  0  0
    8.2230  -13.8361   18.7201 C   0  0  2  0  0  0  0  0  0  0  0  0
    8.0054  -12.4133   18.3196 C   0  0  0  0  0  0  0  0  0  0  0  0
    7.1391  -14.2883   19.6297 C   0  0  0  0  0  0  0  0  0  0  0  0
    7.3712  -15.6617   20.1501 C   0  0  2  0  0  0  0  0  0  0  0  0
    6.6829  -16.6251   19.2890 N   0  0  0  0  0  0  0  0  0  0  0  0
    6.9346  -15.8528   21.5381 C   0  0  0  0  0  0  0  0  0  0  0  0
    5.7293  -15.9231   21.8550 O   0  0  0  0  0  0  0  0  0  0  0  0
    7.2015  -17.9822   25.5431 O   0  0  0  0  0  0  0  0  0  0  0  0
    7.5512  -17.6836   24.2403 C   0  0  0  0  0  0  0  0  0  0  0  0
    7.4608  -16.2101   23.9362 C   0  0  2  0  0  0  0  0  0  0  0  0
    7.8879  -15.9655   22.5804 N   0  0  0  0  0  0  0  0  0  0  0  0
    8.2803  -15.4179   24.8954 C   0  0  0  0  0  0  0  0  0  0  0  0
    9.5368  -15.3385   24.7710 O   0  0  0  0  0  0  0  0  0  0  0  0
    6.3154  -13.6315   28.2533 C   0  0  0  0  0  0  0  0  0  0  0  0
    7.3976  -12.8799   27.5228 C   0  0  2  0  0  0  0  0  0  0  0  0
    6.7911  -11.9305   26.5408 C   0  0  0  0  0  0  0  0  0  0  0  0
    8.3543  -13.8562   26.8692 C   0  0  2  0  0  0  0  0  0  0  0  0
    7.6441  -14.7388   25.9692 N   0  0  0  0  0  0  0  0  0  0  0  0
    9.0693  -14.6521   27.8976 C   0  0  0  0  0  0  0  0  0  0  0  0
    8.8845  -15.8947   28.0310 O   0  0  0  0  0  0  0  0  0  0  0  0
    9.9674  -14.0127   28.7379 O   0  0  0  0  0  0  0  0  0  0  0  0
  2  1  1  1
  2  4  1  0
  2  3  1  0
  4  5  1  0
  5  7  1  0
  5  6  1  6
  7  8  2  0
  9 10  1  0
 11 10  1  1
 11 13  1  0
 12  7  1  0
 12 11  1  0
 13 19  1  0
 13 14  2  0
 16 18  1  0
 16 15  1  6
 17 16  1  0
 18 20  1  0
 18 19  1  6
 20 21  2  0
 20 22  1  0
M  END
$$$$
