LSV.pdb
     RDKit          3D

 22 21  0  0  1  0  0  0  0  0999 V2000
    9.4961  -13.3236   19.7740 C   0  0  0  0  0  0  0  0  0  0  0  0
    8.2392  -13.5169   18.9234 C   0  0  2  0  0  0  0  0  0  0  0  0
    7.6143  -12.1996   18.5972 C   0  0  0  0  0  0  0  0  0  0  0  0
    7.2549  -14.4032   19.5958 C   0  0  0  0  0  0  0  0  0  0  0  0
    7.8952  -15.5903   20.2218 C   0  0  2  0  0  0  0  0  0  0  0  0
    7.4723  -16.7969   19.5085 N   0  0  0  0  0  0  0  0  0  0  0  0
    7.5972  -15.7417   21.6508 C   0  0  0  0  0  0  0  0  0  0  0  0
    6.4721  -15.4888   22.1285 O   0  0  0  0  0  0  0  0  0  0  0  0
   10.1623  -17.8667   24.3289 O   0  0  0  0  0  0  0  0  0  0  0  0
    8.7843  -17.7722   24.3590 C   0  0  0  0  0  0  0  0  0  0  0  0
    8.2845  -16.4139   23.9379 C   0  0  2  0  0  0  0  0  0  0  0  0
    8.5985  -16.1886   22.5484 N   0  0  0  0  0  0  0  0  0  0  0  0
    8.8739  -15.3430   24.7893 C   0  0  0  0  0  0  0  0  0  0  0  0
   10.0207  -14.8692   24.5426 O   0  0  0  0  0  0  0  0  0  0  0  0
    6.3699  -13.3541   27.5674 C   0  0  0  0  0  0  0  0  0  0  0  0
    7.6563  -12.7572   27.0587 C   0  0  2  0  0  0  0  0  0  0  0  0
    7.3941  -11.9335   25.8396 C   0  0  0  0  0  0  0  0  0  0  0  0
    8.6720  -13.8535   26.8095 C   0  0  2  0  0  0  0  0  0  0  0  0
    8.1391  -14.8427   25.8979 N   0  0  0  0  0  0  0  0  0  0  0  0
    9.0626  -14.5014   28.0861 C   0  0  0  0  0  0  0  0  0  0  0  0
    8.7445  -15.6937   28.3570 O   0  0  0  0  0  0  0  0  0  0  0  0
    9.7990  -13.7765   29.0101 O   0  0  0  0  0  0  0  0  0  0  0  0
  2  1  1  1
  2  4  1  0
  2  3  1  0
  4  5  1  0
  5  7  1  0
  5  6  1  6
  7  8  2  0
  9 10  1  0
 11 10  1  1
 11 13  1  0
 12  7  1  0
 12 11  1  0
 13 19  1  0
 13 14  2  0
 16 18  1  0
 16 15  1  6
 17 16  1  0
 18 20  1  0
 18 19  1  6
 20 21  2  0
 20 22  1  0
M  END
$$$$
