LSV.pdb
     RDKit          3D

 22 21  0  0  1  0  0  0  0  0999 V2000
    7.0225  -13.9034   19.2952 C   0  0  0  0  0  0  0  0  0  0  0  0
    8.0106  -13.5315   20.4026 C   0  0  2  0  0  0  0  0  0  0  0  0
    8.3604  -12.0807   20.3332 C   0  0  0  0  0  0  0  0  0  0  0  0
    9.2401  -14.3629   20.3402 C   0  0  0  0  0  0  0  0  0  0  0  0
    8.9607  -15.8065   20.5619 C   0  0  2  0  0  0  0  0  0  0  0  0
    7.7549  -16.1822   19.8213 N   0  0  0  0  0  0  0  0  0  0  0  0
    8.7957  -16.1696   21.9742 C   0  0  0  0  0  0  0  0  0  0  0  0
    7.7201  -16.0029   22.5851 O   0  0  0  0  0  0  0  0  0  0  0  0
   11.6537  -18.5873   23.8996 O   0  0  0  0  0  0  0  0  0  0  0  0
   10.3001  -18.5926   24.1759 C   0  0  0  0  0  0  0  0  0  0  0  0
    9.6725  -17.2290   24.0392 C   0  0  2  0  0  0  0  0  0  0  0  0
    9.8748  -16.7317   22.7005 N   0  0  0  0  0  0  0  0  0  0  0  0
   10.2355  -16.2816   25.0415 C   0  0  0  0  0  0  0  0  0  0  0  0
   11.1818  -15.4979   24.7402 O   0  0  0  0  0  0  0  0  0  0  0  0
    8.8410  -13.5044   26.7200 C   0  0  0  0  0  0  0  0  0  0  0  0
    9.2230  -14.4038   27.8667 C   0  0  2  0  0  0  0  0  0  0  0  0
    9.7054  -13.5873   29.0218 C   0  0  0  0  0  0  0  0  0  0  0  0
   10.2488  -15.4199   27.4075 C   0  0  2  0  0  0  0  0  0  0  0  0
    9.7035  -16.2545   26.3588 N   0  0  0  0  0  0  0  0  0  0  0  0
   10.6918  -16.2632   28.5453 C   0  0  0  0  0  0  0  0  0  0  0  0
   10.1838  -17.3965   28.7768 O   0  0  0  0  0  0  0  0  0  0  0  0
   11.6938  -15.7934   29.3800 O   0  0  0  0  0  0  0  0  0  0  0  0
  2  1  1  6
  2  4  1  0
  2  3  1  0
  4  5  1  0
  5  7  1  0
  5  6  1  6
  7  8  2  0
  9 10  1  0
 11 10  1  6
 11 13  1  0
 12  7  1  0
 12 11  1  0
 13 19  1  0
 13 14  2  0
 16 18  1  0
 16 15  1  6
 17 16  1  0
 18 20  1  0
 18 19  1  6
 20 21  2  0
 20 22  1  0
M  END
$$$$
