LSV.pdb
     RDKit          3D

 22 21  0  0  1  0  0  0  0  0999 V2000
    7.4581  -12.2589   19.4495 C   0  0  0  0  0  0  0  0  0  0  0  0
    8.2250  -13.4561   20.0147 C   0  0  2  0  0  0  0  0  0  0  0  0
    9.6984  -13.2569   19.8674 C   0  0  0  0  0  0  0  0  0  0  0  0
    7.8083  -14.7270   19.3682 C   0  0  0  0  0  0  0  0  0  0  0  0
    8.2859  -15.9240   20.1098 C   0  0  2  0  0  0  0  0  0  0  0  0
    7.9258  -17.1292   19.3606 N   0  0  0  0  0  0  0  0  0  0  0  0
    7.7591  -16.0260   21.4757 C   0  0  0  0  0  0  0  0  0  0  0  0
    6.5355  -16.0752   21.7173 O   0  0  0  0  0  0  0  0  0  0  0  0
    9.6515  -17.9018   24.7298 O   0  0  0  0  0  0  0  0  0  0  0  0
    8.3379  -17.6425   24.3894 C   0  0  0  0  0  0  0  0  0  0  0  0
    8.1264  -16.2255   23.9212 C   0  0  2  0  0  0  0  0  0  0  0  0
    8.6422  -16.0726   22.5830 N   0  0  0  0  0  0  0  0  0  0  0  0
    8.7763  -15.2568   24.8477 C   0  0  0  0  0  0  0  0  0  0  0  0
   10.0080  -14.9850   24.7501 O   0  0  0  0  0  0  0  0  0  0  0  0
    6.3517  -13.3633   27.8595 C   0  0  0  0  0  0  0  0  0  0  0  0
    7.5262  -12.6659   27.2239 C   0  0  2  0  0  0  0  0  0  0  0  0
    7.0644  -11.8163   26.0843 C   0  0  0  0  0  0  0  0  0  0  0  0
    8.5663  -13.6839   26.8029 C   0  0  2  0  0  0  0  0  0  0  0  0
    8.0034  -14.6254   25.8593 N   0  0  0  0  0  0  0  0  0  0  0  0
    9.0942  -14.4084   27.9855 C   0  0  0  0  0  0  0  0  0  0  0  0
    8.8634  -15.6356   28.1773 O   0  0  0  0  0  0  0  0  0  0  0  0
    9.8641  -13.7178   28.9083 O   0  0  0  0  0  0  0  0  0  0  0  0
  2  1  1  6
  2  4  1  0
  2  3  1  0
  4  5  1  0
  5  7  1  0
  5  6  1  6
  7  8  2  0
  9 10  1  0
 11 10  1  1
 11 13  1  0
 12  7  1  0
 12 11  1  0
 13 19  1  0
 13 14  2  0
 16 18  1  0
 16 15  1  6
 17 16  1  0
 18 20  1  0
 18 19  1  6
 20 21  2  0
 20 22  1  0
M  END
$$$$
