LSV.pdb
     RDKit          3D

 22 21  0  0  1  0  0  0  0  0999 V2000
    9.5574  -13.3765   19.4639 C   0  0  0  0  0  0  0  0  0  0  0  0
    8.1792  -13.5303   18.8176 C   0  0  2  0  0  0  0  0  0  0  0  0
    7.6575  -12.2058   18.3643 C   0  0  0  0  0  0  0  0  0  0  0  0
    7.2119  -14.1784   19.7401 C   0  0  0  0  0  0  0  0  0  0  0  0
    7.7407  -15.4406   20.3216 C   0  0  2  0  0  0  0  0  0  0  0  0
    7.3246  -16.5672   19.4842 N   0  0  0  0  0  0  0  0  0  0  0  0
    7.3153  -15.6813   21.7053 C   0  0  0  0  0  0  0  0  0  0  0  0
    6.1201  -15.6105   22.0582 O   0  0  0  0  0  0  0  0  0  0  0  0
    9.5190  -17.8657   24.4921 O   0  0  0  0  0  0  0  0  0  0  0  0
    8.1688  -17.5757   24.5327 C   0  0  0  0  0  0  0  0  0  0  0  0
    7.8604  -16.1730   24.0752 C   0  0  2  0  0  0  0  0  0  0  0  0
    8.2685  -16.0078   22.7017 N   0  0  0  0  0  0  0  0  0  0  0  0
    8.5332  -15.1695   24.9467 C   0  0  0  0  0  0  0  0  0  0  0  0
    9.7356  -14.8313   24.7459 O   0  0  0  0  0  0  0  0  0  0  0  0
    6.2280  -13.0808   27.9630 C   0  0  0  0  0  0  0  0  0  0  0  0
    7.4279  -12.5132   27.2504 C   0  0  2  0  0  0  0  0  0  0  0  0
    6.9952  -11.7620   26.0330 C   0  0  0  0  0  0  0  0  0  0  0  0
    8.4101  -13.6210   26.9285 C   0  0  2  0  0  0  0  0  0  0  0  0
    7.8160  -14.5799   26.0224 N   0  0  0  0  0  0  0  0  0  0  0  0
    8.8494  -14.3043   28.1704 C   0  0  0  0  0  0  0  0  0  0  0  0
    8.5130  -15.4928   28.4359 O   0  0  0  0  0  0  0  0  0  0  0  0
    9.6535  -13.6179   29.0669 O   0  0  0  0  0  0  0  0  0  0  0  0
  2  1  1  1
  2  4  1  0
  2  3  1  0
  4  5  1  0
  5  7  1  0
  5  6  1  6
  7  8  2  0
  9 10  1  0
 11 10  1  1
 11 13  1  0
 12  7  1  0
 12 11  1  0
 13 19  1  0
 13 14  2  0
 16 18  1  0
 16 15  1  6
 17 16  1  0
 18 20  1  0
 18 19  1  6
 20 21  2  0
 20 22  1  0
M  END
$$$$
