LSV.pdb
     RDKit          3D

 22 21  0  0  1  0  0  0  0  0999 V2000
    9.5284  -13.4202   19.3373 C   0  0  0  0  0  0  0  0  0  0  0  0
    8.0024  -13.4642   19.4381 C   0  0  2  0  0  0  0  0  0  0  0  0
    7.4200  -12.1036   19.2339 C   0  0  0  0  0  0  0  0  0  0  0  0
    7.5564  -14.0272   20.7384 C   0  0  0  0  0  0  0  0  0  0  0  0
    8.0591  -15.4088   20.9608 C   0  0  2  0  0  0  0  0  0  0  0  0
    7.2755  -16.3422   20.1495 N   0  0  0  0  0  0  0  0  0  0  0  0
    8.0217  -15.8360   22.3643 C   0  0  0  0  0  0  0  0  0  0  0  0
    7.0041  -15.7046   23.0751 O   0  0  0  0  0  0  0  0  0  0  0  0
   10.7773  -18.5667   23.8694 O   0  0  0  0  0  0  0  0  0  0  0  0
    9.5119  -18.3466   24.3784 C   0  0  0  0  0  0  0  0  0  0  0  0
    9.1078  -16.8954   24.3273 C   0  0  2  0  0  0  0  0  0  0  0  0
    9.1629  -16.4222   22.9659 N   0  0  0  0  0  0  0  0  0  0  0  0
    9.9820  -16.0688   25.2057 C   0  0  0  0  0  0  0  0  0  0  0  0
   11.0371  -15.5324   24.7591 O   0  0  0  0  0  0  0  0  0  0  0  0
    8.5224  -14.3140   28.7991 C   0  0  0  0  0  0  0  0  0  0  0  0
    9.7323  -13.9085   27.9982 C   0  0  2  0  0  0  0  0  0  0  0  0
    9.3305  -12.9919   26.8882 C   0  0  0  0  0  0  0  0  0  0  0  0
   10.4579  -15.1408   27.4977 C   0  0  2  0  0  0  0  0  0  0  0  0
    9.6283  -15.8771   26.5686 N   0  0  0  0  0  0  0  0  0  0  0  0
   10.8433  -16.0151   28.6331 C   0  0  0  0  0  0  0  0  0  0  0  0
   10.2936  -17.1349   28.8329 O   0  0  0  0  0  0  0  0  0  0  0  0
   11.8369  -15.5905   29.5014 O   0  0  0  0  0  0  0  0  0  0  0  0
  2  1  1  1
  2  4  1  0
  2  3  1  0
  4  5  1  0
  5  7  1  0
  5  6  1  6
  7  8  2  0
  9 10  1  0
 11 10  1  6
 11 13  1  0
 12  7  1  0
 12 11  1  0
 13 19  1  0
 13 14  2  0
 16 18  1  0
 16 15  1  6
 17 16  1  0
 18 20  1  0
 18 19  1  6
 20 21  2  0
 20 22  1  0
M  END
$$$$
