LSV.pdb
     RDKit          3D

 22 21  0  0  1  0  0  0  0  0999 V2000
    9.4141  -12.9596   18.7032 C   0  0  0  0  0  0  0  0  0  0  0  0
    8.0915  -13.6736   18.4171 C   0  0  2  0  0  0  0  0  0  0  0  0
    7.2132  -12.8314   17.5503 C   0  0  0  0  0  0  0  0  0  0  0  0
    7.3837  -14.0369   19.6716 C   0  0  0  0  0  0  0  0  0  0  0  0
    8.2336  -14.8397   20.5905 C   0  0  2  0  0  0  0  0  0  0  0  0
    8.4171  -16.1792   20.0288 N   0  0  0  0  0  0  0  0  0  0  0  0
    7.6949  -14.9535   21.9508 C   0  0  0  0  0  0  0  0  0  0  0  0
    7.2872  -13.9634   22.5923 O   0  0  0  0  0  0  0  0  0  0  0  0
    8.2129  -18.4438   24.3869 O   0  0  0  0  0  0  0  0  0  0  0  0
    7.0091  -17.7680   24.3324 C   0  0  0  0  0  0  0  0  0  0  0  0
    7.1721  -16.3176   23.9561 C   0  0  2  0  0  0  0  0  0  0  0  0
    7.6203  -16.2165   22.5889 N   0  0  0  0  0  0  0  0  0  0  0  0
    8.1269  -15.6344   24.8731 C   0  0  0  0  0  0  0  0  0  0  0  0
    9.3695  -15.6280   24.6359 O   0  0  0  0  0  0  0  0  0  0  0  0
    6.4986  -13.1875   27.9678 C   0  0  0  0  0  0  0  0  0  0  0  0
    7.8282  -12.9148   27.3140 C   0  0  2  0  0  0  0  0  0  0  0  0
    7.6494  -11.9956   26.1492 C   0  0  0  0  0  0  0  0  0  0  0  0
    8.4907  -14.2206   26.9248 C   0  0  2  0  0  0  0  0  0  0  0  0
    7.6377  -14.9779   26.0345 N   0  0  0  0  0  0  0  0  0  0  0  0
    8.8030  -15.0259   28.1315 C   0  0  0  0  0  0  0  0  0  0  0  0
    8.2110  -16.1131   28.3830 O   0  0  0  0  0  0  0  0  0  0  0  0
    9.7742  -14.5713   29.0100 O   0  0  0  0  0  0  0  0  0  0  0  0
  2  1  1  1
  2  4  1  0
  2  3  1  0
  4  5  1  0
  5  7  1  0
  5  6  1  6
  7  8  2  0
  9 10  1  0
 11 10  1  1
 11 13  1  0
 12  7  1  0
 12 11  1  0
 13 19  1  0
 13 14  2  0
 16 18  1  0
 16 15  1  6
 17 16  1  0
 18 20  1  0
 18 19  1  6
 20 21  2  0
 20 22  1  0
M  END
$$$$
