LSV.pdb
     RDKit          3D

 22 21  0  0  1  0  0  0  0  0999 V2000
    9.3891  -13.5636   19.3716 C   0  0  0  0  0  0  0  0  0  0  0  0
    7.9033  -13.3754   19.6842 C   0  0  2  0  0  0  0  0  0  0  0  0
    7.5408  -11.9260   19.6742 C   0  0  0  0  0  0  0  0  0  0  0  0
    7.5361  -13.9907   20.9855 C   0  0  0  0  0  0  0  0  0  0  0  0
    7.8627  -15.4403   21.0399 C   0  0  2  0  0  0  0  0  0  0  0  0
    6.8244  -16.1940   20.3345 N   0  0  0  0  0  0  0  0  0  0  0  0
    8.0037  -15.9669   22.4024 C   0  0  0  0  0  0  0  0  0  0  0  0
    7.0425  -16.0308   23.1962 O   0  0  0  0  0  0  0  0  0  0  0  0
   10.2104  -18.9090   25.3682 O   0  0  0  0  0  0  0  0  0  0  0  0
   10.0616  -18.3231   24.1259 C   0  0  0  0  0  0  0  0  0  0  0  0
    9.3925  -16.9743   24.1945 C   0  0  2  0  0  0  0  0  0  0  0  0
    9.2608  -16.4277   22.8663 N   0  0  0  0  0  0  0  0  0  0  0  0
   10.1587  -16.0446   25.0708 C   0  0  0  0  0  0  0  0  0  0  0  0
   11.2425  -15.5223   24.6797 O   0  0  0  0  0  0  0  0  0  0  0  0
    8.4474  -14.0718   28.5376 C   0  0  0  0  0  0  0  0  0  0  0  0
    9.6480  -13.7022   27.7059 C   0  0  2  0  0  0  0  0  0  0  0  0
    9.2228  -12.9064   26.5145 C   0  0  0  0  0  0  0  0  0  0  0  0
   10.4168  -14.9506   27.3241 C   0  0  2  0  0  0  0  0  0  0  0  0
    9.6674  -15.7368   26.3682 N   0  0  0  0  0  0  0  0  0  0  0  0
   10.7144  -15.7671   28.5270 C   0  0  0  0  0  0  0  0  0  0  0  0
   10.1800  -16.8955   28.7196 O   0  0  0  0  0  0  0  0  0  0  0  0
   11.6061  -15.2770   29.4683 O   0  0  0  0  0  0  0  0  0  0  0  0
  2  1  1  1
  2  4  1  0
  2  3  1  0
  4  5  1  0
  5  7  1  0
  5  6  1  1
  7  8  2  0
  9 10  1  0
 11 10  1  6
 11 13  1  0
 12  7  1  0
 12 11  1  0
 13 19  1  0
 13 14  2  0
 16 18  1  0
 16 15  1  6
 17 16  1  0
 18 20  1  0
 18 19  1  6
 20 21  2  0
 20 22  1  0
M  END
$$$$
