LSV.pdb
     RDKit          3D

 22 21  0  0  1  0  0  0  0  0999 V2000
    9.6995  -13.3623   19.3655 C   0  0  0  0  0  0  0  0  0  0  0  0
    8.1711  -13.4243   19.3977 C   0  0  2  0  0  0  0  0  0  0  0  0
    7.5842  -12.0556   19.2784 C   0  0  0  0  0  0  0  0  0  0  0  0
    7.6769  -14.0928   20.6288 C   0  0  0  0  0  0  0  0  0  0  0  0
    8.1959  -15.4792   20.7689 C   0  0  2  0  0  0  0  0  0  0  0  0
    7.4559  -16.3633   19.8665 N   0  0  0  0  0  0  0  0  0  0  0  0
    8.1193  -16.0070   22.1361 C   0  0  0  0  0  0  0  0  0  0  0  0
    7.0455  -16.0656   22.7698 O   0  0  0  0  0  0  0  0  0  0  0  0
   10.9482  -18.6283   23.5838 O   0  0  0  0  0  0  0  0  0  0  0  0
    9.6564  -18.4954   24.0555 C   0  0  0  0  0  0  0  0  0  0  0  0
    9.1996  -17.0599   24.1058 C   0  0  2  0  0  0  0  0  0  0  0  0
    9.2860  -16.4749   22.7902 N   0  0  0  0  0  0  0  0  0  0  0  0
   10.0092  -16.2781   25.0817 C   0  0  0  0  0  0  0  0  0  0  0  0
   11.1367  -15.8016   24.7620 O   0  0  0  0  0  0  0  0  0  0  0  0
    8.9756  -13.3043   27.0149 C   0  0  0  0  0  0  0  0  0  0  0  0
    9.4322  -14.2877   28.0609 C   0  0  2  0  0  0  0  0  0  0  0  0
   10.1632  -13.5750   29.1523 C   0  0  0  0  0  0  0  0  0  0  0  0
   10.2686  -15.3753   27.4180 C   0  0  2  0  0  0  0  0  0  0  0  0
    9.5104  -16.0618   26.3946 N   0  0  0  0  0  0  0  0  0  0  0  0
   10.7336  -16.3465   28.4392 C   0  0  0  0  0  0  0  0  0  0  0  0
   10.1651  -17.4615   28.6111 O   0  0  0  0  0  0  0  0  0  0  0  0
   11.8253  -16.0206   29.2288 O   0  0  0  0  0  0  0  0  0  0  0  0
  2  1  1  1
  2  4  1  0
  2  3  1  0
  4  5  1  0
  5  7  1  0
  5  6  1  6
  7  8  2  0
  9 10  1  0
 11 10  1  6
 11 13  1  0
 12  7  1  0
 12 11  1  0
 13 19  1  0
 13 14  2  0
 16 18  1  0
 16 15  1  6
 17 16  1  0
 18 20  1  0
 18 19  1  6
 20 21  2  0
 20 22  1  0
M  END
$$$$
