YLT.pdb
     RDKit          3D

 28 28  0  0  1  0  0  0  0  0999 V2000
    7.2094  -13.7505   15.7316 O   0  0  0  0  0  0  0  0  0  0  0  0
    7.8238  -13.8815   16.9854 C   0  0  0  0  0  0  0  0  0  0  0  0
    7.6345  -12.9045   17.9401 C   0  0  0  0  0  0  0  0  0  0  0  0
    8.2714  -13.0923   19.1652 C   0  0  0  0  0  0  0  0  0  0  0  0
    9.0525  -14.2011   19.4101 C   0  0  0  0  0  0  0  0  0  0  0  0
    9.7147  -14.3858   20.7015 C   0  0  0  0  0  0  0  0  0  0  0  0
    9.1581  -15.4662   21.5654 C   0  0  2  0  0  0  0  0  0  0  0  0
    7.8096  -15.8384   21.2164 N   0  0  0  0  0  0  0  0  0  0  0  0
    9.1802  -15.0838   22.9935 C   0  0  0  0  0  0  0  0  0  0  0  0
   10.3036  -14.8685   23.5488 O   0  0  0  0  0  0  0  0  0  0  0  0
    9.2276  -15.1631   18.4434 C   0  0  0  0  0  0  0  0  0  0  0  0
    8.6056  -14.9911   17.2306 C   0  0  0  0  0  0  0  0  0  0  0  0
    8.2704  -12.2372   27.0280 C   0  0  0  0  0  0  0  0  0  0  0  0
    7.0320  -13.1409   26.9094 C   0  0  1  0  0  0  0  0  0  0  0  0
    5.7913  -12.3652   27.3119 C   0  0  0  0  0  0  0  0  0  0  0  0
    6.9582  -13.5574   25.4811 C   0  0  0  0  0  0  0  0  0  0  0  0
    8.0633  -14.5372   25.1188 C   0  0  2  0  0  0  0  0  0  0  0  0
    7.9907  -14.9562   23.7418 N   0  0  0  0  0  0  0  0  0  0  0  0
    7.8328  -15.7270   25.9844 C   0  0  0  0  0  0  0  0  0  0  0  0
    7.0158  -15.6469   26.9175 O   0  0  0  0  0  0  0  0  0  0  0  0
    6.5577  -19.1297   25.3374 C   0  0  0  0  0  0  0  0  0  0  0  0
    7.9559  -19.2760   25.8836 C   0  0  1  0  0  0  0  0  0  0  0  0
    8.8961  -19.5216   24.8906 O   0  0  0  0  0  0  0  0  0  0  0  0
    8.3662  -18.0397   26.6689 C   0  0  2  0  0  0  0  0  0  0  0  0
    8.5242  -16.9348   25.7610 N   0  0  0  0  0  0  0  0  0  0  0  0
    9.6266  -18.3308   27.4000 C   0  0  0  0  0  0  0  0  0  0  0  0
    9.6863  -19.2880   28.3884 O   0  0  0  0  0  0  0  0  0  0  0  0
   10.6529  -17.6804   27.0983 O   0  0  0  0  0  0  0  0  0  0  0  0
  2  1  1  0
  3  2  2  0
  4  3  1  0
  5 11  1  0
  5  4  2  0
  6  5  1  0
  7  6  1  0
  7  8  1  6
  9  7  1  0
  9 10  2  0
 11 12  2  0
 12  2  1  0
 14 13  1  6
 14 15  1  0
 16 14  1  0
 17 16  1  6
 17 18  1  0
 18  9  1  0
 19 17  1  0
 20 19  2  0
 22 23  1  0
 22 21  1  6
 24 22  1  0
 24 25  1  6
 25 19  1  0
 26 27  1  0
 26 24  1  0
 28 26  2  0
M  END
$$$$
