YLT.pdb
     RDKit          3D

 28 28  0  0  1  0  0  0  0  0999 V2000
    7.5876  -13.5198   15.8050 O   0  0  0  0  0  0  0  0  0  0  0  0
    8.0298  -13.6912   17.1249 C   0  0  0  0  0  0  0  0  0  0  0  0
    8.6989  -14.8458   17.4725 C   0  0  0  0  0  0  0  0  0  0  0  0
    9.1125  -14.9565   18.7986 C   0  0  0  0  0  0  0  0  0  0  0  0
    8.8644  -13.9597   19.7176 C   0  0  0  0  0  0  0  0  0  0  0  0
    9.3051  -14.0889   21.1066 C   0  0  0  0  0  0  0  0  0  0  0  0
    8.8046  -15.2896   21.8352 C   0  0  2  0  0  0  0  0  0  0  0  0
    7.4078  -15.5588   21.6005 N   0  0  0  0  0  0  0  0  0  0  0  0
    9.0160  -15.1661   23.2934 C   0  0  0  0  0  0  0  0  0  0  0  0
   10.2054  -15.0564   23.7291 O   0  0  0  0  0  0  0  0  0  0  0  0
    8.1952  -12.8165   19.3489 C   0  0  0  0  0  0  0  0  0  0  0  0
    7.7815  -12.6938   18.0446 C   0  0  0  0  0  0  0  0  0  0  0  0
    5.6128  -12.3568   26.5476 C   0  0  0  0  0  0  0  0  0  0  0  0
    6.8646  -12.8972   25.8369 C   0  0  1  0  0  0  0  0  0  0  0  0
    8.0665  -12.0429   26.1962 C   0  0  0  0  0  0  0  0  0  0  0  0
    7.0435  -14.2954   26.3184 C   0  0  0  0  0  0  0  0  0  0  0  0
    8.1893  -14.9976   25.6067 C   0  0  2  0  0  0  0  0  0  0  0  0
    7.9335  -15.1686   24.1987 N   0  0  0  0  0  0  0  0  0  0  0  0
    8.2754  -16.3450   26.2354 C   0  0  0  0  0  0  0  0  0  0  0  0
    7.5040  -16.6276   27.1679 O   0  0  0  0  0  0  0  0  0  0  0  0
    8.6315  -19.9561   24.5894 C   0  0  0  0  0  0  0  0  0  0  0  0
    9.7753  -19.6276   25.5159 C   0  0  1  0  0  0  0  0  0  0  0  0
   10.9222  -19.2393   24.8347 O   0  0  0  0  0  0  0  0  0  0  0  0
    9.3827  -18.5370   26.5007 C   0  0  2  0  0  0  0  0  0  0  0  0
    9.2138  -17.2976   25.7897 N   0  0  0  0  0  0  0  0  0  0  0  0
   10.4353  -18.4294   27.5440 C   0  0  0  0  0  0  0  0  0  0  0  0
   10.6724  -19.4467   28.4414 O   0  0  0  0  0  0  0  0  0  0  0  0
   11.1163  -17.3801   27.5958 O   0  0  0  0  0  0  0  0  0  0  0  0
  2  1  1  0
  3  2  2  0
  4  3  1  0
  5 11  1  0
  5  4  2  0
  6  5  1  0
  7  6  1  0
  7  8  1  1
  9  7  1  0
  9 10  2  0
 11 12  2  0
 12  2  1  0
 14 13  1  1
 14 15  1  0
 16 14  1  0
 17 16  1  1
 17 18  1  0
 18  9  1  0
 19 17  1  0
 20 19  2  0
 22 23  1  0
 22 21  1  6
 24 22  1  0
 24 25  1  6
 25 19  1  0
 26 27  1  0
 26 24  1  0
 28 26  2  0
M  END
$$$$
