YLT.pdb
     RDKit          3D

 28 28  0  0  1  0  0  0  0  0999 V2000
    7.7076  -14.3712   15.7949 O   0  0  0  0  0  0  0  0  0  0  0  0
    8.0204  -14.3146   17.1609 C   0  0  0  0  0  0  0  0  0  0  0  0
    8.5475  -15.4263   17.7838 C   0  0  0  0  0  0  0  0  0  0  0  0
    8.8371  -15.3068   19.1416 C   0  0  0  0  0  0  0  0  0  0  0  0
    8.6075  -14.1339   19.8281 C   0  0  0  0  0  0  0  0  0  0  0  0
    8.9171  -14.0222   21.2536 C   0  0  0  0  0  0  0  0  0  0  0  0
    8.7646  -15.2742   22.0488 C   0  0  2  0  0  0  0  0  0  0  0  0
    7.5328  -15.9741   21.7810 N   0  0  0  0  0  0  0  0  0  0  0  0
    8.8415  -15.0069   23.5009 C   0  0  0  0  0  0  0  0  0  0  0  0
    9.9757  -14.7453   24.0126 O   0  0  0  0  0  0  0  0  0  0  0  0
    8.0810  -13.0374   19.1867 C   0  0  0  0  0  0  0  0  0  0  0  0
    7.7906  -13.1409   17.8480 C   0  0  0  0  0  0  0  0  0  0  0  0
    5.3801  -12.1158   26.5838 C   0  0  0  0  0  0  0  0  0  0  0  0
    6.6670  -12.7125   25.9904 C   0  0  1  0  0  0  0  0  0  0  0  0
    7.8757  -11.9959   26.5636 C   0  0  0  0  0  0  0  0  0  0  0  0
    6.6714  -14.1519   26.3735 C   0  0  0  0  0  0  0  0  0  0  0  0
    7.8363  -14.9016   25.7463 C   0  0  2  0  0  0  0  0  0  0  0  0
    7.6920  -15.0377   24.3188 N   0  0  0  0  0  0  0  0  0  0  0  0
    7.8010  -16.2612   26.3534 C   0  0  0  0  0  0  0  0  0  0  0  0
    7.1708  -16.4353   27.4104 O   0  0  0  0  0  0  0  0  0  0  0  0
    6.6489  -19.6420   25.1341 C   0  0  0  0  0  0  0  0  0  0  0  0
    8.1242  -19.7132   25.4393 C   0  0  1  0  0  0  0  0  0  0  0  0
    8.9122  -19.6274   24.2983 O   0  0  0  0  0  0  0  0  0  0  0  0
    8.5321  -18.6198   26.4147 C   0  0  2  0  0  0  0  0  0  0  0  0
    8.4683  -17.3458   25.7492 N   0  0  0  0  0  0  0  0  0  0  0  0
    9.9017  -18.9074   26.9142 C   0  0  0  0  0  0  0  0  0  0  0  0
   10.1767  -20.0233   27.6729 O   0  0  0  0  0  0  0  0  0  0  0  0
   10.8193  -18.1047   26.6295 O   0  0  0  0  0  0  0  0  0  0  0  0
  2  1  1  0
  3  2  2  0
  4  3  1  0
  5 11  1  0
  5  4  2  0
  6  5  1  0
  7  6  1  0
  7  8  1  1
  9  7  1  0
  9 10  2  0
 11 12  2  0
 12  2  1  0
 14 13  1  1
 14 15  1  0
 16 14  1  0
 17 16  1  1
 17 18  1  0
 18  9  1  0
 19 17  1  0
 20 19  2  0
 22 23  1  0
 22 21  1  6
 24 22  1  0
 24 25  1  6
 25 19  1  0
 26 27  1  0
 26 24  1  0
 28 26  2  0
M  END
$$$$
