YLT.pdb
     RDKit          3D

 28 28  0  0  1  0  0  0  0  0999 V2000
    7.8987  -12.4954   16.8319 O   0  0  0  0  0  0  0  0  0  0  0  0
    8.0337  -13.1810   18.0479 C   0  0  0  0  0  0  0  0  0  0  0  0
    9.1268  -12.9313   18.8509 C   0  0  0  0  0  0  0  0  0  0  0  0
    9.2037  -13.6440   20.0458 C   0  0  0  0  0  0  0  0  0  0  0  0
    8.2338  -14.5542   20.4070 C   0  0  0  0  0  0  0  0  0  0  0  0
    8.3269  -15.2950   21.6651 C   0  0  0  0  0  0  0  0  0  0  0  0
    9.4947  -14.9588   22.5290 C   0  0  2  0  0  0  0  0  0  0  0  0
   10.6818  -15.7087   22.2015 N   0  0  0  0  0  0  0  0  0  0  0  0
    9.1898  -15.1721   23.9600 C   0  0  0  0  0  0  0  0  0  0  0  0
   10.0607  -15.7428   24.6896 O   0  0  0  0  0  0  0  0  0  0  0  0
    7.1521  -14.7875   19.5908 C   0  0  0  0  0  0  0  0  0  0  0  0
    7.0632  -14.0919   18.4094 C   0  0  0  0  0  0  0  0  0  0  0  0
    5.5810  -11.8964   26.6167 C   0  0  0  0  0  0  0  0  0  0  0  0
    6.8554  -12.6410   26.1856 C   0  0  1  0  0  0  0  0  0  0  0  0
    8.0401  -12.1364   26.9888 C   0  0  0  0  0  0  0  0  0  0  0  0
    6.6045  -14.0838   26.4579 C   0  0  0  0  0  0  0  0  0  0  0  0
    7.7266  -14.9636   25.9295 C   0  0  2  0  0  0  0  0  0  0  0  0
    7.9633  -14.7591   24.5226 N   0  0  0  0  0  0  0  0  0  0  0  0
    7.2555  -16.3625   26.1278 C   0  0  0  0  0  0  0  0  0  0  0  0
    6.1326  -16.5580   26.6231 O   0  0  0  0  0  0  0  0  0  0  0  0
    6.8023  -19.6514   24.0996 C   0  0  0  0  0  0  0  0  0  0  0  0
    7.9204  -19.7766   25.1040 C   0  0  1  0  0  0  0  0  0  0  0  0
    9.1753  -19.6055   24.5329 O   0  0  0  0  0  0  0  0  0  0  0  0
    7.7459  -18.7808   26.2404 C   0  0  2  0  0  0  0  0  0  0  0  0
    8.0609  -17.4604   25.7635 N   0  0  0  0  0  0  0  0  0  0  0  0
    8.6275  -19.1791   27.3684 C   0  0  0  0  0  0  0  0  0  0  0  0
    8.4277  -20.3499   28.0654 O   0  0  0  0  0  0  0  0  0  0  0  0
    9.5724  -18.4199   27.6814 O   0  0  0  0  0  0  0  0  0  0  0  0
  2  1  1  0
  3  2  2  0
  4  3  1  0
  5 11  1  0
  5  4  2  0
  6  5  1  0
  7  6  1  0
  7  8  1  6
  9  7  1  0
  9 10  2  0
 11 12  2  0
 12  2  1  0
 14 13  1  1
 14 15  1  0
 16 14  1  0
 17 16  1  6
 17 18  1  0
 18  9  1  0
 19 17  1  0
 20 19  2  0
 22 23  1  0
 22 21  1  6
 24 22  1  0
 24 25  1  6
 25 19  1  0
 26 27  1  0
 26 24  1  0
 28 26  2  0
M  END
$$$$
