YLT.pdb
     RDKit          3D

 28 28  0  0  1  0  0  0  0  0999 V2000
    7.8948  -14.1846   15.8378 O   0  0  0  0  0  0  0  0  0  0  0  0
    8.1896  -14.1050   17.2066 C   0  0  0  0  0  0  0  0  0  0  0  0
    7.7180  -13.0380   17.9421 C   0  0  0  0  0  0  0  0  0  0  0  0
    8.0446  -13.0161   19.2966 C   0  0  0  0  0  0  0  0  0  0  0  0
    8.8025  -14.0129   19.8725 C   0  0  0  0  0  0  0  0  0  0  0  0
    9.1373  -13.9776   21.2962 C   0  0  0  0  0  0  0  0  0  0  0  0
    8.7545  -15.1862   22.0811 C   0  0  2  0  0  0  0  0  0  0  0  0
    7.4203  -15.6528   21.7965 N   0  0  0  0  0  0  0  0  0  0  0  0
    8.8624  -14.9445   23.5358 C   0  0  0  0  0  0  0  0  0  0  0  0
    9.9866  -14.5898   24.0122 O   0  0  0  0  0  0  0  0  0  0  0  0
    9.2624  -15.0678   19.1199 C   0  0  0  0  0  0  0  0  0  0  0  0
    8.9480  -15.1024   17.7830 C   0  0  0  0  0  0  0  0  0  0  0  0
    5.5943  -12.1960   26.7398 C   0  0  0  0  0  0  0  0  0  0  0  0
    6.8279  -12.8287   26.0748 C   0  0  1  0  0  0  0  0  0  0  0  0
    8.0812  -12.0976   26.5198 C   0  0  0  0  0  0  0  0  0  0  0  0
    6.8555  -14.2500   26.5199 C   0  0  0  0  0  0  0  0  0  0  0  0
    7.9493  -15.0417   25.8205 C   0  0  2  0  0  0  0  0  0  0  0  0
    7.7530  -15.0998   24.3939 N   0  0  0  0  0  0  0  0  0  0  0  0
    7.8437  -16.4237   26.3655 C   0  0  0  0  0  0  0  0  0  0  0  0
    6.9745  -16.6727   27.2182 O   0  0  0  0  0  0  0  0  0  0  0  0
    7.3852  -19.8976   24.7919 C   0  0  0  0  0  0  0  0  0  0  0  0
    8.7103  -19.8213   25.5081 C   0  0  1  0  0  0  0  0  0  0  0  0
    9.7749  -19.6003   24.6432 O   0  0  0  0  0  0  0  0  0  0  0  0
    8.6931  -18.7340   26.5715 C   0  0  2  0  0  0  0  0  0  0  0  0
    8.7106  -17.4462   25.9300 N   0  0  0  0  0  0  0  0  0  0  0  0
    9.8670  -18.9157   27.4642 C   0  0  0  0  0  0  0  0  0  0  0  0
    9.9926  -20.0178   28.2805 O   0  0  0  0  0  0  0  0  0  0  0  0
   10.7570  -18.0352   27.4631 O   0  0  0  0  0  0  0  0  0  0  0  0
  2  1  1  0
  3  2  2  0
  4  3  1  0
  5 11  1  0
  5  4  2  0
  6  5  1  0
  7  6  1  0
  7  8  1  1
  9  7  1  0
  9 10  2  0
 11 12  2  0
 12  2  1  0
 14 13  1  1
 14 15  1  0
 16 14  1  0
 17 16  1  1
 17 18  1  0
 18  9  1  0
 19 17  1  0
 20 19  2  0
 22 23  1  0
 22 21  1  6
 24 22  1  0
 24 25  1  6
 25 19  1  0
 26 27  1  0
 26 24  1  0
 28 26  2  0
M  END
$$$$
