YLT.pdb
     RDKit          3D

 28 28  0  0  1  0  0  0  0  0999 V2000
    7.6234  -14.5201   15.8350 O   0  0  0  0  0  0  0  0  0  0  0  0
    7.9514  -14.3854   17.1919 C   0  0  0  0  0  0  0  0  0  0  0  0
    8.3139  -15.5009   17.9172 C   0  0  0  0  0  0  0  0  0  0  0  0
    8.6282  -15.3016   19.2600 C   0  0  0  0  0  0  0  0  0  0  0  0
    8.5788  -14.0499   19.8348 C   0  0  0  0  0  0  0  0  0  0  0  0
    8.9123  -13.8551   21.2459 C   0  0  0  0  0  0  0  0  0  0  0  0
    8.9030  -15.0851   22.0887 C   0  0  2  0  0  0  0  0  0  0  0  0
    7.7175  -15.8872   21.9152 N   0  0  0  0  0  0  0  0  0  0  0  0
    9.0383  -14.7595   23.5246 C   0  0  0  0  0  0  0  0  0  0  0  0
   10.1627  -14.3474   23.9521 O   0  0  0  0  0  0  0  0  0  0  0  0
    8.2146  -12.9512   19.0926 C   0  0  0  0  0  0  0  0  0  0  0  0
    7.9021  -13.1328   17.7672 C   0  0  0  0  0  0  0  0  0  0  0  0
    5.4996  -12.0808   26.6515 C   0  0  0  0  0  0  0  0  0  0  0  0
    6.7903  -12.5975   25.9946 C   0  0  1  0  0  0  0  0  0  0  0  0
    7.9597  -11.7211   26.4040 C   0  0  0  0  0  0  0  0  0  0  0  0
    6.9746  -13.9923   26.4838 C   0  0  0  0  0  0  0  0  0  0  0  0
    8.1656  -14.6709   25.8254 C   0  0  2  0  0  0  0  0  0  0  0  0
    7.9546  -14.8974   24.4178 N   0  0  0  0  0  0  0  0  0  0  0  0
    8.2872  -15.9928   26.5005 C   0  0  0  0  0  0  0  0  0  0  0  0
    8.2414  -16.0446   27.7414 O   0  0  0  0  0  0  0  0  0  0  0  0
    6.5551  -19.4504   25.5144 C   0  0  0  0  0  0  0  0  0  0  0  0
    8.0586  -19.5513   25.5760 C   0  0  1  0  0  0  0  0  0  0  0  0
    8.6493  -19.5273   24.3187 O   0  0  0  0  0  0  0  0  0  0  0  0
    8.6450  -18.4358   26.4276 C   0  0  2  0  0  0  0  0  0  0  0  0
    8.4524  -17.1781   25.7559 N   0  0  0  0  0  0  0  0  0  0  0  0
   10.0856  -18.7156   26.6611 C   0  0  0  0  0  0  0  0  0  0  0  0
   10.5029  -19.8105   27.3846 O   0  0  0  0  0  0  0  0  0  0  0  0
   10.9302  -17.9259   26.1810 O   0  0  0  0  0  0  0  0  0  0  0  0
  2  1  1  0
  3  2  2  0
  4  3  1  0
  5 11  1  0
  5  4  2  0
  6  5  1  0
  7  6  1  0
  7  8  1  1
  9  7  1  0
  9 10  2  0
 11 12  2  0
 12  2  1  0
 14 13  1  1
 14 15  1  0
 16 14  1  0
 17 16  1  1
 17 18  1  0
 18  9  1  0
 19 17  1  0
 20 19  2  0
 22 23  1  0
 22 21  1  6
 24 22  1  0
 24 25  1  6
 25 19  1  0
 26 27  1  0
 26 24  1  0
 28 26  2  0
M  END
$$$$
