YLT.pdb
     RDKit          3D

 28 28  0  0  1  0  0  0  0  0999 V2000
   11.8358  -15.5045   31.4454 O   0  0  0  0  0  0  0  0  0  0  0  0
   11.2602  -15.8595   30.2167 C   0  0  0  0  0  0  0  0  0  0  0  0
   10.7621  -14.8745   29.3900 C   0  0  0  0  0  0  0  0  0  0  0  0
   10.2031  -15.2911   28.1835 C   0  0  0  0  0  0  0  0  0  0  0  0
   10.1509  -16.6233   27.8340 C   0  0  0  0  0  0  0  0  0  0  0  0
    9.5618  -17.0465   26.5635 C   0  0  0  0  0  0  0  0  0  0  0  0
    8.0962  -17.3192   26.5890 C   0  0  2  0  0  0  0  0  0  0  0  0
    7.7742  -18.7204   26.4804 N   0  0  0  0  0  0  0  0  0  0  0  0
    7.3912  -16.5950   25.5098 C   0  0  0  0  0  0  0  0  0  0  0  0
    6.4437  -17.1837   24.8995 O   0  0  0  0  0  0  0  0  0  0  0  0
   10.6538  -17.5889   28.6739 C   0  0  0  0  0  0  0  0  0  0  0  0
   11.2080  -17.1927   29.8669 C   0  0  0  0  0  0  0  0  0  0  0  0
    7.6580  -11.2265   25.6265 C   0  0  0  0  0  0  0  0  0  0  0  0
    7.1063  -12.6617   25.6305 C   0  0  1  0  0  0  0  0  0  0  0  0
    5.7062  -12.6707   26.2162 C   0  0  0  0  0  0  0  0  0  0  0  0
    7.0902  -13.1035   24.2081 C   0  0  0  0  0  0  0  0  0  0  0  0
    7.0337  -14.6182   24.0858 C   0  0  2  0  0  0  0  0  0  0  0  0
    7.7480  -15.2781   25.1494 N   0  0  0  0  0  0  0  0  0  0  0  0
    7.7121  -14.9339   22.7980 C   0  0  0  0  0  0  0  0  0  0  0  0
    7.2551  -14.4633   21.7424 O   0  0  0  0  0  0  0  0  0  0  0  0
   11.2951  -14.5564   21.4289 C   0  0  0  0  0  0  0  0  0  0  0  0
   10.9137  -16.0123   21.5253 C   0  0  1  0  0  0  0  0  0  0  0  0
   11.4253  -16.6262   22.6619 O   0  0  0  0  0  0  0  0  0  0  0  0
    9.4025  -16.1825   21.4999 C   0  0  2  0  0  0  0  0  0  0  0  0
    8.8580  -15.7538   22.7609 N   0  0  0  0  0  0  0  0  0  0  0  0
    9.0835  -17.6071   21.2230 C   0  0  0  0  0  0  0  0  0  0  0  0
    9.4571  -18.2177   20.0465 O   0  0  0  0  0  0  0  0  0  0  0  0
    8.4581  -18.2563   22.0919 O   0  0  0  0  0  0  0  0  0  0  0  0
  2  1  1  0
  3  2  2  0
  4  3  1  0
  5 11  1  0
  5  4  2  0
  6  5  1  0
  7  6  1  0
  7  8  1  6
  9  7  1  0
  9 10  2  0
 11 12  2  0
 12  2  1  0
 14 13  1  6
 14 15  1  0
 16 14  1  0
 17 16  1  1
 17 18  1  0
 18  9  1  0
 19 17  1  0
 20 19  2  0
 22 23  1  0
 22 21  1  1
 24 22  1  0
 24 25  1  1
 25 19  1  0
 26 27  1  0
 26 24  1  0
 28 26  2  0
M  END
$$$$
