YLT.pdb
     RDKit          3D

 28 28  0  0  1  0  0  0  0  0999 V2000
    7.5748  -14.2346   15.8158 O   0  0  0  0  0  0  0  0  0  0  0  0
    7.8550  -14.0777   17.1810 C   0  0  0  0  0  0  0  0  0  0  0  0
    7.9617  -12.8090   17.7112 C   0  0  0  0  0  0  0  0  0  0  0  0
    8.2414  -12.7195   19.0733 C   0  0  0  0  0  0  0  0  0  0  0  0
    8.4034  -13.8449   19.8524 C   0  0  0  0  0  0  0  0  0  0  0  0
    8.6960  -13.7360   21.2817 C   0  0  0  0  0  0  0  0  0  0  0  0
    8.8553  -15.0275   22.0097 C   0  0  2  0  0  0  0  0  0  0  0  0
    7.7013  -15.8859   21.9086 N   0  0  0  0  0  0  0  0  0  0  0  0
    9.1489  -14.8096   23.4423 C   0  0  0  0  0  0  0  0  0  0  0  0
   10.2839  -14.3366   23.7661 O   0  0  0  0  0  0  0  0  0  0  0  0
    8.2927  -15.1004   19.3026 C   0  0  0  0  0  0  0  0  0  0  0  0
    8.0172  -15.2038   17.9607 C   0  0  0  0  0  0  0  0  0  0  0  0
    5.5993  -12.7100   26.9585 C   0  0  0  0  0  0  0  0  0  0  0  0
    6.8943  -13.0115   26.1862 C   0  0  1  0  0  0  0  0  0  0  0  0
    7.9474  -11.9731   26.5268 C   0  0  0  0  0  0  0  0  0  0  0  0
    7.3278  -14.3695   26.6182 C   0  0  0  0  0  0  0  0  0  0  0  0
    8.5289  -14.8600   25.8248 C   0  0  2  0  0  0  0  0  0  0  0  0
    8.2032  -15.1147   24.4441 N   0  0  0  0  0  0  0  0  0  0  0  0
    8.9198  -16.1489   26.4604 C   0  0  0  0  0  0  0  0  0  0  0  0
    9.0393  -16.2019   27.6963 O   0  0  0  0  0  0  0  0  0  0  0  0
   10.4037  -19.2482   24.0395 C   0  0  0  0  0  0  0  0  0  0  0  0
    9.6376  -19.6305   25.2811 C   0  0  1  0  0  0  0  0  0  0  0  0
   10.1210  -20.7906   25.8732 O   0  0  0  0  0  0  0  0  0  0  0  0
    9.6541  -18.5019   26.3006 C   0  0  2  0  0  0  0  0  0  0  0  0
    9.1544  -17.3017   25.6841 N   0  0  0  0  0  0  0  0  0  0  0  0
   11.0429  -18.3233   26.7979 C   0  0  0  0  0  0  0  0  0  0  0  0
   11.7075  -19.3270   27.4668 O   0  0  0  0  0  0  0  0  0  0  0  0
   11.6105  -17.2259   26.5958 O   0  0  0  0  0  0  0  0  0  0  0  0
  2  1  1  0
  3  2  2  0
  4  3  1  0
  5 11  1  0
  5  4  2  0
  6  5  1  0
  7  6  1  0
  7  8  1  1
  9  7  1  0
  9 10  2  0
 11 12  2  0
 12  2  1  0
 14 13  1  1
 14 15  1  0
 16 14  1  0
 17 16  1  1
 17 18  1  0
 18  9  1  0
 19 17  1  0
 20 19  2  0
 22 23  1  0
 22 21  1  6
 24 22  1  0
 24 25  1  6
 25 19  1  0
 26 27  1  0
 26 24  1  0
 28 26  2  0
M  END
$$$$
