YLT.pdb
     RDKit          3D

 28 28  0  0  1  0  0  0  0  0999 V2000
    7.2148  -14.1009   15.0988 O   0  0  0  0  0  0  0  0  0  0  0  0
    7.7342  -14.1601   16.4002 C   0  0  0  0  0  0  0  0  0  0  0  0
    8.5755  -15.1955   16.7494 C   0  0  0  0  0  0  0  0  0  0  0  0
    9.0583  -15.1983   18.0566 C   0  0  0  0  0  0  0  0  0  0  0  0
    8.7113  -14.2135   18.9563 C   0  0  0  0  0  0  0  0  0  0  0  0
    9.2264  -14.2285   20.3255 C   0  0  0  0  0  0  0  0  0  0  0  0
    8.6992  -15.3124   21.2033 C   0  0  2  0  0  0  0  0  0  0  0  0
    7.3075  -15.6090   20.9710 N   0  0  0  0  0  0  0  0  0  0  0  0
    8.8722  -14.9834   22.6343 C   0  0  0  0  0  0  0  0  0  0  0  0
   10.0515  -14.9066   23.1032 O   0  0  0  0  0  0  0  0  0  0  0  0
    7.8708  -13.1901   18.5864 C   0  0  0  0  0  0  0  0  0  0  0  0
    7.3871  -13.1746   17.3006 C   0  0  0  0  0  0  0  0  0  0  0  0
    8.3783  -12.3296   26.8912 C   0  0  0  0  0  0  0  0  0  0  0  0
    7.1315  -13.2292   26.8717 C   0  0  1  0  0  0  0  0  0  0  0  0
    5.9510  -12.4815   27.4638 C   0  0  0  0  0  0  0  0  0  0  0  0
    6.8849  -13.5649   25.4415 C   0  0  0  0  0  0  0  0  0  0  0  0
    7.9866  -14.4416   24.8671 C   0  0  2  0  0  0  0  0  0  0  0  0
    7.7643  -14.7569   23.4785 N   0  0  0  0  0  0  0  0  0  0  0  0
    7.9304  -15.7069   25.6507 C   0  0  0  0  0  0  0  0  0  0  0  0
    6.8410  -16.0814   26.1172 O   0  0  0  0  0  0  0  0  0  0  0  0
    8.3069  -19.0244   24.5643 C   0  0  0  0  0  0  0  0  0  0  0  0
    9.3570  -18.8662   25.6352 C   0  0  1  0  0  0  0  0  0  0  0  0
   10.6267  -18.6521   25.1134 O   0  0  0  0  0  0  0  0  0  0  0  0
    9.0041  -17.7279   26.5804 C   0  0  2  0  0  0  0  0  0  0  0  0
    9.0884  -16.4802   25.8687 N   0  0  0  0  0  0  0  0  0  0  0  0
    9.9333  -17.7596   27.7395 C   0  0  0  0  0  0  0  0  0  0  0  0
   10.8412  -16.7497   27.9679 O   0  0  0  0  0  0  0  0  0  0  0  0
    9.8772  -18.7368   28.5202 O   0  0  0  0  0  0  0  0  0  0  0  0
  2  1  1  0
  3  2  2  0
  4  3  1  0
  5 11  1  0
  5  4  2  0
  6  5  1  0
  7  6  1  0
  7  8  1  1
  9  7  1  0
  9 10  2  0
 11 12  2  0
 12  2  1  0
 14 13  1  6
 14 15  1  0
 16 14  1  0
 17 16  1  1
 17 18  1  0
 18  9  1  0
 19 17  1  0
 20 19  2  0
 22 23  1  0
 22 21  1  6
 24 22  1  0
 24 25  1  6
 25 19  1  0
 26 27  1  0
 26 24  1  0
 28 26  2  0
M  END
$$$$
