YLT.pdb
     RDKit          3D

 28 28  0  0  1  0  0  0  0  0999 V2000
   10.7780  -14.7306   31.3211 O   0  0  0  0  0  0  0  0  0  0  0  0
   10.5928  -14.9574   29.9495 C   0  0  0  0  0  0  0  0  0  0  0  0
   10.0279  -13.9715   29.1681 C   0  0  0  0  0  0  0  0  0  0  0  0
    9.8705  -14.2574   27.8134 C   0  0  0  0  0  0  0  0  0  0  0  0
   10.2609  -15.4673   27.2810 C   0  0  0  0  0  0  0  0  0  0  0  0
   10.0905  -15.7537   25.8565 C   0  0  0  0  0  0  0  0  0  0  0  0
    8.7418  -16.2444   25.4520 C   0  0  2  0  0  0  0  0  0  0  0  0
    8.4469  -17.5693   25.9381 N   0  0  0  0  0  0  0  0  0  0  0  0
    8.5824  -16.2419   23.9821 C   0  0  0  0  0  0  0  0  0  0  0  0
    8.5425  -17.3568   23.3722 O   0  0  0  0  0  0  0  0  0  0  0  0
   10.8222  -16.4363   28.0789 C   0  0  0  0  0  0  0  0  0  0  0  0
   10.9834  -16.1682   29.4166 C   0  0  0  0  0  0  0  0  0  0  0  0
    6.6106  -14.5733   19.5213 C   0  0  0  0  0  0  0  0  0  0  0  0
    7.9085  -13.7786   19.7408 C   0  0  1  0  0  0  0  0  0  0  0  0
    7.7638  -12.3880   19.1505 C   0  0  0  0  0  0  0  0  0  0  0  0
    8.1091  -13.7116   21.2153 C   0  0  0  0  0  0  0  0  0  0  0  0
    8.3214  -15.0901   21.8214 C   0  0  2  0  0  0  0  0  0  0  0  0
    8.4761  -15.0382   23.2534 N   0  0  0  0  0  0  0  0  0  0  0  0
    9.5941  -15.5878   21.2294 C   0  0  0  0  0  0  0  0  0  0  0  0
   10.6582  -15.0104   21.5102 O   0  0  0  0  0  0  0  0  0  0  0  0
   11.6072  -18.7680   21.4980 C   0  0  0  0  0  0  0  0  0  0  0  0
   11.0589  -18.6073   20.1022 C   0  0  1  0  0  0  0  0  0  0  0  0
    9.8712  -19.3019   19.9097 O   0  0  0  0  0  0  0  0  0  0  0  0
   10.8421  -17.1395   19.7677 C   0  0  2  0  0  0  0  0  0  0  0  0
    9.6078  -16.6977   20.3607 N   0  0  0  0  0  0  0  0  0  0  0  0
   10.8264  -16.9800   18.2905 C   0  0  0  0  0  0  0  0  0  0  0  0
   11.9823  -17.0346   17.5437 O   0  0  0  0  0  0  0  0  0  0  0  0
    9.7259  -16.7917   17.7242 O   0  0  0  0  0  0  0  0  0  0  0  0
  2  1  1  0
  3  2  2  0
  4  3  1  0
  5 11  1  0
  5  4  2  0
  6  5  1  0
  7  6  1  0
  7  8  1  6
  9  7  1  0
  9 10  2  0
 11 12  2  0
 12  2  1  0
 14 13  1  1
 14 15  1  0
 16 14  1  0
 17 16  1  6
 17 18  1  0
 18  9  1  0
 19 17  1  0
 20 19  2  0
 22 23  1  0
 22 21  1  1
 24 22  1  0
 24 25  1  6
 25 19  1  0
 26 27  1  0
 26 24  1  0
 28 26  2  0
M  END
$$$$
