YLT.pdb
     RDKit          3D

 28 28  0  0  1  0  0  0  0  0999 V2000
    7.6956  -13.8319   15.8275 O   0  0  0  0  0  0  0  0  0  0  0  0
    8.0535  -13.8777   17.1828 C   0  0  0  0  0  0  0  0  0  0  0  0
    8.6369  -15.0183   17.6932 C   0  0  0  0  0  0  0  0  0  0  0  0
    8.9693  -15.0016   19.0463 C   0  0  0  0  0  0  0  0  0  0  0  0
    8.7264  -13.8982   19.8356 C   0  0  0  0  0  0  0  0  0  0  0  0
    9.0815  -13.8943   21.2549 C   0  0  0  0  0  0  0  0  0  0  0  0
    8.8338  -15.1692   21.9873 C   0  0  2  0  0  0  0  0  0  0  0  0
    7.5104  -15.7011   21.7763 N   0  0  0  0  0  0  0  0  0  0  0  0
    9.0440  -15.0084   23.4420 C   0  0  0  0  0  0  0  0  0  0  0  0
   10.2354  -14.9496   23.8822 O   0  0  0  0  0  0  0  0  0  0  0  0
    8.1435  -12.7713   19.3056 C   0  0  0  0  0  0  0  0  0  0  0  0
    7.8105  -12.7735   17.9728 C   0  0  0  0  0  0  0  0  0  0  0  0
    5.7055  -12.0596   26.7141 C   0  0  0  0  0  0  0  0  0  0  0  0
    6.9350  -12.6285   25.9868 C   0  0  1  0  0  0  0  0  0  0  0  0
    8.1626  -11.8079   26.3373 C   0  0  0  0  0  0  0  0  0  0  0  0
    7.0824  -14.0336   26.4589 C   0  0  0  0  0  0  0  0  0  0  0  0
    8.2167  -14.7543   25.7472 C   0  0  2  0  0  0  0  0  0  0  0  0
    7.9583  -14.9211   24.3392 N   0  0  0  0  0  0  0  0  0  0  0  0
    8.2806  -16.1030   26.3758 C   0  0  0  0  0  0  0  0  0  0  0  0
    8.3061  -16.1920   27.6152 O   0  0  0  0  0  0  0  0  0  0  0  0
    8.2058  -21.0127   25.8530 C   0  0  0  0  0  0  0  0  0  0  0  0
    7.9965  -19.6411   25.2617 C   0  0  1  0  0  0  0  0  0  0  0  0
    6.6683  -19.3943   24.9373 O   0  0  0  0  0  0  0  0  0  0  0  0
    8.4917  -18.5584   26.2082 C   0  0  2  0  0  0  0  0  0  0  0  0
    8.3123  -17.2720   25.5890 N   0  0  0  0  0  0  0  0  0  0  0  0
    9.9196  -18.8161   26.5287 C   0  0  0  0  0  0  0  0  0  0  0  0
   10.2934  -19.7423   27.4769 O   0  0  0  0  0  0  0  0  0  0  0  0
   10.7942  -18.1664   25.9121 O   0  0  0  0  0  0  0  0  0  0  0  0
  2  1  1  0
  3  2  2  0
  4  3  1  0
  5 11  1  0
  5  4  2  0
  6  5  1  0
  7  6  1  0
  7  8  1  1
  9  7  1  0
  9 10  2  0
 11 12  2  0
 12  2  1  0
 14 13  1  1
 14 15  1  0
 16 14  1  0
 17 16  1  1
 17 18  1  0
 18  9  1  0
 19 17  1  0
 20 19  2  0
 22 23  1  0
 22 21  1  1
 24 22  1  0
 24 25  1  6
 25 19  1  0
 26 27  1  0
 26 24  1  0
 28 26  2  0
M  END
$$$$
