PFH.pdb
     RDKit          3D

 29 31  0  0  1  0  0  0  0  0999 V2000
   28.2159  -20.8346  -17.3927 N   0  0  0  0  0  0  0  0  0  0  0  0
   29.4850  -20.8723  -18.0778 C   0  0  0  0  0  0  0  0  0  0  0  0
   30.2192  -22.0894  -17.5747 C   0  0  0  0  0  0  0  0  0  0  0  0
   29.1585  -22.9800  -16.9996 C   0  0  0  0  0  0  0  0  0  0  0  0
   27.8864  -22.1840  -17.0198 C   0  0  1  0  0  0  0  0  0  0  0  0
   27.1561  -22.2475  -15.7262 C   0  0  0  0  0  0  0  0  0  0  0  0
   26.5146  -23.2825  -15.4493 O   0  0  0  0  0  0  0  0  0  0  0  0
   27.1482  -21.1870  -14.7810 N   0  0  0  0  0  0  0  0  0  0  0  0
   26.4199  -21.2366  -13.5245 C   0  0  1  0  0  0  0  0  0  0  0  0
   27.1361  -20.5534  -12.4329 C   0  0  0  0  0  0  0  0  0  0  0  0
   26.4963  -20.4438  -11.1332 C   0  0  0  0  0  0  0  0  0  0  0  0
   25.7324  -19.3818  -10.7215 C   0  0  0  0  0  0  0  0  0  0  0  0
   25.1583  -19.3828   -9.4779 C   0  0  0  0  0  0  0  0  0  0  0  0
   25.3258  -20.4370   -8.6080 C   0  0  0  0  0  0  0  0  0  0  0  0
   26.0877  -21.5184   -8.9928 C   0  0  0  0  0  0  0  0  0  0  0  0
   26.6560  -21.4980  -10.2467 C   0  0  0  0  0  0  0  0  0  0  0  0
   25.0492  -20.6917  -13.6657 C   0  0  0  0  0  0  0  0  0  0  0  0
   24.9235  -19.5325  -14.1326 O   0  0  0  0  0  0  0  0  0  0  0  0
   23.8921  -21.4164  -13.3000 N   0  0  0  0  0  0  0  0  0  0  0  0
   22.5815  -20.7830  -13.4971 C   0  0  1  0  0  0  0  0  0  0  0  0
   21.6910  -21.6814  -14.2879 C   0  0  0  0  0  0  0  0  0  0  0  0
   20.3533  -21.0846  -14.4635 C   0  0  0  0  0  0  0  0  0  0  0  0
   20.0037  -19.7556  -14.1298 C   0  0  0  0  0  0  0  0  0  0  0  0
   18.7124  -19.5482  -14.4188 N   0  0  0  0  0  0  0  0  0  0  0  0
   18.2194  -20.6785  -14.9206 C   0  0  0  0  0  0  0  0  0  0  0  0
   19.1969  -21.5732  -14.9405 N   0  0  0  0  0  0  0  0  0  0  0  0
   22.0486  -20.5608  -12.1455 C   0  0  0  0  0  0  0  0  0  0  0  0
   21.1594  -19.5254  -11.9105 O   0  0  0  0  0  0  0  0  0  0  0  0
   22.3713  -21.2797  -11.1877 O   0  0  0  0  0  0  0  0  0  0  0  0
  1  5  1  0
  2  1  1  0
  3  2  1  0
  3  4  1  0
  5  4  1  0
  6  7  2  0
  5  6  1  1
  8  6  1  0
  9  8  1  0
  9 10  1  1
 11 10  1  0
 12 11  2  0
 13 12  1  0
 14 15  1  0
 14 13  2  0
 15 16  2  0
 16 11  1  0
 17  9  1  0
 17 18  2  0
 19 20  1  0
 19 17  1  0
 20 21  1  6
 21 22  1  0
 22 23  2  0
 22 26  1  0
 23 24  1  0
 24 25  1  0
 26 25  2  0
 27 20  1  0
 28 27  1  0
 29 27  2  0
M  END
$$$$
