PFH.pdb
     RDKit          3D

 29 31  0  0  1  0  0  0  0  0999 V2000
   38.6336  -25.2918    4.8376 N   0  0  0  0  0  0  0  0  0  0  0  0
   39.8116  -24.9978    4.0581 C   0  0  0  0  0  0  0  0  0  0  0  0
   40.3071  -23.6457    4.5047 C   0  0  0  0  0  0  0  0  0  0  0  0
   39.7020  -23.4319    5.8601 C   0  0  0  0  0  0  0  0  0  0  0  0
   38.7422  -24.5656    6.0743 C   0  0  1  0  0  0  0  0  0  0  0  0
   37.4198  -24.1038    6.5731 C   0  0  0  0  0  0  0  0  0  0  0  0
   37.3676  -23.5011    7.6656 O   0  0  0  0  0  0  0  0  0  0  0  0
   36.2035  -24.3124    5.8695 N   0  0  0  0  0  0  0  0  0  0  0  0
   34.8911  -24.0776    6.4474 C   0  0  1  0  0  0  0  0  0  0  0  0
   33.9167  -23.5975    5.4517 C   0  0  0  0  0  0  0  0  0  0  0  0
   33.7905  -22.1683    5.2243 C   0  0  0  0  0  0  0  0  0  0  0  0
   33.2620  -21.2747    6.1205 C   0  0  0  0  0  0  0  0  0  0  0  0
   33.2024  -19.9408    5.8148 C   0  0  0  0  0  0  0  0  0  0  0  0
   33.6653  -19.4561    4.6119 C   0  0  0  0  0  0  0  0  0  0  0  0
   34.2018  -20.3290    3.6910 C   0  0  0  0  0  0  0  0  0  0  0  0
   34.2526  -21.6657    4.0174 C   0  0  0  0  0  0  0  0  0  0  0  0
   34.3748  -25.2824    7.1385 C   0  0  0  0  0  0  0  0  0  0  0  0
   34.8149  -26.4013    6.7753 O   0  0  0  0  0  0  0  0  0  0  0  0
   33.4185  -25.2225    8.1775 N   0  0  0  0  0  0  0  0  0  0  0  0
   33.4489  -26.2629    9.2140 C   0  0  1  0  0  0  0  0  0  0  0  0
   34.7436  -26.2131    9.9535 C   0  0  0  0  0  0  0  0  0  0  0  0
   34.7834  -27.2256   11.0256 C   0  0  0  0  0  0  0  0  0  0  0  0
   35.0833  -28.5954   10.8421 C   0  0  0  0  0  0  0  0  0  0  0  0
   35.0309  -29.2255   12.0229 N   0  0  0  0  0  0  0  0  0  0  0  0
   34.7126  -28.3265   12.9519 C   0  0  0  0  0  0  0  0  0  0  0  0
   34.5702  -27.1546   12.3496 N   0  0  0  0  0  0  0  0  0  0  0  0
   32.3170  -25.9621   10.1018 C   0  0  0  0  0  0  0  0  0  0  0  0
   31.8832  -24.6560   10.2568 O   0  0  0  0  0  0  0  0  0  0  0  0
   31.7232  -26.8511   10.7306 O   0  0  0  0  0  0  0  0  0  0  0  0
  1  5  1  0
  2  1  1  0
  3  2  1  0
  3  4  1  0
  5  4  1  0
  6  7  2  0
  5  6  1  6
  8  6  1  0
  9  8  1  0
  9 10  1  6
 11 10  1  0
 12 11  2  0
 13 12  1  0
 14 15  1  0
 14 13  2  0
 15 16  2  0
 16 11  1  0
 17  9  1  0
 17 18  2  0
 19 20  1  0
 19 17  1  0
 20 21  1  1
 21 22  1  0
 22 23  2  0
 22 26  1  0
 23 24  1  0
 24 25  1  0
 26 25  2  0
 27 20  1  0
 28 27  1  0
 29 27  2  0
M  END
$$$$
