PFH.pdb
     RDKit          3D

 29 31  0  0  1  0  0  0  0  0999 V2000
   34.1492  -28.3754  -19.4655 N   0  0  0  0  0  0  0  0  0  0  0  0
   34.8489  -29.2377  -20.3865 C   0  0  0  0  0  0  0  0  0  0  0  0
   33.8659  -30.2888  -20.8366 C   0  0  0  0  0  0  0  0  0  0  0  0
   32.5119  -29.7084  -20.5557 C   0  0  0  0  0  0  0  0  0  0  0  0
   32.7504  -28.4375  -19.7940 C   0  0  1  0  0  0  0  0  0  0  0  0
   31.8846  -28.3257  -18.5903 C   0  0  0  0  0  0  0  0  0  0  0  0
   32.3175  -28.7494  -17.4983 O   0  0  0  0  0  0  0  0  0  0  0  0
   30.5822  -27.7591  -18.6151 N   0  0  0  0  0  0  0  0  0  0  0  0
   29.7592  -27.5856  -17.4301 C   0  0  1  0  0  0  0  0  0  0  0  0
   29.6932  -26.1800  -16.9929 C   0  0  0  0  0  0  0  0  0  0  0  0
   30.9023  -25.5375  -16.5078 C   0  0  0  0  0  0  0  0  0  0  0  0
   31.4963  -25.7939  -15.2984 C   0  0  0  0  0  0  0  0  0  0  0  0
   32.6474  -25.1433  -14.9407 C   0  0  0  0  0  0  0  0  0  0  0  0
   33.2414  -24.2203  -15.7722 C   0  0  0  0  0  0  0  0  0  0  0  0
   32.6685  -23.9413  -16.9937 C   0  0  0  0  0  0  0  0  0  0  0  0
   31.5118  -24.6059  -17.3345 C   0  0  0  0  0  0  0  0  0  0  0  0
   28.3958  -28.1316  -17.6271 C   0  0  0  0  0  0  0  0  0  0  0  0
   27.9613  -28.2157  -18.8025 O   0  0  0  0  0  0  0  0  0  0  0  0
   27.5754  -28.5561  -16.5573 N   0  0  0  0  0  0  0  0  0  0  0  0
   26.3244  -29.2577  -16.8739 C   0  0  1  0  0  0  0  0  0  0  0  0
   25.9151  -30.1201  -15.7275 C   0  0  0  0  0  0  0  0  0  0  0  0
   26.7628  -31.3241  -15.6380 C   0  0  0  0  0  0  0  0  0  0  0  0
   27.7580  -31.6915  -16.5732 C   0  0  0  0  0  0  0  0  0  0  0  0
   28.3333  -32.8372  -16.1854 N   0  0  0  0  0  0  0  0  0  0  0  0
   27.7553  -33.2203  -15.0489 C   0  0  0  0  0  0  0  0  0  0  0  0
   26.8333  -32.3199  -14.7397 N   0  0  0  0  0  0  0  0  0  0  0  0
   25.3358  -28.1991  -17.1229 C   0  0  0  0  0  0  0  0  0  0  0  0
   24.1831  -28.4787  -17.8379 O   0  0  0  0  0  0  0  0  0  0  0  0
   25.4976  -27.0412  -16.7090 O   0  0  0  0  0  0  0  0  0  0  0  0
  1  5  1  0
  2  1  1  0
  3  2  1  0
  3  4  1  0
  5  4  1  0
  6  7  2  0
  5  6  1  1
  8  6  1  0
  9  8  1  0
  9 10  1  6
 11 10  1  0
 12 11  2  0
 13 12  1  0
 14 15  1  0
 14 13  2  0
 15 16  2  0
 16 11  1  0
 17  9  1  0
 17 18  2  0
 19 20  1  0
 19 17  1  0
 20 21  1  1
 21 22  1  0
 22 23  2  0
 22 26  1  0
 23 24  1  0
 24 25  1  0
 26 25  2  0
 27 20  1  0
 28 27  1  0
 29 27  2  0
M  END
$$$$
