PFH.pdb
     RDKit          3D

 29 31  0  0  1  0  0  0  0  0999 V2000
   27.1158  -18.6674  -14.7314 N   0  0  0  0  0  0  0  0  0  0  0  0
   28.3665  -17.9835  -14.9541 C   0  0  0  0  0  0  0  0  0  0  0  0
   29.4639  -18.9265  -14.5298 C   0  0  0  0  0  0  0  0  0  0  0  0
   28.8416  -20.2908  -14.5512 C   0  0  0  0  0  0  0  0  0  0  0  0
   27.3774  -20.0797  -14.8038 C   0  0  1  0  0  0  0  0  0  0  0  0
   26.5218  -20.8587  -13.8700 C   0  0  0  0  0  0  0  0  0  0  0  0
   26.5279  -22.1050  -13.9484 O   0  0  0  0  0  0  0  0  0  0  0  0
   25.6916  -20.2579  -12.8862 N   0  0  0  0  0  0  0  0  0  0  0  0
   24.7840  -21.0080  -12.0345 C   0  0  1  0  0  0  0  0  0  0  0  0
   24.6237  -20.3927  -10.7052 C   0  0  0  0  0  0  0  0  0  0  0  0
   25.7533  -20.3885   -9.7919 C   0  0  0  0  0  0  0  0  0  0  0  0
   25.8223  -19.6597   -8.6321 C   0  0  0  0  0  0  0  0  0  0  0  0
   26.9298  -19.7382   -7.8299 C   0  0  0  0  0  0  0  0  0  0  0  0
   27.9997  -20.5416   -8.1555 C   0  0  0  0  0  0  0  0  0  0  0  0
   27.9601  -21.2859   -9.3142 C   0  0  0  0  0  0  0  0  0  0  0  0
   26.8380  -21.1930  -10.1066 C   0  0  0  0  0  0  0  0  0  0  0  0
   23.4637  -21.2007  -12.6789 C   0  0  0  0  0  0  0  0  0  0  0  0
   22.9262  -20.2056  -13.2250 O   0  0  0  0  0  0  0  0  0  0  0  0
   22.7939  -22.4452  -12.7029 N   0  0  0  0  0  0  0  0  0  0  0  0
   21.5963  -22.5763  -13.5431 C   0  0  1  0  0  0  0  0  0  0  0  0
   21.4180  -23.9961  -13.9648 C   0  0  0  0  0  0  0  0  0  0  0  0
   22.5060  -24.4248  -14.8641 C   0  0  0  0  0  0  0  0  0  0  0  0
   23.5942  -25.2476  -14.4920 C   0  0  0  0  0  0  0  0  0  0  0  0
   24.3918  -25.4383  -15.5511 N   0  0  0  0  0  0  0  0  0  0  0  0
   23.8673  -24.7783  -16.5815 C   0  0  0  0  0  0  0  0  0  0  0  0
   22.7580  -24.1870  -16.1615 N   0  0  0  0  0  0  0  0  0  0  0  0
   20.4784  -22.1267  -12.7015 C   0  0  0  0  0  0  0  0  0  0  0  0
   19.2455  -21.8547  -13.2707 O   0  0  0  0  0  0  0  0  0  0  0  0
   20.5993  -21.9783  -11.4761 O   0  0  0  0  0  0  0  0  0  0  0  0
  1  5  1  0
  2  1  1  0
  3  2  1  0
  3  4  1  0
  5  4  1  0
  6  7  2  0
  5  6  1  1
  8  6  1  0
  9  8  1  0
  9 10  1  1
 11 10  1  0
 12 11  2  0
 13 12  1  0
 14 15  1  0
 14 13  2  0
 15 16  2  0
 16 11  1  0
 17  9  1  0
 17 18  2  0
 19 20  1  0
 19 17  1  0
 20 21  1  1
 21 22  1  0
 22 23  2  0
 22 26  1  0
 23 24  1  0
 24 25  1  0
 26 25  2  0
 27 20  1  0
 28 27  1  0
 29 27  2  0
M  END
$$$$
