PFH.pdb
     RDKit          3D

 29 31  0  0  1  0  0  0  0  0999 V2000
   26.3237  -18.1758  -14.8453 N   0  0  0  0  0  0  0  0  0  0  0  0
   27.4659  -17.3234  -14.6207 C   0  0  0  0  0  0  0  0  0  0  0  0
   28.6942  -18.1794  -14.7993 C   0  0  0  0  0  0  0  0  0  0  0  0
   28.2389  -19.3589  -15.6059 C   0  0  0  0  0  0  0  0  0  0  0  0
   26.7462  -19.2443  -15.7104 C   0  0  1  0  0  0  0  0  0  0  0  0
   26.0553  -20.5242  -15.4017 C   0  0  0  0  0  0  0  0  0  0  0  0
   26.2646  -21.5117  -16.1369 O   0  0  0  0  0  0  0  0  0  0  0  0
   25.1634  -20.6861  -14.3079 N   0  0  0  0  0  0  0  0  0  0  0  0
   24.4154  -21.9061  -14.0555 C   0  0  1  0  0  0  0  0  0  0  0  0
   24.6722  -22.4547  -12.7122 C   0  0  0  0  0  0  0  0  0  0  0  0
   25.3888  -21.6404  -11.7458 C   0  0  0  0  0  0  0  0  0  0  0  0
   26.7529  -21.5115  -11.6861 C   0  0  0  0  0  0  0  0  0  0  0  0
   27.3313  -20.7036  -10.7433 C   0  0  0  0  0  0  0  0  0  0  0  0
   26.5731  -20.0011   -9.8335 C   0  0  0  0  0  0  0  0  0  0  0  0
   25.2002  -20.1100   -9.8682 C   0  0  0  0  0  0  0  0  0  0  0  0
   24.6384  -20.9271  -10.8234 C   0  0  0  0  0  0  0  0  0  0  0  0
   22.9618  -21.7091  -14.2654 C   0  0  0  0  0  0  0  0  0  0  0  0
   22.2105  -22.7083  -14.1447 O   0  0  0  0  0  0  0  0  0  0  0  0
   22.3948  -20.4562  -14.5921 N   0  0  0  0  0  0  0  0  0  0  0  0
   20.9335  -20.3609  -14.7070 C   0  0  1  0  0  0  0  0  0  0  0  0
   20.4008  -19.4005  -13.6975 C   0  0  0  0  0  0  0  0  0  0  0  0
   20.2942  -20.0305  -12.3679 C   0  0  0  0  0  0  0  0  0  0  0  0
   20.5684  -21.3887  -12.0853 C   0  0  0  0  0  0  0  0  0  0  0  0
   20.3708  -21.6217  -10.7812 N   0  0  0  0  0  0  0  0  0  0  0  0
   19.9838  -20.4800  -10.2163 C   0  0  0  0  0  0  0  0  0  0  0  0
   19.9435  -19.5531  -11.1627 N   0  0  0  0  0  0  0  0  0  0  0  0
   20.6800  -19.8895  -16.0758 C   0  0  0  0  0  0  0  0  0  0  0  0
   19.3817  -19.7928  -16.5483 O   0  0  0  0  0  0  0  0  0  0  0  0
   21.6029  -19.5685  -16.8397 O   0  0  0  0  0  0  0  0  0  0  0  0
  1  5  1  0
  2  1  1  0
  3  2  1  0
  3  4  1  0
  5  4  1  0
  6  7  2  0
  5  6  1  1
  8  6  1  0
  9  8  1  0
  9 10  1  1
 11 10  1  0
 12 11  2  0
 13 12  1  0
 14 15  1  0
 14 13  2  0
 15 16  2  0
 16 11  1  0
 17  9  1  0
 17 18  2  0
 19 20  1  0
 19 17  1  0
 20 21  1  1
 21 22  1  0
 22 23  2  0
 22 26  1  0
 23 24  1  0
 24 25  1  0
 26 25  2  0
 27 20  1  0
 28 27  1  0
 29 27  2  0
M  END
$$$$
