PFH.pdb
     RDKit          3D

 29 31  0  0  1  0  0  0  0  0999 V2000
   21.0839  -11.0620  -18.8704 N   0  0  0  0  0  0  0  0  0  0  0  0
   21.7466  -12.2511  -19.3483 C   0  0  0  0  0  0  0  0  0  0  0  0
   21.5159  -13.3265  -18.3170 C   0  0  0  0  0  0  0  0  0  0  0  0
   20.3198  -12.8725  -17.5346 C   0  0  0  0  0  0  0  0  0  0  0  0
   20.0119  -11.4822  -18.0086 C   0  0  1  0  0  0  0  0  0  0  0  0
   19.7901  -10.5349  -16.8842 C   0  0  0  0  0  0  0  0  0  0  0  0
   18.9060  -10.7987  -16.0426 O   0  0  0  0  0  0  0  0  0  0  0  0
   20.5346   -9.3371  -16.7139 N   0  0  0  0  0  0  0  0  0  0  0  0
   20.3743   -8.4467  -15.5767 C   0  0  1  0  0  0  0  0  0  0  0  0
   21.6510   -8.1716  -14.8944 C   0  0  0  0  0  0  0  0  0  0  0  0
   21.9115   -8.8001  -13.6109 C   0  0  0  0  0  0  0  0  0  0  0  0
   21.2609   -8.4971  -12.4421 C   0  0  0  0  0  0  0  0  0  0  0  0
   21.5711   -9.1611  -11.2849 C   0  0  0  0  0  0  0  0  0  0  0  0
   22.5350  -10.1440  -11.2545 C   0  0  0  0  0  0  0  0  0  0  0  0
   23.2060  -10.4709  -12.4125 C   0  0  0  0  0  0  0  0  0  0  0  0
   22.8795   -9.7919  -13.5649 C   0  0  0  0  0  0  0  0  0  0  0  0
   19.7103   -7.1799  -15.9639 C   0  0  0  0  0  0  0  0  0  0  0  0
   20.0602   -6.6395  -17.0424 O   0  0  0  0  0  0  0  0  0  0  0  0
   18.7109   -6.5636  -15.1770 N   0  0  0  0  0  0  0  0  0  0  0  0
   18.1082   -5.3167  -15.6666 C   0  0  1  0  0  0  0  0  0  0  0  0
   16.8243   -5.0529  -14.9543 C   0  0  0  0  0  0  0  0  0  0  0  0
   16.1825   -3.8215  -15.4525 C   0  0  0  0  0  0  0  0  0  0  0  0
   16.8018   -2.5524  -15.5265 C   0  0  0  0  0  0  0  0  0  0  0  0
   15.9349   -1.6615  -16.0254 N   0  0  0  0  0  0  0  0  0  0  0  0
   14.7924   -2.2982  -16.2739 C   0  0  0  0  0  0  0  0  0  0  0  0
   14.9538   -3.5684  -15.9316 N   0  0  0  0  0  0  0  0  0  0  0  0
   19.0985   -4.2680  -15.3847 C   0  0  0  0  0  0  0  0  0  0  0  0
   19.3167   -3.2534  -16.3018 O   0  0  0  0  0  0  0  0  0  0  0  0
   19.7598   -4.2564  -14.3355 O   0  0  0  0  0  0  0  0  0  0  0  0
  1  5  1  0
  2  1  1  0
  3  2  1  0
  3  4  1  0
  5  4  1  0
  6  7  2  0
  5  6  1  1
  8  6  1  0
  9  8  1  0
  9 10  1  6
 11 10  1  0
 12 11  2  0
 13 12  1  0
 14 15  1  0
 14 13  2  0
 15 16  2  0
 16 11  1  0
 17  9  1  0
 17 18  2  0
 19 20  1  0
 19 17  1  0
 20 21  1  1
 21 22  1  0
 22 23  2  0
 22 26  1  0
 23 24  1  0
 24 25  1  0
 26 25  2  0
 27 20  1  0
 28 27  1  0
 29 27  2  0
M  END
$$$$
