PFH.pdb
     RDKit          3D

 29 31  0  0  1  0  0  0  0  0999 V2000
   27.5141  -18.2865  -14.9107 N   0  0  0  0  0  0  0  0  0  0  0  0
   28.7907  -17.8066  -15.3813 C   0  0  0  0  0  0  0  0  0  0  0  0
   29.6621  -19.0179  -15.5977 C   0  0  0  0  0  0  0  0  0  0  0  0
   28.7109  -20.1700  -15.7268 C   0  0  0  0  0  0  0  0  0  0  0  0
   27.3496  -19.6282  -15.4019 C   0  0  1  0  0  0  0  0  0  0  0  0
   26.6086  -20.4908  -14.4440 C   0  0  0  0  0  0  0  0  0  0  0  0
   26.2637  -21.6342  -14.8089 O   0  0  0  0  0  0  0  0  0  0  0  0
   26.2690  -20.0822  -13.1265 N   0  0  0  0  0  0  0  0  0  0  0  0
   25.3914  -20.8409  -12.2515 C   0  0  1  0  0  0  0  0  0  0  0  0
   25.8511  -20.8339  -10.8516 C   0  0  0  0  0  0  0  0  0  0  0  0
   27.2624  -21.0380  -10.5744 C   0  0  0  0  0  0  0  0  0  0  0  0
   27.8802  -20.7394   -9.3868 C   0  0  0  0  0  0  0  0  0  0  0  0
   29.2174  -20.9855   -9.2211 C   0  0  0  0  0  0  0  0  0  0  0  0
   29.9791  -21.5345  -10.2283 C   0  0  0  0  0  0  0  0  0  0  0  0
   29.3871  -21.8453  -11.4328 C   0  0  0  0  0  0  0  0  0  0  0  0
   28.0420  -21.5903  -11.5793 C   0  0  0  0  0  0  0  0  0  0  0  0
   23.9901  -20.3672  -12.3391 C   0  0  0  0  0  0  0  0  0  0  0  0
   23.7953  -19.1377  -12.5056 O   0  0  0  0  0  0  0  0  0  0  0  0
   22.8778  -21.2342  -12.2438 N   0  0  0  0  0  0  0  0  0  0  0  0
   21.6979  -20.9481  -13.0707 C   0  0  1  0  0  0  0  0  0  0  0  0
   21.8613  -21.5524  -14.4248 C   0  0  0  0  0  0  0  0  0  0  0  0
   20.7068  -21.2417  -15.2890 C   0  0  0  0  0  0  0  0  0  0  0  0
   19.5798  -20.4807  -14.9010 C   0  0  0  0  0  0  0  0  0  0  0  0
   18.7248  -20.3942  -15.9284 N   0  0  0  0  0  0  0  0  0  0  0  0
   19.2493  -21.0622  -16.9537 C   0  0  0  0  0  0  0  0  0  0  0  0
   20.4155  -21.5551  -16.5620 N   0  0  0  0  0  0  0  0  0  0  0  0
   20.5642  -21.5483  -12.3533 C   0  0  0  0  0  0  0  0  0  0  0  0
   19.3568  -20.8746  -12.2740 O   0  0  0  0  0  0  0  0  0  0  0  0
   20.6491  -22.6575  -11.8050 O   0  0  0  0  0  0  0  0  0  0  0  0
  1  5  1  0
  2  1  1  0
  3  2  1  0
  3  4  1  0
  5  4  1  0
  6  7  2  0
  5  6  1  1
  8  6  1  0
  9  8  1  0
  9 10  1  1
 11 10  1  0
 12 11  2  0
 13 12  1  0
 14 15  1  0
 14 13  2  0
 15 16  2  0
 16 11  1  0
 17  9  1  0
 17 18  2  0
 19 20  1  0
 19 17  1  0
 20 21  1  6
 21 22  1  0
 22 23  2  0
 22 26  1  0
 23 24  1  0
 24 25  1  0
 26 25  2  0
 27 20  1  0
 28 27  1  0
 29 27  2  0
M  END
$$$$
