PFH.pdb
     RDKit          3D

 29 31  0  0  1  0  0  0  0  0999 V2000
   28.0001  -20.9242  -16.8532 N   0  0  0  0  0  0  0  0  0  0  0  0
   29.1997  -21.1591  -17.6195 C   0  0  0  0  0  0  0  0  0  0  0  0
   29.7109  -22.5224  -17.2275 C   0  0  0  0  0  0  0  0  0  0  0  0
   28.5303  -23.2299  -16.6318 C   0  0  0  0  0  0  0  0  0  0  0  0
   27.4367  -22.2073  -16.5294 C   0  0  1  0  0  0  0  0  0  0  0  0
   26.7778  -22.2118  -15.1965 C   0  0  0  0  0  0  0  0  0  0  0  0
   26.0025  -23.1491  -14.9134 O   0  0  0  0  0  0  0  0  0  0  0  0
   26.9835  -21.2006  -14.2202 N   0  0  0  0  0  0  0  0  0  0  0  0
   26.3374  -21.1977  -12.9186 C   0  0  1  0  0  0  0  0  0  0  0  0
   27.2041  -20.6454  -11.8626 C   0  0  0  0  0  0  0  0  0  0  0  0
   26.6863  -20.5464  -10.5089 C   0  0  0  0  0  0  0  0  0  0  0  0
   26.7240  -21.5533   -9.5785 C   0  0  0  0  0  0  0  0  0  0  0  0
   26.2210  -21.3527   -8.3204 C   0  0  0  0  0  0  0  0  0  0  0  0
   25.6666  -20.1478   -7.9499 C   0  0  0  0  0  0  0  0  0  0  0  0
   25.6143  -19.1170   -8.8624 C   0  0  0  0  0  0  0  0  0  0  0  0
   26.1252  -19.3389  -10.1215 C   0  0  0  0  0  0  0  0  0  0  0  0
   25.0416  -20.4798  -12.9535 C   0  0  0  0  0  0  0  0  0  0  0  0
   25.0239  -19.3238  -13.4442 O   0  0  0  0  0  0  0  0  0  0  0  0
   23.8396  -21.0382  -12.4623 N   0  0  0  0  0  0  0  0  0  0  0  0
   22.5666  -20.5048  -12.9648 C   0  0  1  0  0  0  0  0  0  0  0  0
   22.0397  -21.3758  -14.0553 C   0  0  0  0  0  0  0  0  0  0  0  0
   20.7245  -20.9021  -14.5263 C   0  0  0  0  0  0  0  0  0  0  0  0
   20.0080  -19.8115  -13.9812 C   0  0  0  0  0  0  0  0  0  0  0  0
   18.8555  -19.6579  -14.6462 N   0  0  0  0  0  0  0  0  0  0  0  0
   18.7997  -20.5961  -15.5891 C   0  0  0  0  0  0  0  0  0  0  0  0
   19.9066  -21.3203  -15.5059 N   0  0  0  0  0  0  0  0  0  0  0  0
   21.6625  -20.4972  -11.8061 C   0  0  0  0  0  0  0  0  0  0  0  0
   22.0920  -20.9925  -10.5861 O   0  0  0  0  0  0  0  0  0  0  0  0
   20.5060  -20.0552  -11.8803 O   0  0  0  0  0  0  0  0  0  0  0  0
  1  5  1  0
  2  1  1  0
  3  2  1  0
  3  4  1  0
  5  4  1  0
  6  7  2  0
  5  6  1  1
  8  6  1  0
  9  8  1  0
  9 10  1  1
 11 10  1  0
 12 11  2  0
 13 12  1  0
 14 15  1  0
 14 13  2  0
 15 16  2  0
 16 11  1  0
 17  9  1  0
 17 18  2  0
 19 20  1  0
 19 17  1  0
 20 21  1  6
 21 22  1  0
 22 23  2  0
 22 26  1  0
 23 24  1  0
 24 25  1  0
 26 25  2  0
 27 20  1  0
 28 27  1  0
 29 27  2  0
M  END
$$$$
