PFH.pdb
     RDKit          3D

 29 31  0  0  1  0  0  0  0  0999 V2000
   40.0114  -24.3577    4.7936 N   0  0  0  0  0  0  0  0  0  0  0  0
   40.8454  -25.4728    4.4160 C   0  0  0  0  0  0  0  0  0  0  0  0
   40.0161  -26.7198    4.5906 C   0  0  0  0  0  0  0  0  0  0  0  0
   38.5917  -26.2509    4.5793 C   0  0  0  0  0  0  0  0  0  0  0  0
   38.6440  -24.7511    4.5843 C   0  0  1  0  0  0  0  0  0  0  0  0
   37.7267  -24.1541    5.5908 C   0  0  0  0  0  0  0  0  0  0  0  0
   38.2184  -23.5603    6.5733 O   0  0  0  0  0  0  0  0  0  0  0  0
   36.3111  -24.2228    5.4951 N   0  0  0  0  0  0  0  0  0  0  0  0
   35.4104  -23.5414    6.4094 C   0  0  1  0  0  0  0  0  0  0  0  0
   34.0312  -23.4761    5.8947 C   0  0  0  0  0  0  0  0  0  0  0  0
   33.5684  -22.2442    5.2793 C   0  0  0  0  0  0  0  0  0  0  0  0
   33.5090  -21.0268    5.9082 C   0  0  0  0  0  0  0  0  0  0  0  0
   33.0706  -19.9191    5.2322 C   0  0  0  0  0  0  0  0  0  0  0  0
   32.6791  -19.9878    3.9138 C   0  0  0  0  0  0  0  0  0  0  0  0
   32.7276  -21.1966    3.2548 C   0  0  0  0  0  0  0  0  0  0  0  0
   33.1711  -22.2980    3.9519 C   0  0  0  0  0  0  0  0  0  0  0  0
   35.4318  -24.1566    7.7572 C   0  0  0  0  0  0  0  0  0  0  0  0
   35.3556  -25.4080    7.8327 O   0  0  0  0  0  0  0  0  0  0  0  0
   35.5333  -23.3996    8.9466 N   0  0  0  0  0  0  0  0  0  0  0  0
   35.6413  -24.1181   10.2232 C   0  0  1  0  0  0  0  0  0  0  0  0
   36.2075  -23.2201   11.2714 C   0  0  0  0  0  0  0  0  0  0  0  0
   36.4311  -23.9502   12.5336 C   0  0  0  0  0  0  0  0  0  0  0  0
   36.2977  -25.3480   12.7011 C   0  0  0  0  0  0  0  0  0  0  0  0
   36.5740  -25.6735   13.9707 N   0  0  0  0  0  0  0  0  0  0  0  0
   36.8774  -24.5532   14.6228 C   0  0  0  0  0  0  0  0  0  0  0  0
   36.7889  -23.5478   13.7638 N   0  0  0  0  0  0  0  0  0  0  0  0
   34.2698  -24.5275   10.5574 C   0  0  0  0  0  0  0  0  0  0  0  0
   34.0439  -25.7172   11.2295 O   0  0  0  0  0  0  0  0  0  0  0  0
   33.2870  -23.8344   10.2544 O   0  0  0  0  0  0  0  0  0  0  0  0
  1  5  1  0
  2  1  1  0
  3  2  1  0
  3  4  1  0
  5  4  1  0
  6  7  2  0
  5  6  1  1
  8  6  1  0
  9  8  1  0
  9 10  1  6
 11 10  1  0
 12 11  2  0
 13 12  1  0
 14 15  1  0
 14 13  2  0
 15 16  2  0
 16 11  1  0
 17  9  1  0
 17 18  2  0
 19 20  1  0
 19 17  1  0
 20 21  1  1
 21 22  1  0
 22 23  2  0
 22 26  1  0
 23 24  1  0
 24 25  1  0
 26 25  2  0
 27 20  1  0
 28 27  1  0
 29 27  2  0
M  END
$$$$
