PFH.pdb
     RDKit          3D

 29 31  0  0  1  0  0  0  0  0999 V2000
   27.9655  -20.7582  -17.3215 N   0  0  0  0  0  0  0  0  0  0  0  0
   29.2271  -20.7382  -18.0213 C   0  0  0  0  0  0  0  0  0  0  0  0
   30.0282  -21.9110  -17.5151 C   0  0  0  0  0  0  0  0  0  0  0  0
   29.0211  -22.8486  -16.9189 C   0  0  0  0  0  0  0  0  0  0  0  0
   27.7098  -22.1187  -16.9317 C   0  0  1  0  0  0  0  0  0  0  0  0
   26.9984  -22.2061  -15.6289 C   0  0  0  0  0  0  0  0  0  0  0  0
   26.4493  -23.2832  -15.3159 O   0  0  0  0  0  0  0  0  0  0  0  0
   26.9086  -21.1230  -14.7140 N   0  0  0  0  0  0  0  0  0  0  0  0
   26.2098  -21.2018  -13.4424 C   0  0  1  0  0  0  0  0  0  0  0  0
   26.9540  -20.5489  -12.3511 C   0  0  0  0  0  0  0  0  0  0  0  0
   26.3775  -20.5344  -11.0178 C   0  0  0  0  0  0  0  0  0  0  0  0
   26.4080  -21.5861  -10.1380 C   0  0  0  0  0  0  0  0  0  0  0  0
   25.8470  -21.4649   -8.8943 C   0  0  0  0  0  0  0  0  0  0  0  0
   25.2402  -20.2974   -8.4884 C   0  0  0  0  0  0  0  0  0  0  0  0
   25.1937  -19.2231   -9.3497 C   0  0  0  0  0  0  0  0  0  0  0  0
   25.7632  -19.3653  -10.5952 C   0  0  0  0  0  0  0  0  0  0  0  0
   24.8383  -20.6489  -13.5375 C   0  0  0  0  0  0  0  0  0  0  0  0
   24.7075  -19.4723  -13.9572 O   0  0  0  0  0  0  0  0  0  0  0  0
   23.6859  -21.3846  -13.1789 N   0  0  0  0  0  0  0  0  0  0  0  0
   22.3701  -20.7689  -13.3963 C   0  0  1  0  0  0  0  0  0  0  0  0
   21.5703  -21.5905  -14.3507 C   0  0  0  0  0  0  0  0  0  0  0  0
   20.2583  -20.9707  -14.6166 C   0  0  0  0  0  0  0  0  0  0  0  0
   20.0513  -19.6122  -14.9501 C   0  0  0  0  0  0  0  0  0  0  0  0
   18.7419  -19.3900  -15.1240 N   0  0  0  0  0  0  0  0  0  0  0  0
   18.1018  -20.5391  -14.9182 C   0  0  0  0  0  0  0  0  0  0  0  0
   19.0075  -21.4597  -14.6205 N   0  0  0  0  0  0  0  0  0  0  0  0
   21.7363  -20.7251  -12.0710 C   0  0  0  0  0  0  0  0  0  0  0  0
   20.7925  -19.7532  -11.7836 O   0  0  0  0  0  0  0  0  0  0  0  0
   22.0202  -21.5418  -11.1818 O   0  0  0  0  0  0  0  0  0  0  0  0
  1  5  1  0
  2  1  1  0
  3  2  1  0
  3  4  1  0
  5  4  1  0
  6  7  2  0
  5  6  1  1
  8  6  1  0
  9  8  1  0
  9 10  1  1
 11 10  1  0
 12 11  2  0
 13 12  1  0
 14 15  1  0
 14 13  2  0
 15 16  2  0
 16 11  1  0
 17  9  1  0
 17 18  2  0
 19 20  1  0
 19 17  1  0
 20 21  1  6
 21 22  1  0
 22 23  2  0
 22 26  1  0
 23 24  1  0
 24 25  1  0
 26 25  2  0
 27 20  1  0
 28 27  1  0
 29 27  2  0
M  END
$$$$
