PFH.pdb
     RDKit          3D

 29 31  0  0  1  0  0  0  0  0999 V2000
   31.2232  -20.9076   -9.9356 N   0  0  0  0  0  0  0  0  0  0  0  0
   32.5869  -21.2199   -9.5829 C   0  0  0  0  0  0  0  0  0  0  0  0
   32.5460  -22.4632   -8.7310 C   0  0  0  0  0  0  0  0  0  0  0  0
   31.2260  -23.1067   -9.0354 C   0  0  0  0  0  0  0  0  0  0  0  0
   30.4762  -22.1362   -9.9003 C   0  0  1  0  0  0  0  0  0  0  0  0
   29.0768  -21.9304   -9.4418 C   0  0  0  0  0  0  0  0  0  0  0  0
   28.3343  -22.9264   -9.3148 O   0  0  0  0  0  0  0  0  0  0  0  0
   28.5344  -20.6530   -9.1381 N   0  0  0  0  0  0  0  0  0  0  0  0
   27.1547  -20.4419   -8.7339 C   0  0  1  0  0  0  0  0  0  0  0  0
   27.0220  -19.3780   -7.7231 C   0  0  0  0  0  0  0  0  0  0  0  0
   27.7090  -19.5269   -6.4518 C   0  0  0  0  0  0  0  0  0  0  0  0
   28.5491  -18.5940   -5.8995 C   0  0  0  0  0  0  0  0  0  0  0  0
   29.1370  -18.8250   -4.6841 C   0  0  0  0  0  0  0  0  0  0  0  0
   28.9082  -19.9876   -3.9826 C   0  0  0  0  0  0  0  0  0  0  0  0
   28.0691  -20.9439   -4.5112 C   0  0  0  0  0  0  0  0  0  0  0  0
   27.4881  -20.6925   -5.7339 C   0  0  0  0  0  0  0  0  0  0  0  0
   26.2811  -20.1627   -9.8977 C   0  0  0  0  0  0  0  0  0  0  0  0
   26.4776  -19.1001  -10.5377 O   0  0  0  0  0  0  0  0  0  0  0  0
   25.2481  -21.0347  -10.3106 N   0  0  0  0  0  0  0  0  0  0  0  0
   24.6253  -20.8064  -11.6212 C   0  0  1  0  0  0  0  0  0  0  0  0
   24.6854  -22.0507  -12.4419 C   0  0  0  0  0  0  0  0  0  0  0  0
   23.9658  -21.8815  -13.7185 C   0  0  0  0  0  0  0  0  0  0  0  0
   24.4860  -21.2450  -14.8692 C   0  0  0  0  0  0  0  0  0  0  0  0
   23.5687  -21.2681  -15.8449 N   0  0  0  0  0  0  0  0  0  0  0  0
   22.4881  -21.8876  -15.3750 C   0  0  0  0  0  0  0  0  0  0  0  0
   22.7371  -22.2426  -14.1226 N   0  0  0  0  0  0  0  0  0  0  0  0
   23.2353  -20.4266  -11.3315 C   0  0  0  0  0  0  0  0  0  0  0  0
   22.4894  -19.7446  -12.2784 O   0  0  0  0  0  0  0  0  0  0  0  0
   22.6937  -20.6988  -10.2495 O   0  0  0  0  0  0  0  0  0  0  0  0
  1  5  1  0
  2  1  1  0
  3  2  1  0
  3  4  1  0
  5  4  1  0
  6  7  2  0
  5  6  1  1
  8  6  1  0
  9  8  1  0
  9 10  1  1
 11 10  1  0
 12 11  2  0
 13 12  1  0
 14 15  1  0
 14 13  2  0
 15 16  2  0
 16 11  1  0
 17  9  1  0
 17 18  2  0
 19 20  1  0
 19 17  1  0
 20 21  1  6
 21 22  1  0
 22 23  2  0
 22 26  1  0
 23 24  1  0
 24 25  1  0
 26 25  2  0
 27 20  1  0
 28 27  1  0
 29 27  2  0
M  END
$$$$
