PFH.pdb
     RDKit          3D

 29 31  0  0  1  0  0  0  0  0999 V2000
   24.4915  -32.5077   -3.0860 N   0  0  0  0  0  0  0  0  0  0  0  0
   24.9793  -32.3307   -4.4323 C   0  0  0  0  0  0  0  0  0  0  0  0
   26.3567  -32.9419   -4.4838 C   0  0  0  0  0  0  0  0  0  0  0  0
   26.4130  -33.8858   -3.3197 C   0  0  0  0  0  0  0  0  0  0  0  0
   25.1543  -33.6588   -2.5347 C   0  0  1  0  0  0  0  0  0  0  0  0
   25.4119  -33.5150   -1.0773 C   0  0  0  0  0  0  0  0  0  0  0  0
   26.0417  -34.4176   -0.4873 O   0  0  0  0  0  0  0  0  0  0  0  0
   24.9774  -32.3986   -0.3140 N   0  0  0  0  0  0  0  0  0  0  0  0
   25.2726  -32.2277    1.0985 C   0  0  1  0  0  0  0  0  0  0  0  0
   25.6733  -30.8479    1.4257 C   0  0  0  0  0  0  0  0  0  0  0  0
   25.8968  -30.4921    2.8163 C   0  0  0  0  0  0  0  0  0  0  0  0
   24.9831  -29.8614    3.6216 C   0  0  0  0  0  0  0  0  0  0  0  0
   25.2871  -29.5836    4.9280 C   0  0  0  0  0  0  0  0  0  0  0  0
   26.5056  -29.9234    5.4720 C   0  0  0  0  0  0  0  0  0  0  0  0
   27.4443  -30.5579    4.6882 C   0  0  0  0  0  0  0  0  0  0  0  0
   27.1192  -30.8282    3.3779 C   0  0  0  0  0  0  0  0  0  0  0  0
   24.1365  -32.6528    1.9495 C   0  0  0  0  0  0  0  0  0  0  0  0
   23.0157  -32.1269    1.7381 O   0  0  0  0  0  0  0  0  0  0  0  0
   24.2632  -33.6152    2.9770 N   0  0  0  0  0  0  0  0  0  0  0  0
   23.0782  -33.9326    3.7849 C   0  0  1  0  0  0  0  0  0  0  0  0
   23.0898  -35.3741    4.1689 C   0  0  0  0  0  0  0  0  0  0  0  0
   22.6232  -36.2247    3.0576 C   0  0  0  0  0  0  0  0  0  0  0  0
   22.3543  -35.7747    1.7443 C   0  0  0  0  0  0  0  0  0  0  0  0
   21.9502  -36.8072    0.9929 N   0  0  0  0  0  0  0  0  0  0  0  0
   21.9474  -37.8948    1.7609 C   0  0  0  0  0  0  0  0  0  0  0  0
   22.3458  -37.5359    2.9729 N   0  0  0  0  0  0  0  0  0  0  0  0
   23.1695  -33.0658    4.9683 C   0  0  0  0  0  0  0  0  0  0  0  0
   24.3022  -32.2981    5.1818 O   0  0  0  0  0  0  0  0  0  0  0  0
   22.2524  -32.9941    5.8001 O   0  0  0  0  0  0  0  0  0  0  0  0
  1  5  1  0
  2  1  1  0
  3  2  1  0
  3  4  1  0
  5  4  1  0
  6  7  2  0
  5  6  1  1
  8  6  1  0
  9  8  1  0
  9 10  1  6
 11 10  1  0
 12 11  2  0
 13 12  1  0
 14 15  1  0
 14 13  2  0
 15 16  2  0
 16 11  1  0
 17  9  1  0
 17 18  2  0
 19 20  1  0
 19 17  1  0
 20 21  1  1
 21 22  1  0
 22 23  2  0
 22 26  1  0
 23 24  1  0
 24 25  1  0
 26 25  2  0
 27 20  1  0
 28 27  1  0
 29 27  2  0
M  END
$$$$
