VEC.pdb
     RDKit          3D

 23 22  0  0  1  0  0  0  0  0999 V2000
   24.9221  -32.9056   -7.1830 C   0  0  0  0  0  0  0  0  0  0  0  0
   26.2714  -32.4852   -7.7262 C   0  0  2  0  0  0  0  0  0  0  0  0
   26.0199  -31.8207   -9.0691 C   0  0  0  0  0  0  0  0  0  0  0  0
   27.0999  -33.7222   -7.9998 C   0  0  2  0  0  0  0  0  0  0  0  0
   26.3224  -34.5663   -8.8945 N   0  0  0  0  0  0  0  0  0  0  0  0
   27.3992  -34.4793   -6.7561 C   0  0  0  0  0  0  0  0  0  0  0  0
   26.5753  -35.3160   -6.3069 O   0  0  0  0  0  0  0  0  0  0  0  0
   28.5927  -34.2795   -6.0647 N   0  0  0  0  0  0  0  0  0  0  0  0
   28.9136  -34.8521   -4.7512 C   0  0  1  0  0  0  0  0  0  0  0  0
   30.3568  -34.4573   -4.5298 C   0  0  0  0  0  0  0  0  0  0  0  0
   30.8455  -34.9521   -3.2250 C   0  0  0  0  0  0  0  0  0  0  0  0
   31.6083  -36.2382   -3.4602 C   0  0  0  0  0  0  0  0  0  0  0  0
   32.3550  -36.3576   -4.4620 O   0  0  0  0  0  0  0  0  0  0  0  0
   28.0088  -34.3991   -3.7167 C   0  0  0  0  0  0  0  0  0  0  0  0
   27.3185  -33.3470   -3.9774 O   0  0  0  0  0  0  0  0  0  0  0  0
   31.4511  -37.2535   -2.5451 O   0  0  0  0  0  0  0  0  0  0  0  0
   27.7646  -34.9563   -2.4423 N   0  0  0  0  0  0  0  0  0  0  0  0
   26.8343  -34.3853   -1.4901 C   0  0  1  0  0  0  0  0  0  0  0  0
   25.4024  -34.4869   -1.9606 C   0  0  0  0  0  0  0  0  0  0  0  0
   24.3452  -33.8606   -0.6179 S   0  0  0  0  0  0  0  0  0  0  0  0
   26.9120  -35.1061   -0.2055 C   0  0  0  0  0  0  0  0  0  0  0  0
   27.5756  -36.1637   -0.1261 O   0  0  0  0  0  0  0  0  0  0  0  0
   26.2628  -34.6384    0.9274 O   0  0  0  0  0  0  0  0  0  0  0  0
  2  1  1  6
  3  2  1  0
  4  5  1  6
  4  2  1  0
  6  7  2  0
  6  4  1  0
  8  6  1  0
  9  8  1  0
  9 14  1  0
  9 10  1  1
 11 10  1  0
 12 11  1  0
 13 12  2  0
 14 17  1  0
 15 14  2  0
 16 12  1  0
 17 18  1  0
 18 21  1  0
 18 19  1  6
 19 20  1  0
 21 22  2  0
 21 23  1  0
M  END
$$$$
