VEC.pdb
     RDKit          3D

 23 22  0  0  1  0  0  0  0  0999 V2000
   12.9574  -10.4523  -12.0890 C   0  0  0  0  0  0  0  0  0  0  0  0
   13.9488  -10.1131  -10.9961 C   0  0  2  0  0  0  0  0  0  0  0  0
   13.8780   -8.6102  -10.7858 C   0  0  0  0  0  0  0  0  0  0  0  0
   15.3477  -10.4195  -11.4870 C   0  0  2  0  0  0  0  0  0  0  0  0
   16.2428  -10.2568  -10.3512 N   0  0  0  0  0  0  0  0  0  0  0  0
   15.7713   -9.4988  -12.5745 C   0  0  0  0  0  0  0  0  0  0  0  0
   15.2302   -9.5614  -13.7076 O   0  0  0  0  0  0  0  0  0  0  0  0
   16.7715   -8.5517  -12.3631 N   0  0  0  0  0  0  0  0  0  0  0  0
   17.2791   -7.6190  -13.3774 C   0  0  1  0  0  0  0  0  0  0  0  0
   16.2952   -6.4710  -13.3345 C   0  0  0  0  0  0  0  0  0  0  0  0
   16.6676   -5.4199  -14.3055 C   0  0  0  0  0  0  0  0  0  0  0  0
   15.5464   -4.4043  -14.3590 C   0  0  0  0  0  0  0  0  0  0  0  0
   14.4158   -4.7313  -14.7952 O   0  0  0  0  0  0  0  0  0  0  0  0
   18.6523   -7.2334  -13.1332 C   0  0  0  0  0  0  0  0  0  0  0  0
   18.9122   -6.7335  -11.9782 O   0  0  0  0  0  0  0  0  0  0  0  0
   15.8145   -3.1293  -13.9169 O   0  0  0  0  0  0  0  0  0  0  0  0
   19.7698   -7.3327  -13.9909 N   0  0  0  0  0  0  0  0  0  0  0  0
   21.1223   -7.0259  -13.5729 C   0  0  1  0  0  0  0  0  0  0  0  0
   22.1545   -7.6055  -14.5114 C   0  0  0  0  0  0  0  0  0  0  0  0
   22.0072   -9.4176  -14.4264 S   0  0  0  0  0  0  0  0  0  0  0  0
   21.3333   -5.5660  -13.5581 C   0  0  0  0  0  0  0  0  0  0  0  0
   20.4989   -4.8125  -14.1072 O   0  0  0  0  0  0  0  0  0  0  0  0
   22.4422   -5.0010  -12.9460 O   0  0  0  0  0  0  0  0  0  0  0  0
  2  1  1  6
  3  2  1  0
  4  5  1  1
  4  2  1  0
  6  7  2  0
  6  4  1  0
  8  6  1  0
  9  8  1  0
  9 14  1  0
  9 10  1  1
 11 10  1  0
 12 11  1  0
 13 12  2  0
 14 17  1  0
 15 14  2  0
 16 12  1  0
 17 18  1  0
 18 21  1  0
 18 19  1  6
 19 20  1  0
 21 22  2  0
 21 23  1  0
M  END
$$$$
