VEC.pdb
     RDKit          3D

 23 22  0  0  1  0  0  0  0  0999 V2000
   27.3384  -12.6474  -15.9901 C   0  0  0  0  0  0  0  0  0  0  0  0
   26.5793  -11.4665  -16.5571 C   0  0  2  0  0  0  0  0  0  0  0  0
   26.7018  -10.3367  -15.5488 C   0  0  0  0  0  0  0  0  0  0  0  0
   25.1095  -11.8193  -16.6406 C   0  0  2  0  0  0  0  0  0  0  0  0
   24.9870  -12.9107  -17.5953 N   0  0  0  0  0  0  0  0  0  0  0  0
   24.2863  -10.6725  -17.1062 C   0  0  0  0  0  0  0  0  0  0  0  0
   24.3639  -10.2755  -18.2966 O   0  0  0  0  0  0  0  0  0  0  0  0
   23.4155  -10.0160  -16.2384 N   0  0  0  0  0  0  0  0  0  0  0  0
   22.5747   -8.8663  -16.5958 C   0  0  1  0  0  0  0  0  0  0  0  0
   21.1655   -9.4059  -16.4929 C   0  0  0  0  0  0  0  0  0  0  0  0
   20.1733   -8.3526  -16.7970 C   0  0  0  0  0  0  0  0  0  0  0  0
   18.7913   -8.9652  -16.7182 C   0  0  0  0  0  0  0  0  0  0  0  0
   18.3086   -9.2988  -15.6087 O   0  0  0  0  0  0  0  0  0  0  0  0
   22.8320   -7.7143  -15.7589 C   0  0  0  0  0  0  0  0  0  0  0  0
   22.8673   -7.9214  -14.4911 O   0  0  0  0  0  0  0  0  0  0  0  0
   18.0984   -9.1379  -17.8943 O   0  0  0  0  0  0  0  0  0  0  0  0
   23.0595   -6.3730  -16.1376 N   0  0  0  0  0  0  0  0  0  0  0  0
   23.1999   -5.2910  -15.1849 C   0  0  1  0  0  0  0  0  0  0  0  0
   23.9255   -4.1037  -15.7731 C   0  0  0  0  0  0  0  0  0  0  0  0
   25.6488   -4.6119  -16.0643 S   0  0  0  0  0  0  0  0  0  0  0  0
   21.8719   -4.8096  -14.7597 C   0  0  0  0  0  0  0  0  0  0  0  0
   20.9050   -4.8758  -15.5509 O   0  0  0  0  0  0  0  0  0  0  0  0
   21.6646   -4.2808  -13.4944 O   0  0  0  0  0  0  0  0  0  0  0  0
  2  1  1  1
  3  2  1  0
  4  5  1  6
  4  2  1  0
  6  7  2  0
  6  4  1  0
  8  6  1  0
  9  8  1  0
  9 14  1  0
  9 10  1  1
 11 10  1  0
 12 11  1  0
 13 12  2  0
 14 17  1  0
 15 14  2  0
 16 12  1  0
 17 18  1  0
 18 21  1  0
 18 19  1  6
 19 20  1  0
 21 22  2  0
 21 23  1  0
M  END
$$$$
