VEC.pdb
     RDKit          3D

 23 22  0  0  1  0  0  0  0  0999 V2000
   19.2737  -13.1475  -17.5629 C   0  0  0  0  0  0  0  0  0  0  0  0
   18.4014  -13.1230  -16.3257 C   0  0  2  0  0  0  0  0  0  0  0  0
   17.0503  -13.6909  -16.7259 C   0  0  0  0  0  0  0  0  0  0  0  0
   18.1662  -11.6846  -15.9166 C   0  0  2  0  0  0  0  0  0  0  0  0
   17.4233  -11.0510  -16.9956 N   0  0  0  0  0  0  0  0  0  0  0  0
   19.4407  -10.9488  -15.7074 C   0  0  0  0  0  0  0  0  0  0  0  0
   20.2210  -11.2794  -14.7787 O   0  0  0  0  0  0  0  0  0  0  0  0
   19.7965   -9.8825  -16.5313 N   0  0  0  0  0  0  0  0  0  0  0  0
   21.0602   -9.1389  -16.4515 C   0  0  1  0  0  0  0  0  0  0  0  0
   21.6914   -9.3559  -17.8088 C   0  0  0  0  0  0  0  0  0  0  0  0
   22.9627   -8.6100  -17.9253 C   0  0  0  0  0  0  0  0  0  0  0  0
   23.5799   -8.9308  -19.2698 C   0  0  0  0  0  0  0  0  0  0  0  0
   22.8494   -9.1262  -20.2717 O   0  0  0  0  0  0  0  0  0  0  0  0
   20.8602   -7.7483  -16.1052 C   0  0  0  0  0  0  0  0  0  0  0  0
   20.0033   -7.0984  -16.8085 O   0  0  0  0  0  0  0  0  0  0  0  0
   24.9519   -8.9980  -19.3459 O   0  0  0  0  0  0  0  0  0  0  0  0
   21.4753   -6.9882  -15.0862 N   0  0  0  0  0  0  0  0  0  0  0  0
   21.1659   -5.5953  -14.8369 C   0  0  1  0  0  0  0  0  0  0  0  0
   20.3912   -5.4039  -13.5542 C   0  0  0  0  0  0  0  0  0  0  0  0
   20.3110   -3.6145  -13.2316 S   0  0  0  0  0  0  0  0  0  0  0  0
   22.4090   -4.8122  -14.7037 C   0  0  0  0  0  0  0  0  0  0  0  0
   23.4684   -5.3828  -14.3612 O   0  0  0  0  0  0  0  0  0  0  0  0
   22.4348   -3.4476  -14.9503 O   0  0  0  0  0  0  0  0  0  0  0  0
  2  1  1  6
  3  2  1  0
  4  5  1  6
  4  2  1  0
  6  7  2  0
  6  4  1  0
  8  6  1  0
  9  8  1  0
  9 14  1  0
  9 10  1  6
 11 10  1  0
 12 11  1  0
 13 12  2  0
 14 17  1  0
 15 14  2  0
 16 12  1  0
 17 18  1  0
 18 21  1  0
 18 19  1  1
 19 20  1  0
 21 22  2  0
 21 23  1  0
M  END
$$$$
