VEC.pdb
     RDKit          3D

 23 22  0  0  1  0  0  0  0  0999 V2000
   16.4736  -12.0671  -17.4215 C   0  0  0  0  0  0  0  0  0  0  0  0
   17.7711  -12.8460  -17.4698 C   0  0  2  0  0  0  0  0  0  0  0  0
   17.4588  -14.2550  -16.9953 C   0  0  0  0  0  0  0  0  0  0  0  0
   18.7396  -12.2531  -16.4688 C   0  0  2  0  0  0  0  0  0  0  0  0
   18.1759  -12.4778  -15.1462 N   0  0  0  0  0  0  0  0  0  0  0  0
   18.9295  -10.7931  -16.6738 C   0  0  0  0  0  0  0  0  0  0  0  0
   19.4344  -10.3610  -17.7411 O   0  0  0  0  0  0  0  0  0  0  0  0
   18.5543   -9.8766  -15.6933 N   0  0  0  0  0  0  0  0  0  0  0  0
   18.6882   -8.4186  -15.8048 C   0  0  1  0  0  0  0  0  0  0  0  0
   17.3403   -7.8986  -15.3568 C   0  0  0  0  0  0  0  0  0  0  0  0
   17.2929   -6.4225  -15.4300 C   0  0  0  0  0  0  0  0  0  0  0  0
   15.9259   -5.9678  -14.9653 C   0  0  0  0  0  0  0  0  0  0  0  0
   15.4596   -4.8678  -15.3500 O   0  0  0  0  0  0  0  0  0  0  0  0
   19.8056   -7.9079  -15.0403 C   0  0  0  0  0  0  0  0  0  0  0  0
   19.9339   -8.3540  -13.8420 O   0  0  0  0  0  0  0  0  0  0  0  0
   15.2280   -6.7972  -14.1180 O   0  0  0  0  0  0  0  0  0  0  0  0
   20.7966   -6.9788  -15.4262 N   0  0  0  0  0  0  0  0  0  0  0  0
   21.9274   -6.6299  -14.5910 C   0  0  1  0  0  0  0  0  0  0  0  0
   23.2366   -6.7121  -15.3402 C   0  0  0  0  0  0  0  0  0  0  0  0
   23.5631   -8.4721  -15.6692 S   0  0  0  0  0  0  0  0  0  0  0  0
   21.7985   -5.2409  -14.1114 C   0  0  0  0  0  0  0  0  0  0  0  0
   21.0650   -4.4367  -14.7283 O   0  0  0  0  0  0  0  0  0  0  0  0
   22.4749   -4.7985  -12.9843 O   0  0  0  0  0  0  0  0  0  0  0  0
  2  1  1  1
  3  2  1  0
  4  5  1  1
  4  2  1  0
  6  7  2  0
  6  4  1  0
  8  6  1  0
  9  8  1  0
  9 14  1  0
  9 10  1  1
 11 10  1  0
 12 11  1  0
 13 12  2  0
 14 17  1  0
 15 14  2  0
 16 12  1  0
 17 18  1  0
 18 21  1  0
 18 19  1  6
 19 20  1  0
 21 22  2  0
 21 23  1  0
M  END
$$$$
