VEC.pdb
     RDKit          3D

 23 22  0  0  1  0  0  0  0  0999 V2000
   17.5412  -12.9779  -18.7465 C   0  0  0  0  0  0  0  0  0  0  0  0
   18.4816  -13.8417  -17.9329 C   0  0  2  0  0  0  0  0  0  0  0  0
   17.6507  -14.9718  -17.3494 C   0  0  0  0  0  0  0  0  0  0  0  0
   19.0040  -13.0353  -16.7630 C   0  0  2  0  0  0  0  0  0  0  0  0
   17.8530  -12.6646  -15.9535 N   0  0  0  0  0  0  0  0  0  0  0  0
   19.7044  -11.8009  -17.2050 C   0  0  0  0  0  0  0  0  0  0  0  0
   20.7808  -11.8767  -17.8502 O   0  0  0  0  0  0  0  0  0  0  0  0
   19.1862  -10.5400  -16.9156 N   0  0  0  0  0  0  0  0  0  0  0  0
   19.7927   -9.2649  -17.3190 C   0  0  1  0  0  0  0  0  0  0  0  0
   18.7888   -8.6796  -18.2871 C   0  0  0  0  0  0  0  0  0  0  0  0
   19.2733   -7.3962  -18.8386 C   0  0  0  0  0  0  0  0  0  0  0  0
   18.2682   -6.9087  -19.8602 C   0  0  0  0  0  0  0  0  0  0  0  0
   17.2101   -7.5520  -20.0647 O   0  0  0  0  0  0  0  0  0  0  0  0
   20.0915   -8.4145  -16.1870 C   0  0  0  0  0  0  0  0  0  0  0  0
   19.1876   -8.3295  -15.2776 O   0  0  0  0  0  0  0  0  0  0  0  0
   18.5588   -5.7504  -20.5435 O   0  0  0  0  0  0  0  0  0  0  0  0
   21.2534   -7.6549  -15.9276 N   0  0  0  0  0  0  0  0  0  0  0  0
   21.4404   -6.8752  -14.7212 C   0  0  1  0  0  0  0  0  0  0  0  0
   22.4780   -7.4811  -13.8057 C   0  0  0  0  0  0  0  0  0  0  0  0
   21.7047   -8.9060  -12.9784 S   0  0  0  0  0  0  0  0  0  0  0  0
   21.9111   -5.5184  -15.0582 C   0  0  0  0  0  0  0  0  0  0  0  0
   22.1916   -5.2353  -16.2442 O   0  0  0  0  0  0  0  0  0  0  0  0
   22.0523   -4.5390  -14.0864 O   0  0  0  0  0  0  0  0  0  0  0  0
  2  1  1  6
  3  2  1  0
  4  5  1  1
  4  2  1  0
  6  7  2  0
  6  4  1  0
  8  6  1  0
  9  8  1  0
  9 14  1  0
  9 10  1  6
 11 10  1  0
 12 11  1  0
 13 12  2  0
 14 17  1  0
 15 14  2  0
 16 12  1  0
 17 18  1  0
 18 21  1  0
 18 19  1  1
 19 20  1  0
 21 22  2  0
 21 23  1  0
M  END
$$$$
