VEC.pdb
     RDKit          3D

 23 22  0  0  1  0  0  0  0  0999 V2000
   15.0561  -11.3446  -15.7983 C   0  0  0  0  0  0  0  0  0  0  0  0
   16.4066  -10.8411  -15.3346 C   0  0  2  0  0  0  0  0  0  0  0  0
   16.3718   -9.3256  -15.4352 C   0  0  0  0  0  0  0  0  0  0  0  0
   17.4693  -11.3183  -16.3015 C   0  0  2  0  0  0  0  0  0  0  0  0
   17.6047  -12.7545  -16.1107 N   0  0  0  0  0  0  0  0  0  0  0  0
   18.7830  -10.6693  -16.0511 C   0  0  0  0  0  0  0  0  0  0  0  0
   19.4743  -10.9968  -15.0533 O   0  0  0  0  0  0  0  0  0  0  0  0
   19.2742   -9.6895  -16.9118 N   0  0  0  0  0  0  0  0  0  0  0  0
   20.5164   -8.9332  -16.7089 C   0  0  1  0  0  0  0  0  0  0  0  0
   20.9085   -8.5046  -18.1055 C   0  0  0  0  0  0  0  0  0  0  0  0
   22.1614   -7.7196  -18.0848 C   0  0  0  0  0  0  0  0  0  0  0  0
   22.5105   -7.3449  -19.5092 C   0  0  0  0  0  0  0  0  0  0  0  0
   23.4962   -7.8725  -20.0796 O   0  0  0  0  0  0  0  0  0  0  0  0
   20.3493   -7.8389  -15.7770 C   0  0  0  0  0  0  0  0  0  0  0  0
   19.2950   -7.1181  -15.9202 O   0  0  0  0  0  0  0  0  0  0  0  0
   21.7151   -6.4172  -20.1415 O   0  0  0  0  0  0  0  0  0  0  0  0
   21.1864   -7.4430  -14.7109 N   0  0  0  0  0  0  0  0  0  0  0  0
   20.9011   -6.3100  -13.8547 C   0  0  1  0  0  0  0  0  0  0  0  0
   21.2172   -6.5963  -12.4055 C   0  0  0  0  0  0  0  0  0  0  0  0
   19.9168   -7.7032  -11.7759 S   0  0  0  0  0  0  0  0  0  0  0  0
   21.7255   -5.1519  -14.2489 C   0  0  0  0  0  0  0  0  0  0  0  0
   22.6247   -5.2934  -15.1072 O   0  0  0  0  0  0  0  0  0  0  0  0
   21.5286   -3.8988  -13.6882 O   0  0  0  0  0  0  0  0  0  0  0  0
  2  1  1  6
  3  2  1  0
  4  5  1  1
  4  2  1  0
  6  7  2  0
  6  4  1  0
  8  6  1  0
  9  8  1  0
  9 14  1  0
  9 10  1  6
 11 10  1  0
 12 11  1  0
 13 12  2  0
 14 17  1  0
 15 14  2  0
 16 12  1  0
 17 18  1  0
 18 21  1  0
 18 19  1  1
 19 20  1  0
 21 22  2  0
 21 23  1  0
M  END
$$$$
