VEC.pdb
     RDKit          3D

 23 22  0  0  1  0  0  0  0  0999 V2000
   13.4377   -7.0052  -10.2481 C   0  0  0  0  0  0  0  0  0  0  0  0
   13.9472   -7.7288   -9.0196 C   0  0  2  0  0  0  0  0  0  0  0  0
   13.4153   -6.9771   -7.8113 C   0  0  0  0  0  0  0  0  0  0  0  0
   15.4563   -7.6183   -8.9727 C   0  0  2  0  0  0  0  0  0  0  0  0
   15.7736   -6.2180   -8.7359 N   0  0  0  0  0  0  0  0  0  0  0  0
   16.0870   -8.0500  -10.2476 C   0  0  0  0  0  0  0  0  0  0  0  0
   16.0189   -9.2500  -10.6166 O   0  0  0  0  0  0  0  0  0  0  0  0
   16.7637   -7.1395  -11.0571 N   0  0  0  0  0  0  0  0  0  0  0  0
   17.3803   -7.4563  -12.3516 C   0  0  1  0  0  0  0  0  0  0  0  0
   16.3741   -6.9519  -13.3621 C   0  0  0  0  0  0  0  0  0  0  0  0
   15.4939   -8.0470  -13.8226 C   0  0  0  0  0  0  0  0  0  0  0  0
   14.5986   -7.5079  -14.9177 C   0  0  0  0  0  0  0  0  0  0  0  0
   13.8810   -6.4993  -14.7101 O   0  0  0  0  0  0  0  0  0  0  0  0
   18.7001   -6.8792  -12.4890 C   0  0  0  0  0  0  0  0  0  0  0  0
   18.8825   -5.7269  -11.9501 O   0  0  0  0  0  0  0  0  0  0  0  0
   14.6047   -8.1592  -16.1296 O   0  0  0  0  0  0  0  0  0  0  0  0
   19.8391   -7.4081  -13.1351 N   0  0  0  0  0  0  0  0  0  0  0  0
   21.1037   -6.7066  -13.2175 C   0  0  1  0  0  0  0  0  0  0  0  0
   22.2106   -7.5868  -13.7486 C   0  0  0  0  0  0  0  0  0  0  0  0
   22.4433   -8.9428  -12.5571 S   0  0  0  0  0  0  0  0  0  0  0  0
   20.9925   -5.5604  -14.1394 C   0  0  0  0  0  0  0  0  0  0  0  0
   20.0612   -5.5231  -14.9740 O   0  0  0  0  0  0  0  0  0  0  0  0
   21.9012   -4.5132  -14.1054 O   0  0  0  0  0  0  0  0  0  0  0  0
  2  1  1  6
  3  2  1  0
  4  5  1  6
  4  2  1  0
  6  7  2  0
  6  4  1  0
  8  6  1  0
  9  8  1  0
  9 14  1  0
  9 10  1  6
 11 10  1  0
 12 11  1  0
 13 12  2  0
 14 17  1  0
 15 14  2  0
 16 12  1  0
 17 18  1  0
 18 21  1  0
 18 19  1  6
 19 20  1  0
 21 22  2  0
 21 23  1  0
M  END
$$$$
