VEC.pdb
     RDKit          3D

 23 22  0  0  1  0  0  0  0  0999 V2000
   17.3489  -12.9973  -18.5527 C   0  0  0  0  0  0  0  0  0  0  0  0
   16.2216  -12.6440  -17.6057 C   0  0  2  0  0  0  0  0  0  0  0  0
   15.4072  -11.5506  -18.2760 C   0  0  0  0  0  0  0  0  0  0  0  0
   16.8064  -12.0422  -16.3457 C   0  0  2  0  0  0  0  0  0  0  0  0
   15.6944  -11.7716  -15.4470 N   0  0  0  0  0  0  0  0  0  0  0  0
   17.5304  -10.7728  -16.6181 C   0  0  0  0  0  0  0  0  0  0  0  0
   18.5754  -10.7739  -17.3170 O   0  0  0  0  0  0  0  0  0  0  0  0
   17.0693   -9.5608  -16.1076 N   0  0  0  0  0  0  0  0  0  0  0  0
   17.7087   -8.2564  -16.3219 C   0  0  1  0  0  0  0  0  0  0  0  0
   16.6023   -7.2635  -16.0430 C   0  0  0  0  0  0  0  0  0  0  0  0
   17.1045   -5.8754  -16.1286 C   0  0  0  0  0  0  0  0  0  0  0  0
   15.9435   -4.9347  -15.8864 C   0  0  0  0  0  0  0  0  0  0  0  0
   15.7401   -3.9673  -16.6598 O   0  0  0  0  0  0  0  0  0  0  0  0
   18.8868   -8.0787  -15.5007 C   0  0  0  0  0  0  0  0  0  0  0  0
   18.7364   -8.2478  -14.2357 O   0  0  0  0  0  0  0  0  0  0  0  0
   15.1346   -5.1808  -14.8011 O   0  0  0  0  0  0  0  0  0  0  0  0
   20.2022   -7.7464  -15.8926 N   0  0  0  0  0  0  0  0  0  0  0  0
   21.3106   -7.6610  -14.9640 C   0  0  1  0  0  0  0  0  0  0  0  0
   22.5692   -8.2852  -15.5194 C   0  0  0  0  0  0  0  0  0  0  0  0
   23.8933   -8.0106  -14.3012 S   0  0  0  0  0  0  0  0  0  0  0  0
   21.6276   -6.2494  -14.6759 C   0  0  0  0  0  0  0  0  0  0  0  0
   21.8966   -5.9001  -13.5051 O   0  0  0  0  0  0  0  0  0  0  0  0
   21.6354   -5.2902  -15.6776 O   0  0  0  0  0  0  0  0  0  0  0  0
  2  1  1  6
  3  2  1  0
  4  5  1  1
  4  2  1  0
  6  7  2  0
  6  4  1  0
  8  6  1  0
  9  8  1  0
  9 14  1  0
  9 10  1  1
 11 10  1  0
 12 11  1  0
 13 12  2  0
 14 17  1  0
 15 14  2  0
 16 12  1  0
 17 18  1  0
 18 21  1  0
 18 19  1  6
 19 20  1  0
 21 22  2  0
 21 23  1  0
M  END
$$$$
