VEC.pdb
     RDKit          3D

 23 22  0  0  1  0  0  0  0  0999 V2000
   18.6844  -13.5904  -16.4194 C   0  0  0  0  0  0  0  0  0  0  0  0
   17.4104  -12.7810  -16.3001 C   0  0  2  0  0  0  0  0  0  0  0  0
   17.1636  -12.1425  -17.6564 C   0  0  0  0  0  0  0  0  0  0  0  0
   17.6351  -11.6496  -15.3197 C   0  0  2  0  0  0  0  0  0  0  0  0
   16.3713  -10.9396  -15.1918 N   0  0  0  0  0  0  0  0  0  0  0  0
   18.6787  -10.7019  -15.7913 C   0  0  0  0  0  0  0  0  0  0  0  0
   19.8879  -11.0454  -15.8108 O   0  0  0  0  0  0  0  0  0  0  0  0
   18.3415   -9.4193  -16.2197 N   0  0  0  0  0  0  0  0  0  0  0  0
   19.2846   -8.4381  -16.7712 C   0  0  1  0  0  0  0  0  0  0  0  0
   18.5412   -7.8472  -17.9484 C   0  0  0  0  0  0  0  0  0  0  0  0
   17.3608   -7.0800  -17.4964 C   0  0  0  0  0  0  0  0  0  0  0  0
   16.7090   -6.4527  -18.7101 C   0  0  0  0  0  0  0  0  0  0  0  0
   17.1490   -6.6933  -19.8607 O   0  0  0  0  0  0  0  0  0  0  0  0
   19.7062   -7.4654  -15.7863 C   0  0  0  0  0  0  0  0  0  0  0  0
   18.8956   -7.2432  -14.8143 O   0  0  0  0  0  0  0  0  0  0  0  0
   15.6323   -5.6218  -18.5021 O   0  0  0  0  0  0  0  0  0  0  0  0
   20.9013   -6.7149  -15.7325 N   0  0  0  0  0  0  0  0  0  0  0  0
   21.2126   -5.7917  -14.6607 C   0  0  1  0  0  0  0  0  0  0  0  0
   22.2854   -6.3261  -13.7412 C   0  0  0  0  0  0  0  0  0  0  0  0
   22.6668   -5.0173  -12.5354 S   0  0  0  0  0  0  0  0  0  0  0  0
   21.7197   -4.5211  -15.2126 C   0  0  0  0  0  0  0  0  0  0  0  0
   22.2802   -4.5099  -16.3310 O   0  0  0  0  0  0  0  0  0  0  0  0
   21.5906   -3.3275  -14.5182 O   0  0  0  0  0  0  0  0  0  0  0  0
  2  1  1  6
  3  2  1  0
  4  5  1  6
  4  2  1  0
  6  7  2  0
  6  4  1  0
  8  6  1  0
  9  8  1  0
  9 14  1  0
  9 10  1  6
 11 10  1  0
 12 11  1  0
 13 12  2  0
 14 17  1  0
 15 14  2  0
 16 12  1  0
 17 18  1  0
 18 21  1  0
 18 19  1  1
 19 20  1  0
 21 22  2  0
 21 23  1  0
M  END
$$$$
