VEC.pdb
     RDKit          3D

 23 22  0  0  1  0  0  0  0  0999 V2000
   33.4524  -37.1359   -2.3121 C   0  0  0  0  0  0  0  0  0  0  0  0
   33.7127  -36.5041   -3.6632 C   0  0  2  0  0  0  0  0  0  0  0  0
   35.1133  -35.9174   -3.6145 C   0  0  0  0  0  0  0  0  0  0  0  0
   32.7601  -35.3437   -3.8567 C   0  0  2  0  0  0  0  0  0  0  0  0
   33.1743  -34.2947   -2.9371 N   0  0  0  0  0  0  0  0  0  0  0  0
   31.3533  -35.7216   -3.5601 C   0  0  0  0  0  0  0  0  0  0  0  0
   30.7765  -36.6091   -4.2385 O   0  0  0  0  0  0  0  0  0  0  0  0
   30.6471  -35.1040   -2.5295 N   0  0  0  0  0  0  0  0  0  0  0  0
   29.2665  -35.4218   -2.1433 C   0  0  1  0  0  0  0  0  0  0  0  0
   29.2954  -35.3718   -0.6319 C   0  0  0  0  0  0  0  0  0  0  0  0
   27.9487  -35.6103   -0.0698 C   0  0  0  0  0  0  0  0  0  0  0  0
   28.0294  -35.4639    1.4347 C   0  0  0  0  0  0  0  0  0  0  0  0
   28.9555  -34.7972    1.9574 O   0  0  0  0  0  0  0  0  0  0  0  0
   28.3050  -34.5258   -2.7488 C   0  0  0  0  0  0  0  0  0  0  0  0
   28.7601  -33.4087   -3.1920 O   0  0  0  0  0  0  0  0  0  0  0  0
   27.0612  -36.0819    2.1919 O   0  0  0  0  0  0  0  0  0  0  0  0
   26.9162  -34.7040   -2.9324 N   0  0  0  0  0  0  0  0  0  0  0  0
   26.0930  -33.7945   -3.7028 C   0  0  1  0  0  0  0  0  0  0  0  0
   26.5138  -33.7334   -5.1524 C   0  0  0  0  0  0  0  0  0  0  0  0
   25.3329  -32.6490   -6.0139 S   0  0  0  0  0  0  0  0  0  0  0  0
   24.6870  -34.2404   -3.6866 C   0  0  0  0  0  0  0  0  0  0  0  0
   23.7951  -33.4987   -4.1554 O   0  0  0  0  0  0  0  0  0  0  0  0
   24.3239  -35.4713   -3.1606 O   0  0  0  0  0  0  0  0  0  0  0  0
  2  1  1  1
  3  2  1  0
  4  5  1  1
  4  2  1  0
  6  7  2  0
  6  4  1  0
  8  6  1  0
  9  8  1  0
  9 14  1  0
  9 10  1  1
 11 10  1  0
 12 11  1  0
 13 12  2  0
 14 17  1  0
 15 14  2  0
 16 12  1  0
 17 18  1  0
 18 21  1  0
 18 19  1  6
 19 20  1  0
 21 22  2  0
 21 23  1  0
M  END
$$$$
