VEC.pdb
     RDKit          3D

 23 22  0  0  1  0  0  0  0  0999 V2000
   16.3115  -12.2500  -16.2682 C   0  0  0  0  0  0  0  0  0  0  0  0
   16.7809  -11.7939  -14.9029 C   0  0  2  0  0  0  0  0  0  0  0  0
   15.8485  -12.4231  -13.8818 C   0  0  0  0  0  0  0  0  0  0  0  0
   16.5990  -10.2950  -14.7944 C   0  0  2  0  0  0  0  0  0  0  0  0
   17.2909   -9.6989  -15.9273 N   0  0  0  0  0  0  0  0  0  0  0  0
   17.1736   -9.7532  -13.5350 C   0  0  0  0  0  0  0  0  0  0  0  0
   16.8489  -10.2451  -12.4245 O   0  0  0  0  0  0  0  0  0  0  0  0
   18.0795   -8.6944  -13.5576 N   0  0  0  0  0  0  0  0  0  0  0  0
   18.5704   -7.9778  -12.3736 C   0  0  1  0  0  0  0  0  0  0  0  0
   19.7130   -7.1426  -12.9070 C   0  0  0  0  0  0  0  0  0  0  0  0
   20.3274   -6.3384  -11.8290 C   0  0  0  0  0  0  0  0  0  0  0  0
   21.4637   -5.5350  -12.4247 C   0  0  0  0  0  0  0  0  0  0  0  0
   21.7655   -4.4142  -11.9472 O   0  0  0  0  0  0  0  0  0  0  0  0
   17.5294   -7.2127  -11.7218 C   0  0  0  0  0  0  0  0  0  0  0  0
   16.7314   -6.5588  -12.4880 O   0  0  0  0  0  0  0  0  0  0  0  0
   22.1401   -6.0762  -13.4936 O   0  0  0  0  0  0  0  0  0  0  0  0
   17.2533   -7.0809  -10.3432 N   0  0  0  0  0  0  0  0  0  0  0  0
   16.2231   -6.2080   -9.8187 C   0  0  1  0  0  0  0  0  0  0  0  0
   15.7909   -6.6076   -8.4274 C   0  0  0  0  0  0  0  0  0  0  0  0
   14.4066   -5.5234   -7.9577 S   0  0  0  0  0  0  0  0  0  0  0  0
   16.7248   -4.8239   -9.7270 C   0  0  0  0  0  0  0  0  0  0  0  0
   17.9464   -4.6165   -9.5539 O   0  0  0  0  0  0  0  0  0  0  0  0
   15.8705   -3.7360   -9.8285 O   0  0  0  0  0  0  0  0  0  0  0  0
  2  1  1  6
  3  2  1  0
  4  5  1  6
  4  2  1  0
  6  7  2  0
  6  4  1  0
  8  6  1  0
  9  8  1  0
  9 14  1  0
  9 10  1  6
 11 10  1  0
 12 11  1  0
 13 12  2  0
 14 17  1  0
 15 14  2  0
 16 12  1  0
 17 18  1  0
 18 21  1  0
 18 19  1  1
 19 20  1  0
 21 22  2  0
 21 23  1  0
M  END
$$$$
