VEC.pdb
     RDKit          3D

 23 22  0  0  1  0  0  0  0  0999 V2000
   17.5041  -12.1690  -17.7512 C   0  0  0  0  0  0  0  0  0  0  0  0
   18.8508  -12.7310  -17.3478 C   0  0  2  0  0  0  0  0  0  0  0  0
   18.5957  -14.1036  -16.7487 C   0  0  0  0  0  0  0  0  0  0  0  0
   19.4319  -11.8741  -16.2434 C   0  0  2  0  0  0  0  0  0  0  0  0
   18.5312  -11.9779  -15.1051 N   0  0  0  0  0  0  0  0  0  0  0  0
   19.5440  -10.4473  -16.6450 C   0  0  0  0  0  0  0  0  0  0  0  0
   20.3154  -10.1078  -17.5780 O   0  0  0  0  0  0  0  0  0  0  0  0
   18.8010   -9.4604  -15.9999 N   0  0  0  0  0  0  0  0  0  0  0  0
   18.8062   -8.0345  -16.3511 C   0  0  1  0  0  0  0  0  0  0  0  0
   17.3438   -7.7107  -16.5613 C   0  0  0  0  0  0  0  0  0  0  0  0
   17.1664   -6.2934  -16.9435 C   0  0  0  0  0  0  0  0  0  0  0  0
   15.6876   -6.0360  -17.1395 C   0  0  0  0  0  0  0  0  0  0  0  0
   14.8484   -6.9316  -16.8764 O   0  0  0  0  0  0  0  0  0  0  0  0
   19.4556   -7.2218  -15.3453 C   0  0  0  0  0  0  0  0  0  0  0  0
   19.4067   -7.6553  -14.1366 O   0  0  0  0  0  0  0  0  0  0  0  0
   15.3087   -4.8000  -17.6101 O   0  0  0  0  0  0  0  0  0  0  0  0
   20.1525   -6.0034  -15.5004 N   0  0  0  0  0  0  0  0  0  0  0  0
   20.8497   -5.3428  -14.4161 C   0  0  1  0  0  0  0  0  0  0  0  0
   21.9625   -6.1942  -13.8512 C   0  0  0  0  0  0  0  0  0  0  0  0
   22.7685   -5.2290  -12.5354 S   0  0  0  0  0  0  0  0  0  0  0  0
   21.4713   -4.0936  -14.8949 C   0  0  0  0  0  0  0  0  0  0  0  0
   21.7653   -3.9705  -16.1047 O   0  0  0  0  0  0  0  0  0  0  0  0
   21.7411   -3.0422  -14.0316 O   0  0  0  0  0  0  0  0  0  0  0  0
  2  1  1  1
  3  2  1  0
  4  5  1  1
  4  2  1  0
  6  7  2  0
  6  4  1  0
  8  6  1  0
  9  8  1  0
  9 14  1  0
  9 10  1  1
 11 10  1  0
 12 11  1  0
 13 12  2  0
 14 17  1  0
 15 14  2  0
 16 12  1  0
 17 18  1  0
 18 21  1  0
 18 19  1  6
 19 20  1  0
 21 22  2  0
 21 23  1  0
M  END
$$$$
