WYF.pdb
     RDKit          3D

 38 41  0  0  1  0  0  0  0  0999 V2000
   20.4448  -18.3832  -17.8603 N   0  0  0  0  0  0  0  0  0  0  0  0
   20.8919  -18.1020  -16.4755 C   0  0  1  0  0  0  0  0  0  0  0  0
   19.9180  -18.8791  -15.6127 C   0  0  0  0  0  0  0  0  0  0  0  0
   18.6113  -18.2208  -15.5268 C   0  0  0  0  0  0  0  0  0  0  0  0
   17.4838  -18.4913  -16.3125 C   0  0  0  0  0  0  0  0  0  0  0  0
   16.5019  -17.6669  -15.9205 N   0  0  0  0  0  0  0  0  0  0  0  0
   16.9150  -16.8641  -14.9181 C   0  0  0  0  0  0  0  0  0  0  0  0
   16.3006  -15.8618  -14.1816 C   0  0  0  0  0  0  0  0  0  0  0  0
   16.9817  -15.1865  -13.1907 C   0  0  0  0  0  0  0  0  0  0  0  0
   18.2933  -15.5318  -12.9471 C   0  0  0  0  0  0  0  0  0  0  0  0
   18.9063  -16.5270  -13.6765 C   0  0  0  0  0  0  0  0  0  0  0  0
   18.2202  -17.2079  -14.6756 C   0  0  0  0  0  0  0  0  0  0  0  0
   22.2621  -18.6535  -16.2930 C   0  0  0  0  0  0  0  0  0  0  0  0
   22.8273  -19.3110  -17.2399 O   0  0  0  0  0  0  0  0  0  0  0  0
   30.1735  -19.3701  -17.8484 O   0  0  0  0  0  0  0  0  0  0  0  0
   29.0002  -18.9553  -17.2472 C   0  0  0  0  0  0  0  0  0  0  0  0
   28.8786  -18.7636  -15.8847 C   0  0  0  0  0  0  0  0  0  0  0  0
   27.6940  -18.3475  -15.2981 C   0  0  0  0  0  0  0  0  0  0  0  0
   26.5791  -18.1078  -16.0741 C   0  0  0  0  0  0  0  0  0  0  0  0
   25.2774  -17.6705  -15.5734 C   0  0  0  0  0  0  0  0  0  0  0  0
   24.4299  -18.8362  -15.0217 C   0  0  2  0  0  0  0  0  0  0  0  0
   23.0392  -18.5130  -15.1185 N   0  0  0  0  0  0  0  0  0  0  0  0
   24.9224  -19.1258  -13.6678 C   0  0  0  0  0  0  0  0  0  0  0  0
   24.8636  -18.3795  -12.6791 O   0  0  0  0  0  0  0  0  0  0  0  0
   26.7149  -18.3045  -17.4462 C   0  0  0  0  0  0  0  0  0  0  0  0
   27.8870  -18.7159  -18.0237 C   0  0  0  0  0  0  0  0  0  0  0  0
   25.5398  -20.4108  -13.4564 N   0  0  0  0  0  0  0  0  0  0  0  0
   26.1502  -20.7367  -12.1726 C   0  0  1  0  0  0  0  0  0  0  0  0
   25.2118  -21.7100  -11.4850 C   0  0  0  0  0  0  0  0  0  0  0  0
   23.9407  -21.1061  -11.0553 C   0  0  0  0  0  0  0  0  0  0  0  0
   23.8459  -20.2997   -9.9434 C   0  0  0  0  0  0  0  0  0  0  0  0
   22.6530  -19.7291   -9.5498 C   0  0  0  0  0  0  0  0  0  0  0  0
   21.4920  -19.9483  -10.2658 C   0  0  0  0  0  0  0  0  0  0  0  0
   21.5804  -20.7526  -11.3765 C   0  0  0  0  0  0  0  0  0  0  0  0
   22.7683  -21.3339  -11.7877 C   0  0  0  0  0  0  0  0  0  0  0  0
   27.4438  -21.3935  -12.3983 C   0  0  0  0  0  0  0  0  0  0  0  0
   27.8875  -21.6431  -13.6781 O   0  0  0  0  0  0  0  0  0  0  0  0
   28.1478  -21.7293  -11.4247 O   0  0  0  0  0  0  0  0  0  0  0  0
  2  1  1  6
  3  4  1  0
  3  2  1  0
  4  5  2  0
  6  5  1  0
  7  6  1  0
  8  7  2  0
  9  8  1  0
 10  9  2  0
 10 11  1  0
 11 12  2  0
 12  7  1  0
 12  4  1  0
 13  2  1  0
 14 13  2  0
 15 16  1  0
 16 17  2  0
 17 18  1  0
 19 20  1  0
 19 18  2  0
 21 20  1  1
 21 22  1  0
 21 23  1  0
 22 13  1  0
 23 27  1  0
 23 24  2  0
 25 19  1  0
 26 25  2  0
 26 16  1  0
 27 28  1  0
 28 29  1  6
 29 30  1  0
 30 35  1  0
 30 31  2  0
 31 32  1  0
 32 33  2  0
 34 33  1  0
 35 34  2  0
 36 28  1  0
 36 37  1  0
 38 36  2  0
M  END
$$$$
