WYF.pdb
     RDKit          3D

 38 41  0  0  1  0  0  0  0  0999 V2000
   26.2504  -17.4755  -18.6307 N   0  0  0  0  0  0  0  0  0  0  0  0
   26.9688  -18.3433  -17.6677 C   0  0  1  0  0  0  0  0  0  0  0  0
   27.7433  -17.3675  -16.8046 C   0  0  0  0  0  0  0  0  0  0  0  0
   28.8234  -16.7118  -17.5474 C   0  0  0  0  0  0  0  0  0  0  0  0
   28.9469  -15.3418  -17.8114 C   0  0  0  0  0  0  0  0  0  0  0  0
   30.0687  -15.1595  -18.5224 N   0  0  0  0  0  0  0  0  0  0  0  0
   30.6969  -16.3324  -18.7451 C   0  0  0  0  0  0  0  0  0  0  0  0
   31.8625  -16.6806  -19.4119 C   0  0  0  0  0  0  0  0  0  0  0  0
   32.2752  -17.9943  -19.4864 C   0  0  0  0  0  0  0  0  0  0  0  0
   31.4998  -18.9585  -18.8799 C   0  0  0  0  0  0  0  0  0  0  0  0
   30.3418  -18.6160  -18.2165 C   0  0  0  0  0  0  0  0  0  0  0  0
   29.9252  -17.2919  -18.1413 C   0  0  0  0  0  0  0  0  0  0  0  0
   25.9690  -19.0586  -16.8290 C   0  0  0  0  0  0  0  0  0  0  0  0
   25.2249  -18.4069  -16.0106 O   0  0  0  0  0  0  0  0  0  0  0  0
   21.4292  -25.5849  -12.8424 O   0  0  0  0  0  0  0  0  0  0  0  0
   22.0929  -24.7735  -13.7431 C   0  0  0  0  0  0  0  0  0  0  0  0
   21.5328  -23.6328  -14.2845 C   0  0  0  0  0  0  0  0  0  0  0  0
   22.2125  -22.8305  -15.1871 C   0  0  0  0  0  0  0  0  0  0  0  0
   23.4948  -23.1546  -15.5789 C   0  0  0  0  0  0  0  0  0  0  0  0
   24.3096  -22.3922  -16.5230 C   0  0  0  0  0  0  0  0  0  0  0  0
   24.9971  -21.1756  -15.8683 C   0  0  2  0  0  0  0  0  0  0  0  0
   25.7488  -20.4565  -16.8510 N   0  0  0  0  0  0  0  0  0  0  0  0
   25.7667  -21.6789  -14.7221 C   0  0  0  0  0  0  0  0  0  0  0  0
   26.7894  -22.3791  -14.7622 O   0  0  0  0  0  0  0  0  0  0  0  0
   24.0481  -24.3068  -15.0258 C   0  0  0  0  0  0  0  0  0  0  0  0
   23.3740  -25.0984  -14.1338 C   0  0  0  0  0  0  0  0  0  0  0  0
   25.2912  -21.3259  -13.4081 N   0  0  0  0  0  0  0  0  0  0  0  0
   25.9069  -21.9024  -12.2184 C   0  0  1  0  0  0  0  0  0  0  0  0
   27.1389  -21.0679  -11.9244 C   0  0  0  0  0  0  0  0  0  0  0  0
   26.8618  -19.6299  -11.7820 C   0  0  0  0  0  0  0  0  0  0  0  0
   26.3308  -19.0915  -10.6316 C   0  0  0  0  0  0  0  0  0  0  0  0
   26.0808  -17.7410  -10.5004 C   0  0  0  0  0  0  0  0  0  0  0  0
   26.3574  -16.8653  -11.5325 C   0  0  0  0  0  0  0  0  0  0  0  0
   26.8875  -17.3970  -12.6835 C   0  0  0  0  0  0  0  0  0  0  0  0
   27.1456  -18.7493  -12.8341 C   0  0  0  0  0  0  0  0  0  0  0  0
   24.9759  -21.8010  -11.0875 C   0  0  0  0  0  0  0  0  0  0  0  0
   23.7231  -21.2553  -11.2598 O   0  0  0  0  0  0  0  0  0  0  0  0
   25.3206  -22.2113   -9.9610 O   0  0  0  0  0  0  0  0  0  0  0  0
  2  1  1  6
  3  4  1  0
  3  2  1  0
  4  5  2  0
  6  5  1  0
  7  6  1  0
  8  7  2  0
  9  8  1  0
 10  9  2  0
 10 11  1  0
 11 12  2  0
 12  7  1  0
 12  4  1  0
 13  2  1  0
 14 13  2  0
 15 16  1  0
 16 17  2  0
 17 18  1  0
 19 20  1  0
 19 18  2  0
 21 20  1  6
 21 22  1  0
 21 23  1  0
 22 13  1  0
 23 27  1  0
 23 24  2  0
 25 19  1  0
 26 25  2  0
 26 16  1  0
 27 28  1  0
 28 29  1  1
 29 30  1  0
 30 35  1  0
 30 31  2  0
 31 32  1  0
 32 33  2  0
 34 33  1  0
 35 34  2  0
 36 28  1  0
 36 37  1  0
 38 36  2  0
M  END
$$$$
