WYF.pdb
     RDKit          3D

 38 41  0  0  1  0  0  0  0  0999 V2000
   28.3050  -20.0005   -9.5235 N   0  0  0  0  0  0  0  0  0  0  0  0
   27.0051  -20.7112   -9.4831 C   0  0  1  0  0  0  0  0  0  0  0  0
   26.2116  -19.9612   -8.4321 C   0  0  0  0  0  0  0  0  0  0  0  0
   27.0412  -19.5738   -7.2876 C   0  0  0  0  0  0  0  0  0  0  0  0
   27.4253  -18.2743   -6.9331 C   0  0  0  0  0  0  0  0  0  0  0  0
   28.1840  -18.3560   -5.8308 N   0  0  0  0  0  0  0  0  0  0  0  0
   28.3249  -19.6375   -5.4338 C   0  0  0  0  0  0  0  0  0  0  0  0
   28.9956  -20.2437   -4.3816 C   0  0  0  0  0  0  0  0  0  0  0  0
   28.9700  -21.6124   -4.2147 C   0  0  0  0  0  0  0  0  0  0  0  0
   28.2593  -22.3684   -5.1213 C   0  0  0  0  0  0  0  0  0  0  0  0
   27.5918  -21.7695   -6.1673 C   0  0  0  0  0  0  0  0  0  0  0  0
   27.6174  -20.3898   -6.3361 C   0  0  0  0  0  0  0  0  0  0  0  0
   26.3371  -20.5637  -10.8048 C   0  0  0  0  0  0  0  0  0  0  0  0
   26.1543  -19.3985  -11.3119 O   0  0  0  0  0  0  0  0  0  0  0  0
   29.2523  -18.1753  -16.6326 O   0  0  0  0  0  0  0  0  0  0  0  0
   28.4631  -19.1288  -16.0178 C   0  0  0  0  0  0  0  0  0  0  0  0
   27.2301  -19.5152  -16.5059 C   0  0  0  0  0  0  0  0  0  0  0  0
   26.4512  -20.4731  -15.8764 C   0  0  0  0  0  0  0  0  0  0  0  0
   26.8942  -21.0810  -14.7201 C   0  0  0  0  0  0  0  0  0  0  0  0
   26.1648  -22.0987  -13.9660 C   0  0  0  0  0  0  0  0  0  0  0  0
   25.2510  -21.4933  -12.8798 C   0  0  2  0  0  0  0  0  0  0  0  0
   25.8635  -21.6384  -11.5946 N   0  0  0  0  0  0  0  0  0  0  0  0
   23.9296  -22.1189  -13.0285 C   0  0  0  0  0  0  0  0  0  0  0  0
   23.6021  -23.2602  -12.6703 O   0  0  0  0  0  0  0  0  0  0  0  0
   28.1389  -20.6828  -14.2385 C   0  0  0  0  0  0  0  0  0  0  0  0
   28.9069  -19.7356  -14.8626 C   0  0  0  0  0  0  0  0  0  0  0  0
   22.8984  -21.3306  -13.6548 N   0  0  0  0  0  0  0  0  0  0  0  0
   21.5516  -21.8666  -13.8156 C   0  0  1  0  0  0  0  0  0  0  0  0
   20.5967  -20.7254  -13.5212 C   0  0  0  0  0  0  0  0  0  0  0  0
   20.5153  -20.3723  -12.0951 C   0  0  0  0  0  0  0  0  0  0  0  0
   19.8147  -21.1325  -11.1859 C   0  0  0  0  0  0  0  0  0  0  0  0
   19.7487  -20.8013   -9.8482 C   0  0  0  0  0  0  0  0  0  0  0  0
   20.3915  -19.6788   -9.3632 C   0  0  0  0  0  0  0  0  0  0  0  0
   21.0923  -18.9159  -10.2661 C   0  0  0  0  0  0  0  0  0  0  0  0
   21.1706  -19.2320  -11.6122 C   0  0  0  0  0  0  0  0  0  0  0  0
   21.3624  -22.3064  -15.2035 C   0  0  0  0  0  0  0  0  0  0  0  0
   22.2665  -21.9503  -16.1795 O   0  0  0  0  0  0  0  0  0  0  0  0
   20.3754  -23.0081  -15.5033 O   0  0  0  0  0  0  0  0  0  0  0  0
  2  1  1  6
  3  4  1  0
  3  2  1  0
  4  5  2  0
  6  5  1  0
  7  6  1  0
  8  7  2  0
  9  8  1  0
 10  9  2  0
 10 11  1  0
 11 12  2  0
 12  7  1  0
 12  4  1  0
 13  2  1  0
 14 13  2  0
 15 16  1  0
 16 17  2  0
 17 18  1  0
 19 20  1  0
 19 18  2  0
 21 20  1  6
 21 22  1  0
 21 23  1  0
 22 13  1  0
 23 27  1  0
 23 24  2  0
 25 19  1  0
 26 25  2  0
 26 16  1  0
 27 28  1  0
 28 29  1  6
 29 30  1  0
 30 35  1  0
 30 31  2  0
 31 32  1  0
 32 33  2  0
 34 33  1  0
 35 34  2  0
 36 28  1  0
 36 37  1  0
 38 36  2  0
M  END
$$$$
