WYF.pdb
     RDKit          3D

 38 41  0  0  1  0  0  0  0  0999 V2000
   18.7543  -10.4393  -13.9745 N   0  0  0  0  0  0  0  0  0  0  0  0
   18.1010   -9.1090  -13.9870 C   0  0  1  0  0  0  0  0  0  0  0  0
   16.7012   -9.3947  -14.4928 C   0  0  0  0  0  0  0  0  0  0  0  0
   16.6770   -9.6414  -15.9373 C   0  0  0  0  0  0  0  0  0  0  0  0
   16.3250  -10.8367  -16.5772 C   0  0  0  0  0  0  0  0  0  0  0  0
   16.4414  -10.6453  -17.8990 N   0  0  0  0  0  0  0  0  0  0  0  0
   16.8510   -9.3894  -18.1722 C   0  0  0  0  0  0  0  0  0  0  0  0
   17.1190   -8.7065  -19.3497 C   0  0  0  0  0  0  0  0  0  0  0  0
   17.5374   -7.3926  -19.3317 C   0  0  0  0  0  0  0  0  0  0  0  0
   17.6837   -6.7697  -18.1113 C   0  0  0  0  0  0  0  0  0  0  0  0
   17.4180   -7.4449  -16.9401 C   0  0  0  0  0  0  0  0  0  0  0  0
   16.9964   -8.7695  -16.9576 C   0  0  0  0  0  0  0  0  0  0  0  0
   18.0270   -8.5984  -12.5910 C   0  0  0  0  0  0  0  0  0  0  0  0
   17.7062   -9.3859  -11.6292 O   0  0  0  0  0  0  0  0  0  0  0  0
   22.3566   -3.7314  -14.6917 O   0  0  0  0  0  0  0  0  0  0  0  0
   21.6547   -4.2882  -13.6394 C   0  0  0  0  0  0  0  0  0  0  0  0
   20.8238   -3.5543  -12.8155 C   0  0  0  0  0  0  0  0  0  0  0  0
   20.1274   -4.1288  -11.7641 C   0  0  0  0  0  0  0  0  0  0  0  0
   20.2464   -5.4783  -11.5047 C   0  0  0  0  0  0  0  0  0  0  0  0
   19.5681   -6.1962  -10.4272 C   0  0  0  0  0  0  0  0  0  0  0  0
   18.2048   -6.7732  -10.8629 C   0  0  2  0  0  0  0  0  0  0  0  0
   18.2918   -7.2628  -12.2047 N   0  0  0  0  0  0  0  0  0  0  0  0
   17.1988   -5.7273  -10.6318 C   0  0  0  0  0  0  0  0  0  0  0  0
   16.6669   -5.0044  -11.4876 O   0  0  0  0  0  0  0  0  0  0  0  0
   21.0870   -6.2071  -12.3426 C   0  0  0  0  0  0  0  0  0  0  0  0
   21.7744   -5.6368  -13.3812 C   0  0  0  0  0  0  0  0  0  0  0  0
   16.7787   -5.5119   -9.2701 N   0  0  0  0  0  0  0  0  0  0  0  0
   15.7635   -4.5125   -8.9578 C   0  0  1  0  0  0  0  0  0  0  0  0
   15.0867   -4.9717   -7.6803 C   0  0  0  0  0  0  0  0  0  0  0  0
   14.2127   -6.1418   -7.8591 C   0  0  0  0  0  0  0  0  0  0  0  0
   12.8884   -6.0254   -8.2166 C   0  0  0  0  0  0  0  0  0  0  0  0
   12.0755   -7.1265   -8.3911 C   0  0  0  0  0  0  0  0  0  0  0  0
   12.5659   -8.4054   -8.2111 C   0  0  0  0  0  0  0  0  0  0  0  0
   13.8872   -8.5279   -7.8539 C   0  0  0  0  0  0  0  0  0  0  0  0
   14.7189   -7.4351   -7.6744 C   0  0  0  0  0  0  0  0  0  0  0  0
   16.4100   -3.2158   -8.7204 C   0  0  0  0  0  0  0  0  0  0  0  0
   15.6601   -2.0625   -8.6524 O   0  0  0  0  0  0  0  0  0  0  0  0
   17.6481   -3.1559   -8.5793 O   0  0  0  0  0  0  0  0  0  0  0  0
  2  1  1  1
  3  4  1  0
  3  2  1  0
  4  5  2  0
  6  5  1  0
  7  6  1  0
  8  7  2  0
  9  8  1  0
 10  9  2  0
 10 11  1  0
 11 12  2  0
 12  7  1  0
 12  4  1  0
 13  2  1  0
 14 13  2  0
 15 16  1  0
 16 17  2  0
 17 18  1  0
 19 20  1  0
 19 18  2  0
 21 20  1  6
 21 22  1  0
 21 23  1  0
 22 13  1  0
 23 27  1  0
 23 24  2  0
 25 19  1  0
 26 25  2  0
 26 16  1  0
 27 28  1  0
 28 29  1  1
 29 30  1  0
 30 35  1  0
 30 31  2  0
 31 32  1  0
 32 33  2  0
 34 33  1  0
 35 34  2  0
 36 28  1  0
 36 37  1  0
 38 36  2  0
M  END
$$$$
