WYF.pdb
     RDKit          3D

 38 41  0  0  1  0  0  0  0  0999 V2000
   24.6605  -20.7265  -14.6012 N   0  0  0  0  0  0  0  0  0  0  0  0
   25.9937  -20.4512  -14.0153 C   0  0  1  0  0  0  0  0  0  0  0  0
   26.4856  -19.2393  -14.7810 C   0  0  0  0  0  0  0  0  0  0  0  0
   26.7382  -19.5444  -16.1922 C   0  0  0  0  0  0  0  0  0  0  0  0
   26.2162  -18.8678  -17.3020 C   0  0  0  0  0  0  0  0  0  0  0  0
   26.6866  -19.4650  -18.4063 N   0  0  0  0  0  0  0  0  0  0  0  0
   27.4920  -20.5003  -18.0913 C   0  0  0  0  0  0  0  0  0  0  0  0
   28.2083  -21.4178  -18.8460 C   0  0  0  0  0  0  0  0  0  0  0  0
   28.9669  -22.3988  -18.2427 C   0  0  0  0  0  0  0  0  0  0  0  0
   28.9979  -22.4472  -16.8660 C   0  0  0  0  0  0  0  0  0  0  0  0
   28.2880  -21.5372  -16.1135 C   0  0  0  0  0  0  0  0  0  0  0  0
   27.5230  -20.5483  -16.7211 C   0  0  0  0  0  0  0  0  0  0  0  0
   25.8221  -20.0928  -12.5811 C   0  0  0  0  0  0  0  0  0  0  0  0
   25.6690  -18.8664  -12.2335 O   0  0  0  0  0  0  0  0  0  0  0  0
   19.9878  -19.2726  -12.6256 O   0  0  0  0  0  0  0  0  0  0  0  0
   21.0481  -19.6898  -11.8436 C   0  0  0  0  0  0  0  0  0  0  0  0
   21.4409  -19.0327  -10.6939 C   0  0  0  0  0  0  0  0  0  0  0  0
   22.5072  -19.4647   -9.9213 C   0  0  0  0  0  0  0  0  0  0  0  0
   23.2218  -20.5869  -10.2859 C   0  0  0  0  0  0  0  0  0  0  0  0
   24.3634  -21.1370   -9.5575 C   0  0  0  0  0  0  0  0  0  0  0  0
   25.7171  -20.6660  -10.1296 C   0  0  2  0  0  0  0  0  0  0  0  0
   25.8089  -21.0212  -11.5128 N   0  0  0  0  0  0  0  0  0  0  0  0
   26.7680  -21.2148   -9.2613 C   0  0  0  0  0  0  0  0  0  0  0  0
   27.1489  -22.3939   -9.2083 O   0  0  0  0  0  0  0  0  0  0  0  0
   22.8156  -21.2404  -11.4467 C   0  0  0  0  0  0  0  0  0  0  0  0
   21.7613  -20.8113  -12.2088 C   0  0  0  0  0  0  0  0  0  0  0  0
   27.4327  -20.2933   -8.3748 N   0  0  0  0  0  0  0  0  0  0  0  0
   28.4122  -20.7732   -7.4068 C   0  0  1  0  0  0  0  0  0  0  0  0
   29.1956  -19.5577   -6.9490 C   0  0  0  0  0  0  0  0  0  0  0  0
   28.7145  -18.9837   -5.6825 C   0  0  0  0  0  0  0  0  0  0  0  0
   27.6949  -18.0599   -5.6317 C   0  0  0  0  0  0  0  0  0  0  0  0
   27.2419  -17.5312   -4.4405 C   0  0  0  0  0  0  0  0  0  0  0  0
   27.8018  -17.9134   -3.2368 C   0  0  0  0  0  0  0  0  0  0  0  0
   28.8201  -18.8351   -3.2813 C   0  0  0  0  0  0  0  0  0  0  0  0
   29.2883  -19.3773   -4.4665 C   0  0  0  0  0  0  0  0  0  0  0  0
   27.7153  -21.3584   -6.2545 C   0  0  0  0  0  0  0  0  0  0  0  0
   28.4117  -22.0730   -5.3051 O   0  0  0  0  0  0  0  0  0  0  0  0
   26.4828  -21.2086   -6.1328 O   0  0  0  0  0  0  0  0  0  0  0  0
  2  1  1  6
  3  4  1  0
  3  2  1  0
  4  5  2  0
  6  5  1  0
  7  6  1  0
  8  7  2  0
  9  8  1  0
 10  9  2  0
 10 11  1  0
 11 12  2  0
 12  7  1  0
 12  4  1  0
 13  2  1  0
 14 13  2  0
 15 16  1  0
 16 17  2  0
 17 18  1  0
 19 20  1  0
 19 18  2  0
 21 20  1  1
 21 22  1  0
 21 23  1  0
 22 13  1  0
 23 27  1  0
 23 24  2  0
 25 19  1  0
 26 25  2  0
 26 16  1  0
 27 28  1  0
 28 29  1  1
 29 30  1  0
 30 35  1  0
 30 31  2  0
 31 32  1  0
 32 33  2  0
 34 33  1  0
 35 34  2  0
 36 28  1  0
 36 37  1  0
 38 36  2  0
M  END
$$$$
