WYF.pdb
     RDKit          3D

 38 41  0  0  1  0  0  0  0  0999 V2000
   16.6399  -16.4269    6.2540 N   0  0  0  0  0  0  0  0  0  0  0  0
   17.0724  -17.4842    5.3098 C   0  0  1  0  0  0  0  0  0  0  0  0
   18.5064  -17.1181    4.9838 C   0  0  0  0  0  0  0  0  0  0  0  0
   18.5889  -16.0642    3.9686 C   0  0  0  0  0  0  0  0  0  0  0  0
   17.7708  -14.9317    3.8685 C   0  0  0  0  0  0  0  0  0  0  0  0
   18.1717  -14.2279    2.8001 N   0  0  0  0  0  0  0  0  0  0  0  0
   19.2106  -14.8302    2.1856 C   0  0  0  0  0  0  0  0  0  0  0  0
   19.9698  -14.5194    1.0668 C   0  0  0  0  0  0  0  0  0  0  0  0
   20.9981  -15.3400    0.6534 C   0  0  0  0  0  0  0  0  0  0  0  0
   21.2563  -16.4816    1.3807 C   0  0  0  0  0  0  0  0  0  0  0  0
   20.5044  -16.7929    2.4925 C   0  0  0  0  0  0  0  0  0  0  0  0
   19.4676  -15.9662    2.9095 C   0  0  0  0  0  0  0  0  0  0  0  0
   17.0453  -18.7953    6.0135 C   0  0  0  0  0  0  0  0  0  0  0  0
   17.6594  -18.9436    7.1312 O   0  0  0  0  0  0  0  0  0  0  0  0
   12.6817  -19.3564   10.9280 O   0  0  0  0  0  0  0  0  0  0  0  0
   13.2582  -19.9196    9.8052 C   0  0  0  0  0  0  0  0  0  0  0  0
   13.1901  -19.3413    8.5526 C   0  0  0  0  0  0  0  0  0  0  0  0
   13.7738  -19.9200    7.4369 C   0  0  0  0  0  0  0  0  0  0  0  0
   14.4539  -21.1150    7.5474 C   0  0  0  0  0  0  0  0  0  0  0  0
   15.1062  -21.8226    6.4473 C   0  0  0  0  0  0  0  0  0  0  0  0
   16.5026  -21.2537    6.1190 C   0  0  2  0  0  0  0  0  0  0  0  0
   16.3722  -19.9491    5.5456 N   0  0  0  0  0  0  0  0  0  0  0  0
   17.1898  -22.2491    5.2844 C   0  0  0  0  0  0  0  0  0  0  0  0
   16.9799  -22.4874    4.0856 O   0  0  0  0  0  0  0  0  0  0  0  0
   14.5155  -21.6875    8.8156 C   0  0  0  0  0  0  0  0  0  0  0  0
   13.9376  -21.1135    9.9170 C   0  0  0  0  0  0  0  0  0  0  0  0
   18.2186  -23.0359    5.9165 N   0  0  0  0  0  0  0  0  0  0  0  0
   18.8967  -24.0966    5.1805 C   0  0  1  0  0  0  0  0  0  0  0  0
   20.2958  -23.5895    4.8866 C   0  0  0  0  0  0  0  0  0  0  0  0
   20.9537  -22.9593    6.0419 C   0  0  0  0  0  0  0  0  0  0  0  0
   21.3963  -23.6849    7.1250 C   0  0  0  0  0  0  0  0  0  0  0  0
   22.0203  -23.0898    8.2021 C   0  0  0  0  0  0  0  0  0  0  0  0
   22.2276  -21.7243    8.2356 C   0  0  0  0  0  0  0  0  0  0  0  0
   21.7878  -20.9948    7.1573 C   0  0  0  0  0  0  0  0  0  0  0  0
   21.1598  -21.5738    6.0672 C   0  0  0  0  0  0  0  0  0  0  0  0
   18.9867  -25.2962    6.0224 C   0  0  0  0  0  0  0  0  0  0  0  0
   18.5452  -25.2699    7.3267 O   0  0  0  0  0  0  0  0  0  0  0  0
   19.4668  -26.3483    5.5546 O   0  0  0  0  0  0  0  0  0  0  0  0
  2  1  1  1
  3  4  1  0
  3  2  1  0
  4  5  2  0
  6  5  1  0
  7  6  1  0
  8  7  2  0
  9  8  1  0
 10  9  2  0
 10 11  1  0
 11 12  2  0
 12  7  1  0
 12  4  1  0
 13  2  1  0
 14 13  2  0
 15 16  1  0
 16 17  2  0
 17 18  1  0
 19 20  1  0
 19 18  2  0
 21 20  1  6
 21 22  1  0
 21 23  1  0
 22 13  1  0
 23 27  1  0
 23 24  2  0
 25 19  1  0
 26 25  2  0
 26 16  1  0
 27 28  1  0
 28 29  1  1
 29 30  1  0
 30 35  1  0
 30 31  2  0
 31 32  1  0
 32 33  2  0
 34 33  1  0
 35 34  2  0
 36 28  1  0
 36 37  1  0
 38 36  2  0
M  END
$$$$
