WYF.pdb
     RDKit          3D

 38 41  0  0  1  0  0  0  0  0999 V2000
   26.2839  -19.2506  -15.3119 N   0  0  0  0  0  0  0  0  0  0  0  0
   26.9690  -18.4582  -14.2634 C   0  0  1  0  0  0  0  0  0  0  0  0
   26.6318  -17.0224  -14.6123 C   0  0  0  0  0  0  0  0  0  0  0  0
   27.2785  -16.5909  -15.8548 C   0  0  0  0  0  0  0  0  0  0  0  0
   26.8554  -15.5619  -16.7058 C   0  0  0  0  0  0  0  0  0  0  0  0
   27.7173  -15.4952  -17.7305 N   0  0  0  0  0  0  0  0  0  0  0  0
   28.6891  -16.4226  -17.6070 C   0  0  0  0  0  0  0  0  0  0  0  0
   29.7906  -16.7612  -18.3794 C   0  0  0  0  0  0  0  0  0  0  0  0
   30.6371  -17.7831  -18.0038 C   0  0  0  0  0  0  0  0  0  0  0  0
   30.3629  -18.4637  -16.8374 C   0  0  0  0  0  0  0  0  0  0  0  0
   29.2700  -18.1297  -16.0678 C   0  0  0  0  0  0  0  0  0  0  0  0
   28.4163  -17.0998  -16.4462 C   0  0  0  0  0  0  0  0  0  0  0  0
   26.3752  -18.7977  -12.9416 C   0  0  0  0  0  0  0  0  0  0  0  0
   25.6572  -17.9382  -12.3139 O   0  0  0  0  0  0  0  0  0  0  0  0
   20.1047  -20.4110  -13.7083 O   0  0  0  0  0  0  0  0  0  0  0  0
   21.3266  -20.7190  -13.1408 C   0  0  0  0  0  0  0  0  0  0  0  0
   22.3976  -21.1962  -13.8709 C   0  0  0  0  0  0  0  0  0  0  0  0
   23.6164  -21.5005  -13.2855 C   0  0  0  0  0  0  0  0  0  0  0  0
   23.7987  -21.3320  -11.9286 C   0  0  0  0  0  0  0  0  0  0  0  0
   25.0314  -21.6200  -11.1980 C   0  0  0  0  0  0  0  0  0  0  0  0
   25.9271  -20.3748  -11.0282 C   0  0  2  0  0  0  0  0  0  0  0  0
   26.5331  -20.0390  -12.2804 N   0  0  0  0  0  0  0  0  0  0  0  0
   26.8581  -20.6587   -9.9273 C   0  0  0  0  0  0  0  0  0  0  0  0
   27.8556  -21.3945   -9.9673 O   0  0  0  0  0  0  0  0  0  0  0  0
   22.7113  -20.8500  -11.2040 C   0  0  0  0  0  0  0  0  0  0  0  0
   21.5076  -20.5501  -11.7850 C   0  0  0  0  0  0  0  0  0  0  0  0
   26.5929  -20.0183   -8.6637 N   0  0  0  0  0  0  0  0  0  0  0  0
   27.4036  -20.3288   -7.4918 C   0  0  1  0  0  0  0  0  0  0  0  0
   27.4625  -19.0609   -6.6614 C   0  0  0  0  0  0  0  0  0  0  0  0
   28.1693  -19.2220   -5.3810 C   0  0  0  0  0  0  0  0  0  0  0  0
   29.5411  -19.1577   -5.2827 C   0  0  0  0  0  0  0  0  0  0  0  0
   30.1983  -19.3010   -4.0781 C   0  0  0  0  0  0  0  0  0  0  0  0
   29.4956  -19.5179   -2.9086 C   0  0  0  0  0  0  0  0  0  0  0  0
   28.1261  -19.5833   -3.0005 C   0  0  0  0  0  0  0  0  0  0  0  0
   27.4484  -19.4415   -4.2000 C   0  0  0  0  0  0  0  0  0  0  0  0
   26.7495  -21.3859   -6.7103 C   0  0  0  0  0  0  0  0  0  0  0  0
   27.4859  -22.1930   -5.8717 O   0  0  0  0  0  0  0  0  0  0  0  0
   25.5173  -21.5560   -6.8055 O   0  0  0  0  0  0  0  0  0  0  0  0
  2  1  1  6
  3  4  1  0
  3  2  1  0
  4  5  2  0
  6  5  1  0
  7  6  1  0
  8  7  2  0
  9  8  1  0
 10  9  2  0
 10 11  1  0
 11 12  2  0
 12  7  1  0
 12  4  1  0
 13  2  1  0
 14 13  2  0
 15 16  1  0
 16 17  2  0
 17 18  1  0
 19 20  1  0
 19 18  2  0
 21 20  1  6
 21 22  1  0
 21 23  1  0
 22 13  1  0
 23 27  1  0
 23 24  2  0
 25 19  1  0
 26 25  2  0
 26 16  1  0
 27 28  1  0
 28 29  1  1
 29 30  1  0
 30 35  1  0
 30 31  2  0
 31 32  1  0
 32 33  2  0
 34 33  1  0
 35 34  2  0
 36 28  1  0
 36 37  1  0
 38 36  2  0
M  END
$$$$
