WYF.pdb
     RDKit          3D

 38 41  0  0  1  0  0  0  0  0999 V2000
   23.4987  -19.5334  -16.7320 N   0  0  0  0  0  0  0  0  0  0  0  0
   24.4831  -19.1739  -15.6840 C   0  0  1  0  0  0  0  0  0  0  0  0
   23.6495  -18.4881  -14.6201 C   0  0  0  0  0  0  0  0  0  0  0  0
   23.4369  -17.0686  -14.9168 C   0  0  0  0  0  0  0  0  0  0  0  0
   22.2064  -16.4039  -14.9932 C   0  0  0  0  0  0  0  0  0  0  0  0
   22.4503  -15.1202  -15.2928 N   0  0  0  0  0  0  0  0  0  0  0  0
   23.7744  -14.8956  -15.4195 C   0  0  0  0  0  0  0  0  0  0  0  0
   24.5288  -13.7696  -15.7155 C   0  0  0  0  0  0  0  0  0  0  0  0
   25.9047  -13.8317  -15.7840 C   0  0  0  0  0  0  0  0  0  0  0  0
   26.5168  -15.0439  -15.5502 C   0  0  0  0  0  0  0  0  0  0  0  0
   25.7707  -16.1641  -15.2556 C   0  0  0  0  0  0  0  0  0  0  0  0
   24.3836  -16.1020  -15.1866 C   0  0  0  0  0  0  0  0  0  0  0  0
   25.0659  -20.4239  -15.1250 C   0  0  0  0  0  0  0  0  0  0  0  0
   24.4299  -21.5350  -15.2214 O   0  0  0  0  0  0  0  0  0  0  0  0
   28.7272  -21.8318  -20.1577 O   0  0  0  0  0  0  0  0  0  0  0  0
   28.6476  -21.7767  -18.7791 C   0  0  0  0  0  0  0  0  0  0  0  0
   28.7952  -20.6054  -18.0619 C   0  0  0  0  0  0  0  0  0  0  0  0
   28.7128  -20.5682  -16.6790 C   0  0  0  0  0  0  0  0  0  0  0  0
   28.4759  -21.7238  -15.9641 C   0  0  0  0  0  0  0  0  0  0  0  0
   28.3713  -21.8124  -14.5089 C   0  0  0  0  0  0  0  0  0  0  0  0
   26.9133  -21.7259  -14.0108 C   0  0  2  0  0  0  0  0  0  0  0  0
   26.3164  -20.5081  -14.4673 N   0  0  0  0  0  0  0  0  0  0  0  0
   26.9425  -21.9123  -12.5534 C   0  0  0  0  0  0  0  0  0  0  0  0
   27.3365  -22.9150  -11.9392 O   0  0  0  0  0  0  0  0  0  0  0  0
   28.3287  -22.8978  -16.6989 C   0  0  0  0  0  0  0  0  0  0  0  0
   28.4107  -22.9320  -18.0658 C   0  0  0  0  0  0  0  0  0  0  0  0
   26.4657  -20.8195  -11.7437 N   0  0  0  0  0  0  0  0  0  0  0  0
   26.4652  -20.9214  -10.2889 C   0  0  1  0  0  0  0  0  0  0  0  0
   27.3604  -19.8078   -9.7795 C   0  0  0  0  0  0  0  0  0  0  0  0
   27.3497  -19.6601   -8.3156 C   0  0  0  0  0  0  0  0  0  0  0  0
   26.7588  -18.5872   -7.6869 C   0  0  0  0  0  0  0  0  0  0  0  0
   26.7442  -18.4580   -6.3133 C   0  0  0  0  0  0  0  0  0  0  0  0
   27.3303  -19.4130   -5.5052 C   0  0  0  0  0  0  0  0  0  0  0  0
   27.9219  -20.4861   -6.1272 C   0  0  0  0  0  0  0  0  0  0  0  0
   27.9465  -20.6336   -7.5039 C   0  0  0  0  0  0  0  0  0  0  0  0
   25.1024  -20.7121   -9.7840 C   0  0  0  0  0  0  0  0  0  0  0  0
   24.7468  -21.1510   -8.5279 O   0  0  0  0  0  0  0  0  0  0  0  0
   24.2584  -20.1328  -10.4970 O   0  0  0  0  0  0  0  0  0  0  0  0
  2  1  1  6
  3  4  1  0
  3  2  1  0
  4  5  2  0
  6  5  1  0
  7  6  1  0
  8  7  2  0
  9  8  1  0
 10  9  2  0
 10 11  1  0
 11 12  2  0
 12  7  1  0
 12  4  1  0
 13  2  1  0
 14 13  2  0
 15 16  1  0
 16 17  2  0
 17 18  1  0
 19 20  1  0
 19 18  2  0
 21 20  1  1
 21 22  1  0
 21 23  1  0
 22 13  1  0
 23 27  1  0
 23 24  2  0
 25 19  1  0
 26 25  2  0
 26 16  1  0
 27 28  1  0
 28 29  1  1
 29 30  1  0
 30 35  1  0
 30 31  2  0
 31 32  1  0
 32 33  2  0
 34 33  1  0
 35 34  2  0
 36 28  1  0
 36 37  1  0
 38 36  2  0
M  END
$$$$
