WYF.pdb
     RDKit          3D

 38 41  0  0  1  0  0  0  0  0999 V2000
   26.9885  -18.5756  -20.1464 N   0  0  0  0  0  0  0  0  0  0  0  0
   27.1724  -18.7334  -18.6843 C   0  0  1  0  0  0  0  0  0  0  0  0
   26.7895  -17.3799  -18.1201 C   0  0  0  0  0  0  0  0  0  0  0  0
   27.7794  -16.3484  -18.4429 C   0  0  0  0  0  0  0  0  0  0  0  0
   27.5352  -15.1200  -19.0700 C   0  0  0  0  0  0  0  0  0  0  0  0
   28.7059  -14.4769  -19.1848 N   0  0  0  0  0  0  0  0  0  0  0  0
   29.7138  -15.2100  -18.6686 C   0  0  0  0  0  0  0  0  0  0  0  0
   31.0799  -15.0030  -18.5447 C   0  0  0  0  0  0  0  0  0  0  0  0
   31.8939  -15.9507  -17.9607 C   0  0  0  0  0  0  0  0  0  0  0  0
   31.3166  -17.1139  -17.5000 C   0  0  0  0  0  0  0  0  0  0  0  0
   29.9600  -17.3225  -17.6211 C   0  0  0  0  0  0  0  0  0  0  0  0
   29.1391  -16.3676  -18.2100 C   0  0  0  0  0  0  0  0  0  0  0  0
   26.2179  -19.7626  -18.1896 C   0  0  0  0  0  0  0  0  0  0  0  0
   25.0072  -19.7817  -18.6163 O   0  0  0  0  0  0  0  0  0  0  0  0
   22.8096  -26.8913  -14.1898 O   0  0  0  0  0  0  0  0  0  0  0  0
   23.6621  -25.8721  -14.5697 C   0  0  0  0  0  0  0  0  0  0  0  0
   23.9878  -24.8145  -13.7430 C   0  0  0  0  0  0  0  0  0  0  0  0
   24.8445  -23.8002  -14.1403 C   0  0  0  0  0  0  0  0  0  0  0  0
   25.4085  -23.8181  -15.3990 C   0  0  0  0  0  0  0  0  0  0  0  0
   26.3205  -22.8080  -15.9323 C   0  0  0  0  0  0  0  0  0  0  0  0
   25.5834  -21.6737  -16.6750 C   0  0  2  0  0  0  0  0  0  0  0  0
   26.5346  -20.7721  -17.2496 N   0  0  0  0  0  0  0  0  0  0  0  0
   24.6368  -21.0769  -15.7225 C   0  0  0  0  0  0  0  0  0  0  0  0
   24.9155  -20.3968  -14.7236 O   0  0  0  0  0  0  0  0  0  0  0  0
   25.0724  -24.8898  -16.2226 C   0  0  0  0  0  0  0  0  0  0  0  0
   24.2252  -25.8910  -15.8275 C   0  0  0  0  0  0  0  0  0  0  0  0
   23.2340  -21.2990  -15.9670 N   0  0  0  0  0  0  0  0  0  0  0  0
   22.2317  -20.8029  -15.0310 C   0  0  1  0  0  0  0  0  0  0  0  0
   21.5358  -19.6447  -15.7201 C   0  0  0  0  0  0  0  0  0  0  0  0
   20.9507  -19.9944  -17.0240 C   0  0  0  0  0  0  0  0  0  0  0  0
   19.7307  -20.6216  -17.1407 C   0  0  0  0  0  0  0  0  0  0  0  0
   19.1829  -20.9398  -18.3663 C   0  0  0  0  0  0  0  0  0  0  0  0
   19.8467  -20.6372  -19.5395 C   0  0  0  0  0  0  0  0  0  0  0  0
   21.0651  -20.0112  -19.4294 C   0  0  0  0  0  0  0  0  0  0  0  0
   21.6311  -19.6836  -18.2087 C   0  0  0  0  0  0  0  0  0  0  0  0
   21.2504  -21.8606  -14.7587 C   0  0  0  0  0  0  0  0  0  0  0  0
   21.3235  -23.0687  -15.4161 O   0  0  0  0  0  0  0  0  0  0  0  0
   20.3423  -21.6654  -13.9259 O   0  0  0  0  0  0  0  0  0  0  0  0
  2  1  1  6
  3  4  1  0
  3  2  1  0
  4  5  2  0
  6  5  1  0
  7  6  1  0
  8  7  2  0
  9  8  1  0
 10  9  2  0
 10 11  1  0
 11 12  2  0
 12  7  1  0
 12  4  1  0
 13  2  1  0
 14 13  2  0
 15 16  1  0
 16 17  2  0
 17 18  1  0
 19 20  1  0
 19 18  2  0
 21 20  1  1
 21 22  1  0
 21 23  1  0
 22 13  1  0
 23 27  1  0
 23 24  2  0
 25 19  1  0
 26 25  2  0
 26 16  1  0
 27 28  1  0
 28 29  1  6
 29 30  1  0
 30 35  1  0
 30 31  2  0
 31 32  1  0
 32 33  2  0
 34 33  1  0
 35 34  2  0
 36 28  1  0
 36 37  1  0
 38 36  2  0
M  END
$$$$
