WYF.pdb
     RDKit          3D

 38 41  0  0  1  0  0  0  0  0999 V2000
   25.9863  -20.7485  -16.5072 N   0  0  0  0  0  0  0  0  0  0  0  0
   26.8105  -21.1940  -15.3588 C   0  0  1  0  0  0  0  0  0  0  0  0
   28.1653  -20.5656  -15.6164 C   0  0  0  0  0  0  0  0  0  0  0  0
   28.8245  -21.1400  -16.7928 C   0  0  0  0  0  0  0  0  0  0  0  0
   29.3755  -20.4364  -17.8713 C   0  0  0  0  0  0  0  0  0  0  0  0
   29.8724  -21.3324  -18.7360 N   0  0  0  0  0  0  0  0  0  0  0  0
   29.6819  -22.5917  -18.2914 C   0  0  0  0  0  0  0  0  0  0  0  0
   29.9994  -23.8428  -18.7997 C   0  0  0  0  0  0  0  0  0  0  0  0
   29.6730  -24.9940  -18.1142 C   0  0  0  0  0  0  0  0  0  0  0  0
   29.0212  -24.8729  -16.9062 C   0  0  0  0  0  0  0  0  0  0  0  0
   28.7048  -23.6319  -16.3983 C   0  0  0  0  0  0  0  0  0  0  0  0
   29.0334  -22.4711  -17.0891 C   0  0  0  0  0  0  0  0  0  0  0  0
   26.2343  -20.6298  -14.1080 C   0  0  0  0  0  0  0  0  0  0  0  0
   26.0493  -19.3645  -13.9931 O   0  0  0  0  0  0  0  0  0  0  0  0
   20.3580  -19.3363  -15.5897 O   0  0  0  0  0  0  0  0  0  0  0  0
   21.2015  -19.7804  -14.5890 C   0  0  0  0  0  0  0  0  0  0  0  0
   21.4856  -19.0389  -13.4588 C   0  0  0  0  0  0  0  0  0  0  0  0
   22.3344  -19.4994  -12.4648 C   0  0  0  0  0  0  0  0  0  0  0  0
   22.9322  -20.7374  -12.5778 C   0  0  0  0  0  0  0  0  0  0  0  0
   23.8450  -21.3288  -11.6014 C   0  0  0  0  0  0  0  0  0  0  0  0
   25.2998  -20.8454  -11.7779 C   0  0  2  0  0  0  0  0  0  0  0  0
   25.8504  -21.3932  -12.9798 N   0  0  0  0  0  0  0  0  0  0  0  0
   26.0190  -21.1775  -10.5402 C   0  0  0  0  0  0  0  0  0  0  0  0
   26.5089  -22.2754  -10.2360 O   0  0  0  0  0  0  0  0  0  0  0  0
   22.6373  -21.4750  -13.7217 C   0  0  0  0  0  0  0  0  0  0  0  0
   21.7981  -21.0175  -14.7030 C   0  0  0  0  0  0  0  0  0  0  0  0
   26.1778  -20.1221   -9.5716 N   0  0  0  0  0  0  0  0  0  0  0  0
   26.5159  -20.4324   -8.1873 C   0  0  1  0  0  0  0  0  0  0  0  0
   26.9920  -19.1361   -7.5600 C   0  0  0  0  0  0  0  0  0  0  0  0
   27.8361  -19.3273   -6.3701 C   0  0  0  0  0  0  0  0  0  0  0  0
   28.9582  -20.1248   -6.3822 C   0  0  0  0  0  0  0  0  0  0  0  0
   29.7509  -20.2938   -5.2657 C   0  0  0  0  0  0  0  0  0  0  0  0
   29.4448  -19.6609   -4.0765 C   0  0  0  0  0  0  0  0  0  0  0  0
   28.3257  -18.8636   -4.0583 C   0  0  0  0  0  0  0  0  0  0  0  0
   27.5179  -18.6812   -5.1683 C   0  0  0  0  0  0  0  0  0  0  0  0
   25.3142  -20.8954   -7.4820 C   0  0  0  0  0  0  0  0  0  0  0  0
   25.4230  -21.6884   -6.3613 O   0  0  0  0  0  0  0  0  0  0  0  0
   24.1849  -20.5691   -7.8997 O   0  0  0  0  0  0  0  0  0  0  0  0
  2  1  1  6
  3  4  1  0
  3  2  1  0
  4  5  2  0
  6  5  1  0
  7  6  1  0
  8  7  2  0
  9  8  1  0
 10  9  2  0
 10 11  1  0
 11 12  2  0
 12  7  1  0
 12  4  1  0
 13  2  1  0
 14 13  2  0
 15 16  1  0
 16 17  2  0
 17 18  1  0
 19 20  1  0
 19 18  2  0
 21 20  1  1
 21 22  1  0
 21 23  1  0
 22 13  1  0
 23 27  1  0
 23 24  2  0
 25 19  1  0
 26 25  2  0
 26 16  1  0
 27 28  1  0
 28 29  1  1
 29 30  1  0
 30 35  1  0
 30 31  2  0
 31 32  1  0
 32 33  2  0
 34 33  1  0
 35 34  2  0
 36 28  1  0
 36 37  1  0
 38 36  2  0
M  END
$$$$
