WYF.pdb
     RDKit          3D

 38 41  0  0  1  0  0  0  0  0999 V2000
   26.2032  -21.7215  -14.2301 N   0  0  0  0  0  0  0  0  0  0  0  0
   26.1608  -20.5538  -13.3184 C   0  0  1  0  0  0  0  0  0  0  0  0
   24.7730  -19.9805  -13.5240 C   0  0  0  0  0  0  0  0  0  0  0  0
   24.6482  -19.2869  -14.8092 C   0  0  0  0  0  0  0  0  0  0  0  0
   23.7032  -19.5429  -15.8109 C   0  0  0  0  0  0  0  0  0  0  0  0
   23.9371  -18.6954  -16.8230 N   0  0  0  0  0  0  0  0  0  0  0  0
   24.9847  -17.8910  -16.5489 C   0  0  0  0  0  0  0  0  0  0  0  0
   25.6154  -16.8718  -17.2474 C   0  0  0  0  0  0  0  0  0  0  0  0
   26.6960  -16.2035  -16.7113 C   0  0  0  0  0  0  0  0  0  0  0  0
   27.1373  -16.5725  -15.4592 C   0  0  0  0  0  0  0  0  0  0  0  0
   26.5128  -17.5840  -14.7625 C   0  0  0  0  0  0  0  0  0  0  0  0
   25.4237  -18.2581  -15.3026 C   0  0  0  0  0  0  0  0  0  0  0  0
   26.2933  -21.0355  -11.9165 C   0  0  0  0  0  0  0  0  0  0  0  0
   25.7044  -22.1135  -11.5434 O   0  0  0  0  0  0  0  0  0  0  0  0
   27.7909  -20.5280   -3.1515 O   0  0  0  0  0  0  0  0  0  0  0  0
   27.7274  -20.2632   -4.5065 C   0  0  0  0  0  0  0  0  0  0  0  0
   26.6711  -19.5956   -5.0951 C   0  0  0  0  0  0  0  0  0  0  0  0
   26.6232  -19.3387   -6.4560 C   0  0  0  0  0  0  0  0  0  0  0  0
   27.6506  -19.7507   -7.2792 C   0  0  0  0  0  0  0  0  0  0  0  0
   27.7127  -19.5422   -8.7245 C   0  0  0  0  0  0  0  0  0  0  0  0
   26.7903  -20.5027   -9.5043 C   0  0  2  0  0  0  0  0  0  0  0  0
   27.0453  -20.3873  -10.9077 N   0  0  0  0  0  0  0  0  0  0  0  0
   25.4121  -20.2161   -9.0830 C   0  0  0  0  0  0  0  0  0  0  0  0
   24.7843  -19.1611   -9.2590 O   0  0  0  0  0  0  0  0  0  0  0  0
   28.7097  -20.4224   -6.6734 C   0  0  0  0  0  0  0  0  0  0  0  0
   28.7546  -20.6753   -5.3278 C   0  0  0  0  0  0  0  0  0  0  0  0
   24.7065  -21.2659   -8.3922 N   0  0  0  0  0  0  0  0  0  0  0  0
   23.3425  -21.0556   -7.9211 C   0  0  1  0  0  0  0  0  0  0  0  0
   22.4275  -21.6584   -8.9700 C   0  0  0  0  0  0  0  0  0  0  0  0
   22.2120  -20.7911  -10.1389 C   0  0  0  0  0  0  0  0  0  0  0  0
   22.7126  -21.0948  -11.3849 C   0  0  0  0  0  0  0  0  0  0  0  0
   22.5003  -20.2822  -12.4795 C   0  0  0  0  0  0  0  0  0  0  0  0
   21.7675  -19.1167  -12.3657 C   0  0  0  0  0  0  0  0  0  0  0  0
   21.2653  -18.8082  -11.1243 C   0  0  0  0  0  0  0  0  0  0  0  0
   21.4673  -19.6110  -10.0140 C   0  0  0  0  0  0  0  0  0  0  0  0
   23.1491  -21.7639   -6.6496 C   0  0  0  0  0  0  0  0  0  0  0  0
   21.9792  -21.6167   -5.9379 O   0  0  0  0  0  0  0  0  0  0  0  0
   24.0505  -22.5051   -6.2085 O   0  0  0  0  0  0  0  0  0  0  0  0
  2  1  1  6
  3  4  1  0
  3  2  1  0
  4  5  2  0
  6  5  1  0
  7  6  1  0
  8  7  2  0
  9  8  1  0
 10  9  2  0
 10 11  1  0
 11 12  2  0
 12  7  1  0
 12  4  1  0
 13  2  1  0
 14 13  2  0
 15 16  1  0
 16 17  2  0
 17 18  1  0
 19 20  1  0
 19 18  2  0
 21 20  1  1
 21 22  1  0
 21 23  1  0
 22 13  1  0
 23 27  1  0
 23 24  2  0
 25 19  1  0
 26 25  2  0
 26 16  1  0
 27 28  1  0
 28 29  1  6
 29 30  1  0
 30 35  1  0
 30 31  2  0
 31 32  1  0
 32 33  2  0
 34 33  1  0
 35 34  2  0
 36 28  1  0
 36 37  1  0
 38 36  2  0
M  END
$$$$
