WYF.pdb
     RDKit          3D

 38 41  0  0  1  0  0  0  0  0999 V2000
   18.8853  -19.4543  -15.5719 N   0  0  0  0  0  0  0  0  0  0  0  0
   20.2263  -18.9583  -15.9622 C   0  0  1  0  0  0  0  0  0  0  0  0
   19.9883  -17.5045  -16.3181 C   0  0  0  0  0  0  0  0  0  0  0  0
   19.9944  -17.2838  -17.7671 C   0  0  0  0  0  0  0  0  0  0  0  0
   19.1673  -17.9037  -18.7123 C   0  0  0  0  0  0  0  0  0  0  0  0
   19.4982  -17.4298  -19.9220 N   0  0  0  0  0  0  0  0  0  0  0  0
   20.4989  -16.5297  -19.8323 C   0  0  0  0  0  0  0  0  0  0  0  0
   21.1880  -15.7706  -20.7669 C   0  0  0  0  0  0  0  0  0  0  0  0
   22.1949  -14.9101  -20.3829 C   0  0  0  0  0  0  0  0  0  0  0  0
   22.5026  -14.8204  -19.0427 C   0  0  0  0  0  0  0  0  0  0  0  0
   21.8199  -15.5727  -18.1119 C   0  0  0  0  0  0  0  0  0  0  0  0
   20.8050  -16.4404  -18.4985 C   0  0  0  0  0  0  0  0  0  0  0  0
   21.1284  -19.0362  -14.7810 C   0  0  0  0  0  0  0  0  0  0  0  0
   21.1591  -18.0799  -13.9250 O   0  0  0  0  0  0  0  0  0  0  0  0
   17.9869  -24.0522  -13.6040 O   0  0  0  0  0  0  0  0  0  0  0  0
   19.0759  -23.2776  -13.2518 C   0  0  0  0  0  0  0  0  0  0  0  0
   19.0029  -22.2478  -12.3340 C   0  0  0  0  0  0  0  0  0  0  0  0
   20.1051  -21.4805  -11.9924 C   0  0  0  0  0  0  0  0  0  0  0  0
   21.3325  -21.7282  -12.5711 C   0  0  0  0  0  0  0  0  0  0  0  0
   22.5628  -20.9885  -12.2959 C   0  0  0  0  0  0  0  0  0  0  0  0
   23.0042  -20.1056  -13.4822 C   0  0  2  0  0  0  0  0  0  0  0  0
   21.9958  -20.1181  -14.4975 N   0  0  0  0  0  0  0  0  0  0  0  0
   24.3326  -20.5751  -13.8998 C   0  0  0  0  0  0  0  0  0  0  0  0
   24.5831  -21.4137  -14.7785 O   0  0  0  0  0  0  0  0  0  0  0  0
   21.3928  -22.7691  -13.4944 C   0  0  0  0  0  0  0  0  0  0  0  0
   20.3018  -23.5261  -13.8305 C   0  0  0  0  0  0  0  0  0  0  0  0
   25.4709  -20.0062  -13.2233 N   0  0  0  0  0  0  0  0  0  0  0  0
   26.8258  -20.3855  -13.6070 C   0  0  1  0  0  0  0  0  0  0  0  0
   27.7612  -19.6454  -12.6700 C   0  0  0  0  0  0  0  0  0  0  0  0
   27.5328  -19.9416  -11.2470 C   0  0  0  0  0  0  0  0  0  0  0  0
   26.5123  -19.3616  -10.5275 C   0  0  0  0  0  0  0  0  0  0  0  0
   26.2974  -19.6494   -9.1953 C   0  0  0  0  0  0  0  0  0  0  0  0
   27.1092  -20.5426   -8.5231 C   0  0  0  0  0  0  0  0  0  0  0  0
   28.1297  -21.1246   -9.2361 C   0  0  0  0  0  0  0  0  0  0  0  0
   28.3611  -20.8489  -10.5734 C   0  0  0  0  0  0  0  0  0  0  0  0
   27.0011  -21.8311  -13.4191 C   0  0  0  0  0  0  0  0  0  0  0  0
   28.0414  -22.4948  -14.0309 O   0  0  0  0  0  0  0  0  0  0  0  0
   26.2025  -22.4651  -12.7003 O   0  0  0  0  0  0  0  0  0  0  0  0
  2  1  1  1
  3  4  1  0
  3  2  1  0
  4  5  2  0
  6  5  1  0
  7  6  1  0
  8  7  2  0
  9  8  1  0
 10  9  2  0
 10 11  1  0
 11 12  2  0
 12  7  1  0
 12  4  1  0
 13  2  1  0
 14 13  2  0
 15 16  1  0
 16 17  2  0
 17 18  1  0
 19 20  1  0
 19 18  2  0
 21 20  1  1
 21 22  1  0
 21 23  1  0
 22 13  1  0
 23 27  1  0
 23 24  2  0
 25 19  1  0
 26 25  2  0
 26 16  1  0
 27 28  1  0
 28 29  1  1
 29 30  1  0
 30 35  1  0
 30 31  2  0
 31 32  1  0
 32 33  2  0
 34 33  1  0
 35 34  2  0
 36 28  1  0
 36 37  1  0
 38 36  2  0
M  END
$$$$
