WYF.pdb
     RDKit          3D

 38 41  0  0  1  0  0  0  0  0999 V2000
   25.5385  -19.0988  -15.7858 N   0  0  0  0  0  0  0  0  0  0  0  0
   26.4712  -19.7333  -14.8245 C   0  0  1  0  0  0  0  0  0  0  0  0
   27.7271  -18.8909  -14.9244 C   0  0  0  0  0  0  0  0  0  0  0  0
   28.4098  -19.0697  -16.2090 C   0  0  0  0  0  0  0  0  0  0  0  0
   28.7119  -18.0708  -17.1433 C   0  0  0  0  0  0  0  0  0  0  0  0
   29.3305  -18.6519  -18.1811 N   0  0  0  0  0  0  0  0  0  0  0  0
   29.4559  -19.9811  -17.9876 C   0  0  0  0  0  0  0  0  0  0  0  0
   30.0044  -21.0088  -18.7409 C   0  0  0  0  0  0  0  0  0  0  0  0
   29.9912  -22.3107  -18.2862 C   0  0  0  0  0  0  0  0  0  0  0  0
   29.4182  -22.5691  -17.0600 C   0  0  0  0  0  0  0  0  0  0  0  0
   28.8729  -21.5506  -16.3091 C   0  0  0  0  0  0  0  0  0  0  0  0
   28.8858  -20.2381  -16.7672 C   0  0  0  0  0  0  0  0  0  0  0  0
   25.9030  -19.6119  -13.4543 C   0  0  0  0  0  0  0  0  0  0  0  0
   25.5195  -18.4698  -13.0107 O   0  0  0  0  0  0  0  0  0  0  0  0
   19.6872  -19.3483  -14.2197 O   0  0  0  0  0  0  0  0  0  0  0  0
   20.7079  -19.8151  -13.4134 C   0  0  0  0  0  0  0  0  0  0  0  0
   20.9176  -19.3625  -12.1253 C   0  0  0  0  0  0  0  0  0  0  0  0
   21.9467  -19.8414  -11.3302 C   0  0  0  0  0  0  0  0  0  0  0  0
   22.8091  -20.8040  -11.8123 C   0  0  0  0  0  0  0  0  0  0  0  0
   23.9296  -21.3830  -11.0737 C   0  0  0  0  0  0  0  0  0  0  0  0
   25.2271  -20.5605  -11.2199 C   0  0  2  0  0  0  0  0  0  0  0  0
   25.7352  -20.6889  -12.5515 N   0  0  0  0  0  0  0  0  0  0  0  0
   26.1356  -20.9919  -10.1485 C   0  0  0  0  0  0  0  0  0  0  0  0
   26.6565  -22.1100  -10.0198 O   0  0  0  0  0  0  0  0  0  0  0  0
   22.5868  -21.2521  -13.1121 C   0  0  0  0  0  0  0  0  0  0  0  0
   21.5689  -20.7770  -13.8961 C   0  0  0  0  0  0  0  0  0  0  0  0
   26.4627  -20.0198   -9.1360 N   0  0  0  0  0  0  0  0  0  0  0  0
   26.7168  -20.4384   -7.7623 C   0  0  1  0  0  0  0  0  0  0  0  0
   26.9779  -19.1726   -6.9683 C   0  0  0  0  0  0  0  0  0  0  0  0
   27.9396  -19.3492   -5.8689 C   0  0  0  0  0  0  0  0  0  0  0  0
   27.5586  -19.7792   -4.6177 C   0  0  0  0  0  0  0  0  0  0  0  0
   28.4659  -19.9512   -3.5926 C   0  0  0  0  0  0  0  0  0  0  0  0
   29.8098  -19.6948   -3.7849 C   0  0  0  0  0  0  0  0  0  0  0  0
   30.1960  -19.2652   -5.0317 C   0  0  0  0  0  0  0  0  0  0  0  0
   29.3006  -19.0869   -6.0731 C   0  0  0  0  0  0  0  0  0  0  0  0
   25.5242  -21.1057   -7.2255 C   0  0  0  0  0  0  0  0  0  0  0  0
   25.6442  -22.0904   -6.2700 O   0  0  0  0  0  0  0  0  0  0  0  0
   24.3924  -20.7800   -7.6370 O   0  0  0  0  0  0  0  0  0  0  0  0
  2  1  1  6
  3  4  1  0
  3  2  1  0
  4  5  2  0
  6  5  1  0
  7  6  1  0
  8  7  2  0
  9  8  1  0
 10  9  2  0
 10 11  1  0
 11 12  2  0
 12  7  1  0
 12  4  1  0
 13  2  1  0
 14 13  2  0
 15 16  1  0
 16 17  2  0
 17 18  1  0
 19 20  1  0
 19 18  2  0
 21 20  1  6
 21 22  1  0
 21 23  1  0
 22 13  1  0
 23 27  1  0
 23 24  2  0
 25 19  1  0
 26 25  2  0
 26 16  1  0
 27 28  1  0
 28 29  1  1
 29 30  1  0
 30 35  1  0
 30 31  2  0
 31 32  1  0
 32 33  2  0
 34 33  1  0
 35 34  2  0
 36 28  1  0
 36 37  1  0
 38 36  2  0
M  END
$$$$
