HYV.pdb
     RDKit          3D

 30 31  0  0  1  0  0  0  0  0999 V2000
   25.2221  -20.6558  -20.4910 N   0  0  0  0  0  0  0  0  0  0  0  0
   23.8928  -20.2102  -20.1417 C   0  0  1  0  0  0  0  0  0  0  0  0
   22.8139  -21.1227  -20.7153 C   0  0  0  0  0  0  0  0  0  0  0  0
   22.7621  -20.9644  -22.1943 C   0  0  0  0  0  0  0  0  0  0  0  0
   22.8749  -21.9931  -23.1174 C   0  0  0  0  0  0  0  0  0  0  0  0
   22.7797  -21.4567  -24.3547 N   0  0  0  0  0  0  0  0  0  0  0  0
   22.6119  -20.1274  -24.2017 C   0  0  0  0  0  0  0  0  0  0  0  0
   22.5997  -19.8155  -22.8849 N   0  0  0  0  0  0  0  0  0  0  0  0
   23.7295  -20.0684  -18.6804 C   0  0  0  0  0  0  0  0  0  0  0  0
   24.2299  -20.9166  -17.8974 O   0  0  0  0  0  0  0  0  0  0  0  0
   28.8867  -16.6739  -17.8658 O   0  0  0  0  0  0  0  0  0  0  0  0
   27.5478  -16.8502  -17.4843 C   0  0  0  0  0  0  0  0  0  0  0  0
   27.1865  -17.2559  -16.2225 C   0  0  0  0  0  0  0  0  0  0  0  0
   25.8836  -17.4383  -15.8164 C   0  0  0  0  0  0  0  0  0  0  0  0
   24.8672  -17.2068  -16.7095 C   0  0  0  0  0  0  0  0  0  0  0  0
   23.4307  -17.3765  -16.3682 C   0  0  0  0  0  0  0  0  0  0  0  0
   22.9759  -18.8117  -16.6638 C   0  0  2  0  0  0  0  0  0  0  0  0
   23.0195  -18.9986  -18.0894 N   0  0  0  0  0  0  0  0  0  0  0  0
   21.6221  -18.9612  -16.1040 C   0  0  0  0  0  0  0  0  0  0  0  0
   20.6282  -18.5156  -16.7449 O   0  0  0  0  0  0  0  0  0  0  0  0
   25.2021  -16.7985  -17.9833 C   0  0  0  0  0  0  0  0  0  0  0  0
   26.5137  -16.6200  -18.3752 C   0  0  0  0  0  0  0  0  0  0  0  0
   19.7676  -21.9996  -15.3790 C   0  0  0  0  0  0  0  0  0  0  0  0
   19.5681  -21.1543  -14.1383 C   0  0  2  0  0  0  0  0  0  0  0  0
   18.1666  -21.3223  -13.6643 C   0  0  0  0  0  0  0  0  0  0  0  0
   19.9724  -19.7244  -14.3479 C   0  0  2  0  0  0  0  0  0  0  0  0
   21.3196  -19.5835  -14.8631 N   0  0  0  0  0  0  0  0  0  0  0  0
   19.9112  -18.9398  -13.0864 C   0  0  0  0  0  0  0  0  0  0  0  0
   20.9266  -18.8748  -12.3539 O   0  0  0  0  0  0  0  0  0  0  0  0
   18.7735  -18.2637  -12.6669 O   0  0  0  0  0  0  0  0  0  0  0  0
  2  1  1  1
  2  3  1  0
  3  4  1  0
  4  5  2  0
  5  6  1  0
  7  6  1  0
  8  4  1  0
  8  7  2  0
  9  2  1  0
  9 18  1  0
 10  9  2  0
 12 22  2  0
 12 11  1  0
 13 12  1  0
 14 13  2  0
 15 14  1  0
 15 21  2  0
 17 16  1  6
 16 15  1  0
 17 18  1  0
 19 17  1  0
 20 19  2  0
 21 22  1  0
 24 23  1  6
 24 26  1  0
 25 24  1  0
 26 27  1  1
 26 28  1  0
 27 19  1  0
 28 30  1  0
 29 28  2  0
M  END
$$$$
