HYV.pdb
     RDKit          3D

 30 31  0  0  1  0  0  0  0  0999 V2000
   25.2106  -32.3044    0.2864 N   0  0  0  0  0  0  0  0  0  0  0  0
   26.0521  -32.7691    1.3651 C   0  0  1  0  0  0  0  0  0  0  0  0
   27.5174  -32.8559    0.9516 C   0  0  0  0  0  0  0  0  0  0  0  0
   27.6795  -33.9053   -0.0915 C   0  0  0  0  0  0  0  0  0  0  0  0
   27.4442  -35.2601    0.0878 C   0  0  0  0  0  0  0  0  0  0  0  0
   27.7005  -35.8872   -1.0822 N   0  0  0  0  0  0  0  0  0  0  0  0
   28.0853  -34.9433   -1.9651 C   0  0  0  0  0  0  0  0  0  0  0  0
   28.0760  -33.7280   -1.3699 N   0  0  0  0  0  0  0  0  0  0  0  0
   25.9028  -31.9340    2.5744 C   0  0  0  0  0  0  0  0  0  0  0  0
   26.1852  -30.7084    2.5420 O   0  0  0  0  0  0  0  0  0  0  0  0
   19.9184  -29.1121    2.5841 O   0  0  0  0  0  0  0  0  0  0  0  0
   20.9022  -29.7827    3.3268 C   0  0  0  0  0  0  0  0  0  0  0  0
   21.5204  -29.2164    4.4151 C   0  0  0  0  0  0  0  0  0  0  0  0
   22.4885  -29.8463    5.1645 C   0  0  0  0  0  0  0  0  0  0  0  0
   22.8757  -31.1180    4.8220 C   0  0  0  0  0  0  0  0  0  0  0  0
   23.9119  -31.8805    5.5662 C   0  0  0  0  0  0  0  0  0  0  0  0
   25.3015  -31.6153    4.9726 C   0  0  2  0  0  0  0  0  0  0  0  0
   25.4453  -32.4486    3.8088 N   0  0  0  0  0  0  0  0  0  0  0  0
   26.2869  -31.9185    6.0240 C   0  0  0  0  0  0  0  0  0  0  0  0
   26.5441  -33.1222    6.3110 O   0  0  0  0  0  0  0  0  0  0  0  0
   22.2710  -31.7102    3.7334 C   0  0  0  0  0  0  0  0  0  0  0  0
   21.3015  -31.0651    2.9920 C   0  0  0  0  0  0  0  0  0  0  0  0
   29.8702  -31.5531    6.1499 C   0  0  0  0  0  0  0  0  0  0  0  0
   29.3793  -30.8640    7.4060 C   0  0  2  0  0  0  0  0  0  0  0  0
   30.3827  -31.0669    8.4872 C   0  0  0  0  0  0  0  0  0  0  0  0
   27.9873  -31.2805    7.7816 C   0  0  2  0  0  0  0  0  0  0  0  0
   27.0016  -30.9458    6.7734 N   0  0  0  0  0  0  0  0  0  0  0  0
   27.5397  -30.6424    9.0477 C   0  0  0  0  0  0  0  0  0  0  0  0
   26.8738  -29.5813    8.9986 O   0  0  0  0  0  0  0  0  0  0  0  0
   27.8227  -31.1643   10.3027 O   0  0  0  0  0  0  0  0  0  0  0  0
  2  1  1  6
  2  3  1  0
  3  4  1  0
  4  5  2  0
  5  6  1  0
  7  6  1  0
  8  4  1  0
  8  7  2  0
  9  2  1  0
  9 18  1  0
 10  9  2  0
 12 22  2  0
 12 11  1  0
 13 12  1  0
 14 13  2  0
 15 14  1  0
 15 21  2  0
 17 16  1  1
 16 15  1  0
 17 18  1  0
 19 17  1  0
 20 19  2  0
 21 22  1  0
 24 23  1  6
 24 26  1  0
 25 24  1  0
 26 27  1  6
 26 28  1  0
 27 19  1  0
 28 30  1  0
 29 28  2  0
M  END
$$$$
