HYV.pdb
     RDKit          3D

 30 31  0  0  1  0  0  0  0  0999 V2000
   28.3813  -22.5714  -18.2389 N   0  0  0  0  0  0  0  0  0  0  0  0
   27.9563  -21.3109  -17.6751 C   0  0  1  0  0  0  0  0  0  0  0  0
   27.1286  -20.4927  -18.6607 C   0  0  0  0  0  0  0  0  0  0  0  0
   27.9935  -20.0452  -19.7864 C   0  0  0  0  0  0  0  0  0  0  0  0
   28.1400  -20.7031  -20.9983 C   0  0  0  0  0  0  0  0  0  0  0  0
   29.0045  -19.9930  -21.7574 N   0  0  0  0  0  0  0  0  0  0  0  0
   29.3843  -18.9209  -21.0329 C   0  0  0  0  0  0  0  0  0  0  0  0
   28.7722  -18.9429  -19.8262 N   0  0  0  0  0  0  0  0  0  0  0  0
   27.2190  -21.4985  -16.4089 C   0  0  0  0  0  0  0  0  0  0  0  0
   26.3197  -22.3737  -16.3181 O   0  0  0  0  0  0  0  0  0  0  0  0
   24.7091  -20.8686   -7.9816 O   0  0  0  0  0  0  0  0  0  0  0  0
   25.3751  -20.6680   -9.2004 C   0  0  0  0  0  0  0  0  0  0  0  0
   25.3786  -19.4574   -9.8498 C   0  0  0  0  0  0  0  0  0  0  0  0
   26.0213  -19.2274  -11.0455 C   0  0  0  0  0  0  0  0  0  0  0  0
   26.7066  -20.2554  -11.6438 C   0  0  0  0  0  0  0  0  0  0  0  0
   27.4301  -20.1080  -12.9336 C   0  0  0  0  0  0  0  0  0  0  0  0
   26.7291  -20.9124  -14.0359 C   0  0  2  0  0  0  0  0  0  0  0  0
   27.4732  -20.7260  -15.2529 N   0  0  0  0  0  0  0  0  0  0  0  0
   25.3463  -20.4137  -14.1237 C   0  0  0  0  0  0  0  0  0  0  0  0
   25.1219  -19.2814  -14.6384 O   0  0  0  0  0  0  0  0  0  0  0  0
   26.7192  -21.4816  -11.0130 C   0  0  0  0  0  0  0  0  0  0  0  0
   26.0697  -21.6962   -9.8139 C   0  0  0  0  0  0  0  0  0  0  0  0
   22.7979  -21.0858  -16.2895 C   0  0  0  0  0  0  0  0  0  0  0  0
   22.1085  -21.2824  -14.9555 C   0  0  2  0  0  0  0  0  0  0  0  0
   20.6883  -20.8537  -15.0822 C   0  0  0  0  0  0  0  0  0  0  0  0
   22.8451  -20.6223  -13.8268 C   0  0  2  0  0  0  0  0  0  0  0  0
   24.1986  -21.1146  -13.6655 N   0  0  0  0  0  0  0  0  0  0  0  0
   22.1578  -20.8220  -12.5236 C   0  0  0  0  0  0  0  0  0  0  0  0
   22.1824  -21.9530  -11.9834 O   0  0  0  0  0  0  0  0  0  0  0  0
   21.4786  -19.8090  -11.8601 O   0  0  0  0  0  0  0  0  0  0  0  0
  2  1  1  6
  2  3  1  0
  3  4  1  0
  4  5  2  0
  5  6  1  0
  7  6  1  0
  8  4  1  0
  8  7  2  0
  9  2  1  0
  9 18  1  0
 10  9  2  0
 12 22  2  0
 12 11  1  0
 13 12  1  0
 14 13  2  0
 15 14  1  0
 15 21  2  0
 17 16  1  1
 16 15  1  0
 17 18  1  0
 19 17  1  0
 20 19  2  0
 21 22  1  0
 24 23  1  6
 24 26  1  0
 25 24  1  0
 26 27  1  1
 26 28  1  0
 27 19  1  0
 28 30  1  0
 29 28  2  0
M  END
$$$$
