HYV.pdb
     RDKit          3D

 30 31  0  0  1  0  0  0  0  0999 V2000
   22.5636   -8.4054  -20.3979 N   0  0  0  0  0  0  0  0  0  0  0  0
   22.7677   -7.1749  -19.6685 C   0  0  1  0  0  0  0  0  0  0  0  0
   22.5780   -5.9470  -20.5527 C   0  0  0  0  0  0  0  0  0  0  0  0
   23.5914   -5.9567  -21.6429 C   0  0  0  0  0  0  0  0  0  0  0  0
   24.9262   -5.6080  -21.5029 C   0  0  0  0  0  0  0  0  0  0  0  0
   25.5222   -5.7431  -22.7089 N   0  0  0  0  0  0  0  0  0  0  0  0
   24.5789   -6.1655  -23.5752 C   0  0  0  0  0  0  0  0  0  0  0  0
   23.3947   -6.2994  -22.9341 N   0  0  0  0  0  0  0  0  0  0  0  0
   21.8992   -7.0950  -18.4763 C   0  0  0  0  0  0  0  0  0  0  0  0
   20.7104   -7.5042  -18.5246 O   0  0  0  0  0  0  0  0  0  0  0  0
   19.0195   -6.6272  -10.1805 O   0  0  0  0  0  0  0  0  0  0  0  0
   19.7998   -6.7305  -11.3422 C   0  0  0  0  0  0  0  0  0  0  0  0
   19.6078   -7.7199  -12.2757 C   0  0  0  0  0  0  0  0  0  0  0  0
   20.3550   -7.8495  -13.4248 C   0  0  0  0  0  0  0  0  0  0  0  0
   21.3586   -6.9466  -13.6740 C   0  0  0  0  0  0  0  0  0  0  0  0
   22.2204   -7.0023  -14.8836 C   0  0  0  0  0  0  0  0  0  0  0  0
   21.4651   -6.4617  -16.1046 C   0  0  2  0  0  0  0  0  0  0  0  0
   22.3403   -6.5675  -17.2414 N   0  0  0  0  0  0  0  0  0  0  0  0
   21.0837   -5.0728  -15.7982 C   0  0  0  0  0  0  0  0  0  0  0  0
   21.9821   -4.1970  -15.6464 O   0  0  0  0  0  0  0  0  0  0  0  0
   21.5729   -5.9429  -12.7530 C   0  0  0  0  0  0  0  0  0  0  0  0
   20.8146   -5.8265  -11.6053 C   0  0  0  0  0  0  0  0  0  0  0  0
   17.6194   -3.1752  -17.1354 C   0  0  0  0  0  0  0  0  0  0  0  0
   18.8603   -2.5090  -16.5786 C   0  0  2  0  0  0  0  0  0  0  0  0
   19.8461   -2.3347  -17.6808 C   0  0  0  0  0  0  0  0  0  0  0  0
   19.4079   -3.2275  -15.3803 C   0  0  2  0  0  0  0  0  0  0  0  0
   19.7484   -4.6097  -15.6519 N   0  0  0  0  0  0  0  0  0  0  0  0
   18.4418   -3.2379  -14.2501 C   0  0  0  0  0  0  0  0  0  0  0  0
   17.8317   -4.2976  -13.9736 O   0  0  0  0  0  0  0  0  0  0  0  0
   18.1727   -2.1209  -13.4707 O   0  0  0  0  0  0  0  0  0  0  0  0
  2  1  1  6
  2  3  1  0
  3  4  1  0
  4  5  2  0
  5  6  1  0
  7  6  1  0
  8  4  1  0
  8  7  2  0
  9  2  1  0
  9 18  1  0
 10  9  2  0
 12 22  2  0
 12 11  1  0
 13 12  1  0
 14 13  2  0
 15 14  1  0
 15 21  2  0
 17 16  1  1
 16 15  1  0
 17 18  1  0
 19 17  1  0
 20 19  2  0
 21 22  1  0
 24 23  1  6
 24 26  1  0
 25 24  1  0
 26 27  1  6
 26 28  1  0
 27 19  1  0
 28 30  1  0
 29 28  2  0
M  END
$$$$
