HYV.pdb
     RDKit          3D

 30 31  0  0  1  0  0  0  0  0999 V2000
   21.0918  -11.2538  -22.1003 N   0  0  0  0  0  0  0  0  0  0  0  0
   20.7538  -11.7591  -20.7896 C   0  0  1  0  0  0  0  0  0  0  0  0
   21.8755  -12.6040  -20.1949 C   0  0  0  0  0  0  0  0  0  0  0  0
   22.0683  -13.8279  -21.0195 C   0  0  0  0  0  0  0  0  0  0  0  0
   23.2061  -14.1335  -21.7510 C   0  0  0  0  0  0  0  0  0  0  0  0
   23.0026  -15.3216  -22.3633 N   0  0  0  0  0  0  0  0  0  0  0  0
   21.7682  -15.7418  -22.0193 C   0  0  0  0  0  0  0  0  0  0  0  0
   21.1881  -14.8362  -21.1980 N   0  0  0  0  0  0  0  0  0  0  0  0
   20.3770  -10.6712  -19.8641 C   0  0  0  0  0  0  0  0  0  0  0  0
   21.0556   -9.6129  -19.8138 O   0  0  0  0  0  0  0  0  0  0  0  0
   15.5963   -5.5708  -14.4478 O   0  0  0  0  0  0  0  0  0  0  0  0
   16.0398   -6.5522  -15.3475 C   0  0  0  0  0  0  0  0  0  0  0  0
   16.7803   -6.2500  -16.4644 C   0  0  0  0  0  0  0  0  0  0  0  0
   17.2304   -7.1879  -17.3664 C   0  0  0  0  0  0  0  0  0  0  0  0
   16.9332   -8.5117  -17.1574 C   0  0  0  0  0  0  0  0  0  0  0  0
   17.3714   -9.5976  -18.0726 C   0  0  0  0  0  0  0  0  0  0  0  0
   18.9030   -9.6738  -18.1186 C   0  0  2  0  0  0  0  0  0  0  0  0
   19.2602  -10.7518  -19.0016 N   0  0  0  0  0  0  0  0  0  0  0  0
   19.3681   -9.8820  -16.7371 C   0  0  0  0  0  0  0  0  0  0  0  0
   19.1345  -10.9808  -16.1580 O   0  0  0  0  0  0  0  0  0  0  0  0
   16.1909   -8.8428  -16.0435 C   0  0  0  0  0  0  0  0  0  0  0  0
   15.7469   -7.8904  -15.1482 C   0  0  0  0  0  0  0  0  0  0  0  0
   22.6549  -10.3012  -15.3993 C   0  0  0  0  0  0  0  0  0  0  0  0
   22.0514   -9.2255  -14.5203 C   0  0  2  0  0  0  0  0  0  0  0  0
   22.5588   -9.4010  -13.1316 C   0  0  0  0  0  0  0  0  0  0  0  0
   20.5548   -9.1768  -14.6200 C   0  0  2  0  0  0  0  0  0  0  0  0
   20.0820   -8.9253  -15.9666 N   0  0  0  0  0  0  0  0  0  0  0  0
   19.9756   -8.1140  -13.7564 C   0  0  0  0  0  0  0  0  0  0  0  0
   19.7871   -6.9700  -14.2334 O   0  0  0  0  0  0  0  0  0  0  0  0
   19.6258   -8.3208  -12.4288 O   0  0  0  0  0  0  0  0  0  0  0  0
  2  1  1  6
  2  3  1  0
  3  4  1  0
  4  5  2  0
  5  6  1  0
  7  6  1  0
  8  4  1  0
  8  7  2  0
  9  2  1  0
  9 18  1  0
 10  9  2  0
 12 22  2  0
 12 11  1  0
 13 12  1  0
 14 13  2  0
 15 14  1  0
 15 21  2  0
 17 16  1  1
 16 15  1  0
 17 18  1  0
 19 17  1  0
 20 19  2  0
 21 22  1  0
 24 23  1  6
 24 26  1  0
 25 24  1  0
 26 27  1  6
 26 28  1  0
 27 19  1  0
 28 30  1  0
 29 28  2  0
M  END
$$$$
