HYV.pdb
     RDKit          3D

 30 31  0  0  1  0  0  0  0  0999 V2000
   20.5506  -19.8756  -12.9855 N   0  0  0  0  0  0  0  0  0  0  0  0
   21.4763  -20.9735  -12.8261 C   0  0  1  0  0  0  0  0  0  0  0  0
   21.6542  -21.7646  -14.1177 C   0  0  0  0  0  0  0  0  0  0  0  0
   20.3692  -22.4227  -14.4798 C   0  0  0  0  0  0  0  0  0  0  0  0
   19.6267  -22.1627  -15.6218 C   0  0  0  0  0  0  0  0  0  0  0  0
   18.5304  -22.9535  -15.5965 N   0  0  0  0  0  0  0  0  0  0  0  0
   18.5924  -23.6858  -14.4658 C   0  0  0  0  0  0  0  0  0  0  0  0
   19.7126  -23.3693  -13.7756 N   0  0  0  0  0  0  0  0  0  0  0  0
   22.7841  -20.5166  -12.3132 C   0  0  0  0  0  0  0  0  0  0  0  0
   23.3041  -19.4562  -12.7469 O   0  0  0  0  0  0  0  0  0  0  0  0
   29.3196  -18.9696   -6.7348 O   0  0  0  0  0  0  0  0  0  0  0  0
   28.3036  -19.6225   -7.4495 C   0  0  0  0  0  0  0  0  0  0  0  0
   28.5534  -20.6824   -8.2869 C   0  0  0  0  0  0  0  0  0  0  0  0
   27.5806  -21.3444   -9.0018 C   0  0  0  0  0  0  0  0  0  0  0  0
   26.2745  -20.9380   -8.8867 C   0  0  0  0  0  0  0  0  0  0  0  0
   25.1540  -21.5860   -9.6171 C   0  0  0  0  0  0  0  0  0  0  0  0
   24.8059  -20.7884  -10.8805 C   0  0  2  0  0  0  0  0  0  0  0  0
   23.5109  -21.2250  -11.3295 N   0  0  0  0  0  0  0  0  0  0  0  0
   25.8730  -21.0445  -11.8624 C   0  0  0  0  0  0  0  0  0  0  0  0
   26.0066  -22.2018  -12.3525 O   0  0  0  0  0  0  0  0  0  0  0  0
   25.9957  -19.8760   -8.0525 C   0  0  0  0  0  0  0  0  0  0  0  0
   26.9827  -19.2226   -7.3421 C   0  0  0  0  0  0  0  0  0  0  0  0
   26.4235  -18.7003  -15.0016 C   0  0  0  0  0  0  0  0  0  0  0  0
   27.7477  -19.0561  -14.3585 C   0  0  2  0  0  0  0  0  0  0  0  0
   28.7848  -19.1585  -15.4219 C   0  0  0  0  0  0  0  0  0  0  0  0
   27.6516  -20.2713  -13.4832 C   0  0  2  0  0  0  0  0  0  0  0  0
   26.8009  -20.0739  -12.3266 N   0  0  0  0  0  0  0  0  0  0  0  0
   28.9821  -20.6924  -12.9701 C   0  0  0  0  0  0  0  0  0  0  0  0
   29.4418  -20.1499  -11.9376 O   0  0  0  0  0  0  0  0  0  0  0  0
   29.7572  -21.6690  -13.5808 O   0  0  0  0  0  0  0  0  0  0  0  0
  2  1  1  6
  2  3  1  0
  3  4  1  0
  4  5  2  0
  5  6  1  0
  7  6  1  0
  8  4  1  0
  8  7  2  0
  9  2  1  0
  9 18  1  0
 10  9  2  0
 12 22  2  0
 12 11  1  0
 13 12  1  0
 14 13  2  0
 15 14  1  0
 15 21  2  0
 17 16  1  1
 16 15  1  0
 17 18  1  0
 19 17  1  0
 20 19  2  0
 21 22  1  0
 24 23  1  6
 24 26  1  0
 25 24  1  0
 26 27  1  1
 26 28  1  0
 27 19  1  0
 28 30  1  0
 29 28  2  0
M  END
$$$$
