HYV.pdb
     RDKit          3D

 30 31  0  0  1  0  0  0  0  0999 V2000
   27.6100  -20.1316  -19.2162 N   0  0  0  0  0  0  0  0  0  0  0  0
   27.3148  -19.2040  -18.1485 C   0  0  1  0  0  0  0  0  0  0  0  0
   26.4272  -18.0557  -18.6166 C   0  0  0  0  0  0  0  0  0  0  0  0
   27.2142  -17.1410  -19.4881 C   0  0  0  0  0  0  0  0  0  0  0  0
   27.6188  -17.4170  -20.7855 C   0  0  0  0  0  0  0  0  0  0  0  0
   28.3082  -16.3484  -21.2444 N   0  0  0  0  0  0  0  0  0  0  0  0
   28.3301  -15.4324  -20.2549 C   0  0  0  0  0  0  0  0  0  0  0  0
   27.6642  -15.9067  -19.1766 N   0  0  0  0  0  0  0  0  0  0  0  0
   26.7123  -19.8840  -16.9837 C   0  0  0  0  0  0  0  0  0  0  0  0
   25.8159  -20.7520  -17.1452 O   0  0  0  0  0  0  0  0  0  0  0  0
   24.4854  -21.6038   -8.5795 O   0  0  0  0  0  0  0  0  0  0  0  0
   25.1597  -21.1809   -9.7352 C   0  0  0  0  0  0  0  0  0  0  0  0
   25.8756  -22.0429  -10.5300 C   0  0  0  0  0  0  0  0  0  0  0  0
   26.5479  -21.6608  -11.6691 C   0  0  0  0  0  0  0  0  0  0  0  0
   26.5151  -20.3434  -12.0536 C   0  0  0  0  0  0  0  0  0  0  0  0
   27.2087  -19.8324  -13.2647 C   0  0  0  0  0  0  0  0  0  0  0  0
   26.4154  -20.1914  -14.5278 C   0  0  2  0  0  0  0  0  0  0  0  0
   27.0968  -19.6074  -15.6520 N   0  0  0  0  0  0  0  0  0  0  0  0
   25.0509  -19.6686  -14.3457 C   0  0  0  0  0  0  0  0  0  0  0  0
   24.8605  -18.4199  -14.3043 O   0  0  0  0  0  0  0  0  0  0  0  0
   25.8034  -19.4565  -11.2735 C   0  0  0  0  0  0  0  0  0  0  0  0
   25.1343  -19.8555  -10.1339 C   0  0  0  0  0  0  0  0  0  0  0  0
   22.3355  -19.3835  -16.5393 C   0  0  0  0  0  0  0  0  0  0  0  0
   21.7355  -20.1024  -15.3490 C   0  0  2  0  0  0  0  0  0  0  0  0
   20.3117  -19.6902  -15.2081 C   0  0  0  0  0  0  0  0  0  0  0  0
   22.5481  -19.9207  -14.1004 C   0  0  2  0  0  0  0  0  0  0  0  0
   23.8853  -20.4691  -14.2069 N   0  0  0  0  0  0  0  0  0  0  0  0
   21.9107  -20.5695  -12.9242 C   0  0  0  0  0  0  0  0  0  0  0  0
   22.1027  -21.7911  -12.7178 O   0  0  0  0  0  0  0  0  0  0  0  0
   21.1010  -19.8870  -12.0264 O   0  0  0  0  0  0  0  0  0  0  0  0
  2  1  1  6
  2  3  1  0
  3  4  1  0
  4  5  2  0
  5  6  1  0
  7  6  1  0
  8  4  1  0
  8  7  2  0
  9  2  1  0
  9 18  1  0
 10  9  2  0
 12 22  2  0
 12 11  1  0
 13 12  1  0
 14 13  2  0
 15 14  1  0
 15 21  2  0
 17 16  1  1
 16 15  1  0
 17 18  1  0
 19 17  1  0
 20 19  2  0
 21 22  1  0
 24 23  1  6
 24 26  1  0
 25 24  1  0
 26 27  1  6
 26 28  1  0
 27 19  1  0
 28 30  1  0
 29 28  2  0
M  END
$$$$
