HYV.pdb
     RDKit          3D

 30 31  0  0  1  0  0  0  0  0999 V2000
   23.7088  -20.0960  -17.9859 N   0  0  0  0  0  0  0  0  0  0  0  0
   23.8170  -19.3620  -16.7461 C   0  0  1  0  0  0  0  0  0  0  0  0
   22.4609  -19.1662  -16.0763 C   0  0  0  0  0  0  0  0  0  0  0  0
   21.7500  -18.0251  -16.7148 C   0  0  0  0  0  0  0  0  0  0  0  0
   20.7806  -18.1321  -17.7007 C   0  0  0  0  0  0  0  0  0  0  0  0
   20.3743  -16.8839  -18.0245 N   0  0  0  0  0  0  0  0  0  0  0  0
   21.0753  -16.0243  -17.2574 C   0  0  0  0  0  0  0  0  0  0  0  0
   21.9193  -16.7113  -16.4530 N   0  0  0  0  0  0  0  0  0  0  0  0
   24.7689  -19.9998  -15.8138 C   0  0  0  0  0  0  0  0  0  0  0  0
   24.6943  -21.2318  -15.5698 O   0  0  0  0  0  0  0  0  0  0  0  0
   30.2113  -21.8606  -19.1698 O   0  0  0  0  0  0  0  0  0  0  0  0
   29.6888  -21.2412  -18.0240 C   0  0  0  0  0  0  0  0  0  0  0  0
   29.2883  -19.9272  -18.0121 C   0  0  0  0  0  0  0  0  0  0  0  0
   28.7722  -19.2899  -16.9062 C   0  0  0  0  0  0  0  0  0  0  0  0
   28.6407  -19.9902  -15.7328 C   0  0  0  0  0  0  0  0  0  0  0  0
   28.0967  -19.3921  -14.4857 C   0  0  0  0  0  0  0  0  0  0  0  0
   26.6797  -19.9141  -14.2151 C   0  0  2  0  0  0  0  0  0  0  0  0
   25.7945  -19.2826  -15.1568 N   0  0  0  0  0  0  0  0  0  0  0  0
   26.3585  -19.5898  -12.8151 C   0  0  0  0  0  0  0  0  0  0  0  0
   26.2633  -18.3807  -12.4598 O   0  0  0  0  0  0  0  0  0  0  0  0
   29.0353  -21.3114  -15.7170 C   0  0  0  0  0  0  0  0  0  0  0  0
   29.5510  -21.9362  -16.8348 C   0  0  0  0  0  0  0  0  0  0  0  0
   24.2472  -22.1163  -10.0096 C   0  0  0  0  0  0  0  0  0  0  0  0
   24.4116  -20.6109  -10.0345 C   0  0  2  0  0  0  0  0  0  0  0  0
   23.3413  -20.0261  -10.8886 C   0  0  0  0  0  0  0  0  0  0  0  0
   25.7988  -20.1923  -10.4252 C   0  0  2  0  0  0  0  0  0  0  0  0
   26.1376  -20.5472  -11.7888 N   0  0  0  0  0  0  0  0  0  0  0  0
   26.8315  -20.8099   -9.5519 C   0  0  0  0  0  0  0  0  0  0  0  0
   27.5411  -21.7397  -10.0032 O   0  0  0  0  0  0  0  0  0  0  0  0
   27.0578  -20.4082   -8.2423 O   0  0  0  0  0  0  0  0  0  0  0  0
  2  1  1  6
  2  3  1  0
  3  4  1  0
  4  5  2  0
  5  6  1  0
  7  6  1  0
  8  4  1  0
  8  7  2  0
  9  2  1  0
  9 18  1  0
 10  9  2  0
 12 22  2  0
 12 11  1  0
 13 12  1  0
 14 13  2  0
 15 14  1  0
 15 21  2  0
 17 16  1  6
 16 15  1  0
 17 18  1  0
 19 17  1  0
 20 19  2  0
 21 22  1  0
 24 23  1  6
 24 26  1  0
 25 24  1  0
 26 27  1  6
 26 28  1  0
 27 19  1  0
 28 30  1  0
 29 28  2  0
M  END
$$$$
