HYV.pdb
     RDKit          3D

 30 31  0  0  1  0  0  0  0  0999 V2000
   21.8137  -21.2335  -13.3609 N   0  0  0  0  0  0  0  0  0  0  0  0
   22.7153  -20.1051  -13.3951 C   0  0  1  0  0  0  0  0  0  0  0  0
   24.0085  -20.3821  -12.6358 C   0  0  0  0  0  0  0  0  0  0  0  0
   23.6997  -20.6379  -11.2024 C   0  0  0  0  0  0  0  0  0  0  0  0
   22.4383  -20.5804  -10.6291 C   0  0  0  0  0  0  0  0  0  0  0  0
   22.5629  -20.8720   -9.3149 N   0  0  0  0  0  0  0  0  0  0  0  0
   23.8703  -21.1047   -9.0798 C   0  0  0  0  0  0  0  0  0  0  0  0
   24.5743  -20.9642  -10.2269 N   0  0  0  0  0  0  0  0  0  0  0  0
   23.0072  -19.6795  -14.7792 C   0  0  0  0  0  0  0  0  0  0  0  0
   23.2395  -20.5335  -15.6734 O   0  0  0  0  0  0  0  0  0  0  0  0
   16.8957  -18.3272  -17.2243 O   0  0  0  0  0  0  0  0  0  0  0  0
   18.2411  -17.9373  -17.1396 C   0  0  0  0  0  0  0  0  0  0  0  0
   19.1311  -18.1260  -18.1689 C   0  0  0  0  0  0  0  0  0  0  0  0
   20.4562  -17.7556  -18.1182 C   0  0  0  0  0  0  0  0  0  0  0  0
   20.9399  -17.1599  -16.9800 C   0  0  0  0  0  0  0  0  0  0  0  0
   22.3531  -16.7258  -16.8271 C   0  0  0  0  0  0  0  0  0  0  0  0
   23.2559  -17.9326  -16.5401 C   0  0  2  0  0  0  0  0  0  0  0  0
   23.0420  -18.3222  -15.1719 N   0  0  0  0  0  0  0  0  0  0  0  0
   24.6409  -17.5114  -16.8097 C   0  0  0  0  0  0  0  0  0  0  0  0
   25.2238  -16.7291  -16.0062 O   0  0  0  0  0  0  0  0  0  0  0  0
   20.0675  -16.9585  -15.9312 C   0  0  0  0  0  0  0  0  0  0  0  0
   18.7412  -17.3356  -15.9977 C   0  0  0  0  0  0  0  0  0  0  0  0
   29.1481  -18.4412  -18.4200 C   0  0  0  0  0  0  0  0  0  0  0  0
   27.6834  -18.7995  -18.2788 C   0  0  2  0  0  0  0  0  0  0  0  0
   27.2891  -19.6646  -19.4247 C   0  0  0  0  0  0  0  0  0  0  0  0
   26.8122  -17.5906  -18.1009 C   0  0  2  0  0  0  0  0  0  0  0  0
   25.4107  -17.9189  -17.9322 N   0  0  0  0  0  0  0  0  0  0  0  0
   26.8996  -16.6676  -19.2633 C   0  0  0  0  0  0  0  0  0  0  0  0
   25.9335  -16.5881  -20.0583 O   0  0  0  0  0  0  0  0  0  0  0  0
   28.0100  -15.8755  -19.5222 O   0  0  0  0  0  0  0  0  0  0  0  0
  2  1  1  6
  2  3  1  0
  3  4  1  0
  4  5  2  0
  5  6  1  0
  7  6  1  0
  8  4  1  0
  8  7  2  0
  9  2  1  0
  9 18  1  0
 10  9  2  0
 12 22  2  0
 12 11  1  0
 13 12  1  0
 14 13  2  0
 15 14  1  0
 15 21  2  0
 17 16  1  1
 16 15  1  0
 17 18  1  0
 19 17  1  0
 20 19  2  0
 21 22  1  0
 24 23  1  6
 24 26  1  0
 25 24  1  0
 26 27  1  6
 26 28  1  0
 27 19  1  0
 28 30  1  0
 29 28  2  0
M  END
$$$$
