HYV.pdb
     RDKit          3D

 30 31  0  0  1  0  0  0  0  0999 V2000
   28.2878  -22.3756  -17.7722 N   0  0  0  0  0  0  0  0  0  0  0  0
   27.6475  -21.1649  -17.3122 C   0  0  1  0  0  0  0  0  0  0  0  0
   26.8177  -20.5041  -18.4078 C   0  0  0  0  0  0  0  0  0  0  0  0
   27.7192  -19.7946  -19.3562 C   0  0  0  0  0  0  0  0  0  0  0  0
   27.9270  -18.4241  -19.3950 C   0  0  0  0  0  0  0  0  0  0  0  0
   28.8081  -18.1630  -20.3866 N   0  0  0  0  0  0  0  0  0  0  0  0
   29.1382  -19.3436  -20.9485 C   0  0  0  0  0  0  0  0  0  0  0  0
   28.4782  -20.3478  -20.3262 N   0  0  0  0  0  0  0  0  0  0  0  0
   26.8230  -21.4045  -16.1101 C   0  0  0  0  0  0  0  0  0  0  0  0
   25.9948  -22.3512  -16.0831 O   0  0  0  0  0  0  0  0  0  0  0  0
   23.7645  -20.9306   -7.8079 O   0  0  0  0  0  0  0  0  0  0  0  0
   24.4831  -20.7203   -8.9948 C   0  0  0  0  0  0  0  0  0  0  0  0
   23.9377  -20.0900  -10.0868 C   0  0  0  0  0  0  0  0  0  0  0  0
   24.6146  -19.8682  -11.2651 C   0  0  0  0  0  0  0  0  0  0  0  0
   25.9146  -20.2942  -11.3786 C   0  0  0  0  0  0  0  0  0  0  0  0
   26.7283  -20.1034  -12.6076 C   0  0  0  0  0  0  0  0  0  0  0  0
   26.1021  -20.8587  -13.7870 C   0  0  2  0  0  0  0  0  0  0  0  0
   26.9130  -20.6053  -14.9478 N   0  0  0  0  0  0  0  0  0  0  0  0
   24.7207  -20.3692  -13.9308 C   0  0  0  0  0  0  0  0  0  0  0  0
   24.5152  -19.1774  -14.2980 O   0  0  0  0  0  0  0  0  0  0  0  0
   26.4867  -20.9301  -10.2970 C   0  0  0  0  0  0  0  0  0  0  0  0
   25.7944  -21.1449   -9.1220 C   0  0  0  0  0  0  0  0  0  0  0  0
   22.3065  -21.1281  -16.3901 C   0  0  0  0  0  0  0  0  0  0  0  0
   21.5458  -21.3306  -15.0963 C   0  0  2  0  0  0  0  0  0  0  0  0
   20.1299  -20.9194  -15.3035 C   0  0  0  0  0  0  0  0  0  0  0  0
   22.2101  -20.6595  -13.9299 C   0  0  2  0  0  0  0  0  0  0  0  0
   23.5544  -21.1424  -13.6853 N   0  0  0  0  0  0  0  0  0  0  0  0
   21.4475  -20.8560  -12.6686 C   0  0  0  0  0  0  0  0  0  0  0  0
   21.4780  -21.9731  -12.1004 O   0  0  0  0  0  0  0  0  0  0  0  0
   20.6907  -19.8549  -12.0749 O   0  0  0  0  0  0  0  0  0  0  0  0
  2  1  1  6
  2  3  1  0
  3  4  1  0
  4  5  2  0
  5  6  1  0
  7  6  1  0
  8  4  1  0
  8  7  2  0
  9  2  1  0
  9 18  1  0
 10  9  2  0
 12 22  2  0
 12 11  1  0
 13 12  1  0
 14 13  2  0
 15 14  1  0
 15 21  2  0
 17 16  1  1
 16 15  1  0
 17 18  1  0
 19 17  1  0
 20 19  2  0
 21 22  1  0
 24 23  1  6
 24 26  1  0
 25 24  1  0
 26 27  1  1
 26 28  1  0
 27 19  1  0
 28 30  1  0
 29 28  2  0
M  END
$$$$
