DTE.pdb
     RDKit          3D

 25 24  0  0  1  0  0  0  0  0999 V2000
   18.4847  -13.2682  -16.3909 N   0  0  0  0  0  0  0  0  0  0  0  0
   18.6434  -11.9147  -16.8820 C   0  0  1  0  0  0  0  0  0  0  0  0
   17.2713  -11.2975  -17.0316 C   0  0  0  0  0  0  0  0  0  0  0  0
   16.5104  -12.0390  -18.0669 C   0  0  0  0  0  0  0  0  0  0  0  0
   16.7342  -11.8196  -19.2866 O   0  0  0  0  0  0  0  0  0  0  0  0
   19.4780  -11.1751  -15.9020 C   0  0  0  0  0  0  0  0  0  0  0  0
   19.1292  -11.0667  -14.6999 O   0  0  0  0  0  0  0  0  0  0  0  0
   15.5362  -12.9898  -17.7930 O   0  0  0  0  0  0  0  0  0  0  0  0
   22.9200  -11.8468  -14.8030 C   0  0  0  0  0  0  0  0  0  0  0  0
   22.9316  -10.5133  -15.4787 C   0  0  1  0  0  0  0  0  0  0  0  0
   23.4644  -10.5422  -16.7619 O   0  0  0  0  0  0  0  0  0  0  0  0
   21.5839   -9.8448  -15.4221 C   0  0  2  0  0  0  0  0  0  0  0  0
   20.6959  -10.5696  -16.3026 N   0  0  0  0  0  0  0  0  0  0  0  0
   21.6276   -8.4054  -15.8275 C   0  0  0  0  0  0  0  0  0  0  0  0
   21.4673   -8.1234  -17.0543 O   0  0  0  0  0  0  0  0  0  0  0  0
   21.8340   -7.3528  -14.9315 N   0  0  0  0  0  0  0  0  0  0  0  0
   21.9736   -5.9460  -15.2860 C   0  0  1  0  0  0  0  0  0  0  0  0
   20.6959   -5.4351  -15.8871 C   0  0  0  0  0  0  0  0  0  0  0  0
   19.5864   -5.3573  -14.8869 C   0  0  0  0  0  0  0  0  0  0  0  0
   18.3383   -4.7698  -15.3689 C   0  0  0  0  0  0  0  0  0  0  0  0
   17.4782   -5.4512  -15.9805 O   0  0  0  0  0  0  0  0  0  0  0  0
   22.3817   -5.1304  -14.1270 C   0  0  0  0  0  0  0  0  0  0  0  0
   22.8365   -3.9890  -14.2988 O   0  0  0  0  0  0  0  0  0  0  0  0
   18.1027   -3.4143  -15.1402 O   0  0  0  0  0  0  0  0  0  0  0  0
   22.2575   -5.6355  -12.8573 O   0  0  0  0  0  0  0  0  0  0  0  0
  2  1  1  1
  3  2  1  0
  3  4  1  0
  4  8  1  0
  4  5  2  0
  6  2  1  0
  7  6  2  0
 10  9  1  6
 10 12  1  0
 11 10  1  0
 12 14  1  0
 12 13  1  6
 13  6  1  0
 14 16  1  0
 15 14  2  0
 16 17  1  0
 17 18  1  1
 17 22  1  0
 19 20  1  0
 19 18  1  0
 20 21  2  0
 22 23  2  0
 22 25  1  0
 24 20  1  0
M  END
$$$$
