DTE.pdb
     RDKit          3D

 25 24  0  0  1  0  0  0  0  0999 V2000
   18.7407  -13.0409  -17.3754 N   0  0  0  0  0  0  0  0  0  0  0  0
   19.1241  -11.6893  -17.7280 C   0  0  1  0  0  0  0  0  0  0  0  0
   17.9504  -11.0229  -18.4096 C   0  0  0  0  0  0  0  0  0  0  0  0
   17.6457  -11.7389  -19.6725 C   0  0  0  0  0  0  0  0  0  0  0  0
   16.4483  -11.9025  -20.0270 O   0  0  0  0  0  0  0  0  0  0  0  0
   19.5066  -10.9888  -16.4762 C   0  0  0  0  0  0  0  0  0  0  0  0
   18.7429  -10.9735  -15.4788 O   0  0  0  0  0  0  0  0  0  0  0  0
   18.6059  -12.2628  -20.5278 O   0  0  0  0  0  0  0  0  0  0  0  0
   23.4706  -10.3582  -15.8493 C   0  0  0  0  0  0  0  0  0  0  0  0
   22.4797  -10.2054  -14.7402 C   0  0  1  0  0  0  0  0  0  0  0  0
   22.9970   -9.5813  -13.6114 O   0  0  0  0  0  0  0  0  0  0  0  0
   21.1973   -9.5777  -15.2172 C   0  0  2  0  0  0  0  0  0  0  0  0
   20.7506  -10.3158  -16.3768 N   0  0  0  0  0  0  0  0  0  0  0  0
   21.3501   -8.1321  -15.5709 C   0  0  0  0  0  0  0  0  0  0  0  0
   21.8751   -7.8412  -16.6890 O   0  0  0  0  0  0  0  0  0  0  0  0
   20.9463   -7.0831  -14.7403 N   0  0  0  0  0  0  0  0  0  0  0  0
   21.1468   -5.6632  -15.0010 C   0  0  1  0  0  0  0  0  0  0  0  0
   19.8215   -4.9724  -15.1481 C   0  0  0  0  0  0  0  0  0  0  0  0
   19.9671   -3.4989  -15.3601 C   0  0  0  0  0  0  0  0  0  0  0  0
   18.7186   -2.7506  -15.4891 C   0  0  0  0  0  0  0  0  0  0  0  0
   17.5995   -3.3209  -15.4699 O   0  0  0  0  0  0  0  0  0  0  0  0
   21.9664   -5.0275  -13.9527 C   0  0  0  0  0  0  0  0  0  0  0  0
   22.1217   -5.5901  -12.8579 O   0  0  0  0  0  0  0  0  0  0  0  0
   18.7793   -1.3651  -15.6374 O   0  0  0  0  0  0  0  0  0  0  0  0
   22.5578   -3.8123  -14.1896 O   0  0  0  0  0  0  0  0  0  0  0  0
  2  1  1  1
  3  2  1  0
  3  4  1  0
  4  8  1  0
  4  5  2  0
  6  2  1  0
  7  6  2  0
 10  9  1  6
 10 12  1  0
 11 10  1  0
 12 14  1  0
 12 13  1  6
 13  6  1  0
 14 16  1  0
 15 14  2  0
 16 17  1  0
 17 18  1  1
 17 22  1  0
 19 20  1  0
 19 18  1  0
 20 21  2  0
 22 23  2  0
 22 25  1  0
 24 20  1  0
M  END
$$$$
