DTE.pdb
     RDKit          3D

 25 24  0  0  1  0  0  0  0  0999 V2000
   19.5314   -7.8956  -17.4148 N   0  0  0  0  0  0  0  0  0  0  0  0
   19.4993   -6.8920  -16.3707 C   0  0  1  0  0  0  0  0  0  0  0  0
   18.4745   -5.8457  -16.7460 C   0  0  0  0  0  0  0  0  0  0  0  0
   18.8896   -5.1826  -18.0064 C   0  0  0  0  0  0  0  0  0  0  0  0
   18.0419   -4.9761  -18.9145 O   0  0  0  0  0  0  0  0  0  0  0  0
   19.1510   -7.5756  -15.0997 C   0  0  0  0  0  0  0  0  0  0  0  0
   18.6173   -8.7129  -15.0967 O   0  0  0  0  0  0  0  0  0  0  0  0
   20.1824   -4.7549  -18.2780 O   0  0  0  0  0  0  0  0  0  0  0  0
   21.5442   -8.5088  -12.5079 C   0  0  0  0  0  0  0  0  0  0  0  0
   20.5668   -7.5806  -11.8611 C   0  0  1  0  0  0  0  0  0  0  0  0
   21.0622   -6.2973  -11.6635 O   0  0  0  0  0  0  0  0  0  0  0  0
   19.2358   -7.5897  -12.5645 C   0  0  2  0  0  0  0  0  0  0  0  0
   19.4139   -6.9565  -13.8515 N   0  0  0  0  0  0  0  0  0  0  0  0
   18.1652   -6.8783  -11.7991 C   0  0  0  0  0  0  0  0  0  0  0  0
   18.0781   -5.6181  -11.9212 O   0  0  0  0  0  0  0  0  0  0  0  0
   17.2541   -7.5227  -10.9577 N   0  0  0  0  0  0  0  0  0  0  0  0
   16.1707   -6.8817  -10.2232 C   0  0  1  0  0  0  0  0  0  0  0  0
   15.2306   -7.9186   -9.6791 C   0  0  0  0  0  0  0  0  0  0  0  0
   14.0991   -7.3146   -8.9095 C   0  0  0  0  0  0  0  0  0  0  0  0
   13.0836   -8.2519   -8.4348 C   0  0  0  0  0  0  0  0  0  0  0  0
   12.0786   -8.5470   -9.1282 O   0  0  0  0  0  0  0  0  0  0  0  0
   16.6821   -6.0093   -9.1497 C   0  0  0  0  0  0  0  0  0  0  0  0
   17.7558   -6.2773   -8.5888 O   0  0  0  0  0  0  0  0  0  0  0  0
   13.2413   -8.8307   -7.1756 O   0  0  0  0  0  0  0  0  0  0  0  0
   15.9688   -4.8998   -8.7717 O   0  0  0  0  0  0  0  0  0  0  0  0
  2  1  1  6
  3  2  1  0
  3  4  1  0
  4  8  1  0
  4  5  2  0
  6  2  1  0
  7  6  2  0
 10  9  1  6
 10 12  1  0
 11 10  1  0
 12 14  1  0
 12 13  1  6
 13  6  1  0
 14 16  1  0
 15 14  2  0
 16 17  1  0
 17 18  1  1
 17 22  1  0
 19 20  1  0
 19 18  1  0
 20 21  2  0
 22 23  2  0
 22 25  1  0
 24 20  1  0
M  END
$$$$
