DTE.pdb
     RDKit          3D

 25 24  0  0  1  0  0  0  0  0999 V2000
   16.9018  -12.5510  -15.5281 N   0  0  0  0  0  0  0  0  0  0  0  0
   18.1883  -11.9049  -15.6884 C   0  0  1  0  0  0  0  0  0  0  0  0
   18.7364  -12.2646  -17.0508 C   0  0  0  0  0  0  0  0  0  0  0  0
   19.2053  -13.6719  -17.0347 C   0  0  0  0  0  0  0  0  0  0  0  0
   18.3671  -14.6116  -17.0162 O   0  0  0  0  0  0  0  0  0  0  0  0
   17.9782  -10.4421  -15.5460 C   0  0  0  0  0  0  0  0  0  0  0  0
   17.1602   -9.8274  -16.2748 O   0  0  0  0  0  0  0  0  0  0  0  0
   20.5404  -14.0532  -17.0387 O   0  0  0  0  0  0  0  0  0  0  0  0
   16.4929   -8.5923  -12.9564 C   0  0  0  0  0  0  0  0  0  0  0  0
   17.9120   -8.1223  -12.9754 C   0  0  1  0  0  0  0  0  0  0  0  0
   18.6913   -8.6580  -11.9570 O   0  0  0  0  0  0  0  0  0  0  0  0
   18.5378   -8.2845  -14.3350 C   0  0  2  0  0  0  0  0  0  0  0  0
   18.7012   -9.6999  -14.5781 N   0  0  0  0  0  0  0  0  0  0  0  0
   19.8618   -7.5986  -14.4548 C   0  0  0  0  0  0  0  0  0  0  0  0
   20.8882   -8.1948  -14.0057 O   0  0  0  0  0  0  0  0  0  0  0  0
   20.0335   -6.3385  -15.0346 N   0  0  0  0  0  0  0  0  0  0  0  0
   21.2975   -5.6248  -15.1654 C   0  0  1  0  0  0  0  0  0  0  0  0
   21.1209   -4.4166  -16.0394 C   0  0  0  0  0  0  0  0  0  0  0  0
   22.3674   -3.5955  -16.1357 C   0  0  0  0  0  0  0  0  0  0  0  0
   22.2719   -2.3922  -16.9591 C   0  0  0  0  0  0  0  0  0  0  0  0
   21.2402   -2.1245  -17.6238 O   0  0  0  0  0  0  0  0  0  0  0  0
   21.8529   -5.2555  -13.8500 C   0  0  0  0  0  0  0  0  0  0  0  0
   23.0704   -5.0539  -13.7232 O   0  0  0  0  0  0  0  0  0  0  0  0
   23.3607   -1.5215  -17.0034 O   0  0  0  0  0  0  0  0  0  0  0  0
   21.0209   -5.1346  -12.7657 O   0  0  0  0  0  0  0  0  0  0  0  0
  2  1  1  6
  3  2  1  0
  3  4  1  0
  4  8  1  0
  4  5  2  0
  6  2  1  0
  7  6  2  0
 10  9  1  6
 10 12  1  0
 11 10  1  0
 12 14  1  0
 12 13  1  1
 13  6  1  0
 14 16  1  0
 15 14  2  0
 16 17  1  0
 17 18  1  6
 17 22  1  0
 19 20  1  0
 19 18  1  0
 20 21  2  0
 22 23  2  0
 22 25  1  0
 24 20  1  0
M  END
$$$$
