DTE.pdb
     RDKit          3D

 25 24  0  0  1  0  0  0  0  0999 V2000
   13.7604   -8.4689   -7.6670 N   0  0  0  0  0  0  0  0  0  0  0  0
   14.4894   -7.5508   -8.5179 C   0  0  1  0  0  0  0  0  0  0  0  0
   15.0996   -6.4757   -7.6474 C   0  0  0  0  0  0  0  0  0  0  0  0
   14.0718   -5.4508   -7.3410 C   0  0  0  0  0  0  0  0  0  0  0  0
   12.8906   -5.6061   -7.7493 O   0  0  0  0  0  0  0  0  0  0  0  0
   15.5256   -8.3318   -9.2393 C   0  0  0  0  0  0  0  0  0  0  0  0
   16.3942   -8.9925   -8.6169 O   0  0  0  0  0  0  0  0  0  0  0  0
   14.3125   -4.2921   -6.6147 O   0  0  0  0  0  0  0  0  0  0  0  0
   15.3178  -11.2439  -11.2556 C   0  0  0  0  0  0  0  0  0  0  0  0
   15.7860  -10.1675  -12.1815 C   0  0  1  0  0  0  0  0  0  0  0  0
   14.7884   -9.6741  -13.0139 O   0  0  0  0  0  0  0  0  0  0  0  0
   16.5240   -9.0795  -11.4480 C   0  0  2  0  0  0  0  0  0  0  0  0
   15.5596   -8.3498  -10.6566 N   0  0  0  0  0  0  0  0  0  0  0  0
   17.2373   -8.1365  -12.3646 C   0  0  0  0  0  0  0  0  0  0  0  0
   16.6144   -7.1072  -12.7682 O   0  0  0  0  0  0  0  0  0  0  0  0
   18.5518   -8.3238  -12.8011 N   0  0  0  0  0  0  0  0  0  0  0  0
   19.2592   -7.4860  -13.7612 C   0  0  1  0  0  0  0  0  0  0  0  0
   20.4681   -6.8699  -13.1176 C   0  0  0  0  0  0  0  0  0  0  0  0
   21.2052   -5.9573  -14.0455 C   0  0  0  0  0  0  0  0  0  0  0  0
   22.3972   -5.3184  -13.4921 C   0  0  0  0  0  0  0  0  0  0  0  0
   23.2433   -4.7476  -14.2245 O   0  0  0  0  0  0  0  0  0  0  0  0
   19.6263   -8.2393  -14.9747 C   0  0  0  0  0  0  0  0  0  0  0  0
   19.8924   -9.4487  -14.8994 O   0  0  0  0  0  0  0  0  0  0  0  0
   22.5942   -5.3475  -12.1117 O   0  0  0  0  0  0  0  0  0  0  0  0
   19.6729   -7.6009  -16.1883 O   0  0  0  0  0  0  0  0  0  0  0  0
  2  1  1  1
  3  2  1  0
  3  4  1  0
  4  8  1  0
  4  5  2  0
  6  2  1  0
  7  6  2  0
 10  9  1  1
 10 12  1  0
 11 10  1  0
 12 14  1  0
 12 13  1  6
 13  6  1  0
 14 16  1  0
 15 14  2  0
 16 17  1  0
 17 18  1  1
 17 22  1  0
 19 20  1  0
 19 18  1  0
 20 21  2  0
 22 23  2  0
 22 25  1  0
 24 20  1  0
M  END
$$$$
