DTE.pdb
     RDKit          3D

 25 24  0  0  1  0  0  0  0  0999 V2000
   22.6406  -19.3200  -15.2062 N   0  0  0  0  0  0  0  0  0  0  0  0
   21.9985  -18.1747  -15.8181 C   0  0  1  0  0  0  0  0  0  0  0  0
   20.5028  -18.3213  -15.6524 C   0  0  0  0  0  0  0  0  0  0  0  0
   20.0300  -19.4703  -16.4628 C   0  0  0  0  0  0  0  0  0  0  0  0
   20.4371  -19.6124  -17.6461 O   0  0  0  0  0  0  0  0  0  0  0  0
   22.5124  -16.9564  -15.1430 C   0  0  0  0  0  0  0  0  0  0  0  0
   22.4441  -16.8251  -13.8955 O   0  0  0  0  0  0  0  0  0  0  0  0
   19.1436  -20.4378  -16.0087 O   0  0  0  0  0  0  0  0  0  0  0  0
   25.8428  -15.6698  -14.7129 C   0  0  0  0  0  0  0  0  0  0  0  0
   25.1253  -14.6946  -15.5900 C   0  0  1  0  0  0  0  0  0  0  0  0
   25.4352  -14.8235  -16.9386 O   0  0  0  0  0  0  0  0  0  0  0  0
   23.6424  -14.6931  -15.3304 C   0  0  2  0  0  0  0  0  0  0  0  0
   23.0955  -15.9057  -15.8956 N   0  0  0  0  0  0  0  0  0  0  0  0
   22.9468  -13.5068  -15.9193 C   0  0  0  0  0  0  0  0  0  0  0  0
   22.4892  -13.6052  -17.0989 O   0  0  0  0  0  0  0  0  0  0  0  0
   22.7711  -12.2959  -15.2439 N   0  0  0  0  0  0  0  0  0  0  0  0
   22.0953  -11.1164  -15.7695 C   0  0  1  0  0  0  0  0  0  0  0  0
   22.0283  -10.0471  -14.7173 C   0  0  0  0  0  0  0  0  0  0  0  0
   21.2234   -8.8652  -15.1560 C   0  0  0  0  0  0  0  0  0  0  0  0
   21.1912   -7.7393  -14.2251 C   0  0  0  0  0  0  0  0  0  0  0  0
   21.7939   -7.7731  -13.1235 O   0  0  0  0  0  0  0  0  0  0  0  0
   22.7448  -10.6181  -16.9962 C   0  0  0  0  0  0  0  0  0  0  0  0
   23.9824  -10.5936  -17.0788 O   0  0  0  0  0  0  0  0  0  0  0  0
   20.4689   -6.5990  -14.5764 O   0  0  0  0  0  0  0  0  0  0  0  0
   21.9783  -10.1814  -18.0471 O   0  0  0  0  0  0  0  0  0  0  0  0
  2  1  1  1
  3  2  1  0
  3  4  1  0
  4  8  1  0
  4  5  2  0
  6  2  1  0
  7  6  2  0
 10  9  1  1
 10 12  1  0
 11 10  1  0
 12 14  1  0
 12 13  1  6
 13  6  1  0
 14 16  1  0
 15 14  2  0
 16 17  1  0
 17 18  1  1
 17 22  1  0
 19 20  1  0
 19 18  1  0
 20 21  2  0
 22 23  2  0
 22 25  1  0
 24 20  1  0
M  END
$$$$
