DTE.pdb
     RDKit          3D

 25 24  0  0  1  0  0  0  0  0999 V2000
   25.3625  -21.4393  -10.5543 N   0  0  0  0  0  0  0  0  0  0  0  0
   24.2546  -21.2224  -11.4619 C   0  0  1  0  0  0  0  0  0  0  0  0
   23.1170  -20.5987  -10.6855 C   0  0  0  0  0  0  0  0  0  0  0  0
   22.0560  -21.6129  -10.4705 C   0  0  0  0  0  0  0  0  0  0  0  0
   22.1989  -22.7766  -10.9303 O   0  0  0  0  0  0  0  0  0  0  0  0
   24.7323  -20.3342  -12.5514 C   0  0  0  0  0  0  0  0  0  0  0  0
   25.6454  -19.4942  -12.3539 O   0  0  0  0  0  0  0  0  0  0  0  0
   20.8752  -21.3774   -9.7789 O   0  0  0  0  0  0  0  0  0  0  0  0
   26.7188  -20.9028  -15.1678 C   0  0  0  0  0  0  0  0  0  0  0  0
   25.4499  -20.5091  -15.8534 C   0  0  1  0  0  0  0  0  0  0  0  0
   24.7483  -21.5826  -16.3887 O   0  0  0  0  0  0  0  0  0  0  0  0
   24.5932  -19.6282  -14.9838 C   0  0  2  0  0  0  0  0  0  0  0  0
   24.1651  -20.4134  -13.8484 N   0  0  0  0  0  0  0  0  0  0  0  0
   23.3962  -19.0867  -15.6994 C   0  0  0  0  0  0  0  0  0  0  0  0
   22.3102  -19.7396  -15.6293 O   0  0  0  0  0  0  0  0  0  0  0  0
   23.4052  -17.9016  -16.4402 N   0  0  0  0  0  0  0  0  0  0  0  0
   22.2501  -17.2903  -17.0854 C   0  0  1  0  0  0  0  0  0  0  0  0
   22.6529  -16.0122  -17.7632 C   0  0  0  0  0  0  0  0  0  0  0  0
   21.4779  -15.2527  -18.2923 C   0  0  0  0  0  0  0  0  0  0  0  0
   21.7839  -13.9717  -18.9251 C   0  0  0  0  0  0  0  0  0  0  0  0
   21.4691  -12.8781  -18.3931 O   0  0  0  0  0  0  0  0  0  0  0  0
   21.6026  -18.2160  -18.0333 C   0  0  0  0  0  0  0  0  0  0  0  0
   20.3661  -18.2419  -18.1313 O   0  0  0  0  0  0  0  0  0  0  0  0
   22.4438  -13.9711  -20.1539 O   0  0  0  0  0  0  0  0  0  0  0  0
   22.3697  -19.0493  -18.8078 O   0  0  0  0  0  0  0  0  0  0  0  0
  2  1  1  1
  3  2  1  0
  3  4  1  0
  4  8  1  0
  4  5  2  0
  6  2  1  0
  7  6  2  0
 10  9  1  1
 10 12  1  0
 11 10  1  0
 12 14  1  0
 12 13  1  1
 13  6  1  0
 14 16  1  0
 15 14  2  0
 16 17  1  0
 17 18  1  6
 17 22  1  0
 19 20  1  0
 19 18  1  0
 20 21  2  0
 22 23  2  0
 22 25  1  0
 24 20  1  0
M  END
$$$$
