SDK.pdb
     RDKit          3D

 24 23  0  0  1  0  0  0  0  0999 V2000
   12.9145  -12.7837  -14.3093 O   0  0  0  0  0  0  0  0  0  0  0  0
   13.5058  -11.7406  -13.5942 C   0  0  0  0  0  0  0  0  0  0  0  0
   14.9600  -11.6544  -14.0079 C   0  0  2  0  0  0  0  0  0  0  0  0
   15.5105  -12.9700  -14.0487 N   0  0  0  0  0  0  0  0  0  0  0  0
   15.7434  -10.7357  -13.1231 C   0  0  0  0  0  0  0  0  0  0  0  0
   16.2724  -11.1873  -12.1099 O   0  0  0  0  0  0  0  0  0  0  0  0
   15.8574   -9.3731  -13.4728 N   0  0  0  0  0  0  0  0  0  0  0  0
   16.5995   -8.3371  -12.8543 C   0  0  1  0  0  0  0  0  0  0  0  0
   17.5086   -7.5431  -13.7509 C   0  0  0  0  0  0  0  0  0  0  0  0
   18.2657   -6.5559  -12.9509 C   0  0  0  0  0  0  0  0  0  0  0  0
   19.0693   -6.9498  -12.0811 O   0  0  0  0  0  0  0  0  0  0  0  0
   15.8284   -7.6119  -11.8777 C   0  0  0  0  0  0  0  0  0  0  0  0
   14.8899   -6.8605  -12.2802 O   0  0  0  0  0  0  0  0  0  0  0  0
   18.1050   -5.1801  -13.1420 O   0  0  0  0  0  0  0  0  0  0  0  0
   16.0551   -7.6869  -10.5056 N   0  0  0  0  0  0  0  0  0  0  0  0
   15.2316   -6.8742   -9.5281 C   0  0  1  0  0  0  0  0  0  0  0  0
   14.4718   -7.8505   -8.7289 C   0  0  0  0  0  0  0  0  0  0  0  0
   13.0579   -7.6585   -8.4234 C   0  0  0  0  0  0  0  0  0  0  0  0
   12.3833   -8.6422   -7.5447 C   0  0  0  0  0  0  0  0  0  0  0  0
   10.9192   -8.3365   -7.3150 C   0  0  0  0  0  0  0  0  0  0  0  0
   10.3139   -9.3787   -6.5199 N   0  0  0  0  0  0  0  0  0  0  0  0
   16.2196   -6.0409   -8.8503 C   0  0  0  0  0  0  0  0  0  0  0  0
   15.7868   -4.9631   -8.0526 O   0  0  0  0  0  0  0  0  0  0  0  0
   17.4496   -6.1819   -8.9016 O   0  0  0  0  0  0  0  0  0  0  0  0
  2  1  1  0
  2  3  1  0
  3  4  1  1
  5  3  1  0
  5  6  2  0
  7  5  1  0
  8  7  1  0
  9 10  1  0
  8  9  1  6
 10 11  2  0
 12  8  1  0
 13 12  2  0
 14 10  1  0
 15 12  1  0
 16 15  1  0
 16 17  1  1
 18 17  1  0
 19 20  1  0
 19 18  1  0
 20 21  1  0
 22 16  1  0
 23 22  1  0
 24 22  2  0
M  END
$$$$
