SDK.pdb
     RDKit          3D

 24 23  0  0  1  0  0  0  0  0999 V2000
   24.9425  -21.3656   -8.6343 O   0  0  0  0  0  0  0  0  0  0  0  0
   24.4535  -20.8487   -9.8355 C   0  0  0  0  0  0  0  0  0  0  0  0
   25.5004  -21.0792  -10.9052 C   0  0  2  0  0  0  0  0  0  0  0  0
   26.7448  -20.5404  -10.4616 N   0  0  0  0  0  0  0  0  0  0  0  0
   25.0805  -20.5273  -12.2317 C   0  0  0  0  0  0  0  0  0  0  0  0
   24.8930  -19.3180  -12.3446 O   0  0  0  0  0  0  0  0  0  0  0  0
   24.9106  -21.4074  -13.3219 N   0  0  0  0  0  0  0  0  0  0  0  0
   24.4637  -21.1429  -14.6398 C   0  0  1  0  0  0  0  0  0  0  0  0
   25.0346  -22.0148  -15.7236 C   0  0  0  0  0  0  0  0  0  0  0  0
   26.4947  -21.8004  -15.8235 C   0  0  0  0  0  0  0  0  0  0  0  0
   27.2685  -22.7783  -15.7738 O   0  0  0  0  0  0  0  0  0  0  0  0
   23.0556  -20.8462  -14.6969 C   0  0  0  0  0  0  0  0  0  0  0  0
   22.2748  -21.4470  -13.8988 O   0  0  0  0  0  0  0  0  0  0  0  0
   27.0389  -20.5211  -15.9724 O   0  0  0  0  0  0  0  0  0  0  0  0
   22.4956  -19.9312  -15.5852 N   0  0  0  0  0  0  0  0  0  0  0  0
   21.0078  -19.6473  -15.5859 C   0  0  1  0  0  0  0  0  0  0  0  0
   20.8568  -18.2789  -16.1092 C   0  0  0  0  0  0  0  0  0  0  0  0
   19.6183  -17.5254  -15.9428 C   0  0  0  0  0  0  0  0  0  0  0  0
   18.5985  -17.5932  -17.0153 C   0  0  0  0  0  0  0  0  0  0  0  0
   17.4405  -16.6425  -16.8031 C   0  0  0  0  0  0  0  0  0  0  0  0
   16.5848  -16.6360  -17.9661 N   0  0  0  0  0  0  0  0  0  0  0  0
   20.4439  -20.7513  -16.3562 C   0  0  0  0  0  0  0  0  0  0  0  0
   19.1141  -21.1527  -16.1200 O   0  0  0  0  0  0  0  0  0  0  0  0
   21.0306  -21.4030  -17.2315 O   0  0  0  0  0  0  0  0  0  0  0  0
  2  1  1  0
  2  3  1  0
  3  4  1  1
  5  3  1  0
  5  6  2  0
  7  5  1  0
  8  7  1  0
  9 10  1  0
  8  9  1  6
 10 11  2  0
 12  8  1  0
 13 12  2  0
 14 10  1  0
 15 12  1  0
 16 15  1  0
 16 17  1  6
 18 17  1  0
 19 20  1  0
 19 18  1  0
 20 21  1  0
 22 16  1  0
 23 22  1  0
 24 22  2  0
M  END
$$$$
