SDK.pdb
     RDKit          3D

 24 23  0  0  1  0  0  0  0  0999 V2000
   24.5253  -20.0208   -9.3742 O   0  0  0  0  0  0  0  0  0  0  0  0
   25.1002  -21.2925   -9.4148 C   0  0  0  0  0  0  0  0  0  0  0  0
   26.1263  -21.3072  -10.5285 C   0  0  2  0  0  0  0  0  0  0  0  0
   27.1857  -20.4111  -10.1966 N   0  0  0  0  0  0  0  0  0  0  0  0
   25.5158  -21.0001  -11.8603 C   0  0  0  0  0  0  0  0  0  0  0  0
   25.6458  -19.8731  -12.3327 O   0  0  0  0  0  0  0  0  0  0  0  0
   24.8063  -22.0113  -12.5430 N   0  0  0  0  0  0  0  0  0  0  0  0
   24.1377  -21.9654  -13.7909 C   0  0  1  0  0  0  0  0  0  0  0  0
   24.2729  -23.1823  -14.6636 C   0  0  0  0  0  0  0  0  0  0  0  0
   23.6803  -22.9157  -15.9923 C   0  0  0  0  0  0  0  0  0  0  0  0
   22.4701  -23.1490  -16.1882 O   0  0  0  0  0  0  0  0  0  0  0  0
   22.8372  -21.3534  -13.6991 C   0  0  0  0  0  0  0  0  0  0  0  0
   22.0830  -21.6708  -12.7306 O   0  0  0  0  0  0  0  0  0  0  0  0
   24.4445  -22.4058  -17.0464 O   0  0  0  0  0  0  0  0  0  0  0  0
   22.3542  -20.4264  -14.6196 N   0  0  0  0  0  0  0  0  0  0  0  0
   21.0233  -19.7339  -14.4118 C   0  0  1  0  0  0  0  0  0  0  0  0
   21.0995  -18.4740  -15.1707 C   0  0  0  0  0  0  0  0  0  0  0  0
   20.1441  -17.3914  -14.9597 C   0  0  0  0  0  0  0  0  0  0  0  0
   20.2131  -16.2038  -15.8425 C   0  0  0  0  0  0  0  0  0  0  0  0
   19.1392  -15.1777  -15.5531 C   0  0  0  0  0  0  0  0  0  0  0  0
   19.2693  -14.0563  -16.4533 N   0  0  0  0  0  0  0  0  0  0  0  0
   20.0433  -20.7341  -14.8233 C   0  0  0  0  0  0  0  0  0  0  0  0
   18.8219  -20.8343  -14.1281 O   0  0  0  0  0  0  0  0  0  0  0  0
   20.1726  -21.5398  -15.7557 O   0  0  0  0  0  0  0  0  0  0  0  0
  2  1  1  0
  2  3  1  0
  3  4  1  1
  5  3  1  0
  5  6  2  0
  7  5  1  0
  8  7  1  0
  9 10  1  0
  8  9  1  1
 10 11  2  0
 12  8  1  0
 13 12  2  0
 14 10  1  0
 15 12  1  0
 16 15  1  0
 16 17  1  6
 18 17  1  0
 19 20  1  0
 19 18  1  0
 20 21  1  0
 22 16  1  0
 23 22  1  0
 24 22  2  0
M  END
$$$$
