SDK.pdb
     RDKit          3D

 24 23  0  0  1  0  0  0  0  0999 V2000
   22.9714  -10.2744  -18.4186 O   0  0  0  0  0  0  0  0  0  0  0  0
   22.7974  -11.3819  -17.5866 C   0  0  0  0  0  0  0  0  0  0  0  0
   21.5835  -11.1286  -16.7173 C   0  0  2  0  0  0  0  0  0  0  0  0
   20.4265  -11.0430  -17.5479 N   0  0  0  0  0  0  0  0  0  0  0  0
   21.7541   -9.9199  -15.8509 C   0  0  0  0  0  0  0  0  0  0  0  0
   22.6425   -9.9127  -15.0019 O   0  0  0  0  0  0  0  0  0  0  0  0
   20.8920   -8.8167  -16.0294 N   0  0  0  0  0  0  0  0  0  0  0  0
   20.8264   -7.5929  -15.3191 C   0  0  1  0  0  0  0  0  0  0  0  0
   22.1419   -6.9453  -14.9862 C   0  0  0  0  0  0  0  0  0  0  0  0
   21.9226   -5.8049  -14.0702 C   0  0  0  0  0  0  0  0  0  0  0  0
   21.4764   -6.0096  -12.9228 O   0  0  0  0  0  0  0  0  0  0  0  0
   19.7635   -6.7398  -15.7847 C   0  0  0  0  0  0  0  0  0  0  0  0
   19.8449   -6.2484  -16.9506 O   0  0  0  0  0  0  0  0  0  0  0  0
   22.2024   -4.4905  -14.4566 O   0  0  0  0  0  0  0  0  0  0  0  0
   18.6424   -6.4190  -15.0231 N   0  0  0  0  0  0  0  0  0  0  0  0
   17.5308   -5.5580  -15.5864 C   0  0  1  0  0  0  0  0  0  0  0  0
   16.2870   -6.3210  -15.3871 C   0  0  0  0  0  0  0  0  0  0  0  0
   15.0574   -5.9842  -16.0972 C   0  0  0  0  0  0  0  0  0  0  0  0
   13.8532   -6.8141  -15.8609 C   0  0  0  0  0  0  0  0  0  0  0  0
   12.6764   -6.4249  -16.7291 C   0  0  0  0  0  0  0  0  0  0  0  0
   11.6337   -7.4182  -16.6253 N   0  0  0  0  0  0  0  0  0  0  0  0
   17.6860   -4.2877  -14.8847 C   0  0  0  0  0  0  0  0  0  0  0  0
   17.0829   -3.1277  -15.4102 O   0  0  0  0  0  0  0  0  0  0  0  0
   18.3171   -4.1086  -13.8336 O   0  0  0  0  0  0  0  0  0  0  0  0
  2  1  1  0
  2  3  1  0
  3  4  1  6
  5  3  1  0
  5  6  2  0
  7  5  1  0
  8  7  1  0
  9 10  1  0
  8  9  1  6
 10 11  2  0
 12  8  1  0
 13 12  2  0
 14 10  1  0
 15 12  1  0
 16 15  1  0
 16 17  1  1
 18 17  1  0
 19 20  1  0
 19 18  1  0
 20 21  1  0
 22 16  1  0
 23 22  1  0
 24 22  2  0
M  END
$$$$
