SDK.pdb
     RDKit          3D

 24 23  0  0  1  0  0  0  0  0999 V2000
   13.3586  -11.2312  -16.1274 O   0  0  0  0  0  0  0  0  0  0  0  0
   14.5451  -10.4999  -16.2092 C   0  0  0  0  0  0  0  0  0  0  0  0
   15.4138  -10.8834  -15.0294 C   0  0  2  0  0  0  0  0  0  0  0  0
   14.8727  -12.0511  -14.4137 N   0  0  0  0  0  0  0  0  0  0  0  0
   15.5797   -9.7534  -14.0619 C   0  0  0  0  0  0  0  0  0  0  0  0
   15.2350   -9.9109  -12.8928 O   0  0  0  0  0  0  0  0  0  0  0  0
   16.1286   -8.5341  -14.5136 N   0  0  0  0  0  0  0  0  0  0  0  0
   16.3669   -7.3298  -13.8069 C   0  0  1  0  0  0  0  0  0  0  0  0
   17.3948   -6.4044  -14.3966 C   0  0  0  0  0  0  0  0  0  0  0  0
   18.6259   -7.1595  -14.7160 C   0  0  0  0  0  0  0  0  0  0  0  0
   19.1758   -7.8487  -13.8328 O   0  0  0  0  0  0  0  0  0  0  0  0
   15.1566   -6.7406  -13.2949 C   0  0  0  0  0  0  0  0  0  0  0  0
   14.1610   -6.6250  -14.0713 O   0  0  0  0  0  0  0  0  0  0  0  0
   19.1979   -7.1225  -15.9913 O   0  0  0  0  0  0  0  0  0  0  0  0
   15.0140   -6.2855  -11.9863 N   0  0  0  0  0  0  0  0  0  0  0  0
   13.6928   -5.7414  -11.4838 C   0  0  1  0  0  0  0  0  0  0  0  0
   13.1534   -6.7651  -10.5727 C   0  0  0  0  0  0  0  0  0  0  0  0
   11.9110   -6.5591   -9.8354 C   0  0  0  0  0  0  0  0  0  0  0  0
   11.5114   -7.5667   -8.8256 C   0  0  0  0  0  0  0  0  0  0  0  0
   10.2313   -7.2138   -8.0998 C   0  0  0  0  0  0  0  0  0  0  0  0
    9.8909   -8.2555   -7.1599 N   0  0  0  0  0  0  0  0  0  0  0  0
   14.0419   -4.4358  -10.9326 C   0  0  0  0  0  0  0  0  0  0  0  0
   13.0220   -3.5002  -10.6683 O   0  0  0  0  0  0  0  0  0  0  0  0
   15.1848   -4.0421  -10.6606 O   0  0  0  0  0  0  0  0  0  0  0  0
  2  1  1  0
  2  3  1  0
  3  4  1  1
  5  3  1  0
  5  6  2  0
  7  5  1  0
  8  7  1  0
  9 10  1  0
  8  9  1  6
 10 11  2  0
 12  8  1  0
 13 12  2  0
 14 10  1  0
 15 12  1  0
 16 15  1  0
 16 17  1  1
 18 17  1  0
 19 20  1  0
 19 18  1  0
 20 21  1  0
 22 16  1  0
 23 22  1  0
 24 22  2  0
M  END
$$$$
