SDK.pdb
     RDKit          3D

 24 23  0  0  1  0  0  0  0  0999 V2000
   19.4200  -12.2530  -18.2867 O   0  0  0  0  0  0  0  0  0  0  0  0
   19.3929  -10.8586  -18.2228 C   0  0  0  0  0  0  0  0  0  0  0  0
   19.5591  -10.4529  -16.7733 C   0  0  2  0  0  0  0  0  0  0  0  0
   18.4665  -10.9722  -16.0169 N   0  0  0  0  0  0  0  0  0  0  0  0
   19.7080   -8.9717  -16.6170 C   0  0  0  0  0  0  0  0  0  0  0  0
   18.9375   -8.2261  -17.2176 O   0  0  0  0  0  0  0  0  0  0  0  0
   20.7282   -8.4656  -15.7833 N   0  0  0  0  0  0  0  0  0  0  0  0
   21.0462   -7.1260  -15.4504 C   0  0  1  0  0  0  0  0  0  0  0  0
   21.9780   -6.9328  -14.2863 C   0  0  0  0  0  0  0  0  0  0  0  0
   22.0761   -5.4946  -13.9550 C   0  0  0  0  0  0  0  0  0  0  0  0
   22.9753   -4.8006  -14.4718 O   0  0  0  0  0  0  0  0  0  0  0  0
   21.2538   -6.3019  -16.6131 C   0  0  0  0  0  0  0  0  0  0  0  0
   22.2176   -6.5775  -17.3894 O   0  0  0  0  0  0  0  0  0  0  0  0
   21.1823   -4.8840  -13.0700 O   0  0  0  0  0  0  0  0  0  0  0  0
   20.4525   -5.2099  -16.9376 N   0  0  0  0  0  0  0  0  0  0  0  0
   20.7285   -4.3717  -18.1686 C   0  0  1  0  0  0  0  0  0  0  0  0
   19.5303   -4.4909  -19.0167 C   0  0  0  0  0  0  0  0  0  0  0  0
   19.4022   -3.7581  -20.2720 C   0  0  0  0  0  0  0  0  0  0  0  0
   18.1410   -3.8828  -21.0393 C   0  0  0  0  0  0  0  0  0  0  0  0
   18.1160   -3.0377  -22.2943 C   0  0  0  0  0  0  0  0  0  0  0  0
   19.3261   -3.2432  -23.0547 N   0  0  0  0  0  0  0  0  0  0  0  0
   21.0676   -3.0597  -17.6265 C   0  0  0  0  0  0  0  0  0  0  0  0
   21.7000   -2.1106  -18.4539 O   0  0  0  0  0  0  0  0  0  0  0  0
   20.8526   -2.6719  -16.4695 O   0  0  0  0  0  0  0  0  0  0  0  0
  2  1  1  0
  2  3  1  0
  3  4  1  1
  5  3  1  0
  5  6  2  0
  7  5  1  0
  8  7  1  0
  9 10  1  0
  8  9  1  1
 10 11  2  0
 12  8  1  0
 13 12  2  0
 14 10  1  0
 15 12  1  0
 16 15  1  0
 16 17  1  6
 18 17  1  0
 19 20  1  0
 19 18  1  0
 20 21  1  0
 22 16  1  0
 23 22  1  0
 24 22  2  0
M  END
$$$$
