SDK.pdb
     RDKit          3D

 24 23  0  0  1  0  0  0  0  0999 V2000
   14.7057  -11.7520  -13.3204 O   0  0  0  0  0  0  0  0  0  0  0  0
   15.0384  -10.4934  -12.8160 C   0  0  0  0  0  0  0  0  0  0  0  0
   15.9915  -10.6908  -11.6558 C   0  0  2  0  0  0  0  0  0  0  0  0
   15.3778  -11.5430  -10.6899 N   0  0  0  0  0  0  0  0  0  0  0  0
   16.4378   -9.3893  -11.0663 C   0  0  0  0  0  0  0  0  0  0  0  0
   16.1300   -9.1204   -9.9073 O   0  0  0  0  0  0  0  0  0  0  0  0
   17.2020   -8.5019  -11.8540 N   0  0  0  0  0  0  0  0  0  0  0  0
   17.5666   -7.1554  -11.6081 C   0  0  1  0  0  0  0  0  0  0  0  0
   18.6547   -6.5909  -12.4789 C   0  0  0  0  0  0  0  0  0  0  0  0
   19.8924   -7.3836  -12.3130 C   0  0  0  0  0  0  0  0  0  0  0  0
   20.1262   -8.3349  -13.0861 O   0  0  0  0  0  0  0  0  0  0  0  0
   16.4287   -6.3155  -11.3362 C   0  0  0  0  0  0  0  0  0  0  0  0
   15.4806   -6.2851  -12.1774 O   0  0  0  0  0  0  0  0  0  0  0  0
   20.8170   -7.0959  -11.3044 O   0  0  0  0  0  0  0  0  0  0  0  0
   16.3074   -5.5269  -10.1946 N   0  0  0  0  0  0  0  0  0  0  0  0
   15.0341   -4.7610   -9.9010 C   0  0  1  0  0  0  0  0  0  0  0  0
   14.8554   -4.8170   -8.4402 C   0  0  0  0  0  0  0  0  0  0  0  0
   13.7685   -4.1091   -7.7718 C   0  0  0  0  0  0  0  0  0  0  0  0
   13.7064   -4.1417   -6.2920 C   0  0  0  0  0  0  0  0  0  0  0  0
   12.4790   -3.4598   -5.7277 C   0  0  0  0  0  0  0  0  0  0  0  0
   12.4801   -3.5499   -4.2868 N   0  0  0  0  0  0  0  0  0  0  0  0
   15.2599   -3.4603  -10.5234 C   0  0  0  0  0  0  0  0  0  0  0  0
   14.1569   -2.6414  -10.8367 O   0  0  0  0  0  0  0  0  0  0  0  0
   16.3611   -2.9763  -10.8203 O   0  0  0  0  0  0  0  0  0  0  0  0
  2  1  1  0
  2  3  1  0
  3  4  1  1
  5  3  1  0
  5  6  2  0
  7  5  1  0
  8  7  1  0
  9 10  1  0
  8  9  1  6
 10 11  2  0
 12  8  1  0
 13 12  2  0
 14 10  1  0
 15 12  1  0
 16 15  1  0
 16 17  1  1
 18 17  1  0
 19 20  1  0
 19 18  1  0
 20 21  1  0
 22 16  1  0
 23 22  1  0
 24 22  2  0
M  END
$$$$
