SDK.pdb
     RDKit          3D

 24 23  0  0  1  0  0  0  0  0999 V2000
   13.9251  -12.6221  -15.2380 O   0  0  0  0  0  0  0  0  0  0  0  0
   14.5702  -11.4692  -14.7866 C   0  0  0  0  0  0  0  0  0  0  0  0
   15.9582  -11.4419  -15.3917 C   0  0  2  0  0  0  0  0  0  0  0  0
   16.6676  -12.6096  -14.9807 N   0  0  0  0  0  0  0  0  0  0  0  0
   16.6930  -10.1812  -15.0576 C   0  0  0  0  0  0  0  0  0  0  0  0
   16.5122   -9.6556  -13.9616 O   0  0  0  0  0  0  0  0  0  0  0  0
   17.5767   -9.6261  -16.0079 N   0  0  0  0  0  0  0  0  0  0  0  0
   18.3011   -8.4094  -15.9703 C   0  0  1  0  0  0  0  0  0  0  0  0
   19.6589   -8.4231  -16.6158 C   0  0  0  0  0  0  0  0  0  0  0  0
   20.2807   -7.0856  -16.5058 C   0  0  0  0  0  0  0  0  0  0  0  0
   20.9578   -6.7989  -15.4975 O   0  0  0  0  0  0  0  0  0  0  0  0
   17.4645   -7.2606  -16.2041 C   0  0  0  0  0  0  0  0  0  0  0  0
   16.7516   -7.2309  -17.2522 O   0  0  0  0  0  0  0  0  0  0  0  0
   20.1295   -6.1227  -17.5084 O   0  0  0  0  0  0  0  0  0  0  0  0
   17.3923   -6.1704  -15.3403 N   0  0  0  0  0  0  0  0  0  0  0  0
   16.4426   -5.0206  -15.6049 C   0  0  1  0  0  0  0  0  0  0  0  0
   15.3470   -5.1680  -14.6318 C   0  0  0  0  0  0  0  0  0  0  0  0
   14.4220   -4.0763  -14.3457 C   0  0  0  0  0  0  0  0  0  0  0  0
   13.4326   -4.2532  -13.2573 C   0  0  0  0  0  0  0  0  0  0  0  0
   12.5166   -3.0619  -13.0795 C   0  0  0  0  0  0  0  0  0  0  0  0
   11.5882   -3.3068  -12.0013 N   0  0  0  0  0  0  0  0  0  0  0  0
   17.2949   -3.8390  -15.5171 C   0  0  0  0  0  0  0  0  0  0  0  0
   16.8278   -2.6088  -16.0209 O   0  0  0  0  0  0  0  0  0  0  0  0
   18.4327   -3.7964  -15.0283 O   0  0  0  0  0  0  0  0  0  0  0  0
  2  1  1  0
  2  3  1  0
  3  4  1  1
  5  3  1  0
  5  6  2  0
  7  5  1  0
  8  7  1  0
  9 10  1  0
  8  9  1  6
 10 11  2  0
 12  8  1  0
 13 12  2  0
 14 10  1  0
 15 12  1  0
 16 15  1  0
 16 17  1  1
 18 17  1  0
 19 20  1  0
 19 18  1  0
 20 21  1  0
 22 16  1  0
 23 22  1  0
 24 22  2  0
M  END
$$$$
