SDK.pdb
     RDKit          3D

 24 23  0  0  1  0  0  0  0  0999 V2000
   19.7501  -13.9167  -16.3067 O   0  0  0  0  0  0  0  0  0  0  0  0
   19.5653  -12.7877  -15.5065 C   0  0  0  0  0  0  0  0  0  0  0  0
   18.9994  -11.6847  -16.3762 C   0  0  2  0  0  0  0  0  0  0  0  0
   19.9334  -11.3840  -17.4121 N   0  0  0  0  0  0  0  0  0  0  0  0
   18.6241  -10.4752  -15.5781 C   0  0  0  0  0  0  0  0  0  0  0  0
   17.7880  -10.5840  -14.6840 O   0  0  0  0  0  0  0  0  0  0  0  0
   19.2392   -9.2388  -15.8698 N   0  0  0  0  0  0  0  0  0  0  0  0
   19.1093   -7.9861  -15.2214 C   0  0  1  0  0  0  0  0  0  0  0  0
   20.3212   -7.0965  -15.2436 C   0  0  0  0  0  0  0  0  0  0  0  0
   21.4823   -7.8155  -14.6756 C   0  0  0  0  0  0  0  0  0  0  0  0
   21.4579   -8.1871  -13.4845 O   0  0  0  0  0  0  0  0  0  0  0  0
   17.8282   -7.3718  -15.4575 C   0  0  0  0  0  0  0  0  0  0  0  0
   17.4539   -7.1871  -16.6547 O   0  0  0  0  0  0  0  0  0  0  0  0
   22.6185   -8.0930  -15.4419 O   0  0  0  0  0  0  0  0  0  0  0  0
   16.9691   -6.9640  -14.4399 N   0  0  0  0  0  0  0  0  0  0  0  0
   15.6669   -6.2548  -14.7488 C   0  0  1  0  0  0  0  0  0  0  0  0
   14.6045   -7.0790  -14.1482 C   0  0  0  0  0  0  0  0  0  0  0  0
   13.2089   -6.6527  -14.1489 C   0  0  0  0  0  0  0  0  0  0  0  0
   12.2178   -7.4717  -13.4130 C   0  0  0  0  0  0  0  0  0  0  0  0
   10.8039   -6.9432  -13.5209 C   0  0  0  0  0  0  0  0  0  0  0  0
    9.8764   -7.8864  -12.9423 N   0  0  0  0  0  0  0  0  0  0  0  0
   15.8750   -4.9058  -14.2319 C   0  0  0  0  0  0  0  0  0  0  0  0
   15.0687   -3.8510  -14.7037 O   0  0  0  0  0  0  0  0  0  0  0  0
   16.7189   -4.5711  -13.3886 O   0  0  0  0  0  0  0  0  0  0  0  0
  2  1  1  0
  2  3  1  0
  3  4  1  6
  5  3  1  0
  5  6  2  0
  7  5  1  0
  8  7  1  0
  9 10  1  0
  8  9  1  6
 10 11  2  0
 12  8  1  0
 13 12  2  0
 14 10  1  0
 15 12  1  0
 16 15  1  0
 16 17  1  1
 18 17  1  0
 19 20  1  0
 19 18  1  0
 20 21  1  0
 22 16  1  0
 23 22  1  0
 24 22  2  0
M  END
$$$$
