SDK.pdb
     RDKit          3D

 24 23  0  0  1  0  0  0  0  0999 V2000
   14.8239  -12.8602  -16.5150 O   0  0  0  0  0  0  0  0  0  0  0  0
   15.2972  -11.5636  -16.3052 C   0  0  0  0  0  0  0  0  0  0  0  0
   16.5985  -11.6587  -15.5366 C   0  0  2  0  0  0  0  0  0  0  0  0
   16.7268  -12.9746  -15.0004 N   0  0  0  0  0  0  0  0  0  0  0  0
   16.7087  -10.6006  -14.4835 C   0  0  0  0  0  0  0  0  0  0  0  0
   16.4173  -10.8791  -13.3225 O   0  0  0  0  0  0  0  0  0  0  0  0
   17.1454   -9.3088  -14.8474 N   0  0  0  0  0  0  0  0  0  0  0  0
   17.2951   -8.1451  -14.0537 C   0  0  1  0  0  0  0  0  0  0  0  0
   18.4044   -7.2094  -14.4471 C   0  0  0  0  0  0  0  0  0  0  0  0
   19.6963   -7.9294  -14.4360 C   0  0  0  0  0  0  0  0  0  0  0  0
   20.2411   -8.2062  -13.3479 O   0  0  0  0  0  0  0  0  0  0  0  0
   16.0313   -7.5613  -13.6847 C   0  0  0  0  0  0  0  0  0  0  0  0
   15.1741   -7.3430  -14.5931 O   0  0  0  0  0  0  0  0  0  0  0  0
   20.3320   -8.3121  -15.6212 O   0  0  0  0  0  0  0  0  0  0  0  0
   15.6923   -7.2183  -12.3781 N   0  0  0  0  0  0  0  0  0  0  0  0
   14.3674   -6.5576  -12.0584 C   0  0  1  0  0  0  0  0  0  0  0  0
   13.6869   -7.4535  -11.1079 C   0  0  0  0  0  0  0  0  0  0  0  0
   12.4246   -7.0856  -10.4751 C   0  0  0  0  0  0  0  0  0  0  0  0
   11.8541   -7.9932   -9.4525 C   0  0  0  0  0  0  0  0  0  0  0  0
   10.6511   -7.4140   -8.7403 C   0  0  0  0  0  0  0  0  0  0  0  0
   10.2013   -8.3198   -7.7099 N   0  0  0  0  0  0  0  0  0  0  0  0
   14.7455   -5.2227  -11.6052 C   0  0  0  0  0  0  0  0  0  0  0  0
   13.7835   -4.1932  -11.6037 O   0  0  0  0  0  0  0  0  0  0  0  0
   15.8670   -4.8798  -11.2053 O   0  0  0  0  0  0  0  0  0  0  0  0
  2  1  1  0
  2  3  1  0
  3  4  1  1
  5  3  1  0
  5  6  2  0
  7  5  1  0
  8  7  1  0
  9 10  1  0
  8  9  1  6
 10 11  2  0
 12  8  1  0
 13 12  2  0
 14 10  1  0
 15 12  1  0
 16 15  1  0
 16 17  1  1
 18 17  1  0
 19 20  1  0
 19 18  1  0
 20 21  1  0
 22 16  1  0
 23 22  1  0
 24 22  2  0
M  END
$$$$
