SDK.pdb
     RDKit          3D

 24 23  0  0  1  0  0  0  0  0999 V2000
   16.2712  -10.9105  -11.1914 O   0  0  0  0  0  0  0  0  0  0  0  0
   15.9956  -10.4754   -9.8938 C   0  0  0  0  0  0  0  0  0  0  0  0
   15.0326   -9.3101   -9.9852 C   0  0  2  0  0  0  0  0  0  0  0  0
   13.9353   -9.6782  -10.8195 N   0  0  0  0  0  0  0  0  0  0  0  0
   15.7074   -8.0575  -10.4500 C   0  0  0  0  0  0  0  0  0  0  0  0
   15.6957   -7.7802  -11.6472 O   0  0  0  0  0  0  0  0  0  0  0  0
   16.3403   -7.2235   -9.5034 N   0  0  0  0  0  0  0  0  0  0  0  0
   17.0862   -6.0350   -9.6972 C   0  0  1  0  0  0  0  0  0  0  0  0
   16.9190   -4.9667   -8.6524 C   0  0  0  0  0  0  0  0  0  0  0  0
   15.4870   -4.6265   -8.5068 C   0  0  0  0  0  0  0  0  0  0  0  0
   14.9433   -4.7045   -7.3862 O   0  0  0  0  0  0  0  0  0  0  0  0
   18.4186   -6.2911  -10.1800 C   0  0  0  0  0  0  0  0  0  0  0  0
   19.2565   -6.8296   -9.3955 O   0  0  0  0  0  0  0  0  0  0  0  0
   14.7165   -4.2169   -9.5993 O   0  0  0  0  0  0  0  0  0  0  0  0
   18.8454   -5.9787  -11.4685 N   0  0  0  0  0  0  0  0  0  0  0  0
   20.2253   -6.3702  -11.9551 C   0  0  1  0  0  0  0  0  0  0  0  0
   20.0162   -7.4300  -12.9561 C   0  0  0  0  0  0  0  0  0  0  0  0
   21.1268   -8.0091  -13.7048 C   0  0  0  0  0  0  0  0  0  0  0  0
   20.8318   -9.0470  -14.7200 C   0  0  0  0  0  0  0  0  0  0  0  0
   22.0734   -9.6431  -15.3470 C   0  0  0  0  0  0  0  0  0  0  0  0
   21.7226  -10.7962  -16.1419 N   0  0  0  0  0  0  0  0  0  0  0  0
   20.8104   -5.1070  -12.3933 C   0  0  0  0  0  0  0  0  0  0  0  0
   22.2120   -4.9784  -12.4586 O   0  0  0  0  0  0  0  0  0  0  0  0
   20.1842   -4.0915  -12.7277 O   0  0  0  0  0  0  0  0  0  0  0  0
  2  1  1  0
  2  3  1  0
  3  4  1  6
  5  3  1  0
  5  6  2  0
  7  5  1  0
  8  7  1  0
  9 10  1  0
  8  9  1  1
 10 11  2  0
 12  8  1  0
 13 12  2  0
 14 10  1  0
 15 12  1  0
 16 15  1  0
 16 17  1  6
 18 17  1  0
 19 20  1  0
 19 18  1  0
 20 21  1  0
 22 16  1  0
 23 22  1  0
 24 22  2  0
M  END
$$$$
