SDK.pdb
     RDKit          3D

 24 23  0  0  1  0  0  0  0  0999 V2000
   20.9094   -6.8284  -15.2418 O   0  0  0  0  0  0  0  0  0  0  0  0
   21.1217   -5.8956  -14.2249 C   0  0  0  0  0  0  0  0  0  0  0  0
   20.9228   -6.5965  -12.8973 C   0  0  2  0  0  0  0  0  0  0  0  0
   21.7704   -7.7429  -12.8452 N   0  0  0  0  0  0  0  0  0  0  0  0
   19.4863   -6.9377  -12.6508 C   0  0  0  0  0  0  0  0  0  0  0  0
   18.6594   -6.0313  -12.5801 O   0  0  0  0  0  0  0  0  0  0  0  0
   19.1145   -8.2915  -12.5064 N   0  0  0  0  0  0  0  0  0  0  0  0
   17.8344   -8.8638  -12.3053 C   0  0  1  0  0  0  0  0  0  0  0  0
   17.6441  -10.2650  -12.8163 C   0  0  0  0  0  0  0  0  0  0  0  0
   16.2095  -10.6230  -12.7780 C   0  0  0  0  0  0  0  0  0  0  0  0
   15.8728  -11.8220  -12.6978 O   0  0  0  0  0  0  0  0  0  0  0  0
   17.2837   -8.5462  -11.0130 C   0  0  0  0  0  0  0  0  0  0  0  0
   17.9118   -8.9182   -9.9763 O   0  0  0  0  0  0  0  0  0  0  0  0
   15.2093   -9.6473  -12.8305 O   0  0  0  0  0  0  0  0  0  0  0  0
   16.0912   -7.8495  -10.8328 N   0  0  0  0  0  0  0  0  0  0  0  0
   15.5532   -7.5591   -9.4470 C   0  0  1  0  0  0  0  0  0  0  0  0
   15.3634   -6.1000   -9.3838 C   0  0  0  0  0  0  0  0  0  0  0  0
   14.7307   -5.4570   -8.2367 C   0  0  0  0  0  0  0  0  0  0  0  0
   14.5837   -3.9828   -8.2433 C   0  0  0  0  0  0  0  0  0  0  0  0
   13.9375   -3.4387   -6.9878 C   0  0  0  0  0  0  0  0  0  0  0  0
   13.9688   -1.9953   -6.9997 N   0  0  0  0  0  0  0  0  0  0  0  0
   14.3772   -8.4174   -9.3442 C   0  0  0  0  0  0  0  0  0  0  0  0
   13.8729   -8.7522   -8.0718 O   0  0  0  0  0  0  0  0  0  0  0  0
   13.7468   -8.9057  -10.2926 O   0  0  0  0  0  0  0  0  0  0  0  0
  2  1  1  0
  2  3  1  0
  3  4  1  6
  5  3  1  0
  5  6  2  0
  7  5  1  0
  8  7  1  0
  9 10  1  0
  8  9  1  1
 10 11  2  0
 12  8  1  0
 13 12  2  0
 14 10  1  0
 15 12  1  0
 16 15  1  0
 16 17  1  6
 18 17  1  0
 19 20  1  0
 19 18  1  0
 20 21  1  0
 22 16  1  0
 23 22  1  0
 24 22  2  0
M  END
$$$$
