SDK.pdb
     RDKit          3D

 24 23  0  0  1  0  0  0  0  0999 V2000
   12.6443   -8.7983   -9.7639 O   0  0  0  0  0  0  0  0  0  0  0  0
   13.5602   -8.3831  -10.7324 C   0  0  0  0  0  0  0  0  0  0  0  0
   14.8514   -9.1434  -10.5124 C   0  0  2  0  0  0  0  0  0  0  0  0
   15.3423   -8.8572   -9.2037 N   0  0  0  0  0  0  0  0  0  0  0  0
   15.8632   -8.8540  -11.5769 C   0  0  0  0  0  0  0  0  0  0  0  0
   16.7382   -8.0189  -11.3598 O   0  0  0  0  0  0  0  0  0  0  0  0
   15.7898   -9.5470  -12.8043 N   0  0  0  0  0  0  0  0  0  0  0  0
   16.5792   -9.4088  -13.9723 C   0  0  1  0  0  0  0  0  0  0  0  0
   16.6421  -10.6069  -14.8786 C   0  0  0  0  0  0  0  0  0  0  0  0
   17.0260  -11.8050  -14.1010 C   0  0  0  0  0  0  0  0  0  0  0  0
   18.0312  -11.7674  -13.3622 O   0  0  0  0  0  0  0  0  0  0  0  0
   16.4333   -8.1152  -14.5883 C   0  0  0  0  0  0  0  0  0  0  0  0
   15.2691   -7.7130  -14.8893 O   0  0  0  0  0  0  0  0  0  0  0  0
   16.2888  -12.9910  -14.1709 O   0  0  0  0  0  0  0  0  0  0  0  0
   17.5044   -7.2729  -14.8765 N   0  0  0  0  0  0  0  0  0  0  0  0
   17.2832   -5.8934  -15.4615 C   0  0  1  0  0  0  0  0  0  0  0  0
   16.8154   -5.0513  -14.3474 C   0  0  0  0  0  0  0  0  0  0  0  0
   16.7439   -3.5982  -14.4607 C   0  0  0  0  0  0  0  0  0  0  0  0
   16.2536   -2.8206  -13.2989 C   0  0  0  0  0  0  0  0  0  0  0  0
   16.0787   -1.3467  -13.5941 C   0  0  0  0  0  0  0  0  0  0  0  0
   15.4682   -0.6841  -12.4659 N   0  0  0  0  0  0  0  0  0  0  0  0
   18.5627   -5.5714  -16.0854 C   0  0  0  0  0  0  0  0  0  0  0  0
   18.6581   -4.4484  -16.9310 O   0  0  0  0  0  0  0  0  0  0  0  0
   19.6193   -6.2040  -15.9486 O   0  0  0  0  0  0  0  0  0  0  0  0
  2  1  1  0
  2  3  1  0
  3  4  1  1
  5  3  1  0
  5  6  2  0
  7  5  1  0
  8  7  1  0
  9 10  1  0
  8  9  1  6
 10 11  2  0
 12  8  1  0
 13 12  2  0
 14 10  1  0
 15 12  1  0
 16 15  1  0
 16 17  1  1
 18 17  1  0
 19 20  1  0
 19 18  1  0
 20 21  1  0
 22 16  1  0
 23 22  1  0
 24 22  2  0
M  END
$$$$
