SDK.pdb
     RDKit          3D

 24 23  0  0  1  0  0  0  0  0999 V2000
   19.6592  -11.0623  -17.9767 O   0  0  0  0  0  0  0  0  0  0  0  0
   20.8446  -10.5265  -18.4836 C   0  0  0  0  0  0  0  0  0  0  0  0
   21.8162  -10.3673  -17.3329 C   0  0  2  0  0  0  0  0  0  0  0  0
   22.0687  -11.6480  -16.7570 N   0  0  0  0  0  0  0  0  0  0  0  0
   21.3346   -9.3729  -16.3231 C   0  0  0  0  0  0  0  0  0  0  0  0
   20.4315   -9.6915  -15.5529 O   0  0  0  0  0  0  0  0  0  0  0  0
   21.9288   -8.0935  -16.2779 N   0  0  0  0  0  0  0  0  0  0  0  0
   21.6423   -6.9898  -15.4375 C   0  0  1  0  0  0  0  0  0  0  0  0
   22.8161   -6.3661  -14.7348 C   0  0  0  0  0  0  0  0  0  0  0  0
   22.3392   -5.4007  -13.7207 C   0  0  0  0  0  0  0  0  0  0  0  0
   22.3786   -4.1773  -13.9642 O   0  0  0  0  0  0  0  0  0  0  0  0
   20.6585   -6.1039  -16.0047 C   0  0  0  0  0  0  0  0  0  0  0  0
   20.8603   -5.6342  -17.1649 O   0  0  0  0  0  0  0  0  0  0  0  0
   21.8414   -5.8230  -12.4842 O   0  0  0  0  0  0  0  0  0  0  0  0
   19.4889   -5.7284  -15.3481 N   0  0  0  0  0  0  0  0  0  0  0  0
   18.4511   -4.8598  -16.0280 C   0  0  1  0  0  0  0  0  0  0  0  0
   17.1682   -5.5667  -15.8751 C   0  0  0  0  0  0  0  0  0  0  0  0
   16.8539   -6.7635  -16.6488 C   0  0  0  0  0  0  0  0  0  0  0  0
   15.5263   -7.3955  -16.4675 C   0  0  0  0  0  0  0  0  0  0  0  0
   15.3035   -8.5918  -17.3670 C   0  0  0  0  0  0  0  0  0  0  0  0
   13.9609   -9.0955  -17.1987 N   0  0  0  0  0  0  0  0  0  0  0  0
   18.6089   -3.5603  -15.3825 C   0  0  0  0  0  0  0  0  0  0  0  0
   18.1843   -2.3969  -16.0544 O   0  0  0  0  0  0  0  0  0  0  0  0
   19.0967   -3.3584  -14.2616 O   0  0  0  0  0  0  0  0  0  0  0  0
  2  1  1  0
  2  3  1  0
  3  4  1  1
  5  3  1  0
  5  6  2  0
  7  5  1  0
  8  7  1  0
  9 10  1  0
  8  9  1  6
 10 11  2  0
 12  8  1  0
 13 12  2  0
 14 10  1  0
 15 12  1  0
 16 15  1  0
 16 17  1  1
 18 17  1  0
 19 20  1  0
 19 18  1  0
 20 21  1  0
 22 16  1  0
 23 22  1  0
 24 22  2  0
M  END
$$$$
