SDK.pdb
     RDKit          3D

 24 23  0  0  1  0  0  0  0  0999 V2000
   23.8933  -11.2178  -18.8195 O   0  0  0  0  0  0  0  0  0  0  0  0
   23.3276   -9.9591  -18.6077 C   0  0  0  0  0  0  0  0  0  0  0  0
   22.2434  -10.1031  -17.5603 C   0  0  2  0  0  0  0  0  0  0  0  0
   21.2392  -10.9906  -18.0497 N   0  0  0  0  0  0  0  0  0  0  0  0
   21.6814   -8.7789  -17.1463 C   0  0  0  0  0  0  0  0  0  0  0  0
   21.0922   -8.0923  -17.9780 O   0  0  0  0  0  0  0  0  0  0  0  0
   21.8401   -8.3499  -15.8111 N   0  0  0  0  0  0  0  0  0  0  0  0
   21.4519   -7.1338  -15.1971 C   0  0  1  0  0  0  0  0  0  0  0  0
   21.3988   -7.1343  -13.6945 C   0  0  0  0  0  0  0  0  0  0  0  0
   20.3939   -8.1141  -13.2279 C   0  0  0  0  0  0  0  0  0  0  0  0
   20.5685   -8.7124  -12.1467 O   0  0  0  0  0  0  0  0  0  0  0  0
   22.0252   -5.9811  -15.8426 C   0  0  0  0  0  0  0  0  0  0  0  0
   23.2836   -5.9289  -15.9883 O   0  0  0  0  0  0  0  0  0  0  0  0
   19.2427   -8.3932  -13.9708 O   0  0  0  0  0  0  0  0  0  0  0  0
   21.2729   -4.9103  -16.3194 N   0  0  0  0  0  0  0  0  0  0  0  0
   21.9254   -3.7577  -17.0542 C   0  0  1  0  0  0  0  0  0  0  0  0
   21.2534   -3.6791  -18.3623 C   0  0  0  0  0  0  0  0  0  0  0  0
   21.5546   -2.6179  -19.3177 C   0  0  0  0  0  0  0  0  0  0  0  0
   20.8414   -2.6107  -20.6162 C   0  0  0  0  0  0  0  0  0  0  0  0
   21.2392   -1.4585  -21.5129 C   0  0  0  0  0  0  0  0  0  0  0  0
   20.7041   -1.6548  -22.8394 N   0  0  0  0  0  0  0  0  0  0  0  0
   21.7850   -2.6345  -16.1329 C   0  0  0  0  0  0  0  0  0  0  0  0
   22.7401   -1.5988  -16.1524 O   0  0  0  0  0  0  0  0  0  0  0  0
   20.8805   -2.4849  -15.2993 O   0  0  0  0  0  0  0  0  0  0  0  0
  2  1  1  0
  2  3  1  0
  3  4  1  6
  5  3  1  0
  5  6  2  0
  7  5  1  0
  8  7  1  0
  9 10  1  0
  8  9  1  1
 10 11  2  0
 12  8  1  0
 13 12  2  0
 14 10  1  0
 15 12  1  0
 16 15  1  0
 16 17  1  6
 18 17  1  0
 19 20  1  0
 19 18  1  0
 20 21  1  0
 22 16  1  0
 23 22  1  0
 24 22  2  0
M  END
$$$$
