SDK.pdb
     RDKit          3D

 24 23  0  0  1  0  0  0  0  0999 V2000
   16.2531  -12.9357  -16.6920 O   0  0  0  0  0  0  0  0  0  0  0  0
   16.7268  -11.6328  -16.8573 C   0  0  0  0  0  0  0  0  0  0  0  0
   17.4813  -11.2460  -15.6025 C   0  0  2  0  0  0  0  0  0  0  0  0
   16.6272  -11.4226  -14.4734 N   0  0  0  0  0  0  0  0  0  0  0  0
   18.0376   -9.8588  -15.6854 C   0  0  0  0  0  0  0  0  0  0  0  0
   18.9145   -9.6139  -16.5109 O   0  0  0  0  0  0  0  0  0  0  0  0
   17.5420   -8.8643  -14.8151 N   0  0  0  0  0  0  0  0  0  0  0  0
   17.9024   -7.4994  -14.6989 C   0  0  1  0  0  0  0  0  0  0  0  0
   16.9219   -6.6105  -13.9853 C   0  0  0  0  0  0  0  0  0  0  0  0
   15.5742   -6.7775  -14.5714 C   0  0  0  0  0  0  0  0  0  0  0  0
   14.6279   -7.1536  -13.8499 O   0  0  0  0  0  0  0  0  0  0  0  0
   19.3006   -7.3201  -14.4034 C   0  0  0  0  0  0  0  0  0  0  0  0
   19.8376   -8.0650  -13.5292 O   0  0  0  0  0  0  0  0  0  0  0  0
   15.3271   -6.5246  -15.9242 O   0  0  0  0  0  0  0  0  0  0  0  0
   20.1045   -6.3681  -15.0257 N   0  0  0  0  0  0  0  0  0  0  0  0
   21.6015   -6.3345  -14.7976 C   0  0  1  0  0  0  0  0  0  0  0  0
   22.2172   -6.4877  -16.1267 C   0  0  0  0  0  0  0  0  0  0  0  0
   23.6589   -6.3756  -16.3227 C   0  0  0  0  0  0  0  0  0  0  0  0
   24.1931   -6.4392  -17.7030 C   0  0  0  0  0  0  0  0  0  0  0  0
   25.7047   -6.4811  -17.7602 C   0  0  0  0  0  0  0  0  0  0  0  0
   26.1417   -6.7970  -19.0995 N   0  0  0  0  0  0  0  0  0  0  0  0
   21.8146   -5.0853  -14.0737 C   0  0  0  0  0  0  0  0  0  0  0  0
   20.8037   -4.1037  -14.0733 O   0  0  0  0  0  0  0  0  0  0  0  0
   22.8297   -4.7790  -13.4326 O   0  0  0  0  0  0  0  0  0  0  0  0
  2  1  1  0
  2  3  1  0
  3  4  1  1
  5  3  1  0
  5  6  2  0
  7  5  1  0
  8  7  1  0
  9 10  1  0
  8  9  1  1
 10 11  2  0
 12  8  1  0
 13 12  2  0
 14 10  1  0
 15 12  1  0
 16 15  1  0
 16 17  1  6
 18 17  1  0
 19 20  1  0
 19 18  1  0
 20 21  1  0
 22 16  1  0
 23 22  1  0
 24 22  2  0
M  END
$$$$
