FSW.pdb
     RDKit          3D

 32 34  0  0  1  0  0  0  0  0999 V2000
   38.8397  -25.9985    4.5445 N   0  0  0  0  0  0  0  0  0  0  0  0
   38.7168  -25.2507    5.7928 C   0  0  1  0  0  0  0  0  0  0  0  0
   38.8598  -23.7848    5.3726 C   0  0  0  0  0  0  0  0  0  0  0  0
   40.2643  -23.3784    5.2841 C   0  0  0  0  0  0  0  0  0  0  0  0
   40.9374  -23.3725    4.0984 C   0  0  0  0  0  0  0  0  0  0  0  0
   42.2594  -22.9941    3.9657 C   0  0  0  0  0  0  0  0  0  0  0  0
   42.9285  -22.6013    5.1098 C   0  0  0  0  0  0  0  0  0  0  0  0
   42.2739  -22.5976    6.3196 C   0  0  0  0  0  0  0  0  0  0  0  0
   40.9456  -22.9830    6.4187 C   0  0  0  0  0  0  0  0  0  0  0  0
   37.3777  -25.4216    6.4149 C   0  0  0  0  0  0  0  0  0  0  0  0
   36.2957  -25.4317    5.7233 O   0  0  0  0  0  0  0  0  0  0  0  0
   37.1432  -25.7966   10.5236 O   0  0  0  0  0  0  0  0  0  0  0  0
   36.1468  -26.4440    9.8381 C   0  0  0  0  0  0  0  0  0  0  0  0
   35.9607  -25.7569    8.4884 C   0  0  2  0  0  0  0  0  0  0  0  0
   37.2039  -25.5876    7.8096 N   0  0  0  0  0  0  0  0  0  0  0  0
   35.2283  -24.4778    8.6686 C   0  0  0  0  0  0  0  0  0  0  0  0
   35.8922  -23.4306    8.5705 O   0  0  0  0  0  0  0  0  0  0  0  0
   33.8502  -24.3491    8.9426 N   0  0  0  0  0  0  0  0  0  0  0  0
   33.1958  -23.0850    9.2507 C   0  0  1  0  0  0  0  0  0  0  0  0
   32.1535  -22.7039    8.2955 C   0  0  0  0  0  0  0  0  0  0  0  0
   32.7204  -22.2862    6.9897 C   0  0  0  0  0  0  0  0  0  0  0  0
   33.2342  -23.0899    5.9908 C   0  0  0  0  0  0  0  0  0  0  0  0
   33.6862  -22.3392    4.9757 N   0  0  0  0  0  0  0  0  0  0  0  0
   33.4916  -21.0364    5.2575 C   0  0  0  0  0  0  0  0  0  0  0  0
   33.7781  -19.9076    4.5218 C   0  0  0  0  0  0  0  0  0  0  0  0
   33.4361  -18.6657    5.0819 C   0  0  0  0  0  0  0  0  0  0  0  0
   32.8354  -18.6007    6.3229 C   0  0  0  0  0  0  0  0  0  0  0  0
   32.5764  -19.7586    7.0069 C   0  0  0  0  0  0  0  0  0  0  0  0
   32.8882  -20.9849    6.5118 C   0  0  0  0  0  0  0  0  0  0  0  0
   32.8870  -22.9360   10.6646 C   0  0  0  0  0  0  0  0  0  0  0  0
   32.9990  -23.9092   11.4369 O   0  0  0  0  0  0  0  0  0  0  0  0
   32.4690  -21.7252   11.1831 O   0  0  0  0  0  0  0  0  0  0  0  0
  2  1  1  6
  3  2  1  0
  4  3  1  0
  5  4  2  0
  6  5  1  0
  7  8  1  0
  7  6  2  0
  8  9  2  0
  9  4  1  0
 10 11  2  0
 10  2  1  0
 12 13  1  0
 14 13  1  1
 14 15  1  0
 15 10  1  0
 16 14  1  0
 17 16  2  0
 18 16  1  0
 19 20  1  6
 19 18  1  0
 21 20  1  0
 22 21  2  0
 23 24  1  0
 23 22  1  0
 24 29  2  0
 25 24  1  0
 25 26  2  0
 26 27  1  0
 27 28  2  0
 29 21  1  0
 29 28  1  0
 30 32  1  0
 30 19  1  0
 31 30  2  0
M  END
$$$$
