FSW.pdb
     RDKit          3D

 32 34  0  0  1  0  0  0  0  0999 V2000
   25.5213  -19.5609  -19.6067 N   0  0  0  0  0  0  0  0  0  0  0  0
   25.8644  -20.2713  -18.3779 C   0  0  1  0  0  0  0  0  0  0  0  0
   27.3867  -20.1377  -18.2749 C   0  0  0  0  0  0  0  0  0  0  0  0
   28.0740  -20.9548  -19.2777 C   0  0  0  0  0  0  0  0  0  0  0  0
   28.6046  -20.4088  -20.4087 C   0  0  0  0  0  0  0  0  0  0  0  0
   29.2639  -21.1379  -21.3793 C   0  0  0  0  0  0  0  0  0  0  0  0
   29.3854  -22.5006  -21.1811 C   0  0  0  0  0  0  0  0  0  0  0  0
   28.8595  -23.0782  -20.0489 C   0  0  0  0  0  0  0  0  0  0  0  0
   28.2036  -22.3176  -19.0929 C   0  0  0  0  0  0  0  0  0  0  0  0
   25.2650  -19.6304  -17.1782 C   0  0  0  0  0  0  0  0  0  0  0  0
   25.2442  -18.3563  -17.0186 O   0  0  0  0  0  0  0  0  0  0  0  0
   21.8250  -19.8666  -15.9766 O   0  0  0  0  0  0  0  0  0  0  0  0
   22.7646  -19.0211  -15.4435 C   0  0  0  0  0  0  0  0  0  0  0  0
   23.9716  -19.8481  -15.0104 C   0  0  2  0  0  0  0  0  0  0  0  0
   24.6743  -20.3791  -16.1325 N   0  0  0  0  0  0  0  0  0  0  0  0
   23.5468  -20.8994  -14.0515 C   0  0  0  0  0  0  0  0  0  0  0  0
   22.5631  -21.5895  -14.3726 O   0  0  0  0  0  0  0  0  0  0  0  0
   24.1592  -21.1799  -12.8117 N   0  0  0  0  0  0  0  0  0  0  0  0
   23.5782  -20.8381  -11.5207 C   0  0  1  0  0  0  0  0  0  0  0  0
   24.4412  -20.0071  -10.6788 C   0  0  0  0  0  0  0  0  0  0  0  0
   25.8793  -20.3009  -10.8941 C   0  0  0  0  0  0  0  0  0  0  0  0
   26.6705  -21.2105  -10.2200 C   0  0  0  0  0  0  0  0  0  0  0  0
   27.9301  -21.1605  -10.6774 N   0  0  0  0  0  0  0  0  0  0  0  0
   28.0189  -20.2357  -11.6526 C   0  0  0  0  0  0  0  0  0  0  0  0
   29.0930  -19.8427  -12.4202 C   0  0  0  0  0  0  0  0  0  0  0  0
   28.8686  -18.8491  -13.3873 C   0  0  0  0  0  0  0  0  0  0  0  0
   27.6119  -18.3010  -13.5473 C   0  0  0  0  0  0  0  0  0  0  0  0
   26.5832  -18.7327  -12.7529 C   0  0  0  0  0  0  0  0  0  0  0  0
   26.7463  -19.6893  -11.8018 C   0  0  0  0  0  0  0  0  0  0  0  0
   22.1764  -20.4595  -11.6120 C   0  0  0  0  0  0  0  0  0  0  0  0
   21.8559  -19.2572  -11.6990 O   0  0  0  0  0  0  0  0  0  0  0  0
   21.1751  -21.4119  -11.6074 O   0  0  0  0  0  0  0  0  0  0  0  0
  2  1  1  6
  3  2  1  0
  4  3  1  0
  5  4  2  0
  6  5  1  0
  7  8  1  0
  7  6  2  0
  8  9  2  0
  9  4  1  0
 10 11  2  0
 10  2  1  0
 12 13  1  0
 14 13  1  6
 14 15  1  0
 15 10  1  0
 16 14  1  0
 17 16  2  0
 18 16  1  0
 19 20  1  6
 19 18  1  0
 21 20  1  0
 22 21  2  0
 23 24  1  0
 23 22  1  0
 24 29  2  0
 25 24  1  0
 25 26  2  0
 26 27  1  0
 27 28  2  0
 29 21  1  0
 29 28  1  0
 30 32  1  0
 30 19  1  0
 31 30  2  0
M  END
$$$$
