FSW.pdb
     RDKit          3D

 32 34  0  0  1  0  0  0  0  0999 V2000
   26.7625  -20.0000  -15.9581 N   0  0  0  0  0  0  0  0  0  0  0  0
   27.0696  -20.1668  -14.5402 C   0  0  1  0  0  0  0  0  0  0  0  0
   28.2423  -19.2135  -14.2914 C   0  0  0  0  0  0  0  0  0  0  0  0
   28.0696  -17.9420  -14.9978 C   0  0  0  0  0  0  0  0  0  0  0  0
   28.4881  -17.7720  -16.2842 C   0  0  0  0  0  0  0  0  0  0  0  0
   28.3435  -16.5941  -16.9913 C   0  0  0  0  0  0  0  0  0  0  0  0
   27.7382  -15.5324  -16.3454 C   0  0  0  0  0  0  0  0  0  0  0  0
   27.3063  -15.6758  -15.0473 C   0  0  0  0  0  0  0  0  0  0  0  0
   27.4662  -16.8725  -14.3653 C   0  0  0  0  0  0  0  0  0  0  0  0
   25.9403  -19.7420  -13.6721 C   0  0  0  0  0  0  0  0  0  0  0  0
   25.3558  -18.6072  -13.8122 O   0  0  0  0  0  0  0  0  0  0  0  0
   22.9726  -21.6493  -12.8608 O   0  0  0  0  0  0  0  0  0  0  0  0
   23.0194  -20.4094  -12.2758 C   0  0  0  0  0  0  0  0  0  0  0  0
   24.4163  -20.1970  -11.6997 C   0  0  2  0  0  0  0  0  0  0  0  0
   25.4307  -20.5592  -12.6350 N   0  0  0  0  0  0  0  0  0  0  0  0
   24.5457  -20.9174  -10.4077 C   0  0  0  0  0  0  0  0  0  0  0  0
   24.9045  -22.1071  -10.4603 O   0  0  0  0  0  0  0  0  0  0  0  0
   24.2952  -20.3711   -9.1311 N   0  0  0  0  0  0  0  0  0  0  0  0
   24.1570  -21.1654   -7.9183 C   0  0  1  0  0  0  0  0  0  0  0  0
   24.8667  -20.6166   -6.7610 C   0  0  0  0  0  0  0  0  0  0  0  0
   26.3303  -20.5384   -6.9909 C   0  0  0  0  0  0  0  0  0  0  0  0
   27.0333  -20.9064   -8.1214 C   0  0  0  0  0  0  0  0  0  0  0  0
   28.3479  -20.7201   -7.9331 N   0  0  0  0  0  0  0  0  0  0  0  0
   28.5609  -20.2306   -6.6965 C   0  0  0  0  0  0  0  0  0  0  0  0
   29.7309  -19.8735   -6.0630 C   0  0  0  0  0  0  0  0  0  0  0  0
   29.6313  -19.3681   -4.7562 C   0  0  0  0  0  0  0  0  0  0  0  0
   28.3986  -19.2409   -4.1484 C   0  0  0  0  0  0  0  0  0  0  0  0
   27.2705  -19.6138   -4.8296 C   0  0  0  0  0  0  0  0  0  0  0  0
   27.3109  -20.1098   -6.0940 C   0  0  0  0  0  0  0  0  0  0  0  0
   22.7980  -21.6372   -7.7010 C   0  0  0  0  0  0  0  0  0  0  0  0
   21.8767  -21.2640   -8.4545 O   0  0  0  0  0  0  0  0  0  0  0  0
   22.4968  -22.5035   -6.6674 O   0  0  0  0  0  0  0  0  0  0  0  0
  2  1  1  6
  3  2  1  0
  4  3  1  0
  5  4  2  0
  6  5  1  0
  7  8  1  0
  7  6  2  0
  8  9  2  0
  9  4  1  0
 10 11  2  0
 10  2  1  0
 12 13  1  0
 14 13  1  6
 14 15  1  0
 15 10  1  0
 16 14  1  0
 17 16  2  0
 18 16  1  0
 19 20  1  1
 19 18  1  0
 21 20  1  0
 22 21  2  0
 23 24  1  0
 23 22  1  0
 24 29  2  0
 25 24  1  0
 25 26  2  0
 26 27  1  0
 27 28  2  0
 29 21  1  0
 29 28  1  0
 30 32  1  0
 30 19  1  0
 31 30  2  0
M  END
$$$$
