FSW.pdb
     RDKit          3D

 32 34  0  0  1  0  0  0  0  0999 V2000
   19.4540  -12.8061  -16.9084 N   0  0  0  0  0  0  0  0  0  0  0  0
   20.2787  -11.6037  -16.9881 C   0  0  1  0  0  0  0  0  0  0  0  0
   20.3493  -11.2906  -18.4858 C   0  0  0  0  0  0  0  0  0  0  0  0
   21.0773  -12.3250  -19.2245 C   0  0  0  0  0  0  0  0  0  0  0  0
   22.4198  -12.5070  -19.0717 C   0  0  0  0  0  0  0  0  0  0  0  0
   23.1473  -13.4705  -19.7431 C   0  0  0  0  0  0  0  0  0  0  0  0
   22.4625  -14.2915  -20.6194 C   0  0  0  0  0  0  0  0  0  0  0  0
   21.1076  -14.1302  -20.7932 C   0  0  0  0  0  0  0  0  0  0  0  0
   20.4063  -13.1531  -20.1031 C   0  0  0  0  0  0  0  0  0  0  0  0
   19.6429  -10.4460  -16.3064 C   0  0  0  0  0  0  0  0  0  0  0  0
   18.3868  -10.1972  -16.4038 O   0  0  0  0  0  0  0  0  0  0  0  0
   21.9291   -8.0214  -13.7904 O   0  0  0  0  0  0  0  0  0  0  0  0
   20.5849   -8.1127  -13.5323 C   0  0  0  0  0  0  0  0  0  0  0  0
   19.8562   -8.3876  -14.8444 C   0  0  2  0  0  0  0  0  0  0  0  0
   20.3765   -9.5417  -15.5021 N   0  0  0  0  0  0  0  0  0  0  0  0
   19.8869   -7.1768  -15.7035 C   0  0  0  0  0  0  0  0  0  0  0  0
   20.2942   -7.3244  -16.8695 O   0  0  0  0  0  0  0  0  0  0  0  0
   19.4978   -5.8784  -15.3116 N   0  0  0  0  0  0  0  0  0  0  0  0
   19.5301   -4.7183  -16.1914 C   0  0  1  0  0  0  0  0  0  0  0  0
   19.0734   -4.9907  -17.5557 C   0  0  0  0  0  0  0  0  0  0  0  0
   19.1696   -3.7924  -18.4250 C   0  0  0  0  0  0  0  0  0  0  0  0
   20.2548   -2.9563  -18.6017 C   0  0  0  0  0  0  0  0  0  0  0  0
   19.9418   -1.9587  -19.4414 N   0  0  0  0  0  0  0  0  0  0  0  0
   18.6639   -2.0941  -19.8453 C   0  0  0  0  0  0  0  0  0  0  0  0
   17.9105   -1.3284  -20.7077 C   0  0  0  0  0  0  0  0  0  0  0  0
   16.5892   -1.7382  -20.9512 C   0  0  0  0  0  0  0  0  0  0  0  0
   16.0845   -2.8686  -20.3406 C   0  0  0  0  0  0  0  0  0  0  0  0
   16.8828   -3.5885  -19.4920 C   0  0  0  0  0  0  0  0  0  0  0  0
   18.1664   -3.2353  -19.2206 C   0  0  0  0  0  0  0  0  0  0  0  0
   19.0324   -3.5089  -15.5538 C   0  0  0  0  0  0  0  0  0  0  0  0
   17.9686   -3.5354  -14.9031 O   0  0  0  0  0  0  0  0  0  0  0  0
   19.7194   -2.3138  -15.6493 O   0  0  0  0  0  0  0  0  0  0  0  0
  2  1  1  6
  3  2  1  0
  4  3  1  0
  5  4  2  0
  6  5  1  0
  7  8  1  0
  7  6  2  0
  8  9  2  0
  9  4  1  0
 10 11  2  0
 10  2  1  0
 12 13  1  0
 14 13  1  1
 14 15  1  0
 15 10  1  0
 16 14  1  0
 17 16  2  0
 18 16  1  0
 19 20  1  6
 19 18  1  0
 21 20  1  0
 22 21  2  0
 23 24  1  0
 23 22  1  0
 24 29  2  0
 25 24  1  0
 25 26  2  0
 26 27  1  0
 27 28  2  0
 29 21  1  0
 29 28  1  0
 30 32  1  0
 30 19  1  0
 31 30  2  0
M  END
$$$$
