FSW.pdb
     RDKit          3D

 32 34  0  0  1  0  0  0  0  0999 V2000
   24.9876  -20.7549  -17.3876 N   0  0  0  0  0  0  0  0  0  0  0  0
   25.1766  -19.9399  -16.1907 C   0  0  1  0  0  0  0  0  0  0  0  0
   23.7545  -19.5969  -15.7369 C   0  0  0  0  0  0  0  0  0  0  0  0
   23.1194  -18.6219  -16.6266 C   0  0  0  0  0  0  0  0  0  0  0  0
   22.2033  -18.9951  -17.5649 C   0  0  0  0  0  0  0  0  0  0  0  0
   21.5761  -18.1120  -18.4223 C   0  0  0  0  0  0  0  0  0  0  0  0
   21.9060  -16.7741  -18.3134 C   0  0  0  0  0  0  0  0  0  0  0  0
   22.8272  -16.3693  -17.3755 C   0  0  0  0  0  0  0  0  0  0  0  0
   23.4387  -17.2816  -16.5290 C   0  0  0  0  0  0  0  0  0  0  0  0
   25.8366  -20.7005  -15.0974 C   0  0  0  0  0  0  0  0  0  0  0  0
   25.6954  -21.9697  -14.9619 O   0  0  0  0  0  0  0  0  0  0  0  0
   28.9691  -19.0773  -13.0254 O   0  0  0  0  0  0  0  0  0  0  0  0
   28.7787  -20.4342  -12.9592 C   0  0  0  0  0  0  0  0  0  0  0  0
   27.2804  -20.7174  -13.0154 C   0  0  2  0  0  0  0  0  0  0  0  0
   26.6670  -20.0796  -14.1343 N   0  0  0  0  0  0  0  0  0  0  0  0
   26.6463  -20.3443  -11.7255 C   0  0  0  0  0  0  0  0  0  0  0  0
   26.1784  -19.1950  -11.6402 O   0  0  0  0  0  0  0  0  0  0  0  0
   26.5318  -21.1772  -10.5924 N   0  0  0  0  0  0  0  0  0  0  0  0
   25.7675  -20.8318   -9.4018 C   0  0  1  0  0  0  0  0  0  0  0  0
   26.4207  -19.8463   -8.5380 C   0  0  0  0  0  0  0  0  0  0  0  0
   27.6642  -20.3776   -7.9279 C   0  0  0  0  0  0  0  0  0  0  0  0
   28.5335  -21.3150   -8.4508 C   0  0  0  0  0  0  0  0  0  0  0  0
   29.5258  -21.5642   -7.5839 N   0  0  0  0  0  0  0  0  0  0  0  0
   29.3555  -20.8157   -6.4770 C   0  0  0  0  0  0  0  0  0  0  0  0
   30.1172  -20.7206   -5.3332 C   0  0  0  0  0  0  0  0  0  0  0  0
   29.6872  -19.8233   -4.3417 C   0  0  0  0  0  0  0  0  0  0  0  0
   28.5429  -19.0739   -4.5265 C   0  0  0  0  0  0  0  0  0  0  0  0
   27.8268  -19.2132   -5.6856 C   0  0  0  0  0  0  0  0  0  0  0  0
   28.1975  -20.0674   -6.6752 C   0  0  0  0  0  0  0  0  0  0  0  0
   24.3507  -20.6416   -9.6727 C   0  0  0  0  0  0  0  0  0  0  0  0
   23.5778  -20.2970   -8.7563 O   0  0  0  0  0  0  0  0  0  0  0  0
   23.8312  -20.8330  -10.9388 O   0  0  0  0  0  0  0  0  0  0  0  0
  2  1  1  6
  3  2  1  0
  4  3  1  0
  5  4  2  0
  6  5  1  0
  7  8  1  0
  7  6  2  0
  8  9  2  0
  9  4  1  0
 10 11  2  0
 10  2  1  0
 12 13  1  0
 14 13  1  1
 14 15  1  0
 15 10  1  0
 16 14  1  0
 17 16  2  0
 18 16  1  0
 19 20  1  6
 19 18  1  0
 21 20  1  0
 22 21  2  0
 23 24  1  0
 23 22  1  0
 24 29  2  0
 25 24  1  0
 25 26  2  0
 26 27  1  0
 27 28  2  0
 29 21  1  0
 29 28  1  0
 30 32  1  0
 30 19  1  0
 31 30  2  0
M  END
$$$$
