FSW.pdb
     RDKit          3D

 32 34  0  0  1  0  0  0  0  0999 V2000
   26.3204  -21.9524  -18.3886 N   0  0  0  0  0  0  0  0  0  0  0  0
   25.6966  -21.7452  -17.0846 C   0  0  1  0  0  0  0  0  0  0  0  0
   24.8629  -23.0098  -16.8576 C   0  0  0  0  0  0  0  0  0  0  0  0
   23.6241  -22.9928  -17.6391 C   0  0  0  0  0  0  0  0  0  0  0  0
   23.4560  -23.7835  -18.7370 C   0  0  0  0  0  0  0  0  0  0  0  0
   22.3057  -23.8041  -19.5018 C   0  0  0  0  0  0  0  0  0  0  0  0
   21.2719  -22.9689  -19.1219 C   0  0  0  0  0  0  0  0  0  0  0  0
   21.4142  -22.1603  -18.0182 C   0  0  0  0  0  0  0  0  0  0  0  0
   22.5824  -22.1637  -17.2712 C   0  0  0  0  0  0  0  0  0  0  0  0
   26.7025  -21.6563  -15.9939 C   0  0  0  0  0  0  0  0  0  0  0  0
   27.9438  -21.9272  -16.1810 O   0  0  0  0  0  0  0  0  0  0  0  0
   26.8618  -18.5666  -13.9508 O   0  0  0  0  0  0  0  0  0  0  0  0
   27.8742  -19.4923  -13.9440 C   0  0  0  0  0  0  0  0  0  0  0  0
   27.2744  -20.8654  -13.6557 C   0  0  2  0  0  0  0  0  0  0  0  0
   26.3622  -21.2649  -14.6772 N   0  0  0  0  0  0  0  0  0  0  0  0
   26.6599  -20.8754  -12.3039 C   0  0  0  0  0  0  0  0  0  0  0  0
   25.4842  -20.4788  -12.2173 O   0  0  0  0  0  0  0  0  0  0  0  0
   27.2934  -21.2920  -11.1140 N   0  0  0  0  0  0  0  0  0  0  0  0
   26.7586  -21.0542   -9.7804 C   0  0  1  0  0  0  0  0  0  0  0  0
   27.7780  -20.9886   -8.7313 C   0  0  0  0  0  0  0  0  0  0  0  0
   27.2090  -20.5682   -7.4273 C   0  0  0  0  0  0  0  0  0  0  0  0
   25.8805  -20.5378   -7.0505 C   0  0  0  0  0  0  0  0  0  0  0  0
   25.7615  -20.0620   -5.8025 N   0  0  0  0  0  0  0  0  0  0  0  0
   26.9818  -19.7664   -5.3148 C   0  0  0  0  0  0  0  0  0  0  0  0
   27.3602  -19.2693   -4.0870 C   0  0  0  0  0  0  0  0  0  0  0  0
   28.7334  -19.0788   -3.8610 C   0  0  0  0  0  0  0  0  0  0  0  0
   29.6524  -19.3854   -4.8442 C   0  0  0  0  0  0  0  0  0  0  0  0
   29.2144  -19.8761   -6.0456 C   0  0  0  0  0  0  0  0  0  0  0  0
   27.8983  -20.0775   -6.3165 C   0  0  0  0  0  0  0  0  0  0  0  0
   25.7183  -20.0373   -9.7596 C   0  0  0  0  0  0  0  0  0  0  0  0
   25.9800  -18.8654  -10.0971 O   0  0  0  0  0  0  0  0  0  0  0  0
   24.4271  -20.3410   -9.3722 O   0  0  0  0  0  0  0  0  0  0  0  0
  2  1  1  6
  3  2  1  0
  4  3  1  0
  5  4  2  0
  6  5  1  0
  7  8  1  0
  7  6  2  0
  8  9  2  0
  9  4  1  0
 10 11  2  0
 10  2  1  0
 12 13  1  0
 14 13  1  6
 14 15  1  0
 15 10  1  0
 16 14  1  0
 17 16  2  0
 18 16  1  0
 19 20  1  1
 19 18  1  0
 21 20  1  0
 22 21  2  0
 23 24  1  0
 23 22  1  0
 24 29  2  0
 25 24  1  0
 25 26  2  0
 26 27  1  0
 27 28  2  0
 29 21  1  0
 29 28  1  0
 30 32  1  0
 30 19  1  0
 31 30  2  0
M  END
$$$$
