FSW.pdb
     RDKit          3D

 32 34  0  0  1  0  0  0  0  0999 V2000
   20.3889  -18.0501  -15.0206 N   0  0  0  0  0  0  0  0  0  0  0  0
   21.8253  -18.3059  -15.0830 C   0  0  1  0  0  0  0  0  0  0  0  0
   22.4452  -16.9285  -15.3365 C   0  0  0  0  0  0  0  0  0  0  0  0
   22.2833  -16.5067  -16.7299 C   0  0  0  0  0  0  0  0  0  0  0  0
   22.8423  -17.2021  -17.7609 C   0  0  0  0  0  0  0  0  0  0  0  0
   22.7137  -16.8451  -19.0892 C   0  0  0  0  0  0  0  0  0  0  0  0
   21.9731  -15.7140  -19.3771 C   0  0  0  0  0  0  0  0  0  0  0  0
   21.3977  -14.9932  -18.3565 C   0  0  0  0  0  0  0  0  0  0  0  0
   21.5456  -15.3789  -17.0328 C   0  0  0  0  0  0  0  0  0  0  0  0
   22.3564  -18.8181  -13.7926 C   0  0  0  0  0  0  0  0  0  0  0  0
   22.2291  -18.1691  -12.6919 O   0  0  0  0  0  0  0  0  0  0  0  0
   24.2478  -22.5191  -13.7153 O   0  0  0  0  0  0  0  0  0  0  0  0
   23.6044  -22.1468  -12.5623 C   0  0  0  0  0  0  0  0  0  0  0  0
   23.5723  -20.6227  -12.4949 C   0  0  2  0  0  0  0  0  0  0  0  0
   23.0352  -20.0555  -13.6885 N   0  0  0  0  0  0  0  0  0  0  0  0
   24.9251  -20.1020  -12.1723 C   0  0  0  0  0  0  0  0  0  0  0  0
   25.5404  -19.5284  -13.0885 O   0  0  0  0  0  0  0  0  0  0  0  0
   25.5705  -20.2039  -10.9217 N   0  0  0  0  0  0  0  0  0  0  0  0
   26.9931  -19.9680  -10.7180 C   0  0  1  0  0  0  0  0  0  0  0  0
   27.3034  -19.1907   -9.5165 C   0  0  0  0  0  0  0  0  0  0  0  0
   26.9754  -19.9314   -8.2737 C   0  0  0  0  0  0  0  0  0  0  0  0
   26.0153  -20.9083   -8.0955 C   0  0  0  0  0  0  0  0  0  0  0  0
   25.9954  -21.3136   -6.8174 N   0  0  0  0  0  0  0  0  0  0  0  0
   26.9234  -20.6353   -6.1152 C   0  0  0  0  0  0  0  0  0  0  0  0
   27.2775  -20.7152   -4.7864 C   0  0  0  0  0  0  0  0  0  0  0  0
   28.3133  -19.8776   -4.3409 C   0  0  0  0  0  0  0  0  0  0  0  0
   28.9403  -19.0152   -5.2174 C   0  0  0  0  0  0  0  0  0  0  0  0
   28.5429  -18.9806   -6.5276 C   0  0  0  0  0  0  0  0  0  0  0  0
   27.5459  -19.7679   -7.0098 C   0  0  0  0  0  0  0  0  0  0  0  0
   27.8059  -21.1473  -10.9739 C   0  0  0  0  0  0  0  0  0  0  0  0
   27.2624  -22.2517  -11.1760 O   0  0  0  0  0  0  0  0  0  0  0  0
   29.1855  -21.0744  -11.0021 O   0  0  0  0  0  0  0  0  0  0  0  0
  2  1  1  1
  3  2  1  0
  4  3  1  0
  5  4  2  0
  6  5  1  0
  7  8  1  0
  7  6  2  0
  8  9  2  0
  9  4  1  0
 10 11  2  0
 10  2  1  0
 12 13  1  0
 14 13  1  6
 14 15  1  0
 15 10  1  0
 16 14  1  0
 17 16  2  0
 18 16  1  0
 19 20  1  1
 19 18  1  0
 21 20  1  0
 22 21  2  0
 23 24  1  0
 23 22  1  0
 24 29  2  0
 25 24  1  0
 25 26  2  0
 26 27  1  0
 27 28  2  0
 29 21  1  0
 29 28  1  0
 30 32  1  0
 30 19  1  0
 31 30  2  0
M  END
$$$$
