FSW.pdb
     RDKit          3D

 32 34  0  0  1  0  0  0  0  0999 V2000
   26.6477  -18.5926  -16.3875 N   0  0  0  0  0  0  0  0  0  0  0  0
   26.9859  -18.5641  -14.9672 C   0  0  1  0  0  0  0  0  0  0  0  0
   26.3949  -17.2441  -14.4629 C   0  0  0  0  0  0  0  0  0  0  0  0
   26.6689  -16.1381  -15.3835 C   0  0  0  0  0  0  0  0  0  0  0  0
   25.6734  -15.3404  -15.8649 C   0  0  0  0  0  0  0  0  0  0  0  0
   25.8839  -14.2848  -16.7308 C   0  0  0  0  0  0  0  0  0  0  0  0
   27.1844  -14.0332  -17.1258 C   0  0  0  0  0  0  0  0  0  0  0  0
   28.2085  -14.8221  -16.6555 C   0  0  0  0  0  0  0  0  0  0  0  0
   27.9635  -15.8744  -15.7864 C   0  0  0  0  0  0  0  0  0  0  0  0
   26.3386  -19.6729  -14.2182 C   0  0  0  0  0  0  0  0  0  0  0  0
   25.4342  -20.4190  -14.7419 O   0  0  0  0  0  0  0  0  0  0  0  0
   29.3033  -21.4686  -12.4995 O   0  0  0  0  0  0  0  0  0  0  0  0
   28.1460  -21.9244  -13.0781 C   0  0  0  0  0  0  0  0  0  0  0  0
   26.9605  -21.2828  -12.3631 C   0  0  2  0  0  0  0  0  0  0  0  0
   26.6764  -19.9837  -12.8795 N   0  0  0  0  0  0  0  0  0  0  0  0
   27.1967  -21.2768  -10.8971 C   0  0  0  0  0  0  0  0  0  0  0  0
   28.2739  -20.7961  -10.5027 O   0  0  0  0  0  0  0  0  0  0  0  0
   26.3089  -21.7697   -9.9175 N   0  0  0  0  0  0  0  0  0  0  0  0
   26.0386  -21.1003   -8.6527 C   0  0  1  0  0  0  0  0  0  0  0  0
   26.0752  -19.6385   -8.7310 C   0  0  0  0  0  0  0  0  0  0  0  0
   26.9696  -19.0479   -7.7052 C   0  0  0  0  0  0  0  0  0  0  0  0
   27.3969  -17.7384   -7.6035 C   0  0  0  0  0  0  0  0  0  0  0  0
   28.2285  -17.6000   -6.5607 N   0  0  0  0  0  0  0  0  0  0  0  0
   28.3796  -18.7880   -5.9441 C   0  0  0  0  0  0  0  0  0  0  0  0
   29.1167  -19.1340   -4.8330 C   0  0  0  0  0  0  0  0  0  0  0  0
   29.0605  -20.4722   -4.4099 C   0  0  0  0  0  0  0  0  0  0  0  0
   28.2890  -21.3896   -5.0943 C   0  0  0  0  0  0  0  0  0  0  0  0
   27.5785  -20.9851   -6.1931 C   0  0  0  0  0  0  0  0  0  0  0  0
   27.5991  -19.7040   -6.6455 C   0  0  0  0  0  0  0  0  0  0  0  0
   24.9335  -21.6982   -7.9192 C   0  0  0  0  0  0  0  0  0  0  0  0
   23.8404  -21.8984   -8.4856 O   0  0  0  0  0  0  0  0  0  0  0  0
   25.0660  -22.0584   -6.5917 O   0  0  0  0  0  0  0  0  0  0  0  0
  2  1  1  6
  3  2  1  0
  4  3  1  0
  5  4  2  0
  6  5  1  0
  7  8  1  0
  7  6  2  0
  8  9  2  0
  9  4  1  0
 10 11  2  0
 10  2  1  0
 12 13  1  0
 14 13  1  6
 14 15  1  0
 15 10  1  0
 16 14  1  0
 17 16  2  0
 18 16  1  0
 19 20  1  6
 19 18  1  0
 21 20  1  0
 22 21  2  0
 23 24  1  0
 23 22  1  0
 24 29  2  0
 25 24  1  0
 25 26  2  0
 26 27  1  0
 27 28  2  0
 29 21  1  0
 29 28  1  0
 30 32  1  0
 30 19  1  0
 31 30  2  0
M  END
$$$$
