FSW.pdb
     RDKit          3D

 32 34  0  0  1  0  0  0  0  0999 V2000
   27.7240  -22.5108  -17.6865 N   0  0  0  0  0  0  0  0  0  0  0  0
   27.0047  -21.5890  -16.8117 C   0  0  1  0  0  0  0  0  0  0  0  0
   25.5900  -22.1702  -16.7291 C   0  0  0  0  0  0  0  0  0  0  0  0
   24.7390  -21.6884  -17.8197 C   0  0  0  0  0  0  0  0  0  0  0  0
   24.2287  -22.5335  -18.7601 C   0  0  0  0  0  0  0  0  0  0  0  0
   23.4196  -22.1260  -19.8031 C   0  0  0  0  0  0  0  0  0  0  0  0
   23.1176  -20.7798  -19.8880 C   0  0  0  0  0  0  0  0  0  0  0  0
   23.6189  -19.9045  -18.9526 C   0  0  0  0  0  0  0  0  0  0  0  0
   24.4283  -20.3460  -17.9170 C   0  0  0  0  0  0  0  0  0  0  0  0
   27.5728  -21.5666  -15.4383 C   0  0  0  0  0  0  0  0  0  0  0  0
   28.4864  -22.3859  -15.0600 O   0  0  0  0  0  0  0  0  0  0  0  0
   27.2623  -18.1854  -13.1250 O   0  0  0  0  0  0  0  0  0  0  0  0
   28.2590  -19.1044  -12.9153 C   0  0  0  0  0  0  0  0  0  0  0  0
   27.6874  -20.5008  -13.1426 C   0  0  2  0  0  0  0  0  0  0  0  0
   27.1486  -20.6403  -14.4561 N   0  0  0  0  0  0  0  0  0  0  0  0
   26.6991  -20.8217  -12.0817 C   0  0  0  0  0  0  0  0  0  0  0  0
   25.5034  -20.8654  -12.4213 O   0  0  0  0  0  0  0  0  0  0  0  0
   26.9986  -21.0777  -10.7269 N   0  0  0  0  0  0  0  0  0  0  0  0
   25.9924  -21.2296   -9.6851 C   0  0  1  0  0  0  0  0  0  0  0  0
   26.5395  -21.5820   -8.3734 C   0  0  0  0  0  0  0  0  0  0  0  0
   27.0257  -20.3911   -7.6343 C   0  0  0  0  0  0  0  0  0  0  0  0
   26.8246  -19.0598   -7.9425 C   0  0  0  0  0  0  0  0  0  0  0  0
   27.4535  -18.2764   -7.0543 N   0  0  0  0  0  0  0  0  0  0  0  0
   28.0812  -19.0434   -6.1421 C   0  0  0  0  0  0  0  0  0  0  0  0
   28.8359  -18.6940   -5.0439 C   0  0  0  0  0  0  0  0  0  0  0  0
   29.3544  -19.7354   -4.2568 C   0  0  0  0  0  0  0  0  0  0  0  0
   29.1047  -21.0521   -4.5877 C   0  0  0  0  0  0  0  0  0  0  0  0
   28.3474  -21.3364   -5.6928 C   0  0  0  0  0  0  0  0  0  0  0  0
   27.8237  -20.3676   -6.4887 C   0  0  0  0  0  0  0  0  0  0  0  0
   24.9757  -20.1895   -9.7225 C   0  0  0  0  0  0  0  0  0  0  0  0
   23.8805  -20.3624   -9.1513 O   0  0  0  0  0  0  0  0  0  0  0  0
   25.1961  -18.9955  -10.3823 O   0  0  0  0  0  0  0  0  0  0  0  0
  2  1  1  6
  3  2  1  0
  4  3  1  0
  5  4  2  0
  6  5  1  0
  7  8  1  0
  7  6  2  0
  8  9  2  0
  9  4  1  0
 10 11  2  0
 10  2  1  0
 12 13  1  0
 14 13  1  1
 14 15  1  0
 15 10  1  0
 16 14  1  0
 17 16  2  0
 18 16  1  0
 19 20  1  1
 19 18  1  0
 21 20  1  0
 22 21  2  0
 23 24  1  0
 23 22  1  0
 24 29  2  0
 25 24  1  0
 25 26  2  0
 26 27  1  0
 27 28  2  0
 29 21  1  0
 29 28  1  0
 30 32  1  0
 30 19  1  0
 31 30  2  0
M  END
$$$$
