FSW.pdb
     RDKit          3D

 32 34  0  0  1  0  0  0  0  0999 V2000
   27.4891  -10.0971  -19.5179 N   0  0  0  0  0  0  0  0  0  0  0  0
   27.1802  -10.1758  -18.0928 C   0  0  1  0  0  0  0  0  0  0  0  0
   28.0141   -9.0570  -17.4614 C   0  0  0  0  0  0  0  0  0  0  0  0
   29.4492   -9.2630  -17.6711 C   0  0  0  0  0  0  0  0  0  0  0  0
   30.0650  -10.4305  -17.3296 C   0  0  0  0  0  0  0  0  0  0  0  0
   31.4130  -10.6716  -17.5118 C   0  0  0  0  0  0  0  0  0  0  0  0
   32.1716   -9.6616  -18.0733 C   0  0  0  0  0  0  0  0  0  0  0  0
   31.5763   -8.4732  -18.4275 C   0  0  0  0  0  0  0  0  0  0  0  0
   30.2197   -8.2630  -18.2317 C   0  0  0  0  0  0  0  0  0  0  0  0
   25.7474   -9.8920  -17.8171 C   0  0  0  0  0  0  0  0  0  0  0  0
   25.0324   -9.1561  -18.5892 O   0  0  0  0  0  0  0  0  0  0  0  0
   24.2410  -10.8791  -14.1522 O   0  0  0  0  0  0  0  0  0  0  0  0
   23.2888  -11.0119  -15.1307 C   0  0  0  0  0  0  0  0  0  0  0  0
   23.7116  -10.1770  -16.3359 C   0  0  2  0  0  0  0  0  0  0  0  0
   25.0733  -10.4151  -16.6880 N   0  0  0  0  0  0  0  0  0  0  0  0
   23.4290   -8.7416  -16.0813 C   0  0  0  0  0  0  0  0  0  0  0  0
   24.4107   -7.9869  -15.9650 O   0  0  0  0  0  0  0  0  0  0  0  0
   22.1478   -8.1634  -15.9579 N   0  0  0  0  0  0  0  0  0  0  0  0
   21.9052   -6.7292  -15.8861 C   0  0  1  0  0  0  0  0  0  0  0  0
   22.6656   -5.9455  -16.8617 C   0  0  0  0  0  0  0  0  0  0  0  0
   22.0178   -5.9375  -18.1963 C   0  0  0  0  0  0  0  0  0  0  0  0
   20.7090   -5.6199  -18.5032 C   0  0  0  0  0  0  0  0  0  0  0  0
   20.4908   -5.7659  -19.8183 N   0  0  0  0  0  0  0  0  0  0  0  0
   21.6239   -6.1763  -20.4201 C   0  0  0  0  0  0  0  0  0  0  0  0
   21.8886   -6.4449  -21.7450 C   0  0  0  0  0  0  0  0  0  0  0  0
   23.1938   -6.8446  -22.0763 C   0  0  0  0  0  0  0  0  0  0  0  0
   24.1600   -6.9567  -21.0969 C   0  0  0  0  0  0  0  0  0  0  0  0
   23.8355   -6.6765  -19.7961 C   0  0  0  0  0  0  0  0  0  0  0  0
   22.5886   -6.2878  -19.4216 C   0  0  0  0  0  0  0  0  0  0  0  0
   20.4977   -6.3996  -15.7221 C   0  0  0  0  0  0  0  0  0  0  0  0
   19.6238   -7.2693  -15.9112 O   0  0  0  0  0  0  0  0  0  0  0  0
   20.0974   -5.1292  -15.3540 O   0  0  0  0  0  0  0  0  0  0  0  0
  2  1  1  6
  3  2  1  0
  4  3  1  0
  5  4  2  0
  6  5  1  0
  7  8  1  0
  7  6  2  0
  8  9  2  0
  9  4  1  0
 10 11  2  0
 10  2  1  0
 12 13  1  0
 14 13  1  1
 14 15  1  0
 15 10  1  0
 16 14  1  0
 17 16  2  0
 18 16  1  0
 19 20  1  6
 19 18  1  0
 21 20  1  0
 22 21  2  0
 23 24  1  0
 23 22  1  0
 24 29  2  0
 25 24  1  0
 25 26  2  0
 26 27  1  0
 27 28  2  0
 29 21  1  0
 29 28  1  0
 30 32  1  0
 30 19  1  0
 31 30  2  0
M  END
$$$$
