FSW.pdb
     RDKit          3D

 32 34  0  0  1  0  0  0  0  0999 V2000
   26.2761  -17.8634  -16.8190 N   0  0  0  0  0  0  0  0  0  0  0  0
   26.5865  -17.7419  -15.3973 C   0  0  1  0  0  0  0  0  0  0  0  0
   25.5551  -16.7410  -14.8679 C   0  0  0  0  0  0  0  0  0  0  0  0
   25.6752  -15.4370  -15.5242 C   0  0  0  0  0  0  0  0  0  0  0  0
   26.8295  -14.7128  -15.4782 C   0  0  0  0  0  0  0  0  0  0  0  0
   26.9905  -13.4819  -16.0843 C   0  0  0  0  0  0  0  0  0  0  0  0
   25.9103  -12.9642  -16.7741 C   0  0  0  0  0  0  0  0  0  0  0  0
   24.7333  -13.6734  -16.8369 C   0  0  0  0  0  0  0  0  0  0  0  0
   24.6043  -14.9073  -16.2176 C   0  0  0  0  0  0  0  0  0  0  0  0
   26.3942  -19.0258  -14.6734 C   0  0  0  0  0  0  0  0  0  0  0  0
   25.2741  -19.6539  -14.6756 O   0  0  0  0  0  0  0  0  0  0  0  0
   29.6480  -21.2217  -12.8370 O   0  0  0  0  0  0  0  0  0  0  0  0
   28.5965  -21.7542  -13.5390 C   0  0  0  0  0  0  0  0  0  0  0  0
   27.3564  -20.9058  -13.2736 C   0  0  2  0  0  0  0  0  0  0  0  0
   27.4314  -19.6444  -13.9358 N   0  0  0  0  0  0  0  0  0  0  0  0
   27.1385  -20.7720  -11.8108 C   0  0  0  0  0  0  0  0  0  0  0  0
   27.9087  -20.0145  -11.1942 O   0  0  0  0  0  0  0  0  0  0  0  0
   26.1387  -21.4295  -11.0632 N   0  0  0  0  0  0  0  0  0  0  0  0
   25.9839  -21.3014   -9.6208 C   0  0  1  0  0  0  0  0  0  0  0  0
   26.9229  -20.3647   -9.0003 C   0  0  0  0  0  0  0  0  0  0  0  0
   26.7861  -20.3350   -7.5234 C   0  0  0  0  0  0  0  0  0  0  0  0
   25.6675  -20.6283   -6.7680 C   0  0  0  0  0  0  0  0  0  0  0  0
   25.9268  -20.4509   -5.4643 N   0  0  0  0  0  0  0  0  0  0  0  0
   27.2012  -20.0429   -5.3099 C   0  0  0  0  0  0  0  0  0  0  0  0
   27.9165  -19.7492   -4.1698 C   0  0  0  0  0  0  0  0  0  0  0  0
   29.2567  -19.3600   -4.3288 C   0  0  0  0  0  0  0  0  0  0  0  0
   29.8170  -19.2822   -5.5878 C   0  0  0  0  0  0  0  0  0  0  0  0
   29.0542  -19.5861   -6.6840 C   0  0  0  0  0  0  0  0  0  0  0  0
   27.7533  -19.9660   -6.5863 C   0  0  0  0  0  0  0  0  0  0  0  0
   24.5922  -21.2194   -9.2047 C   0  0  0  0  0  0  0  0  0  0  0  0
   23.8262  -20.3914   -9.7372 O   0  0  0  0  0  0  0  0  0  0  0  0
   24.0880  -22.0496   -8.2218 O   0  0  0  0  0  0  0  0  0  0  0  0
  2  1  1  6
  3  2  1  0
  4  3  1  0
  5  4  2  0
  6  5  1  0
  7  8  1  0
  7  6  2  0
  8  9  2  0
  9  4  1  0
 10 11  2  0
 10  2  1  0
 12 13  1  0
 14 13  1  1
 14 15  1  0
 15 10  1  0
 16 14  1  0
 17 16  2  0
 18 16  1  0
 19 20  1  6
 19 18  1  0
 21 20  1  0
 22 21  2  0
 23 24  1  0
 23 22  1  0
 24 29  2  0
 25 24  1  0
 25 26  2  0
 26 27  1  0
 27 28  2  0
 29 21  1  0
 29 28  1  0
 30 32  1  0
 30 19  1  0
 31 30  2  0
M  END
$$$$
