FSW.pdb
     RDKit          3D

 32 34  0  0  1  0  0  0  0  0999 V2000
   27.4776  -19.5149  -16.0544 N   0  0  0  0  0  0  0  0  0  0  0  0
   26.9025  -19.1342  -14.7672 C   0  0  1  0  0  0  0  0  0  0  0  0
   25.9165  -18.0131  -15.1088 C   0  0  0  0  0  0  0  0  0  0  0  0
   26.6066  -16.7776  -15.4870 C   0  0  0  0  0  0  0  0  0  0  0  0
   26.6610  -16.3520  -16.7811 C   0  0  0  0  0  0  0  0  0  0  0  0
   27.2961  -15.1933  -17.1843 C   0  0  0  0  0  0  0  0  0  0  0  0
   27.9097  -14.4297  -16.2090 C   0  0  0  0  0  0  0  0  0  0  0  0
   27.8705  -14.8352  -14.8952 C   0  0  0  0  0  0  0  0  0  0  0  0
   27.2238  -16.0040  -14.5233 C   0  0  0  0  0  0  0  0  0  0  0  0
   26.1359  -20.2474  -14.1487 C   0  0  0  0  0  0  0  0  0  0  0  0
   25.5811  -21.1705  -14.8480 O   0  0  0  0  0  0  0  0  0  0  0  0
   25.7679  -20.4112   -9.9968 O   0  0  0  0  0  0  0  0  0  0  0  0
   25.5309  -21.5804  -10.6740 C   0  0  0  0  0  0  0  0  0  0  0  0
   25.0543  -21.2375  -12.0824 C   0  0  2  0  0  0  0  0  0  0  0  0
   25.9677  -20.3675  -12.7486 N   0  0  0  0  0  0  0  0  0  0  0  0
   23.6756  -20.6883  -12.0303 C   0  0  0  0  0  0  0  0  0  0  0  0
   23.5652  -19.4534  -11.9317 O   0  0  0  0  0  0  0  0  0  0  0  0
   22.4852  -21.4442  -12.0803 N   0  0  0  0  0  0  0  0  0  0  0  0
   21.1506  -20.8615  -12.0936 C   0  0  1  0  0  0  0  0  0  0  0  0
   20.9907  -19.7571  -13.0417 C   0  0  0  0  0  0  0  0  0  0  0  0
   21.0804  -20.2146  -14.4501 C   0  0  0  0  0  0  0  0  0  0  0  0
   20.5404  -21.3570  -15.0080 C   0  0  0  0  0  0  0  0  0  0  0  0
   20.8698  -21.4418  -16.3052 N   0  0  0  0  0  0  0  0  0  0  0  0
   21.6239  -20.3800  -16.6488 C   0  0  0  0  0  0  0  0  0  0  0  0
   22.1799  -20.0296  -17.8595 C   0  0  0  0  0  0  0  0  0  0  0  0
   22.9133  -18.8328  -17.9129 C   0  0  0  0  0  0  0  0  0  0  0  0
   23.0584  -18.0514  -16.7843 C   0  0  0  0  0  0  0  0  0  0  0  0
   22.4825  -18.4534  -15.6086 C   0  0  0  0  0  0  0  0  0  0  0  0
   21.7647  -19.6022  -15.5019 C   0  0  0  0  0  0  0  0  0  0  0  0
   20.0947  -21.8617  -12.0554 C   0  0  0  0  0  0  0  0  0  0  0  0
   20.3670  -23.0677  -12.2205 O   0  0  0  0  0  0  0  0  0  0  0  0
   18.7779  -21.5055  -11.8348 O   0  0  0  0  0  0  0  0  0  0  0  0
  2  1  1  6
  3  2  1  0
  4  3  1  0
  5  4  2  0
  6  5  1  0
  7  8  1  0
  7  6  2  0
  8  9  2  0
  9  4  1  0
 10 11  2  0
 10  2  1  0
 12 13  1  0
 14 13  1  1
 14 15  1  0
 15 10  1  0
 16 14  1  0
 17 16  2  0
 18 16  1  0
 19 20  1  6
 19 18  1  0
 21 20  1  0
 22 21  2  0
 23 24  1  0
 23 22  1  0
 24 29  2  0
 25 24  1  0
 25 26  2  0
 26 27  1  0
 27 28  2  0
 29 21  1  0
 29 28  1  0
 30 32  1  0
 30 19  1  0
 31 30  2  0
M  END
$$$$
