FSW.pdb
     RDKit          3D

 32 34  0  0  1  0  0  0  0  0999 V2000
   28.5126  -20.9067  -13.4646 N   0  0  0  0  0  0  0  0  0  0  0  0
   27.3377  -21.3261  -12.7055 C   0  0  1  0  0  0  0  0  0  0  0  0
   27.2231  -20.2919  -11.5816 C   0  0  0  0  0  0  0  0  0  0  0  0
   27.9715  -20.6980  -10.3897 C   0  0  0  0  0  0  0  0  0  0  0  0
   29.2532  -21.1562  -10.4674 C   0  0  0  0  0  0  0  0  0  0  0  0
   29.9988  -21.5465   -9.3719 C   0  0  0  0  0  0  0  0  0  0  0  0
   29.3986  -21.4639   -8.1295 C   0  0  0  0  0  0  0  0  0  0  0  0
   28.1063  -21.0051   -8.0216 C   0  0  0  0  0  0  0  0  0  0  0  0
   27.3849  -20.6204   -9.1416 C   0  0  0  0  0  0  0  0  0  0  0  0
   26.0957  -21.2592  -13.5195 C   0  0  0  0  0  0  0  0  0  0  0  0
   25.8124  -20.2474  -14.2577 O   0  0  0  0  0  0  0  0  0  0  0  0
   23.0898  -24.1762  -13.0834 O   0  0  0  0  0  0  0  0  0  0  0  0
   23.3211  -23.7134  -14.3539 C   0  0  0  0  0  0  0  0  0  0  0  0
   23.9120  -22.3098  -14.2591 C   0  0  2  0  0  0  0  0  0  0  0  0
   25.1434  -22.3059  -13.5390 N   0  0  0  0  0  0  0  0  0  0  0  0
   22.9099  -21.3768  -13.6842 C   0  0  0  0  0  0  0  0  0  0  0  0
   23.2865  -20.6571  -12.7423 O   0  0  0  0  0  0  0  0  0  0  0  0
   21.5721  -21.2391  -14.1112 N   0  0  0  0  0  0  0  0  0  0  0  0
   20.6784  -20.1812  -13.6608 C   0  0  1  0  0  0  0  0  0  0  0  0
   21.2735  -18.8436  -13.6911 C   0  0  0  0  0  0  0  0  0  0  0  0
   21.4124  -18.3270  -15.0748 C   0  0  0  0  0  0  0  0  0  0  0  0
   20.4135  -17.8882  -15.9219 C   0  0  0  0  0  0  0  0  0  0  0  0
   20.9311  -17.5317  -17.1064 N   0  0  0  0  0  0  0  0  0  0  0  0
   22.2653  -17.7159  -17.0889 C   0  0  0  0  0  0  0  0  0  0  0  0
   23.2155  -17.4806  -18.0581 C   0  0  0  0  0  0  0  0  0  0  0  0
   24.5536  -17.7591  -17.7339 C   0  0  0  0  0  0  0  0  0  0  0  0
   24.8828  -18.2482  -16.4859 C   0  0  0  0  0  0  0  0  0  0  0  0
   23.8927  -18.4625  -15.5641 C   0  0  0  0  0  0  0  0  0  0  0  0
   22.5834  -18.2115  -15.8266 C   0  0  0  0  0  0  0  0  0  0  0  0
   19.3277  -20.3188  -14.1839 C   0  0  0  0  0  0  0  0  0  0  0  0
   19.1279  -20.9347  -15.2500 O   0  0  0  0  0  0  0  0  0  0  0  0
   18.2433  -19.7790  -13.5189 O   0  0  0  0  0  0  0  0  0  0  0  0
  2  1  1  6
  3  2  1  0
  4  3  1  0
  5  4  2  0
  6  5  1  0
  7  8  1  0
  7  6  2  0
  8  9  2  0
  9  4  1  0
 10 11  2  0
 10  2  1  0
 12 13  1  0
 14 13  1  1
 14 15  1  0
 15 10  1  0
 16 14  1  0
 17 16  2  0
 18 16  1  0
 19 20  1  6
 19 18  1  0
 21 20  1  0
 22 21  2  0
 23 24  1  0
 23 22  1  0
 24 29  2  0
 25 24  1  0
 25 26  2  0
 26 27  1  0
 27 28  2  0
 29 21  1  0
 29 28  1  0
 30 32  1  0
 30 19  1  0
 31 30  2  0
M  END
$$$$
