FSW.pdb
     RDKit          3D

 32 34  0  0  1  0  0  0  0  0999 V2000
   22.9752  -32.4085  -10.2123 N   0  0  0  0  0  0  0  0  0  0  0  0
   22.9317  -32.7388   -8.7905 C   0  0  1  0  0  0  0  0  0  0  0  0
   24.1168  -31.9785   -8.1879 C   0  0  0  0  0  0  0  0  0  0  0  0
   25.3786  -32.6979   -8.3781 C   0  0  0  0  0  0  0  0  0  0  0  0
   26.1122  -32.5725   -9.5205 C   0  0  0  0  0  0  0  0  0  0  0  0
   27.3081  -33.2272   -9.7430 C   0  0  0  0  0  0  0  0  0  0  0  0
   27.7776  -34.0561   -8.7414 C   0  0  0  0  0  0  0  0  0  0  0  0
   27.0579  -34.2014   -7.5782 C   0  0  0  0  0  0  0  0  0  0  0  0
   25.8604  -33.5292   -7.3858 C   0  0  0  0  0  0  0  0  0  0  0  0
   21.6899  -32.2428   -8.1413 C   0  0  0  0  0  0  0  0  0  0  0  0
   21.1437  -31.1271   -8.4668 O   0  0  0  0  0  0  0  0  0  0  0  0
   19.7506  -34.6318   -5.3114 O   0  0  0  0  0  0  0  0  0  0  0  0
   18.9771  -33.8125   -6.0938 C   0  0  0  0  0  0  0  0  0  0  0  0
   19.8048  -32.5917   -6.4847 C   0  0  2  0  0  0  0  0  0  0  0  0
   21.0240  -32.9665   -7.1236 N   0  0  0  0  0  0  0  0  0  0  0  0
   20.0234  -31.7274   -5.2971 C   0  0  0  0  0  0  0  0  0  0  0  0
   21.0622  -31.9238   -4.6418 O   0  0  0  0  0  0  0  0  0  0  0  0
   19.1564  -30.7084   -4.8489 N   0  0  0  0  0  0  0  0  0  0  0  0
   19.3700  -29.9333   -3.6346 C   0  0  1  0  0  0  0  0  0  0  0  0
   18.7139  -28.6242   -3.6387 C   0  0  0  0  0  0  0  0  0  0  0  0
   18.9627  -27.8725   -2.3842 C   0  0  0  0  0  0  0  0  0  0  0  0
   20.1182  -27.2206   -1.9997 C   0  0  0  0  0  0  0  0  0  0  0  0
   19.9673  -26.6875   -0.7785 N   0  0  0  0  0  0  0  0  0  0  0  0
   18.7311  -26.9594   -0.3178 C   0  0  0  0  0  0  0  0  0  0  0  0
   18.1198  -26.6133    0.8671 C   0  0  0  0  0  0  0  0  0  0  0  0
   16.7934  -27.0342    1.0584 C   0  0  0  0  0  0  0  0  0  0  0  0
   16.1448  -27.7649    0.0834 C   0  0  0  0  0  0  0  0  0  0  0  0
   16.8062  -28.0790   -1.0741 C   0  0  0  0  0  0  0  0  0  0  0  0
   18.0892  -27.6983   -1.3088 C   0  0  0  0  0  0  0  0  0  0  0  0
   19.2512  -30.7315   -2.4240 C   0  0  0  0  0  0  0  0  0  0  0  0
   20.0743  -30.5915   -1.4973 O   0  0  0  0  0  0  0  0  0  0  0  0
   18.2330  -31.6531   -2.2703 O   0  0  0  0  0  0  0  0  0  0  0  0
  2  1  1  6
  3  2  1  0
  4  3  1  0
  5  4  2  0
  6  5  1  0
  7  8  1  0
  7  6  2  0
  8  9  2  0
  9  4  1  0
 10 11  2  0
 10  2  1  0
 12 13  1  0
 14 13  1  1
 14 15  1  0
 15 10  1  0
 16 14  1  0
 17 16  2  0
 18 16  1  0
 19 20  1  1
 19 18  1  0
 21 20  1  0
 22 21  2  0
 23 24  1  0
 23 22  1  0
 24 29  2  0
 25 24  1  0
 25 26  2  0
 26 27  1  0
 27 28  2  0
 29 21  1  0
 29 28  1  0
 30 32  1  0
 30 19  1  0
 31 30  2  0
M  END
$$$$
