FSW.pdb
     RDKit          3D

 32 34  0  0  1  0  0  0  0  0999 V2000
   26.1147  -17.6037  -16.5813 N   0  0  0  0  0  0  0  0  0  0  0  0
   26.9215  -18.2270  -15.5358 C   0  0  1  0  0  0  0  0  0  0  0  0
   27.7717  -17.0812  -14.9788 C   0  0  0  0  0  0  0  0  0  0  0  0
   28.8023  -16.6563  -15.9291 C   0  0  0  0  0  0  0  0  0  0  0  0
   29.7787  -17.5059  -16.3578 C   0  0  0  0  0  0  0  0  0  0  0  0
   30.7679  -17.1516  -17.2547 C   0  0  0  0  0  0  0  0  0  0  0  0
   30.7570  -15.8565  -17.7379 C   0  0  0  0  0  0  0  0  0  0  0  0
   29.7834  -14.9780  -17.3224 C   0  0  0  0  0  0  0  0  0  0  0  0
   28.8037  -15.3656  -16.4209 C   0  0  0  0  0  0  0  0  0  0  0  0
   26.0842  -18.7579  -14.4284 C   0  0  0  0  0  0  0  0  0  0  0  0
   25.1221  -18.0829  -13.9108 O   0  0  0  0  0  0  0  0  0  0  0  0
   25.9257  -22.7853  -13.8789 O   0  0  0  0  0  0  0  0  0  0  0  0
   24.8811  -21.9981  -13.4654 C   0  0  0  0  0  0  0  0  0  0  0  0
   25.4458  -20.6901  -12.9188 C   0  0  2  0  0  0  0  0  0  0  0  0
   26.2877  -20.0429  -13.8714 N   0  0  0  0  0  0  0  0  0  0  0  0
   26.1303  -20.9364  -11.6243 C   0  0  0  0  0  0  0  0  0  0  0  0
   27.3571  -21.1373  -11.6657 O   0  0  0  0  0  0  0  0  0  0  0  0
   25.5107  -20.9645  -10.3569 N   0  0  0  0  0  0  0  0  0  0  0  0
   26.1572  -21.4485   -9.1450 C   0  0  1  0  0  0  0  0  0  0  0  0
   27.5030  -20.9124   -8.9313 C   0  0  0  0  0  0  0  0  0  0  0  0
   27.5709  -20.0385   -7.7344 C   0  0  0  0  0  0  0  0  0  0  0  0
   26.9950  -18.7956   -7.5566 C   0  0  0  0  0  0  0  0  0  0  0  0
   27.3138  -18.3034   -6.3506 N   0  0  0  0  0  0  0  0  0  0  0  0
   28.0958  -19.1840   -5.6969 C   0  0  0  0  0  0  0  0  0  0  0  0
   28.6540  -19.1255   -4.4389 C   0  0  0  0  0  0  0  0  0  0  0  0
   29.4209  -20.2250   -4.0192 C   0  0  0  0  0  0  0  0  0  0  0  0
   29.5952  -21.3132   -4.8503 C   0  0  0  0  0  0  0  0  0  0  0  0
   29.0153  -21.3123   -6.0911 C   0  0  0  0  0  0  0  0  0  0  0  0
   28.2658  -20.2745   -6.5466 C   0  0  0  0  0  0  0  0  0  0  0  0
   25.2634  -21.4753   -7.9973 C   0  0  0  0  0  0  0  0  0  0  0  0
   25.6256  -22.0153   -6.9329 O   0  0  0  0  0  0  0  0  0  0  0  0
   24.0051  -20.9069   -8.0555 O   0  0  0  0  0  0  0  0  0  0  0  0
  2  1  1  6
  3  2  1  0
  4  3  1  0
  5  4  2  0
  6  5  1  0
  7  8  1  0
  7  6  2  0
  8  9  2  0
  9  4  1  0
 10 11  2  0
 10  2  1  0
 12 13  1  0
 14 13  1  6
 14 15  1  0
 15 10  1  0
 16 14  1  0
 17 16  2  0
 18 16  1  0
 19 20  1  1
 19 18  1  0
 21 20  1  0
 22 21  2  0
 23 24  1  0
 23 22  1  0
 24 29  2  0
 25 24  1  0
 25 26  2  0
 26 27  1  0
 27 28  2  0
 29 21  1  0
 29 28  1  0
 30 32  1  0
 30 19  1  0
 31 30  2  0
M  END
$$$$
