FSW.pdb
     RDKit          3D

 32 34  0  0  1  0  0  0  0  0999 V2000
   24.5495  -17.5785  -15.7800 N   0  0  0  0  0  0  0  0  0  0  0  0
   25.8131  -18.0843  -15.2509 C   0  0  1  0  0  0  0  0  0  0  0  0
   26.3874  -16.9101  -14.4527 C   0  0  0  0  0  0  0  0  0  0  0  0
   27.0233  -15.9188  -15.3238 C   0  0  0  0  0  0  0  0  0  0  0  0
   28.0650  -16.2435  -16.1413 C   0  0  0  0  0  0  0  0  0  0  0  0
   28.6929  -15.3447  -16.9817 C   0  0  0  0  0  0  0  0  0  0  0  0
   28.2294  -14.0424  -16.9840 C   0  0  0  0  0  0  0  0  0  0  0  0
   27.1797  -13.6869  -16.1692 C   0  0  0  0  0  0  0  0  0  0  0  0
   26.5704  -14.6139  -15.3372 C   0  0  0  0  0  0  0  0  0  0  0  0
   25.6098  -19.2206  -14.3144 C   0  0  0  0  0  0  0  0  0  0  0  0
   24.5292  -19.3660  -13.6359 O   0  0  0  0  0  0  0  0  0  0  0  0
   28.8323  -21.5949  -13.1189 O   0  0  0  0  0  0  0  0  0  0  0  0
   27.6692  -22.2803  -13.3624 C   0  0  0  0  0  0  0  0  0  0  0  0
   26.4961  -21.3178  -13.2027 C   0  0  2  0  0  0  0  0  0  0  0  0
   26.5904  -20.2200  -14.1088 N   0  0  0  0  0  0  0  0  0  0  0  0
   26.3872  -20.8834  -11.7869 C   0  0  0  0  0  0  0  0  0  0  0  0
   26.9174  -19.7984  -11.4889 O   0  0  0  0  0  0  0  0  0  0  0  0
   25.7388  -21.5939  -10.7546 N   0  0  0  0  0  0  0  0  0  0  0  0
   25.7176  -21.1684   -9.3620 C   0  0  1  0  0  0  0  0  0  0  0  0
   26.5706  -20.0126   -9.0778 C   0  0  0  0  0  0  0  0  0  0  0  0
   27.8142  -20.3994   -8.3675 C   0  0  0  0  0  0  0  0  0  0  0  0
   28.8847  -21.1200   -8.8602 C   0  0  0  0  0  0  0  0  0  0  0  0
   29.8056  -21.2991   -7.9020 N   0  0  0  0  0  0  0  0  0  0  0  0
   29.3892  -20.7149   -6.7620 C   0  0  0  0  0  0  0  0  0  0  0  0
   29.9947  -20.6243   -5.5280 C   0  0  0  0  0  0  0  0  0  0  0  0
   29.3106  -19.9236   -4.5211 C   0  0  0  0  0  0  0  0  0  0  0  0
   28.0801  -19.3537   -4.7790 C   0  0  0  0  0  0  0  0  0  0  0  0
   27.5287  -19.4786   -6.0264 C   0  0  0  0  0  0  0  0  0  0  0  0
   28.1469  -20.1469   -7.0350 C   0  0  0  0  0  0  0  0  0  0  0  0
   24.3794  -21.1621   -8.7912 C   0  0  0  0  0  0  0  0  0  0  0  0
   23.3844  -21.3333   -9.5237 O   0  0  0  0  0  0  0  0  0  0  0  0
   24.1787  -20.9712   -7.4374 O   0  0  0  0  0  0  0  0  0  0  0  0
  2  1  1  1
  3  2  1  0
  4  3  1  0
  5  4  2  0
  6  5  1  0
  7  8  1  0
  7  6  2  0
  8  9  2  0
  9  4  1  0
 10 11  2  0
 10  2  1  0
 12 13  1  0
 14 13  1  1
 14 15  1  0
 15 10  1  0
 16 14  1  0
 17 16  2  0
 18 16  1  0
 19 20  1  6
 19 18  1  0
 21 20  1  0
 22 21  2  0
 23 24  1  0
 23 22  1  0
 24 29  2  0
 25 24  1  0
 25 26  2  0
 26 27  1  0
 27 28  2  0
 29 21  1  0
 29 28  1  0
 30 32  1  0
 30 19  1  0
 31 30  2  0
M  END
$$$$
