FSW.pdb
     RDKit          3D

 32 34  0  0  1  0  0  0  0  0999 V2000
   27.5016  -18.6045  -19.3736 N   0  0  0  0  0  0  0  0  0  0  0  0
   27.0628  -19.6415  -18.4438 C   0  0  1  0  0  0  0  0  0  0  0  0
   27.4816  -20.9536  -19.1138 C   0  0  0  0  0  0  0  0  0  0  0  0
   26.5923  -21.3065  -20.2231 C   0  0  0  0  0  0  0  0  0  0  0  0
   25.3980  -21.9307  -20.0160 C   0  0  0  0  0  0  0  0  0  0  0  0
   24.5259  -22.2792  -21.0291 C   0  0  0  0  0  0  0  0  0  0  0  0
   24.8978  -21.9725  -22.3247 C   0  0  0  0  0  0  0  0  0  0  0  0
   26.0973  -21.3429  -22.5627 C   0  0  0  0  0  0  0  0  0  0  0  0
   26.9504  -21.0059  -21.5228 C   0  0  0  0  0  0  0  0  0  0  0  0
   27.7633  -19.5497  -17.1360 C   0  0  0  0  0  0  0  0  0  0  0  0
   28.9282  -19.0227  -17.0167 O   0  0  0  0  0  0  0  0  0  0  0  0
   26.1870  -17.7651  -14.4954 O   0  0  0  0  0  0  0  0  0  0  0  0
   27.5007  -18.1506  -14.4087 C   0  0  0  0  0  0  0  0  0  0  0  0
   27.5777  -19.6610  -14.6116 C   0  0  2  0  0  0  0  0  0  0  0  0
   27.1939  -20.0334  -15.9341 N   0  0  0  0  0  0  0  0  0  0  0  0
   26.7796  -20.3530  -13.5679 C   0  0  0  0  0  0  0  0  0  0  0  0
   25.5703  -20.5224  -13.8044 O   0  0  0  0  0  0  0  0  0  0  0  0
   27.2728  -20.8305  -12.3352 N   0  0  0  0  0  0  0  0  0  0  0  0
   26.4475  -21.4736  -11.3221 C   0  0  1  0  0  0  0  0  0  0  0  0
   27.1695  -21.8216  -10.0966 C   0  0  0  0  0  0  0  0  0  0  0  0
   27.0704  -20.7553   -9.0698 C   0  0  0  0  0  0  0  0  0  0  0  0
   26.2067  -19.6777   -9.0451 C   0  0  0  0  0  0  0  0  0  0  0  0
   26.4474  -18.9130   -7.9702 N   0  0  0  0  0  0  0  0  0  0  0  0
   27.4581  -19.4449   -7.2561 C   0  0  0  0  0  0  0  0  0  0  0  0
   28.0429  -19.0263   -6.0812 C   0  0  0  0  0  0  0  0  0  0  0  0
   29.0834  -19.8129   -5.5599 C   0  0  0  0  0  0  0  0  0  0  0  0
   29.4886  -20.9585   -6.2146 C   0  0  0  0  0  0  0  0  0  0  0  0
   28.8685  -21.3226   -7.3803 C   0  0  0  0  0  0  0  0  0  0  0  0
   27.8588  -20.5971   -7.9283 C   0  0  0  0  0  0  0  0  0  0  0  0
   25.1445  -20.8447  -11.1690 C   0  0  0  0  0  0  0  0  0  0  0  0
   24.1266  -21.5448  -10.9969 O   0  0  0  0  0  0  0  0  0  0  0  0
   25.0031  -19.4706  -11.2072 O   0  0  0  0  0  0  0  0  0  0  0  0
  2  1  1  6
  3  2  1  0
  4  3  1  0
  5  4  2  0
  6  5  1  0
  7  8  1  0
  7  6  2  0
  8  9  2  0
  9  4  1  0
 10 11  2  0
 10  2  1  0
 12 13  1  0
 14 13  1  6
 14 15  1  0
 15 10  1  0
 16 14  1  0
 17 16  2  0
 18 16  1  0
 19 20  1  1
 19 18  1  0
 21 20  1  0
 22 21  2  0
 23 24  1  0
 23 22  1  0
 24 29  2  0
 25 24  1  0
 25 26  2  0
 26 27  1  0
 27 28  2  0
 29 21  1  0
 29 28  1  0
 30 32  1  0
 30 19  1  0
 31 30  2  0
M  END
$$$$
