DEI.pdb
     RDKit          3D

 26 25  0  0  1  0  0  0  0  0999 V2000
    7.2745  -16.9992   18.5832 N   0  0  0  0  0  0  0  0  0  0  0  0
    8.1861  -16.0695   19.1703 C   0  0  1  0  0  0  0  0  0  0  0  0
    7.8445  -14.6447   18.8242 C   0  0  0  0  0  0  0  0  0  0  0  0
    8.1249  -14.4087   17.3973 C   0  0  0  0  0  0  0  0  0  0  0  0
    9.0537  -15.0067   16.7759 O   0  0  0  0  0  0  0  0  0  0  0  0
    8.2898  -16.2539   20.6589 C   0  0  0  0  0  0  0  0  0  0  0  0
    7.2610  -16.4077   21.3647 O   0  0  0  0  0  0  0  0  0  0  0  0
    7.3539  -13.5032   16.6960 O   0  0  0  0  0  0  0  0  0  0  0  0
    9.5413  -16.2636   21.3349 N   0  0  0  0  0  0  0  0  0  0  0  0
    9.6792  -16.7317   22.7004 C   0  0  1  0  0  0  0  0  0  0  0  0
   10.8610  -17.6613   22.8609 C   0  0  0  0  0  0  0  0  0  0  0  0
   11.0779  -18.0725   24.2858 C   0  0  0  0  0  0  0  0  0  0  0  0
   12.2149  -19.0195   24.3430 C   0  0  0  0  0  0  0  0  0  0  0  0
   12.0220  -20.2238   24.6339 O   0  0  0  0  0  0  0  0  0  0  0  0
    9.7367  -15.6089   23.6664 C   0  0  0  0  0  0  0  0  0  0  0  0
   10.6822  -14.7905   23.5299 O   0  0  0  0  0  0  0  0  0  0  0  0
   13.5157  -18.6186   24.0816 O   0  0  0  0  0  0  0  0  0  0  0  0
    6.1890  -11.7576   26.8194 C   0  0  0  0  0  0  0  0  0  0  0  0
    7.5124  -12.4618   26.7146 C   0  0  0  0  0  0  0  0  0  0  0  0
    7.5341  -13.5818   25.7244 C   0  0  2  0  0  0  0  0  0  0  0  0
    6.4746  -14.5808   26.1347 C   0  0  0  0  0  0  0  0  0  0  0  0
    8.8507  -14.3083   25.6522 C   0  0  2  0  0  0  0  0  0  0  0  0
    8.8187  -15.4051   24.7055 N   0  0  0  0  0  0  0  0  0  0  0  0
    9.1054  -14.8747   26.9972 C   0  0  0  0  0  0  0  0  0  0  0  0
    8.8827  -16.0877   27.2056 O   0  0  0  0  0  0  0  0  0  0  0  0
    9.5831  -14.1202   28.0472 O   0  0  0  0  0  0  0  0  0  0  0  0
  2  1  1  1
  3  2  1  0
  3  4  1  0
  4  8  1  0
  4  5  2  0
  6  2  1  0
  6  7  2  0
  9  6  1  0
 10  9  1  0
 10 11  1  6
 12 11  1  0
 12 13  1  0
 13 14  2  0
 15 10  1  0
 15 23  1  0
 16 15  2  0
 17 13  1  0
 19 18  1  0
 20 19  1  0
 20 21  1  1
 22 23  1  6
 22 20  1  0
 24 22  1  0
 25 24  2  0
 26 24  1  0
M  END
$$$$
