DEI.pdb
     RDKit          3D

 26 25  0  0  1  0  0  0  0  0999 V2000
    9.6942  -15.8699   19.0128 N   0  0  0  0  0  0  0  0  0  0  0  0
    8.6613  -15.0330   19.5352 C   0  0  1  0  0  0  0  0  0  0  0  0
    7.4607  -14.9809   18.6283 C   0  0  0  0  0  0  0  0  0  0  0  0
    7.8956  -14.6409   17.2624 C   0  0  0  0  0  0  0  0  0  0  0  0
    7.9887  -15.5054   16.3404 O   0  0  0  0  0  0  0  0  0  0  0  0
    8.2682  -15.4360   20.9294 C   0  0  0  0  0  0  0  0  0  0  0  0
    7.2540  -14.9418   21.4838 O   0  0  0  0  0  0  0  0  0  0  0  0
    8.2178  -13.3329   16.9599 O   0  0  0  0  0  0  0  0  0  0  0  0
    9.0147  -16.3848   21.6817 N   0  0  0  0  0  0  0  0  0  0  0  0
    8.6207  -16.7972   23.0149 C   0  0  1  0  0  0  0  0  0  0  0  0
    9.0397  -18.2195   23.3117 C   0  0  0  0  0  0  0  0  0  0  0  0
   10.1828  -18.6716   22.4541 C   0  0  0  0  0  0  0  0  0  0  0  0
   10.5397  -20.0601   22.8250 C   0  0  0  0  0  0  0  0  0  0  0  0
   11.2922  -20.7392   22.0871 O   0  0  0  0  0  0  0  0  0  0  0  0
    9.1125  -15.8589   24.0516 C   0  0  0  0  0  0  0  0  0  0  0  0
   10.3246  -15.5283   23.9890 O   0  0  0  0  0  0  0  0  0  0  0  0
   10.0638  -20.6539   23.9835 O   0  0  0  0  0  0  0  0  0  0  0  0
    6.0794  -11.6968   25.9397 C   0  0  0  0  0  0  0  0  0  0  0  0
    7.2035  -12.5952   25.5068 C   0  0  0  0  0  0  0  0  0  0  0  0
    7.7273  -13.4857   26.5876 C   0  0  2  0  0  0  0  0  0  0  0  0
    8.3240  -12.6044   27.6627 C   0  0  0  0  0  0  0  0  0  0  0  0
    8.7959  -14.4412   26.1277 C   0  0  2  0  0  0  0  0  0  0  0  0
    8.3248  -15.3257   25.0807 N   0  0  0  0  0  0  0  0  0  0  0  0
    9.1624  -15.2740   27.2968 C   0  0  0  0  0  0  0  0  0  0  0  0
    8.5828  -16.3673   27.4788 O   0  0  0  0  0  0  0  0  0  0  0  0
   10.1256  -14.8987   28.2087 O   0  0  0  0  0  0  0  0  0  0  0  0
  2  1  1  6
  3  2  1  0
  3  4  1  0
  4  8  1  0
  4  5  2  0
  6  2  1  0
  6  7  2  0
  9  6  1  0
 10  9  1  0
 10 11  1  1
 12 11  1  0
 12 13  1  0
 13 14  2  0
 15 10  1  0
 15 23  1  0
 16 15  2  0
 17 13  1  0
 19 18  1  0
 20 19  1  0
 20 21  1  1
 22 23  1  6
 22 20  1  0
 24 22  1  0
 25 24  2  0
 26 24  1  0
M  END
$$$$
