DEI.pdb
     RDKit          3D

 26 25  0  0  1  0  0  0  0  0999 V2000
    6.9377  -16.5526   19.1034 N   0  0  0  0  0  0  0  0  0  0  0  0
    7.9235  -15.7601   19.7669 C   0  0  1  0  0  0  0  0  0  0  0  0
    7.7823  -14.2955   19.4481 C   0  0  0  0  0  0  0  0  0  0  0  0
    8.1801  -14.0603   18.0493 C   0  0  0  0  0  0  0  0  0  0  0  0
    8.7969  -14.9266   17.3598 O   0  0  0  0  0  0  0  0  0  0  0  0
    7.9190  -15.9926   21.2524 C   0  0  0  0  0  0  0  0  0  0  0  0
    6.8680  -15.8470   21.9266 O   0  0  0  0  0  0  0  0  0  0  0  0
    7.8758  -12.8532   17.4522 O   0  0  0  0  0  0  0  0  0  0  0  0
    9.0889  -16.3840   21.9606 N   0  0  0  0  0  0  0  0  0  0  0  0
    9.0407  -16.8652   23.3276 C   0  0  1  0  0  0  0  0  0  0  0  0
    9.8530  -18.1275   23.5097 C   0  0  0  0  0  0  0  0  0  0  0  0
    9.8345  -18.6225   24.9244 C   0  0  0  0  0  0  0  0  0  0  0  0
   10.6610  -19.8480   25.0136 C   0  0  0  0  0  0  0  0  0  0  0  0
   10.3364  -20.8785   24.3776 O   0  0  0  0  0  0  0  0  0  0  0  0
    9.4411  -15.8176   24.2968 C   0  0  0  0  0  0  0  0  0  0  0  0
   10.5584  -15.2700   24.1115 O   0  0  0  0  0  0  0  0  0  0  0  0
   11.8072  -19.9032   25.7910 O   0  0  0  0  0  0  0  0  0  0  0  0
    5.8975  -12.1860   26.2680 C   0  0  0  0  0  0  0  0  0  0  0  0
    7.1420  -12.8830   25.7952 C   0  0  0  0  0  0  0  0  0  0  0  0
    7.8799  -13.6156   26.8695 C   0  0  2  0  0  0  0  0  0  0  0  0
    8.3985  -12.5907   27.8541 C   0  0  0  0  0  0  0  0  0  0  0  0
    9.0557  -14.4118   26.3694 C   0  0  2  0  0  0  0  0  0  0  0  0
    8.6658  -15.4055   25.3891 N   0  0  0  0  0  0  0  0  0  0  0  0
    9.6236  -15.1234   27.5381 C   0  0  0  0  0  0  0  0  0  0  0  0
    9.2777  -16.3033   27.7672 O   0  0  0  0  0  0  0  0  0  0  0  0
   10.5286  -14.5411   28.3995 O   0  0  0  0  0  0  0  0  0  0  0  0
  2  1  1  6
  3  2  1  0
  3  4  1  0
  4  8  1  0
  4  5  2  0
  6  2  1  0
  6  7  2  0
  9  6  1  0
 10  9  1  0
 10 11  1  6
 12 11  1  0
 12 13  1  0
 13 14  2  0
 15 10  1  0
 15 23  1  0
 16 15  2  0
 17 13  1  0
 19 18  1  0
 20 19  1  0
 20 21  1  1
 22 23  1  6
 22 20  1  0
 24 22  1  0
 25 24  2  0
 26 24  1  0
M  END
$$$$
