DEI.pdb
     RDKit          3D

 26 25  0  0  1  0  0  0  0  0999 V2000
    8.0276  -18.5687   19.2165 N   0  0  0  0  0  0  0  0  0  0  0  0
    8.6619  -17.3947   19.7260 C   0  0  1  0  0  0  0  0  0  0  0  0
    8.2347  -16.1538   18.9883 C   0  0  0  0  0  0  0  0  0  0  0  0
    8.7414  -16.2093   17.6061 C   0  0  0  0  0  0  0  0  0  0  0  0
    8.2872  -15.4701   16.6821 O   0  0  0  0  0  0  0  0  0  0  0  0
    8.4490  -17.2433   21.2067 C   0  0  0  0  0  0  0  0  0  0  0  0
    7.3409  -16.8667   21.6655 O   0  0  0  0  0  0  0  0  0  0  0  0
    9.7506  -17.0967   17.2895 O   0  0  0  0  0  0  0  0  0  0  0  0
    9.4776  -17.5152   22.1508 N   0  0  0  0  0  0  0  0  0  0  0  0
    9.2334  -17.5220   23.5801 C   0  0  1  0  0  0  0  0  0  0  0  0
   10.0616  -18.5704   24.2884 C   0  0  0  0  0  0  0  0  0  0  0  0
    9.8460  -18.5659   25.7717 C   0  0  0  0  0  0  0  0  0  0  0  0
   10.8173  -19.4907   26.3994 C   0  0  0  0  0  0  0  0  0  0  0  0
   10.5886  -20.7231   26.4316 O   0  0  0  0  0  0  0  0  0  0  0  0
    9.4270  -16.1806   24.1804 C   0  0  0  0  0  0  0  0  0  0  0  0
   10.5150  -15.5997   23.9329 O   0  0  0  0  0  0  0  0  0  0  0  0
   11.9981  -19.0380   26.9668 O   0  0  0  0  0  0  0  0  0  0  0  0
    6.3123  -11.3057   26.4469 C   0  0  0  0  0  0  0  0  0  0  0  0
    7.5830  -12.1017   26.3476 C   0  0  0  0  0  0  0  0  0  0  0  0
    7.4153  -13.4484   25.7201 C   0  0  2  0  0  0  0  0  0  0  0  0
    6.4237  -14.2266   26.5567 C   0  0  0  0  0  0  0  0  0  0  0  0
    8.6870  -14.2506   25.6459 C   0  0  2  0  0  0  0  0  0  0  0  0
    8.4894  -15.5294   24.9932 N   0  0  0  0  0  0  0  0  0  0  0  0
    9.1144  -14.5121   27.0401 C   0  0  0  0  0  0  0  0  0  0  0  0
    8.9114  -15.6385   27.5444 O   0  0  0  0  0  0  0  0  0  0  0  0
    9.7346  -13.5612   27.8218 O   0  0  0  0  0  0  0  0  0  0  0  0
  2  1  1  6
  3  2  1  0
  3  4  1  0
  4  8  1  0
  4  5  2  0
  6  2  1  0
  6  7  2  0
  9  6  1  0
 10  9  1  0
 10 11  1  1
 12 11  1  0
 12 13  1  0
 13 14  2  0
 15 10  1  0
 15 23  1  0
 16 15  2  0
 17 13  1  0
 19 18  1  0
 20 19  1  0
 20 21  1  1
 22 23  1  1
 22 20  1  0
 24 22  1  0
 25 24  2  0
 26 24  1  0
M  END
$$$$
