DEI.pdb
     RDKit          3D

 26 25  0  0  1  0  0  0  0  0999 V2000
   10.0595  -16.4556   19.6399 N   0  0  0  0  0  0  0  0  0  0  0  0
    8.6909  -16.8523   19.5410 C   0  0  1  0  0  0  0  0  0  0  0  0
    8.5403  -18.2248   18.9409 C   0  0  0  0  0  0  0  0  0  0  0  0
    7.1085  -18.5501   18.8207 C   0  0  0  0  0  0  0  0  0  0  0  0
    6.2788  -17.7802   18.2504 O   0  0  0  0  0  0  0  0  0  0  0  0
    7.9865  -16.7618   20.8663 C   0  0  0  0  0  0  0  0  0  0  0  0
    6.9145  -16.1163   20.9862 O   0  0  0  0  0  0  0  0  0  0  0  0
    6.6371  -19.7371   19.3451 O   0  0  0  0  0  0  0  0  0  0  0  0
    8.4913  -17.3941   22.0363 N   0  0  0  0  0  0  0  0  0  0  0  0
    7.8409  -17.2666   23.3260 C   0  0  1  0  0  0  0  0  0  0  0  0
    7.7343  -18.5967   24.0374 C   0  0  0  0  0  0  0  0  0  0  0  0
    7.1195  -18.4715   25.3986 C   0  0  0  0  0  0  0  0  0  0  0  0
    6.9904  -19.8222   25.9917 C   0  0  0  0  0  0  0  0  0  0  0  0
    7.2353  -20.8417   25.3042 O   0  0  0  0  0  0  0  0  0  0  0  0
    8.4977  -16.2466   24.1778 C   0  0  0  0  0  0  0  0  0  0  0  0
    9.7531  -16.1860   24.1249 O   0  0  0  0  0  0  0  0  0  0  0  0
    6.6002  -20.0096   27.3084 O   0  0  0  0  0  0  0  0  0  0  0  0
    5.5614  -11.7350   25.8961 C   0  0  0  0  0  0  0  0  0  0  0  0
    6.7088  -12.5414   25.3563 C   0  0  0  0  0  0  0  0  0  0  0  0
    7.4208  -13.3594   26.3855 C   0  0  2  0  0  0  0  0  0  0  0  0
    8.1473  -12.4071   27.3097 C   0  0  0  0  0  0  0  0  0  0  0  0
    8.4362  -14.3123   25.8133 C   0  0  2  0  0  0  0  0  0  0  0  0
    7.8191  -15.3600   25.0246 N   0  0  0  0  0  0  0  0  0  0  0  0
    9.1235  -14.9504   26.9601 C   0  0  0  0  0  0  0  0  0  0  0  0
    8.7192  -16.0566   27.3812 O   0  0  0  0  0  0  0  0  0  0  0  0
   10.2035  -14.3772   27.5966 O   0  0  0  0  0  0  0  0  0  0  0  0
  2  1  1  1
  3  2  1  0
  3  4  1  0
  4  8  1  0
  4  5  2  0
  6  2  1  0
  6  7  2  0
  9  6  1  0
 10  9  1  0
 10 11  1  1
 12 11  1  0
 12 13  1  0
 13 14  2  0
 15 10  1  0
 15 23  1  0
 16 15  2  0
 17 13  1  0
 19 18  1  0
 20 19  1  0
 20 21  1  1
 22 23  1  1
 22 20  1  0
 24 22  1  0
 25 24  2  0
 26 24  1  0
M  END
$$$$
