DEI.pdb
     RDKit          3D

 26 25  0  0  1  0  0  0  0  0999 V2000
    9.4336  -12.8208   19.0865 N   0  0  0  0  0  0  0  0  0  0  0  0
    8.0886  -13.1444   19.4419 C   0  0  1  0  0  0  0  0  0  0  0  0
    7.2614  -13.5254   18.2430 C   0  0  0  0  0  0  0  0  0  0  0  0
    8.0510  -14.4073   17.3660 C   0  0  0  0  0  0  0  0  0  0  0  0
    8.1828  -14.1944   16.1236 O   0  0  0  0  0  0  0  0  0  0  0  0
    8.0321  -14.2123   20.4988 C   0  0  0  0  0  0  0  0  0  0  0  0
    6.9355  -14.5709   20.9979 O   0  0  0  0  0  0  0  0  0  0  0  0
    8.6778  -15.5133   17.9045 O   0  0  0  0  0  0  0  0  0  0  0  0
    9.2018  -14.8624   20.9809 N   0  0  0  0  0  0  0  0  0  0  0  0
    9.1582  -15.8383   22.0525 C   0  0  1  0  0  0  0  0  0  0  0  0
   10.1053  -16.9906   21.8043 C   0  0  0  0  0  0  0  0  0  0  0  0
   10.0774  -18.0041   22.9082 C   0  0  0  0  0  0  0  0  0  0  0  0
   11.0736  -19.0596   22.6144 C   0  0  0  0  0  0  0  0  0  0  0  0
   10.9368  -19.7978   21.6102 O   0  0  0  0  0  0  0  0  0  0  0  0
    9.3957  -15.2161   23.3768 C   0  0  0  0  0  0  0  0  0  0  0  0
   10.4822  -14.6004   23.5280 O   0  0  0  0  0  0  0  0  0  0  0  0
   12.1785  -19.2697   23.4246 O   0  0  0  0  0  0  0  0  0  0  0  0
    6.1349  -11.8003   25.6577 C   0  0  0  0  0  0  0  0  0  0  0  0
    7.3137  -12.6469   25.2679 C   0  0  0  0  0  0  0  0  0  0  0  0
    7.5679  -13.8020   26.1824 C   0  0  2  0  0  0  0  0  0  0  0  0
    7.8898  -13.2443   27.5514 C   0  0  0  0  0  0  0  0  0  0  0  0
    8.7176  -14.6762   25.7577 C   0  0  2  0  0  0  0  0  0  0  0  0
    8.5004  -15.2698   24.4536 N   0  0  0  0  0  0  0  0  0  0  0  0
    8.8137  -15.7741   26.7477 C   0  0  0  0  0  0  0  0  0  0  0  0
    8.1908  -16.8398   26.5462 O   0  0  0  0  0  0  0  0  0  0  0  0
    9.5672  -15.6787   27.8980 O   0  0  0  0  0  0  0  0  0  0  0  0
  2  1  1  6
  3  2  1  0
  3  4  1  0
  4  8  1  0
  4  5  2  0
  6  2  1  0
  6  7  2  0
  9  6  1  0
 10  9  1  0
 10 11  1  6
 12 11  1  0
 12 13  1  0
 13 14  2  0
 15 10  1  0
 15 23  1  0
 16 15  2  0
 17 13  1  0
 19 18  1  0
 20 19  1  0
 20 21  1  1
 22 23  1  6
 22 20  1  0
 24 22  1  0
 25 24  2  0
 26 24  1  0
M  END
$$$$
