DEI.pdb
     RDKit          3D

 26 25  0  0  1  0  0  0  0  0999 V2000
    7.8065  -16.6577   18.5104 N   0  0  0  0  0  0  0  0  0  0  0  0
    8.4115  -15.5835   19.2315 C   0  0  1  0  0  0  0  0  0  0  0  0
    7.8171  -14.2494   18.8661 C   0  0  0  0  0  0  0  0  0  0  0  0
    8.1731  -13.9216   17.4746 C   0  0  0  0  0  0  0  0  0  0  0  0
    8.8943  -14.6782   16.7579 O   0  0  0  0  0  0  0  0  0  0  0  0
    8.3595  -15.8094   20.7171 C   0  0  0  0  0  0  0  0  0  0  0  0
    7.3616  -15.4492   21.3915 O   0  0  0  0  0  0  0  0  0  0  0  0
    7.7100  -12.7472   16.9155 O   0  0  0  0  0  0  0  0  0  0  0  0
    9.4232  -16.4342   21.4253 N   0  0  0  0  0  0  0  0  0  0  0  0
    9.3118  -16.7992   22.8242 C   0  0  1  0  0  0  0  0  0  0  0  0
   10.2647  -17.9138   23.1934 C   0  0  0  0  0  0  0  0  0  0  0  0
   10.1922  -18.2723   24.6470 C   0  0  0  0  0  0  0  0  0  0  0  0
   11.2440  -19.2707   24.9468 C   0  0  0  0  0  0  0  0  0  0  0  0
   11.1379  -20.4476   24.5279 O   0  0  0  0  0  0  0  0  0  0  0  0
    9.4761  -15.6268   23.7161 C   0  0  0  0  0  0  0  0  0  0  0  0
   10.5042  -14.9226   23.5443 O   0  0  0  0  0  0  0  0  0  0  0  0
   12.3688  -18.9487   25.6901 O   0  0  0  0  0  0  0  0  0  0  0  0
    6.3296  -11.2917   26.7009 C   0  0  0  0  0  0  0  0  0  0  0  0
    7.5509  -12.1668   26.6708 C   0  0  0  0  0  0  0  0  0  0  0  0
    7.4560  -13.3191   25.7229 C   0  0  2  0  0  0  0  0  0  0  0  0
    6.3618  -14.2373   26.2212 C   0  0  0  0  0  0  0  0  0  0  0  0
    8.7221  -14.1262   25.6135 C   0  0  2  0  0  0  0  0  0  0  0  0
    8.5727  -15.2595   24.7225 N   0  0  0  0  0  0  0  0  0  0  0  0
    9.0199  -14.6477   26.9678 C   0  0  0  0  0  0  0  0  0  0  0  0
    9.3746  -13.8547   27.8676 O   0  0  0  0  0  0  0  0  0  0  0  0
    8.9242  -15.9842   27.2912 O   0  0  0  0  0  0  0  0  0  0  0  0
  2  1  1  6
  3  2  1  0
  3  4  1  0
  4  8  1  0
  4  5  2  0
  6  2  1  0
  6  7  2  0
  9  6  1  0
 10  9  1  0
 10 11  1  1
 12 11  1  0
 12 13  1  0
 13 14  2  0
 15 10  1  0
 15 23  1  0
 16 15  2  0
 17 13  1  0
 19 18  1  0
 20 19  1  0
 20 21  1  1
 22 23  1  6
 22 20  1  0
 24 22  1  0
 25 24  2  0
 26 24  1  0
M  END
$$$$
