DEI.pdb
     RDKit          3D

 26 25  0  0  1  0  0  0  0  0999 V2000
    9.0895  -17.8676   19.2072 N   0  0  0  0  0  0  0  0  0  0  0  0
    8.4680  -16.6026   19.4384 C   0  0  1  0  0  0  0  0  0  0  0  0
    7.4534  -16.2670   18.3779 C   0  0  0  0  0  0  0  0  0  0  0  0
    8.1214  -16.2037   17.0664 C   0  0  0  0  0  0  0  0  0  0  0  0
    9.3541  -16.4564   16.9150 O   0  0  0  0  0  0  0  0  0  0  0  0
    7.8611  -16.5216   20.8116 C   0  0  0  0  0  0  0  0  0  0  0  0
    6.7323  -15.9979   20.9900 O   0  0  0  0  0  0  0  0  0  0  0  0
    7.3886  -15.8568   15.9489 O   0  0  0  0  0  0  0  0  0  0  0  0
    8.5253  -17.0270   21.9635 N   0  0  0  0  0  0  0  0  0  0  0  0
    7.9131  -17.0127   23.2779 C   0  0  1  0  0  0  0  0  0  0  0  0
    7.8726  -18.3922   23.8958 C   0  0  0  0  0  0  0  0  0  0  0  0
    7.2043  -19.3987   23.0088 C   0  0  0  0  0  0  0  0  0  0  0  0
    7.2322  -20.7196   23.6776 C   0  0  0  0  0  0  0  0  0  0  0  0
    8.3248  -21.2431   24.0004 O   0  0  0  0  0  0  0  0  0  0  0  0
    8.5635  -16.0327   24.1799 C   0  0  0  0  0  0  0  0  0  0  0  0
    9.8151  -15.9331   24.1020 O   0  0  0  0  0  0  0  0  0  0  0  0
    6.0706  -21.4178   23.9684 O   0  0  0  0  0  0  0  0  0  0  0  0
    5.6806  -11.7132   26.3553 C   0  0  0  0  0  0  0  0  0  0  0  0
    6.7654  -12.5463   25.7331 C   0  0  0  0  0  0  0  0  0  0  0  0
    7.5106  -13.4060   26.7031 C   0  0  2  0  0  0  0  0  0  0  0  0
    8.2675  -12.4926   27.6421 C   0  0  0  0  0  0  0  0  0  0  0  0
    8.5061  -14.3333   26.0585 C   0  0  2  0  0  0  0  0  0  0  0  0
    7.8829  -15.2232   25.0994 N   0  0  0  0  0  0  0  0  0  0  0  0
    9.0861  -15.1632   27.1399 C   0  0  0  0  0  0  0  0  0  0  0  0
    8.5696  -16.2698   27.4099 O   0  0  0  0  0  0  0  0  0  0  0  0
   10.1840  -14.7708   27.8752 O   0  0  0  0  0  0  0  0  0  0  0  0
  2  1  1  6
  3  2  1  0
  3  4  1  0
  4  8  1  0
  4  5  2  0
  6  2  1  0
  6  7  2  0
  9  6  1  0
 10  9  1  0
 10 11  1  1
 12 11  1  0
 12 13  1  0
 13 14  2  0
 15 10  1  0
 15 23  1  0
 16 15  2  0
 17 13  1  0
 19 18  1  0
 20 19  1  0
 20 21  1  1
 22 23  1  6
 22 20  1  0
 24 22  1  0
 25 24  2  0
 26 24  1  0
M  END
$$$$
