DEI.pdb
     RDKit          3D

 26 25  0  0  1  0  0  0  0  0999 V2000
    8.7240  -16.0761   18.4354 N   0  0  0  0  0  0  0  0  0  0  0  0
    8.8251  -14.9733   19.3375 C   0  0  1  0  0  0  0  0  0  0  0  0
    7.8805  -13.8576   18.9773 C   0  0  0  0  0  0  0  0  0  0  0  0
    7.9820  -13.5794   17.5341 C   0  0  0  0  0  0  0  0  0  0  0  0
    6.9660  -13.5037   16.7802 O   0  0  0  0  0  0  0  0  0  0  0  0
    8.6353  -15.4018   20.7661 C   0  0  0  0  0  0  0  0  0  0  0  0
    7.5211  -15.2800   21.3353 O   0  0  0  0  0  0  0  0  0  0  0  0
    9.2263  -13.3916   16.9662 O   0  0  0  0  0  0  0  0  0  0  0  0
    9.6936  -15.9594   21.5358 N   0  0  0  0  0  0  0  0  0  0  0  0
    9.4671  -16.5815   22.8259 C   0  0  1  0  0  0  0  0  0  0  0  0
   10.2642  -17.8567   22.9845 C   0  0  0  0  0  0  0  0  0  0  0  0
   10.0999  -18.4708   24.3419 C   0  0  0  0  0  0  0  0  0  0  0  0
   10.9139  -19.7058   24.4103 C   0  0  0  0  0  0  0  0  0  0  0  0
   10.3714  -20.8295   24.2878 O   0  0  0  0  0  0  0  0  0  0  0  0
    9.7183  -15.6418   23.9444 C   0  0  0  0  0  0  0  0  0  0  0  0
   10.8575  -15.1106   23.9945 O   0  0  0  0  0  0  0  0  0  0  0  0
   12.2852  -19.6690   24.6091 O   0  0  0  0  0  0  0  0  0  0  0  0
    5.9435  -12.1557   25.8138 C   0  0  0  0  0  0  0  0  0  0  0  0
    7.2427  -12.8136   25.4430 C   0  0  0  0  0  0  0  0  0  0  0  0
    7.8036  -13.7045   26.5047 C   0  0  2  0  0  0  0  0  0  0  0  0
    8.1790  -12.8356   27.6849 C   0  0  0  0  0  0  0  0  0  0  0  0
    9.0328  -14.4626   26.0798 C   0  0  2  0  0  0  0  0  0  0  0  0
    8.7816  -15.3131   24.9336 N   0  0  0  0  0  0  0  0  0  0  0  0
    9.4183  -15.3315   27.2160 C   0  0  0  0  0  0  0  0  0  0  0  0
    9.0019  -16.5102   27.2576 O   0  0  0  0  0  0  0  0  0  0  0  0
   10.2259  -14.8995   28.2462 O   0  0  0  0  0  0  0  0  0  0  0  0
  2  1  1  6
  3  2  1  0
  3  4  1  0
  4  8  1  0
  4  5  2  0
  6  2  1  0
  6  7  2  0
  9  6  1  0
 10  9  1  0
 10 11  1  1
 12 11  1  0
 12 13  1  0
 13 14  2  0
 15 10  1  0
 15 23  1  0
 16 15  2  0
 17 13  1  0
 19 18  1  0
 20 19  1  0
 20 21  1  1
 22 23  1  6
 22 20  1  0
 24 22  1  0
 25 24  2  0
 26 24  1  0
M  END
$$$$
