DEI.pdb
     RDKit          3D

 26 25  0  0  1  0  0  0  0  0999 V2000
    9.6875  -17.1924   18.5509 N   0  0  0  0  0  0  0  0  0  0  0  0
    8.7379  -16.1286   18.6335 C   0  0  1  0  0  0  0  0  0  0  0  0
    7.7069  -16.2026   17.5389 C   0  0  0  0  0  0  0  0  0  0  0  0
    8.3749  -16.0860   16.2310 C   0  0  0  0  0  0  0  0  0  0  0  0
    9.1922  -15.1555   15.9622 O   0  0  0  0  0  0  0  0  0  0  0  0
    8.0856  -16.0667   19.9868 C   0  0  0  0  0  0  0  0  0  0  0  0
    7.2397  -15.1769   20.2570 O   0  0  0  0  0  0  0  0  0  0  0  0
    8.1099  -17.0200   15.2493 O   0  0  0  0  0  0  0  0  0  0  0  0
    8.3891  -17.0001   21.0165 N   0  0  0  0  0  0  0  0  0  0  0  0
    7.7553  -16.9472   22.3196 C   0  0  1  0  0  0  0  0  0  0  0  0
    7.4734  -18.3288   22.8657 C   0  0  0  0  0  0  0  0  0  0  0  0
    8.6197  -19.2721   22.6590 C   0  0  0  0  0  0  0  0  0  0  0  0
    8.2482  -20.6016   23.1950 C   0  0  0  0  0  0  0  0  0  0  0  0
    8.7057  -20.9911   24.2955 O   0  0  0  0  0  0  0  0  0  0  0  0
    8.5355  -16.1323   23.2810 C   0  0  0  0  0  0  0  0  0  0  0  0
    9.7874  -16.2487   23.2389 O   0  0  0  0  0  0  0  0  0  0  0  0
    7.3942  -21.4538   22.5126 O   0  0  0  0  0  0  0  0  0  0  0  0
    5.9869  -12.3491   26.9005 C   0  0  0  0  0  0  0  0  0  0  0  0
    6.6315  -13.5177   26.2098 C   0  0  0  0  0  0  0  0  0  0  0  0
    7.9370  -13.1984   25.5546 C   0  0  2  0  0  0  0  0  0  0  0  0
    7.6435  -12.3809   24.3159 C   0  0  0  0  0  0  0  0  0  0  0  0
    8.7214  -14.4119   25.1319 C   0  0  2  0  0  0  0  0  0  0  0  0
    7.9753  -15.2545   24.2189 N   0  0  0  0  0  0  0  0  0  0  0  0
    8.9941  -15.1980   26.3576 C   0  0  0  0  0  0  0  0  0  0  0  0
    8.4271  -16.3010   26.5194 O   0  0  0  0  0  0  0  0  0  0  0  0
    9.8551  -14.7681   27.3445 O   0  0  0  0  0  0  0  0  0  0  0  0
  2  1  1  1
  3  2  1  0
  3  4  1  0
  4  8  1  0
  4  5  2  0
  6  2  1  0
  6  7  2  0
  9  6  1  0
 10  9  1  0
 10 11  1  1
 12 11  1  0
 12 13  1  0
 13 14  2  0
 15 10  1  0
 15 23  1  0
 16 15  2  0
 17 13  1  0
 19 18  1  0
 20 19  1  0
 20 21  1  6
 22 23  1  6
 22 20  1  0
 24 22  1  0
 25 24  2  0
 26 24  1  0
M  END
$$$$
