IAG.pdb
     RDKit          3D

 18 17  0  0  1  0  0  0  0  0999 V2000
   23.6865  -13.6798  -17.0617 C   0  0  0  0  0  0  0  0  0  0  0  0
   23.1962  -12.8241  -15.9472 C   0  0  0  0  0  0  0  0  0  0  0  0
   23.0950  -11.3440  -16.2954 C   0  0  2  0  0  0  0  0  0  0  0  0
   24.5151  -10.9018  -16.5765 C   0  0  0  0  0  0  0  0  0  0  0  0
   22.5534  -10.6355  -15.0725 C   0  0  2  0  0  0  0  0  0  0  0  0
   21.3399  -11.3576  -14.6748 N   0  0  0  0  0  0  0  0  0  0  0  0
   22.1963   -9.2348  -15.2905 C   0  0  0  0  0  0  0  0  0  0  0  0
   23.1238   -8.3733  -15.4889 O   0  0  0  0  0  0  0  0  0  0  0  0
   19.1483   -7.0332  -15.7920 C   0  0  0  0  0  0  0  0  0  0  0  0
   20.5953   -7.2927  -15.5331 C   0  0  2  0  0  0  0  0  0  0  0  0
   20.8894   -8.6905  -15.3108 N   0  0  0  0  0  0  0  0  0  0  0  0
   21.0374   -6.4436  -14.4054 C   0  0  0  0  0  0  0  0  0  0  0  0
   21.1123   -6.9408  -13.2612 O   0  0  0  0  0  0  0  0  0  0  0  0
   21.3773   -5.0844  -14.5889 N   0  0  0  0  0  0  0  0  0  0  0  0
   21.8325   -4.2329  -13.4979 C   0  0  0  0  0  0  0  0  0  0  0  0
   22.0115   -2.8287  -13.9765 C   0  0  0  0  0  0  0  0  0  0  0  0
   22.3603   -1.8579  -13.0680 O   0  0  0  0  0  0  0  0  0  0  0  0
   21.8534   -2.5242  -15.1644 O   0  0  0  0  0  0  0  0  0  0  0  0
  2  1  1  0
  3  2  1  0
  3  4  1  1
  5  7  1  0
  5  3  1  0
  5  6  1  6
  7  8  2  0
 10  9  1  1
 10 12  1  0
 11 10  1  0
 11  7  1  0
 12 13  2  0
 12 14  1  0
 14 15  1  0
 15 16  1  0
 16 18  2  0
 16 17  1  0
M  END
$$$$
