IAG.pdb
     RDKit          3D

 18 17  0  0  1  0  0  0  0  0999 V2000
   28.2477  -19.3255   -6.3205 C   0  0  0  0  0  0  0  0  0  0  0  0
   28.1861  -20.4060   -7.3420 C   0  0  0  0  0  0  0  0  0  0  0  0
   27.4355  -20.0221   -8.6114 C   0  0  2  0  0  0  0  0  0  0  0  0
   25.9928  -19.8515   -8.1861 C   0  0  0  0  0  0  0  0  0  0  0  0
   27.5687  -21.1818   -9.5748 C   0  0  2  0  0  0  0  0  0  0  0  0
   28.9968  -21.3028   -9.8877 N   0  0  0  0  0  0  0  0  0  0  0  0
   26.8419  -21.0136  -10.8320 C   0  0  0  0  0  0  0  0  0  0  0  0
   27.2867  -20.1931  -11.7100 O   0  0  0  0  0  0  0  0  0  0  0  0
   24.4850  -22.7484  -13.0861 C   0  0  0  0  0  0  0  0  0  0  0  0
   24.9797  -21.4780  -12.4782 C   0  0  2  0  0  0  0  0  0  0  0  0
   25.6521  -21.6789  -11.2144 N   0  0  0  0  0  0  0  0  0  0  0  0
   23.8481  -20.5322  -12.3637 C   0  0  0  0  0  0  0  0  0  0  0  0
   23.2915  -20.3795  -11.2551 O   0  0  0  0  0  0  0  0  0  0  0  0
   23.3804  -19.7968  -13.4759 N   0  0  0  0  0  0  0  0  0  0  0  0
   22.2503  -18.8809  -13.3947 C   0  0  0  0  0  0  0  0  0  0  0  0
   20.9696  -19.6452  -13.3012 C   0  0  0  0  0  0  0  0  0  0  0  0
   19.8208  -18.9741  -12.9559 O   0  0  0  0  0  0  0  0  0  0  0  0
   20.9224  -20.8600  -13.5263 O   0  0  0  0  0  0  0  0  0  0  0  0
  2  1  1  0
  3  2  1  0
  3  4  1  1
  5  7  1  0
  5  3  1  0
  5  6  1  6
  7  8  2  0
 10  9  1  1
 10 12  1  0
 11 10  1  0
 11  7  1  0
 12 13  2  0
 12 14  1  0
 14 15  1  0
 15 16  1  0
 16 18  2  0
 16 17  1  0
M  END
$$$$
