IAG.pdb
     RDKit          3D

 18 17  0  0  1  0  0  0  0  0999 V2000
   16.9372  -14.4242  -17.0754 C   0  0  0  0  0  0  0  0  0  0  0  0
   17.7523  -13.2252  -17.4114 C   0  0  0  0  0  0  0  0  0  0  0  0
   18.2574  -12.4544  -16.1978 C   0  0  2  0  0  0  0  0  0  0  0  0
   17.0123  -11.9845  -15.4766 C   0  0  0  0  0  0  0  0  0  0  0  0
   19.0445  -11.2712  -16.7187 C   0  0  2  0  0  0  0  0  0  0  0  0
   20.0594  -11.8128  -17.6289 N   0  0  0  0  0  0  0  0  0  0  0  0
   19.7296  -10.4955  -15.6861 C   0  0  0  0  0  0  0  0  0  0  0  0
   19.0390   -9.8957  -14.7888 O   0  0  0  0  0  0  0  0  0  0  0  0
   23.2302   -9.7140  -14.4452 C   0  0  0  0  0  0  0  0  0  0  0  0
   21.7506   -9.5285  -14.5140 C   0  0  2  0  0  0  0  0  0  0  0  0
   21.1280  -10.3199  -15.5511 N   0  0  0  0  0  0  0  0  0  0  0  0
   21.4575   -8.0861  -14.6614 C   0  0  0  0  0  0  0  0  0  0  0  0
   21.1857   -7.6322  -15.7938 O   0  0  0  0  0  0  0  0  0  0  0  0
   21.4769   -7.2082  -13.5543 N   0  0  0  0  0  0  0  0  0  0  0  0
   21.1194   -5.7998  -13.6606 C   0  0  0  0  0  0  0  0  0  0  0  0
   22.2737   -5.0105  -14.1874 C   0  0  0  0  0  0  0  0  0  0  0  0
   22.1070   -3.6658  -14.4186 O   0  0  0  0  0  0  0  0  0  0  0  0
   23.3678   -5.5382  -14.4180 O   0  0  0  0  0  0  0  0  0  0  0  0
  2  1  1  0
  3  2  1  0
  3  4  1  6
  5  7  1  0
  5  3  1  0
  5  6  1  6
  7  8  2  0
 10  9  1  6
 10 12  1  0
 11 10  1  0
 11  7  1  0
 12 13  2  0
 12 14  1  0
 14 15  1  0
 15 16  1  0
 16 18  2  0
 16 17  1  0
M  END
$$$$
