IAG.pdb
     RDKit          3D

 18 17  0  0  1  0  0  0  0  0999 V2000
   23.9462  -13.6376  -19.3913 C   0  0  0  0  0  0  0  0  0  0  0  0
   24.1059  -12.9004  -18.1084 C   0  0  0  0  0  0  0  0  0  0  0  0
   23.2573  -11.6390  -18.0042 C   0  0  2  0  0  0  0  0  0  0  0  0
   23.7778  -10.7170  -19.0860 C   0  0  0  0  0  0  0  0  0  0  0  0
   23.5112  -11.0441  -16.6358 C   0  0  2  0  0  0  0  0  0  0  0  0
   23.1702  -12.0838  -15.6586 N   0  0  0  0  0  0  0  0  0  0  0  0
   22.7134   -9.8573  -16.3319 C   0  0  0  0  0  0  0  0  0  0  0  0
   22.9898   -8.7489  -16.9121 O   0  0  0  0  0  0  0  0  0  0  0  0
   19.5136   -8.8615  -14.5860 C   0  0  0  0  0  0  0  0  0  0  0  0
   20.8482   -8.5843  -15.1944 C   0  0  2  0  0  0  0  0  0  0  0  0
   21.6217   -9.7819  -15.4336 N   0  0  0  0  0  0  0  0  0  0  0  0
   21.5696   -7.6159  -14.3400 C   0  0  0  0  0  0  0  0  0  0  0  0
   22.2285   -8.0365  -13.3648 O   0  0  0  0  0  0  0  0  0  0  0  0
   21.5327   -6.2272  -14.5984 N   0  0  0  0  0  0  0  0  0  0  0  0
   22.3056   -5.2625  -13.8274 C   0  0  0  0  0  0  0  0  0  0  0  0
   22.0802   -3.8811  -14.3506 C   0  0  0  0  0  0  0  0  0  0  0  0
   22.6335   -2.8184  -13.6768 O   0  0  0  0  0  0  0  0  0  0  0  0
   21.4110   -3.6757  -15.3698 O   0  0  0  0  0  0  0  0  0  0  0  0
  2  1  1  0
  3  2  1  0
  3  4  1  6
  5  7  1  0
  5  3  1  0
  5  6  1  1
  7  8  2  0
 10  9  1  1
 10 12  1  0
 11 10  1  0
 11  7  1  0
 12 13  2  0
 12 14  1  0
 14 15  1  0
 15 16  1  0
 16 18  2  0
 16 17  1  0
M  END
$$$$
