IAG.pdb
     RDKit          3D

 18 17  0  0  1  0  0  0  0  0999 V2000
   17.1940  -12.0683  -18.8238 C   0  0  0  0  0  0  0  0  0  0  0  0
   17.8983  -12.0313  -17.5133 C   0  0  0  0  0  0  0  0  0  0  0  0
   18.1610  -10.6259  -16.9860 C   0  0  2  0  0  0  0  0  0  0  0  0
   19.1716  -10.0242  -17.9389 C   0  0  0  0  0  0  0  0  0  0  0  0
   18.7608  -10.7743  -15.6043 C   0  0  2  0  0  0  0  0  0  0  0  0
   17.7517  -11.4499  -14.7814 N   0  0  0  0  0  0  0  0  0  0  0  0
   19.1054   -9.5117  -14.9530 C   0  0  0  0  0  0  0  0  0  0  0  0
   18.1761   -8.6755  -14.6718 O   0  0  0  0  0  0  0  0  0  0  0  0
   21.9995   -7.6952  -13.3401 C   0  0  0  0  0  0  0  0  0  0  0  0
   20.7062   -7.7585  -14.0827 C   0  0  2  0  0  0  0  0  0  0  0  0
   20.4011   -9.0821  -14.5775 N   0  0  0  0  0  0  0  0  0  0  0  0
   20.7281   -6.7501  -15.1648 C   0  0  0  0  0  0  0  0  0  0  0  0
   21.1251   -7.0848  -16.3016 O   0  0  0  0  0  0  0  0  0  0  0  0
   20.3114   -5.4178  -14.9457 N   0  0  0  0  0  0  0  0  0  0  0  0
   20.2707   -4.4214  -16.0079 C   0  0  0  0  0  0  0  0  0  0  0  0
   19.7626   -3.1198  -15.4781 C   0  0  0  0  0  0  0  0  0  0  0  0
   19.7727   -2.0194  -16.3019 O   0  0  0  0  0  0  0  0  0  0  0  0
   19.3363   -3.0130  -14.3224 O   0  0  0  0  0  0  0  0  0  0  0  0
  2  1  1  0
  3  2  1  0
  3  4  1  6
  5  7  1  0
  5  3  1  0
  5  6  1  1
  7  8  2  0
 10  9  1  6
 10 12  1  0
 11 10  1  0
 11  7  1  0
 12 13  2  0
 12 14  1  0
 14 15  1  0
 15 16  1  0
 16 18  2  0
 16 17  1  0
M  END
$$$$
