IAG.pdb
     RDKit          3D

 18 17  0  0  1  0  0  0  0  0999 V2000
   18.3741  -11.6171  -20.4329 C   0  0  0  0  0  0  0  0  0  0  0  0
   18.9404  -11.8779  -19.0816 C   0  0  0  0  0  0  0  0  0  0  0  0
   19.1193  -10.6279  -18.2285 C   0  0  2  0  0  0  0  0  0  0  0  0
   20.2385   -9.8511  -18.8882 C   0  0  0  0  0  0  0  0  0  0  0  0
   19.5373  -11.0875  -16.8484 C   0  0  2  0  0  0  0  0  0  0  0  0
   18.4495  -11.9316  -16.3421 N   0  0  0  0  0  0  0  0  0  0  0  0
   19.7564  -10.0066  -15.8888 C   0  0  0  0  0  0  0  0  0  0  0  0
   18.7654   -9.2827  -15.5206 O   0  0  0  0  0  0  0  0  0  0  0  0
   22.4030   -8.5832  -13.5940 C   0  0  0  0  0  0  0  0  0  0  0  0
   21.1669   -8.5011  -14.4267 C   0  0  2  0  0  0  0  0  0  0  0  0
   20.9876   -9.6474  -15.2891 N   0  0  0  0  0  0  0  0  0  0  0  0
   21.1862   -7.2308  -15.1844 C   0  0  0  0  0  0  0  0  0  0  0  0
   21.7917   -7.1821  -16.2767 O   0  0  0  0  0  0  0  0  0  0  0  0
   20.5373   -6.0709  -14.7046 N   0  0  0  0  0  0  0  0  0  0  0  0
   20.5808   -4.7965  -15.4093 C   0  0  0  0  0  0  0  0  0  0  0  0
   19.8558   -3.7481  -14.6294 C   0  0  0  0  0  0  0  0  0  0  0  0
   19.1266   -4.1271  -13.5275 O   0  0  0  0  0  0  0  0  0  0  0  0
   19.8981   -2.5554  -14.9524 O   0  0  0  0  0  0  0  0  0  0  0  0
  2  1  1  0
  3  2  1  0
  3  4  1  6
  5  7  1  0
  5  3  1  0
  5  6  1  1
  7  8  2  0
 10  9  1  6
 10 12  1  0
 11 10  1  0
 11  7  1  0
 12 13  2  0
 12 14  1  0
 14 15  1  0
 15 16  1  0
 16 18  2  0
 16 17  1  0
M  END
$$$$
