IAG.pdb
     RDKit          3D

 18 17  0  0  1  0  0  0  0  0999 V2000
   19.8154  -10.1056  -20.8249 C   0  0  0  0  0  0  0  0  0  0  0  0
   20.3892  -10.7750  -19.6260 C   0  0  0  0  0  0  0  0  0  0  0  0
   20.2966   -9.9509  -18.3475 C   0  0  2  0  0  0  0  0  0  0  0  0
   21.2414   -8.7863  -18.5537 C   0  0  0  0  0  0  0  0  0  0  0  0
   20.7816  -10.8306  -17.2153 C   0  0  2  0  0  0  0  0  0  0  0  0
   19.8779  -11.9851  -17.1671 N   0  0  0  0  0  0  0  0  0  0  0  0
   20.7697  -10.1905  -15.9011 C   0  0  0  0  0  0  0  0  0  0  0  0
   19.6699   -9.7213  -15.4405 O   0  0  0  0  0  0  0  0  0  0  0  0
   22.6874   -9.8023  -12.7323 C   0  0  0  0  0  0  0  0  0  0  0  0
   21.8477   -9.2295  -13.8255 C   0  0  2  0  0  0  0  0  0  0  0  0
   21.8772  -10.0196  -15.0357 N   0  0  0  0  0  0  0  0  0  0  0  0
   22.2643   -7.8301  -14.0629 C   0  0  0  0  0  0  0  0  0  0  0  0
   23.1323   -7.5915  -14.9299 O   0  0  0  0  0  0  0  0  0  0  0  0
   21.7056   -6.7560  -13.3342 N   0  0  0  0  0  0  0  0  0  0  0  0
   22.1586   -5.3801  -13.4892 C   0  0  0  0  0  0  0  0  0  0  0  0
   21.4515   -4.7274  -14.6325 C   0  0  0  0  0  0  0  0  0  0  0  0
   20.4410   -5.4118  -15.2648 O   0  0  0  0  0  0  0  0  0  0  0  0
   21.7544   -3.5925  -15.0186 O   0  0  0  0  0  0  0  0  0  0  0  0
  2  1  1  0
  3  2  1  0
  3  4  1  6
  5  7  1  0
  5  3  1  0
  5  6  1  1
  7  8  2  0
 10  9  1  1
 10 12  1  0
 11 10  1  0
 11  7  1  0
 12 13  2  0
 12 14  1  0
 14 15  1  0
 15 16  1  0
 16 18  2  0
 16 17  1  0
M  END
$$$$
