IAG.pdb
     RDKit          3D

 18 17  0  0  1  0  0  0  0  0999 V2000
   29.9828  -22.3502  -19.9066 C   0  0  0  0  0  0  0  0  0  0  0  0
   28.7139  -22.1707  -19.1500 C   0  0  0  0  0  0  0  0  0  0  0  0
   28.9059  -21.9429  -17.6555 C   0  0  2  0  0  0  0  0  0  0  0  0
   29.5970  -23.1899  -17.1469 C   0  0  0  0  0  0  0  0  0  0  0  0
   27.5270  -21.8164  -17.0443 C   0  0  2  0  0  0  0  0  0  0  0  0
   26.7529  -20.9467  -17.9366 N   0  0  0  0  0  0  0  0  0  0  0  0
   27.5073  -21.2264  -15.7069 C   0  0  0  0  0  0  0  0  0  0  0  0
   27.8400  -21.9436  -14.6987 O   0  0  0  0  0  0  0  0  0  0  0  0
   26.8876  -17.9122  -13.9617 C   0  0  0  0  0  0  0  0  0  0  0  0
   27.0522  -19.3945  -14.0245 C   0  0  2  0  0  0  0  0  0  0  0  0
   27.1496  -19.8969  -15.3764 N   0  0  0  0  0  0  0  0  0  0  0  0
   25.9480  -20.0289  -13.2720 C   0  0  0  0  0  0  0  0  0  0  0  0
   24.9215  -20.3913  -13.8861 O   0  0  0  0  0  0  0  0  0  0  0  0
   26.0242  -20.2358  -11.8762 N   0  0  0  0  0  0  0  0  0  0  0  0
   24.9384  -20.8310  -11.1085 C   0  0  0  0  0  0  0  0  0  0  0  0
   25.2445  -20.7727   -9.6471 C   0  0  0  0  0  0  0  0  0  0  0  0
   24.3070  -21.2350   -8.7544 O   0  0  0  0  0  0  0  0  0  0  0  0
   26.3159  -20.3204   -9.2273 O   0  0  0  0  0  0  0  0  0  0  0  0
  2  1  1  0
  3  2  1  0
  3  4  1  1
  5  7  1  0
  5  3  1  0
  5  6  1  6
  7  8  2  0
 10  9  1  6
 10 12  1  0
 11 10  1  0
 11  7  1  0
 12 13  2  0
 12 14  1  0
 14 15  1  0
 15 16  1  0
 16 18  2  0
 16 17  1  0
M  END
$$$$
