IAG.pdb
     RDKit          3D

 18 17  0  0  1  0  0  0  0  0999 V2000
   16.6674  -13.1833  -14.5415 C   0  0  0  0  0  0  0  0  0  0  0  0
   17.4091  -12.7785  -15.7665 C   0  0  0  0  0  0  0  0  0  0  0  0
   18.4805  -11.7219  -15.5263 C   0  0  2  0  0  0  0  0  0  0  0  0
   17.7384  -10.5140  -14.9956 C   0  0  0  0  0  0  0  0  0  0  0  0
   19.1062  -11.4098  -16.8687 C   0  0  2  0  0  0  0  0  0  0  0  0
   19.8212  -12.6203  -17.2876 N   0  0  0  0  0  0  0  0  0  0  0  0
   20.0608  -10.3027  -16.8511 C   0  0  0  0  0  0  0  0  0  0  0  0
   21.2321  -10.4906  -16.3668 O   0  0  0  0  0  0  0  0  0  0  0  0
   20.4983   -6.7906  -18.1891 C   0  0  0  0  0  0  0  0  0  0  0  0
   20.8198   -7.9290  -17.2786 C   0  0  2  0  0  0  0  0  0  0  0  0
   19.8373   -8.9882  -17.3272 N   0  0  0  0  0  0  0  0  0  0  0  0
   21.0074   -7.4048  -15.9081 C   0  0  0  0  0  0  0  0  0  0  0  0
   20.0146   -7.2939  -15.1571 O   0  0  0  0  0  0  0  0  0  0  0  0
   22.2807   -7.0263  -15.4265 N   0  0  0  0  0  0  0  0  0  0  0  0
   22.5157   -6.6430  -14.0406 C   0  0  0  0  0  0  0  0  0  0  0  0
   22.2040   -5.1949  -13.8435 C   0  0  0  0  0  0  0  0  0  0  0  0
   22.4475   -4.6254  -12.6164 O   0  0  0  0  0  0  0  0  0  0  0  0
   21.7351   -4.5034  -14.7550 O   0  0  0  0  0  0  0  0  0  0  0  0
  2  1  1  0
  3  2  1  0
  3  4  1  6
  5  7  1  0
  5  3  1  0
  5  6  1  1
  7  8  2  0
 10  9  1  6
 10 12  1  0
 11 10  1  0
 11  7  1  0
 12 13  2  0
 12 14  1  0
 14 15  1  0
 15 16  1  0
 16 18  2  0
 16 17  1  0
M  END
$$$$
