RCN.pdb
     RDKit          3D

 26 25  0  0  1  0  0  0  0  0999 V2000
    8.4113  -11.5095   18.0689 N   0  0  0  0  0  0  0  0  0  0  0  0
    8.4035  -12.8551   17.6183 C   0  0  0  0  0  0  0  0  0  0  0  0
    9.1697  -13.2832   16.6560 N   0  0  0  0  0  0  0  0  0  0  0  0
    7.5372  -13.8112   18.2153 N   0  0  0  0  0  0  0  0  0  0  0  0
    7.5264  -15.2017   17.8132 C   0  0  0  0  0  0  0  0  0  0  0  0
    7.2276  -16.1016   19.0053 C   0  0  0  0  0  0  0  0  0  0  0  0
    7.7666  -15.5480   20.2743 C   0  0  0  0  0  0  0  0  0  0  0  0
    7.4093  -16.4134   21.4490 C   0  0  2  0  0  0  0  0  0  0  0  0
    5.9444  -16.4492   21.5401 N   0  0  0  0  0  0  0  0  0  0  0  0
    7.9905  -15.9984   22.7336 C   0  0  0  0  0  0  0  0  0  0  0  0
    8.5461  -14.8485   22.7842 O   0  0  0  0  0  0  0  0  0  0  0  0
    9.1154  -14.2545   16.2999 N   0  0  0  0  0  0  0  0  0  0  0  0
    7.9623  -16.8029   23.8979 C   0  0  1  0  0  0  0  0  0  0  0  0
    8.7695  -16.4145   25.0410 C   0  0  0  0  0  0  0  0  0  0  0  0
    8.1508  -15.1716   25.6310 S   0  0  0  0  0  0  0  0  0  0  0  0
    6.3563  -15.3009   25.7075 C   0  0  0  0  0  0  0  0  0  0  0  0
    8.9326  -17.5295   25.9823 O   0  0  0  0  0  0  0  0  0  0  0  0
    7.8700  -18.1747   26.2907 N   0  0  0  0  0  0  0  0  0  0  0  0
   12.5058  -18.5110   26.2092 C   0  0  0  0  0  0  0  0  0  0  0  0
   12.1039  -19.8659   26.3009 O   0  0  0  0  0  0  0  0  0  0  0  0
   12.8327  -20.7788   25.7743 C   0  0  0  0  0  0  0  0  0  0  0  0
   10.8694  -20.2616   26.9890 C   0  0  1  0  0  0  0  0  0  0  0  0
   10.1255  -19.0932   27.5458 N   0  0  0  0  0  0  0  0  0  0  0  0
   10.1100  -17.9797   26.5877 C   0  0  0  0  0  0  0  0  0  0  0  0
   10.8136  -18.6472   28.7936 O   0  0  0  0  0  0  0  0  0  0  0  0
   11.3384  -17.4034   28.9733 O   0  0  0  0  0  0  0  0  0  0  0  0
  1  2  1  0
  2  3  2  0
  4  5  1  0
  4  2  1  0
  6  5  1  0
  7  6  1  0
  7  8  1  0
  8 10  1  0
  8  9  1  1
 10 11  2  0
 12 13  1  0
 12 10  1  0
 14 15  1  0
 13 14  1  1
 16 23  1  0
 16 13  1  0
 17 16  2  0
 19 21  1  0
 19 18  1  0
 20 19  2  0
 22 23  1  0
 22 21  1  6
 24 22  1  0
 25 24  1  0
 26 24  2  0
M  END
$$$$
