RCN.pdb
     RDKit          3D

 26 25  0  0  1  0  0  0  0  0999 V2000
    8.0877  -12.5808   19.9107 N   0  0  0  0  0  0  0  0  0  0  0  0
    8.1181  -13.2554   18.6627 C   0  0  0  0  0  0  0  0  0  0  0  0
    8.6613  -12.7439   17.5952 N   0  0  0  0  0  0  0  0  0  0  0  0
    7.5423  -14.5481   18.5267 N   0  0  0  0  0  0  0  0  0  0  0  0
    7.0383  -15.2930   19.6609 C   0  0  0  0  0  0  0  0  0  0  0  0
    7.9651  -16.4553   19.9928 C   0  0  0  0  0  0  0  0  0  0  0  0
    9.0867  -16.0433   20.8756 C   0  0  0  0  0  0  0  0  0  0  0  0
    9.0818  -16.8100   22.1674 C   0  0  2  0  0  0  0  0  0  0  0  0
    7.7470  -17.4011   22.3236 N   0  0  0  0  0  0  0  0  0  0  0  0
    9.4372  -16.0298   23.3613 C   0  0  0  0  0  0  0  0  0  0  0  0
   10.5837  -15.4651   23.3756 O   0  0  0  0  0  0  0  0  0  0  0  0
    8.5407  -13.1694   16.6583 N   0  0  0  0  0  0  0  0  0  0  0  0
    8.5797  -15.8787   24.4772 C   0  0  1  0  0  0  0  0  0  0  0  0
    9.1069  -15.2876   25.6945 C   0  0  0  0  0  0  0  0  0  0  0  0
    8.1021  -14.2706   26.1761 S   0  0  0  0  0  0  0  0  0  0  0  0
    8.6691  -13.4396   27.6697 C   0  0  0  0  0  0  0  0  0  0  0  0
    9.4618  -16.3186   26.6778 O   0  0  0  0  0  0  0  0  0  0  0  0
    8.5734  -17.2106   26.9138 N   0  0  0  0  0  0  0  0  0  0  0  0
   12.9971  -18.3670   25.9172 C   0  0  0  0  0  0  0  0  0  0  0  0
   12.0386  -18.8196   26.8564 O   0  0  0  0  0  0  0  0  0  0  0  0
   11.1797  -19.7039   26.5072 C   0  0  0  0  0  0  0  0  0  0  0  0
   11.9995  -18.3054   28.2305 C   0  0  2  0  0  0  0  0  0  0  0  0
   10.8180  -17.4273   28.4790 N   0  0  0  0  0  0  0  0  0  0  0  0
   10.6560  -16.4510   27.3933 C   0  0  0  0  0  0  0  0  0  0  0  0
   11.0375  -16.6929   29.7603 O   0  0  0  0  0  0  0  0  0  0  0  0
   11.2789  -17.2987   30.9559 O   0  0  0  0  0  0  0  0  0  0  0  0
  1  2  1  0
  2  3  2  0
  4  5  1  0
  4  2  1  0
  6  5  1  0
  7  6  1  0
  7  8  1  0
  8 10  1  0
  8  9  1  1
 10 11  2  0
 12 13  1  0
 12 10  1  0
 14 15  1  0
 13 14  1  6
 16 23  1  0
 16 13  1  0
 17 16  2  0
 19 21  1  0
 19 18  1  0
 20 19  2  0
 22 23  1  0
 22 21  1  6
 24 22  1  0
 25 24  1  0
 26 24  2  0
M  END
$$$$
