RCN.pdb
     RDKit          3D

 26 25  0  0  1  0  0  0  0  0999 V2000
    9.0276  -16.3870   13.1226 N   0  0  0  0  0  0  0  0  0  0  0  0
    9.4842  -17.2232   14.1743 C   0  0  0  0  0  0  0  0  0  0  0  0
   10.3040  -18.2171   13.9825 N   0  0  0  0  0  0  0  0  0  0  0  0
    9.0534  -17.0023   15.5109 N   0  0  0  0  0  0  0  0  0  0  0  0
    7.8791  -16.2163   15.8247 C   0  0  0  0  0  0  0  0  0  0  0  0
    8.1982  -14.7283   15.7615 C   0  0  0  0  0  0  0  0  0  0  0  0
    8.9163  -14.2572   16.9739 C   0  0  0  0  0  0  0  0  0  0  0  0
    7.9657  -13.9705   18.1011 C   0  0  2  0  0  0  0  0  0  0  0  0
    7.1853  -12.7842   17.7281 N   0  0  0  0  0  0  0  0  0  0  0  0
    8.5926  -13.7760   19.4162 C   0  0  0  0  0  0  0  0  0  0  0  0
    9.4206  -12.8099   19.5365 O   0  0  0  0  0  0  0  0  0  0  0  0
   10.6649  -18.7918   14.7654 N   0  0  0  0  0  0  0  0  0  0  0  0
    8.3239  -14.5980   20.5368 C   0  0  2  0  0  0  0  0  0  0  0  0
    9.0591  -14.3706   21.7684 C   0  0  0  0  0  0  0  0  0  0  0  0
    8.0482  -14.1158   22.8588 S   0  0  0  0  0  0  0  0  0  0  0  0
    6.9022  -15.4942   23.0306 C   0  0  0  0  0  0  0  0  0  0  0  0
    9.9970  -15.4671   22.0400 O   0  0  0  0  0  0  0  0  0  0  0  0
    9.5857  -16.6492   21.7679 N   0  0  0  0  0  0  0  0  0  0  0  0
   14.4991  -14.6228   21.0951 C   0  0  0  0  0  0  0  0  0  0  0  0
   13.9104  -15.8816   21.3679 O   0  0  0  0  0  0  0  0  0  0  0  0
   13.6850  -16.6963   20.4050 C   0  0  0  0  0  0  0  0  0  0  0  0
   13.5498  -16.2876   22.7314 C   0  0  2  0  0  0  0  0  0  0  0  0
   12.0919  -16.5742   22.8760 N   0  0  0  0  0  0  0  0  0  0  0  0
   11.2922  -15.3829   22.5607 C   0  0  0  0  0  0  0  0  0  0  0  0
   11.8276  -16.9729   24.2904 O   0  0  0  0  0  0  0  0  0  0  0  0
   11.5994  -16.0906   25.3024 O   0  0  0  0  0  0  0  0  0  0  0  0
  1  2  1  0
  2  3  2  0
  4  5  1  0
  4  2  1  0
  6  5  1  0
  7  6  1  0
  7  8  1  0
  8 10  1  0
  8  9  1  6
 10 11  2  0
 12 13  1  0
 12 10  1  0
 14 15  1  0
 13 14  1  6
 16 23  1  0
 16 13  1  0
 17 16  2  0
 19 21  1  0
 19 18  1  0
 20 19  2  0
 22 23  1  0
 22 21  1  6
 24 22  1  0
 25 24  1  0
 26 24  2  0
M  END
$$$$
