RCN.pdb
     RDKit          3D

 26 25  0  0  1  0  0  0  0  0999 V2000
    7.9320  -13.3917   15.7840 N   0  0  0  0  0  0  0  0  0  0  0  0
    8.4810  -13.3832   17.0926 C   0  0  0  0  0  0  0  0  0  0  0  0
    8.7377  -12.2855   17.7448 N   0  0  0  0  0  0  0  0  0  0  0  0
    8.7790  -14.6035   17.7582 N   0  0  0  0  0  0  0  0  0  0  0  0
    7.7453  -15.4688   18.2856 C   0  0  0  0  0  0  0  0  0  0  0  0
    6.9523  -14.7549   19.3725 C   0  0  0  0  0  0  0  0  0  0  0  0
    6.7233  -15.6197   20.5587 C   0  0  0  0  0  0  0  0  0  0  0  0
    7.9908  -15.8378   21.3348 C   0  0  2  0  0  0  0  0  0  0  0  0
    8.3877  -17.2386   21.1451 N   0  0  0  0  0  0  0  0  0  0  0  0
    7.9116  -15.5195   22.7676 C   0  0  0  0  0  0  0  0  0  0  0  0
    7.2650  -14.4691   23.1023 O   0  0  0  0  0  0  0  0  0  0  0  0
    9.2142  -12.2904   18.6647 N   0  0  0  0  0  0  0  0  0  0  0  0
    8.5100  -16.3121   23.7761 C   0  0  1  0  0  0  0  0  0  0  0  0
    8.2674  -15.9793   25.1688 C   0  0  0  0  0  0  0  0  0  0  0  0
    6.8009  -16.2063   25.4399 S   0  0  0  0  0  0  0  0  0  0  0  0
    6.4502  -17.9438   25.7572 C   0  0  0  0  0  0  0  0  0  0  0  0
    9.1798  -16.7088   26.0583 O   0  0  0  0  0  0  0  0  0  0  0  0
    9.9699  -17.5481   25.4998 N   0  0  0  0  0  0  0  0  0  0  0  0
    9.7451  -13.8405   30.0774 C   0  0  0  0  0  0  0  0  0  0  0  0
   10.3836  -14.6568   29.1122 O   0  0  0  0  0  0  0  0  0  0  0  0
   10.7070  -14.1586   27.9769 C   0  0  0  0  0  0  0  0  0  0  0  0
   10.6921  -16.0675   29.3745 C   0  0  2  0  0  0  0  0  0  0  0  0
   10.5414  -16.9213   28.1592 N   0  0  0  0  0  0  0  0  0  0  0  0
    9.2967  -16.6011   27.4477 C   0  0  0  0  0  0  0  0  0  0  0  0
   10.4980  -18.3505   28.5893 O   0  0  0  0  0  0  0  0  0  0  0  0
   11.5224  -18.9896   29.2194 O   0  0  0  0  0  0  0  0  0  0  0  0
  1  2  1  0
  2  3  2  0
  4  5  1  0
  4  2  1  0
  6  5  1  0
  7  6  1  0
  7  8  1  0
  8 10  1  0
  8  9  1  1
 10 11  2  0
 12 13  1  0
 12 10  1  0
 14 15  1  0
 13 14  1  1
 16 23  1  0
 16 13  1  0
 17 16  2  0
 19 21  1  0
 19 18  1  0
 20 19  2  0
 22 23  1  0
 22 21  1  6
 24 22  1  0
 25 24  1  0
 26 24  2  0
M  END
$$$$
