RCN.pdb
     RDKit          3D

 26 25  0  0  1  0  0  0  0  0999 V2000
    6.7577  -13.3195   15.8624 N   0  0  0  0  0  0  0  0  0  0  0  0
    8.1400  -13.6204   15.7514 C   0  0  0  0  0  0  0  0  0  0  0  0
    8.6964  -13.9873   14.6323 N   0  0  0  0  0  0  0  0  0  0  0  0
    8.9917  -13.5306   16.8861 N   0  0  0  0  0  0  0  0  0  0  0  0
    8.6779  -14.1794   18.1414 C   0  0  0  0  0  0  0  0  0  0  0  0
    7.5595  -13.4382   18.8624 C   0  0  0  0  0  0  0  0  0  0  0  0
    7.8353  -13.2826   20.3140 C   0  0  0  0  0  0  0  0  0  0  0  0
    8.1204  -14.6056   20.9659 C   0  0  2  0  0  0  0  0  0  0  0  0
    6.9253  -15.4429   20.8039 N   0  0  0  0  0  0  0  0  0  0  0  0
    8.5069  -14.5366   22.3823 C   0  0  0  0  0  0  0  0  0  0  0  0
    9.0270  -13.4456   22.7980 O   0  0  0  0  0  0  0  0  0  0  0  0
    9.7160  -14.1529   14.5529 N   0  0  0  0  0  0  0  0  0  0  0  0
    8.3313  -15.6075   23.2910 C   0  0  1  0  0  0  0  0  0  0  0  0
    8.7885  -15.4501   24.6605 C   0  0  0  0  0  0  0  0  0  0  0  0
    8.0251  -14.2970   25.2632 S   0  0  0  0  0  0  0  0  0  0  0  0
    6.2623  -14.6519   25.3596 C   0  0  0  0  0  0  0  0  0  0  0  0
    8.6893  -16.7122   25.4042 O   0  0  0  0  0  0  0  0  0  0  0  0
    7.9737  -17.6320   24.8727 N   0  0  0  0  0  0  0  0  0  0  0  0
   13.0169  -19.6099   25.0792 C   0  0  0  0  0  0  0  0  0  0  0  0
   11.8080  -18.8808   24.9663 O   0  0  0  0  0  0  0  0  0  0  0  0
   10.9682  -19.1871   24.0483 C   0  0  0  0  0  0  0  0  0  0  0  0
   11.4822  -17.7775   25.8776 C   0  0  2  0  0  0  0  0  0  0  0  0
   10.3093  -18.0832   26.7492 N   0  0  0  0  0  0  0  0  0  0  0  0
    9.2828  -17.0394   26.6275 C   0  0  0  0  0  0  0  0  0  0  0  0
   10.7765  -18.1384   28.1662 O   0  0  0  0  0  0  0  0  0  0  0  0
   10.9890  -19.2935   28.8556 O   0  0  0  0  0  0  0  0  0  0  0  0
  1  2  1  0
  2  3  2  0
  4  5  1  0
  4  2  1  0
  6  5  1  0
  7  6  1  0
  7  8  1  0
  8 10  1  0
  8  9  1  1
 10 11  2  0
 12 13  1  0
 12 10  1  0
 14 15  1  0
 13 14  1  1
 16 23  1  0
 16 13  1  0
 17 16  2  0
 19 21  1  0
 19 18  1  0
 20 19  2  0
 22 23  1  0
 22 21  1  6
 24 22  1  0
 25 24  1  0
 26 24  2  0
M  END
$$$$
