RCN.pdb
     RDKit          3D

 26 25  0  0  1  0  0  0  0  0999 V2000
    8.4004  -14.0383   14.9143 N   0  0  0  0  0  0  0  0  0  0  0  0
    8.2417  -13.7628   16.2973 C   0  0  0  0  0  0  0  0  0  0  0  0
    8.8139  -12.7526   16.8874 N   0  0  0  0  0  0  0  0  0  0  0  0
    7.4314  -14.6002   17.1117 N   0  0  0  0  0  0  0  0  0  0  0  0
    7.2512  -14.3607   18.5279 C   0  0  0  0  0  0  0  0  0  0  0  0
    7.7940  -15.5281   19.3417 C   0  0  0  0  0  0  0  0  0  0  0  0
    8.6243  -15.0747   20.4873 C   0  0  0  0  0  0  0  0  0  0  0  0
    8.1612  -15.6849   21.7795 C   0  0  2  0  0  0  0  0  0  0  0  0
    6.7213  -15.9424   21.6537 N   0  0  0  0  0  0  0  0  0  0  0  0
    8.4336  -14.8867   22.9832 C   0  0  0  0  0  0  0  0  0  0  0  0
    9.6187  -14.4318   23.1321 O   0  0  0  0  0  0  0  0  0  0  0  0
    8.6532  -12.5363   17.8878 N   0  0  0  0  0  0  0  0  0  0  0  0
    7.4573  -14.6043   23.9684 C   0  0  1  0  0  0  0  0  0  0  0  0
    7.8760  -13.9991   25.2205 C   0  0  0  0  0  0  0  0  0  0  0  0
    6.6936  -13.2456   25.7770 S   0  0  0  0  0  0  0  0  0  0  0  0
    7.0541  -12.5605   27.4028 C   0  0  0  0  0  0  0  0  0  0  0  0
    8.4546  -14.9976   26.1283 O   0  0  0  0  0  0  0  0  0  0  0  0
    7.6860  -15.9592   26.4820 N   0  0  0  0  0  0  0  0  0  0  0  0
   11.8224  -16.9224   24.8586 C   0  0  0  0  0  0  0  0  0  0  0  0
   11.3449  -17.4294   26.0917 O   0  0  0  0  0  0  0  0  0  0  0  0
   10.8181  -18.5967   26.1340 C   0  0  0  0  0  0  0  0  0  0  0  0
   11.4378  -16.6546   27.3347 C   0  0  2  0  0  0  0  0  0  0  0  0
   10.1485  -15.9936   27.6942 N   0  0  0  0  0  0  0  0  0  0  0  0
    9.7484  -15.0321   26.6580 C   0  0  0  0  0  0  0  0  0  0  0  0
   10.3358  -15.2643   28.9835 O   0  0  0  0  0  0  0  0  0  0  0  0
   10.1532  -13.9232   29.1357 O   0  0  0  0  0  0  0  0  0  0  0  0
  1  2  1  0
  2  3  2  0
  4  5  1  0
  4  2  1  0
  6  5  1  0
  7  6  1  0
  7  8  1  0
  8 10  1  0
  8  9  1  6
 10 11  2  0
 12 13  1  0
 12 10  1  0
 14 15  1  0
 13 14  1  1
 16 23  1  0
 16 13  1  0
 17 16  2  0
 19 21  1  0
 19 18  1  0
 20 19  2  0
 22 23  1  0
 22 21  1  6
 24 22  1  0
 25 24  1  0
 26 24  2  0
M  END
$$$$
