RCN.pdb
     RDKit          3D

 26 25  0  0  1  0  0  0  0  0999 V2000
    9.5629  -13.9799   14.4346 N   0  0  0  0  0  0  0  0  0  0  0  0
    8.2255  -13.5103   14.3681 C   0  0  0  0  0  0  0  0  0  0  0  0
    7.8512  -12.5521   13.5692 N   0  0  0  0  0  0  0  0  0  0  0  0
    7.2177  -14.0826   15.1915 N   0  0  0  0  0  0  0  0  0  0  0  0
    7.5279  -14.7765   16.4234 C   0  0  0  0  0  0  0  0  0  0  0  0
    7.8443  -13.7822   17.5330 C   0  0  0  0  0  0  0  0  0  0  0  0
    7.3011  -14.2162   18.8460 C   0  0  0  0  0  0  0  0  0  0  0  0
    7.9873  -15.4563   19.3438 C   0  0  2  0  0  0  0  0  0  0  0  0
    6.9535  -16.4774   19.5541 N   0  0  0  0  0  0  0  0  0  0  0  0
    8.7889  -15.2830   20.5635 C   0  0  0  0  0  0  0  0  0  0  0  0
    9.7459  -14.4368   20.5236 O   0  0  0  0  0  0  0  0  0  0  0  0
    6.8546  -12.2994   13.4418 N   0  0  0  0  0  0  0  0  0  0  0  0
    8.5513  -16.0000   21.7605 C   0  0  1  0  0  0  0  0  0  0  0  0
    9.4804  -15.8499   22.8666 C   0  0  0  0  0  0  0  0  0  0  0  0
    8.6694  -15.8184   24.1382 S   0  0  0  0  0  0  0  0  0  0  0  0
    9.7276  -15.8120   25.5952 C   0  0  0  0  0  0  0  0  0  0  0  0
   10.5273  -16.8787   22.8273 O   0  0  0  0  0  0  0  0  0  0  0  0
   10.1354  -18.0831   22.6367 N   0  0  0  0  0  0  0  0  0  0  0  0
   12.1485  -18.3331   20.3263 C   0  0  0  0  0  0  0  0  0  0  0  0
   13.4337  -17.8098   20.6095 O   0  0  0  0  0  0  0  0  0  0  0  0
   14.1965  -17.4497   19.6450 C   0  0  0  0  0  0  0  0  0  0  0  0
   13.9229  -17.6627   21.9854 C   0  0  2  0  0  0  0  0  0  0  0  0
   12.8415  -17.8417   22.9989 N   0  0  0  0  0  0  0  0  0  0  0  0
   11.9077  -16.7080   22.9714 C   0  0  0  0  0  0  0  0  0  0  0  0
   13.4703  -17.9170   24.3511 O   0  0  0  0  0  0  0  0  0  0  0  0
   13.2463  -17.0171   25.3484 O   0  0  0  0  0  0  0  0  0  0  0  0
  1  2  1  0
  2  3  2  0
  4  5  1  0
  4  2  1  0
  6  5  1  0
  7  6  1  0
  7  8  1  0
  8 10  1  0
  8  9  1  1
 10 11  2  0
 12 13  1  0
 12 10  1  0
 14 15  1  0
 13 14  1  6
 16 23  1  0
 16 13  1  0
 17 16  2  0
 19 21  1  0
 19 18  1  0
 20 19  2  0
 22 23  1  0
 22 21  1  6
 24 22  1  0
 25 24  1  0
 26 24  2  0
M  END
$$$$
