RCN.pdb
     RDKit          3D

 26 25  0  0  1  0  0  0  0  0999 V2000
    8.8202  -12.3844   18.9709 N   0  0  0  0  0  0  0  0  0  0  0  0
    7.7505  -13.2827   19.2210 C   0  0  0  0  0  0  0  0  0  0  0  0
    6.5346  -12.8844   19.4646 N   0  0  0  0  0  0  0  0  0  0  0  0
    7.9710  -14.6871   19.2150 N   0  0  0  0  0  0  0  0  0  0  0  0
    9.2971  -15.2610   19.1283 C   0  0  0  0  0  0  0  0  0  0  0  0
   10.1198  -14.8962   20.3571 C   0  0  0  0  0  0  0  0  0  0  0  0
   10.5938  -16.0978   21.0912 C   0  0  0  0  0  0  0  0  0  0  0  0
    9.6207  -16.5114   22.1583 C   0  0  2  0  0  0  0  0  0  0  0  0
    8.3096  -15.9580   21.7970 N   0  0  0  0  0  0  0  0  0  0  0  0
    9.9832  -16.1135   23.5260 C   0  0  0  0  0  0  0  0  0  0  0  0
   11.2010  -16.2692   23.8811 O   0  0  0  0  0  0  0  0  0  0  0  0
    5.7662  -13.5508   19.6617 N   0  0  0  0  0  0  0  0  0  0  0  0
    9.0581  -15.5744   24.4517 C   0  0  1  0  0  0  0  0  0  0  0  0
    9.5152  -15.2392   25.7889 C   0  0  0  0  0  0  0  0  0  0  0  0
    8.5826  -14.1872   26.3359 S   0  0  0  0  0  0  0  0  0  0  0  0
    9.0350  -13.7127   28.0131 C   0  0  0  0  0  0  0  0  0  0  0  0
    9.6489  -16.4399   26.6234 O   0  0  0  0  0  0  0  0  0  0  0  0
    8.5776  -17.1096   26.8339 N   0  0  0  0  0  0  0  0  0  0  0  0
   12.5876  -19.3166   25.4415 C   0  0  0  0  0  0  0  0  0  0  0  0
   11.5296  -19.4986   26.3652 O   0  0  0  0  0  0  0  0  0  0  0  0
   10.4122  -19.9776   25.9605 C   0  0  0  0  0  0  0  0  0  0  0  0
   11.6748  -19.1560   27.7848 C   0  0  2  0  0  0  0  0  0  0  0  0
   10.7705  -18.0430   28.1998 N   0  0  0  0  0  0  0  0  0  0  0  0
   10.8067  -16.9486   27.2204 C   0  0  0  0  0  0  0  0  0  0  0  0
   11.2358  -17.5248   29.5205 O   0  0  0  0  0  0  0  0  0  0  0  0
   11.6379  -16.2420   29.7387 O   0  0  0  0  0  0  0  0  0  0  0  0
  1  2  1  0
  2  3  2  0
  4  5  1  0
  4  2  1  0
  6  5  1  0
  7  6  1  0
  7  8  1  0
  8 10  1  0
  8  9  1  6
 10 11  2  0
 12 13  1  0
 12 10  1  0
 14 15  1  0
 13 14  1  6
 16 23  1  0
 16 13  1  0
 17 16  2  0
 19 21  1  0
 19 18  1  0
 20 19  2  0
 22 23  1  0
 22 21  1  6
 24 22  1  0
 25 24  1  0
 26 24  2  0
M  END
$$$$
