RCN.pdb
     RDKit          3D

 26 25  0  0  1  0  0  0  0  0999 V2000
    8.2352  -18.8619   21.1573 N   0  0  0  0  0  0  0  0  0  0  0  0
    8.8593  -18.6724   19.8970 C   0  0  0  0  0  0  0  0  0  0  0  0
    9.8792  -19.3782   19.4995 N   0  0  0  0  0  0  0  0  0  0  0  0
    8.3828  -17.6799   18.9976 N   0  0  0  0  0  0  0  0  0  0  0  0
    7.2827  -16.7997   19.3298 C   0  0  0  0  0  0  0  0  0  0  0  0
    7.8016  -15.4400   19.7789 C   0  0  0  0  0  0  0  0  0  0  0  0
    6.7033  -14.4601   19.9816 C   0  0  0  0  0  0  0  0  0  0  0  0
    7.2101  -13.1809   20.5844 C   0  0  2  0  0  0  0  0  0  0  0  0
    8.1541  -12.5877   19.6291 N   0  0  0  0  0  0  0  0  0  0  0  0
    7.8389  -13.3161   21.9060 C   0  0  0  0  0  0  0  0  0  0  0  0
    9.1053  -13.1584   21.9742 O   0  0  0  0  0  0  0  0  0  0  0  0
   10.3445  -19.2090   18.5894 N   0  0  0  0  0  0  0  0  0  0  0  0
    7.1153  -13.6083   23.0869 C   0  0  2  0  0  0  0  0  0  0  0  0
    7.8210  -13.6340   24.3560 C   0  0  0  0  0  0  0  0  0  0  0  0
    6.9389  -12.9614   25.3783 S   0  0  0  0  0  0  0  0  0  0  0  0
    7.6640  -13.0344   27.0250 C   0  0  0  0  0  0  0  0  0  0  0  0
    8.2419  -14.9967   24.7047 O   0  0  0  0  0  0  0  0  0  0  0  0
    7.3381  -15.9029   24.6534 N   0  0  0  0  0  0  0  0  0  0  0  0
    9.8950  -17.5992   22.8324 C   0  0  0  0  0  0  0  0  0  0  0  0
   11.0896  -17.6285   23.5925 O   0  0  0  0  0  0  0  0  0  0  0  0
   12.1893  -17.9677   23.0292 C   0  0  0  0  0  0  0  0  0  0  0  0
   11.1087  -17.2764   25.0171 C   0  0  2  0  0  0  0  0  0  0  0  0
    9.7771  -16.8154   25.5101 N   0  0  0  0  0  0  0  0  0  0  0  0
    9.5142  -15.4332   25.0873 C   0  0  0  0  0  0  0  0  0  0  0  0
    9.7813  -16.8716   27.0021 O   0  0  0  0  0  0  0  0  0  0  0  0
    9.8671  -18.0242   27.7225 O   0  0  0  0  0  0  0  0  0  0  0  0
  1  2  1  0
  2  3  2  0
  4  5  1  0
  4  2  1  0
  6  5  1  0
  7  6  1  0
  7  8  1  0
  8 10  1  0
  8  9  1  6
 10 11  2  0
 12 13  1  0
 12 10  1  0
 14 15  1  0
 13 14  1  1
 16 23  1  0
 16 13  1  0
 17 16  2  0
 19 21  1  0
 19 18  1  0
 20 19  2  0
 22 23  1  0
 22 21  1  6
 24 22  1  0
 25 24  1  0
 26 24  2  0
M  END
$$$$
