RCN.pdb
     RDKit          3D

 26 25  0  0  1  0  0  0  0  0999 V2000
   10.1920  -13.9955   19.6080 N   0  0  0  0  0  0  0  0  0  0  0  0
    9.3822  -13.4013   18.6055 C   0  0  0  0  0  0  0  0  0  0  0  0
    9.4469  -12.1364   18.3018 N   0  0  0  0  0  0  0  0  0  0  0  0
    8.4460  -14.1839   17.8761 N   0  0  0  0  0  0  0  0  0  0  0  0
    7.9940  -15.4788   18.3391 C   0  0  0  0  0  0  0  0  0  0  0  0
    7.2547  -15.3455   19.6641 C   0  0  0  0  0  0  0  0  0  0  0  0
    7.7220  -16.3355   20.6686 C   0  0  0  0  0  0  0  0  0  0  0  0
    6.9613  -16.2136   21.9581 C   0  0  2  0  0  0  0  0  0  0  0  0
    5.6633  -15.6019   21.6474 N   0  0  0  0  0  0  0  0  0  0  0  0
    7.6415  -15.4565   23.0185 C   0  0  0  0  0  0  0  0  0  0  0  0
    8.6296  -14.7218   22.6759 O   0  0  0  0  0  0  0  0  0  0  0  0
    8.9177  -11.7333   17.5076 N   0  0  0  0  0  0  0  0  0  0  0  0
    7.2566  -15.5044   24.3797 C   0  0  1  0  0  0  0  0  0  0  0  0
    8.0806  -14.8308   25.3679 C   0  0  0  0  0  0  0  0  0  0  0  0
    7.2474  -13.7318   25.9791 S   0  0  0  0  0  0  0  0  0  0  0  0
    8.1423  -12.8752   27.2861 C   0  0  0  0  0  0  0  0  0  0  0  0
    8.6463  -15.7847   26.3302 O   0  0  0  0  0  0  0  0  0  0  0  0
    7.8658  -16.7161   26.7350 N   0  0  0  0  0  0  0  0  0  0  0  0
   13.3182  -18.6237   28.6611 C   0  0  0  0  0  0  0  0  0  0  0  0
   11.9726  -18.6518   28.2206 O   0  0  0  0  0  0  0  0  0  0  0  0
   11.1777  -19.5492   28.6730 C   0  0  0  0  0  0  0  0  0  0  0  0
   11.4540  -17.6749   27.2560 C   0  0  2  0  0  0  0  0  0  0  0  0
   10.3739  -16.8203   27.8321 N   0  0  0  0  0  0  0  0  0  0  0  0
    9.9390  -15.8053   26.8632 C   0  0  0  0  0  0  0  0  0  0  0  0
   10.9121  -16.1328   29.0432 O   0  0  0  0  0  0  0  0  0  0  0  0
   11.2504  -16.7722   30.1971 O   0  0  0  0  0  0  0  0  0  0  0  0
  1  2  1  0
  2  3  2  0
  4  5  1  0
  4  2  1  0
  6  5  1  0
  7  6  1  0
  7  8  1  0
  8 10  1  0
  8  9  1  6
 10 11  2  0
 12 13  1  0
 12 10  1  0
 14 15  1  0
 13 14  1  1
 16 23  1  0
 16 13  1  0
 17 16  2  0
 19 21  1  0
 19 18  1  0
 20 19  2  0
 22 23  1  0
 22 21  1  6
 24 22  1  0
 25 24  1  0
 26 24  2  0
M  END
$$$$
