RCN.pdb
     RDKit          3D

 26 25  0  0  1  0  0  0  0  0999 V2000
    8.2957  -15.0898   13.4620 N   0  0  0  0  0  0  0  0  0  0  0  0
    7.9273  -14.1723   14.4800 C   0  0  0  0  0  0  0  0  0  0  0  0
    7.0444  -13.2320   14.2989 N   0  0  0  0  0  0  0  0  0  0  0  0
    8.5230  -14.2464   15.7686 N   0  0  0  0  0  0  0  0  0  0  0  0
    9.6082  -15.1566   16.0674 C   0  0  0  0  0  0  0  0  0  0  0  0
    9.0762  -16.5631   16.3094 C   0  0  0  0  0  0  0  0  0  0  0  0
    9.8765  -17.2983   17.3225 C   0  0  0  0  0  0  0  0  0  0  0  0
    9.1819  -17.3335   18.6540 C   0  0  2  0  0  0  0  0  0  0  0  0
    7.8107  -16.8507   18.4483 N   0  0  0  0  0  0  0  0  0  0  0  0
    9.8374  -16.5678   19.7238 C   0  0  0  0  0  0  0  0  0  0  0  0
   10.6090  -15.6106   19.3746 O   0  0  0  0  0  0  0  0  0  0  0  0
    6.7726  -12.5790   15.0559 N   0  0  0  0  0  0  0  0  0  0  0  0
    9.6545  -16.8394   21.1009 C   0  0  1  0  0  0  0  0  0  0  0  0
   10.3796  -16.0451   22.0768 C   0  0  0  0  0  0  0  0  0  0  0  0
    9.3643  -15.4490   23.0200 S   0  0  0  0  0  0  0  0  0  0  0  0
    8.4528  -16.7276   23.9015 C   0  0  0  0  0  0  0  0  0  0  0  0
   11.4372  -16.8312   22.7246 O   0  0  0  0  0  0  0  0  0  0  0  0
   11.3386  -18.1048   22.6313 N   0  0  0  0  0  0  0  0  0  0  0  0
   15.9039  -18.7677   24.4655 C   0  0  0  0  0  0  0  0  0  0  0  0
   16.0787  -17.6072   23.6728 O   0  0  0  0  0  0  0  0  0  0  0  0
   17.2451  -17.3124   23.2318 C   0  0  0  0  0  0  0  0  0  0  0  0
   14.9556  -16.7251   23.3348 C   0  0  2  0  0  0  0  0  0  0  0  0
   13.6499  -17.2418   23.8417 N   0  0  0  0  0  0  0  0  0  0  0  0
   12.5467  -16.3614   23.4343 C   0  0  0  0  0  0  0  0  0  0  0  0
   13.7072  -17.2860   25.3330 O   0  0  0  0  0  0  0  0  0  0  0  0
   14.4414  -18.1874   26.0425 O   0  0  0  0  0  0  0  0  0  0  0  0
  1  2  1  0
  2  3  2  0
  4  5  1  0
  4  2  1  0
  6  5  1  0
  7  6  1  0
  7  8  1  0
  8 10  1  0
  8  9  1  6
 10 11  2  0
 12 13  1  0
 12 10  1  0
 14 15  1  0
 13 14  1  1
 16 23  1  0
 16 13  1  0
 17 16  2  0
 19 21  1  0
 19 18  1  0
 20 19  2  0
 22 23  1  0
 22 21  1  6
 24 22  1  0
 25 24  1  0
 26 24  2  0
M  END
$$$$
