ARP.pdb
     RDKit          3D

 24 24  0  0  1  0  0  0  0  0999 V2000
   17.9432  -18.5948  -15.5630 C   0  0  0  0  0  0  0  0  0  0  0  0
   19.1919  -19.2471  -16.0534 C   0  0  2  0  0  0  0  0  0  0  0  0
   19.1511  -20.6927  -15.9317 N   0  0  0  0  0  0  0  0  0  0  0  0
   20.4235  -18.6970  -15.4119 C   0  0  0  0  0  0  0  0  0  0  0  0
   20.3552  -18.0491  -14.3356 O   0  0  0  0  0  0  0  0  0  0  0  0
   26.3034  -22.8426  -14.8143 N   0  0  0  0  0  0  0  0  0  0  0  0
   25.0785  -23.2638  -14.2452 C   0  0  0  0  0  0  0  0  0  0  0  0
   24.2858  -24.1334  -14.8247 N   0  0  0  0  0  0  0  0  0  0  0  0
   24.6056  -22.7730  -12.9881 N   0  0  0  0  0  0  0  0  0  0  0  0
   23.6990  -21.6464  -12.8699 C   0  0  0  0  0  0  0  0  0  0  0  0
   23.7839  -20.7410  -14.0830 C   0  0  0  0  0  0  0  0  0  0  0  0
   22.8633  -19.5961  -14.0245 C   0  0  0  0  0  0  0  0  0  0  0  0
   22.9498  -18.6165  -15.1699 C   0  0  2  0  0  0  0  0  0  0  0  0
   21.6998  -18.8814  -15.9837 N   0  0  0  0  0  0  0  0  0  0  0  0
   24.0818  -18.8178  -16.0743 C   0  0  0  0  0  0  0  0  0  0  0  0
   24.0238  -19.9763  -16.6910 O   0  0  0  0  0  0  0  0  0  0  0  0
   23.3748  -24.2919  -14.3423 N   0  0  0  0  0  0  0  0  0  0  0  0
   25.1773  -18.0163  -16.3907 C   0  0  0  0  0  0  0  0  0  0  0  0
   25.5417  -16.8435  -15.5506 C   0  0  0  0  0  0  0  0  0  0  0  0
   27.0745  -16.8661  -15.6642 C   0  0  0  0  0  0  0  0  0  0  0  0
   27.1920  -17.0037  -17.1652 C   0  0  2  0  0  0  0  0  0  0  0  0
   26.1527  -18.1236  -17.4264 C   0  0  0  0  0  0  0  0  0  0  0  0
   26.9624  -19.3907  -17.2570 O   0  0  0  0  0  0  0  0  0  0  0  0
   26.8060  -20.0690  -16.2102 O   0  0  0  0  0  0  0  0  0  0  0  0
  2  1  1  1
  2  3  1  0
  4  2  1  0
  4  5  2  0
  6  7  1  0
  7  9  1  0
  8  7  2  0
  9 10  1  0
 10 11  1  0
 11 12  1  0
 13 12  1  1
 13 14  1  0
 14  4  1  0
 15 13  1  0
 16 15  2  0
 17 15  1  0
 18 19  1  0
 18 17  1  0
 19 20  1  0
 20 21  1  0
 21 17  1  0
 21 22  1  1
 23 22  2  0
 24 22  1  0
M  END
$$$$
