ARP.pdb
     RDKit          3D

 24 24  0  0  1  0  0  0  0  0999 V2000
   21.8213  -18.1310  -18.1520 C   0  0  0  0  0  0  0  0  0  0  0  0
   21.6351  -18.1733  -16.6726 C   0  0  2  0  0  0  0  0  0  0  0  0
   20.8802  -17.0392  -16.1725 N   0  0  0  0  0  0  0  0  0  0  0  0
   22.9229  -18.3200  -15.9304 C   0  0  0  0  0  0  0  0  0  0  0  0
   23.8361  -17.4627  -16.0484 O   0  0  0  0  0  0  0  0  0  0  0  0
   23.9546  -20.4735   -8.0773 N   0  0  0  0  0  0  0  0  0  0  0  0
   23.1452  -20.8994   -9.1567 C   0  0  0  0  0  0  0  0  0  0  0  0
   21.8635  -21.1477   -9.0310 N   0  0  0  0  0  0  0  0  0  0  0  0
   23.6624  -21.0937  -10.4757 N   0  0  0  0  0  0  0  0  0  0  0  0
   25.0396  -20.8112  -10.8342 C   0  0  0  0  0  0  0  0  0  0  0  0
   25.2483  -20.9004  -12.3333 C   0  0  0  0  0  0  0  0  0  0  0  0
   24.1095  -20.3949  -13.1139 C   0  0  0  0  0  0  0  0  0  0  0  0
   24.4509  -19.5035  -14.2835 C   0  0  2  0  0  0  0  0  0  0  0  0
   23.1626  -19.4164  -15.0758 N   0  0  0  0  0  0  0  0  0  0  0  0
   25.4618  -20.0373  -15.1962 C   0  0  0  0  0  0  0  0  0  0  0  0
   25.0659  -21.1447  -15.7816 O   0  0  0  0  0  0  0  0  0  0  0  0
   21.3829  -21.4478   -9.9066 N   0  0  0  0  0  0  0  0  0  0  0  0
   26.7332  -19.5868  -15.5467 C   0  0  0  0  0  0  0  0  0  0  0  0
   27.3411  -18.4024  -14.8822 C   0  0  0  0  0  0  0  0  0  0  0  0
   28.8242  -18.8060  -14.8622 C   0  0  0  0  0  0  0  0  0  0  0  0
   28.9657  -19.2334  -16.3055 C   0  0  1  0  0  0  0  0  0  0  0  0
   27.6937  -20.1046  -16.4661 C   0  0  0  0  0  0  0  0  0  0  0  0
   28.1578  -21.4757  -16.0250 O   0  0  0  0  0  0  0  0  0  0  0  0
   27.8241  -21.8856  -14.8844 O   0  0  0  0  0  0  0  0  0  0  0  0
  2  1  1  6
  2  3  1  0
  4  2  1  0
  4  5  2  0
  6  7  1  0
  7  9  1  0
  8  7  2  0
  9 10  1  0
 10 11  1  0
 11 12  1  0
 13 12  1  1
 13 14  1  0
 14  4  1  0
 15 13  1  0
 16 15  2  0
 17 15  1  0
 18 19  1  0
 18 17  1  0
 19 20  1  0
 20 21  1  0
 21 17  1  0
 21 22  1  1
 23 22  2  0
 24 22  1  0
M  END
$$$$
