ARP.pdb
     RDKit          3D

 24 24  0  0  1  0  0  0  0  0999 V2000
   28.5520  -22.0112  -18.8299 C   0  0  0  0  0  0  0  0  0  0  0  0
   28.9528  -22.4934  -17.4764 C   0  0  2  0  0  0  0  0  0  0  0  0
   29.6848  -23.7457  -17.5243 N   0  0  0  0  0  0  0  0  0  0  0  0
   27.8006  -22.5904  -16.5310 C   0  0  0  0  0  0  0  0  0  0  0  0
   27.2476  -23.6966  -16.3001 O   0  0  0  0  0  0  0  0  0  0  0  0
   26.0165  -20.8844   -8.7505 N   0  0  0  0  0  0  0  0  0  0  0  0
   24.7139  -20.9424   -9.2996 C   0  0  0  0  0  0  0  0  0  0  0  0
   23.6322  -20.7202   -8.5918 N   0  0  0  0  0  0  0  0  0  0  0  0
   24.4723  -21.2489  -10.6753 N   0  0  0  0  0  0  0  0  0  0  0  0
   25.5378  -21.4795  -11.6327 C   0  0  0  0  0  0  0  0  0  0  0  0
   25.5618  -20.4034  -12.7005 C   0  0  0  0  0  0  0  0  0  0  0  0
   26.5739  -20.6344  -13.7416 C   0  0  0  0  0  0  0  0  0  0  0  0
   26.1889  -21.5978  -14.8384 C   0  0  2  0  0  0  0  0  0  0  0  0
   27.2925  -21.4546  -15.8662 N   0  0  0  0  0  0  0  0  0  0  0  0
   24.9381  -21.2840  -15.5290 C   0  0  0  0  0  0  0  0  0  0  0  0
   24.9338  -20.0645  -16.0176 O   0  0  0  0  0  0  0  0  0  0  0  0
   22.7409  -20.7219   -9.1334 N   0  0  0  0  0  0  0  0  0  0  0  0
   23.7850  -22.0329  -15.7569 C   0  0  0  0  0  0  0  0  0  0  0  0
   23.6711  -23.4368  -15.2773 C   0  0  0  0  0  0  0  0  0  0  0  0
   22.1760  -23.5070  -14.9273 C   0  0  0  0  0  0  0  0  0  0  0  0
   21.6138  -22.9133  -16.1990 C   0  0  2  0  0  0  0  0  0  0  0  0
   22.5446  -21.6858  -16.3708 C   0  0  0  0  0  0  0  0  0  0  0  0
   21.8451  -20.6088  -15.5706 O   0  0  0  0  0  0  0  0  0  0  0  0
   22.2724  -20.3418  -14.4189 O   0  0  0  0  0  0  0  0  0  0  0  0
  2  1  1  6
  2  3  1  0
  4  2  1  0
  4  5  2  0
  6  7  1  0
  7  9  1  0
  8  7  2  0
  9 10  1  0
 10 11  1  0
 11 12  1  0
 13 12  1  1
 13 14  1  0
 14  4  1  0
 15 13  1  0
 16 15  2  0
 17 15  1  0
 18 19  1  0
 18 17  1  0
 19 20  1  0
 20 21  1  0
 21 17  1  0
 21 22  1  1
 23 22  2  0
 24 22  1  0
M  END
$$$$
