ARP.pdb
     RDKit          3D

 24 24  0  0  1  0  0  0  0  0999 V2000
   17.6761  -20.1906  -17.1819 C   0  0  0  0  0  0  0  0  0  0  0  0
   18.0654  -21.1947  -16.1496 C   0  0  2  0  0  0  0  0  0  0  0  0
   17.9976  -20.6633  -14.8009 N   0  0  0  0  0  0  0  0  0  0  0  0
   19.4032  -21.8054  -16.4107 C   0  0  0  0  0  0  0  0  0  0  0  0
   20.4298  -21.0864  -16.5192 O   0  0  0  0  0  0  0  0  0  0  0  0
   25.1194  -26.5859  -16.8351 N   0  0  0  0  0  0  0  0  0  0  0  0
   25.3127  -25.6463  -15.7953 C   0  0  0  0  0  0  0  0  0  0  0  0
   26.4140  -24.9461  -15.6639 N   0  0  0  0  0  0  0  0  0  0  0  0
   24.3188  -25.3843  -14.8011 N   0  0  0  0  0  0  0  0  0  0  0  0
   23.0395  -26.0675  -14.7631 C   0  0  0  0  0  0  0  0  0  0  0  0
   22.2289  -25.7897  -16.0140 C   0  0  0  0  0  0  0  0  0  0  0  0
   21.1158  -24.8546  -15.7945 C   0  0  0  0  0  0  0  0  0  0  0  0
   20.9286  -23.7881  -16.8465 C   0  0  2  0  0  0  0  0  0  0  0  0
   19.5653  -23.2003  -16.5446 N   0  0  0  0  0  0  0  0  0  0  0  0
   20.8712  -24.2782  -18.2236 C   0  0  0  0  0  0  0  0  0  0  0  0
   19.8714  -25.1090  -18.4130 O   0  0  0  0  0  0  0  0  0  0  0  0
   26.4041  -24.2467  -14.8903 N   0  0  0  0  0  0  0  0  0  0  0  0
   21.6663  -24.0214  -19.3391 C   0  0  0  0  0  0  0  0  0  0  0  0
   22.8334  -23.1021  -19.2580 C   0  0  0  0  0  0  0  0  0  0  0  0
   23.8053  -23.7742  -20.2411 C   0  0  0  0  0  0  0  0  0  0  0  0
   22.8584  -23.9699  -21.4033 C   0  0  2  0  0  0  0  0  0  0  0  0
   21.6237  -24.5470  -20.6650 C   0  0  0  0  0  0  0  0  0  0  0  0
   21.8965  -26.0353  -20.6497 O   0  0  0  0  0  0  0  0  0  0  0  0
   22.2646  -26.5683  -19.5724 O   0  0  0  0  0  0  0  0  0  0  0  0
  2  1  1  6
  2  3  1  0
  4  2  1  0
  4  5  2  0
  6  7  1  0
  7  9  1  0
  8  7  2  0
  9 10  1  0
 10 11  1  0
 11 12  1  0
 13 12  1  1
 13 14  1  0
 14  4  1  0
 15 13  1  0
 16 15  2  0
 17 15  1  0
 18 19  1  0
 18 17  1  0
 19 20  1  0
 20 21  1  0
 21 17  1  0
 21 22  1  6
 23 22  2  0
 24 22  1  0
M  END
$$$$
