ARP.pdb
     RDKit          3D

 24 24  0  0  1  0  0  0  0  0999 V2000
   27.5778  -20.9094  -19.8811 C   0  0  0  0  0  0  0  0  0  0  0  0
   28.1237  -20.2001  -18.6877 C   0  0  2  0  0  0  0  0  0  0  0  0
   29.5740  -20.1484  -18.6844 N   0  0  0  0  0  0  0  0  0  0  0  0
   27.6113  -20.7549  -17.3991 C   0  0  0  0  0  0  0  0  0  0  0  0
   27.9799  -21.8873  -16.9931 O   0  0  0  0  0  0  0  0  0  0  0  0
   27.5660  -21.1958   -9.3999 N   0  0  0  0  0  0  0  0  0  0  0  0
   26.2577  -20.6646   -9.4874 C   0  0  0  0  0  0  0  0  0  0  0  0
   25.4748  -20.5246   -8.4444 N   0  0  0  0  0  0  0  0  0  0  0  0
   25.6828  -20.2362  -10.7247 N   0  0  0  0  0  0  0  0  0  0  0  0
   26.4639  -20.0303  -11.9298 C   0  0  0  0  0  0  0  0  0  0  0  0
   25.6052  -19.4940  -13.0584 C   0  0  0  0  0  0  0  0  0  0  0  0
   26.3264  -19.3671  -14.3333 C   0  0  0  0  0  0  0  0  0  0  0  0
   26.2870  -20.5733  -15.2402 C   0  0  2  0  0  0  0  0  0  0  0  0
   26.7022  -20.0365  -16.5946 N   0  0  0  0  0  0  0  0  0  0  0  0
   24.9640  -21.1709  -15.4207 C   0  0  0  0  0  0  0  0  0  0  0  0
   24.1082  -20.3289  -15.9539 O   0  0  0  0  0  0  0  0  0  0  0  0
   24.5252  -20.1460   -8.6514 N   0  0  0  0  0  0  0  0  0  0  0  0
   24.4684  -22.4425  -15.1383 C   0  0  0  0  0  0  0  0  0  0  0  0
   25.3424  -23.4992  -14.5610 C   0  0  0  0  0  0  0  0  0  0  0  0
   24.3453  -24.2447  -13.6594 C   0  0  0  0  0  0  0  0  0  0  0  0
   23.2187  -24.4142  -14.6533 C   0  0  2  0  0  0  0  0  0  0  0  0
   23.1533  -22.9850  -15.2497 C   0  0  0  0  0  0  0  0  0  0  0  0
   22.2065  -22.2648  -14.3145 O   0  0  0  0  0  0  0  0  0  0  0  0
   22.6903  -21.5186  -13.4261 O   0  0  0  0  0  0  0  0  0  0  0  0
  2  1  1  6
  2  3  1  0
  4  2  1  0
  4  5  2  0
  6  7  1  0
  7  9  1  0
  8  7  2  0
  9 10  1  0
 10 11  1  0
 11 12  1  0
 13 12  1  1
 13 14  1  0
 14  4  1  0
 15 13  1  0
 16 15  2  0
 17 15  1  0
 18 19  1  0
 18 17  1  0
 19 20  1  0
 20 21  1  0
 21 17  1  0
 21 22  1  1
 23 22  2  0
 24 22  1  0
M  END
$$$$
