ARP.pdb
     RDKit          3D

 24 24  0  0  1  0  0  0  0  0999 V2000
   29.8064  -20.5359  -19.1030 C   0  0  0  0  0  0  0  0  0  0  0  0
   28.6355  -20.2438  -19.9799 C   0  0  2  0  0  0  0  0  0  0  0  0
   29.0050  -20.1059  -21.3765 N   0  0  0  0  0  0  0  0  0  0  0  0
   27.8493  -19.0595  -19.5215 C   0  0  0  0  0  0  0  0  0  0  0  0
   28.4272  -17.9964  -19.1770 O   0  0  0  0  0  0  0  0  0  0  0  0
   19.8285  -16.4308  -22.3249 N   0  0  0  0  0  0  0  0  0  0  0  0
   20.0630  -15.7393  -21.1131 C   0  0  0  0  0  0  0  0  0  0  0  0
   19.2305  -14.8489  -20.6287 N   0  0  0  0  0  0  0  0  0  0  0  0
   21.2307  -15.9572  -20.3170 N   0  0  0  0  0  0  0  0  0  0  0  0
   22.2243  -16.9668  -20.6309 C   0  0  0  0  0  0  0  0  0  0  0  0
   23.4516  -16.8243  -19.7522 C   0  0  0  0  0  0  0  0  0  0  0  0
   24.4801  -17.8419  -20.0138 C   0  0  0  0  0  0  0  0  0  0  0  0
   25.6653  -17.8423  -19.0786 C   0  0  2  0  0  0  0  0  0  0  0  0
   26.4404  -19.0875  -19.4579 N   0  0  0  0  0  0  0  0  0  0  0  0
   25.3361  -17.9769  -17.6597 C   0  0  0  0  0  0  0  0  0  0  0  0
   24.6433  -19.0655  -17.4125 O   0  0  0  0  0  0  0  0  0  0  0  0
   19.5290  -14.4051  -19.7333 N   0  0  0  0  0  0  0  0  0  0  0  0
   25.6246  -17.1776  -16.5551 C   0  0  0  0  0  0  0  0  0  0  0  0
   26.5134  -15.9903  -16.6747 C   0  0  0  0  0  0  0  0  0  0  0  0
   25.8644  -15.0345  -15.6606 C   0  0  0  0  0  0  0  0  0  0  0  0
   25.7417  -15.9868  -14.4928 C   0  0  2  0  0  0  0  0  0  0  0  0
   25.1597  -17.2332  -15.2072 C   0  0  0  0  0  0  0  0  0  0  0  0
   23.6665  -16.9935  -15.1557 O   0  0  0  0  0  0  0  0  0  0  0  0
   23.1049  -16.4797  -16.1561 O   0  0  0  0  0  0  0  0  0  0  0  0
  2  1  1  1
  2  3  1  0
  4  2  1  0
  4  5  2  0
  6  7  1  0
  7  9  1  0
  8  7  2  0
  9 10  1  0
 10 11  1  0
 11 12  1  0
 13 12  1  6
 13 14  1  0
 14  4  1  0
 15 13  1  0
 16 15  2  0
 17 15  1  0
 18 19  1  0
 18 17  1  0
 19 20  1  0
 20 21  1  0
 21 17  1  0
 21 22  1  1
 23 22  2  0
 24 22  1  0
M  END
$$$$
