ARP.pdb
     RDKit          3D

 24 24  0  0  1  0  0  0  0  0999 V2000
   20.0216  -12.2742    5.5493 C   0  0  0  0  0  0  0  0  0  0  0  0
   18.7031  -12.5360    4.9026 C   0  0  2  0  0  0  0  0  0  0  0  0
   17.7809  -11.4247    5.0460 N   0  0  0  0  0  0  0  0  0  0  0  0
   18.0732  -13.8089    5.3652 C   0  0  0  0  0  0  0  0  0  0  0  0
   17.4238  -13.8525    6.4419 O   0  0  0  0  0  0  0  0  0  0  0  0
   16.1783  -21.3109    0.6904 N   0  0  0  0  0  0  0  0  0  0  0  0
   16.0147  -21.5996    2.0658 C   0  0  0  0  0  0  0  0  0  0  0  0
   15.6974  -22.7921    2.5102 N   0  0  0  0  0  0  0  0  0  0  0  0
   16.1831  -20.6103    3.0845 N   0  0  0  0  0  0  0  0  0  0  0  0
   16.7901  -19.3160    2.8367 C   0  0  0  0  0  0  0  0  0  0  0  0
   16.8546  -18.4858    4.1038 C   0  0  0  0  0  0  0  0  0  0  0  0
   17.3904  -17.1333    3.8908 C   0  0  0  0  0  0  0  0  0  0  0  0
   17.5560  -16.2834    5.1275 C   0  0  2  0  0  0  0  0  0  0  0  0
   18.1816  -15.0009    4.6188 N   0  0  0  0  0  0  0  0  0  0  0  0
   18.4742  -16.8209    6.1315 C   0  0  0  0  0  0  0  0  0  0  0  0
   19.7147  -16.8561    5.7005 O   0  0  0  0  0  0  0  0  0  0  0  0
   15.5902  -22.8646    3.5451 N   0  0  0  0  0  0  0  0  0  0  0  0
   18.2695  -17.2847    7.4297 C   0  0  0  0  0  0  0  0  0  0  0  0
   16.9109  -17.3028    8.0359 C   0  0  0  0  0  0  0  0  0  0  0  0
   16.9935  -18.5688    8.9037 C   0  0  0  0  0  0  0  0  0  0  0  0
   18.3115  -18.2914    9.5906 C   0  0  2  0  0  0  0  0  0  0  0  0
   19.1720  -17.8510    8.3789 C   0  0  0  0  0  0  0  0  0  0  0  0
   19.7294  -19.1583    7.8593 O   0  0  0  0  0  0  0  0  0  0  0  0
   19.1790  -19.6936    6.8639 O   0  0  0  0  0  0  0  0  0  0  0  0
  2  1  1  1
  2  3  1  0
  4  2  1  0
  4  5  2  0
  6  7  1  0
  7  9  1  0
  8  7  2  0
  9 10  1  0
 10 11  1  0
 11 12  1  0
 13 12  1  6
 13 14  1  0
 14  4  1  0
 15 13  1  0
 16 15  2  0
 17 15  1  0
 18 19  1  0
 18 17  1  0
 19 20  1  0
 20 21  1  0
 21 17  1  0
 21 22  1  1
 23 22  2  0
 24 22  1  0
M  END
$$$$
