ARP.pdb
     RDKit          3D

 24 24  0  0  1  0  0  0  0  0999 V2000
   19.4912  -16.5272  -17.3572 C   0  0  0  0  0  0  0  0  0  0  0  0
   19.8892  -17.4251  -16.2344 C   0  0  2  0  0  0  0  0  0  0  0  0
   18.9035  -17.4579  -15.1698 N   0  0  0  0  0  0  0  0  0  0  0  0
   21.2439  -17.1081  -15.6911 C   0  0  0  0  0  0  0  0  0  0  0  0
   21.4632  -16.0183  -15.1020 O   0  0  0  0  0  0  0  0  0  0  0  0
   24.9199  -23.8377  -14.2668 N   0  0  0  0  0  0  0  0  0  0  0  0
   25.2923  -22.7140  -13.4920 C   0  0  0  0  0  0  0  0  0  0  0  0
   25.7667  -22.8150  -12.2734 N   0  0  0  0  0  0  0  0  0  0  0  0
   25.1808  -21.3737  -13.9780 N   0  0  0  0  0  0  0  0  0  0  0  0
   25.9002  -20.2582  -13.3923 C   0  0  0  0  0  0  0  0  0  0  0  0
   25.5022  -18.9455  -14.0383 C   0  0  0  0  0  0  0  0  0  0  0  0
   24.1394  -18.9541  -14.5899 C   0  0  0  0  0  0  0  0  0  0  0  0
   23.6781  -17.6707  -15.2373 C   0  0  2  0  0  0  0  0  0  0  0  0
   22.3204  -18.0111  -15.8167 N   0  0  0  0  0  0  0  0  0  0  0  0
   24.5005  -17.2094  -16.3558 C   0  0  0  0  0  0  0  0  0  0  0  0
   24.5008  -18.0616  -17.3556 O   0  0  0  0  0  0  0  0  0  0  0  0
   25.9685  -21.9075  -11.8005 N   0  0  0  0  0  0  0  0  0  0  0  0
   25.2582  -16.0547  -16.5426 C   0  0  0  0  0  0  0  0  0  0  0  0
   25.4180  -15.0536  -15.4534 C   0  0  0  0  0  0  0  0  0  0  0  0
   26.8536  -14.5677  -15.7096 C   0  0  0  0  0  0  0  0  0  0  0  0
   26.7481  -14.3117  -17.1959 C   0  0  2  0  0  0  0  0  0  0  0  0
   26.0342  -15.6090  -17.6540 C   0  0  0  0  0  0  0  0  0  0  0  0
   27.1819  -16.5615  -17.9097 O   0  0  0  0  0  0  0  0  0  0  0  0
   27.8701  -16.4083  -18.9504 O   0  0  0  0  0  0  0  0  0  0  0  0
  2  1  1  6
  2  3  1  0
  4  2  1  0
  4  5  2  0
  6  7  1  0
  7  9  1  0
  8  7  2  0
  9 10  1  0
 10 11  1  0
 11 12  1  0
 13 12  1  6
 13 14  1  0
 14  4  1  0
 15 13  1  0
 16 15  2  0
 17 15  1  0
 18 19  1  0
 18 17  1  0
 19 20  1  0
 20 21  1  0
 21 17  1  0
 21 22  1  6
 23 22  2  0
 24 22  1  0
M  END
$$$$
