ARP.pdb
     RDKit          3D

 24 24  0  0  1  0  0  0  0  0999 V2000
   13.0819  -30.8293    1.7119 C   0  0  0  0  0  0  0  0  0  0  0  0
   13.9895  -30.8091    0.5283 C   0  0  2  0  0  0  0  0  0  0  0  0
   15.0087  -31.8404    0.5889 N   0  0  0  0  0  0  0  0  0  0  0  0
   14.6065  -29.4692    0.2939 C   0  0  0  0  0  0  0  0  0  0  0  0
   15.7528  -29.2010    0.7375 O   0  0  0  0  0  0  0  0  0  0  0  0
   12.8516  -23.8237   -5.8806 N   0  0  0  0  0  0  0  0  0  0  0  0
   13.9768  -23.4642   -5.1020 C   0  0  0  0  0  0  0  0  0  0  0  0
   14.1178  -22.2784   -4.5595 N   0  0  0  0  0  0  0  0  0  0  0  0
   15.0539  -24.3687   -4.8436 N   0  0  0  0  0  0  0  0  0  0  0  0
   14.8529  -25.7115   -4.3323 C   0  0  0  0  0  0  0  0  0  0  0  0
   14.8916  -25.7357   -2.8167 C   0  0  0  0  0  0  0  0  0  0  0  0
   14.5839  -27.0546   -2.2444 C   0  0  0  0  0  0  0  0  0  0  0  0
   14.6233  -27.1492   -0.7382 C   0  0  2  0  0  0  0  0  0  0  0  0
   13.9329  -28.4615   -0.4278 N   0  0  0  0  0  0  0  0  0  0  0  0
   13.8735  -26.1108   -0.0314 C   0  0  0  0  0  0  0  0  0  0  0  0
   12.6845  -25.9148   -0.5545 O   0  0  0  0  0  0  0  0  0  0  0  0
   14.9331  -22.1801   -3.9165 N   0  0  0  0  0  0  0  0  0  0  0  0
   14.1892  -25.3191    1.0713 C   0  0  0  0  0  0  0  0  0  0  0  0
   15.5160  -25.4199    1.7372 C   0  0  0  0  0  0  0  0  0  0  0  0
   15.7421  -23.9604    2.1634 C   0  0  0  0  0  0  0  0  0  0  0  0
   14.3993  -23.6979    2.8068 C   0  0  2  0  0  0  0  0  0  0  0  0
   13.4527  -24.2914    1.7324 C   0  0  0  0  0  0  0  0  0  0  0  0
   13.2208  -23.1253    0.7963 O   0  0  0  0  0  0  0  0  0  0  0  0
   13.8034  -23.1232   -0.3176 O   0  0  0  0  0  0  0  0  0  0  0  0
  2  1  1  1
  2  3  1  0
  4  2  1  0
  4  5  2  0
  6  7  1  0
  7  9  1  0
  8  7  2  0
  9 10  1  0
 10 11  1  0
 11 12  1  0
 13 12  1  6
 13 14  1  0
 14  4  1  0
 15 13  1  0
 16 15  2  0
 17 15  1  0
 18 19  1  0
 18 17  1  0
 19 20  1  0
 20 21  1  0
 21 17  1  0
 21 22  1  1
 23 22  2  0
 24 22  1  0
M  END
$$$$
