ARP.pdb
     RDKit          3D

 24 24  0  0  1  0  0  0  0  0999 V2000
   19.3371  -16.7436  -15.3119 C   0  0  0  0  0  0  0  0  0  0  0  0
   20.2919  -17.2651  -16.3325 C   0  0  2  0  0  0  0  0  0  0  0  0
   19.8802  -18.5448  -16.8793 N   0  0  0  0  0  0  0  0  0  0  0  0
   21.6972  -17.3319  -15.8309 C   0  0  0  0  0  0  0  0  0  0  0  0
   22.2806  -16.3002  -15.4089 O   0  0  0  0  0  0  0  0  0  0  0  0
   25.0511  -20.9686   -9.9612 N   0  0  0  0  0  0  0  0  0  0  0  0
   23.6406  -20.9000  -10.0457 C   0  0  0  0  0  0  0  0  0  0  0  0
   22.8940  -20.3928   -9.0940 N   0  0  0  0  0  0  0  0  0  0  0  0
   22.9140  -21.3799  -11.1800 N   0  0  0  0  0  0  0  0  0  0  0  0
   23.4585  -21.3809  -12.5248 C   0  0  0  0  0  0  0  0  0  0  0  0
   23.4704  -19.9847  -13.1157 C   0  0  0  0  0  0  0  0  0  0  0  0
   23.8623  -19.9519  -14.5324 C   0  0  0  0  0  0  0  0  0  0  0  0
   23.8052  -18.6016  -15.2051 C   0  0  2  0  0  0  0  0  0  0  0  0
   22.4180  -18.5443  -15.8112 N   0  0  0  0  0  0  0  0  0  0  0  0
   24.7465  -18.4183  -16.3097 C   0  0  0  0  0  0  0  0  0  0  0  0
   24.4433  -19.1635  -17.3483 O   0  0  0  0  0  0  0  0  0  0  0  0
   21.8743  -20.3473   -9.3083 N   0  0  0  0  0  0  0  0  0  0  0  0
   25.8738  -17.6110  -16.4506 C   0  0  0  0  0  0  0  0  0  0  0  0
   26.3282  -16.7231  -15.3466 C   0  0  0  0  0  0  0  0  0  0  0  0
   27.8531  -16.7827  -15.5307 C   0  0  0  0  0  0  0  0  0  0  0  0
   27.9158  -16.5188  -17.0180 C   0  0  1  0  0  0  0  0  0  0  0  0
   26.8089  -17.4806  -17.5204 C   0  0  0  0  0  0  0  0  0  0  0  0
   27.5527  -18.7816  -17.7301 O   0  0  0  0  0  0  0  0  0  0  0  0
   27.4510  -19.6801  -16.8569 O   0  0  0  0  0  0  0  0  0  0  0  0
  2  1  1  1
  2  3  1  0
  4  2  1  0
  4  5  2  0
  6  7  1  0
  7  9  1  0
  8  7  2  0
  9 10  1  0
 10 11  1  0
 11 12  1  0
 13 12  1  6
 13 14  1  0
 14  4  1  0
 15 13  1  0
 16 15  2  0
 17 15  1  0
 18 19  1  0
 18 17  1  0
 19 20  1  0
 20 21  1  0
 21 17  1  0
 21 22  1  6
 23 22  2  0
 24 22  1  0
M  END
$$$$
