ARP.pdb
     RDKit          3D

 24 24  0  0  1  0  0  0  0  0999 V2000
   30.0967  -23.1731  -19.0991 C   0  0  0  0  0  0  0  0  0  0  0  0
   29.7998  -23.1849  -17.6373 C   0  0  2  0  0  0  0  0  0  0  0  0
   29.8193  -24.5226  -17.0748 N   0  0  0  0  0  0  0  0  0  0  0  0
   28.5227  -22.4879  -17.2996 C   0  0  0  0  0  0  0  0  0  0  0  0
   27.5019  -23.1410  -16.9614 O   0  0  0  0  0  0  0  0  0  0  0  0
   25.9825  -21.9859  -11.2790 N   0  0  0  0  0  0  0  0  0  0  0  0
   25.3747  -20.7160  -11.4187 C   0  0  0  0  0  0  0  0  0  0  0  0
   24.1260  -20.4843  -11.0911 N   0  0  0  0  0  0  0  0  0  0  0  0
   26.0763  -19.5798  -11.9302 N   0  0  0  0  0  0  0  0  0  0  0  0
   27.1581  -19.6857  -12.8912 C   0  0  0  0  0  0  0  0  0  0  0  0
   26.6317  -19.9673  -14.2850 C   0  0  0  0  0  0  0  0  0  0  0  0
   27.6912  -20.0928  -15.2965 C   0  0  0  0  0  0  0  0  0  0  0  0
   27.2320  -20.3836  -16.7050 C   0  0  2  0  0  0  0  0  0  0  0  0
   28.4132  -21.0823  -17.3466 N   0  0  0  0  0  0  0  0  0  0  0  0
   26.9558  -19.2033  -17.5238 C   0  0  0  0  0  0  0  0  0  0  0  0
   27.9893  -18.3953  -17.5935 O   0  0  0  0  0  0  0  0  0  0  0  0
   23.8115  -19.4978  -11.2160 N   0  0  0  0  0  0  0  0  0  0  0  0
   25.8218  -18.8000  -18.2266 C   0  0  0  0  0  0  0  0  0  0  0  0
   24.5626  -19.5909  -18.1762 C   0  0  0  0  0  0  0  0  0  0  0  0
   23.5104  -18.4728  -18.2513 C   0  0  0  0  0  0  0  0  0  0  0  0
   24.0756  -17.7034  -19.4236 C   0  0  2  0  0  0  0  0  0  0  0  0
   25.5723  -17.6439  -19.0247 C   0  0  0  0  0  0  0  0  0  0  0  0
   25.6530  -16.3926  -18.1776 O   0  0  0  0  0  0  0  0  0  0  0  0
   25.7046  -16.5149  -16.9275 O   0  0  0  0  0  0  0  0  0  0  0  0
  2  1  1  6
  2  3  1  0
  4  2  1  0
  4  5  2  0
  6  7  1  0
  7  9  1  0
  8  7  2  0
  9 10  1  0
 10 11  1  0
 11 12  1  0
 13 12  1  1
 13 14  1  0
 14  4  1  0
 15 13  1  0
 16 15  2  0
 17 15  1  0
 18 19  1  0
 18 17  1  0
 19 20  1  0
 20 21  1  0
 21 17  1  0
 21 22  1  1
 23 22  2  0
 24 22  1  0
M  END
$$$$
