ARP.pdb
     RDKit          3D

 24 24  0  0  1  0  0  0  0  0999 V2000
   16.8461   -9.9496  -16.2160 C   0  0  0  0  0  0  0  0  0  0  0  0
   18.0043  -10.7856  -15.7858 C   0  0  2  0  0  0  0  0  0  0  0  0
   17.6312  -11.7993  -14.8166 N   0  0  0  0  0  0  0  0  0  0  0  0
   19.1520   -9.9718  -15.2845 C   0  0  0  0  0  0  0  0  0  0  0  0
   19.2022   -9.5992  -14.0839 O   0  0  0  0  0  0  0  0  0  0  0  0
   27.2570  -11.2711  -15.1998 N   0  0  0  0  0  0  0  0  0  0  0  0
   26.5513  -11.2448  -16.4257 C   0  0  0  0  0  0  0  0  0  0  0  0
   26.8243  -12.0532  -17.4220 N   0  0  0  0  0  0  0  0  0  0  0  0
   25.4801  -10.3315  -16.6770 N   0  0  0  0  0  0  0  0  0  0  0  0
   24.9453   -9.4423  -15.6629 C   0  0  0  0  0  0  0  0  0  0  0  0
   23.8330   -8.5759  -16.2206 C   0  0  0  0  0  0  0  0  0  0  0  0
   22.5680   -9.2999  -16.4137 C   0  0  0  0  0  0  0  0  0  0  0  0
   21.4015   -8.8311  -15.5778 C   0  0  2  0  0  0  0  0  0  0  0  0
   20.2149   -9.5930  -16.1312 N   0  0  0  0  0  0  0  0  0  0  0  0
   21.0769   -7.4106  -15.7068 C   0  0  0  0  0  0  0  0  0  0  0  0
   20.6349   -7.1100  -16.9068 O   0  0  0  0  0  0  0  0  0  0  0  0
   26.2349  -11.9221  -18.2724 N   0  0  0  0  0  0  0  0  0  0  0  0
   21.1480   -6.3516  -14.8035 C   0  0  0  0  0  0  0  0  0  0  0  0
   21.5645   -6.5699  -13.3919 C   0  0  0  0  0  0  0  0  0  0  0  0
   22.3224   -5.2639  -13.1042 C   0  0  0  0  0  0  0  0  0  0  0  0
   21.2977   -4.2831  -13.6273 C   0  0  2  0  0  0  0  0  0  0  0  0
   20.9331   -4.9517  -14.9773 C   0  0  0  0  0  0  0  0  0  0  0  0
   21.9559   -4.3774  -15.9331 O   0  0  0  0  0  0  0  0  0  0  0  0
   22.9800   -5.0567  -16.1977 O   0  0  0  0  0  0  0  0  0  0  0  0
  2  1  1  1
  2  3  1  0
  4  2  1  0
  4  5  2  0
  6  7  1  0
  7  9  1  0
  8  7  2  0
  9 10  1  0
 10 11  1  0
 11 12  1  0
 13 12  1  6
 13 14  1  0
 14  4  1  0
 15 13  1  0
 16 15  2  0
 17 15  1  0
 18 19  1  0
 18 17  1  0
 19 20  1  0
 20 21  1  0
 21 17  1  0
 21 22  1  6
 23 22  2  0
 24 22  1  0
M  END
$$$$
