ARP.pdb
     RDKit          3D

 24 24  0  0  1  0  0  0  0  0999 V2000
   21.8680  -18.1514  -18.8454 C   0  0  0  0  0  0  0  0  0  0  0  0
   23.0925  -17.9362  -18.0210 C   0  0  2  0  0  0  0  0  0  0  0  0
   24.0342  -17.0268  -18.6474 N   0  0  0  0  0  0  0  0  0  0  0  0
   23.7655  -19.2135  -17.6385 C   0  0  0  0  0  0  0  0  0  0  0  0
   24.5765  -19.7739  -18.4202 O   0  0  0  0  0  0  0  0  0  0  0  0
   26.8416  -20.4713  -10.0929 N   0  0  0  0  0  0  0  0  0  0  0  0
   25.4591  -20.6502  -10.3341 C   0  0  0  0  0  0  0  0  0  0  0  0
   24.5341  -20.2875   -9.4779 N   0  0  0  0  0  0  0  0  0  0  0  0
   24.9585  -21.2428  -11.5354 N   0  0  0  0  0  0  0  0  0  0  0  0
   25.8206  -21.7149  -12.6026 C   0  0  0  0  0  0  0  0  0  0  0  0
   25.0153  -22.1340  -13.8171 C   0  0  0  0  0  0  0  0  0  0  0  0
   24.3419  -21.0125  -14.4883 C   0  0  0  0  0  0  0  0  0  0  0  0
   24.2881  -21.0777  -15.9956 C   0  0  2  0  0  0  0  0  0  0  0  0
   23.5195  -19.8353  -16.3964 N   0  0  0  0  0  0  0  0  0  0  0  0
   23.5478  -22.2153  -16.5414 C   0  0  0  0  0  0  0  0  0  0  0  0
   22.3024  -22.2426  -16.1242 O   0  0  0  0  0  0  0  0  0  0  0  0
   23.5528  -20.4557   -9.7888 N   0  0  0  0  0  0  0  0  0  0  0  0
   23.9209  -23.2430  -17.4057 C   0  0  0  0  0  0  0  0  0  0  0  0
   25.3181  -23.3620  -17.9031 C   0  0  0  0  0  0  0  0  0  0  0  0
   25.4718  -24.8894  -17.9839 C   0  0  0  0  0  0  0  0  0  0  0  0
   24.1936  -25.2104  -18.7246 C   0  0  2  0  0  0  0  0  0  0  0  0
   23.1828  -24.3473  -17.9271 C   0  0  0  0  0  0  0  0  0  0  0  0
   22.7529  -25.2685  -16.8062 O   0  0  0  0  0  0  0  0  0  0  0  0
   23.2356  -25.0870  -15.6598 O   0  0  0  0  0  0  0  0  0  0  0  0
  2  1  1  6
  2  3  1  0
  4  2  1  0
  4  5  2  0
  6  7  1  0
  7  9  1  0
  8  7  2  0
  9 10  1  0
 10 11  1  0
 11 12  1  0
 13 12  1  1
 13 14  1  0
 14  4  1  0
 15 13  1  0
 16 15  2  0
 17 15  1  0
 18 19  1  0
 18 17  1  0
 19 20  1  0
 20 21  1  0
 21 17  1  0
 21 22  1  1
 23 22  2  0
 24 22  1  0
M  END
$$$$
