ARP.pdb
     RDKit          3D

 24 24  0  0  1  0  0  0  0  0999 V2000
   20.4264  -18.8178  -17.3429 C   0  0  0  0  0  0  0  0  0  0  0  0
   20.5153  -18.6039  -15.8693 C   0  0  2  0  0  0  0  0  0  0  0  0
   19.6234  -17.5586  -15.4023 N   0  0  0  0  0  0  0  0  0  0  0  0
   21.9123  -18.3542  -15.4032 C   0  0  0  0  0  0  0  0  0  0  0  0
   22.3356  -17.1815  -15.2348 O   0  0  0  0  0  0  0  0  0  0  0  0
   26.7352  -20.6552   -9.5427 N   0  0  0  0  0  0  0  0  0  0  0  0
   25.4266  -21.0293   -9.9287 C   0  0  0  0  0  0  0  0  0  0  0  0
   24.3839  -20.8819   -9.1468 N   0  0  0  0  0  0  0  0  0  0  0  0
   25.1356  -21.6002  -11.2072 N   0  0  0  0  0  0  0  0  0  0  0  0
   26.0872  -21.6126  -12.3023 C   0  0  0  0  0  0  0  0  0  0  0  0
   25.8704  -20.4364  -13.2342 C   0  0  0  0  0  0  0  0  0  0  0  0
   24.4736  -20.2815  -13.6661 C   0  0  0  0  0  0  0  0  0  0  0  0
   24.1935  -19.1332  -14.6054 C   0  0  2  0  0  0  0  0  0  0  0  0
   22.8029  -19.4151  -15.1362 N   0  0  0  0  0  0  0  0  0  0  0  0
   25.0732  -19.0570  -15.7718 C   0  0  0  0  0  0  0  0  0  0  0  0
   24.9334  -20.0935  -16.5668 O   0  0  0  0  0  0  0  0  0  0  0  0
   23.4716  -21.1609   -9.5683 N   0  0  0  0  0  0  0  0  0  0  0  0
   26.0036  -18.1021  -16.1778 C   0  0  0  0  0  0  0  0  0  0  0  0
   26.2684  -16.8880  -15.3594 C   0  0  0  0  0  0  0  0  0  0  0  0
   27.7701  -16.6832  -15.6156 C   0  0  0  0  0  0  0  0  0  0  0  0
   27.7648  -16.8022  -17.1227 C   0  0  1  0  0  0  0  0  0  0  0  0
   26.8822  -18.0639  -17.3014 C   0  0  0  0  0  0  0  0  0  0  0  0
   27.8824  -19.1969  -17.2255 O   0  0  0  0  0  0  0  0  0  0  0  0
   27.9593  -19.8610  -16.1610 O   0  0  0  0  0  0  0  0  0  0  0  0
  2  1  1  6
  2  3  1  0
  4  2  1  0
  4  5  2  0
  6  7  1  0
  7  9  1  0
  8  7  2  0
  9 10  1  0
 10 11  1  0
 11 12  1  0
 13 12  1  1
 13 14  1  0
 14  4  1  0
 15 13  1  0
 16 15  2  0
 17 15  1  0
 18 19  1  0
 18 17  1  0
 19 20  1  0
 20 21  1  0
 21 17  1  0
 21 22  1  1
 23 22  2  0
 24 22  1  0
M  END
$$$$
