HFM.pdb
     RDKit          3D

 30 31  0  0  1  0  0  0  0  0999 V2000
   10.9559  -17.3673   18.9666 N   0  0  0  0  0  0  0  0  0  0  0  0
   10.7747  -17.8475   20.3163 C   0  0  1  0  0  0  0  0  0  0  0  0
   11.9385  -18.7439   20.7424 C   0  0  0  0  0  0  0  0  0  0  0  0
   11.8691  -19.9656   19.9016 C   0  0  0  0  0  0  0  0  0  0  0  0
   10.8597  -20.9263   19.9782 C   0  0  0  0  0  0  0  0  0  0  0  0
   11.1585  -21.8773   19.0507 N   0  0  0  0  0  0  0  0  0  0  0  0
   12.2844  -21.5475   18.4220 C   0  0  0  0  0  0  0  0  0  0  0  0
   12.7120  -20.3894   18.9397 N   0  0  0  0  0  0  0  0  0  0  0  0
   10.5566  -16.7590   21.2851 C   0  0  0  0  0  0  0  0  0  0  0  0
   11.4059  -15.8392   21.3972 O   0  0  0  0  0  0  0  0  0  0  0  0
    9.3835  -16.7790   22.0723 N   0  0  0  0  0  0  0  0  0  0  0  0
    9.0800  -15.6375   22.9648 C   0  0  1  0  0  0  0  0  0  0  0  0
    7.6044  -15.4431   23.0116 C   0  0  0  0  0  0  0  0  0  0  0  0
    7.0748  -14.4705   23.9522 C   0  0  0  0  0  0  0  0  0  0  0  0
    6.3198  -14.9294   25.0311 C   0  0  0  0  0  0  0  0  0  0  0  0
    5.8695  -14.0024   25.9344 C   0  0  0  0  0  0  0  0  0  0  0  0
    6.1233  -12.6366   25.8343 C   0  0  0  0  0  0  0  0  0  0  0  0
    6.8787  -12.2496   24.7387 C   0  0  0  0  0  0  0  0  0  0  0  0
    7.3620  -13.1248   23.7945 C   0  0  0  0  0  0  0  0  0  0  0  0
    9.6170  -16.0298   24.2794 C   0  0  0  0  0  0  0  0  0  0  0  0
    9.6128  -17.2712   24.6023 O   0  0  0  0  0  0  0  0  0  0  0  0
   10.9682  -14.6665   31.7806 C   0  0  0  0  0  0  0  0  0  0  0  0
   10.5978  -13.8989   30.1821 S   0  0  0  0  0  0  0  0  0  0  0  0
   10.7557  -15.1590   28.8955 C   0  0  0  0  0  0  0  0  0  0  0  0
   10.4122  -14.5177   27.5597 C   0  0  0  0  0  0  0  0  0  0  0  0
   10.5899  -15.6288   26.5048 C   0  0  2  0  0  0  0  0  0  0  0  0
   10.1610  -15.0927   25.2330 N   0  0  0  0  0  0  0  0  0  0  0  0
    9.7302  -16.7348   26.9093 C   0  0  0  0  0  0  0  0  0  0  0  0
    8.5180  -16.7656   26.6510 O   0  0  0  0  0  0  0  0  0  0  0  0
   10.3143  -17.8021   27.6201 O   0  0  0  0  0  0  0  0  0  0  0  0
  2  1  1  6
  2  3  1  0
  3  4  1  0
  4  5  2  0
  5  6  1  0
  7  6  1  0
  8  4  1  0
  8  7  2  0
  9  2  1  0
  9 11  1  0
 10  9  2  0
 12 11  1  0
 12 13  1  1
 13 14  1  0
 14 15  2  0
 14 19  1  0
 15 16  1  0
 16 17  2  0
 18 17  1  0
 19 18  2  0
 20 12  1  0
 21 20  2  0
 22 23  1  0
 24 23  1  0
 25 24  1  0
 26 25  1  1
 26 27  1  0
 26 28  1  0
 27 20  1  0
 28 30  1  0
 29 28  2  0
M  END
$$$$
