HFM.pdb
     RDKit          3D

 30 31  0  0  1  0  0  0  0  0999 V2000
    8.7968  -15.6818   19.1624 N   0  0  0  0  0  0  0  0  0  0  0  0
    8.0350  -16.1591   20.2924 C   0  0  1  0  0  0  0  0  0  0  0  0
    7.6619  -17.6326   20.1217 C   0  0  0  0  0  0  0  0  0  0  0  0
    8.8910  -18.3377   19.6782 C   0  0  0  0  0  0  0  0  0  0  0  0
   10.1244  -17.7227   19.4593 C   0  0  0  0  0  0  0  0  0  0  0  0
   10.9825  -18.7041   19.0663 N   0  0  0  0  0  0  0  0  0  0  0  0
   10.3412  -19.8700   19.0357 C   0  0  0  0  0  0  0  0  0  0  0  0
    9.0749  -19.6446   19.4068 N   0  0  0  0  0  0  0  0  0  0  0  0
    8.7148  -15.9260   21.5787 C   0  0  0  0  0  0  0  0  0  0  0  0
    9.9423  -15.6561   21.5998 O   0  0  0  0  0  0  0  0  0  0  0  0
    7.9587  -16.0134   22.7690 N   0  0  0  0  0  0  0  0  0  0  0  0
    8.6044  -15.7280   24.0703 C   0  0  1  0  0  0  0  0  0  0  0  0
    7.5460  -15.5254   25.0979 C   0  0  0  0  0  0  0  0  0  0  0  0
    7.0843  -14.1697   25.3424 C   0  0  0  0  0  0  0  0  0  0  0  0
    5.9468  -13.9844   26.1276 C   0  0  0  0  0  0  0  0  0  0  0  0
    5.5542  -12.6974   26.3876 C   0  0  0  0  0  0  0  0  0  0  0  0
    6.2248  -11.5724   25.9139 C   0  0  0  0  0  0  0  0  0  0  0  0
    7.3458  -11.8287   25.1404 C   0  0  0  0  0  0  0  0  0  0  0  0
    7.7959  -13.0929   24.8400 C   0  0  0  0  0  0  0  0  0  0  0  0
    9.4196  -16.9205   24.3596 C   0  0  0  0  0  0  0  0  0  0  0  0
   10.2915  -17.2962   23.4969 O   0  0  0  0  0  0  0  0  0  0  0  0
   10.7929  -13.1692   27.8428 C   0  0  0  0  0  0  0  0  0  0  0  0
   11.2383  -14.4785   29.0129 S   0  0  0  0  0  0  0  0  0  0  0  0
   11.4529  -16.0179   28.0897 C   0  0  0  0  0  0  0  0  0  0  0  0
   10.3461  -16.1050   27.0500 C   0  0  0  0  0  0  0  0  0  0  0  0
   10.3650  -17.5606   26.5405 C   0  0  2  0  0  0  0  0  0  0  0  0
    9.3011  -17.6954   25.5716 N   0  0  0  0  0  0  0  0  0  0  0  0
   10.1152  -18.4143   27.6958 C   0  0  0  0  0  0  0  0  0  0  0  0
    8.9792  -18.8051   28.0026 O   0  0  0  0  0  0  0  0  0  0  0  0
   11.2172  -18.8017   28.4838 O   0  0  0  0  0  0  0  0  0  0  0  0
  2  1  1  6
  2  3  1  0
  3  4  1  0
  4  5  2  0
  5  6  1  0
  7  6  1  0
  8  4  1  0
  8  7  2  0
  9  2  1  0
  9 11  1  0
 10  9  2  0
 12 11  1  0
 12 13  1  1
 13 14  1  0
 14 15  2  0
 14 19  1  0
 15 16  1  0
 16 17  2  0
 18 17  1  0
 19 18  2  0
 20 12  1  0
 21 20  2  0
 22 23  1  0
 24 23  1  0
 25 24  1  0
 26 25  1  1
 26 27  1  0
 26 28  1  0
 27 20  1  0
 28 30  1  0
 29 28  2  0
M  END
$$$$
