HFM.pdb
     RDKit          3D

 30 31  0  0  1  0  0  0  0  0999 V2000
   10.8956  -17.2664   18.4658 N   0  0  0  0  0  0  0  0  0  0  0  0
   10.3519  -17.9104   19.6382 C   0  0  1  0  0  0  0  0  0  0  0  0
   11.0985  -19.2086   19.9493 C   0  0  0  0  0  0  0  0  0  0  0  0
   10.9282  -20.0945   18.7700 C   0  0  0  0  0  0  0  0  0  0  0  0
   10.2298  -19.7500   17.6120 C   0  0  0  0  0  0  0  0  0  0  0  0
   10.3062  -20.8245   16.7792 N   0  0  0  0  0  0  0  0  0  0  0  0
   11.0070  -21.7926   17.3650 C   0  0  0  0  0  0  0  0  0  0  0  0
   11.3821  -21.3473   18.5704 N   0  0  0  0  0  0  0  0  0  0  0  0
   10.3147  -17.0212   20.8126 C   0  0  0  0  0  0  0  0  0  0  0  0
   11.1809  -16.1201   20.9448 O   0  0  0  0  0  0  0  0  0  0  0  0
    9.2933  -17.2082   21.7705 N   0  0  0  0  0  0  0  0  0  0  0  0
    9.1504  -16.2466   22.8871 C   0  0  1  0  0  0  0  0  0  0  0  0
    7.7930  -15.6373   22.8261 C   0  0  0  0  0  0  0  0  0  0  0  0
    7.6053  -14.4758   21.9738 C   0  0  0  0  0  0  0  0  0  0  0  0
    8.0316  -13.2320   22.4387 C   0  0  0  0  0  0  0  0  0  0  0  0
    7.8907  -12.1560   21.6019 C   0  0  0  0  0  0  0  0  0  0  0  0
    7.3488  -12.2364   20.3214 C   0  0  0  0  0  0  0  0  0  0  0  0
    6.9457  -13.5012   19.9232 C   0  0  0  0  0  0  0  0  0  0  0  0
    7.0572  -14.6232   20.7104 C   0  0  0  0  0  0  0  0  0  0  0  0
    9.3285  -17.0523   24.1075 C   0  0  0  0  0  0  0  0  0  0  0  0
    8.3267  -17.7104   24.5643 O   0  0  0  0  0  0  0  0  0  0  0  0
   10.8122  -12.3289   28.3638 C   0  0  0  0  0  0  0  0  0  0  0  0
    9.3620  -13.2510   27.7907 S   0  0  0  0  0  0  0  0  0  0  0  0
    9.7858  -15.0078   27.7464 C   0  0  0  0  0  0  0  0  0  0  0  0
    9.6672  -15.4876   26.3078 C   0  0  0  0  0  0  0  0  0  0  0  0
   10.5754  -16.7300   26.2054 C   0  0  2  0  0  0  0  0  0  0  0  0
   10.5777  -17.1536   24.8236 N   0  0  0  0  0  0  0  0  0  0  0  0
    9.9816  -17.7566   27.0537 C   0  0  0  0  0  0  0  0  0  0  0  0
    8.9355  -18.3488   26.7502 O   0  0  0  0  0  0  0  0  0  0  0  0
   10.6336  -18.0767   28.2611 O   0  0  0  0  0  0  0  0  0  0  0  0
  2  1  1  6
  2  3  1  0
  3  4  1  0
  4  5  2  0
  5  6  1  0
  7  6  1  0
  8  4  1  0
  8  7  2  0
  9  2  1  0
  9 11  1  0
 10  9  2  0
 12 11  1  0
 12 13  1  1
 13 14  1  0
 14 15  2  0
 14 19  1  0
 15 16  1  0
 16 17  2  0
 18 17  1  0
 19 18  2  0
 20 12  1  0
 21 20  2  0
 22 23  1  0
 24 23  1  0
 25 24  1  0
 26 25  1  6
 26 27  1  0
 26 28  1  0
 27 20  1  0
 28 30  1  0
 29 28  2  0
M  END
$$$$
