HFM.pdb
     RDKit          3D

 30 31  0  0  1  0  0  0  0  0999 V2000
   10.2331  -18.1822   19.9148 N   0  0  0  0  0  0  0  0  0  0  0  0
   11.2689  -17.2269   20.2302 C   0  0  1  0  0  0  0  0  0  0  0  0
   11.6500  -16.4020   18.9998 C   0  0  0  0  0  0  0  0  0  0  0  0
   12.3770  -17.3135   18.0806 C   0  0  0  0  0  0  0  0  0  0  0  0
   12.8094  -18.5980   18.4134 C   0  0  0  0  0  0  0  0  0  0  0  0
   13.4266  -19.0978   17.3074 N   0  0  0  0  0  0  0  0  0  0  0  0
   13.3917  -18.1935   16.3314 C   0  0  0  0  0  0  0  0  0  0  0  0
   12.7554  -17.1143   16.8030 N   0  0  0  0  0  0  0  0  0  0  0  0
   10.9176  -16.3584   21.3675 C   0  0  0  0  0  0  0  0  0  0  0  0
   11.7207  -15.4704   21.7504 O   0  0  0  0  0  0  0  0  0  0  0  0
    9.6716  -16.5499   22.0053 N   0  0  0  0  0  0  0  0  0  0  0  0
    9.3346  -15.7569   23.2092 C   0  0  1  0  0  0  0  0  0  0  0  0
    7.8763  -15.4564   23.1943 C   0  0  0  0  0  0  0  0  0  0  0  0
    7.3417  -14.6218   24.2566 C   0  0  0  0  0  0  0  0  0  0  0  0
    6.6148  -15.2295   25.2798 C   0  0  0  0  0  0  0  0  0  0  0  0
    6.1598  -14.4335   26.2983 C   0  0  0  0  0  0  0  0  0  0  0  0
    6.3824  -13.0603   26.3667 C   0  0  0  0  0  0  0  0  0  0  0  0
    7.1109  -12.5218   25.3179 C   0  0  0  0  0  0  0  0  0  0  0  0
    7.5971  -13.2605   24.2649 C   0  0  0  0  0  0  0  0  0  0  0  0
    9.6987  -16.6197   24.3466 C   0  0  0  0  0  0  0  0  0  0  0  0
    9.9963  -17.8466   24.1200 O   0  0  0  0  0  0  0  0  0  0  0  0
    9.6826  -12.1592   28.7391 C   0  0  0  0  0  0  0  0  0  0  0  0
    9.9109  -13.9005   29.1835 S   0  0  0  0  0  0  0  0  0  0  0  0
   10.4295  -14.8020   27.7049 C   0  0  0  0  0  0  0  0  0  0  0  0
   10.4147  -16.2885   28.0268 C   0  0  0  0  0  0  0  0  0  0  0  0
   10.4295  -17.0113   26.6644 C   0  0  2  0  0  0  0  0  0  0  0  0
    9.7493  -16.1609   25.7142 N   0  0  0  0  0  0  0  0  0  0  0  0
    9.7016  -18.2620   26.8434 C   0  0  0  0  0  0  0  0  0  0  0  0
   10.1163  -19.1761   27.5712 O   0  0  0  0  0  0  0  0  0  0  0  0
    8.4820  -18.4227   26.1564 O   0  0  0  0  0  0  0  0  0  0  0  0
  2  1  1  6
  2  3  1  0
  3  4  1  0
  4  5  2  0
  5  6  1  0
  7  6  1  0
  8  4  1  0
  8  7  2  0
  9  2  1  0
  9 11  1  0
 10  9  2  0
 12 11  1  0
 12 13  1  6
 13 14  1  0
 14 15  2  0
 14 19  1  0
 15 16  1  0
 16 17  2  0
 18 17  1  0
 19 18  2  0
 20 12  1  0
 21 20  2  0
 22 23  1  0
 24 23  1  0
 25 24  1  0
 26 25  1  1
 26 27  1  0
 26 28  1  0
 27 20  1  0
 28 30  1  0
 29 28  2  0
M  END
$$$$
