HFM.pdb
     RDKit          3D

 30 31  0  0  1  0  0  0  0  0999 V2000
   10.4264  -17.3183   18.5182 N   0  0  0  0  0  0  0  0  0  0  0  0
   10.1880  -17.8951   19.8203 C   0  0  1  0  0  0  0  0  0  0  0  0
   11.1861  -19.0156   20.1171 C   0  0  0  0  0  0  0  0  0  0  0  0
   10.9762  -20.0616   19.0846 C   0  0  0  0  0  0  0  0  0  0  0  0
    9.8842  -20.9297   19.0439 C   0  0  0  0  0  0  0  0  0  0  0  0
   10.0634  -21.7271   17.9548 N   0  0  0  0  0  0  0  0  0  0  0  0
   11.1948  -21.3919   17.3392 C   0  0  0  0  0  0  0  0  0  0  0  0
   11.7450  -20.3831   18.0259 N   0  0  0  0  0  0  0  0  0  0  0  0
   10.1784  -16.8894   20.8972 C   0  0  0  0  0  0  0  0  0  0  0  0
   11.1801  -16.1513   21.0752 O   0  0  0  0  0  0  0  0  0  0  0  0
    9.0288  -16.7809   21.7111 N   0  0  0  0  0  0  0  0  0  0  0  0
    8.9277  -15.6782   22.6938 C   0  0  1  0  0  0  0  0  0  0  0  0
    7.4894  -15.3648   22.9184 C   0  0  0  0  0  0  0  0  0  0  0  0
    7.1590  -14.3511   23.9054 C   0  0  0  0  0  0  0  0  0  0  0  0
    7.6239  -13.0514   23.7073 C   0  0  0  0  0  0  0  0  0  0  0  0
    7.2619  -12.0981   24.6228 C   0  0  0  0  0  0  0  0  0  0  0  0
    6.4605  -12.3550   25.7326 C   0  0  0  0  0  0  0  0  0  0  0  0
    6.0339  -13.6665   25.8688 C   0  0  0  0  0  0  0  0  0  0  0  0
    6.3588  -14.6724   24.9893 C   0  0  0  0  0  0  0  0  0  0  0  0
    9.5664  -16.1981   23.9154 C   0  0  0  0  0  0  0  0  0  0  0  0
    9.2312  -17.3612   24.3398 O   0  0  0  0  0  0  0  0  0  0  0  0
   10.8008  -12.5948   28.7632 C   0  0  0  0  0  0  0  0  0  0  0  0
   10.7478  -14.1954   29.6100 S   0  0  0  0  0  0  0  0  0  0  0  0
   10.8714  -15.5015   28.3662 C   0  0  0  0  0  0  0  0  0  0  0  0
   10.5843  -14.8876   27.0045 C   0  0  0  0  0  0  0  0  0  0  0  0
   10.9004  -15.9907   25.9738 C   0  0  2  0  0  0  0  0  0  0  0  0
   10.5631  -15.4735   24.6670 N   0  0  0  0  0  0  0  0  0  0  0  0
   10.0552  -17.1316   26.3057 C   0  0  0  0  0  0  0  0  0  0  0  0
   10.5182  -18.2101   26.7053 O   0  0  0  0  0  0  0  0  0  0  0  0
    8.6610  -16.9872   26.1617 O   0  0  0  0  0  0  0  0  0  0  0  0
  2  1  1  6
  2  3  1  0
  3  4  1  0
  4  5  2  0
  5  6  1  0
  7  6  1  0
  8  4  1  0
  8  7  2  0
  9  2  1  0
  9 11  1  0
 10  9  2  0
 12 11  1  0
 12 13  1  1
 13 14  1  0
 14 15  2  0
 14 19  1  0
 15 16  1  0
 16 17  2  0
 18 17  1  0
 19 18  2  0
 20 12  1  0
 21 20  2  0
 22 23  1  0
 24 23  1  0
 25 24  1  0
 26 25  1  1
 26 27  1  0
 26 28  1  0
 27 20  1  0
 28 30  1  0
 29 28  2  0
M  END
$$$$
