HFM.pdb
     RDKit          3D

 30 31  0  0  1  0  0  0  0  0999 V2000
   10.4186  -17.8565   19.0179 N   0  0  0  0  0  0  0  0  0  0  0  0
    9.6202  -18.0885   20.1985 C   0  0  1  0  0  0  0  0  0  0  0  0
    9.9407  -19.4483   20.8212 C   0  0  0  0  0  0  0  0  0  0  0  0
    9.2698  -20.4731   19.9822 C   0  0  0  0  0  0  0  0  0  0  0  0
    8.5014  -20.1947   18.8510 C   0  0  0  0  0  0  0  0  0  0  0  0
    8.0683  -21.3935   18.3720 N   0  0  0  0  0  0  0  0  0  0  0  0
    8.5288  -22.3742   19.1450 C   0  0  0  0  0  0  0  0  0  0  0  0
    9.2560  -21.8134   20.1191 N   0  0  0  0  0  0  0  0  0  0  0  0
    9.7397  -17.0054   21.1904 C   0  0  0  0  0  0  0  0  0  0  0  0
   10.8011  -16.3361   21.2638 O   0  0  0  0  0  0  0  0  0  0  0  0
    8.6438  -16.7454   22.0433 N   0  0  0  0  0  0  0  0  0  0  0  0
    8.7117  -15.6190   23.0016 C   0  0  1  0  0  0  0  0  0  0  0  0
    7.3349  -15.1009   23.2329 C   0  0  0  0  0  0  0  0  0  0  0  0
    7.1664  -14.0146   24.1828 C   0  0  0  0  0  0  0  0  0  0  0  0
    6.4857  -14.2694   25.3729 C   0  0  0  0  0  0  0  0  0  0  0  0
    6.3785  -13.2461   26.2780 C   0  0  0  0  0  0  0  0  0  0  0  0
    6.9089  -11.9742   26.0753 C   0  0  0  0  0  0  0  0  0  0  0  0
    7.5719  -11.7898   24.8724 C   0  0  0  0  0  0  0  0  0  0  0  0
    7.7166  -12.7710   23.9199 C   0  0  0  0  0  0  0  0  0  0  0  0
    9.2863  -16.1979   24.2284 C   0  0  0  0  0  0  0  0  0  0  0  0
    8.5334  -16.9065   24.9877 O   0  0  0  0  0  0  0  0  0  0  0  0
    9.5936  -12.7797   28.4981 C   0  0  0  0  0  0  0  0  0  0  0  0
    9.6203  -14.3793   29.3480 S   0  0  0  0  0  0  0  0  0  0  0  0
   10.5090  -15.5613   28.3083 C   0  0  0  0  0  0  0  0  0  0  0  0
   10.0864  -15.3339   26.8649 C   0  0  0  0  0  0  0  0  0  0  0  0
   10.9761  -16.2660   26.0172 C   0  0  2  0  0  0  0  0  0  0  0  0
   10.6619  -16.0210   24.6279 N   0  0  0  0  0  0  0  0  0  0  0  0
   10.6265  -17.6325   26.3868 C   0  0  0  0  0  0  0  0  0  0  0  0
   11.0617  -18.1777   27.4118 O   0  0  0  0  0  0  0  0  0  0  0  0
    9.7598  -18.3475   25.5366 O   0  0  0  0  0  0  0  0  0  0  0  0
  2  1  1  6
  2  3  1  0
  3  4  1  0
  4  5  2  0
  5  6  1  0
  7  6  1  0
  8  4  1  0
  8  7  2  0
  9  2  1  0
  9 11  1  0
 10  9  2  0
 12 11  1  0
 12 13  1  1
 13 14  1  0
 14 15  2  0
 14 19  1  0
 15 16  1  0
 16 17  2  0
 18 17  1  0
 19 18  2  0
 20 12  1  0
 21 20  2  0
 22 23  1  0
 24 23  1  0
 25 24  1  0
 26 25  1  1
 26 27  1  0
 26 28  1  0
 27 20  1  0
 28 30  1  0
 29 28  2  0
M  END
$$$$
