HFM.pdb
     RDKit          3D

 30 31  0  0  1  0  0  0  0  0999 V2000
   11.6408  -17.0233   19.3772 N   0  0  0  0  0  0  0  0  0  0  0  0
   10.5415  -17.4484   20.2114 C   0  0  1  0  0  0  0  0  0  0  0  0
   10.6595  -18.9322   20.5635 C   0  0  0  0  0  0  0  0  0  0  0  0
   10.1298  -19.6918   19.4029 C   0  0  0  0  0  0  0  0  0  0  0  0
    9.6183  -19.1124   18.2410 C   0  0  0  0  0  0  0  0  0  0  0  0
    9.2413  -20.1389   17.4296 N   0  0  0  0  0  0  0  0  0  0  0  0
    9.4946  -21.2984   18.0320 C   0  0  0  0  0  0  0  0  0  0  0  0
   10.0326  -21.0240   19.2268 N   0  0  0  0  0  0  0  0  0  0  0  0
   10.3911  -16.6225   21.4224 C   0  0  0  0  0  0  0  0  0  0  0  0
   11.4106  -16.2155   22.0349 O   0  0  0  0  0  0  0  0  0  0  0  0
    9.0883  -16.3065   21.8682 N   0  0  0  0  0  0  0  0  0  0  0  0
    8.9071  -15.5657   23.1371 C   0  0  1  0  0  0  0  0  0  0  0  0
    7.5572  -14.9371   23.1383 C   0  0  0  0  0  0  0  0  0  0  0  0
    7.1825  -14.1300   24.2867 C   0  0  0  0  0  0  0  0  0  0  0  0
    6.5095  -14.7446   25.3422 C   0  0  0  0  0  0  0  0  0  0  0  0
    6.2070  -13.9789   26.4377 C   0  0  0  0  0  0  0  0  0  0  0  0
    6.5330  -12.6297   26.5535 C   0  0  0  0  0  0  0  0  0  0  0  0
    7.2004  -12.0827   25.4691 C   0  0  0  0  0  0  0  0  0  0  0  0
    7.5348  -12.7915   24.3392 C   0  0  0  0  0  0  0  0  0  0  0  0
    9.0312  -16.5852   24.1933 C   0  0  0  0  0  0  0  0  0  0  0  0
    9.2427  -17.8038   23.8531 O   0  0  0  0  0  0  0  0  0  0  0  0
   10.1037  -12.7982   28.6101 C   0  0  0  0  0  0  0  0  0  0  0  0
   10.0636  -14.3281   29.5793 S   0  0  0  0  0  0  0  0  0  0  0  0
    9.4752  -15.6629   28.5114 C   0  0  0  0  0  0  0  0  0  0  0  0
   10.4891  -15.8578   27.3944 C   0  0  0  0  0  0  0  0  0  0  0  0
    9.8919  -16.9402   26.4721 C   0  0  2  0  0  0  0  0  0  0  0  0
    8.9362  -16.2915   25.6033 N   0  0  0  0  0  0  0  0  0  0  0  0
    9.2238  -17.9070   27.3353 C   0  0  0  0  0  0  0  0  0  0  0  0
    7.9903  -18.0270   27.3721 O   0  0  0  0  0  0  0  0  0  0  0  0
   10.0244  -18.7292   28.1529 O   0  0  0  0  0  0  0  0  0  0  0  0
  2  1  1  1
  2  3  1  0
  3  4  1  0
  4  5  2  0
  5  6  1  0
  7  6  1  0
  8  4  1  0
  8  7  2  0
  9  2  1  0
  9 11  1  0
 10  9  2  0
 12 11  1  0
 12 13  1  6
 13 14  1  0
 14 15  2  0
 14 19  1  0
 15 16  1  0
 16 17  2  0
 18 17  1  0
 19 18  2  0
 20 12  1  0
 21 20  2  0
 22 23  1  0
 24 23  1  0
 25 24  1  0
 26 25  1  1
 26 27  1  0
 26 28  1  0
 27 20  1  0
 28 30  1  0
 29 28  2  0
M  END
$$$$
