HFM.pdb
     RDKit          3D

 30 31  0  0  1  0  0  0  0  0999 V2000
   10.5783  -17.3383   19.1469 N   0  0  0  0  0  0  0  0  0  0  0  0
    9.7899  -17.7602   20.2807 C   0  0  1  0  0  0  0  0  0  0  0  0
   10.2061  -19.1543   20.7523 C   0  0  0  0  0  0  0  0  0  0  0  0
    9.6798  -20.1196   19.7547 C   0  0  0  0  0  0  0  0  0  0  0  0
    8.3308  -20.2707   19.4305 C   0  0  0  0  0  0  0  0  0  0  0  0
    8.2668  -21.2469   18.4834 N   0  0  0  0  0  0  0  0  0  0  0  0
    9.4931  -21.6913   18.2187 C   0  0  0  0  0  0  0  0  0  0  0  0
   10.3463  -21.0066   18.9902 N   0  0  0  0  0  0  0  0  0  0  0  0
    9.8197  -16.7902   21.3895 C   0  0  0  0  0  0  0  0  0  0  0  0
   10.8872  -16.1875   21.6673 O   0  0  0  0  0  0  0  0  0  0  0  0
    8.6323  -16.5612   22.1200 N   0  0  0  0  0  0  0  0  0  0  0  0
    8.6369  -15.5966   23.2430 C   0  0  1  0  0  0  0  0  0  0  0  0
    7.2669  -15.0344   23.3996 C   0  0  0  0  0  0  0  0  0  0  0  0
    7.0461  -14.0620   24.4562 C   0  0  0  0  0  0  0  0  0  0  0  0
    6.3529  -14.4638   25.5976 C   0  0  0  0  0  0  0  0  0  0  0  0
    6.1963  -13.5473   26.6043 C   0  0  0  0  0  0  0  0  0  0  0  0
    6.6885  -12.2455   26.5499 C   0  0  0  0  0  0  0  0  0  0  0  0
    7.3665  -11.9128   25.3878 C   0  0  0  0  0  0  0  0  0  0  0  0
    7.5601  -12.7812   24.3393 C   0  0  0  0  0  0  0  0  0  0  0  0
    9.0366  -16.3864   24.4207 C   0  0  0  0  0  0  0  0  0  0  0  0
    8.5478  -17.5629   24.5695 O   0  0  0  0  0  0  0  0  0  0  0  0
    9.5127  -13.3007   29.3541 C   0  0  0  0  0  0  0  0  0  0  0  0
   11.2117  -13.7000   28.8684 S   0  0  0  0  0  0  0  0  0  0  0  0
   11.1515  -14.7480   27.3967 C   0  0  0  0  0  0  0  0  0  0  0  0
   10.4735  -16.0563   27.7741 C   0  0  0  0  0  0  0  0  0  0  0  0
   10.3362  -16.8504   26.4591 C   0  0  2  0  0  0  0  0  0  0  0  0
    9.9612  -15.9145   25.4236 N   0  0  0  0  0  0  0  0  0  0  0  0
    9.2784  -17.8319   26.6685 C   0  0  0  0  0  0  0  0  0  0  0  0
    9.4059  -18.7952   27.4386 O   0  0  0  0  0  0  0  0  0  0  0  0
    8.0710  -17.6654   25.9615 O   0  0  0  0  0  0  0  0  0  0  0  0
  2  1  1  6
  2  3  1  0
  3  4  1  0
  4  5  2  0
  5  6  1  0
  7  6  1  0
  8  4  1  0
  8  7  2  0
  9  2  1  0
  9 11  1  0
 10  9  2  0
 12 11  1  0
 12 13  1  1
 13 14  1  0
 14 15  2  0
 14 19  1  0
 15 16  1  0
 16 17  2  0
 18 17  1  0
 19 18  2  0
 20 12  1  0
 21 20  2  0
 22 23  1  0
 24 23  1  0
 25 24  1  0
 26 25  1  1
 26 27  1  0
 26 28  1  0
 27 20  1  0
 28 30  1  0
 29 28  2  0
M  END
$$$$
