HFM.pdb
     RDKit          3D

 30 31  0  0  1  0  0  0  0  0999 V2000
    9.5713  -18.5778   19.8368 N   0  0  0  0  0  0  0  0  0  0  0  0
   10.4390  -17.4330   19.6899 C   0  0  1  0  0  0  0  0  0  0  0  0
   10.2888  -16.8028   18.3044 C   0  0  0  0  0  0  0  0  0  0  0  0
   10.0160  -17.9119   17.3558 C   0  0  0  0  0  0  0  0  0  0  0  0
    8.7705  -18.1833   16.7880 C   0  0  0  0  0  0  0  0  0  0  0  0
    8.9395  -19.2688   15.9836 N   0  0  0  0  0  0  0  0  0  0  0  0
   10.2088  -19.6661   16.0330 C   0  0  0  0  0  0  0  0  0  0  0  0
   10.8580  -18.8423   16.8649 N   0  0  0  0  0  0  0  0  0  0  0  0
   10.2497  -16.4326   20.7550 C   0  0  0  0  0  0  0  0  0  0  0  0
   11.0397  -15.4595   20.8494 O   0  0  0  0  0  0  0  0  0  0  0  0
    9.1715  -16.5966   21.6532 N   0  0  0  0  0  0  0  0  0  0  0  0
    9.0516  -15.7010   22.8259 C   0  0  1  0  0  0  0  0  0  0  0  0
    7.6203  -15.3307   23.0036 C   0  0  0  0  0  0  0  0  0  0  0  0
    7.2719  -14.4757   24.1255 C   0  0  0  0  0  0  0  0  0  0  0  0
    7.5819  -13.1181   24.0502 C   0  0  0  0  0  0  0  0  0  0  0  0
    7.2024  -12.3185   25.0965 C   0  0  0  0  0  0  0  0  0  0  0  0
    6.5287  -12.7846   26.2228 C   0  0  0  0  0  0  0  0  0  0  0  0
    6.2527  -14.1427   26.2325 C   0  0  0  0  0  0  0  0  0  0  0  0
    6.6039  -15.0025   25.2184 C   0  0  0  0  0  0  0  0  0  0  0  0
    9.5514  -16.4942   23.9624 C   0  0  0  0  0  0  0  0  0  0  0  0
    9.3750  -17.7647   23.9533 O   0  0  0  0  0  0  0  0  0  0  0  0
   10.6483  -12.4073   29.1182 C   0  0  0  0  0  0  0  0  0  0  0  0
   11.5938  -13.9130   28.7710 S   0  0  0  0  0  0  0  0  0  0  0  0
   10.6861  -14.8854   27.5469 C   0  0  0  0  0  0  0  0  0  0  0  0
   11.5785  -16.0318   27.0962 C   0  0  0  0  0  0  0  0  0  0  0  0
   10.7384  -16.8448   26.0903 C   0  0  2  0  0  0  0  0  0  0  0  0
   10.2421  -15.9231   25.0939 N   0  0  0  0  0  0  0  0  0  0  0  0
    9.6334  -17.4300   26.8405 C   0  0  0  0  0  0  0  0  0  0  0  0
    8.4718  -17.0050   26.7565 O   0  0  0  0  0  0  0  0  0  0  0  0
    9.9127  -18.5197   27.6891 O   0  0  0  0  0  0  0  0  0  0  0  0
  2  1  1  1
  2  3  1  0
  3  4  1  0
  4  5  2  0
  5  6  1  0
  7  6  1  0
  8  4  1  0
  8  7  2  0
  9  2  1  0
  9 11  1  0
 10  9  2  0
 12 11  1  0
 12 13  1  1
 13 14  1  0
 14 15  2  0
 14 19  1  0
 15 16  1  0
 16 17  2  0
 18 17  1  0
 19 18  2  0
 20 12  1  0
 21 20  2  0
 22 23  1  0
 24 23  1  0
 25 24  1  0
 26 25  1  1
 26 27  1  0
 26 28  1  0
 27 20  1  0
 28 30  1  0
 29 28  2  0
M  END
$$$$
