HFM.pdb
     RDKit          3D

 30 31  0  0  1  0  0  0  0  0999 V2000
   10.4797  -17.2696   18.8437 N   0  0  0  0  0  0  0  0  0  0  0  0
    9.9226  -17.7595   20.0825 C   0  0  1  0  0  0  0  0  0  0  0  0
   10.6084  -19.0548   20.5202 C   0  0  0  0  0  0  0  0  0  0  0  0
   10.1811  -20.1097   19.5668 C   0  0  0  0  0  0  0  0  0  0  0  0
    8.9367  -20.1541   18.9366 C   0  0  0  0  0  0  0  0  0  0  0  0
    8.9400  -21.2656   18.1501 N   0  0  0  0  0  0  0  0  0  0  0  0
   10.1087  -21.8912   18.2687 C   0  0  0  0  0  0  0  0  0  0  0  0
   10.8579  -21.1887   19.1274 N   0  0  0  0  0  0  0  0  0  0  0  0
    9.9477  -16.7523   21.1577 C   0  0  0  0  0  0  0  0  0  0  0  0
   11.0152  -16.1440   21.4228 O   0  0  0  0  0  0  0  0  0  0  0  0
    8.7557  -16.4945   21.8709 N   0  0  0  0  0  0  0  0  0  0  0  0
    8.7095  -15.3782   22.8423 C   0  0  1  0  0  0  0  0  0  0  0  0
    7.3172  -15.2422   23.3525 C   0  0  0  0  0  0  0  0  0  0  0  0
    7.0434  -14.1869   24.3129 C   0  0  0  0  0  0  0  0  0  0  0  0
    7.4636  -12.8906   24.0167 C   0  0  0  0  0  0  0  0  0  0  0  0
    7.1541  -11.8999   24.9114 C   0  0  0  0  0  0  0  0  0  0  0  0
    6.4477  -12.1157   26.0922 C   0  0  0  0  0  0  0  0  0  0  0  0
    6.0611  -13.4262   26.3243 C   0  0  0  0  0  0  0  0  0  0  0  0
    6.3376  -14.4684   25.4709 C   0  0  0  0  0  0  0  0  0  0  0  0
    9.6436  -15.7674   23.9131 C   0  0  0  0  0  0  0  0  0  0  0  0
   10.8074  -15.2290   23.9426 O   0  0  0  0  0  0  0  0  0  0  0  0
   10.7857  -12.7120   28.0745 C   0  0  0  0  0  0  0  0  0  0  0  0
   10.6752  -14.1604   29.1569 S   0  0  0  0  0  0  0  0  0  0  0  0
   10.8719  -15.6445   28.1436 C   0  0  0  0  0  0  0  0  0  0  0  0
    9.9654  -15.5125   26.9293 C   0  0  0  0  0  0  0  0  0  0  0  0
   10.2119  -16.7789   26.0841 C   0  0  2  0  0  0  0  0  0  0  0  0
    9.3219  -16.7221   24.9468 N   0  0  0  0  0  0  0  0  0  0  0  0
    9.8864  -17.9203   26.9312 C   0  0  0  0  0  0  0  0  0  0  0  0
   10.6197  -18.2920   27.8593 O   0  0  0  0  0  0  0  0  0  0  0  0
    8.6892  -18.6169   26.6727 O   0  0  0  0  0  0  0  0  0  0  0  0
  2  1  1  6
  2  3  1  0
  3  4  1  0
  4  5  2  0
  5  6  1  0
  7  6  1  0
  8  4  1  0
  8  7  2  0
  9  2  1  0
  9 11  1  0
 10  9  2  0
 12 11  1  0
 12 13  1  1
 13 14  1  0
 14 15  2  0
 14 19  1  0
 15 16  1  0
 16 17  2  0
 18 17  1  0
 19 18  2  0
 20 12  1  0
 21 20  2  0
 22 23  1  0
 24 23  1  0
 25 24  1  0
 26 25  1  1
 26 27  1  0
 26 28  1  0
 27 20  1  0
 28 30  1  0
 29 28  2  0
M  END
$$$$
