HFM.pdb
     RDKit          3D

 30 31  0  0  1  0  0  0  0  0999 V2000
   10.0310  -18.2357   20.2041 N   0  0  0  0  0  0  0  0  0  0  0  0
   11.0693  -17.2714   20.4815 C   0  0  1  0  0  0  0  0  0  0  0  0
   11.3995  -16.4449   19.2376 C   0  0  0  0  0  0  0  0  0  0  0  0
   11.2367  -17.3455   18.0685 C   0  0  0  0  0  0  0  0  0  0  0  0
   10.0148  -17.8423   17.6127 C   0  0  0  0  0  0  0  0  0  0  0  0
   10.2925  -18.6214   16.5311 N   0  0  0  0  0  0  0  0  0  0  0  0
   11.6048  -18.6233   16.3091 C   0  0  0  0  0  0  0  0  0  0  0  0
   12.1735  -17.8497   17.2419 N   0  0  0  0  0  0  0  0  0  0  0  0
   10.7514  -16.4045   21.6298 C   0  0  0  0  0  0  0  0  0  0  0  0
   11.5649  -15.5164   21.9896 O   0  0  0  0  0  0  0  0  0  0  0  0
    9.5252  -16.5977   22.3042 N   0  0  0  0  0  0  0  0  0  0  0  0
    9.2005  -15.7689   23.4873 C   0  0  1  0  0  0  0  0  0  0  0  0
    7.8028  -15.2722   23.3573 C   0  0  0  0  0  0  0  0  0  0  0  0
    7.2745  -14.4375   24.4227 C   0  0  0  0  0  0  0  0  0  0  0  0
    6.4833  -15.0322   25.4051 C   0  0  0  0  0  0  0  0  0  0  0  0
    6.0340  -14.2392   26.4285 C   0  0  0  0  0  0  0  0  0  0  0  0
    6.3226  -12.8812   26.5400 C   0  0  0  0  0  0  0  0  0  0  0  0
    7.1129  -12.3551   25.5303 C   0  0  0  0  0  0  0  0  0  0  0  0
    7.5974  -13.0916   24.4750 C   0  0  0  0  0  0  0  0  0  0  0  0
    9.3486  -16.6759   24.6387 C   0  0  0  0  0  0  0  0  0  0  0  0
    9.2639  -17.9408   24.4429 O   0  0  0  0  0  0  0  0  0  0  0  0
    9.6280  -12.6725   29.0065 C   0  0  0  0  0  0  0  0  0  0  0  0
   10.7133  -14.0695   29.3967 S   0  0  0  0  0  0  0  0  0  0  0  0
   10.8402  -15.1184   27.9299 C   0  0  0  0  0  0  0  0  0  0  0  0
   10.2862  -16.4911   28.2797 C   0  0  0  0  0  0  0  0  0  0  0  0
   10.0663  -17.2088   26.9323 C   0  0  2  0  0  0  0  0  0  0  0  0
    9.5938  -16.2229   25.9871 N   0  0  0  0  0  0  0  0  0  0  0  0
    9.0486  -18.2280   27.1594 C   0  0  0  0  0  0  0  0  0  0  0  0
    7.9106  -18.1535   26.6730 O   0  0  0  0  0  0  0  0  0  0  0  0
    9.3867  -19.3339   27.9644 O   0  0  0  0  0  0  0  0  0  0  0  0
  2  1  1  6
  2  3  1  0
  3  4  1  0
  4  5  2  0
  5  6  1  0
  7  6  1  0
  8  4  1  0
  8  7  2  0
  9  2  1  0
  9 11  1  0
 10  9  2  0
 12 11  1  0
 12 13  1  6
 13 14  1  0
 14 15  2  0
 14 19  1  0
 15 16  1  0
 16 17  2  0
 18 17  1  0
 19 18  2  0
 20 12  1  0
 21 20  2  0
 22 23  1  0
 24 23  1  0
 25 24  1  0
 26 25  1  1
 26 27  1  0
 26 28  1  0
 27 20  1  0
 28 30  1  0
 29 28  2  0
M  END
$$$$
