HFM.pdb
     RDKit          3D

 30 31  0  0  1  0  0  0  0  0999 V2000
    9.5821  -17.4065   18.8883 N   0  0  0  0  0  0  0  0  0  0  0  0
   10.4559  -17.7047   19.9986 C   0  0  1  0  0  0  0  0  0  0  0  0
   11.8980  -17.8988   19.5274 C   0  0  0  0  0  0  0  0  0  0  0  0
   11.8672  -18.9409   18.4703 C   0  0  0  0  0  0  0  0  0  0  0  0
   12.0422  -20.3069   18.6961 C   0  0  0  0  0  0  0  0  0  0  0  0
   11.9444  -20.9161   17.4823 N   0  0  0  0  0  0  0  0  0  0  0  0
   11.7216  -20.0010   16.5418 C   0  0  0  0  0  0  0  0  0  0  0  0
   11.6755  -18.8060   17.1435 N   0  0  0  0  0  0  0  0  0  0  0  0
   10.3760  -16.7002   21.0737 C   0  0  0  0  0  0  0  0  0  0  0  0
   11.3453  -15.9281   21.2842 O   0  0  0  0  0  0  0  0  0  0  0  0
    9.1970  -16.6315   21.8490 N   0  0  0  0  0  0  0  0  0  0  0  0
    9.0971  -15.6416   22.9454 C   0  0  1  0  0  0  0  0  0  0  0  0
    7.6626  -15.3046   23.1595 C   0  0  0  0  0  0  0  0  0  0  0  0
    7.3312  -14.3909   24.2394 C   0  0  0  0  0  0  0  0  0  0  0  0
    6.6470  -14.8891   25.3477 C   0  0  0  0  0  0  0  0  0  0  0  0
    6.3858  -14.0239   26.3778 C   0  0  0  0  0  0  0  0  0  0  0  0
    6.7639  -12.6834   26.3780 C   0  0  0  0  0  0  0  0  0  0  0  0
    7.4395  -12.2546   25.2465 C   0  0  0  0  0  0  0  0  0  0  0  0
    7.7345  -13.0673   24.1772 C   0  0  0  0  0  0  0  0  0  0  0  0
    9.6767  -16.3159   24.1200 C   0  0  0  0  0  0  0  0  0  0  0  0
    9.6347  -17.5965   24.1797 O   0  0  0  0  0  0  0  0  0  0  0  0
    9.8337  -12.9235   28.9059 C   0  0  0  0  0  0  0  0  0  0  0  0
   10.7695  -14.2822   29.6544 S   0  0  0  0  0  0  0  0  0  0  0  0
   10.6320  -15.7284   28.5785 C   0  0  0  0  0  0  0  0  0  0  0  0
   11.4560  -15.4676   27.3268 C   0  0  0  0  0  0  0  0  0  0  0  0
   10.9000  -16.4255   26.2534 C   0  0  2  0  0  0  0  0  0  0  0  0
   10.3029  -15.6156   25.2159 N   0  0  0  0  0  0  0  0  0  0  0  0
    9.8880  -17.2475   26.9062 C   0  0  0  0  0  0  0  0  0  0  0  0
   10.1709  -18.0971   27.7636 O   0  0  0  0  0  0  0  0  0  0  0  0
    8.5413  -17.0569   26.5378 O   0  0  0  0  0  0  0  0  0  0  0  0
  2  1  1  6
  2  3  1  0
  3  4  1  0
  4  5  2  0
  5  6  1  0
  7  6  1  0
  8  4  1  0
  8  7  2  0
  9  2  1  0
  9 11  1  0
 10  9  2  0
 12 11  1  0
 12 13  1  1
 13 14  1  0
 14 15  2  0
 14 19  1  0
 15 16  1  0
 16 17  2  0
 18 17  1  0
 19 18  2  0
 20 12  1  0
 21 20  2  0
 22 23  1  0
 24 23  1  0
 25 24  1  0
 26 25  1  1
 26 27  1  0
 26 28  1  0
 27 20  1  0
 28 30  1  0
 29 28  2  0
M  END
$$$$
