HFM.pdb
     RDKit          3D

 30 31  0  0  1  0  0  0  0  0999 V2000
   10.7966  -17.1704   18.7244 N   0  0  0  0  0  0  0  0  0  0  0  0
    9.9876  -17.6281   19.8294 C   0  0  1  0  0  0  0  0  0  0  0  0
   10.4269  -19.0173   20.2948 C   0  0  0  0  0  0  0  0  0  0  0  0
    9.5267  -19.9956   19.6339 C   0  0  0  0  0  0  0  0  0  0  0  0
    9.2709  -20.0394   18.2628 C   0  0  0  0  0  0  0  0  0  0  0  0
    8.4030  -21.0695   18.0631 N   0  0  0  0  0  0  0  0  0  0  0  0
    8.1220  -21.6469   19.2289 C   0  0  0  0  0  0  0  0  0  0  0  0
    8.8040  -20.9942   20.1780 N   0  0  0  0  0  0  0  0  0  0  0  0
    9.9603  -16.6730   20.9511 C   0  0  0  0  0  0  0  0  0  0  0  0
   10.9597  -15.9460   21.1805 O   0  0  0  0  0  0  0  0  0  0  0  0
    8.7965  -16.5994   21.7487 N   0  0  0  0  0  0  0  0  0  0  0  0
    8.6946  -15.5653   22.8032 C   0  0  1  0  0  0  0  0  0  0  0  0
    7.2591  -15.2253   23.0059 C   0  0  0  0  0  0  0  0  0  0  0  0
    6.9238  -14.2879   24.0641 C   0  0  0  0  0  0  0  0  0  0  0  0
    7.2186  -12.9379   23.8767 C   0  0  0  0  0  0  0  0  0  0  0  0
    6.8513  -12.0619   24.8645 C   0  0  0  0  0  0  0  0  0  0  0  0
    6.2041  -12.4439   26.0371 C   0  0  0  0  0  0  0  0  0  0  0  0
    5.9420  -13.7993   26.1586 C   0  0  0  0  0  0  0  0  0  0  0  0
    6.2823  -14.7330   25.2081 C   0  0  0  0  0  0  0  0  0  0  0  0
    9.2790  -16.1879   24.0037 C   0  0  0  0  0  0  0  0  0  0  0  0
    9.5525  -17.4409   23.9780 O   0  0  0  0  0  0  0  0  0  0  0  0
   10.7687  -13.3078   29.5547 C   0  0  0  0  0  0  0  0  0  0  0  0
   11.4092  -14.9540   29.9566 S   0  0  0  0  0  0  0  0  0  0  0  0
   11.2044  -16.0139   28.5066 C   0  0  0  0  0  0  0  0  0  0  0  0
   10.5117  -15.2036   27.4215 C   0  0  0  0  0  0  0  0  0  0  0  0
   10.2876  -16.1805   26.2492 C   0  0  2  0  0  0  0  0  0  0  0  0
    9.5732  -15.4640   25.2173 N   0  0  0  0  0  0  0  0  0  0  0  0
    9.4769  -17.2775   26.7645 C   0  0  0  0  0  0  0  0  0  0  0  0
    9.9460  -18.1728   27.4825 O   0  0  0  0  0  0  0  0  0  0  0  0
    8.1098  -17.3072   26.4246 O   0  0  0  0  0  0  0  0  0  0  0  0
  2  1  1  6
  2  3  1  0
  3  4  1  0
  4  5  2  0
  5  6  1  0
  7  6  1  0
  8  4  1  0
  8  7  2  0
  9  2  1  0
  9 11  1  0
 10  9  2  0
 12 11  1  0
 12 13  1  1
 13 14  1  0
 14 15  2  0
 14 19  1  0
 15 16  1  0
 16 17  2  0
 18 17  1  0
 19 18  2  0
 20 12  1  0
 21 20  2  0
 22 23  1  0
 24 23  1  0
 25 24  1  0
 26 25  1  1
 26 27  1  0
 26 28  1  0
 27 20  1  0
 28 30  1  0
 29 28  2  0
M  END
$$$$
