HFM.pdb
     RDKit          3D

 30 31  0  0  1  0  0  0  0  0999 V2000
    9.6570  -18.3310   19.8987 N   0  0  0  0  0  0  0  0  0  0  0  0
   10.5855  -17.2282   19.8176 C   0  0  1  0  0  0  0  0  0  0  0  0
   10.5109  -16.5451   18.4511 C   0  0  0  0  0  0  0  0  0  0  0  0
   10.7286  -17.6016   17.4310 C   0  0  0  0  0  0  0  0  0  0  0  0
   11.9775  -17.9915   16.9453 C   0  0  0  0  0  0  0  0  0  0  0  0
   11.7486  -18.9772   16.0342 N   0  0  0  0  0  0  0  0  0  0  0  0
   10.4402  -19.2034   15.9426 C   0  0  0  0  0  0  0  0  0  0  0  0
    9.8255  -18.3687   16.7897 N   0  0  0  0  0  0  0  0  0  0  0  0
   10.4136  -16.2555   20.9110 C   0  0  0  0  0  0  0  0  0  0  0  0
   11.2422  -15.3214   21.0557 O   0  0  0  0  0  0  0  0  0  0  0  0
    9.3080  -16.4011   21.7783 N   0  0  0  0  0  0  0  0  0  0  0  0
    9.1537  -15.4836   22.9299 C   0  0  1  0  0  0  0  0  0  0  0  0
    7.7358  -15.0343   23.0000 C   0  0  0  0  0  0  0  0  0  0  0  0
    7.3385  -14.2054   24.1252 C   0  0  0  0  0  0  0  0  0  0  0  0
    6.6103  -14.7911   25.1602 C   0  0  0  0  0  0  0  0  0  0  0  0
    6.2863  -14.0060   26.2356 C   0  0  0  0  0  0  0  0  0  0  0  0
    6.6422  -12.6643   26.3503 C   0  0  0  0  0  0  0  0  0  0  0  0
    7.3642  -12.1464   25.2868 C   0  0  0  0  0  0  0  0  0  0  0  0
    7.7229  -12.8758   24.1776 C   0  0  0  0  0  0  0  0  0  0  0  0
    9.5270  -16.2860   24.1077 C   0  0  0  0  0  0  0  0  0  0  0  0
    9.3134  -17.5507   24.0857 O   0  0  0  0  0  0  0  0  0  0  0  0
    9.3508  -13.0619   29.9926 C   0  0  0  0  0  0  0  0  0  0  0  0
   10.7449  -13.9714   29.2776 S   0  0  0  0  0  0  0  0  0  0  0  0
   10.1068  -15.0760   27.9967 C   0  0  0  0  0  0  0  0  0  0  0  0
   11.2786  -15.8489   27.4109 C   0  0  0  0  0  0  0  0  0  0  0  0
   10.6963  -16.6668   26.2401 C   0  0  2  0  0  0  0  0  0  0  0  0
   10.1323  -15.7306   25.2945 N   0  0  0  0  0  0  0  0  0  0  0  0
    9.6537  -17.5190   26.7994 C   0  0  0  0  0  0  0  0  0  0  0  0
    8.4468  -17.3048   26.6132 O   0  0  0  0  0  0  0  0  0  0  0  0
   10.0489  -18.6243   27.5789 O   0  0  0  0  0  0  0  0  0  0  0  0
  2  1  1  6
  2  3  1  0
  3  4  1  0
  4  5  2  0
  5  6  1  0
  7  6  1  0
  8  4  1  0
  8  7  2  0
  9  2  1  0
  9 11  1  0
 10  9  2  0
 12 11  1  0
 12 13  1  1
 13 14  1  0
 14 15  2  0
 14 19  1  0
 15 16  1  0
 16 17  2  0
 18 17  1  0
 19 18  2  0
 20 12  1  0
 21 20  2  0
 22 23  1  0
 24 23  1  0
 25 24  1  0
 26 25  1  1
 26 27  1  0
 26 28  1  0
 27 20  1  0
 28 30  1  0
 29 28  2  0
M  END
$$$$
