GLW.pdb
     RDKit          3D

 27 28  0  0  1  0  0  0  0  0999 V2000
   12.6088  -16.7556   17.9654 N   0  0  0  0  0  0  0  0  0  0  0  0
   11.5739  -17.3930   18.7473 C   0  0  0  0  0  0  0  0  0  0  0  0
   11.1113  -16.5603   19.8666 C   0  0  0  0  0  0  0  0  0  0  0  0
   11.8993  -16.1233   20.7402 O   0  0  0  0  0  0  0  0  0  0  0  0
    6.2061  -13.6652   19.6583 C   0  0  0  0  0  0  0  0  0  0  0  0
    7.7154  -13.9678   19.7662 C   0  0  1  0  0  0  0  0  0  0  0  0
    8.4153  -12.6639   19.8478 C   0  0  0  0  0  0  0  0  0  0  0  0
    7.8672  -14.9169   20.8747 C   0  0  0  0  0  0  0  0  0  0  0  0
    9.1843  -15.5393   21.1318 C   0  0  2  0  0  0  0  0  0  0  0  0
    9.7438  -16.2210   19.9954 N   0  0  0  0  0  0  0  0  0  0  0  0
    9.2257  -16.3615   22.3669 C   0  0  0  0  0  0  0  0  0  0  0  0
    9.2371  -17.6105   22.2352 O   0  0  0  0  0  0  0  0  0  0  0  0
    9.2532  -15.8294   23.6815 N   0  0  0  0  0  0  0  0  0  0  0  0
    9.3937  -16.6603   24.8679 C   0  0  1  0  0  0  0  0  0  0  0  0
    9.2350  -15.8423   26.1272 C   0  0  0  0  0  0  0  0  0  0  0  0
    7.9654  -15.0795   26.1413 C   0  0  0  0  0  0  0  0  0  0  0  0
    6.6786  -15.5435   25.9941 C   0  0  0  0  0  0  0  0  0  0  0  0
    5.8161  -14.5227   26.0701 N   0  0  0  0  0  0  0  0  0  0  0  0
    6.4927  -13.3676   26.2668 C   0  0  0  0  0  0  0  0  0  0  0  0
    6.1133  -12.0508   26.4125 C   0  0  0  0  0  0  0  0  0  0  0  0
    7.0460  -11.0378   26.6064 C   0  0  0  0  0  0  0  0  0  0  0  0
    8.3677  -11.4282   26.6439 C   0  0  0  0  0  0  0  0  0  0  0  0
    8.7625  -12.7423   26.4996 C   0  0  0  0  0  0  0  0  0  0  0  0
    7.8302  -13.7109   26.3115 C   0  0  0  0  0  0  0  0  0  0  0  0
    8.2201  -17.6070   24.8449 C   0  0  0  0  0  0  0  0  0  0  0  0
    8.2036  -18.7325   25.6665 O   0  0  0  0  0  0  0  0  0  0  0  0
    7.2240  -17.4319   24.1021 O   0  0  0  0  0  0  0  0  0  0  0  0
  2  1  1  0
  3  2  1  0
  3  4  2  0
  6  5  1  1
  6  7  1  0
  8  6  1  0
  9  8  1  6
  9 10  1  0
 10  3  1  0
 11  9  1  0
 12 11  2  0
 13 11  1  0
 14 13  1  0
 14 25  1  0
 14 15  1  1
 16 15  1  0
 17 16  2  0
 18 17  1  0
 19 18  1  0
 19 24  2  0
 20 19  1  0
 21 20  2  0
 21 22  1  0
 22 23  2  0
 23 24  1  0
 24 16  1  0
 25 26  1  0
 27 25  2  0
M  END
$$$$
