GLW.pdb
     RDKit          3D

 27 28  0  0  1  0  0  0  0  0999 V2000
    7.2931  -19.8447   20.1885 N   0  0  0  0  0  0  0  0  0  0  0  0
    7.0498  -18.6881   21.0202 C   0  0  0  0  0  0  0  0  0  0  0  0
    8.1514  -17.7161   20.9803 C   0  0  0  0  0  0  0  0  0  0  0  0
    9.3133  -18.0416   20.6351 O   0  0  0  0  0  0  0  0  0  0  0  0
    7.1721  -12.2233   20.4031 C   0  0  0  0  0  0  0  0  0  0  0  0
    7.5960  -13.6936   20.2038 C   0  0  1  0  0  0  0  0  0  0  0  0
    8.0407  -13.8308   18.7967 C   0  0  0  0  0  0  0  0  0  0  0  0
    8.5519  -13.9957   21.2751 C   0  0  0  0  0  0  0  0  0  0  0  0
    8.9808  -15.3930   21.5024 C   0  0  2  0  0  0  0  0  0  0  0  0
    7.9327  -16.3639   21.3352 N   0  0  0  0  0  0  0  0  0  0  0  0
    9.7418  -15.5871   22.7619 C   0  0  0  0  0  0  0  0  0  0  0  0
   10.8768  -15.0558   22.8446 O   0  0  0  0  0  0  0  0  0  0  0  0
    9.2713  -16.3313   23.8741 N   0  0  0  0  0  0  0  0  0  0  0  0
   10.0570  -16.5279   25.0831 C   0  0  1  0  0  0  0  0  0  0  0  0
    9.6611  -15.5418   26.1559 C   0  0  0  0  0  0  0  0  0  0  0  0
    8.2191  -15.2079   26.1028 C   0  0  0  0  0  0  0  0  0  0  0  0
    7.1546  -16.0265   25.8032 C   0  0  0  0  0  0  0  0  0  0  0  0
    6.0135  -15.3298   25.8678 N   0  0  0  0  0  0  0  0  0  0  0  0
    6.2806  -14.0474   26.2069 C   0  0  0  0  0  0  0  0  0  0  0  0
    5.5000  -12.9294   26.4068 C   0  0  0  0  0  0  0  0  0  0  0  0
    6.0544  -11.7032   26.7574 C   0  0  0  0  0  0  0  0  0  0  0  0
    7.4260  -11.6732   26.8924 C   0  0  0  0  0  0  0  0  0  0  0  0
    8.2203  -12.7841   26.6955 C   0  0  0  0  0  0  0  0  0  0  0  0
    7.6521  -13.9686   26.3538 C   0  0  0  0  0  0  0  0  0  0  0  0
    9.6633  -17.8849   25.6100 C   0  0  0  0  0  0  0  0  0  0  0  0
   10.3869  -18.4799   26.6418 O   0  0  0  0  0  0  0  0  0  0  0  0
    8.6874  -18.5300   25.1558 O   0  0  0  0  0  0  0  0  0  0  0  0
  2  1  1  0
  3  2  1  0
  3  4  2  0
  6  5  1  1
  6  7  1  0
  8  6  1  0
  9  8  1  1
  9 10  1  0
 10  3  1  0
 11  9  1  0
 12 11  2  0
 13 11  1  0
 14 13  1  0
 14 25  1  0
 14 15  1  1
 16 15  1  0
 17 16  2  0
 18 17  1  0
 19 18  1  0
 19 24  2  0
 20 19  1  0
 21 20  2  0
 21 22  1  0
 22 23  2  0
 23 24  1  0
 24 16  1  0
 25 26  1  0
 27 25  2  0
M  END
$$$$
