GLW.pdb
     RDKit          3D

 27 28  0  0  1  0  0  0  0  0999 V2000
    9.0723  -20.1222   18.5611 N   0  0  0  0  0  0  0  0  0  0  0  0
    8.7895  -19.4700   19.8194 C   0  0  0  0  0  0  0  0  0  0  0  0
    9.3276  -18.1040   19.8864 C   0  0  0  0  0  0  0  0  0  0  0  0
   10.5408  -17.8565   19.6813 O   0  0  0  0  0  0  0  0  0  0  0  0
    8.7744  -12.8829   18.8309 C   0  0  0  0  0  0  0  0  0  0  0  0
    8.1094  -13.2209   20.1818 C   0  0  1  0  0  0  0  0  0  0  0  0
    6.9905  -12.2666   20.3662 C   0  0  0  0  0  0  0  0  0  0  0  0
    7.8092  -14.6566   20.1455 C   0  0  0  0  0  0  0  0  0  0  0  0
    8.9137  -15.6384   20.2119 C   0  0  2  0  0  0  0  0  0  0  0  0
    8.4823  -17.0104   20.1889 N   0  0  0  0  0  0  0  0  0  0  0  0
    9.8907  -15.3662   21.2956 C   0  0  0  0  0  0  0  0  0  0  0  0
   10.6638  -14.3871   21.1507 O   0  0  0  0  0  0  0  0  0  0  0  0
   10.0069  -16.1380   22.4802 N   0  0  0  0  0  0  0  0  0  0  0  0
    9.3957  -15.7469   23.7416 C   0  0  1  0  0  0  0  0  0  0  0  0
    7.9091  -15.5345   23.5833 C   0  0  0  0  0  0  0  0  0  0  0  0
    7.2776  -15.0526   24.8335 C   0  0  0  0  0  0  0  0  0  0  0  0
    6.5019  -15.7484   25.7319 C   0  0  0  0  0  0  0  0  0  0  0  0
    6.1289  -14.9401   26.7315 N   0  0  0  0  0  0  0  0  0  0  0  0
    6.6370  -13.7022   26.5310 C   0  0  0  0  0  0  0  0  0  0  0  0
    6.5672  -12.5160   27.2289 C   0  0  0  0  0  0  0  0  0  0  0  0
    7.2027  -11.3638   26.7789 C   0  0  0  0  0  0  0  0  0  0  0  0
    7.9039  -11.4790   25.5975 C   0  0  0  0  0  0  0  0  0  0  0  0
    7.9827  -12.6597   24.8879 C   0  0  0  0  0  0  0  0  0  0  0  0
    7.3523  -13.7692   25.3508 C   0  0  0  0  0  0  0  0  0  0  0  0
    9.5434  -16.9385   24.6539 C   0  0  0  0  0  0  0  0  0  0  0  0
    9.6869  -16.7626   26.0289 O   0  0  0  0  0  0  0  0  0  0  0  0
    9.5444  -18.1194   24.2296 O   0  0  0  0  0  0  0  0  0  0  0  0
  2  1  1  0
  3  2  1  0
  3  4  2  0
  6  5  1  6
  6  7  1  0
  8  6  1  0
  9  8  1  1
  9 10  1  0
 10  3  1  0
 11  9  1  0
 12 11  2  0
 13 11  1  0
 14 13  1  0
 14 25  1  0
 14 15  1  6
 16 15  1  0
 17 16  2  0
 18 17  1  0
 19 18  1  0
 19 24  2  0
 20 19  1  0
 21 20  2  0
 21 22  1  0
 22 23  2  0
 23 24  1  0
 24 16  1  0
 25 26  1  0
 27 25  2  0
M  END
$$$$
