GLW.pdb
     RDKit          3D

 27 28  0  0  1  0  0  0  0  0999 V2000
    9.9881  -19.7469   19.6593 N   0  0  0  0  0  0  0  0  0  0  0  0
    8.9907  -18.9691   20.3584 C   0  0  0  0  0  0  0  0  0  0  0  0
    9.5182  -17.6980   20.8742 C   0  0  0  0  0  0  0  0  0  0  0  0
   10.7407  -17.4180   20.8285 O   0  0  0  0  0  0  0  0  0  0  0  0
    6.3758  -13.1704   20.4423 C   0  0  0  0  0  0  0  0  0  0  0  0
    7.5247  -14.1914   20.3042 C   0  0  1  0  0  0  0  0  0  0  0  0
    8.4111  -13.7041   19.2209 C   0  0  0  0  0  0  0  0  0  0  0  0
    8.0873  -14.3629   21.6483 C   0  0  0  0  0  0  0  0  0  0  0  0
    9.0718  -15.4381   21.8992 C   0  0  2  0  0  0  0  0  0  0  0  0
    8.6514  -16.7371   21.4463 N   0  0  0  0  0  0  0  0  0  0  0  0
    9.5915  -15.4599   23.2894 C   0  0  0  0  0  0  0  0  0  0  0  0
   10.2928  -14.4879   23.6645 O   0  0  0  0  0  0  0  0  0  0  0  0
    9.3479  -16.5041   24.2181 N   0  0  0  0  0  0  0  0  0  0  0  0
    9.9828  -16.5627   25.5262 C   0  0  1  0  0  0  0  0  0  0  0  0
    8.9529  -16.6161   26.6292 C   0  0  0  0  0  0  0  0  0  0  0  0
    7.7752  -15.7673   26.3351 C   0  0  0  0  0  0  0  0  0  0  0  0
    6.5864  -16.1183   25.7381 C   0  0  0  0  0  0  0  0  0  0  0  0
    5.7840  -15.0497   25.6606 N   0  0  0  0  0  0  0  0  0  0  0  0
    6.4053  -13.9731   26.1951 C   0  0  0  0  0  0  0  0  0  0  0  0
    6.0492  -12.6533   26.3698 C   0  0  0  0  0  0  0  0  0  0  0  0
    6.9086  -11.7362   26.9650 C   0  0  0  0  0  0  0  0  0  0  0  0
    8.1332  -12.2246   27.3682 C   0  0  0  0  0  0  0  0  0  0  0  0
    8.5036  -13.5430   27.2000 C   0  0  0  0  0  0  0  0  0  0  0  0
    7.6445  -14.4166   26.6156 C   0  0  0  0  0  0  0  0  0  0  0  0
   10.7007  -17.8880   25.5728 C   0  0  0  0  0  0  0  0  0  0  0  0
   11.5043  -18.2187   26.6624 O   0  0  0  0  0  0  0  0  0  0  0  0
   10.6119  -18.7383   24.6543 O   0  0  0  0  0  0  0  0  0  0  0  0
  2  1  1  0
  3  2  1  0
  3  4  2  0
  6  5  1  1
  6  7  1  0
  8  6  1  0
  9  8  1  1
  9 10  1  0
 10  3  1  0
 11  9  1  0
 12 11  2  0
 13 11  1  0
 14 13  1  0
 14 25  1  0
 14 15  1  1
 16 15  1  0
 17 16  2  0
 18 17  1  0
 19 18  1  0
 19 24  2  0
 20 19  1  0
 21 20  2  0
 21 22  1  0
 22 23  2  0
 23 24  1  0
 24 16  1  0
 25 26  1  0
 27 25  2  0
M  END
$$$$
