GLW.pdb
     RDKit          3D

 27 28  0  0  1  0  0  0  0  0999 V2000
    7.1928  -19.9162   20.3099 N   0  0  0  0  0  0  0  0  0  0  0  0
    7.0193  -18.7129   21.0913 C   0  0  0  0  0  0  0  0  0  0  0  0
    8.1932  -17.8298   21.0453 C   0  0  0  0  0  0  0  0  0  0  0  0
    9.3104  -18.2296   20.6367 O   0  0  0  0  0  0  0  0  0  0  0  0
    7.5280  -12.2449   21.3084 C   0  0  0  0  0  0  0  0  0  0  0  0
    7.5311  -13.7594   21.0126 C   0  0  1  0  0  0  0  0  0  0  0  0
    6.8403  -13.9502   19.7153 C   0  0  0  0  0  0  0  0  0  0  0  0
    8.9246  -14.2010   21.1379 C   0  0  0  0  0  0  0  0  0  0  0  0
    9.2191  -15.5862   21.5653 C   0  0  2  0  0  0  0  0  0  0  0  0
    8.0983  -16.4824   21.4665 N   0  0  0  0  0  0  0  0  0  0  0  0
    9.9043  -15.6731   22.8791 C   0  0  0  0  0  0  0  0  0  0  0  0
   10.9706  -15.0255   23.0241 O   0  0  0  0  0  0  0  0  0  0  0  0
    9.4341  -16.4378   23.9774 N   0  0  0  0  0  0  0  0  0  0  0  0
   10.1946  -16.6064   25.2066 C   0  0  1  0  0  0  0  0  0  0  0  0
    9.8516  -15.5319   26.2106 C   0  0  0  0  0  0  0  0  0  0  0  0
    8.4213  -15.1512   26.1543 C   0  0  0  0  0  0  0  0  0  0  0  0
    7.3281  -15.9420   25.8845 C   0  0  0  0  0  0  0  0  0  0  0  0
    6.2115  -15.2054   25.9336 N   0  0  0  0  0  0  0  0  0  0  0  0
    6.5236  -13.9233   26.2325 C   0  0  0  0  0  0  0  0  0  0  0  0
    5.7823  -12.7740   26.4023 C   0  0  0  0  0  0  0  0  0  0  0  0
    6.3796  -11.5572   26.7130 C   0  0  0  0  0  0  0  0  0  0  0  0
    7.7523  -11.5696   26.8405 C   0  0  0  0  0  0  0  0  0  0  0  0
    8.5075  -12.7122   26.6735 C   0  0  0  0  0  0  0  0  0  0  0  0
    7.8978  -13.8865   26.3704 C   0  0  0  0  0  0  0  0  0  0  0  0
    9.7113  -17.9004   25.8117 C   0  0  0  0  0  0  0  0  0  0  0  0
    8.7480  -18.6689   25.1607 O   0  0  0  0  0  0  0  0  0  0  0  0
   10.1427  -18.3385   26.9056 O   0  0  0  0  0  0  0  0  0  0  0  0
  2  1  1  0
  3  2  1  0
  3  4  2  0
  6  5  1  6
  6  7  1  0
  8  6  1  0
  9  8  1  1
  9 10  1  0
 10  3  1  0
 11  9  1  0
 12 11  2  0
 13 11  1  0
 14 13  1  0
 14 25  1  0
 14 15  1  1
 16 15  1  0
 17 16  2  0
 18 17  1  0
 19 18  1  0
 19 24  2  0
 20 19  1  0
 21 20  2  0
 21 22  1  0
 22 23  2  0
 23 24  1  0
 24 16  1  0
 25 26  1  0
 27 25  2  0
M  END
$$$$
