GLW.pdb
     RDKit          3D

 27 28  0  0  1  0  0  0  0  0999 V2000
   12.9590  -17.0057   18.6103 N   0  0  0  0  0  0  0  0  0  0  0  0
   11.7312  -17.5114   19.1809 C   0  0  0  0  0  0  0  0  0  0  0  0
   11.2605  -16.7108   20.3201 C   0  0  0  0  0  0  0  0  0  0  0  0
   12.0549  -16.1909   21.1408 O   0  0  0  0  0  0  0  0  0  0  0  0
    6.0452  -14.3246   20.3004 C   0  0  0  0  0  0  0  0  0  0  0  0
    7.5816  -14.4669   20.2830 C   0  0  1  0  0  0  0  0  0  0  0  0
    8.1442  -13.0972   20.2199 C   0  0  0  0  0  0  0  0  0  0  0  0
    7.9298  -15.3171   21.4270 C   0  0  0  0  0  0  0  0  0  0  0  0
    9.3329  -15.7418   21.6246 C   0  0  2  0  0  0  0  0  0  0  0  0
    9.8773  -16.4989   20.5294 N   0  0  0  0  0  0  0  0  0  0  0  0
    9.5838  -16.3816   22.9402 C   0  0  0  0  0  0  0  0  0  0  0  0
    9.8856  -17.6008   22.9471 O   0  0  0  0  0  0  0  0  0  0  0  0
    9.5050  -15.7073   24.1857 N   0  0  0  0  0  0  0  0  0  0  0  0
    9.8452  -16.3410   25.4507 C   0  0  1  0  0  0  0  0  0  0  0  0
    9.4253  -15.4825   26.6198 C   0  0  0  0  0  0  0  0  0  0  0  0
    8.0637  -14.9267   26.4438 C   0  0  0  0  0  0  0  0  0  0  0  0
    6.8951  -15.5866   26.1409 C   0  0  0  0  0  0  0  0  0  0  0  0
    5.8840  -14.7121   26.0728 N   0  0  0  0  0  0  0  0  0  0  0  0
    6.3426  -13.4642   26.3244 C   0  0  0  0  0  0  0  0  0  0  0  0
    5.7495  -12.2215   26.3809 C   0  0  0  0  0  0  0  0  0  0  0  0
    6.4810  -11.0741   26.6676 C   0  0  0  0  0  0  0  0  0  0  0  0
    7.8296  -11.2536   26.8909 C   0  0  0  0  0  0  0  0  0  0  0  0
    8.4371  -12.4912   26.8377 C   0  0  0  0  0  0  0  0  0  0  0  0
    7.6985  -13.5946   26.5556 C   0  0  0  0  0  0  0  0  0  0  0  0
    8.9923  -17.5823   25.5281 C   0  0  0  0  0  0  0  0  0  0  0  0
    9.2333  -18.5457   26.5058 O   0  0  0  0  0  0  0  0  0  0  0  0
    8.0459  -17.8035   24.7344 O   0  0  0  0  0  0  0  0  0  0  0  0
  2  1  1  0
  3  2  1  0
  3  4  2  0
  6  5  1  1
  6  7  1  0
  8  6  1  0
  9  8  1  6
  9 10  1  0
 10  3  1  0
 11  9  1  0
 12 11  2  0
 13 11  1  0
 14 13  1  0
 14 25  1  0
 14 15  1  1
 16 15  1  0
 17 16  2  0
 18 17  1  0
 19 18  1  0
 19 24  2  0
 20 19  1  0
 21 20  2  0
 21 22  1  0
 22 23  2  0
 23 24  1  0
 24 16  1  0
 25 26  1  0
 27 25  2  0
M  END
$$$$
