GLW.pdb
     RDKit          3D

 27 28  0  0  1  0  0  0  0  0999 V2000
    8.8273  -19.7743   19.4956 N   0  0  0  0  0  0  0  0  0  0  0  0
    8.2532  -19.0111   20.5803 C   0  0  0  0  0  0  0  0  0  0  0  0
    8.9899  -17.7694   20.8553 C   0  0  0  0  0  0  0  0  0  0  0  0
   10.2354  -17.6917   20.7220 O   0  0  0  0  0  0  0  0  0  0  0  0
    7.7177  -14.4305   19.0360 C   0  0  0  0  0  0  0  0  0  0  0  0
    8.2085  -13.4490   20.1210 C   0  0  1  0  0  0  0  0  0  0  0  0
    7.4329  -12.1968   19.9573 C   0  0  0  0  0  0  0  0  0  0  0  0
    8.1205  -14.1679   21.3971 C   0  0  0  0  0  0  0  0  0  0  0  0
    8.9562  -15.3676   21.6217 C   0  0  2  0  0  0  0  0  0  0  0  0
    8.3076  -16.6067   21.2851 N   0  0  0  0  0  0  0  0  0  0  0  0
    9.5995  -15.4059   22.9588 C   0  0  0  0  0  0  0  0  0  0  0  0
   10.4317  -14.5055   23.2310 O   0  0  0  0  0  0  0  0  0  0  0  0
    9.3357  -16.3904   23.9455 N   0  0  0  0  0  0  0  0  0  0  0  0
    9.9705  -16.3870   25.2549 C   0  0  1  0  0  0  0  0  0  0  0  0
    8.9505  -16.5612   26.3547 C   0  0  0  0  0  0  0  0  0  0  0  0
    7.7775  -15.6751   26.1737 C   0  0  0  0  0  0  0  0  0  0  0  0
    6.5259  -15.9877   25.6954 C   0  0  0  0  0  0  0  0  0  0  0  0
    5.7542  -14.8939   25.6931 N   0  0  0  0  0  0  0  0  0  0  0  0
    6.4583  -13.8380   26.1622 C   0  0  0  0  0  0  0  0  0  0  0  0
    6.1629  -12.5076   26.3670 C   0  0  0  0  0  0  0  0  0  0  0  0
    7.1046  -11.6187   26.8739 C   0  0  0  0  0  0  0  0  0  0  0  0
    8.3463  -12.1460   27.1580 C   0  0  0  0  0  0  0  0  0  0  0  0
    8.6565  -13.4755   26.9582 C   0  0  0  0  0  0  0  0  0  0  0  0
    7.7176  -14.3209   26.4620 C   0  0  0  0  0  0  0  0  0  0  0  0
   10.8303  -17.6253   25.2952 C   0  0  0  0  0  0  0  0  0  0  0  0
   11.6472  -17.8832   26.3945 O   0  0  0  0  0  0  0  0  0  0  0  0
   10.8520  -18.4646   24.3627 O   0  0  0  0  0  0  0  0  0  0  0  0
  2  1  1  0
  3  2  1  0
  3  4  2  0
  6  5  1  6
  6  7  1  0
  8  6  1  0
  9  8  1  1
  9 10  1  0
 10  3  1  0
 11  9  1  0
 12 11  2  0
 13 11  1  0
 14 13  1  0
 14 25  1  0
 14 15  1  1
 16 15  1  0
 17 16  2  0
 18 17  1  0
 19 18  1  0
 19 24  2  0
 20 19  1  0
 21 20  2  0
 21 22  1  0
 22 23  2  0
 23 24  1  0
 24 16  1  0
 25 26  1  0
 27 25  2  0
M  END
$$$$
