GLW.pdb
     RDKit          3D

 27 28  0  0  1  0  0  0  0  0999 V2000
    9.3937  -19.2839   19.0316 N   0  0  0  0  0  0  0  0  0  0  0  0
    9.2203  -19.0058   20.4392 C   0  0  0  0  0  0  0  0  0  0  0  0
    9.6856  -17.6635   20.8159 C   0  0  0  0  0  0  0  0  0  0  0  0
   10.8911  -17.3272   20.7229 O   0  0  0  0  0  0  0  0  0  0  0  0
    6.4354  -13.1647   20.1950 C   0  0  0  0  0  0  0  0  0  0  0  0
    7.5987  -14.1732   20.0895 C   0  0  1  0  0  0  0  0  0  0  0  0
    8.5105  -13.6758   19.0322 C   0  0  0  0  0  0  0  0  0  0  0  0
    8.1244  -14.3395   21.4491 C   0  0  0  0  0  0  0  0  0  0  0  0
    9.1510  -15.3703   21.7171 C   0  0  2  0  0  0  0  0  0  0  0  0
    8.7754  -16.6954   21.3023 N   0  0  0  0  0  0  0  0  0  0  0  0
    9.6845  -15.3363   23.1018 C   0  0  0  0  0  0  0  0  0  0  0  0
   10.3435  -14.3247   23.4477 O   0  0  0  0  0  0  0  0  0  0  0  0
    9.4986  -16.3692   24.0562 N   0  0  0  0  0  0  0  0  0  0  0  0
   10.0634  -16.3182   25.3963 C   0  0  1  0  0  0  0  0  0  0  0  0
    8.9905  -16.4841   26.4459 C   0  0  0  0  0  0  0  0  0  0  0  0
    7.8264  -15.6024   26.1986 C   0  0  0  0  0  0  0  0  0  0  0  0
    6.5910  -15.9276   25.6877 C   0  0  0  0  0  0  0  0  0  0  0  0
    5.8224  -14.8334   25.6263 N   0  0  0  0  0  0  0  0  0  0  0  0
    6.5126  -13.7647   26.0871 C   0  0  0  0  0  0  0  0  0  0  0  0
    6.2136  -12.4284   26.2417 C   0  0  0  0  0  0  0  0  0  0  0  0
    7.1396  -11.5258   26.7532 C   0  0  0  0  0  0  0  0  0  0  0  0
    8.3697  -12.0460   27.0951 C   0  0  0  0  0  0  0  0  0  0  0  0
    8.6834  -13.3813   26.9460 C   0  0  0  0  0  0  0  0  0  0  0  0
    7.7599  -14.2401   26.4439 C   0  0  0  0  0  0  0  0  0  0  0  0
   10.9434  -17.5370   25.5153 C   0  0  0  0  0  0  0  0  0  0  0  0
   11.0166  -18.4605   24.4741 O   0  0  0  0  0  0  0  0  0  0  0  0
   11.6367  -17.7742   26.5340 O   0  0  0  0  0  0  0  0  0  0  0  0
  2  1  1  0
  3  2  1  0
  3  4  2  0
  6  5  1  1
  6  7  1  0
  8  6  1  0
  9  8  1  1
  9 10  1  0
 10  3  1  0
 11  9  1  0
 12 11  2  0
 13 11  1  0
 14 13  1  0
 14 25  1  0
 14 15  1  1
 16 15  1  0
 17 16  2  0
 18 17  1  0
 19 18  1  0
 19 24  2  0
 20 19  1  0
 21 20  2  0
 21 22  1  0
 22 23  2  0
 23 24  1  0
 24 16  1  0
 25 26  1  0
 27 25  2  0
M  END
$$$$
