GLW.pdb
     RDKit          3D

 27 28  0  0  1  0  0  0  0  0999 V2000
    8.9434  -19.9484   19.8136 N   0  0  0  0  0  0  0  0  0  0  0  0
    8.2923  -19.0830   20.7706 C   0  0  0  0  0  0  0  0  0  0  0  0
    9.0023  -17.8106   20.9630 C   0  0  0  0  0  0  0  0  0  0  0  0
   10.2419  -17.7089   20.7957 O   0  0  0  0  0  0  0  0  0  0  0  0
    7.9547  -14.2295   19.0684 C   0  0  0  0  0  0  0  0  0  0  0  0
    8.2615  -13.3535   20.3012 C   0  0  1  0  0  0  0  0  0  0  0  0
    7.4445  -12.1235   20.1746 C   0  0  0  0  0  0  0  0  0  0  0  0
    8.0630  -14.2106   21.4754 C   0  0  0  0  0  0  0  0  0  0  0  0
    8.9293  -15.3930   21.6748 C   0  0  2  0  0  0  0  0  0  0  0  0
    8.2996  -16.6444   21.3483 N   0  0  0  0  0  0  0  0  0  0  0  0
    9.6050  -15.4226   22.9960 C   0  0  0  0  0  0  0  0  0  0  0  0
   10.4141  -14.4982   23.2575 O   0  0  0  0  0  0  0  0  0  0  0  0
    9.3966  -16.4240   23.9788 N   0  0  0  0  0  0  0  0  0  0  0  0
   10.0241  -16.3863   25.2912 C   0  0  1  0  0  0  0  0  0  0  0  0
    9.0007  -16.5545   26.3888 C   0  0  0  0  0  0  0  0  0  0  0  0
    7.8094  -15.7001   26.1772 C   0  0  0  0  0  0  0  0  0  0  0  0
    6.5558  -16.0609   25.7400 C   0  0  0  0  0  0  0  0  0  0  0  0
    5.7650  -14.9822   25.6876 N   0  0  0  0  0  0  0  0  0  0  0  0
    6.4580  -13.8890   26.0820 C   0  0  0  0  0  0  0  0  0  0  0  0
    6.1427  -12.5540   26.2143 C   0  0  0  0  0  0  0  0  0  0  0  0
    7.0769  -11.6215   26.6519 C   0  0  0  0  0  0  0  0  0  0  0  0
    8.3322  -12.1106   26.9444 C   0  0  0  0  0  0  0  0  0  0  0  0
    8.6624  -13.4442   26.8168 C   0  0  0  0  0  0  0  0  0  0  0  0
    7.7304  -14.3326   26.3872 C   0  0  0  0  0  0  0  0  0  0  0  0
   10.9017  -17.6106   25.3598 C   0  0  0  0  0  0  0  0  0  0  0  0
   11.7184  -17.8340   26.4668 O   0  0  0  0  0  0  0  0  0  0  0  0
   10.9390  -18.4685   24.4447 O   0  0  0  0  0  0  0  0  0  0  0  0
  2  1  1  0
  3  2  1  0
  3  4  2  0
  6  5  1  6
  6  7  1  0
  8  6  1  0
  9  8  1  1
  9 10  1  0
 10  3  1  0
 11  9  1  0
 12 11  2  0
 13 11  1  0
 14 13  1  0
 14 25  1  0
 14 15  1  1
 16 15  1  0
 17 16  2  0
 18 17  1  0
 19 18  1  0
 19 24  2  0
 20 19  1  0
 21 20  2  0
 21 22  1  0
 22 23  2  0
 23 24  1  0
 24 16  1  0
 25 26  1  0
 27 25  2  0
M  END
$$$$
