GLW.pdb
     RDKit          3D

 27 28  0  0  1  0  0  0  0  0999 V2000
    8.7558  -19.7410   19.6291 N   0  0  0  0  0  0  0  0  0  0  0  0
    8.0746  -18.8112   20.5010 C   0  0  0  0  0  0  0  0  0  0  0  0
    8.8847  -17.6254   20.8134 C   0  0  0  0  0  0  0  0  0  0  0  0
   10.1259  -17.6006   20.6291 O   0  0  0  0  0  0  0  0  0  0  0  0
    6.6211  -12.5607   20.4652 C   0  0  0  0  0  0  0  0  0  0  0  0
    7.5421  -13.7770   20.2331 C   0  0  1  0  0  0  0  0  0  0  0  0
    8.3508  -13.4856   19.0258 C   0  0  0  0  0  0  0  0  0  0  0  0
    8.2369  -14.0159   21.5031 C   0  0  0  0  0  0  0  0  0  0  0  0
    9.0033  -15.2664   21.6954 C   0  0  2  0  0  0  0  0  0  0  0  0
    8.2814  -16.4586   21.3394 N   0  0  0  0  0  0  0  0  0  0  0  0
    9.6538  -15.3699   23.0256 C   0  0  0  0  0  0  0  0  0  0  0  0
   10.5346  -14.5214   23.3110 O   0  0  0  0  0  0  0  0  0  0  0  0
    9.3457  -16.3619   23.9916 N   0  0  0  0  0  0  0  0  0  0  0  0
    9.9933  -16.4258   25.2933 C   0  0  1  0  0  0  0  0  0  0  0  0
    8.9770  -16.5775   26.3998 C   0  0  0  0  0  0  0  0  0  0  0  0
    7.7958  -15.7074   26.1962 C   0  0  0  0  0  0  0  0  0  0  0  0
    6.5237  -16.0574   25.8060 C   0  0  0  0  0  0  0  0  0  0  0  0
    5.7513  -14.9659   25.7432 N   0  0  0  0  0  0  0  0  0  0  0  0
    6.4751  -13.8747   26.0842 C   0  0  0  0  0  0  0  0  0  0  0  0
    6.1879  -12.5306   26.1846 C   0  0  0  0  0  0  0  0  0  0  0  0
    7.1510  -11.6032   26.5669 C   0  0  0  0  0  0  0  0  0  0  0  0
    8.4053  -12.1070   26.8384 C   0  0  0  0  0  0  0  0  0  0  0  0
    8.7075  -13.4499   26.7423 C   0  0  0  0  0  0  0  0  0  0  0  0
    7.7476  -14.3330   26.3666 C   0  0  0  0  0  0  0  0  0  0  0  0
   10.7892  -17.7066   25.2911 C   0  0  0  0  0  0  0  0  0  0  0  0
   11.6297  -18.0184   26.3582 O   0  0  0  0  0  0  0  0  0  0  0  0
   10.7352  -18.5353   24.3503 O   0  0  0  0  0  0  0  0  0  0  0  0
  2  1  1  0
  3  2  1  0
  3  4  2  0
  6  5  1  1
  6  7  1  0
  8  6  1  0
  9  8  1  1
  9 10  1  0
 10  3  1  0
 11  9  1  0
 12 11  2  0
 13 11  1  0
 14 13  1  0
 14 25  1  0
 14 15  1  1
 16 15  1  0
 17 16  2  0
 18 17  1  0
 19 18  1  0
 19 24  2  0
 20 19  1  0
 21 20  2  0
 21 22  1  0
 22 23  2  0
 23 24  1  0
 24 16  1  0
 25 26  1  0
 27 25  2  0
M  END
$$$$
