GLW.pdb
     RDKit          3D

 27 28  0  0  1  0  0  0  0  0999 V2000
    8.9162  -19.8256   19.6869 N   0  0  0  0  0  0  0  0  0  0  0  0
    8.2248  -18.9120   20.5678 C   0  0  0  0  0  0  0  0  0  0  0  0
    9.0399  -17.7442   20.9309 C   0  0  0  0  0  0  0  0  0  0  0  0
   10.2695  -17.6894   20.6858 O   0  0  0  0  0  0  0  0  0  0  0  0
    6.7084  -12.7324   20.8545 C   0  0  0  0  0  0  0  0  0  0  0  0
    7.6066  -13.9546   20.5699 C   0  0  1  0  0  0  0  0  0  0  0  0
    8.3385  -13.6726   19.3124 C   0  0  0  0  0  0  0  0  0  0  0  0
    8.3795  -14.1920   21.7942 C   0  0  0  0  0  0  0  0  0  0  0  0
    9.1712  -15.4339   21.9320 C   0  0  2  0  0  0  0  0  0  0  0  0
    8.4548  -16.6298   21.5773 N   0  0  0  0  0  0  0  0  0  0  0  0
    9.8716  -15.5544   23.2351 C   0  0  0  0  0  0  0  0  0  0  0  0
   10.8211  -14.7641   23.4616 O   0  0  0  0  0  0  0  0  0  0  0  0
    9.5389  -16.5014   24.2375 N   0  0  0  0  0  0  0  0  0  0  0  0
   10.3169  -16.6693   25.4558 C   0  0  1  0  0  0  0  0  0  0  0  0
    9.5833  -16.1101   26.6514 C   0  0  0  0  0  0  0  0  0  0  0  0
    8.2669  -15.5403   26.2825 C   0  0  0  0  0  0  0  0  0  0  0  0
    7.1413  -16.1904   25.8316 C   0  0  0  0  0  0  0  0  0  0  0  0
    6.1619  -15.3045   25.6130 N   0  0  0  0  0  0  0  0  0  0  0  0
    6.5999  -14.0585   25.9071 C   0  0  0  0  0  0  0  0  0  0  0  0
    6.0229  -12.8077   25.8639 C   0  0  0  0  0  0  0  0  0  0  0  0
    6.7250  -11.6651   26.2316 C   0  0  0  0  0  0  0  0  0  0  0  0
    8.0274  -11.8577   26.6404 C   0  0  0  0  0  0  0  0  0  0  0  0
    8.6184  -13.1036   26.6888 C   0  0  0  0  0  0  0  0  0  0  0  0
    7.9093  -14.2021   26.3239 C   0  0  0  0  0  0  0  0  0  0  0  0
   10.3991  -18.1573   25.6861 C   0  0  0  0  0  0  0  0  0  0  0  0
   11.1637  -18.6695   26.7327 O   0  0  0  0  0  0  0  0  0  0  0  0
    9.7973  -18.9881   24.9635 O   0  0  0  0  0  0  0  0  0  0  0  0
  2  1  1  0
  3  2  1  0
  3  4  2  0
  6  5  1  1
  6  7  1  0
  8  6  1  0
  9  8  1  1
  9 10  1  0
 10  3  1  0
 11  9  1  0
 12 11  2  0
 13 11  1  0
 14 13  1  0
 14 25  1  0
 14 15  1  1
 16 15  1  0
 17 16  2  0
 18 17  1  0
 19 18  1  0
 19 24  2  0
 20 19  1  0
 21 20  2  0
 21 22  1  0
 22 23  2  0
 23 24  1  0
 24 16  1  0
 25 26  1  0
 27 25  2  0
M  END
$$$$
