GLW.pdb
     RDKit          3D

 27 28  0  0  1  0  0  0  0  0999 V2000
    6.7173  -19.2775   19.9199 N   0  0  0  0  0  0  0  0  0  0  0  0
    6.8098  -18.5020   21.1359 C   0  0  0  0  0  0  0  0  0  0  0  0
    8.0089  -17.6532   21.1803 C   0  0  0  0  0  0  0  0  0  0  0  0
    9.1618  -18.1221   21.0189 O   0  0  0  0  0  0  0  0  0  0  0  0
    6.5477  -14.1665   20.1413 C   0  0  0  0  0  0  0  0  0  0  0  0
    7.9624  -13.5609   20.0275 C   0  0  1  0  0  0  0  0  0  0  0  0
    7.7952  -12.1195   19.7261 C   0  0  0  0  0  0  0  0  0  0  0  0
    8.6745  -13.9444   21.2517 C   0  0  0  0  0  0  0  0  0  0  0  0
    9.0200  -15.3637   21.4847 C   0  0  2  0  0  0  0  0  0  0  0  0
    7.8985  -16.2614   21.4096 N   0  0  0  0  0  0  0  0  0  0  0  0
    9.8478  -15.5860   22.6965 C   0  0  0  0  0  0  0  0  0  0  0  0
   11.0396  -15.1906   22.6686 O   0  0  0  0  0  0  0  0  0  0  0  0
    9.3812  -16.2139   23.8798 N   0  0  0  0  0  0  0  0  0  0  0  0
   10.1881  -16.3270   25.0855 C   0  0  1  0  0  0  0  0  0  0  0  0
    9.7076  -15.3737   26.1534 C   0  0  0  0  0  0  0  0  0  0  0  0
    8.2695  -15.0507   26.0075 C   0  0  0  0  0  0  0  0  0  0  0  0
    7.2322  -15.8779   25.6433 C   0  0  0  0  0  0  0  0  0  0  0  0
    6.0843  -15.1895   25.6329 N   0  0  0  0  0  0  0  0  0  0  0  0
    6.3199  -13.9043   25.9840 C   0  0  0  0  0  0  0  0  0  0  0  0
    5.5202  -12.7915   26.1301 C   0  0  0  0  0  0  0  0  0  0  0  0
    6.0422  -11.5602   26.5112 C   0  0  0  0  0  0  0  0  0  0  0  0
    7.4023  -11.5197   26.7332 C   0  0  0  0  0  0  0  0  0  0  0  0
    8.2154  -12.6252   26.5910 C   0  0  0  0  0  0  0  0  0  0  0  0
    7.6787  -13.8148   26.2177 C   0  0  0  0  0  0  0  0  0  0  0  0
    9.9252  -17.7106   25.6246 C   0  0  0  0  0  0  0  0  0  0  0  0
    9.0327  -18.5635   24.9780 O   0  0  0  0  0  0  0  0  0  0  0  0
   10.4841  -18.1516   26.6580 O   0  0  0  0  0  0  0  0  0  0  0  0
  2  1  1  0
  3  2  1  0
  3  4  2  0
  6  5  1  1
  6  7  1  0
  8  6  1  0
  9  8  1  1
  9 10  1  0
 10  3  1  0
 11  9  1  0
 12 11  2  0
 13 11  1  0
 14 13  1  0
 14 25  1  0
 14 15  1  1
 16 15  1  0
 17 16  2  0
 18 17  1  0
 19 18  1  0
 19 24  2  0
 20 19  1  0
 21 20  2  0
 21 22  1  0
 22 23  2  0
 23 24  1  0
 24 16  1  0
 25 26  1  0
 27 25  2  0
M  END
$$$$
