GLW.pdb
     RDKit          3D

 27 28  0  0  1  0  0  0  0  0999 V2000
    8.3403  -19.6801   19.7449 N   0  0  0  0  0  0  0  0  0  0  0  0
    7.8436  -18.7184   20.7026 C   0  0  0  0  0  0  0  0  0  0  0  0
    8.8007  -17.6359   20.9714 C   0  0  0  0  0  0  0  0  0  0  0  0
   10.0364  -17.7858   20.8110 O   0  0  0  0  0  0  0  0  0  0  0  0
    6.7442  -14.5775   20.1482 C   0  0  0  0  0  0  0  0  0  0  0  0
    7.9953  -13.6755   20.2003 C   0  0  1  0  0  0  0  0  0  0  0  0
    7.5478  -12.2941   19.9042 C   0  0  0  0  0  0  0  0  0  0  0  0
    8.6425  -13.9429   21.4897 C   0  0  0  0  0  0  0  0  0  0  0  0
    9.2229  -15.2772   21.7558 C   0  0  2  0  0  0  0  0  0  0  0  0
    8.3518  -16.3733   21.4258 N   0  0  0  0  0  0  0  0  0  0  0  0
    9.8190  -15.4104   23.1086 C   0  0  0  0  0  0  0  0  0  0  0  0
   10.7694  -14.6445   23.4046 O   0  0  0  0  0  0  0  0  0  0  0  0
    9.3860  -16.3437   24.0852 N   0  0  0  0  0  0  0  0  0  0  0  0
    9.9954  -16.4496   25.4024 C   0  0  1  0  0  0  0  0  0  0  0  0
    8.9442  -16.5427   26.4825 C   0  0  0  0  0  0  0  0  0  0  0  0
    7.8128  -15.6176   26.2418 C   0  0  0  0  0  0  0  0  0  0  0  0
    6.5431  -15.9052   25.7966 C   0  0  0  0  0  0  0  0  0  0  0  0
    5.8242  -14.7790   25.7157 N   0  0  0  0  0  0  0  0  0  0  0  0
    6.5821  -13.7255   26.0983 C   0  0  0  0  0  0  0  0  0  0  0  0
    6.3522  -12.3707   26.2028 C   0  0  0  0  0  0  0  0  0  0  0  0
    7.3400  -11.4922   26.6343 C   0  0  0  0  0  0  0  0  0  0  0  0
    8.5580  -12.0554   26.9501 C   0  0  0  0  0  0  0  0  0  0  0  0
    8.8028  -13.4096   26.8505 C   0  0  0  0  0  0  0  0  0  0  0  0
    7.8200  -14.2442   26.4262 C   0  0  0  0  0  0  0  0  0  0  0  0
   10.7128  -17.7759   25.4151 C   0  0  0  0  0  0  0  0  0  0  0  0
   11.5370  -18.1237   26.4838 O   0  0  0  0  0  0  0  0  0  0  0  0
   10.6057  -18.6121   24.4856 O   0  0  0  0  0  0  0  0  0  0  0  0
  2  1  1  0
  3  2  1  0
  3  4  2  0
  6  5  1  1
  6  7  1  0
  8  6  1  0
  9  8  1  1
  9 10  1  0
 10  3  1  0
 11  9  1  0
 12 11  2  0
 13 11  1  0
 14 13  1  0
 14 25  1  0
 14 15  1  1
 16 15  1  0
 17 16  2  0
 18 17  1  0
 19 18  1  0
 19 24  2  0
 20 19  1  0
 21 20  2  0
 21 22  1  0
 22 23  2  0
 23 24  1  0
 24 16  1  0
 25 26  1  0
 27 25  2  0
M  END
$$$$
