GLW.pdb
     RDKit          3D

 27 28  0  0  1  0  0  0  0  0999 V2000
    7.8479  -19.6354   19.5666 N   0  0  0  0  0  0  0  0  0  0  0  0
    7.7359  -18.9037   20.8079 C   0  0  0  0  0  0  0  0  0  0  0  0
    8.6835  -17.7837   20.8963 C   0  0  0  0  0  0  0  0  0  0  0  0
    9.8845  -17.9000   20.5512 O   0  0  0  0  0  0  0  0  0  0  0  0
    7.0147  -12.4371   20.6068 C   0  0  0  0  0  0  0  0  0  0  0  0
    7.6868  -13.7987   20.3316 C   0  0  1  0  0  0  0  0  0  0  0  0
    8.3363  -13.7021   19.0029 C   0  0  0  0  0  0  0  0  0  0  0  0
    8.5222  -14.0899   21.5021 C   0  0  0  0  0  0  0  0  0  0  0  0
    9.1532  -15.4207   21.6395 C   0  0  2  0  0  0  0  0  0  0  0  0
    8.2647  -16.5219   21.3804 N   0  0  0  0  0  0  0  0  0  0  0  0
    9.9199  -15.5912   22.8990 C   0  0  0  0  0  0  0  0  0  0  0  0
   11.0044  -14.9676   23.0100 O   0  0  0  0  0  0  0  0  0  0  0  0
    9.5080  -16.4103   23.9815 N   0  0  0  0  0  0  0  0  0  0  0  0
   10.2842  -16.5540   25.2040 C   0  0  1  0  0  0  0  0  0  0  0  0
    9.7476  -15.6616   26.2976 C   0  0  0  0  0  0  0  0  0  0  0  0
    8.3412  -15.2653   26.0551 C   0  0  0  0  0  0  0  0  0  0  0  0
    7.2630  -16.0601   25.7409 C   0  0  0  0  0  0  0  0  0  0  0  0
    6.1662  -15.3049   25.6048 N   0  0  0  0  0  0  0  0  0  0  0  0
    6.4772  -14.0059   25.8209 C   0  0  0  0  0  0  0  0  0  0  0  0
    5.7513  -12.8345   25.8080 C   0  0  0  0  0  0  0  0  0  0  0  0
    6.3431  -11.6041   26.0721 C   0  0  0  0  0  0  0  0  0  0  0  0
    7.6940  -11.6263   26.3463 C   0  0  0  0  0  0  0  0  0  0  0  0
    8.4336  -12.7909   26.3628 C   0  0  0  0  0  0  0  0  0  0  0  0
    7.8298  -13.9782   26.1012 C   0  0  0  0  0  0  0  0  0  0  0  0
   10.0459  -17.9664   25.6754 C   0  0  0  0  0  0  0  0  0  0  0  0
    9.1440  -18.7922   25.0069 O   0  0  0  0  0  0  0  0  0  0  0  0
   10.6342  -18.4562   26.6698 O   0  0  0  0  0  0  0  0  0  0  0  0
  2  1  1  0
  3  2  1  0
  3  4  2  0
  6  5  1  1
  6  7  1  0
  8  6  1  0
  9  8  1  1
  9 10  1  0
 10  3  1  0
 11  9  1  0
 12 11  2  0
 13 11  1  0
 14 13  1  0
 14 25  1  0
 14 15  1  1
 16 15  1  0
 17 16  2  0
 18 17  1  0
 19 18  1  0
 19 24  2  0
 20 19  1  0
 21 20  2  0
 21 22  1  0
 22 23  2  0
 23 24  1  0
 24 16  1  0
 25 26  1  0
 27 25  2  0
M  END
$$$$
