PSW.pdb
     RDKit          3D

 28 30  0  0  1  0  0  0  0  0999 V2000
   22.5982  -11.9471  -19.0902 N   0  0  0  0  0  0  0  0  0  0  0  0
   22.5584  -12.8225  -20.2407 C   0  0  0  0  0  0  0  0  0  0  0  0
   21.0881  -13.0672  -20.4360 C   0  0  0  0  0  0  0  0  0  0  0  0
   20.3683  -11.9078  -19.7506 C   0  0  0  0  0  0  0  0  0  0  0  0
   21.5135  -11.0440  -19.3345 C   0  0  1  0  0  0  0  0  0  0  0  0
   21.2320  -10.1584  -18.1893 C   0  0  0  0  0  0  0  0  0  0  0  0
   20.3564   -9.2502  -18.2380 O   0  0  0  0  0  0  0  0  0  0  0  0
   23.4198  -10.4967  -14.4373 O   0  0  0  0  0  0  0  0  0  0  0  0
   22.0638  -10.2169  -14.5039 C   0  0  0  0  0  0  0  0  0  0  0  0
   21.6926   -9.5302  -15.7892 C   0  0  2  0  0  0  0  0  0  0  0  0
   21.9488  -10.2956  -16.9635 N   0  0  0  0  0  0  0  0  0  0  0  0
   22.2688   -8.1544  -15.8653 C   0  0  0  0  0  0  0  0  0  0  0  0
   23.3402   -7.9689  -16.4891 O   0  0  0  0  0  0  0  0  0  0  0  0
   21.6543   -7.0388  -15.2594 N   0  0  0  0  0  0  0  0  0  0  0  0
   22.2249   -5.6829  -15.3138 C   0  0  1  0  0  0  0  0  0  0  0  0
   21.4501   -4.9860  -16.4234 C   0  0  0  0  0  0  0  0  0  0  0  0
   20.0084   -5.0848  -16.3028 C   0  0  0  0  0  0  0  0  0  0  0  0
   19.2587   -4.7239  -15.2060 C   0  0  0  0  0  0  0  0  0  0  0  0
   17.9541   -4.9695  -15.4874 N   0  0  0  0  0  0  0  0  0  0  0  0
   17.8230   -5.4770  -16.7260 C   0  0  0  0  0  0  0  0  0  0  0  0
   16.7291   -5.8822  -17.4591 C   0  0  0  0  0  0  0  0  0  0  0  0
   16.9203   -6.3706  -18.7304 C   0  0  0  0  0  0  0  0  0  0  0  0
   18.1920   -6.4576  -19.2745 C   0  0  0  0  0  0  0  0  0  0  0  0
   19.2539   -6.0509  -18.5291 C   0  0  0  0  0  0  0  0  0  0  0  0
   19.1220   -5.5513  -17.2452 C   0  0  0  0  0  0  0  0  0  0  0  0
   21.8730   -5.0001  -14.0442 C   0  0  0  0  0  0  0  0  0  0  0  0
   22.2772   -3.8390  -13.7834 O   0  0  0  0  0  0  0  0  0  0  0  0
   21.0811   -5.6129  -13.0862 O   0  0  0  0  0  0  0  0  0  0  0  0
  1  2  1  0
  2  3  1  0
  4  3  1  0
  5  1  1  0
  5  4  1  0
  5  6  1  1
  6 11  1  0
  7  6  2  0
  9  8  1  0
 10 12  1  0
 10  9  1  1
 11 10  1  0
 12 14  1  0
 13 12  2  0
 14 15  1  0
 15 26  1  0
 15 16  1  6
 17 16  1  0
 18 17  2  0
 19 20  1  0
 19 18  1  0
 20 25  2  0
 21 22  2  0
 21 20  1  0
 22 23  1  0
 23 24  2  0
 25 17  1  0
 25 24  1  0
 26 27  2  0
 26 28  1  0
M  END
$$$$
