PSW.pdb
     RDKit          3D

 28 30  0  0  1  0  0  0  0  0999 V2000
   24.5384  -17.8395  -14.3779 N   0  0  0  0  0  0  0  0  0  0  0  0
   23.8764  -16.7798  -15.1063 C   0  0  0  0  0  0  0  0  0  0  0  0
   24.5902  -16.7737  -16.4293 C   0  0  0  0  0  0  0  0  0  0  0  0
   25.2236  -18.1554  -16.5781 C   0  0  0  0  0  0  0  0  0  0  0  0
   24.7002  -18.8602  -15.3698 C   0  0  1  0  0  0  0  0  0  0  0  0
   25.5311  -19.9871  -14.9067 C   0  0  0  0  0  0  0  0  0  0  0  0
   25.1015  -21.1738  -14.8747 O   0  0  0  0  0  0  0  0  0  0  0  0
   29.5538  -19.2933  -13.5993 O   0  0  0  0  0  0  0  0  0  0  0  0
   29.2097  -20.5027  -14.1828 C   0  0  0  0  0  0  0  0  0  0  0  0
   27.7464  -20.8099  -14.0219 C   0  0  2  0  0  0  0  0  0  0  0  0
   26.8730  -19.7771  -14.4702 N   0  0  0  0  0  0  0  0  0  0  0  0
   27.4286  -21.2674  -12.6361 C   0  0  0  0  0  0  0  0  0  0  0  0
   27.9445  -22.3245  -12.2029 O   0  0  0  0  0  0  0  0  0  0  0  0
   26.5629  -20.5547  -11.7806 N   0  0  0  0  0  0  0  0  0  0  0  0
   26.2405  -21.0011  -10.4153 C   0  0  1  0  0  0  0  0  0  0  0  0
   27.1892  -20.2144   -9.5217 C   0  0  0  0  0  0  0  0  0  0  0  0
   26.8483  -20.2416   -8.1125 C   0  0  0  0  0  0  0  0  0  0  0  0
   25.5897  -20.4234   -7.5850 C   0  0  0  0  0  0  0  0  0  0  0  0
   25.6897  -20.3842   -6.2322 N   0  0  0  0  0  0  0  0  0  0  0  0
   26.9653  -20.1838   -5.8560 C   0  0  0  0  0  0  0  0  0  0  0  0
   27.5692  -20.0694   -4.6229 C   0  0  0  0  0  0  0  0  0  0  0  0
   28.9272  -19.8612   -4.5606 C   0  0  0  0  0  0  0  0  0  0  0  0
   29.6854  -19.7666   -5.7168 C   0  0  0  0  0  0  0  0  0  0  0  0
   29.0640  -19.8832   -6.9205 C   0  0  0  0  0  0  0  0  0  0  0  0
   27.7017  -20.0931   -7.0444 C   0  0  0  0  0  0  0  0  0  0  0  0
   24.8663  -20.5338  -10.1066 C   0  0  0  0  0  0  0  0  0  0  0  0
   24.2591  -20.9032   -9.0700 O   0  0  0  0  0  0  0  0  0  0  0  0
   24.1884  -19.6670  -10.9489 O   0  0  0  0  0  0  0  0  0  0  0  0
  1  2  1  0
  2  3  1  0
  4  3  1  0
  5  1  1  0
  5  4  1  0
  5  6  1  1
  6 11  1  0
  7  6  2  0
  9  8  1  0
 10 12  1  0
 10  9  1  1
 11 10  1  0
 12 14  1  0
 13 12  2  0
 14 15  1  0
 15 26  1  0
 15 16  1  1
 17 16  1  0
 18 17  2  0
 19 20  1  0
 19 18  1  0
 20 25  2  0
 21 22  2  0
 21 20  1  0
 22 23  1  0
 23 24  2  0
 25 17  1  0
 25 24  1  0
 26 27  2  0
 26 28  1  0
M  END
$$$$
