PSW.pdb
     RDKit          3D

 28 30  0  0  1  0  0  0  0  0999 V2000
   28.0376  -21.1894  -18.5913 N   0  0  0  0  0  0  0  0  0  0  0  0
   28.5182  -21.6861  -19.8616 C   0  0  0  0  0  0  0  0  0  0  0  0
   29.9660  -21.9849  -19.5888 C   0  0  0  0  0  0  0  0  0  0  0  0
   30.0871  -22.1617  -18.0767 C   0  0  0  0  0  0  0  0  0  0  0  0
   28.6602  -22.0670  -17.6456 C   0  0  1  0  0  0  0  0  0  0  0  0
   28.4669  -21.6384  -16.2478 C   0  0  0  0  0  0  0  0  0  0  0  0
   28.7613  -22.3784  -15.2683 O   0  0  0  0  0  0  0  0  0  0  0  0
   26.4135  -17.9584  -15.2710 O   0  0  0  0  0  0  0  0  0  0  0  0
   27.5218  -18.3654  -14.5446 C   0  0  0  0  0  0  0  0  0  0  0  0
   27.7324  -19.8523  -14.6237 C   0  0  2  0  0  0  0  0  0  0  0  0
   27.9318  -20.3514  -15.9434 N   0  0  0  0  0  0  0  0  0  0  0  0
   26.6723  -20.5991  -13.8829 C   0  0  0  0  0  0  0  0  0  0  0  0
   25.6783  -21.0392  -14.5072 O   0  0  0  0  0  0  0  0  0  0  0  0
   26.7390  -20.8355  -12.4941 N   0  0  0  0  0  0  0  0  0  0  0  0
   25.7203  -21.6073  -11.7635 C   0  0  1  0  0  0  0  0  0  0  0  0
   26.4184  -22.0476  -10.4844 C   0  0  0  0  0  0  0  0  0  0  0  0
   26.5460  -21.0082   -9.4814 C   0  0  0  0  0  0  0  0  0  0  0  0
   25.6003  -20.0561   -9.1739 C   0  0  0  0  0  0  0  0  0  0  0  0
   26.0983  -19.2707   -8.1856 N   0  0  0  0  0  0  0  0  0  0  0  0
   27.3330  -19.6733   -7.8359 C   0  0  0  0  0  0  0  0  0  0  0  0
   28.2378  -19.2122   -6.9048 C   0  0  0  0  0  0  0  0  0  0  0  0
   29.4501  -19.8492   -6.7784 C   0  0  0  0  0  0  0  0  0  0  0  0
   29.7656  -20.9404   -7.5724 C   0  0  0  0  0  0  0  0  0  0  0  0
   28.8542  -21.3747   -8.4832 C   0  0  0  0  0  0  0  0  0  0  0  0
   27.6195  -20.7735   -8.6545 C   0  0  0  0  0  0  0  0  0  0  0  0
   24.6452  -20.6640  -11.3683 C   0  0  0  0  0  0  0  0  0  0  0  0
   24.8189  -19.4193  -11.3823 O   0  0  0  0  0  0  0  0  0  0  0  0
   23.3980  -21.1134  -10.9648 O   0  0  0  0  0  0  0  0  0  0  0  0
  1  2  1  0
  2  3  1  0
  4  3  1  0
  5  1  1  0
  5  4  1  0
  5  6  1  1
  6 11  1  0
  7  6  2  0
  9  8  1  0
 10 12  1  0
 10  9  1  6
 11 10  1  0
 12 14  1  0
 13 12  2  0
 14 15  1  0
 15 26  1  0
 15 16  1  1
 17 16  1  0
 18 17  2  0
 19 20  1  0
 19 18  1  0
 20 25  2  0
 21 22  2  0
 21 20  1  0
 22 23  1  0
 23 24  2  0
 25 17  1  0
 25 24  1  0
 26 27  2  0
 26 28  1  0
M  END
$$$$
