PSW.pdb
     RDKit          3D

 28 30  0  0  1  0  0  0  0  0999 V2000
   28.0162  -19.4557  -20.6004 N   0  0  0  0  0  0  0  0  0  0  0  0
   28.4785  -19.3413  -21.9659 C   0  0  0  0  0  0  0  0  0  0  0  0
   29.8764  -19.8908  -21.9030 C   0  0  0  0  0  0  0  0  0  0  0  0
   29.9313  -20.7745  -20.6587 C   0  0  0  0  0  0  0  0  0  0  0  0
   28.5107  -20.7388  -20.1990 C   0  0  1  0  0  0  0  0  0  0  0  0
   28.3225  -21.0047  -18.7607 C   0  0  0  0  0  0  0  0  0  0  0  0
   28.2745  -22.1758  -18.2916 O   0  0  0  0  0  0  0  0  0  0  0  0
   28.2070  -17.7617  -15.9015 O   0  0  0  0  0  0  0  0  0  0  0  0
   28.7347  -19.0104  -15.6120 C   0  0  0  0  0  0  0  0  0  0  0  0
   28.0812  -20.0990  -16.4179 C   0  0  2  0  0  0  0  0  0  0  0  0
   28.1853  -19.9328  -17.8292 N   0  0  0  0  0  0  0  0  0  0  0  0
   26.6775  -20.3473  -15.9724 C   0  0  0  0  0  0  0  0  0  0  0  0
   25.7307  -19.8019  -16.5868 O   0  0  0  0  0  0  0  0  0  0  0  0
   26.3639  -21.1789  -14.8772 N   0  0  0  0  0  0  0  0  0  0  0  0
   25.0368  -21.1972  -14.2402 C   0  0  1  0  0  0  0  0  0  0  0  0
   25.1888  -22.1554  -13.0672 C   0  0  0  0  0  0  0  0  0  0  0  0
   24.4499  -21.7729  -11.8795 C   0  0  0  0  0  0  0  0  0  0  0  0
   23.0914  -21.8964  -11.6936 C   0  0  0  0  0  0  0  0  0  0  0  0
   22.7908  -21.4282  -10.4559 N   0  0  0  0  0  0  0  0  0  0  0  0
   23.9009  -21.0036   -9.8264 C   0  0  0  0  0  0  0  0  0  0  0  0
   24.1174  -20.4550   -8.5812 C   0  0  0  0  0  0  0  0  0  0  0  0
   25.3982  -20.1135   -8.2149 C   0  0  0  0  0  0  0  0  0  0  0  0
   26.4622  -20.3147   -9.0798 C   0  0  0  0  0  0  0  0  0  0  0  0
   26.2203  -20.8578  -10.3026 C   0  0  0  0  0  0  0  0  0  0  0  0
   24.9534  -21.2206  -10.7251 C   0  0  0  0  0  0  0  0  0  0  0  0
   24.7976  -19.8482  -13.6702 C   0  0  0  0  0  0  0  0  0  0  0  0
   25.7434  -19.1141  -13.2881 O   0  0  0  0  0  0  0  0  0  0  0  0
   23.5176  -19.3353  -13.5328 O   0  0  0  0  0  0  0  0  0  0  0  0
  1  2  1  0
  2  3  1  0
  4  3  1  0
  5  1  1  0
  5  4  1  0
  5  6  1  1
  6 11  1  0
  7  6  2  0
  9  8  1  0
 10 12  1  0
 10  9  1  1
 11 10  1  0
 12 14  1  0
 13 12  2  0
 14 15  1  0
 15 26  1  0
 15 16  1  1
 17 16  1  0
 18 17  2  0
 19 20  1  0
 19 18  1  0
 20 25  2  0
 21 22  2  0
 21 20  1  0
 22 23  1  0
 23 24  2  0
 25 17  1  0
 25 24  1  0
 26 27  2  0
 26 28  1  0
M  END
$$$$
