PSW.pdb
     RDKit          3D

 28 30  0  0  1  0  0  0  0  0999 V2000
   27.9510  -22.5460  -18.3107 N   0  0  0  0  0  0  0  0  0  0  0  0
   28.7155  -23.1061  -19.4031 C   0  0  0  0  0  0  0  0  0  0  0  0
   30.0506  -22.4275  -19.2721 C   0  0  0  0  0  0  0  0  0  0  0  0
   30.1466  -21.9518  -17.8241 C   0  0  0  0  0  0  0  0  0  0  0  0
   28.8970  -22.5198  -17.2353 C   0  0  1  0  0  0  0  0  0  0  0  0
   28.3974  -21.8054  -16.0457 C   0  0  0  0  0  0  0  0  0  0  0  0
   29.0511  -21.7515  -14.9670 O   0  0  0  0  0  0  0  0  0  0  0  0
   24.3273  -20.2441  -15.7299 O   0  0  0  0  0  0  0  0  0  0  0  0
   25.4366  -19.5109  -15.3383 C   0  0  0  0  0  0  0  0  0  0  0  0
   26.5980  -20.3955  -14.9773 C   0  0  2  0  0  0  0  0  0  0  0  0
   27.1370  -21.1373  -16.0679 N   0  0  0  0  0  0  0  0  0  0  0  0
   26.2890  -21.2560  -13.7964 C   0  0  0  0  0  0  0  0  0  0  0  0
   26.5164  -22.4873  -13.8551 O   0  0  0  0  0  0  0  0  0  0  0  0
   25.7457  -20.7397  -12.6015 N   0  0  0  0  0  0  0  0  0  0  0  0
   25.4211  -21.5834  -11.4397 C   0  0  1  0  0  0  0  0  0  0  0  0
   26.6943  -21.5917  -10.6053 C   0  0  0  0  0  0  0  0  0  0  0  0
   26.7170  -20.6143   -9.5343 C   0  0  0  0  0  0  0  0  0  0  0  0
   25.7554  -19.6614   -9.2842 C   0  0  0  0  0  0  0  0  0  0  0  0
   26.1440  -18.9446   -8.1994 N   0  0  0  0  0  0  0  0  0  0  0  0
   27.3225  -19.3929   -7.7314 C   0  0  0  0  0  0  0  0  0  0  0  0
   28.1171  -19.0052   -6.6747 C   0  0  0  0  0  0  0  0  0  0  0  0
   29.2965  -19.6741   -6.4448 C   0  0  0  0  0  0  0  0  0  0  0  0
   29.6881  -20.7246   -7.2595 C   0  0  0  0  0  0  0  0  0  0  0  0
   28.8851  -21.0865   -8.2953 C   0  0  0  0  0  0  0  0  0  0  0  0
   27.6882  -20.4503   -8.5745 C   0  0  0  0  0  0  0  0  0  0  0  0
   24.3878  -20.8719  -10.6471 C   0  0  0  0  0  0  0  0  0  0  0  0
   24.1131  -19.6628  -10.8520 O   0  0  0  0  0  0  0  0  0  0  0  0
   23.6771  -21.5097   -9.6429 O   0  0  0  0  0  0  0  0  0  0  0  0
  1  2  1  0
  2  3  1  0
  4  3  1  0
  5  1  1  0
  5  4  1  0
  5  6  1  1
  6 11  1  0
  7  6  2  0
  9  8  1  0
 10 12  1  0
 10  9  1  6
 11 10  1  0
 12 14  1  0
 13 12  2  0
 14 15  1  0
 15 26  1  0
 15 16  1  1
 17 16  1  0
 18 17  2  0
 19 20  1  0
 19 18  1  0
 20 25  2  0
 21 22  2  0
 21 20  1  0
 22 23  1  0
 23 24  2  0
 25 17  1  0
 25 24  1  0
 26 27  2  0
 26 28  1  0
M  END
$$$$
