PSW.pdb
     RDKit          3D

 28 30  0  0  1  0  0  0  0  0999 V2000
   26.5307  -21.6052  -16.3122 N   0  0  0  0  0  0  0  0  0  0  0  0
   27.0543  -21.8446  -17.6389 C   0  0  0  0  0  0  0  0  0  0  0  0
   28.1037  -20.7792  -17.7920 C   0  0  0  0  0  0  0  0  0  0  0  0
   28.4928  -20.3577  -16.3767 C   0  0  0  0  0  0  0  0  0  0  0  0
   27.7080  -21.3207  -15.5475 C   0  0  1  0  0  0  0  0  0  0  0  0
   27.4086  -20.8542  -14.1808 C   0  0  0  0  0  0  0  0  0  0  0  0
   28.3152  -20.6198  -13.3341 O   0  0  0  0  0  0  0  0  0  0  0  0
   23.3309  -20.4988  -12.5905 O   0  0  0  0  0  0  0  0  0  0  0  0
   24.3001  -19.5167  -12.4573 C   0  0  0  0  0  0  0  0  0  0  0  0
   25.6906  -20.0880  -12.4989 C   0  0  2  0  0  0  0  0  0  0  0  0
   26.0626  -20.6464  -13.7560 N   0  0  0  0  0  0  0  0  0  0  0  0
   25.9360  -21.0240  -11.3613 C   0  0  0  0  0  0  0  0  0  0  0  0
   26.0455  -22.2522  -11.5868 O   0  0  0  0  0  0  0  0  0  0  0  0
   26.0520  -20.5835  -10.0265 N   0  0  0  0  0  0  0  0  0  0  0  0
   26.2564  -21.5028   -8.8950 C   0  0  1  0  0  0  0  0  0  0  0  0
   27.6589  -21.1872   -8.3943 C   0  0  0  0  0  0  0  0  0  0  0  0
   27.7182  -20.1380   -7.3951 C   0  0  0  0  0  0  0  0  0  0  0  0
   27.1672  -18.8811   -7.5039 C   0  0  0  0  0  0  0  0  0  0  0  0
   27.4410  -18.2002   -6.3624 N   0  0  0  0  0  0  0  0  0  0  0  0
   28.1497  -18.9644   -5.5122 C   0  0  0  0  0  0  0  0  0  0  0  0
   28.6598  -18.7354   -4.2530 C   0  0  0  0  0  0  0  0  0  0  0  0
   29.3590  -19.7380   -3.6228 C   0  0  0  0  0  0  0  0  0  0  0  0
   29.5527  -20.9646   -4.2382 C   0  0  0  0  0  0  0  0  0  0  0  0
   29.0384  -21.1637   -5.4810 C   0  0  0  0  0  0  0  0  0  0  0  0
   28.3268  -20.1922   -6.1631 C   0  0  0  0  0  0  0  0  0  0  0  0
   25.3127  -21.1045   -7.8212 C   0  0  0  0  0  0  0  0  0  0  0  0
   24.5602  -20.1048   -7.9390 O   0  0  0  0  0  0  0  0  0  0  0  0
   25.2180  -21.8183   -6.6372 O   0  0  0  0  0  0  0  0  0  0  0  0
  1  2  1  0
  2  3  1  0
  4  3  1  0
  5  1  1  0
  5  4  1  0
  5  6  1  1
  6 11  1  0
  7  6  2  0
  9  8  1  0
 10 12  1  0
 10  9  1  6
 11 10  1  0
 12 14  1  0
 13 12  2  0
 14 15  1  0
 15 26  1  0
 15 16  1  1
 17 16  1  0
 18 17  2  0
 19 20  1  0
 19 18  1  0
 20 25  2  0
 21 22  2  0
 21 20  1  0
 22 23  1  0
 23 24  2  0
 25 17  1  0
 25 24  1  0
 26 27  2  0
 26 28  1  0
M  END
$$$$
