PSW.pdb
     RDKit          3D

 28 30  0  0  1  0  0  0  0  0999 V2000
   18.1707  -25.3757   -6.5424 N   0  0  0  0  0  0  0  0  0  0  0  0
   18.6797  -25.2121   -7.8862 C   0  0  0  0  0  0  0  0  0  0  0  0
   17.4350  -24.9998   -8.7020 C   0  0  0  0  0  0  0  0  0  0  0  0
   16.3644  -24.5135   -7.7275 C   0  0  0  0  0  0  0  0  0  0  0  0
   17.1461  -24.3778   -6.4620 C   0  0  1  0  0  0  0  0  0  0  0  0
   16.3427  -24.4750   -5.2291 C   0  0  0  0  0  0  0  0  0  0  0  0
   15.6231  -23.5235   -4.8160 O   0  0  0  0  0  0  0  0  0  0  0  0
   16.8890  -27.6082   -2.2956 O   0  0  0  0  0  0  0  0  0  0  0  0
   15.6141  -27.2545   -2.7092 C   0  0  0  0  0  0  0  0  0  0  0  0
   15.5693  -25.8579   -3.2653 C   0  0  2  0  0  0  0  0  0  0  0  0
   16.3474  -25.6658   -4.4434 N   0  0  0  0  0  0  0  0  0  0  0  0
   15.8593  -24.8369   -2.2145 C   0  0  0  0  0  0  0  0  0  0  0  0
   16.8916  -24.1321   -2.3088 O   0  0  0  0  0  0  0  0  0  0  0  0
   15.0133  -24.6264   -1.1058 N   0  0  0  0  0  0  0  0  0  0  0  0
   15.2659  -23.5897   -0.0916 C   0  0  1  0  0  0  0  0  0  0  0  0
   15.0372  -22.2747   -0.8235 C   0  0  0  0  0  0  0  0  0  0  0  0
   15.0809  -21.0995    0.0249 C   0  0  0  0  0  0  0  0  0  0  0  0
   16.1716  -20.6509    0.7350 C   0  0  0  0  0  0  0  0  0  0  0  0
   15.8075  -19.5262    1.4015 N   0  0  0  0  0  0  0  0  0  0  0  0
   14.5208  -19.2231    1.1538 C   0  0  0  0  0  0  0  0  0  0  0  0
   13.7015  -18.2024    1.5839 C   0  0  0  0  0  0  0  0  0  0  0  0
   12.3987  -18.1614    1.1455 C   0  0  0  0  0  0  0  0  0  0  0  0
   11.9083  -19.1291    0.2831 C   0  0  0  0  0  0  0  0  0  0  0  0
   12.7385  -20.1253   -0.1257 C   0  0  0  0  0  0  0  0  0  0  0  0
   14.0576  -20.2174    0.2823 C   0  0  0  0  0  0  0  0  0  0  0  0
   14.2025  -23.7042    0.9371 C   0  0  0  0  0  0  0  0  0  0  0  0
   13.0644  -24.1620    0.6640 O   0  0  0  0  0  0  0  0  0  0  0  0
   14.4165  -23.3107    2.2485 O   0  0  0  0  0  0  0  0  0  0  0  0
  1  2  1  0
  2  3  1  0
  4  3  1  0
  5  1  1  0
  5  4  1  0
  5  6  1  1
  6 11  1  0
  7  6  2  0
  9  8  1  0
 10 12  1  0
 10  9  1  1
 11 10  1  0
 12 14  1  0
 13 12  2  0
 14 15  1  0
 15 26  1  0
 15 16  1  6
 17 16  1  0
 18 17  2  0
 19 20  1  0
 19 18  1  0
 20 25  2  0
 21 22  2  0
 21 20  1  0
 22 23  1  0
 23 24  2  0
 25 17  1  0
 25 24  1  0
 26 27  2  0
 26 28  1  0
M  END
$$$$
