PSW.pdb
     RDKit          3D

 28 30  0  0  1  0  0  0  0  0999 V2000
   27.0066  -20.5791  -14.9226 N   0  0  0  0  0  0  0  0  0  0  0  0
   27.9101  -20.5296  -16.0508 C   0  0  0  0  0  0  0  0  0  0  0  0
   28.7721  -19.3356  -15.7490 C   0  0  0  0  0  0  0  0  0  0  0  0
   28.6783  -19.1123  -14.2411 C   0  0  0  0  0  0  0  0  0  0  0  0
   27.8620  -20.2870  -13.8114 C   0  0  1  0  0  0  0  0  0  0  0  0
   27.1226  -20.0941  -12.5501 C   0  0  0  0  0  0  0  0  0  0  0  0
   27.6984  -19.7779  -11.4719 O   0  0  0  0  0  0  0  0  0  0  0  0
   22.9242  -20.6896  -12.5024 O   0  0  0  0  0  0  0  0  0  0  0  0
   23.4449  -19.6727  -11.7175 C   0  0  0  0  0  0  0  0  0  0  0  0
   24.8930  -19.9036  -11.3839 C   0  0  2  0  0  0  0  0  0  0  0  0
   25.7065  -20.2597  -12.4982 N   0  0  0  0  0  0  0  0  0  0  0  0
   25.0505  -20.8453  -10.2355 C   0  0  0  0  0  0  0  0  0  0  0  0
   25.3210  -22.0488  -10.4584 O   0  0  0  0  0  0  0  0  0  0  0  0
   24.9071  -20.4371   -8.8930 N   0  0  0  0  0  0  0  0  0  0  0  0
   24.8180  -21.3876   -7.7725 C   0  0  1  0  0  0  0  0  0  0  0  0
   25.2332  -20.5793   -6.5512 C   0  0  0  0  0  0  0  0  0  0  0  0
   26.5160  -19.9152   -6.6780 C   0  0  0  0  0  0  0  0  0  0  0  0
   26.9548  -19.1983   -7.7683 C   0  0  0  0  0  0  0  0  0  0  0  0
   28.2022  -18.7381   -7.4963 N   0  0  0  0  0  0  0  0  0  0  0  0
   28.5947  -19.1269   -6.2701 C   0  0  0  0  0  0  0  0  0  0  0  0
   29.7507  -18.9205   -5.5495 C   0  0  0  0  0  0  0  0  0  0  0  0
   29.8581  -19.4604   -4.2893 C   0  0  0  0  0  0  0  0  0  0  0  0
   28.8229  -20.2032   -3.7439 C   0  0  0  0  0  0  0  0  0  0  0  0
   27.6933  -20.3915   -4.4767 C   0  0  0  0  0  0  0  0  0  0  0  0
   27.5292  -19.8725   -5.7491 C   0  0  0  0  0  0  0  0  0  0  0  0
   23.3862  -21.7355   -7.5961 C   0  0  0  0  0  0  0  0  0  0  0  0
   22.4785  -21.1455   -8.2343 O   0  0  0  0  0  0  0  0  0  0  0  0
   22.9840  -22.7290   -6.7177 O   0  0  0  0  0  0  0  0  0  0  0  0
  1  2  1  0
  2  3  1  0
  4  3  1  0
  5  1  1  0
  5  4  1  0
  5  6  1  1
  6 11  1  0
  7  6  2  0
  9  8  1  0
 10 12  1  0
 10  9  1  6
 11 10  1  0
 12 14  1  0
 13 12  2  0
 14 15  1  0
 15 26  1  0
 15 16  1  1
 17 16  1  0
 18 17  2  0
 19 20  1  0
 19 18  1  0
 20 25  2  0
 21 22  2  0
 21 20  1  0
 22 23  1  0
 23 24  2  0
 25 17  1  0
 25 24  1  0
 26 27  2  0
 26 28  1  0
M  END
$$$$
