PSW.pdb
     RDKit          3D

 28 30  0  0  1  0  0  0  0  0999 V2000
   29.1134  -23.4816  -16.9313 N   0  0  0  0  0  0  0  0  0  0  0  0
   30.4620  -23.2752  -17.4112 C   0  0  0  0  0  0  0  0  0  0  0  0
   30.2784  -22.3086  -18.5479 C   0  0  0  0  0  0  0  0  0  0  0  0
   28.9430  -21.6100  -18.3018 C   0  0  0  0  0  0  0  0  0  0  0  0
   28.5518  -22.1644  -16.9712 C   0  0  1  0  0  0  0  0  0  0  0  0
   27.1024  -22.1475  -16.6996 C   0  0  0  0  0  0  0  0  0  0  0  0
   26.4233  -21.0836  -16.7263 O   0  0  0  0  0  0  0  0  0  0  0  0
   24.8940  -25.8130  -15.9084 O   0  0  0  0  0  0  0  0  0  0  0  0
   24.3802  -24.7414  -16.6220 C   0  0  0  0  0  0  0  0  0  0  0  0
   24.9918  -23.4353  -16.1956 C   0  0  2  0  0  0  0  0  0  0  0  0
   26.4006  -23.3508  -16.3914 N   0  0  0  0  0  0  0  0  0  0  0  0
   24.5828  -23.0623  -14.8085 C   0  0  0  0  0  0  0  0  0  0  0  0
   25.2597  -23.4710  -13.8358 O   0  0  0  0  0  0  0  0  0  0  0  0
   23.4545  -22.2599  -14.5389 N   0  0  0  0  0  0  0  0  0  0  0  0
   22.9030  -22.0830  -13.1856 C   0  0  1  0  0  0  0  0  0  0  0  0
   23.8707  -21.1285  -12.5000 C   0  0  0  0  0  0  0  0  0  0  0  0
   24.4739  -20.1483  -13.3820 C   0  0  0  0  0  0  0  0  0  0  0  0
   23.8007  -19.2471  -14.1757 C   0  0  0  0  0  0  0  0  0  0  0  0
   24.7194  -18.5083  -14.8477 N   0  0  0  0  0  0  0  0  0  0  0  0
   25.9669  -18.8924  -14.5233 C   0  0  0  0  0  0  0  0  0  0  0  0
   27.2120  -18.4618  -14.9264 C   0  0  0  0  0  0  0  0  0  0  0  0
   28.3303  -19.0677  -14.4034 C   0  0  0  0  0  0  0  0  0  0  0  0
   28.2157  -20.0979  -13.4833 C   0  0  0  0  0  0  0  0  0  0  0  0
   26.9749  -20.5031  -13.1030 C   0  0  0  0  0  0  0  0  0  0  0  0
   25.8150  -19.9309  -13.5953 C   0  0  0  0  0  0  0  0  0  0  0  0
   21.6105  -21.3668  -13.3213 C   0  0  0  0  0  0  0  0  0  0  0  0
   21.3570  -20.3282  -12.6605 O   0  0  0  0  0  0  0  0  0  0  0  0
   20.6219  -21.8114  -14.1846 O   0  0  0  0  0  0  0  0  0  0  0  0
  1  2  1  0
  2  3  1  0
  4  3  1  0
  5  1  1  0
  5  4  1  0
  5  6  1  6
  6 11  1  0
  7  6  2  0
  9  8  1  0
 10 12  1  0
 10  9  1  1
 11 10  1  0
 12 14  1  0
 13 12  2  0
 14 15  1  0
 15 26  1  0
 15 16  1  1
 17 16  1  0
 18 17  2  0
 19 20  1  0
 19 18  1  0
 20 25  2  0
 21 22  2  0
 21 20  1  0
 22 23  1  0
 23 24  2  0
 25 17  1  0
 25 24  1  0
 26 27  2  0
 26 28  1  0
M  END
$$$$
