PSW.pdb
     RDKit          3D

 28 30  0  0  1  0  0  0  0  0999 V2000
   27.0956  -19.2240  -16.9152 N   0  0  0  0  0  0  0  0  0  0  0  0
   27.6285  -19.0314  -18.2458 C   0  0  0  0  0  0  0  0  0  0  0  0
   28.6523  -17.9476  -18.0528 C   0  0  0  0  0  0  0  0  0  0  0  0
   29.0272  -17.9742  -16.5726 C   0  0  0  0  0  0  0  0  0  0  0  0
   28.2637  -19.1630  -16.0882 C   0  0  1  0  0  0  0  0  0  0  0  0
   27.9493  -19.1470  -14.6474 C   0  0  0  0  0  0  0  0  0  0  0  0
   28.8478  -19.1145  -13.7611 O   0  0  0  0  0  0  0  0  0  0  0  0
   23.8245  -19.1438  -13.1135 O   0  0  0  0  0  0  0  0  0  0  0  0
   24.8559  -18.3354  -12.6615 C   0  0  0  0  0  0  0  0  0  0  0  0
   26.2001  -18.9867  -12.8358 C   0  0  2  0  0  0  0  0  0  0  0  0
   26.5974  -19.1680  -14.1921 N   0  0  0  0  0  0  0  0  0  0  0  0
   26.3127  -20.2412  -12.0334 C   0  0  0  0  0  0  0  0  0  0  0  0
   26.1764  -21.3502  -12.6016 O   0  0  0  0  0  0  0  0  0  0  0  0
   26.5693  -20.2356  -10.6465 N   0  0  0  0  0  0  0  0  0  0  0  0
   26.4118  -21.4285   -9.7984 C   0  0  1  0  0  0  0  0  0  0  0  0
   27.6525  -21.4373   -8.9164 C   0  0  0  0  0  0  0  0  0  0  0  0
   27.6812  -20.3941   -7.9095 C   0  0  0  0  0  0  0  0  0  0  0  0
   26.9684  -19.2167   -7.9398 C   0  0  0  0  0  0  0  0  0  0  0  0
   27.2697  -18.5123   -6.8197 N   0  0  0  0  0  0  0  0  0  0  0  0
   28.1520  -19.1846   -6.0591 C   0  0  0  0  0  0  0  0  0  0  0  0
   28.7554  -18.8990   -4.8538 C   0  0  0  0  0  0  0  0  0  0  0  0
   29.6359  -19.8079   -4.3154 C   0  0  0  0  0  0  0  0  0  0  0  0
   29.9183  -20.9969   -4.9690 C   0  0  0  0  0  0  0  0  0  0  0  0
   29.3088  -21.2534   -6.1570 C   0  0  0  0  0  0  0  0  0  0  0  0
   28.4147  -20.3768   -6.7463 C   0  0  0  0  0  0  0  0  0  0  0  0
   25.2484  -21.1918   -8.9081 C   0  0  0  0  0  0  0  0  0  0  0  0
   24.8696  -22.0504   -8.0721 O   0  0  0  0  0  0  0  0  0  0  0  0
   24.5252  -20.0108   -8.9579 O   0  0  0  0  0  0  0  0  0  0  0  0
  1  2  1  0
  2  3  1  0
  4  3  1  0
  5  1  1  0
  5  4  1  0
  5  6  1  1
  6 11  1  0
  7  6  2  0
  9  8  1  0
 10 12  1  0
 10  9  1  6
 11 10  1  0
 12 14  1  0
 13 12  2  0
 14 15  1  0
 15 26  1  0
 15 16  1  1
 17 16  1  0
 18 17  2  0
 19 20  1  0
 19 18  1  0
 20 25  2  0
 21 22  2  0
 21 20  1  0
 22 23  1  0
 23 24  2  0
 25 17  1  0
 25 24  1  0
 26 27  2  0
 26 28  1  0
M  END
$$$$
