PSW.pdb
     RDKit          3D

 28 30  0  0  1  0  0  0  0  0999 V2000
   29.7215  -23.2243  -17.9907 N   0  0  0  0  0  0  0  0  0  0  0  0
   29.5459  -23.5291  -19.3935 C   0  0  0  0  0  0  0  0  0  0  0  0
   28.0970  -23.2101  -19.6361 C   0  0  0  0  0  0  0  0  0  0  0  0
   27.6823  -22.2435  -18.5290 C   0  0  0  0  0  0  0  0  0  0  0  0
   28.9810  -22.0087  -17.8298 C   0  0  1  0  0  0  0  0  0  0  0  0
   28.8547  -21.5933  -16.4204 C   0  0  0  0  0  0  0  0  0  0  0  0
   29.1835  -22.3473  -15.4627 O   0  0  0  0  0  0  0  0  0  0  0  0
   27.0075  -17.8100  -15.3658 O   0  0  0  0  0  0  0  0  0  0  0  0
   27.9848  -18.3896  -14.5718 C   0  0  0  0  0  0  0  0  0  0  0  0
   28.0461  -19.8813  -14.7523 C   0  0  2  0  0  0  0  0  0  0  0  0
   28.3486  -20.3038  -16.0791 N   0  0  0  0  0  0  0  0  0  0  0  0
   26.8323  -20.5535  -14.1998 C   0  0  0  0  0  0  0  0  0  0  0  0
   25.9018  -20.8784  -14.9743 O   0  0  0  0  0  0  0  0  0  0  0  0
   26.6830  -20.8439  -12.8277 N   0  0  0  0  0  0  0  0  0  0  0  0
   25.5157  -21.5563  -12.2826 C   0  0  1  0  0  0  0  0  0  0  0  0
   26.0172  -22.1765  -10.9860 C   0  0  0  0  0  0  0  0  0  0  0  0
   26.2684  -21.2237   -9.9221 C   0  0  0  0  0  0  0  0  0  0  0  0
   25.3581  -20.3344   -9.3969 C   0  0  0  0  0  0  0  0  0  0  0  0
   25.9789  -19.6207   -8.4238 N   0  0  0  0  0  0  0  0  0  0  0  0
   27.2597  -20.0098   -8.2934 C   0  0  0  0  0  0  0  0  0  0  0  0
   28.2812  -19.6002   -7.4646 C   0  0  0  0  0  0  0  0  0  0  0  0
   29.5120  -20.2041   -7.5722 C   0  0  0  0  0  0  0  0  0  0  0  0
   29.7308  -21.2114   -8.4986 C   0  0  0  0  0  0  0  0  0  0  0  0
   28.7052  -21.5962   -9.3041 C   0  0  0  0  0  0  0  0  0  0  0  0
   27.4463  -21.0249   -9.2407 C   0  0  0  0  0  0  0  0  0  0  0  0
   24.5040  -20.5358  -11.9123 C   0  0  0  0  0  0  0  0  0  0  0  0
   24.7988  -19.3183  -11.8106 O   0  0  0  0  0  0  0  0  0  0  0  0
   23.1852  -20.8795  -11.6613 O   0  0  0  0  0  0  0  0  0  0  0  0
  1  2  1  0
  2  3  1  0
  4  3  1  0
  5  1  1  0
  5  4  1  0
  5  6  1  1
  6 11  1  0
  7  6  2  0
  9  8  1  0
 10 12  1  0
 10  9  1  6
 11 10  1  0
 12 14  1  0
 13 12  2  0
 14 15  1  0
 15 26  1  0
 15 16  1  1
 17 16  1  0
 18 17  2  0
 19 20  1  0
 19 18  1  0
 20 25  2  0
 21 22  2  0
 21 20  1  0
 22 23  1  0
 23 24  2  0
 25 17  1  0
 25 24  1  0
 26 27  2  0
 26 28  1  0
M  END
$$$$
