PSW.pdb
     RDKit          3D

 28 30  0  0  1  0  0  0  0  0999 V2000
   31.3680  -11.6045  -17.9754 N   0  0  0  0  0  0  0  0  0  0  0  0
   32.2974  -12.6740  -17.6854 C   0  0  0  0  0  0  0  0  0  0  0  0
   33.0038  -12.8805  -18.9962 C   0  0  0  0  0  0  0  0  0  0  0  0
   32.8334  -11.5819  -19.7815 C   0  0  0  0  0  0  0  0  0  0  0  0
   32.1453  -10.7115  -18.7816 C   0  0  1  0  0  0  0  0  0  0  0  0
   31.3460   -9.6178  -19.3646 C   0  0  0  0  0  0  0  0  0  0  0  0
   31.8713   -8.6670  -20.0080 O   0  0  0  0  0  0  0  0  0  0  0  0
   27.1540   -9.2959  -18.5295 O   0  0  0  0  0  0  0  0  0  0  0  0
   27.6196   -8.9355  -19.7844 C   0  0  0  0  0  0  0  0  0  0  0  0
   29.0807   -8.5800  -19.7627 C   0  0  2  0  0  0  0  0  0  0  0  0
   29.9268   -9.5911  -19.2222 N   0  0  0  0  0  0  0  0  0  0  0  0
   29.3134   -7.2438  -19.1375 C   0  0  0  0  0  0  0  0  0  0  0  0
   29.3391   -7.1444  -17.8881 O   0  0  0  0  0  0  0  0  0  0  0  0
   29.5085   -6.0725  -19.8986 N   0  0  0  0  0  0  0  0  0  0  0  0
   29.7169   -4.7481  -19.2905 C   0  0  1  0  0  0  0  0  0  0  0  0
   30.5302   -3.9777  -20.3211 C   0  0  0  0  0  0  0  0  0  0  0  0
   31.9563   -4.2364  -20.2765 C   0  0  0  0  0  0  0  0  0  0  0  0
   32.5573   -5.4750  -20.2816 C   0  0  0  0  0  0  0  0  0  0  0  0
   33.9010   -5.2920  -20.2301 N   0  0  0  0  0  0  0  0  0  0  0  0
   34.2005   -3.9814  -20.1914 C   0  0  0  0  0  0  0  0  0  0  0  0
   35.3948   -3.2969  -20.1337 C   0  0  0  0  0  0  0  0  0  0  0  0
   35.3764   -1.9220  -20.1043 C   0  0  0  0  0  0  0  0  0  0  0  0
   34.1779   -1.2267  -20.1320 C   0  0  0  0  0  0  0  0  0  0  0  0
   33.0140   -1.9272  -20.1890 C   0  0  0  0  0  0  0  0  0  0  0  0
   32.9713   -3.3100  -20.2208 C   0  0  0  0  0  0  0  0  0  0  0  0
   28.3920   -4.0858  -19.2003 C   0  0  0  0  0  0  0  0  0  0  0  0
   27.3524   -4.6203  -19.6619 O   0  0  0  0  0  0  0  0  0  0  0  0
   28.2404   -2.8453  -18.6016 O   0  0  0  0  0  0  0  0  0  0  0  0
  1  2  1  0
  2  3  1  0
  4  3  1  0
  5  1  1  0
  5  4  1  0
  5  6  1  6
  6 11  1  0
  7  6  2  0
  9  8  1  0
 10 12  1  0
 10  9  1  1
 11 10  1  0
 12 14  1  0
 13 12  2  0
 14 15  1  0
 15 26  1  0
 15 16  1  6
 17 16  1  0
 18 17  2  0
 19 20  1  0
 19 18  1  0
 20 25  2  0
 21 22  2  0
 21 20  1  0
 22 23  1  0
 23 24  2  0
 25 17  1  0
 25 24  1  0
 26 27  2  0
 26 28  1  0
M  END
$$$$
