PSW.pdb
     RDKit          3D

 28 30  0  0  1  0  0  0  0  0999 V2000
   28.1104  -17.6158  -17.7352 N   0  0  0  0  0  0  0  0  0  0  0  0
   29.0047  -17.1877  -18.7881 C   0  0  0  0  0  0  0  0  0  0  0  0
   29.9709  -16.2850  -18.0730 C   0  0  0  0  0  0  0  0  0  0  0  0
   29.9105  -16.6786  -16.5986 C   0  0  0  0  0  0  0  0  0  0  0  0
   28.9982  -17.8605  -16.6379 C   0  0  1  0  0  0  0  0  0  0  0  0
   28.2898  -18.1334  -15.3735 C   0  0  0  0  0  0  0  0  0  0  0  0
   28.9015  -18.3850  -14.2982 O   0  0  0  0  0  0  0  0  0  0  0  0
   23.9221  -18.3657  -13.1362 O   0  0  0  0  0  0  0  0  0  0  0  0
   24.6467  -17.9779  -14.2525 C   0  0  0  0  0  0  0  0  0  0  0  0
   26.1041  -18.3267  -14.1274 C   0  0  2  0  0  0  0  0  0  0  0  0
   26.8644  -18.1233  -15.3153 N   0  0  0  0  0  0  0  0  0  0  0  0
   26.2967  -19.6908  -13.5506 C   0  0  0  0  0  0  0  0  0  0  0  0
   26.2598  -20.6901  -14.3066 O   0  0  0  0  0  0  0  0  0  0  0  0
   26.5216  -19.9093  -12.1755 N   0  0  0  0  0  0  0  0  0  0  0  0
   26.7097  -21.2505  -11.5984 C   0  0  1  0  0  0  0  0  0  0  0  0
   27.7551  -21.0551  -10.5093 C   0  0  0  0  0  0  0  0  0  0  0  0
   27.2277  -20.5615   -9.2519 C   0  0  0  0  0  0  0  0  0  0  0  0
   25.9147  -20.2388   -8.9930 C   0  0  0  0  0  0  0  0  0  0  0  0
   25.8300  -19.8167   -7.7060 N   0  0  0  0  0  0  0  0  0  0  0  0
   27.0374  -19.8513   -7.1146 C   0  0  0  0  0  0  0  0  0  0  0  0
   27.4662  -19.5283   -5.8457 C   0  0  0  0  0  0  0  0  0  0  0  0
   28.7976  -19.6731   -5.5332 C   0  0  0  0  0  0  0  0  0  0  0  0
   29.7023  -20.1367   -6.4752 C   0  0  0  0  0  0  0  0  0  0  0  0
   29.2522  -20.4481   -7.7198 C   0  0  0  0  0  0  0  0  0  0  0  0
   27.9248  -20.3226   -8.0908 C   0  0  0  0  0  0  0  0  0  0  0  0
   25.4435  -21.6260  -10.9218 C   0  0  0  0  0  0  0  0  0  0  0  0
   24.5440  -20.7808  -10.6849 O   0  0  0  0  0  0  0  0  0  0  0  0
   25.1946  -22.9285  -10.5194 O   0  0  0  0  0  0  0  0  0  0  0  0
  1  2  1  0
  2  3  1  0
  4  3  1  0
  5  1  1  0
  5  4  1  0
  5  6  1  1
  6 11  1  0
  7  6  2  0
  9  8  1  0
 10 12  1  0
 10  9  1  6
 11 10  1  0
 12 14  1  0
 13 12  2  0
 14 15  1  0
 15 26  1  0
 15 16  1  1
 17 16  1  0
 18 17  2  0
 19 20  1  0
 19 18  1  0
 20 25  2  0
 21 22  2  0
 21 20  1  0
 22 23  1  0
 23 24  2  0
 25 17  1  0
 25 24  1  0
 26 27  2  0
 26 28  1  0
M  END
$$$$
