NFF.pdb
     RDKit          3D

 31 32  0  0  1  0  0  0  0  0999 V2000
    6.0806  -22.5535   23.7375 N   0  0  0  0  0  0  0  0  0  0  0  0
    5.6232  -21.9374   22.5078 C   0  0  0  0  0  0  0  0  0  0  0  0
    4.9786  -22.5556   21.6481 O   0  0  0  0  0  0  0  0  0  0  0  0
    5.9574  -20.5079   22.2959 C   0  0  0  0  0  0  0  0  0  0  0  0
    4.9909  -19.6815   23.1468 C   0  0  2  0  0  0  0  0  0  0  0  0
    3.7458  -19.5953   22.3627 N   0  0  0  0  0  0  0  0  0  0  0  0
    5.5472  -18.3167   23.2670 C   0  0  0  0  0  0  0  0  0  0  0  0
    5.5554  -17.5896   22.1985 O   0  0  0  0  0  0  0  0  0  0  0  0
    6.0520  -17.7915   24.4619 N   0  0  0  0  0  0  0  0  0  0  0  0
    6.7071  -16.4597   24.5292 C   0  0  1  0  0  0  0  0  0  0  0  0
    6.5824  -15.9890   25.9506 C   0  0  0  0  0  0  0  0  0  0  0  0
    7.0595  -14.6283   26.2166 C   0  0  0  0  0  0  0  0  0  0  0  0
    6.1698  -13.5855   26.0666 C   0  0  0  0  0  0  0  0  0  0  0  0
    6.4879  -12.2954   26.3253 C   0  0  0  0  0  0  0  0  0  0  0  0
    7.7546  -11.9712   26.7623 C   0  0  0  0  0  0  0  0  0  0  0  0
    8.6598  -13.0206   26.9166 C   0  0  0  0  0  0  0  0  0  0  0  0
    8.3149  -14.3165   26.6483 C   0  0  0  0  0  0  0  0  0  0  0  0
    8.0815  -16.6500   24.0878 C   0  0  0  0  0  0  0  0  0  0  0  0
    8.7403  -17.7125   24.4323 O   0  0  0  0  0  0  0  0  0  0  0  0
    8.8276  -15.7656   23.2741 N   0  0  0  0  0  0  0  0  0  0  0  0
   10.1151  -16.1147   22.7217 C   0  0  1  0  0  0  0  0  0  0  0  0
   10.2026  -15.4235   21.3627 C   0  0  0  0  0  0  0  0  0  0  0  0
    9.0732  -14.5019   21.1462 C   0  0  0  0  0  0  0  0  0  0  0  0
    7.8534  -14.9714   20.7121 C   0  0  0  0  0  0  0  0  0  0  0  0
    6.7703  -14.1735   20.4970 C   0  0  0  0  0  0  0  0  0  0  0  0
    6.9398  -12.8125   20.7401 C   0  0  0  0  0  0  0  0  0  0  0  0
    8.1591  -12.3255   21.1769 C   0  0  0  0  0  0  0  0  0  0  0  0
    9.2425  -13.1583   21.3870 C   0  0  0  0  0  0  0  0  0  0  0  0
   11.2196  -15.7615   23.5864 C   0  0  0  0  0  0  0  0  0  0  0  0
   12.5330  -16.0577   23.3936 O   0  0  0  0  0  0  0  0  0  0  0  0
   10.9291  -15.1009   24.6488 O   0  0  0  0  0  0  0  0  0  0  0  0
  2  1  1  0
  2  4  1  0
  3  2  2  0
  4  5  1  0
  5  6  1  6
  7  9  1  0
  7  5  1  0
  8  7  2  0
 10  9  1  0
 10 11  1  1
 11 12  1  0
 12 13  2  0
 12 17  1  0
 13 14  1  0
 14 15  2  0
 16 15  1  0
 17 16  2  0
 18 10  1  0
 19 18  2  0
 20 18  1  0
 21 29  1  0
 21 20  1  0
 22 23  1  0
 21 22  1  6
 23 24  2  0
 23 28  1  0
 24 25  1  0
 25 26  2  0
 27 26  1  0
 28 27  2  0
 29 30  1  0
 31 29  2  0
M  END
$$$$
