NFF.pdb
     RDKit          3D

 31 32  0  0  1  0  0  0  0  0999 V2000
   11.6881  -17.1882   16.2872 N   0  0  0  0  0  0  0  0  0  0  0  0
   12.0279  -17.6752   17.6094 C   0  0  0  0  0  0  0  0  0  0  0  0
   12.5310  -18.7915   17.8034 O   0  0  0  0  0  0  0  0  0  0  0  0
   11.7482  -16.7801   18.7586 C   0  0  0  0  0  0  0  0  0  0  0  0
   10.7551  -17.5034   19.6703 C   0  0  2  0  0  0  0  0  0  0  0  0
    9.5078  -17.6113   18.8924 N   0  0  0  0  0  0  0  0  0  0  0  0
   10.4903  -16.6303   20.8341 C   0  0  0  0  0  0  0  0  0  0  0  0
   11.4136  -15.7856   21.1567 O   0  0  0  0  0  0  0  0  0  0  0  0
    9.3085  -16.6788   21.5821 N   0  0  0  0  0  0  0  0  0  0  0  0
    9.0967  -15.8352   22.7867 C   0  0  1  0  0  0  0  0  0  0  0  0
    7.6547  -15.4133   22.7696 C   0  0  0  0  0  0  0  0  0  0  0  0
    7.2130  -14.6036   23.9095 C   0  0  0  0  0  0  0  0  0  0  0  0
    7.4761  -13.2502   23.8873 C   0  0  0  0  0  0  0  0  0  0  0  0
    7.0784  -12.4007   24.8634 C   0  0  0  0  0  0  0  0  0  0  0  0
    6.3731  -12.8772   25.9479 C   0  0  0  0  0  0  0  0  0  0  0  0
    6.1031  -14.2449   25.9771 C   0  0  0  0  0  0  0  0  0  0  0  0
    6.5160  -15.0835   24.9788 C   0  0  0  0  0  0  0  0  0  0  0  0
    9.4601  -16.6526   23.9354 C   0  0  0  0  0  0  0  0  0  0  0  0
    9.1727  -17.9170   23.9585 O   0  0  0  0  0  0  0  0  0  0  0  0
   10.1353  -16.2087   25.0965 N   0  0  0  0  0  0  0  0  0  0  0  0
   10.8138  -17.1118   25.9958 C   0  0  1  0  0  0  0  0  0  0  0  0
   11.6604  -16.2417   26.9224 C   0  0  0  0  0  0  0  0  0  0  0  0
   10.8240  -15.4538   27.8451 C   0  0  0  0  0  0  0  0  0  0  0  0
   10.7280  -15.7954   29.1759 C   0  0  0  0  0  0  0  0  0  0  0  0
    9.9765  -15.1069   30.0799 C   0  0  0  0  0  0  0  0  0  0  0  0
    9.2799  -14.0009   29.5987 C   0  0  0  0  0  0  0  0  0  0  0  0
    9.3665  -13.6447   28.2645 C   0  0  0  0  0  0  0  0  0  0  0  0
   10.1371  -14.3617   27.3682 C   0  0  0  0  0  0  0  0  0  0  0  0
    9.9096  -17.9710   26.7282 C   0  0  0  0  0  0  0  0  0  0  0  0
    8.5511  -17.9703   26.6622 O   0  0  0  0  0  0  0  0  0  0  0  0
   10.4460  -18.8223   27.5264 O   0  0  0  0  0  0  0  0  0  0  0  0
  2  1  1  0
  2  4  1  0
  3  2  2  0
  4  5  1  0
  5  6  1  6
  7  9  1  0
  7  5  1  0
  8  7  2  0
 10  9  1  0
 10 11  1  1
 11 12  1  0
 12 13  2  0
 12 17  1  0
 13 14  1  0
 14 15  2  0
 16 15  1  0
 17 16  2  0
 18 10  1  0
 19 18  2  0
 20 18  1  0
 21 29  1  0
 21 20  1  0
 22 23  1  0
 21 22  1  1
 23 24  2  0
 23 28  1  0
 24 25  1  0
 25 26  2  0
 27 26  1  0
 28 27  2  0
 29 30  1  0
 31 29  2  0
M  END
$$$$
