NFF.pdb
     RDKit          3D

 31 32  0  0  1  0  0  0  0  0999 V2000
   14.4885  -17.9808   19.2203 N   0  0  0  0  0  0  0  0  0  0  0  0
   13.3833  -17.0953   18.9114 C   0  0  0  0  0  0  0  0  0  0  0  0
   12.9268  -16.9680   17.7658 O   0  0  0  0  0  0  0  0  0  0  0  0
   12.7965  -16.3205   20.0318 C   0  0  0  0  0  0  0  0  0  0  0  0
   11.7517  -17.2119   20.7060 C   0  0  2  0  0  0  0  0  0  0  0  0
   10.6403  -17.3187   19.7436 N   0  0  0  0  0  0  0  0  0  0  0  0
   11.2508  -16.4982   21.9005 C   0  0  0  0  0  0  0  0  0  0  0  0
   12.1315  -15.9346   22.6600 O   0  0  0  0  0  0  0  0  0  0  0  0
    9.8946  -16.4089   22.2339 N   0  0  0  0  0  0  0  0  0  0  0  0
    9.4282  -15.7901   23.5016 C   0  0  1  0  0  0  0  0  0  0  0  0
    8.0778  -15.1949   23.2196 C   0  0  0  0  0  0  0  0  0  0  0  0
    7.5173  -14.3524   24.2808 C   0  0  0  0  0  0  0  0  0  0  0  0
    6.7134  -14.9488   25.2291 C   0  0  0  0  0  0  0  0  0  0  0  0
    6.1774  -14.2780   26.2757 C   0  0  0  0  0  0  0  0  0  0  0  0
    6.4268  -12.9313   26.4330 C   0  0  0  0  0  0  0  0  0  0  0  0
    7.2392  -12.3214   25.4780 C   0  0  0  0  0  0  0  0  0  0  0  0
    7.7690  -13.0203   24.4286 C   0  0  0  0  0  0  0  0  0  0  0  0
    9.4106  -16.8502   24.4995 C   0  0  0  0  0  0  0  0  0  0  0  0
    9.4351  -18.0946   24.1355 O   0  0  0  0  0  0  0  0  0  0  0  0
    9.3743  -16.6759   25.9028 N   0  0  0  0  0  0  0  0  0  0  0  0
    9.4483  -17.7827   26.8270 C   0  0  1  0  0  0  0  0  0  0  0  0
    9.1922  -17.2019   28.2161 C   0  0  0  0  0  0  0  0  0  0  0  0
    9.6247  -15.7961   28.3073 C   0  0  0  0  0  0  0  0  0  0  0  0
   10.9310  -15.4783   28.6063 C   0  0  0  0  0  0  0  0  0  0  0  0
   11.3947  -14.2008   28.7012 C   0  0  0  0  0  0  0  0  0  0  0  0
   10.4702  -13.1833   28.4768 C   0  0  0  0  0  0  0  0  0  0  0  0
    9.1543  -13.4865   28.1751 C   0  0  0  0  0  0  0  0  0  0  0  0
    8.7105  -14.7927   28.0851 C   0  0  0  0  0  0  0  0  0  0  0  0
    8.5317  -18.8544   26.5055 C   0  0  0  0  0  0  0  0  0  0  0  0
    7.5698  -18.8437   25.5439 O   0  0  0  0  0  0  0  0  0  0  0  0
    8.6357  -19.9279   27.2028 O   0  0  0  0  0  0  0  0  0  0  0  0
  2  1  1  0
  2  4  1  0
  3  2  2  0
  4  5  1  0
  5  6  1  6
  7  9  1  0
  7  5  1  0
  8  7  2  0
 10  9  1  0
 10 11  1  6
 11 12  1  0
 12 13  2  0
 12 17  1  0
 13 14  1  0
 14 15  2  0
 16 15  1  0
 17 16  2  0
 18 10  1  0
 19 18  2  0
 20 18  1  0
 21 29  1  0
 21 20  1  0
 22 23  1  0
 21 22  1  1
 23 24  2  0
 23 28  1  0
 24 25  1  0
 25 26  2  0
 27 26  1  0
 28 27  2  0
 29 30  1  0
 31 29  2  0
M  END
$$$$
