NFF.pdb
     RDKit          3D

 31 32  0  0  1  0  0  0  0  0999 V2000
   12.2907  -20.1297   18.0855 N   0  0  0  0  0  0  0  0  0  0  0  0
   11.0410  -19.7706   18.7260 C   0  0  0  0  0  0  0  0  0  0  0  0
    9.9463  -20.2231   18.3602 O   0  0  0  0  0  0  0  0  0  0  0  0
   11.1056  -18.8185   19.8616 C   0  0  0  0  0  0  0  0  0  0  0  0
   10.0718  -17.7219   19.5980 C   0  0  2  0  0  0  0  0  0  0  0  0
   10.5910  -16.9538   18.4522 N   0  0  0  0  0  0  0  0  0  0  0  0
   10.0527  -16.8257   20.7742 C   0  0  0  0  0  0  0  0  0  0  0  0
   11.1328  -16.1614   21.0238 O   0  0  0  0  0  0  0  0  0  0  0  0
    8.9394  -16.6698   21.6076 N   0  0  0  0  0  0  0  0  0  0  0  0
    8.9491  -15.7608   22.7829 C   0  0  1  0  0  0  0  0  0  0  0  0
    7.5430  -15.2589   22.9515 C   0  0  0  0  0  0  0  0  0  0  0  0
    7.3127  -14.3795   24.1020 C   0  0  0  0  0  0  0  0  0  0  0  0
    6.7111  -14.9157   25.2209 C   0  0  0  0  0  0  0  0  0  0  0  0
    6.4881  -14.2095   26.3541 C   0  0  0  0  0  0  0  0  0  0  0  0
    6.8686  -12.8865   26.4289 C   0  0  0  0  0  0  0  0  0  0  0  0
    7.4780  -12.3375   25.3013 C   0  0  0  0  0  0  0  0  0  0  0  0
    7.6921  -13.0714   24.1672 C   0  0  0  0  0  0  0  0  0  0  0  0
    9.4367  -16.5436   23.9095 C   0  0  0  0  0  0  0  0  0  0  0  0
    9.1866  -17.8139   23.9832 O   0  0  0  0  0  0  0  0  0  0  0  0
   10.2018  -16.0577   24.9955 N   0  0  0  0  0  0  0  0  0  0  0  0
   10.9995  -16.9211   25.8340 C   0  0  1  0  0  0  0  0  0  0  0  0
   11.8023  -16.0051   26.7552 C   0  0  0  0  0  0  0  0  0  0  0  0
   10.9394  -15.3335   27.7432 C   0  0  0  0  0  0  0  0  0  0  0  0
   10.2201  -14.2095   27.4025 C   0  0  0  0  0  0  0  0  0  0  0  0
    9.4025  -13.5455   28.2666 C   0  0  0  0  0  0  0  0  0  0  0  0
    9.3111  -14.0589   29.5582 C   0  0  0  0  0  0  0  0  0  0  0  0
   10.0272  -15.1876   29.9156 C   0  0  0  0  0  0  0  0  0  0  0  0
   10.8502  -15.8421   29.0180 C   0  0  0  0  0  0  0  0  0  0  0  0
   10.2114  -17.8836   26.5720 C   0  0  0  0  0  0  0  0  0  0  0  0
    8.8550  -17.9823   26.5928 O   0  0  0  0  0  0  0  0  0  0  0  0
   10.8607  -18.7325   27.2843 O   0  0  0  0  0  0  0  0  0  0  0  0
  2  1  1  0
  2  4  1  0
  3  2  2  0
  4  5  1  0
  5  6  1  6
  7  9  1  0
  7  5  1  0
  8  7  2  0
 10  9  1  0
 10 11  1  1
 11 12  1  0
 12 13  2  0
 12 17  1  0
 13 14  1  0
 14 15  2  0
 16 15  1  0
 17 16  2  0
 18 10  1  0
 19 18  2  0
 20 18  1  0
 21 29  1  0
 21 20  1  0
 22 23  1  0
 21 22  1  1
 23 24  2  0
 23 28  1  0
 24 25  1  0
 25 26  2  0
 27 26  1  0
 28 27  2  0
 29 30  1  0
 31 29  2  0
M  END
$$$$
