NFF.pdb
     RDKit          3D

 31 32  0  0  1  0  0  0  0  0999 V2000
   12.5493  -18.6148   19.0196 N   0  0  0  0  0  0  0  0  0  0  0  0
   11.9531  -17.5687   18.2127 C   0  0  0  0  0  0  0  0  0  0  0  0
   12.5759  -16.9725   17.3219 O   0  0  0  0  0  0  0  0  0  0  0  0
   10.5388  -17.2169   18.4887 C   0  0  0  0  0  0  0  0  0  0  0  0
   10.1124  -17.9863   19.7405 C   0  0  2  0  0  0  0  0  0  0  0  0
    8.7508  -18.4767   19.4605 N   0  0  0  0  0  0  0  0  0  0  0  0
   10.0265  -17.0213   20.8577 C   0  0  0  0  0  0  0  0  0  0  0  0
   11.1259  -16.4507   21.2266 O   0  0  0  0  0  0  0  0  0  0  0  0
    8.8321  -16.7067   21.5157 N   0  0  0  0  0  0  0  0  0  0  0  0
    8.7954  -15.8414   22.7229 C   0  0  1  0  0  0  0  0  0  0  0  0
    7.3742  -15.3797   22.8794 C   0  0  0  0  0  0  0  0  0  0  0  0
    7.0845  -14.6045   24.0898 C   0  0  0  0  0  0  0  0  0  0  0  0
    6.3550  -15.2098   25.0913 C   0  0  0  0  0  0  0  0  0  0  0  0
    6.0652  -14.6054   26.2674 C   0  0  0  0  0  0  0  0  0  0  0  0
    6.5052  -13.3217   26.5105 C   0  0  0  0  0  0  0  0  0  0  0  0
    7.2438  -12.7033   25.5024 C   0  0  0  0  0  0  0  0  0  0  0  0
    7.5235  -13.3345   24.3218 C   0  0  0  0  0  0  0  0  0  0  0  0
    9.2788  -16.6531   23.8307 C   0  0  0  0  0  0  0  0  0  0  0  0
    8.9094  -17.8907   23.9477 O   0  0  0  0  0  0  0  0  0  0  0  0
   10.1611  -16.2311   24.8527 N   0  0  0  0  0  0  0  0  0  0  0  0
   10.7112  -17.1399   25.8307 C   0  0  1  0  0  0  0  0  0  0  0  0
   11.7783  -16.3576   26.5933 C   0  0  0  0  0  0  0  0  0  0  0  0
   11.1806  -15.3524   27.4900 C   0  0  0  0  0  0  0  0  0  0  0  0
   10.9627  -15.6350   28.8203 C   0  0  0  0  0  0  0  0  0  0  0  0
   10.4185  -14.7495   29.7011 C   0  0  0  0  0  0  0  0  0  0  0  0
   10.0756  -13.4976   29.1957 C   0  0  0  0  0  0  0  0  0  0  0  0
   10.2887  -13.1984   27.8616 C   0  0  0  0  0  0  0  0  0  0  0  0
   10.8429  -14.1166   26.9892 C   0  0  0  0  0  0  0  0  0  0  0  0
    9.7107  -17.7008   26.7119 C   0  0  0  0  0  0  0  0  0  0  0  0
    8.3923  -17.3703   26.7638 O   0  0  0  0  0  0  0  0  0  0  0  0
   10.1098  -18.6042   27.5330 O   0  0  0  0  0  0  0  0  0  0  0  0
  2  1  1  0
  2  4  1  0
  3  2  2  0
  4  5  1  0
  5  6  1  6
  7  9  1  0
  7  5  1  0
  8  7  2  0
 10  9  1  0
 10 11  1  1
 11 12  1  0
 12 13  2  0
 12 17  1  0
 13 14  1  0
 14 15  2  0
 16 15  1  0
 17 16  2  0
 18 10  1  0
 19 18  2  0
 20 18  1  0
 21 29  1  0
 21 20  1  0
 22 23  1  0
 21 22  1  1
 23 24  2  0
 23 28  1  0
 24 25  1  0
 25 26  2  0
 27 26  1  0
 28 27  2  0
 29 30  1  0
 31 29  2  0
M  END
$$$$
