NFF.pdb
     RDKit          3D

 31 32  0  0  1  0  0  0  0  0999 V2000
   12.8794  -18.1335   17.5095 N   0  0  0  0  0  0  0  0  0  0  0  0
   11.4550  -17.9692   17.7215 C   0  0  0  0  0  0  0  0  0  0  0  0
   10.6056  -18.6340   17.1103 O   0  0  0  0  0  0  0  0  0  0  0  0
   11.0259  -16.9546   18.7148 C   0  0  0  0  0  0  0  0  0  0  0  0
   10.7716  -17.6859   20.0344 C   0  0  2  0  0  0  0  0  0  0  0  0
    9.5229  -18.4432   19.8344 N   0  0  0  0  0  0  0  0  0  0  0  0
   10.5224  -16.6664   21.0761 C   0  0  0  0  0  0  0  0  0  0  0  0
   11.4929  -15.8584   21.3511 O   0  0  0  0  0  0  0  0  0  0  0  0
    9.3075  -16.5423   21.7595 N   0  0  0  0  0  0  0  0  0  0  0  0
    9.0750  -15.4872   22.7795 C   0  0  1  0  0  0  0  0  0  0  0  0
    7.7025  -14.9331   22.5216 C   0  0  0  0  0  0  0  0  0  0  0  0
    7.5220  -14.2466   21.2386 C   0  0  0  0  0  0  0  0  0  0  0  0
    8.0330  -12.9729   21.1043 C   0  0  0  0  0  0  0  0  0  0  0  0
    7.9623  -12.2623   19.9543 C   0  0  0  0  0  0  0  0  0  0  0  0
    7.3569  -12.8075   18.8422 C   0  0  0  0  0  0  0  0  0  0  0  0
    6.8379  -14.0954   18.9704 C   0  0  0  0  0  0  0  0  0  0  0  0
    6.9211  -14.7935   20.1435 C   0  0  0  0  0  0  0  0  0  0  0  0
    9.2198  -16.1270   24.0794 C   0  0  0  0  0  0  0  0  0  0  0  0
    8.8348  -17.3530   24.2540 O   0  0  0  0  0  0  0  0  0  0  0  0
    9.7688  -15.5394   25.2431 N   0  0  0  0  0  0  0  0  0  0  0  0
    9.3428  -15.9027   26.5740 C   0  0  1  0  0  0  0  0  0  0  0  0
    7.8314  -15.6872   26.6163 C   0  0  0  0  0  0  0  0  0  0  0  0
    7.4866  -14.2562   26.6870 C   0  0  0  0  0  0  0  0  0  0  0  0
    8.4453  -13.3140   26.9868 C   0  0  0  0  0  0  0  0  0  0  0  0
    8.1926  -11.9775   27.0634 C   0  0  0  0  0  0  0  0  0  0  0  0
    6.8817  -11.5754   26.8186 C   0  0  0  0  0  0  0  0  0  0  0  0
    5.9073  -12.5100   26.5158 C   0  0  0  0  0  0  0  0  0  0  0  0
    6.1916  -13.8611   26.4447 C   0  0  0  0  0  0  0  0  0  0  0  0
    9.7128  -17.2519   26.9411 C   0  0  0  0  0  0  0  0  0  0  0  0
   10.2593  -18.1969   26.1297 O   0  0  0  0  0  0  0  0  0  0  0  0
    9.5008  -17.5941   28.1607 O   0  0  0  0  0  0  0  0  0  0  0  0
  2  1  1  0
  2  4  1  0
  3  2  2  0
  4  5  1  0
  5  6  1  6
  7  9  1  0
  7  5  1  0
  8  7  2  0
 10  9  1  0
 10 11  1  1
 11 12  1  0
 12 13  2  0
 12 17  1  0
 13 14  1  0
 14 15  2  0
 16 15  1  0
 17 16  2  0
 18 10  1  0
 19 18  2  0
 20 18  1  0
 21 29  1  0
 21 20  1  0
 22 23  1  0
 21 22  1  6
 23 24  2  0
 23 28  1  0
 24 25  1  0
 25 26  2  0
 27 26  1  0
 28 27  2  0
 29 30  1  0
 31 29  2  0
M  END
$$$$
