NFF.pdb
     RDKit          3D

 31 32  0  0  1  0  0  0  0  0999 V2000
   13.7965  -16.1288   17.3898 N   0  0  0  0  0  0  0  0  0  0  0  0
   12.9722  -16.9667   18.2378 C   0  0  0  0  0  0  0  0  0  0  0  0
   13.0608  -18.2033   18.2473 O   0  0  0  0  0  0  0  0  0  0  0  0
   11.9894  -16.2888   19.1179 C   0  0  0  0  0  0  0  0  0  0  0  0
   12.0124  -17.0081   20.4680 C   0  0  2  0  0  0  0  0  0  0  0  0
   11.2675  -18.2632   20.2620 N   0  0  0  0  0  0  0  0  0  0  0  0
   11.2542  -16.1834   21.4333 C   0  0  0  0  0  0  0  0  0  0  0  0
   11.7175  -15.0044   21.6895 O   0  0  0  0  0  0  0  0  0  0  0  0
   10.0828  -16.6159   22.0651 N   0  0  0  0  0  0  0  0  0  0  0  0
    9.3040  -15.7402   22.9784 C   0  0  1  0  0  0  0  0  0  0  0  0
    7.8674  -15.8385   22.5492 C   0  0  0  0  0  0  0  0  0  0  0  0
    7.4397  -14.8788   21.5265 C   0  0  0  0  0  0  0  0  0  0  0  0
    7.6783  -13.5393   21.7505 C   0  0  0  0  0  0  0  0  0  0  0  0
    7.3652  -12.5704   20.8585 C   0  0  0  0  0  0  0  0  0  0  0  0
    6.7781  -12.9026   19.6562 C   0  0  0  0  0  0  0  0  0  0  0  0
    6.5340  -14.2555   19.4225 C   0  0  0  0  0  0  0  0  0  0  0  0
    6.8589  -15.2164   20.3398 C   0  0  0  0  0  0  0  0  0  0  0  0
    9.5520  -16.2236   24.3292 C   0  0  0  0  0  0  0  0  0  0  0  0
   10.4091  -17.1739   24.5392 O   0  0  0  0  0  0  0  0  0  0  0  0
    8.9387  -15.7487   25.5121 N   0  0  0  0  0  0  0  0  0  0  0  0
    9.1662  -16.3529   26.8036 C   0  0  1  0  0  0  0  0  0  0  0  0
    8.2139  -15.6609   27.7766 C   0  0  0  0  0  0  0  0  0  0  0  0
    8.0154  -14.2426   27.4291 C   0  0  0  0  0  0  0  0  0  0  0  0
    6.8721  -13.8285   26.7824 C   0  0  0  0  0  0  0  0  0  0  0  0
    6.6266  -12.5336   26.4374 C   0  0  0  0  0  0  0  0  0  0  0  0
    7.6063  -11.6020   26.7730 C   0  0  0  0  0  0  0  0  0  0  0  0
    8.7602  -12.0024   27.4232 C   0  0  0  0  0  0  0  0  0  0  0  0
    8.9838  -13.3241   27.7615 C   0  0  0  0  0  0  0  0  0  0  0  0
    8.9932  -17.7889   26.7981 C   0  0  0  0  0  0  0  0  0  0  0  0
    8.5070  -18.5477   25.7794 O   0  0  0  0  0  0  0  0  0  0  0  0
    9.3321  -18.4125   27.8685 O   0  0  0  0  0  0  0  0  0  0  0  0
  2  1  1  0
  2  4  1  0
  3  2  2  0
  4  5  1  0
  5  6  1  6
  7  9  1  0
  7  5  1  0
  8  7  2  0
 10  9  1  0
 10 11  1  6
 11 12  1  0
 12 13  2  0
 12 17  1  0
 13 14  1  0
 14 15  2  0
 16 15  1  0
 17 16  2  0
 18 10  1  0
 19 18  2  0
 20 18  1  0
 21 29  1  0
 21 20  1  0
 22 23  1  0
 21 22  1  1
 23 24  2  0
 23 28  1  0
 24 25  1  0
 25 26  2  0
 27 26  1  0
 28 27  2  0
 29 30  1  0
 31 29  2  0
M  END
$$$$
