NFF.pdb
     RDKit          3D

 31 32  0  0  1  0  0  0  0  0999 V2000
   13.4938  -14.1089   17.2564 N   0  0  0  0  0  0  0  0  0  0  0  0
   13.9742  -14.3863   18.5956 C   0  0  0  0  0  0  0  0  0  0  0  0
   15.1232  -14.7916   18.8247 O   0  0  0  0  0  0  0  0  0  0  0  0
   13.0288  -14.1695   19.7177 C   0  0  0  0  0  0  0  0  0  0  0  0
   12.9071  -15.4932   20.4752 C   0  0  2  0  0  0  0  0  0  0  0  0
   12.1912  -16.4065   19.5663 N   0  0  0  0  0  0  0  0  0  0  0  0
   12.0475  -15.2617   21.6560 C   0  0  0  0  0  0  0  0  0  0  0  0
   12.4500  -14.3809   22.5117 O   0  0  0  0  0  0  0  0  0  0  0  0
   10.8439  -15.9400   21.8792 N   0  0  0  0  0  0  0  0  0  0  0  0
    9.9453  -15.6088   23.0151 C   0  0  1  0  0  0  0  0  0  0  0  0
    8.5396  -15.6906   22.4910 C   0  0  0  0  0  0  0  0  0  0  0  0
    8.1388  -14.6226   21.5697 C   0  0  0  0  0  0  0  0  0  0  0  0
    7.9812  -13.3502   22.0773 C   0  0  0  0  0  0  0  0  0  0  0  0
    7.6555  -12.2813   21.3132 C   0  0  0  0  0  0  0  0  0  0  0  0
    7.4648  -12.4353   19.9565 C   0  0  0  0  0  0  0  0  0  0  0  0
    7.6228  -13.7192   19.4359 C   0  0  0  0  0  0  0  0  0  0  0  0
    7.9517  -14.7840   20.2287 C   0  0  0  0  0  0  0  0  0  0  0  0
   10.2395  -16.5675   24.0707 C   0  0  0  0  0  0  0  0  0  0  0  0
   10.9809  -17.6036   23.8285 O   0  0  0  0  0  0  0  0  0  0  0  0
    9.7927  -16.4975   25.4110 N   0  0  0  0  0  0  0  0  0  0  0  0
   10.2034  -17.4459   26.4193 C   0  0  1  0  0  0  0  0  0  0  0  0
    9.6554  -16.9274   27.7471 C   0  0  0  0  0  0  0  0  0  0  0  0
    9.6712  -15.4550   27.8056 C   0  0  0  0  0  0  0  0  0  0  0  0
   10.7645  -14.7808   28.3026 C   0  0  0  0  0  0  0  0  0  0  0  0
   10.8432  -13.4229   28.3799 C   0  0  0  0  0  0  0  0  0  0  0  0
    9.7399  -12.7069   27.9215 C   0  0  0  0  0  0  0  0  0  0  0  0
    8.6342  -13.3698   27.4190 C   0  0  0  0  0  0  0  0  0  0  0  0
    8.5808  -14.7497   27.3523 C   0  0  0  0  0  0  0  0  0  0  0  0
    9.7696  -18.7971   26.1394 C   0  0  0  0  0  0  0  0  0  0  0  0
    8.9766  -19.2024   25.1114 O   0  0  0  0  0  0  0  0  0  0  0  0
   10.1738  -19.7094   26.9480 O   0  0  0  0  0  0  0  0  0  0  0  0
  2  1  1  0
  2  4  1  0
  3  2  2  0
  4  5  1  0
  5  6  1  6
  7  9  1  0
  7  5  1  0
  8  7  2  0
 10  9  1  0
 10 11  1  6
 11 12  1  0
 12 13  2  0
 12 17  1  0
 13 14  1  0
 14 15  2  0
 16 15  1  0
 17 16  2  0
 18 10  1  0
 19 18  2  0
 20 18  1  0
 21 29  1  0
 21 20  1  0
 22 23  1  0
 21 22  1  1
 23 24  2  0
 23 28  1  0
 24 25  1  0
 25 26  2  0
 27 26  1  0
 28 27  2  0
 29 30  1  0
 31 29  2  0
M  END
$$$$
