NFF.pdb
     RDKit          3D

 31 32  0  0  1  0  0  0  0  0999 V2000
   11.9597  -20.5326   18.4213 N   0  0  0  0  0  0  0  0  0  0  0  0
   10.7153  -19.9863   18.9251 C   0  0  0  0  0  0  0  0  0  0  0  0
    9.6061  -20.3520   18.5095 O   0  0  0  0  0  0  0  0  0  0  0  0
   10.8043  -18.9468   19.9794 C   0  0  0  0  0  0  0  0  0  0  0  0
    9.8247  -17.8324   19.6063 C   0  0  2  0  0  0  0  0  0  0  0  0
   10.4324  -17.1379   18.4568 N   0  0  0  0  0  0  0  0  0  0  0  0
    9.7714  -16.8795   20.7359 C   0  0  0  0  0  0  0  0  0  0  0  0
   10.8416  -16.1972   20.9797 O   0  0  0  0  0  0  0  0  0  0  0  0
    8.6364  -16.6896   21.5323 N   0  0  0  0  0  0  0  0  0  0  0  0
    8.6344  -15.7792   22.7066 C   0  0  1  0  0  0  0  0  0  0  0  0
    7.2072  -15.3654   22.9289 C   0  0  0  0  0  0  0  0  0  0  0  0
    6.9705  -14.4783   24.0721 C   0  0  0  0  0  0  0  0  0  0  0  0
    6.3437  -15.0016   25.1833 C   0  0  0  0  0  0  0  0  0  0  0  0
    6.1122  -14.2879   26.3099 C   0  0  0  0  0  0  0  0  0  0  0  0
    6.5095  -12.9699   26.3858 C   0  0  0  0  0  0  0  0  0  0  0  0
    7.1444  -12.4338   25.2660 C   0  0  0  0  0  0  0  0  0  0  0  0
    7.3666  -13.1752   24.1385 C   0  0  0  0  0  0  0  0  0  0  0  0
    9.2124  -16.5278   23.8136 C   0  0  0  0  0  0  0  0  0  0  0  0
    8.7878  -17.7212   24.0915 O   0  0  0  0  0  0  0  0  0  0  0  0
   10.2480  -16.0863   24.6701 N   0  0  0  0  0  0  0  0  0  0  0  0
   10.8724  -16.9486   25.6455 C   0  0  1  0  0  0  0  0  0  0  0  0
   11.8431  -16.0733   26.4355 C   0  0  0  0  0  0  0  0  0  0  0  0
   11.1434  -15.2531   27.4401 C   0  0  0  0  0  0  0  0  0  0  0  0
   11.1105  -15.6347   28.7630 C   0  0  0  0  0  0  0  0  0  0  0  0
   10.4854  -14.9199   29.7399 C   0  0  0  0  0  0  0  0  0  0  0  0
    9.8551  -13.7422   29.3448 C   0  0  0  0  0  0  0  0  0  0  0  0
    9.8796  -13.3452   28.0195 C   0  0  0  0  0  0  0  0  0  0  0  0
   10.5218  -14.0904   27.0481 C   0  0  0  0  0  0  0  0  0  0  0  0
    9.9206  -17.6203   26.5029 C   0  0  0  0  0  0  0  0  0  0  0  0
    8.5744  -17.4289   26.5338 O   0  0  0  0  0  0  0  0  0  0  0  0
   10.3973  -18.4866   27.3225 O   0  0  0  0  0  0  0  0  0  0  0  0
  2  1  1  0
  2  4  1  0
  3  2  2  0
  4  5  1  0
  5  6  1  6
  7  9  1  0
  7  5  1  0
  8  7  2  0
 10  9  1  0
 10 11  1  1
 11 12  1  0
 12 13  2  0
 12 17  1  0
 13 14  1  0
 14 15  2  0
 16 15  1  0
 17 16  2  0
 18 10  1  0
 19 18  2  0
 20 18  1  0
 21 29  1  0
 21 20  1  0
 22 23  1  0
 21 22  1  1
 23 24  2  0
 23 28  1  0
 24 25  1  0
 25 26  2  0
 27 26  1  0
 28 27  2  0
 29 30  1  0
 31 29  2  0
M  END
$$$$
