NFF.pdb
     RDKit          3D

 31 32  0  0  1  0  0  0  0  0999 V2000
    5.8038  -22.0963   20.4812 N   0  0  0  0  0  0  0  0  0  0  0  0
    5.8004  -21.4980   21.8014 C   0  0  0  0  0  0  0  0  0  0  0  0
    5.4246  -22.1086   22.8127 O   0  0  0  0  0  0  0  0  0  0  0  0
    6.2689  -20.0953   21.9156 C   0  0  0  0  0  0  0  0  0  0  0  0
    5.2109  -19.3229   22.7061 C   0  0  2  0  0  0  0  0  0  0  0  0
    4.0700  -19.1590   21.7873 N   0  0  0  0  0  0  0  0  0  0  0  0
    5.7554  -17.9794   22.9981 C   0  0  0  0  0  0  0  0  0  0  0  0
    5.8803  -17.1669   22.0009 O   0  0  0  0  0  0  0  0  0  0  0  0
    6.1309  -17.5607   24.2796 N   0  0  0  0  0  0  0  0  0  0  0  0
    6.7589  -16.2376   24.5298 C   0  0  1  0  0  0  0  0  0  0  0  0
    6.5563  -15.9328   25.9871 C   0  0  0  0  0  0  0  0  0  0  0  0
    6.9283  -14.5803   26.4140 C   0  0  0  0  0  0  0  0  0  0  0  0
    8.2280  -14.3599   26.8187 C   0  0  0  0  0  0  0  0  0  0  0  0
    8.6929  -13.1447   27.1926 C   0  0  0  0  0  0  0  0  0  0  0  0
    7.8538  -12.0510   27.1800 C   0  0  0  0  0  0  0  0  0  0  0  0
    6.5381  -12.2662   26.7716 C   0  0  0  0  0  0  0  0  0  0  0  0
    6.0914  -13.5039   26.3989 C   0  0  0  0  0  0  0  0  0  0  0  0
    8.1563  -16.3607   24.1400 C   0  0  0  0  0  0  0  0  0  0  0  0
    8.7890  -17.4798   24.3100 O   0  0  0  0  0  0  0  0  0  0  0  0
    8.9533  -15.3476   23.5573 N   0  0  0  0  0  0  0  0  0  0  0  0
   10.2415  -15.6158   22.9630 C   0  0  1  0  0  0  0  0  0  0  0  0
   10.5114  -14.4735   21.9859 C   0  0  0  0  0  0  0  0  0  0  0  0
    9.3162  -14.1439   21.1893 C   0  0  0  0  0  0  0  0  0  0  0  0
    8.5546  -13.0355   21.4864 C   0  0  0  0  0  0  0  0  0  0  0  0
    7.4424  -12.6741   20.7875 C   0  0  0  0  0  0  0  0  0  0  0  0
    7.0840  -13.4922   19.7185 C   0  0  0  0  0  0  0  0  0  0  0  0
    7.8393  -14.6090   19.4073 C   0  0  0  0  0  0  0  0  0  0  0  0
    8.9641  -14.9527   20.1340 C   0  0  0  0  0  0  0  0  0  0  0  0
   11.2990  -15.7612   23.9391 C   0  0  0  0  0  0  0  0  0  0  0  0
   11.1711  -15.7169   25.2925 O   0  0  0  0  0  0  0  0  0  0  0  0
   12.4834  -15.9496   23.4793 O   0  0  0  0  0  0  0  0  0  0  0  0
  2  1  1  0
  2  4  1  0
  3  2  2  0
  4  5  1  0
  5  6  1  6
  7  9  1  0
  7  5  1  0
  8  7  2  0
 10  9  1  0
 10 11  1  1
 11 12  1  0
 12 13  2  0
 12 17  1  0
 13 14  1  0
 14 15  2  0
 16 15  1  0
 17 16  2  0
 18 10  1  0
 19 18  2  0
 20 18  1  0
 21 29  1  0
 21 20  1  0
 22 23  1  0
 21 22  1  6
 23 24  2  0
 23 28  1  0
 24 25  1  0
 25 26  2  0
 27 26  1  0
 28 27  2  0
 29 30  1  0
 31 29  2  0
M  END
$$$$
