NFF.pdb
     RDKit          3D

 31 32  0  0  1  0  0  0  0  0999 V2000
    6.6196  -19.2812   17.2203 N   0  0  0  0  0  0  0  0  0  0  0  0
    7.9838  -19.3362   17.7069 C   0  0  0  0  0  0  0  0  0  0  0  0
    8.7056  -20.3343   17.5665 O   0  0  0  0  0  0  0  0  0  0  0  0
    8.5097  -18.1346   18.3996 C   0  0  0  0  0  0  0  0  0  0  0  0
    9.1039  -18.5980   19.7311 C   0  0  2  0  0  0  0  0  0  0  0  0
    7.9506  -18.8560   20.6122 N   0  0  0  0  0  0  0  0  0  0  0  0
    9.8685  -17.4688   20.3031 C   0  0  0  0  0  0  0  0  0  0  0  0
   10.9495  -17.1197   19.6869 O   0  0  0  0  0  0  0  0  0  0  0  0
    9.4785  -16.7780   21.4560 N   0  0  0  0  0  0  0  0  0  0  0  0
   10.2281  -15.6019   21.9680 C   0  0  1  0  0  0  0  0  0  0  0  0
    9.2053  -14.6306   22.4858 C   0  0  0  0  0  0  0  0  0  0  0  0
    8.3054  -14.0553   21.4812 C   0  0  0  0  0  0  0  0  0  0  0  0
    8.7102  -12.9135   20.8224 C   0  0  0  0  0  0  0  0  0  0  0  0
    7.9810  -12.3208   19.8481 C   0  0  0  0  0  0  0  0  0  0  0  0
    6.7689  -12.8579   19.4696 C   0  0  0  0  0  0  0  0  0  0  0  0
    6.3532  -14.0127   20.1312 C   0  0  0  0  0  0  0  0  0  0  0  0
    7.1076  -14.5931   21.1132 C   0  0  0  0  0  0  0  0  0  0  0  0
   11.1387  -16.1017   22.9883 C   0  0  0  0  0  0  0  0  0  0  0  0
   12.3993  -15.8000   22.9476 O   0  0  0  0  0  0  0  0  0  0  0  0
   10.7922  -16.9206   24.0884 N   0  0  0  0  0  0  0  0  0  0  0  0
   11.0280  -16.5264   25.4572 C   0  0  1  0  0  0  0  0  0  0  0  0
    9.7173  -15.9297   25.9656 C   0  0  0  0  0  0  0  0  0  0  0  0
    9.8740  -15.3291   27.3021 C   0  0  0  0  0  0  0  0  0  0  0  0
   10.1467  -16.1142   28.4004 C   0  0  0  0  0  0  0  0  0  0  0  0
   10.3068  -15.6210   29.6602 C   0  0  0  0  0  0  0  0  0  0  0  0
   10.1822  -14.2419   29.8108 C   0  0  0  0  0  0  0  0  0  0  0  0
    9.9088  -13.4397   28.7171 C   0  0  0  0  0  0  0  0  0  0  0  0
    9.7509  -13.9670   27.4489 C   0  0  0  0  0  0  0  0  0  0  0  0
   11.4927  -17.6137   26.2902 C   0  0  0  0  0  0  0  0  0  0  0  0
   12.4791  -17.5605   27.2252 O   0  0  0  0  0  0  0  0  0  0  0  0
   10.9147  -18.7491   26.1283 O   0  0  0  0  0  0  0  0  0  0  0  0
  2  1  1  0
  2  4  1  0
  3  2  2  0
  4  5  1  0
  5  6  1  1
  7  9  1  0
  7  5  1  0
  8  7  2  0
 10  9  1  0
 10 11  1  1
 11 12  1  0
 12 13  2  0
 12 17  1  0
 13 14  1  0
 14 15  2  0
 16 15  1  0
 17 16  2  0
 18 10  1  0
 19 18  2  0
 20 18  1  0
 21 29  1  0
 21 20  1  0
 22 23  1  0
 21 22  1  1
 23 24  2  0
 23 28  1  0
 24 25  1  0
 25 26  2  0
 27 26  1  0
 28 27  2  0
 29 30  1  0
 31 29  2  0
M  END
$$$$
