NFF.pdb
     RDKit          3D

 31 32  0  0  1  0  0  0  0  0999 V2000
   13.0178  -18.2101   17.6539 N   0  0  0  0  0  0  0  0  0  0  0  0
   11.6489  -17.7376   17.5906 C   0  0  0  0  0  0  0  0  0  0  0  0
   10.8610  -18.0846   16.6985 O   0  0  0  0  0  0  0  0  0  0  0  0
   11.2017  -16.7993   18.6487 C   0  0  0  0  0  0  0  0  0  0  0  0
   10.6085  -17.6380   19.7824 C   0  0  2  0  0  0  0  0  0  0  0  0
    9.2652  -18.0338   19.3227 N   0  0  0  0  0  0  0  0  0  0  0  0
   10.4445  -16.7573   20.9590 C   0  0  0  0  0  0  0  0  0  0  0  0
   11.4888  -16.1080   21.3566 O   0  0  0  0  0  0  0  0  0  0  0  0
    9.2336  -16.6005   21.6428 N   0  0  0  0  0  0  0  0  0  0  0  0
    9.1136  -15.7587   22.8612 C   0  0  1  0  0  0  0  0  0  0  0  0
    7.6844  -15.3001   22.9295 C   0  0  0  0  0  0  0  0  0  0  0  0
    7.3548  -14.4012   24.0400 C   0  0  0  0  0  0  0  0  0  0  0  0
    6.7603  -14.9418   25.1606 C   0  0  0  0  0  0  0  0  0  0  0  0
    6.4512  -14.2155   26.2603 C   0  0  0  0  0  0  0  0  0  0  0  0
    6.7308  -12.8661   26.2972 C   0  0  0  0  0  0  0  0  0  0  0  0
    7.3324  -12.3124   25.1676 C   0  0  0  0  0  0  0  0  0  0  0  0
    7.6346  -13.0669   24.0678 C   0  0  0  0  0  0  0  0  0  0  0  0
    9.5216  -16.5917   23.9835 C   0  0  0  0  0  0  0  0  0  0  0  0
    9.3315  -17.8742   23.9522 O   0  0  0  0  0  0  0  0  0  0  0  0
   10.1437  -16.1449   25.1727 N   0  0  0  0  0  0  0  0  0  0  0  0
   10.8851  -17.0272   26.0425 C   0  0  1  0  0  0  0  0  0  0  0  0
   11.6560  -16.1311   27.0096 C   0  0  0  0  0  0  0  0  0  0  0  0
   10.7589  -15.4737   27.9763 C   0  0  0  0  0  0  0  0  0  0  0  0
    9.9802  -14.4019   27.5997 C   0  0  0  0  0  0  0  0  0  0  0  0
    9.1287  -13.7539   28.4429 C   0  0  0  0  0  0  0  0  0  0  0  0
    9.0657  -14.2275   29.7513 C   0  0  0  0  0  0  0  0  0  0  0  0
    9.8415  -15.3035   30.1449 C   0  0  0  0  0  0  0  0  0  0  0  0
   10.6978  -15.9430   29.2678 C   0  0  0  0  0  0  0  0  0  0  0  0
   10.0463  -17.9820   26.7331 C   0  0  0  0  0  0  0  0  0  0  0  0
   10.4582  -18.9867   27.5521 O   0  0  0  0  0  0  0  0  0  0  0  0
    8.7797  -17.8705   26.5521 O   0  0  0  0  0  0  0  0  0  0  0  0
  2  1  1  0
  2  4  1  0
  3  2  2  0
  4  5  1  0
  5  6  1  6
  7  9  1  0
  7  5  1  0
  8  7  2  0
 10  9  1  0
 10 11  1  1
 11 12  1  0
 12 13  2  0
 12 17  1  0
 13 14  1  0
 14 15  2  0
 16 15  1  0
 17 16  2  0
 18 10  1  0
 19 18  2  0
 20 18  1  0
 21 29  1  0
 21 20  1  0
 22 23  1  0
 21 22  1  1
 23 24  2  0
 23 28  1  0
 24 25  1  0
 25 26  2  0
 27 26  1  0
 28 27  2  0
 29 30  1  0
 31 29  2  0
M  END
$$$$
