NFF.pdb
     RDKit          3D

 31 32  0  0  1  0  0  0  0  0999 V2000
    8.8795  -20.2834   19.1509 N   0  0  0  0  0  0  0  0  0  0  0  0
    9.0265  -19.0704   18.3712 C   0  0  0  0  0  0  0  0  0  0  0  0
    8.9490  -19.0556   17.1340 O   0  0  0  0  0  0  0  0  0  0  0  0
    9.2819  -17.8107   19.1114 C   0  0  0  0  0  0  0  0  0  0  0  0
    9.4623  -18.1756   20.5862 C   0  0  2  0  0  0  0  0  0  0  0  0
    8.1329  -18.6077   21.0538 N   0  0  0  0  0  0  0  0  0  0  0  0
    9.8217  -16.9414   21.3172 C   0  0  0  0  0  0  0  0  0  0  0  0
   10.9698  -16.4126   21.0480 O   0  0  0  0  0  0  0  0  0  0  0  0
    8.9892  -16.3358   22.2652 N   0  0  0  0  0  0  0  0  0  0  0  0
    9.3304  -15.0410   22.9091 C   0  0  1  0  0  0  0  0  0  0  0  0
    8.1281  -14.1530   22.7557 C   0  0  0  0  0  0  0  0  0  0  0  0
    7.6859  -13.9097   21.3790 C   0  0  0  0  0  0  0  0  0  0  0  0
    8.2646  -12.8688   20.6838 C   0  0  0  0  0  0  0  0  0  0  0  0
    7.9649  -12.5791   19.3959 C   0  0  0  0  0  0  0  0  0  0  0  0
    7.0403  -13.3414   18.7142 C   0  0  0  0  0  0  0  0  0  0  0  0
    6.4512  -14.3959   19.4106 C   0  0  0  0  0  0  0  0  0  0  0  0
    6.7701  -14.6687   20.7123 C   0  0  0  0  0  0  0  0  0  0  0  0
    9.6705  -15.3419   24.2925 C   0  0  0  0  0  0  0  0  0  0  0  0
   10.7158  -14.8067   24.8427 O   0  0  0  0  0  0  0  0  0  0  0  0
    8.9515  -16.1939   25.1631 N   0  0  0  0  0  0  0  0  0  0  0  0
    9.3590  -16.4371   26.5268 C   0  0  1  0  0  0  0  0  0  0  0  0
    8.2065  -15.9661   27.4113 C   0  0  0  0  0  0  0  0  0  0  0  0
    7.9386  -14.5275   27.2373 C   0  0  0  0  0  0  0  0  0  0  0  0
    6.7434  -14.0917   26.7096 C   0  0  0  0  0  0  0  0  0  0  0  0
    6.4329  -12.7778   26.5270 C   0  0  0  0  0  0  0  0  0  0  0  0
    7.3997  -11.8497   26.9064 C   0  0  0  0  0  0  0  0  0  0  0  0
    8.6053  -12.2718   27.4384 C   0  0  0  0  0  0  0  0  0  0  0  0
    8.8944  -13.6124   27.6128 C   0  0  0  0  0  0  0  0  0  0  0  0
    9.7115  -17.8173   26.7776 C   0  0  0  0  0  0  0  0  0  0  0  0
    9.7017  -18.8376   25.8783 O   0  0  0  0  0  0  0  0  0  0  0  0
   10.0689  -18.1104   27.9758 O   0  0  0  0  0  0  0  0  0  0  0  0
  2  1  1  0
  2  4  1  0
  3  2  2  0
  4  5  1  0
  5  6  1  1
  7  9  1  0
  7  5  1  0
  8  7  2  0
 10  9  1  0
 10 11  1  1
 11 12  1  0
 12 13  2  0
 12 17  1  0
 13 14  1  0
 14 15  2  0
 16 15  1  0
 17 16  2  0
 18 10  1  0
 19 18  2  0
 20 18  1  0
 21 29  1  0
 21 20  1  0
 22 23  1  0
 21 22  1  1
 23 24  2  0
 23 28  1  0
 24 25  1  0
 25 26  2  0
 27 26  1  0
 28 27  2  0
 29 30  1  0
 31 29  2  0
M  END
$$$$
