RYY.pdb
     RDKit          3D

 36 37  0  0  1  0  0  0  0  0999 V2000
   28.1104  -22.3570  -16.0324 N   0  0  0  0  0  0  0  0  0  0  0  0
   28.4560  -21.6620  -17.2159 C   0  0  0  0  0  0  0  0  0  0  0  0
   29.2372  -22.1917  -18.1101 N   0  0  0  0  0  0  0  0  0  0  0  0
   27.9517  -20.3619  -17.4499 N   0  0  0  0  0  0  0  0  0  0  0  0
   27.0188  -19.7550  -16.4877 C   0  0  0  0  0  0  0  0  0  0  0  0
   25.7138  -20.4579  -16.6235 C   0  0  0  0  0  0  0  0  0  0  0  0
   24.6627  -19.9103  -15.7236 C   0  0  0  0  0  0  0  0  0  0  0  0
   24.5951  -20.6216  -14.4167 C   0  0  2  0  0  0  0  0  0  0  0  0
   25.1097  -22.0025  -14.4860 N   0  0  0  0  0  0  0  0  0  0  0  0
   23.1703  -20.7900  -13.9658 C   0  0  0  0  0  0  0  0  0  0  0  0
   22.3978  -21.6279  -14.4663 O   0  0  0  0  0  0  0  0  0  0  0  0
   29.4996  -21.7467  -18.9980 O   0  0  0  0  0  0  0  0  0  0  0  0
   20.2460  -23.2045   -6.8721 C   0  0  0  0  0  0  0  0  0  0  0  0
   20.5415  -22.2922   -7.8850 C   0  0  0  0  0  0  0  0  0  0  0  0
   21.7456  -21.6424   -7.9503 C   0  0  0  0  0  0  0  0  0  0  0  0
   22.0207  -20.7357   -8.9691 C   0  0  0  0  0  0  0  0  0  0  0  0
   21.0774  -20.4738   -9.9384 C   0  0  0  0  0  0  0  0  0  0  0  0
   21.3655  -19.5152  -11.0063 C   0  0  2  0  0  0  0  0  0  0  0  0
   21.3680  -20.1006  -12.3968 N   0  0  0  0  0  0  0  0  0  0  0  0
   22.7175  -19.9440  -12.9237 C   0  0  0  0  0  0  0  0  0  0  0  0
   20.4496  -19.3502  -13.2750 O   0  0  0  0  0  0  0  0  0  0  0  0
   20.7121  -18.1812  -13.6878 C   0  0  0  0  0  0  0  0  0  0  0  0
   19.8726  -21.1377   -9.8553 C   0  0  0  0  0  0  0  0  0  0  0  0
   19.5969  -22.0427   -8.8392 O   0  0  0  0  0  0  0  0  0  0  0  0
   17.3253  -24.8827  -17.2514 C   0  0  0  0  0  0  0  0  0  0  0  0
   17.6589  -23.5674  -16.9412 C   0  0  0  0  0  0  0  0  0  0  0  0
   16.7224  -22.5764  -17.0233 C   0  0  0  0  0  0  0  0  0  0  0  0
   17.0074  -21.2692  -16.7275 C   0  0  0  0  0  0  0  0  0  0  0  0
   18.2964  -20.9159  -16.3253 C   0  0  0  0  0  0  0  0  0  0  0  0
   18.6089  -19.5238  -16.0171 C   0  0  1  0  0  0  0  0  0  0  0  0
   18.3062  -19.1602  -14.6045 N   0  0  0  0  0  0  0  0  0  0  0  0
   19.2160  -19.8980  -13.7086 C   0  0  0  0  0  0  0  0  0  0  0  0
   16.9110  -19.3255  -14.1877 O   0  0  0  0  0  0  0  0  0  0  0  0
   16.5976  -20.1143  -13.2338 C   0  0  0  0  0  0  0  0  0  0  0  0
   19.2594  -21.8996  -16.2351 C   0  0  0  0  0  0  0  0  0  0  0  0
   18.9288  -23.2009  -16.5420 O   0  0  0  0  0  0  0  0  0  0  0  0
  2  1  1  0
  2  3  2  0
  4  5  1  0
  4  2  1  0
  5  6  1  0
  6  7  1  0
  7  8  1  0
  8 10  1  0
  8  9  1  6
 10 19  1  0
 11 10  2  0
 13 12  1  0
 13 14  2  0
 15 14  1  0
 16 15  2  0
 17 16  1  0
 18 17  1  1
 18 20  1  0
 19 18  1  0
 20 21  2  0
 20 31  1  0
 22 23  2  0
 22 16  1  0
 23 13  1  0
 25 24  1  0
 25 35  2  0
 26 25  1  0
 27 26  2  0
 27 28  1  0
 28 34  2  0
 29 28  1  0
 30 29  1  6
 30 32  1  0
 31 30  1  0
 32 36  1  0
 33 32  2  0
 34 35  1  0
M  END
$$$$
