RYY.pdb
     RDKit          3D

 36 37  0  0  1  0  0  0  0  0999 V2000
   32.3658  -25.2745  -18.1087 N   0  0  0  0  0  0  0  0  0  0  0  0
   31.2101  -25.6034  -17.3608 C   0  0  0  0  0  0  0  0  0  0  0  0
   31.2374  -26.5179  -16.4370 N   0  0  0  0  0  0  0  0  0  0  0  0
   29.9889  -24.9348  -17.6084 N   0  0  0  0  0  0  0  0  0  0  0  0
   29.9227  -23.8922  -18.6442 C   0  0  0  0  0  0  0  0  0  0  0  0
   30.3466  -22.6100  -18.0180 C   0  0  0  0  0  0  0  0  0  0  0  0
   29.2736  -21.5789  -18.0223 C   0  0  0  0  0  0  0  0  0  0  0  0
   28.3396  -21.7142  -16.8699 C   0  0  2  0  0  0  0  0  0  0  0  0
   27.6211  -23.0026  -16.8600 N   0  0  0  0  0  0  0  0  0  0  0  0
   27.2414  -20.6893  -16.9407 C   0  0  0  0  0  0  0  0  0  0  0  0
   27.4373  -19.5127  -17.2968 O   0  0  0  0  0  0  0  0  0  0  0  0
   30.4234  -26.8248  -15.8907 O   0  0  0  0  0  0  0  0  0  0  0  0
   20.2404  -16.3986  -19.1044 C   0  0  0  0  0  0  0  0  0  0  0  0
   21.3097  -17.2578  -18.8518 C   0  0  0  0  0  0  0  0  0  0  0  0
   21.1231  -18.5440  -18.4192 C   0  0  0  0  0  0  0  0  0  0  0  0
   22.2034  -19.3852  -18.1728 C   0  0  0  0  0  0  0  0  0  0  0  0
   23.4914  -18.9340  -18.3616 C   0  0  0  0  0  0  0  0  0  0  0  0
   24.6275  -19.8179  -18.0963 C   0  0  1  0  0  0  0  0  0  0  0  0
   24.8272  -20.1710  -16.6431 N   0  0  0  0  0  0  0  0  0  0  0  0
   25.9381  -21.1120  -16.5811 C   0  0  0  0  0  0  0  0  0  0  0  0
   23.6306  -20.8477  -16.1066 O   0  0  0  0  0  0  0  0  0  0  0  0
   23.3680  -22.0609  -16.3614 C   0  0  0  0  0  0  0  0  0  0  0  0
   23.6582  -17.6373  -18.7973 C   0  0  0  0  0  0  0  0  0  0  0  0
   22.5809  -16.7969  -19.0435 O   0  0  0  0  0  0  0  0  0  0  0  0
   24.0666  -21.0695   -7.6540 C   0  0  0  0  0  0  0  0  0  0  0  0
   24.0724  -20.8730   -9.0320 C   0  0  0  0  0  0  0  0  0  0  0  0
   22.9387  -21.0758   -9.7664 C   0  0  0  0  0  0  0  0  0  0  0  0
   22.8998  -20.8943  -11.1240 C   0  0  0  0  0  0  0  0  0  0  0  0
   24.0505  -20.4872  -11.8009 C   0  0  0  0  0  0  0  0  0  0  0  0
   24.0181  -20.3005  -13.2482 C   0  0  1  0  0  0  0  0  0  0  0  0
   22.6461  -20.4141  -13.8174 N   0  0  0  0  0  0  0  0  0  0  0  0
   22.7033  -20.1751  -15.2715 C   0  0  0  0  0  0  0  0  0  0  0  0
   21.6223  -19.5758  -13.1875 O   0  0  0  0  0  0  0  0  0  0  0  0
   21.5929  -18.3141  -13.3821 C   0  0  0  0  0  0  0  0  0  0  0  0
   25.2079  -20.2762  -11.0805 C   0  0  0  0  0  0  0  0  0  0  0  0
   25.2017  -20.4707   -9.7170 O   0  0  0  0  0  0  0  0  0  0  0  0
  2  1  1  0
  2  3  2  0
  4  5  1  0
  4  2  1  0
  5  6  1  0
  6  7  1  0
  7  8  1  0
  8 10  1  0
  8  9  1  6
 10 19  1  0
 11 10  2  0
 13 12  1  0
 13 14  2  0
 15 14  1  0
 16 15  2  0
 17 16  1  0
 18 17  1  1
 18 20  1  0
 19 18  1  0
 20 21  2  0
 20 31  1  0
 22 23  2  0
 22 16  1  0
 23 13  1  0
 25 24  1  0
 25 35  2  0
 26 25  1  0
 27 26  2  0
 27 28  1  0
 28 34  2  0
 29 28  1  0
 30 29  1  6
 30 32  1  0
 31 30  1  0
 32 36  1  0
 33 32  2  0
 34 35  1  0
M  END
$$$$
