RYY.pdb
     RDKit          3D

 36 37  0  0  1  0  0  0  0  0999 V2000
   19.7414  -15.1390  -16.4884 N   0  0  0  0  0  0  0  0  0  0  0  0
   19.5638  -13.9739  -17.2721 C   0  0  0  0  0  0  0  0  0  0  0  0
   20.3094  -13.7343  -18.3099 N   0  0  0  0  0  0  0  0  0  0  0  0
   18.5596  -13.0369  -16.9356 N   0  0  0  0  0  0  0  0  0  0  0  0
   17.7646  -13.2245  -15.7120 C   0  0  0  0  0  0  0  0  0  0  0  0
   16.7293  -12.1555  -15.6813 C   0  0  0  0  0  0  0  0  0  0  0  0
   15.8499  -12.2328  -14.4833 C   0  0  0  0  0  0  0  0  0  0  0  0
   14.6664  -11.3335  -14.5780 C   0  0  2  0  0  0  0  0  0  0  0  0
   14.0779  -11.2977  -15.9304 N   0  0  0  0  0  0  0  0  0  0  0  0
   15.0510   -9.9039  -14.3142 C   0  0  0  0  0  0  0  0  0  0  0  0
   15.5020   -9.1515  -15.1974 O   0  0  0  0  0  0  0  0  0  0  0  0
   20.2353  -12.9010  -18.9061 O   0  0  0  0  0  0  0  0  0  0  0  0
   10.8107  -10.1794   -8.4723 C   0  0  0  0  0  0  0  0  0  0  0  0
   11.5761   -9.4790   -9.4045 C   0  0  0  0  0  0  0  0  0  0  0  0
   12.5599   -8.6036   -9.0277 C   0  0  0  0  0  0  0  0  0  0  0  0
   13.3122   -7.9145   -9.9737 C   0  0  0  0  0  0  0  0  0  0  0  0
   13.0779   -8.1031  -11.3181 C   0  0  0  0  0  0  0  0  0  0  0  0
   13.8659   -7.3731  -12.3124 C   0  0  1  0  0  0  0  0  0  0  0  0
   15.1729   -8.0272  -12.6866 N   0  0  0  0  0  0  0  0  0  0  0  0
   14.8803   -9.4214  -12.9933 C   0  0  0  0  0  0  0  0  0  0  0  0
   16.1087   -8.0016  -11.5460 O   0  0  0  0  0  0  0  0  0  0  0  0
   16.3774   -9.0378  -10.8678 C   0  0  0  0  0  0  0  0  0  0  0  0
   12.0842   -8.9881  -11.6768 C   0  0  0  0  0  0  0  0  0  0  0  0
   11.3328   -9.6763  -10.7338 O   0  0  0  0  0  0  0  0  0  0  0  0
   22.1896   -5.6414  -14.4119 C   0  0  0  0  0  0  0  0  0  0  0  0
   21.3612   -6.1536  -13.4175 C   0  0  0  0  0  0  0  0  0  0  0  0
   21.4169   -5.6593  -12.1454 C   0  0  0  0  0  0  0  0  0  0  0  0
   20.6202   -6.1339  -11.1367 C   0  0  0  0  0  0  0  0  0  0  0  0
   19.7111   -7.1602  -11.3976 C   0  0  0  0  0  0  0  0  0  0  0  0
   18.8656   -7.6763  -10.3254 C   0  0  1  0  0  0  0  0  0  0  0  0
   17.7131   -6.7848  -10.0152 N   0  0  0  0  0  0  0  0  0  0  0  0
   16.7633   -6.8105  -11.1431 C   0  0  0  0  0  0  0  0  0  0  0  0
   18.0525   -5.4078   -9.6460 O   0  0  0  0  0  0  0  0  0  0  0  0
   18.6687   -5.1506   -8.5575 C   0  0  0  0  0  0  0  0  0  0  0  0
   19.6368   -7.6758  -12.6750 C   0  0  0  0  0  0  0  0  0  0  0  0
   20.4567   -7.1686  -13.6586 O   0  0  0  0  0  0  0  0  0  0  0  0
  2  1  1  0
  2  3  2  0
  4  5  1  0
  4  2  1  0
  5  6  1  0
  6  7  1  0
  7  8  1  0
  8 10  1  0
  8  9  1  6
 10 19  1  0
 11 10  2  0
 13 12  1  0
 13 14  2  0
 15 14  1  0
 16 15  2  0
 17 16  1  0
 18 17  1  6
 18 20  1  0
 19 18  1  0
 20 21  2  0
 20 31  1  0
 22 23  2  0
 22 16  1  0
 23 13  1  0
 25 24  1  0
 25 35  2  0
 26 25  1  0
 27 26  2  0
 27 28  1  0
 28 34  2  0
 29 28  1  0
 30 29  1  1
 30 32  1  0
 31 30  1  0
 32 36  1  0
 33 32  2  0
 34 35  1  0
M  END
$$$$
