RYY.pdb
     RDKit          3D

 36 37  0  0  1  0  0  0  0  0999 V2000
   32.2659  -22.7030  -21.1612 N   0  0  0  0  0  0  0  0  0  0  0  0
   31.7391  -21.4497  -20.7675 C   0  0  0  0  0  0  0  0  0  0  0  0
   32.4003  -20.3463  -20.9566 N   0  0  0  0  0  0  0  0  0  0  0  0
   30.4678  -21.3742  -20.1530 N   0  0  0  0  0  0  0  0  0  0  0  0
   29.5950  -22.5583  -20.1298 C   0  0  0  0  0  0  0  0  0  0  0  0
   28.1950  -22.0806  -19.9645 C   0  0  0  0  0  0  0  0  0  0  0  0
   27.5236  -22.6532  -18.7662 C   0  0  0  0  0  0  0  0  0  0  0  0
   28.2550  -22.3625  -17.5017 C   0  0  2  0  0  0  0  0  0  0  0  0
   29.3790  -23.2875  -17.2616 N   0  0  0  0  0  0  0  0  0  0  0  0
   27.3653  -22.5579  -16.3052 C   0  0  0  0  0  0  0  0  0  0  0  0
   26.8171  -23.6437  -16.0410 O   0  0  0  0  0  0  0  0  0  0  0  0
   32.0412  -19.4051  -20.7557 O   0  0  0  0  0  0  0  0  0  0  0  0
   24.1190  -20.5429   -8.3139 C   0  0  0  0  0  0  0  0  0  0  0  0
   24.7895  -20.5467   -9.5369 C   0  0  0  0  0  0  0  0  0  0  0  0
   25.9504  -21.2482   -9.7280 C   0  0  0  0  0  0  0  0  0  0  0  0
   26.6040  -21.2388  -10.9561 C   0  0  0  0  0  0  0  0  0  0  0  0
   26.0896  -20.5166  -12.0105 C   0  0  0  0  0  0  0  0  0  0  0  0
   26.7813  -20.5025  -13.3004 C   0  0  2  0  0  0  0  0  0  0  0  0
   26.3353  -21.5705  -14.2681 N   0  0  0  0  0  0  0  0  0  0  0  0
   27.1624  -21.4389  -15.4605 C   0  0  0  0  0  0  0  0  0  0  0  0
   24.9308  -21.3537  -14.6656 O   0  0  0  0  0  0  0  0  0  0  0  0
   24.5780  -20.3853  -15.4028 C   0  0  0  0  0  0  0  0  0  0  0  0
   24.9209  -19.8178  -11.7983 C   0  0  0  0  0  0  0  0  0  0  0  0
   24.2677  -19.8264  -10.5732 O   0  0  0  0  0  0  0  0  0  0  0  0
   16.1901  -22.3752  -15.4715 C   0  0  0  0  0  0  0  0  0  0  0  0
   17.5492  -22.5781  -15.2492 C   0  0  0  0  0  0  0  0  0  0  0  0
   18.0390  -22.6620  -13.9769 C   0  0  0  0  0  0  0  0  0  0  0  0
   19.3687  -22.8609  -13.7127 C   0  0  0  0  0  0  0  0  0  0  0  0
   20.2730  -22.9850  -14.7686 C   0  0  0  0  0  0  0  0  0  0  0  0
   21.6922  -23.1882  -14.4939 C   0  0  2  0  0  0  0  0  0  0  0  0
   22.4711  -21.9184  -14.4953 N   0  0  0  0  0  0  0  0  0  0  0  0
   23.8922  -22.2212  -14.2431 C   0  0  0  0  0  0  0  0  0  0  0  0
   21.9885  -20.8725  -13.5892 O   0  0  0  0  0  0  0  0  0  0  0  0
   22.2238  -20.9272  -12.3354 C   0  0  0  0  0  0  0  0  0  0  0  0
   19.8018  -22.9034  -16.0626 C   0  0  0  0  0  0  0  0  0  0  0  0
   18.4570  -22.7028  -16.2820 O   0  0  0  0  0  0  0  0  0  0  0  0
  2  1  1  0
  2  3  2  0
  4  5  1  0
  4  2  1  0
  5  6  1  0
  6  7  1  0
  7  8  1  0
  8 10  1  0
  8  9  1  1
 10 19  1  0
 11 10  2  0
 13 12  1  0
 13 14  2  0
 15 14  1  0
 16 15  2  0
 17 16  1  0
 18 17  1  1
 18 20  1  0
 19 18  1  0
 20 21  2  0
 20 31  1  0
 22 23  2  0
 22 16  1  0
 23 13  1  0
 25 24  1  0
 25 35  2  0
 26 25  1  0
 27 26  2  0
 27 28  1  0
 28 34  2  0
 29 28  1  0
 30 29  1  6
 30 32  1  0
 31 30  1  0
 32 36  1  0
 33 32  2  0
 34 35  1  0
M  END
$$$$
