RYY.pdb
     RDKit          3D

 36 37  0  0  1  0  0  0  0  0999 V2000
   29.6505  -20.8253  -17.9142 N   0  0  0  0  0  0  0  0  0  0  0  0
   29.4972  -19.4782  -18.3204 C   0  0  0  0  0  0  0  0  0  0  0  0
   29.8138  -19.0914  -19.5206 N   0  0  0  0  0  0  0  0  0  0  0  0
   28.9908  -18.5162  -17.4162 N   0  0  0  0  0  0  0  0  0  0  0  0
   28.4477  -18.9466  -16.1184 C   0  0  0  0  0  0  0  0  0  0  0  0
   27.0639  -19.4422  -16.3532 C   0  0  0  0  0  0  0  0  0  0  0  0
   26.3910  -19.8982  -15.1067 C   0  0  0  0  0  0  0  0  0  0  0  0
   26.9361  -21.1867  -14.5956 C   0  0  2  0  0  0  0  0  0  0  0  0
   26.5201  -22.3484  -15.4042 N   0  0  0  0  0  0  0  0  0  0  0  0
   26.4031  -21.4929  -13.2232 C   0  0  0  0  0  0  0  0  0  0  0  0
   25.3828  -22.1800  -13.0325 O   0  0  0  0  0  0  0  0  0  0  0  0
   29.8002  -18.1172  -19.8461 O   0  0  0  0  0  0  0  0  0  0  0  0
   26.0040  -19.9880   -4.4607 C   0  0  0  0  0  0  0  0  0  0  0  0
   26.4000  -20.1816   -5.7840 C   0  0  0  0  0  0  0  0  0  0  0  0
   25.8165  -21.1250   -6.5875 C   0  0  0  0  0  0  0  0  0  0  0  0
   26.2264  -21.3024   -7.9051 C   0  0  0  0  0  0  0  0  0  0  0  0
   27.2358  -20.5246   -8.4286 C   0  0  0  0  0  0  0  0  0  0  0  0
   27.6704  -20.7161   -9.8131 C   0  0  1  0  0  0  0  0  0  0  0  0
   26.5698  -21.0910  -10.7745 N   0  0  0  0  0  0  0  0  0  0  0  0
   27.1156  -20.9630  -12.1195 C   0  0  0  0  0  0  0  0  0  0  0  0
   25.4372  -20.1527  -10.6546 O   0  0  0  0  0  0  0  0  0  0  0  0
   25.5465  -18.9211  -10.9324 C   0  0  0  0  0  0  0  0  0  0  0  0
   27.8099  -19.5810   -7.6044 C   0  0  0  0  0  0  0  0  0  0  0  0
   27.4018  -19.4030   -6.2894 O   0  0  0  0  0  0  0  0  0  0  0  0
   18.2745  -18.0779  -14.6848 C   0  0  0  0  0  0  0  0  0  0  0  0
   19.4412  -18.5543  -14.0938 C   0  0  0  0  0  0  0  0  0  0  0  0
   19.4808  -19.8050  -13.5462 C   0  0  0  0  0  0  0  0  0  0  0  0
   20.6074  -20.3134  -12.9548 C   0  0  0  0  0  0  0  0  0  0  0  0
   21.7685  -19.5409  -12.8994 C   0  0  0  0  0  0  0  0  0  0  0  0
   22.9695  -20.0732  -12.2631 C   0  0  1  0  0  0  0  0  0  0  0  0
   22.9148  -20.0097  -10.7758 N   0  0  0  0  0  0  0  0  0  0  0  0
   24.1567  -20.5787  -10.2203 C   0  0  0  0  0  0  0  0  0  0  0  0
   21.7350  -20.6172  -10.1538 O   0  0  0  0  0  0  0  0  0  0  0  0
   21.6312  -21.8845  -10.0368 C   0  0  0  0  0  0  0  0  0  0  0  0
   21.7528  -18.2742  -13.4457 C   0  0  0  0  0  0  0  0  0  0  0  0
   20.5982  -17.8033  -14.0305 O   0  0  0  0  0  0  0  0  0  0  0  0
  2  1  1  0
  2  3  2  0
  4  5  1  0
  4  2  1  0
  5  6  1  0
  6  7  1  0
  7  8  1  0
  8 10  1  0
  8  9  1  6
 10 19  1  0
 11 10  2  0
 13 12  1  0
 13 14  2  0
 15 14  1  0
 16 15  2  0
 17 16  1  0
 18 17  1  1
 18 20  1  0
 19 18  1  0
 20 21  2  0
 20 31  1  0
 22 23  2  0
 22 16  1  0
 23 13  1  0
 25 24  1  0
 25 35  2  0
 26 25  1  0
 27 26  2  0
 27 28  1  0
 28 34  2  0
 29 28  1  0
 30 29  1  6
 30 32  1  0
 31 30  1  0
 32 36  1  0
 33 32  2  0
 34 35  1  0
M  END
$$$$
