RYY.pdb
     RDKit          3D

 36 37  0  0  1  0  0  0  0  0999 V2000
   30.3367  -24.8364  -16.2676 N   0  0  0  0  0  0  0  0  0  0  0  0
   31.5033  -24.4084  -16.9451 C   0  0  0  0  0  0  0  0  0  0  0  0
   32.5759  -25.1423  -16.9789 N   0  0  0  0  0  0  0  0  0  0  0  0
   31.5236  -23.1583  -17.6057 N   0  0  0  0  0  0  0  0  0  0  0  0
   30.2933  -22.3560  -17.6911 C   0  0  0  0  0  0  0  0  0  0  0  0
   29.4267  -22.9730  -18.7323 C   0  0  0  0  0  0  0  0  0  0  0  0
   28.0280  -22.4661  -18.6989 C   0  0  0  0  0  0  0  0  0  0  0  0
   27.8592  -21.3001  -17.7875 C   0  0  2  0  0  0  0  0  0  0  0  0
   29.1317  -20.8410  -17.1990 N   0  0  0  0  0  0  0  0  0  0  0  0
   27.0202  -21.6640  -16.5937 C   0  0  0  0  0  0  0  0  0  0  0  0
   26.2909  -22.6723  -16.5624 O   0  0  0  0  0  0  0  0  0  0  0  0
   33.4567  -24.8740  -17.4345 O   0  0  0  0  0  0  0  0  0  0  0  0
   24.1235  -20.8761   -8.2346 C   0  0  0  0  0  0  0  0  0  0  0  0
   24.8261  -20.7794   -9.4356 C   0  0  0  0  0  0  0  0  0  0  0  0
   25.8819  -21.6012   -9.7290 C   0  0  0  0  0  0  0  0  0  0  0  0
   26.5699  -21.4884  -10.9330 C   0  0  0  0  0  0  0  0  0  0  0  0
   26.1970  -20.5390  -11.8590 C   0  0  0  0  0  0  0  0  0  0  0  0
   26.9253  -20.4171  -13.1228 C   0  0  1  0  0  0  0  0  0  0  0  0
   26.2499  -21.0651  -14.3060 N   0  0  0  0  0  0  0  0  0  0  0  0
   27.0848  -20.8025  -15.4710 C   0  0  0  0  0  0  0  0  0  0  0  0
   24.9299  -20.4510  -14.5478 O   0  0  0  0  0  0  0  0  0  0  0  0
   24.8001  -19.2355  -14.8816 C   0  0  0  0  0  0  0  0  0  0  0  0
   25.1323  -19.7220  -11.5453 C   0  0  0  0  0  0  0  0  0  0  0  0
   24.4450  -19.8337  -10.3442 O   0  0  0  0  0  0  0  0  0  0  0  0
   16.7938  -18.2683  -16.5054 C   0  0  0  0  0  0  0  0  0  0  0  0
   18.0393  -18.8687  -16.3447 C   0  0  0  0  0  0  0  0  0  0  0  0
   19.1850  -18.1402  -16.4937 C   0  0  0  0  0  0  0  0  0  0  0  0
   20.4309  -18.6907  -16.3446 C   0  0  0  0  0  0  0  0  0  0  0  0
   20.5560  -20.0444  -16.0288 C   0  0  0  0  0  0  0  0  0  0  0  0
   21.8805  -20.6390  -15.8772 C   0  0  1  0  0  0  0  0  0  0  0  0
   22.4030  -20.5445  -14.4854 N   0  0  0  0  0  0  0  0  0  0  0  0
   23.7272  -21.1904  -14.4199 C   0  0  0  0  0  0  0  0  0  0  0  0
   21.5176  -21.0547  -13.4350 O   0  0  0  0  0  0  0  0  0  0  0  0
   21.5762  -22.2735  -13.0587 C   0  0  0  0  0  0  0  0  0  0  0  0
   19.4129  -20.8009  -15.8735 C   0  0  0  0  0  0  0  0  0  0  0  0
   18.1808  -20.2062  -16.0325 O   0  0  0  0  0  0  0  0  0  0  0  0
  2  1  1  0
  2  3  2  0
  4  5  1  0
  4  2  1  0
  5  6  1  0
  6  7  1  0
  7  8  1  0
  8 10  1  0
  8  9  1  1
 10 19  1  0
 11 10  2  0
 13 12  1  0
 13 14  2  0
 15 14  1  0
 16 15  2  0
 17 16  1  0
 18 17  1  1
 18 20  1  0
 19 18  1  0
 20 21  2  0
 20 31  1  0
 22 23  2  0
 22 16  1  0
 23 13  1  0
 25 24  1  0
 25 35  2  0
 26 25  1  0
 27 26  2  0
 27 28  1  0
 28 34  2  0
 29 28  1  0
 30 29  1  6
 30 32  1  0
 31 30  1  0
 32 36  1  0
 33 32  2  0
 34 35  1  0
M  END
$$$$
