RYY.pdb
     RDKit          3D

 36 37  0  0  1  0  0  0  0  0999 V2000
   34.0144  -32.9607  -16.2233 N   0  0  0  0  0  0  0  0  0  0  0  0
   34.4878  -32.0472  -17.1953 C   0  0  0  0  0  0  0  0  0  0  0  0
   35.7302  -31.6648  -17.2186 N   0  0  0  0  0  0  0  0  0  0  0  0
   33.6062  -31.5268  -18.1708 N   0  0  0  0  0  0  0  0  0  0  0  0
   32.1803  -31.8872  -18.1349 C   0  0  0  0  0  0  0  0  0  0  0  0
   31.5378  -31.2968  -19.3408 C   0  0  0  0  0  0  0  0  0  0  0  0
   30.0989  -31.6550  -19.4663 C   0  0  0  0  0  0  0  0  0  0  0  0
   29.3483  -31.4810  -18.1916 C   0  0  2  0  0  0  0  0  0  0  0  0
   29.3798  -32.6831  -17.3369 N   0  0  0  0  0  0  0  0  0  0  0  0
   27.8835  -31.2621  -18.4521 C   0  0  0  0  0  0  0  0  0  0  0  0
   27.2490  -31.8948  -19.3162 O   0  0  0  0  0  0  0  0  0  0  0  0
   36.1106  -30.9432  -17.8430 O   0  0  0  0  0  0  0  0  0  0  0  0
   19.5332  -29.5719  -16.4556 C   0  0  0  0  0  0  0  0  0  0  0  0
   20.9069  -29.8105  -16.4960 C   0  0  0  0  0  0  0  0  0  0  0  0
   21.4360  -30.9127  -17.1137 C   0  0  0  0  0  0  0  0  0  0  0  0
   22.8094  -31.1325  -17.1427 C   0  0  0  0  0  0  0  0  0  0  0  0
   23.6684  -30.2366  -16.5448 C   0  0  0  0  0  0  0  0  0  0  0  0
   25.1129  -30.4719  -16.5707 C   0  0  1  0  0  0  0  0  0  0  0  0
   25.7991  -30.0484  -17.8458 N   0  0  0  0  0  0  0  0  0  0  0  0
   27.2249  -30.2872  -17.6631 C   0  0  0  0  0  0  0  0  0  0  0  0
   25.6086  -28.6039  -18.0800 O   0  0  0  0  0  0  0  0  0  0  0  0
   26.0724  -27.7242  -17.2945 C   0  0  0  0  0  0  0  0  0  0  0  0
   23.1167  -29.1341  -15.9289 C   0  0  0  0  0  0  0  0  0  0  0  0
   21.7463  -28.9136  -15.8992 O   0  0  0  0  0  0  0  0  0  0  0  0
   20.0725  -28.6309  -23.3558 C   0  0  0  0  0  0  0  0  0  0  0  0
   21.1943  -28.0714  -22.7506 C   0  0  0  0  0  0  0  0  0  0  0  0
   22.3892  -28.7330  -22.7583 C   0  0  0  0  0  0  0  0  0  0  0  0
   23.5177  -28.2194  -22.1751 C   0  0  0  0  0  0  0  0  0  0  0  0
   23.4658  -26.9754  -21.5444 C   0  0  0  0  0  0  0  0  0  0  0  0
   24.6622  -26.4265  -20.9135 C   0  0  1  0  0  0  0  0  0  0  0  0
   24.7094  -26.6739  -19.4453 N   0  0  0  0  0  0  0  0  0  0  0  0
   24.8929  -28.1169  -19.2026 C   0  0  0  0  0  0  0  0  0  0  0  0
   23.5785  -26.1514  -18.6732 O   0  0  0  0  0  0  0  0  0  0  0  0
   23.3980  -24.8946  -18.5380 C   0  0  0  0  0  0  0  0  0  0  0  0
   22.2697  -26.2883  -21.5236 C   0  0  0  0  0  0  0  0  0  0  0  0
   21.1601  -26.8423  -22.1226 O   0  0  0  0  0  0  0  0  0  0  0  0
  2  1  1  0
  2  3  2  0
  4  5  1  0
  4  2  1  0
  5  6  1  0
  6  7  1  0
  7  8  1  0
  8 10  1  0
  8  9  1  1
 10 19  1  0
 11 10  2  0
 13 12  1  0
 13 14  2  0
 15 14  1  0
 16 15  2  0
 17 16  1  0
 18 17  1  6
 18 20  1  0
 19 18  1  0
 20 21  2  0
 20 31  1  0
 22 23  2  0
 22 16  1  0
 23 13  1  0
 25 24  1  0
 25 35  2  0
 26 25  1  0
 27 26  2  0
 27 28  1  0
 28 34  2  0
 29 28  1  0
 30 29  1  6
 30 32  1  0
 31 30  1  0
 32 36  1  0
 33 32  2  0
 34 35  1  0
M  END
$$$$
