RYY.pdb
     RDKit          3D

 36 37  0  0  1  0  0  0  0  0999 V2000
   25.6739  -21.4108  -18.5511 N   0  0  0  0  0  0  0  0  0  0  0  0
   25.9324  -20.0624  -18.2074 C   0  0  0  0  0  0  0  0  0  0  0  0
   25.5890  -19.0844  -18.9922 N   0  0  0  0  0  0  0  0  0  0  0  0
   26.5778  -19.7506  -16.9884 N   0  0  0  0  0  0  0  0  0  0  0  0
   26.4715  -20.6734  -15.8475 C   0  0  0  0  0  0  0  0  0  0  0  0
   25.0873  -20.5655  -15.3107 C   0  0  0  0  0  0  0  0  0  0  0  0
   25.0481  -20.4250  -13.8297 C   0  0  0  0  0  0  0  0  0  0  0  0
   26.4058  -20.3779  -13.2191 C   0  0  2  0  0  0  0  0  0  0  0  0
   27.3607  -21.2961  -13.8682 N   0  0  0  0  0  0  0  0  0  0  0  0
   26.3723  -20.8439  -11.7897 C   0  0  0  0  0  0  0  0  0  0  0  0
   26.0640  -22.0053  -11.4647 O   0  0  0  0  0  0  0  0  0  0  0  0
   25.7628  -18.0901  -18.8016 O   0  0  0  0  0  0  0  0  0  0  0  0
   28.3932  -20.4026   -3.1792 C   0  0  0  0  0  0  0  0  0  0  0  0
   28.1834  -20.1075   -4.5261 C   0  0  0  0  0  0  0  0  0  0  0  0
   27.4732  -19.0072   -4.9278 C   0  0  0  0  0  0  0  0  0  0  0  0
   27.2751  -18.7305   -6.2768 C   0  0  0  0  0  0  0  0  0  0  0  0
   27.7949  -19.5668   -7.2403 C   0  0  0  0  0  0  0  0  0  0  0  0
   27.5807  -19.2782   -8.6592 C   0  0  2  0  0  0  0  0  0  0  0  0
   26.7443  -20.2978   -9.3920 N   0  0  0  0  0  0  0  0  0  0  0  0
   26.7121  -19.8968  -10.7925 C   0  0  0  0  0  0  0  0  0  0  0  0
   25.3578  -20.2882   -8.8867 O   0  0  0  0  0  0  0  0  0  0  0  0
   24.5707  -19.3159   -9.0889 C   0  0  0  0  0  0  0  0  0  0  0  0
   28.5063  -20.6682   -6.8161 C   0  0  0  0  0  0  0  0  0  0  0  0
   28.7047  -20.9453   -5.4702 O   0  0  0  0  0  0  0  0  0  0  0  0
   17.3008  -22.4806   -6.3806 C   0  0  0  0  0  0  0  0  0  0  0  0
   18.6230  -22.4722   -6.8157 C   0  0  0  0  0  0  0  0  0  0  0  0
   18.9871  -21.7469   -7.9144 C   0  0  0  0  0  0  0  0  0  0  0  0
   20.2763  -21.7103   -8.3770 C   0  0  0  0  0  0  0  0  0  0  0  0
   21.2697  -22.4339   -7.7154 C   0  0  0  0  0  0  0  0  0  0  0  0
   22.6434  -22.4062   -8.2083 C   0  0  2  0  0  0  0  0  0  0  0  0
   23.4650  -21.3362   -7.5765 N   0  0  0  0  0  0  0  0  0  0  0  0
   24.8260  -21.3717   -8.1432 C   0  0  0  0  0  0  0  0  0  0  0  0
   23.5061  -21.3439   -6.1115 O   0  0  0  0  0  0  0  0  0  0  0  0
   22.6804  -20.6522   -5.4258 C   0  0  0  0  0  0  0  0  0  0  0  0
   20.9260  -23.1742   -6.6032 C   0  0  0  0  0  0  0  0  0  0  0  0
   19.6177  -23.1822   -6.1730 O   0  0  0  0  0  0  0  0  0  0  0  0
  2  1  1  0
  2  3  2  0
  4  5  1  0
  4  2  1  0
  5  6  1  0
  6  7  1  0
  7  8  1  0
  8 10  1  0
  8  9  1  6
 10 19  1  0
 11 10  2  0
 13 12  1  0
 13 14  2  0
 15 14  1  0
 16 15  2  0
 17 16  1  0
 18 17  1  6
 18 20  1  0
 19 18  1  0
 20 21  2  0
 20 31  1  0
 22 23  2  0
 22 16  1  0
 23 13  1  0
 25 24  1  0
 25 35  2  0
 26 25  1  0
 27 26  2  0
 27 28  1  0
 28 34  2  0
 29 28  1  0
 30 29  1  6
 30 32  1  0
 31 30  1  0
 32 36  1  0
 33 32  2  0
 34 35  1  0
M  END
$$$$
