RYY.pdb
     RDKit          3D

 36 37  0  0  1  0  0  0  0  0999 V2000
   13.9300  -26.5427  -15.2541 N   0  0  0  0  0  0  0  0  0  0  0  0
   14.8801  -26.3724  -14.2189 C   0  0  0  0  0  0  0  0  0  0  0  0
   14.5545  -26.5177  -12.9687 N   0  0  0  0  0  0  0  0  0  0  0  0
   16.2180  -26.0363  -14.5301 N   0  0  0  0  0  0  0  0  0  0  0  0
   16.6186  -25.8527  -15.9337 C   0  0  0  0  0  0  0  0  0  0  0  0
   17.7001  -26.8336  -16.2236 C   0  0  0  0  0  0  0  0  0  0  0  0
   18.9540  -26.1909  -16.7024 C   0  0  0  0  0  0  0  0  0  0  0  0
   19.9835  -26.0684  -15.6331 C   0  0  2  0  0  0  0  0  0  0  0  0
   19.6824  -24.9971  -14.6645 N   0  0  0  0  0  0  0  0  0  0  0  0
   21.3153  -25.6712  -16.2076 C   0  0  0  0  0  0  0  0  0  0  0  0
   21.5239  -24.5572  -16.7223 O   0  0  0  0  0  0  0  0  0  0  0  0
   15.2096  -26.4526  -12.1801 O   0  0  0  0  0  0  0  0  0  0  0  0
   30.0676  -26.4848  -17.3865 C   0  0  0  0  0  0  0  0  0  0  0  0
   28.7401  -26.6236  -16.9820 C   0  0  0  0  0  0  0  0  0  0  0  0
   28.0823  -27.8236  -17.0439 C   0  0  0  0  0  0  0  0  0  0  0  0
   26.7576  -27.9410  -16.6354 C   0  0  0  0  0  0  0  0  0  0  0  0
   26.0787  -26.8416  -16.1574 C   0  0  0  0  0  0  0  0  0  0  0  0
   24.6831  -26.9649  -15.7336 C   0  0  1  0  0  0  0  0  0  0  0  0
   23.6855  -26.2880  -16.6406 N   0  0  0  0  0  0  0  0  0  0  0  0
   22.3581  -26.6279  -16.1446 C   0  0  0  0  0  0  0  0  0  0  0  0
   23.8015  -26.8088  -18.0164 O   0  0  0  0  0  0  0  0  0  0  0  0
   23.4778  -27.9958  -18.3201 C   0  0  0  0  0  0  0  0  0  0  0  0
   26.7578  -25.6437  -16.1028 C   0  0  0  0  0  0  0  0  0  0  0  0
   28.0798  -25.5252  -16.5101 O   0  0  0  0  0  0  0  0  0  0  0  0
   21.8241  -20.8145  -21.5283 C   0  0  0  0  0  0  0  0  0  0  0  0
   22.1688  -22.1615  -21.4634 C   0  0  0  0  0  0  0  0  0  0  0  0
   21.4787  -23.0158  -20.6512 C   0  0  0  0  0  0  0  0  0  0  0  0
   21.7841  -24.3482  -20.5568 C   0  0  0  0  0  0  0  0  0  0  0  0
   22.8358  -24.8722  -21.3101 C   0  0  0  0  0  0  0  0  0  0  0  0
   23.1719  -26.2889  -21.2076 C   0  0  1  0  0  0  0  0  0  0  0  0
   24.4314  -26.5331  -20.4505 N   0  0  0  0  0  0  0  0  0  0  0  0
   24.2836  -26.0064  -19.0810 C   0  0  0  0  0  0  0  0  0  0  0  0
   25.6591  -26.0330  -21.0755 O   0  0  0  0  0  0  0  0  0  0  0  0
   26.0641  -26.4957  -22.1946 C   0  0  0  0  0  0  0  0  0  0  0  0
   23.5477  -24.0286  -22.1376 C   0  0  0  0  0  0  0  0  0  0  0  0
   23.2061  -22.6959  -22.2016 O   0  0  0  0  0  0  0  0  0  0  0  0
  2  1  1  0
  2  3  2  0
  4  5  1  0
  4  2  1  0
  5  6  1  0
  6  7  1  0
  7  8  1  0
  8 10  1  0
  8  9  1  1
 10 19  1  0
 11 10  2  0
 13 12  1  0
 13 14  2  0
 15 14  1  0
 16 15  2  0
 17 16  1  0
 18 17  1  1
 18 20  1  0
 19 18  1  0
 20 21  2  0
 20 31  1  0
 22 23  2  0
 22 16  1  0
 23 13  1  0
 25 24  1  0
 25 35  2  0
 26 25  1  0
 27 26  2  0
 27 28  1  0
 28 34  2  0
 29 28  1  0
 30 29  1  1
 30 32  1  0
 31 30  1  0
 32 36  1  0
 33 32  2  0
 34 35  1  0
M  END
$$$$
