RYY.pdb
     RDKit          3D

 36 37  0  0  1  0  0  0  0  0999 V2000
   27.5425  -17.8029  -21.7520 N   0  0  0  0  0  0  0  0  0  0  0  0
   26.6324  -18.6903  -21.1294 C   0  0  0  0  0  0  0  0  0  0  0  0
   27.0273  -19.8186  -20.6183 N   0  0  0  0  0  0  0  0  0  0  0  0
   25.2594  -18.3615  -21.0515 N   0  0  0  0  0  0  0  0  0  0  0  0
   24.7154  -17.2868  -21.8964 C   0  0  0  0  0  0  0  0  0  0  0  0
   24.9789  -15.9954  -21.2046 C   0  0  0  0  0  0  0  0  0  0  0  0
   24.2522  -15.8701  -19.9121 C   0  0  0  0  0  0  0  0  0  0  0  0
   22.8013  -15.5853  -20.0919 C   0  0  2  0  0  0  0  0  0  0  0  0
   22.5320  -14.1834  -20.4644 N   0  0  0  0  0  0  0  0  0  0  0  0
   22.0507  -15.7661  -18.8014 C   0  0  0  0  0  0  0  0  0  0  0  0
   22.1017  -14.9429  -17.8691 O   0  0  0  0  0  0  0  0  0  0  0  0
   26.4084  -20.5175  -20.1896 O   0  0  0  0  0  0  0  0  0  0  0  0
   16.5476  -12.1182  -18.4505 C   0  0  0  0  0  0  0  0  0  0  0  0
   17.1594  -13.3665  -18.3371 C   0  0  0  0  0  0  0  0  0  0  0  0
   17.5937  -14.0660  -19.4319 C   0  0  0  0  0  0  0  0  0  0  0  0
   18.2016  -15.3102  -19.2972 C   0  0  0  0  0  0  0  0  0  0  0  0
   18.3785  -15.8647  -18.0486 C   0  0  0  0  0  0  0  0  0  0  0  0
   19.0127  -17.1764  -17.9085 C   0  0  2  0  0  0  0  0  0  0  0  0
   20.4565  -17.1366  -17.4726 N   0  0  0  0  0  0  0  0  0  0  0  0
   21.2592  -16.9338  -18.6717 C   0  0  0  0  0  0  0  0  0  0  0  0
   20.8520  -18.4272  -16.8763 O   0  0  0  0  0  0  0  0  0  0  0  0
   21.0931  -19.4525  -17.5808 C   0  0  0  0  0  0  0  0  0  0  0  0
   17.9351  -15.1454  -16.9599 C   0  0  0  0  0  0  0  0  0  0  0  0
   17.3283  -13.9037  -17.0929 O   0  0  0  0  0  0  0  0  0  0  0  0
   17.1970  -19.2885  -10.1558 C   0  0  0  0  0  0  0  0  0  0  0  0
   18.3225  -19.3560  -10.9719 C   0  0  0  0  0  0  0  0  0  0  0  0
   19.0072  -20.5293  -11.1139 C   0  0  0  0  0  0  0  0  0  0  0  0
   20.1193  -20.6403  -11.9066 C   0  0  0  0  0  0  0  0  0  0  0  0
   20.5866  -19.5249  -12.6034 C   0  0  0  0  0  0  0  0  0  0  0  0
   21.7759  -19.6342  -13.4426 C   0  0  1  0  0  0  0  0  0  0  0  0
   21.4534  -19.8587  -14.8795 N   0  0  0  0  0  0  0  0  0  0  0  0
   20.9856  -18.5931  -15.4747 C   0  0  0  0  0  0  0  0  0  0  0  0
   20.5155  -20.9492  -15.1605 O   0  0  0  0  0  0  0  0  0  0  0  0
   19.2790  -20.7151  -15.3767 C   0  0  0  0  0  0  0  0  0  0  0  0
   19.9116  -18.3285  -12.4756 C   0  0  0  0  0  0  0  0  0  0  0  0
   18.7980  -18.2624  -11.6680 O   0  0  0  0  0  0  0  0  0  0  0  0
  2  1  1  0
  2  3  2  0
  4  5  1  0
  4  2  1  0
  5  6  1  0
  6  7  1  0
  7  8  1  0
  8 10  1  0
  8  9  1  1
 10 19  1  0
 11 10  2  0
 13 12  1  0
 13 14  2  0
 15 14  1  0
 16 15  2  0
 17 16  1  0
 18 17  1  1
 18 20  1  0
 19 18  1  0
 20 21  2  0
 20 31  1  0
 22 23  2  0
 22 16  1  0
 23 13  1  0
 25 24  1  0
 25 35  2  0
 26 25  1  0
 27 26  2  0
 27 28  1  0
 28 34  2  0
 29 28  1  0
 30 29  1  6
 30 32  1  0
 31 30  1  0
 32 36  1  0
 33 32  2  0
 34 35  1  0
M  END
$$$$
