WCD.pdb
     RDKit          3D

 29 30  0  0  1  0  0  0  0  0999 V2000
   10.2267  -16.5210   22.3057 N   0  0  0  0  0  0  0  0  0  0  0  0
    9.6699  -15.7814   23.4101 C   0  0  1  0  0  0  0  0  0  0  0  0
    8.1962  -15.9131   23.5907 C   0  0  0  0  0  0  0  0  0  0  0  0
    7.5184  -14.5755   23.5368 C   0  0  0  0  0  0  0  0  0  0  0  0
    7.1781  -13.8254   22.4388 C   0  0  0  0  0  0  0  0  0  0  0  0
    6.5512  -12.6820   22.8415 N   0  0  0  0  0  0  0  0  0  0  0  0
    6.4874  -12.6927   24.1824 C   0  0  0  0  0  0  0  0  0  0  0  0
    5.9635  -11.7674   25.0914 C   0  0  0  0  0  0  0  0  0  0  0  0
    6.0322  -12.0001   26.4268 C   0  0  0  0  0  0  0  0  0  0  0  0
    6.6127  -13.1389   26.9005 C   0  0  0  0  0  0  0  0  0  0  0  0
    7.1350  -14.0636   26.0002 C   0  0  0  0  0  0  0  0  0  0  0  0
    7.0757  -13.8479   24.6431 C   0  0  0  0  0  0  0  0  0  0  0  0
   10.4270  -16.1031   24.6511 C   0  0  0  0  0  0  0  0  0  0  0  0
   11.4351  -16.8711   24.5571 O   0  0  0  0  0  0  0  0  0  0  0  0
   10.1257  -15.6324   25.9388 N   0  0  0  0  0  0  0  0  0  0  0  0
   10.9420  -15.9726   27.0885 C   0  0  1  0  0  0  0  0  0  0  0  0
   10.7204  -15.1263   28.2874 C   0  0  0  0  0  0  0  0  0  0  0  0
   10.6352  -13.3604   27.9014 S   0  0  0  0  0  0  0  0  0  0  0  0
   10.7884  -17.4378   27.3501 C   0  0  0  0  0  0  0  0  0  0  0  0
    9.6513  -17.8951   27.6135 O   0  0  0  0  0  0  0  0  0  0  0  0
   11.8581  -18.3632   27.3180 N   0  0  0  0  0  0  0  0  0  0  0  0
   11.6717  -19.7573   27.7581 C   0  0  1  0  0  0  0  0  0  0  0  0
   12.9552  -20.4986   27.4521 C   0  0  0  0  0  0  0  0  0  0  0  0
   13.2136  -20.7467   26.0526 C   0  0  0  0  0  0  0  0  0  0  0  0
   13.1538  -19.8618   25.1881 O   0  0  0  0  0  0  0  0  0  0  0  0
   11.4269  -19.7659   29.2154 C   0  0  0  0  0  0  0  0  0  0  0  0
   11.0714  -20.8392   29.8105 O   0  0  0  0  0  0  0  0  0  0  0  0
   13.5490  -22.0516   25.6413 O   0  0  0  0  0  0  0  0  0  0  0  0
   11.5613  -18.6485   30.0135 O   0  0  0  0  0  0  0  0  0  0  0  0
  2 13  1  0
  2  1  1  6
  3  2  1  0
  4 12  1  0
  4  3  1  0
  5  4  2  0
  6  5  1  0
  6  7  1  0
  7 12  2  0
  8  7  1  0
  8  9  2  0
  9 10  1  0
 10 11  2  0
 12 11  1  0
 13 14  2  0
 15 13  1  0
 15 16  1  0
 16 17  1  1
 18 17  1  0
 19 21  1  0
 19 16  1  0
 20 19  2  0
 22 23  1  1
 22 21  1  0
 23 24  1  0
 24 25  2  0
 24 28  1  0
 26 22  1  0
 26 29  1  0
 27 26  2  0
M  END
$$$$
