WCD.pdb
     RDKit          3D

 29 30  0  0  1  0  0  0  0  0999 V2000
    5.7493  -17.9319   23.8880 N   0  0  0  0  0  0  0  0  0  0  0  0
    6.7611  -16.9117   23.9999 C   0  0  1  0  0  0  0  0  0  0  0  0
    7.2738  -16.6670   25.3780 C   0  0  0  0  0  0  0  0  0  0  0  0
    6.6930  -15.4124   25.9611 C   0  0  0  0  0  0  0  0  0  0  0  0
    5.5350  -15.2520   26.6804 C   0  0  0  0  0  0  0  0  0  0  0  0
    5.3979  -13.9433   27.0421 N   0  0  0  0  0  0  0  0  0  0  0  0
    6.4534  -13.2663   26.5626 C   0  0  0  0  0  0  0  0  0  0  0  0
    6.7954  -11.9119   26.6365 C   0  0  0  0  0  0  0  0  0  0  0  0
    7.9300  -11.4556   26.0477 C   0  0  0  0  0  0  0  0  0  0  0  0
    8.7519  -12.3112   25.3763 C   0  0  0  0  0  0  0  0  0  0  0  0
    8.4168  -13.6604   25.3004 C   0  0  0  0  0  0  0  0  0  0  0  0
    7.2722  -14.1440   25.8900 C   0  0  0  0  0  0  0  0  0  0  0  0
    7.8530  -17.1911   23.0270 C   0  0  0  0  0  0  0  0  0  0  0  0
    8.1933  -18.4007   22.8376 O   0  0  0  0  0  0  0  0  0  0  0  0
    8.5569  -16.2273   22.2879 N   0  0  0  0  0  0  0  0  0  0  0  0
    9.5787  -16.5959   21.3268 C   0  0  1  0  0  0  0  0  0  0  0  0
    9.5824  -15.7951   20.0773 C   0  0  0  0  0  0  0  0  0  0  0  0
    9.3232  -14.0280   20.3684 S   0  0  0  0  0  0  0  0  0  0  0  0
   10.8972  -16.6129   22.0339 C   0  0  0  0  0  0  0  0  0  0  0  0
   11.1535  -15.7143   22.8696 O   0  0  0  0  0  0  0  0  0  0  0  0
   11.8949  -17.5936   21.8233 N   0  0  0  0  0  0  0  0  0  0  0  0
   13.2051  -17.5021   22.4920 C   0  0  1  0  0  0  0  0  0  0  0  0
   13.8484  -18.8693   22.4050 C   0  0  0  0  0  0  0  0  0  0  0  0
   13.1530  -19.9307   23.0953 C   0  0  0  0  0  0  0  0  0  0  0  0
   12.6910  -19.8037   24.2375 O   0  0  0  0  0  0  0  0  0  0  0  0
   14.0363  -16.5139   21.7734 C   0  0  0  0  0  0  0  0  0  0  0  0
   13.6746  -16.0634   20.6337 O   0  0  0  0  0  0  0  0  0  0  0  0
   12.9878  -21.1715   22.4493 O   0  0  0  0  0  0  0  0  0  0  0  0
   15.2266  -16.0216   22.2678 O   0  0  0  0  0  0  0  0  0  0  0  0
  2 13  1  0
  2  1  1  1
  3  2  1  0
  4 12  1  0
  4  3  1  0
  5  4  2  0
  6  5  1  0
  6  7  1  0
  7 12  2  0
  8  7  1  0
  8  9  2  0
  9 10  1  0
 10 11  2  0
 12 11  1  0
 13 14  2  0
 15 13  1  0
 15 16  1  0
 16 17  1  6
 18 17  1  0
 19 21  1  0
 19 16  1  0
 20 19  2  0
 22 23  1  6
 22 21  1  0
 23 24  1  0
 24 25  2  0
 24 28  1  0
 26 22  1  0
 26 29  1  0
 27 26  2  0
M  END
$$$$
