WCD.pdb
     RDKit          3D

 29 30  0  0  1  0  0  0  0  0999 V2000
    6.8050  -17.8125   25.1261 N   0  0  0  0  0  0  0  0  0  0  0  0
    7.2755  -16.6546   24.4085 C   0  0  1  0  0  0  0  0  0  0  0  0
    8.3276  -15.8567   25.1000 C   0  0  0  0  0  0  0  0  0  0  0  0
    7.7608  -15.1014   26.2661 C   0  0  0  0  0  0  0  0  0  0  0  0
    7.4837  -15.5524   27.5326 C   0  0  0  0  0  0  0  0  0  0  0  0
    7.0023  -14.5243   28.2899 N   0  0  0  0  0  0  0  0  0  0  0  0
    6.9681  -13.4231   27.5230 C   0  0  0  0  0  0  0  0  0  0  0  0
    6.5529  -12.1159   27.7984 C   0  0  0  0  0  0  0  0  0  0  0  0
    6.6008  -11.1613   26.8347 C   0  0  0  0  0  0  0  0  0  0  0  0
    7.0543  -11.4633   25.5852 C   0  0  0  0  0  0  0  0  0  0  0  0
    7.4696  -12.7625   25.3059 C   0  0  0  0  0  0  0  0  0  0  0  0
    7.4299  -13.7451   26.2675 C   0  0  0  0  0  0  0  0  0  0  0  0
    7.6777  -17.0567   23.0325 C   0  0  0  0  0  0  0  0  0  0  0  0
    7.9171  -18.2851   22.8119 O   0  0  0  0  0  0  0  0  0  0  0  0
    7.8230  -16.1916   21.9366 N   0  0  0  0  0  0  0  0  0  0  0  0
    8.2389  -16.6713   20.6326 C   0  0  1  0  0  0  0  0  0  0  0  0
    7.9362  -15.7582   19.5025 C   0  0  0  0  0  0  0  0  0  0  0  0
    6.5988  -14.5960   19.8703 S   0  0  0  0  0  0  0  0  0  0  0  0
    9.6805  -17.0627   20.7197 C   0  0  0  0  0  0  0  0  0  0  0  0
   10.1957  -17.7094   19.7775 O   0  0  0  0  0  0  0  0  0  0  0  0
   10.5214  -16.7454   21.8123 N   0  0  0  0  0  0  0  0  0  0  0  0
   11.9111  -17.2328   21.8698 C   0  0  1  0  0  0  0  0  0  0  0  0
   12.8145  -16.0320   21.6898 C   0  0  0  0  0  0  0  0  0  0  0  0
   13.9594  -16.2358   20.8329 C   0  0  0  0  0  0  0  0  0  0  0  0
   14.2079  -17.3184   20.2848 O   0  0  0  0  0  0  0  0  0  0  0  0
   12.1465  -17.8388   23.1968 C   0  0  0  0  0  0  0  0  0  0  0  0
   11.3061  -17.6773   24.1457 O   0  0  0  0  0  0  0  0  0  0  0  0
   14.8408  -15.1611   20.6041 O   0  0  0  0  0  0  0  0  0  0  0  0
   13.2575  -18.6001   23.4966 O   0  0  0  0  0  0  0  0  0  0  0  0
  2 13  1  0
  2  1  1  1
  3  2  1  0
  4 12  1  0
  4  3  1  0
  5  4  2  0
  6  5  1  0
  6  7  1  0
  7 12  2  0
  8  7  1  0
  8  9  2  0
  9 10  1  0
 10 11  2  0
 12 11  1  0
 13 14  2  0
 15 13  1  0
 15 16  1  0
 16 17  1  6
 18 17  1  0
 19 21  1  0
 19 16  1  0
 20 19  2  0
 22 23  1  1
 22 21  1  0
 23 24  1  0
 24 25  2  0
 24 28  1  0
 26 22  1  0
 26 29  1  0
 27 26  2  0
M  END
$$$$
