WCD.pdb
     RDKit          3D

 29 30  0  0  1  0  0  0  0  0999 V2000
    6.5667  -18.3182   26.2553 N   0  0  0  0  0  0  0  0  0  0  0  0
    7.5293  -17.3111   25.8864 C   0  0  1  0  0  0  0  0  0  0  0  0
    8.9561  -17.6723   26.1224 C   0  0  0  0  0  0  0  0  0  0  0  0
    9.4334  -17.1680   27.4526 C   0  0  0  0  0  0  0  0  0  0  0  0
    9.8144  -17.8844   28.5596 C   0  0  0  0  0  0  0  0  0  0  0  0
   10.2050  -17.0279   29.5476 N   0  0  0  0  0  0  0  0  0  0  0  0
   10.0778  -15.7739   29.0854 C   0  0  0  0  0  0  0  0  0  0  0  0
   10.3271  -14.5360   29.6872 C   0  0  0  0  0  0  0  0  0  0  0  0
   10.1031  -13.3828   29.0073 C   0  0  0  0  0  0  0  0  0  0  0  0
    9.6322  -13.4153   27.7284 C   0  0  0  0  0  0  0  0  0  0  0  0
    9.3833  -14.6447   27.1243 C   0  0  0  0  0  0  0  0  0  0  0  0
    9.6036  -15.8252   27.7948 C   0  0  0  0  0  0  0  0  0  0  0  0
    7.2759  -16.8762   24.4852 C   0  0  0  0  0  0  0  0  0  0  0  0
    6.6606  -17.6742   23.7109 O   0  0  0  0  0  0  0  0  0  0  0  0
    7.6618  -15.6472   23.9272 N   0  0  0  0  0  0  0  0  0  0  0  0
    7.4856  -15.3578   22.5170 C   0  0  1  0  0  0  0  0  0  0  0  0
    7.2875  -13.9236   22.1910 C   0  0  0  0  0  0  0  0  0  0  0  0
    6.9988  -12.8985   23.6541 S   0  0  0  0  0  0  0  0  0  0  0  0
    8.6134  -15.9945   21.7676 C   0  0  0  0  0  0  0  0  0  0  0  0
    8.5896  -15.9965   20.5143 O   0  0  0  0  0  0  0  0  0  0  0  0
    9.7295  -16.6048   22.3869 N   0  0  0  0  0  0  0  0  0  0  0  0
   10.7224  -17.3547   21.5971 C   0  0  1  0  0  0  0  0  0  0  0  0
   12.0923  -16.9259   22.0767 C   0  0  0  0  0  0  0  0  0  0  0  0
   12.5516  -15.6463   21.5882 C   0  0  0  0  0  0  0  0  0  0  0  0
   11.9641  -15.0122   20.7011 O   0  0  0  0  0  0  0  0  0  0  0  0
   10.5360  -18.7988   21.8491 C   0  0  0  0  0  0  0  0  0  0  0  0
    9.7113  -19.2046   22.7369 O   0  0  0  0  0  0  0  0  0  0  0  0
   13.7206  -15.0853   22.1385 O   0  0  0  0  0  0  0  0  0  0  0  0
   11.2186  -19.7826   21.1637 O   0  0  0  0  0  0  0  0  0  0  0  0
  2 13  1  0
  2  1  1  6
  3  2  1  0
  4 12  1  0
  4  3  1  0
  5  4  2  0
  6  5  1  0
  6  7  1  0
  7 12  2  0
  8  7  1  0
  8  9  2  0
  9 10  1  0
 10 11  2  0
 12 11  1  0
 13 14  2  0
 15 13  1  0
 15 16  1  0
 16 17  1  1
 18 17  1  0
 19 21  1  0
 19 16  1  0
 20 19  2  0
 22 23  1  1
 22 21  1  0
 23 24  1  0
 24 25  2  0
 24 28  1  0
 26 22  1  0
 26 29  1  0
 27 26  2  0
M  END
$$$$
