WCD.pdb
     RDKit          3D

 29 30  0  0  1  0  0  0  0  0999 V2000
    8.3332  -16.7967   26.3213 N   0  0  0  0  0  0  0  0  0  0  0  0
    7.6095  -17.1991   25.1417 C   0  0  1  0  0  0  0  0  0  0  0  0
    6.4805  -16.3089   24.7485 C   0  0  0  0  0  0  0  0  0  0  0  0
    6.9228  -14.8785   24.6496 C   0  0  0  0  0  0  0  0  0  0  0  0
    7.5093  -14.2288   23.5923 C   0  0  0  0  0  0  0  0  0  0  0  0
    7.7240  -12.9216   23.9197 N   0  0  0  0  0  0  0  0  0  0  0  0
    7.2824  -12.7286   25.1727 C   0  0  0  0  0  0  0  0  0  0  0  0
    7.2749  -11.5907   25.9864 C   0  0  0  0  0  0  0  0  0  0  0  0
    6.7777  -11.6503   27.2480 C   0  0  0  0  0  0  0  0  0  0  0  0
    6.2789  -12.8199   27.7394 C   0  0  0  0  0  0  0  0  0  0  0  0
    6.2832  -13.9552   26.9335 C   0  0  0  0  0  0  0  0  0  0  0  0
    6.7817  -13.9171   25.6522 C   0  0  0  0  0  0  0  0  0  0  0  0
    8.5702  -17.4269   24.0273 C   0  0  0  0  0  0  0  0  0  0  0  0
    8.1197  -17.8834   22.9302 O   0  0  0  0  0  0  0  0  0  0  0  0
    9.9519  -17.1836   24.0752 N   0  0  0  0  0  0  0  0  0  0  0  0
   10.8173  -17.4591   22.9444 C   0  0  1  0  0  0  0  0  0  0  0  0
   10.5605  -16.6289   21.7413 C   0  0  0  0  0  0  0  0  0  0  0  0
   11.2706  -14.9689   21.8621 S   0  0  0  0  0  0  0  0  0  0  0  0
   12.2349  -17.4057   23.4203 C   0  0  0  0  0  0  0  0  0  0  0  0
   12.5367  -16.6246   24.3532 O   0  0  0  0  0  0  0  0  0  0  0  0
   13.2799  -18.1929   22.8822 N   0  0  0  0  0  0  0  0  0  0  0  0
   14.6049  -18.2416   23.5258 C   0  0  1  0  0  0  0  0  0  0  0  0
   15.3644  -19.3917   22.9003 C   0  0  0  0  0  0  0  0  0  0  0  0
   16.6937  -19.6166   23.4191 C   0  0  0  0  0  0  0  0  0  0  0  0
   17.6846  -19.7712   22.6922 O   0  0  0  0  0  0  0  0  0  0  0  0
   15.3110  -16.9722   23.2541 C   0  0  0  0  0  0  0  0  0  0  0  0
   15.1607  -16.3684   22.1381 O   0  0  0  0  0  0  0  0  0  0  0  0
   16.8828  -19.6651   24.8142 O   0  0  0  0  0  0  0  0  0  0  0  0
   16.1573  -16.3663   24.1598 O   0  0  0  0  0  0  0  0  0  0  0  0
  2 13  1  0
  2  1  1  1
  3  2  1  0
  4 12  1  0
  4  3  1  0
  5  4  2  0
  6  5  1  0
  6  7  1  0
  7 12  2  0
  8  7  1  0
  8  9  2  0
  9 10  1  0
 10 11  2  0
 12 11  1  0
 13 14  2  0
 15 13  1  0
 15 16  1  0
 16 17  1  6
 18 17  1  0
 19 21  1  0
 19 16  1  0
 20 19  2  0
 22 23  1  6
 22 21  1  0
 23 24  1  0
 24 25  2  0
 24 28  1  0
 26 22  1  0
 26 29  1  0
 27 26  2  0
M  END
$$$$
