WCD.pdb
     RDKit          3D

 29 30  0  0  1  0  0  0  0  0999 V2000
    6.0985  -17.2175   23.7133 N   0  0  0  0  0  0  0  0  0  0  0  0
    6.9633  -16.1253   23.3443 C   0  0  1  0  0  0  0  0  0  0  0  0
    7.8923  -15.6558   24.4112 C   0  0  0  0  0  0  0  0  0  0  0  0
    7.1571  -14.9075   25.4840 C   0  0  0  0  0  0  0  0  0  0  0  0
    6.2902  -15.3906   26.4323 C   0  0  0  0  0  0  0  0  0  0  0  0
    5.8675  -14.3674   27.2304 N   0  0  0  0  0  0  0  0  0  0  0  0
    6.4533  -13.2375   26.8034 C   0  0  0  0  0  0  0  0  0  0  0  0
    6.3571  -11.9172   27.2555 C   0  0  0  0  0  0  0  0  0  0  0  0
    7.0494  -10.9263   26.6383 C   0  0  0  0  0  0  0  0  0  0  0  0
    7.8482  -11.2043   25.5692 C   0  0  0  0  0  0  0  0  0  0  0  0
    7.9483  -12.5168   25.1155 C   0  0  0  0  0  0  0  0  0  0  0  0
    7.2559  -13.5361   25.7264 C   0  0  0  0  0  0  0  0  0  0  0  0
    7.6724  -16.4631   22.0795 C   0  0  0  0  0  0  0  0  0  0  0  0
    8.2374  -17.5981   21.9927 O   0  0  0  0  0  0  0  0  0  0  0  0
    7.7805  -15.6306   20.9544 N   0  0  0  0  0  0  0  0  0  0  0  0
    8.7066  -15.9179   19.8758 C   0  0  1  0  0  0  0  0  0  0  0  0
    8.5735  -15.0422   18.6850 C   0  0  0  0  0  0  0  0  0  0  0  0
    8.1209  -13.3411   19.1044 S   0  0  0  0  0  0  0  0  0  0  0  0
   10.0892  -15.9502   20.4468 C   0  0  0  0  0  0  0  0  0  0  0  0
   10.2927  -15.4583   21.5818 O   0  0  0  0  0  0  0  0  0  0  0  0
   11.2060  -16.5107   19.7833 N   0  0  0  0  0  0  0  0  0  0  0  0
   12.4158  -16.9028   20.5281 C   0  0  1  0  0  0  0  0  0  0  0  0
   12.0074  -17.9791   21.5106 C   0  0  0  0  0  0  0  0  0  0  0  0
   12.3871  -17.7456   22.8848 C   0  0  0  0  0  0  0  0  0  0  0  0
   13.0154  -16.7427   23.2502 O   0  0  0  0  0  0  0  0  0  0  0  0
   13.4040  -17.4481   19.5743 C   0  0  0  0  0  0  0  0  0  0  0  0
   14.6284  -17.0861   19.6256 O   0  0  0  0  0  0  0  0  0  0  0  0
   12.0324  -18.6962   23.8619 O   0  0  0  0  0  0  0  0  0  0  0  0
   13.0843  -18.3604   18.5898 O   0  0  0  0  0  0  0  0  0  0  0  0
  2 13  1  0
  2  1  1  1
  3  2  1  0
  4 12  1  0
  4  3  1  0
  5  4  2  0
  6  5  1  0
  6  7  1  0
  7 12  2  0
  8  7  1  0
  8  9  2  0
  9 10  1  0
 10 11  2  0
 12 11  1  0
 13 14  2  0
 15 13  1  0
 15 16  1  0
 16 17  1  6
 18 17  1  0
 19 21  1  0
 19 16  1  0
 20 19  2  0
 22 23  1  1
 22 21  1  0
 23 24  1  0
 24 25  2  0
 24 28  1  0
 26 22  1  0
 26 29  1  0
 27 26  2  0
M  END
$$$$
