WCD.pdb
     RDKit          3D

 29 30  0  0  1  0  0  0  0  0999 V2000
    6.5731  -17.8329   24.2701 N   0  0  0  0  0  0  0  0  0  0  0  0
    6.9256  -16.4604   24.0075 C   0  0  1  0  0  0  0  0  0  0  0  0
    7.8152  -15.8231   25.0195 C   0  0  0  0  0  0  0  0  0  0  0  0
    7.0503  -14.8807   25.9017 C   0  0  0  0  0  0  0  0  0  0  0  0
    5.9976  -15.1484   26.7409 C   0  0  0  0  0  0  0  0  0  0  0  0
    5.6172  -14.0034   27.3784 N   0  0  0  0  0  0  0  0  0  0  0  0
    6.4134  -13.0082   26.9567 C   0  0  0  0  0  0  0  0  0  0  0  0
    6.4443  -11.6475   27.2799 C   0  0  0  0  0  0  0  0  0  0  0  0
    7.3519  -10.8226   26.6985 C   0  0  0  0  0  0  0  0  0  0  0  0
    8.2459  -11.3090   25.7915 C   0  0  0  0  0  0  0  0  0  0  0  0
    8.2201  -12.6626   25.4669 C   0  0  0  0  0  0  0  0  0  0  0  0
    7.3092  -13.5162   26.0443 C   0  0  0  0  0  0  0  0  0  0  0  0
    7.4624  -16.3450   22.6237 C   0  0  0  0  0  0  0  0  0  0  0  0
    8.0631  -17.3487   22.1271 O   0  0  0  0  0  0  0  0  0  0  0  0
    7.3689  -15.2110   21.8014 N   0  0  0  0  0  0  0  0  0  0  0  0
    7.9720  -15.1696   20.4831 C   0  0  1  0  0  0  0  0  0  0  0  0
    7.7313  -13.9183   19.7223 C   0  0  0  0  0  0  0  0  0  0  0  0
    8.6109  -13.8706   18.1416 S   0  0  0  0  0  0  0  0  0  0  0  0
    9.4203  -15.5187   20.6236 C   0  0  0  0  0  0  0  0  0  0  0  0
   10.1283  -14.8731   21.4319 O   0  0  0  0  0  0  0  0  0  0  0  0
   10.0596  -16.5491   19.8950 N   0  0  0  0  0  0  0  0  0  0  0  0
   11.5166  -16.7527   19.9837 C   0  0  1  0  0  0  0  0  0  0  0  0
   11.7464  -17.9697   20.8535 C   0  0  0  0  0  0  0  0  0  0  0  0
   12.4574  -17.7287   22.0878 C   0  0  0  0  0  0  0  0  0  0  0  0
   12.9353  -16.6259   22.3870 O   0  0  0  0  0  0  0  0  0  0  0  0
   12.0438  -17.0040   18.6263 C   0  0  0  0  0  0  0  0  0  0  0  0
   11.3477  -17.6398   17.7638 O   0  0  0  0  0  0  0  0  0  0  0  0
   12.6213  -18.7899   22.9994 O   0  0  0  0  0  0  0  0  0  0  0  0
   13.2883  -16.5819   18.2059 O   0  0  0  0  0  0  0  0  0  0  0  0
  2 13  1  0
  2  1  1  1
  3  2  1  0
  4 12  1  0
  4  3  1  0
  5  4  2  0
  6  5  1  0
  6  7  1  0
  7 12  2  0
  8  7  1  0
  8  9  2  0
  9 10  1  0
 10 11  2  0
 12 11  1  0
 13 14  2  0
 15 13  1  0
 15 16  1  0
 16 17  1  1
 18 17  1  0
 19 21  1  0
 19 16  1  0
 20 19  2  0
 22 23  1  1
 22 21  1  0
 23 24  1  0
 24 25  2  0
 24 28  1  0
 26 22  1  0
 26 29  1  0
 27 26  2  0
M  END
$$$$
