WCD.pdb
     RDKit          3D

 29 30  0  0  1  0  0  0  0  0999 V2000
    6.5979  -18.0665   24.5271 N   0  0  0  0  0  0  0  0  0  0  0  0
    7.3196  -16.8484   24.2581 C   0  0  1  0  0  0  0  0  0  0  0  0
    7.9541  -16.2051   25.4436 C   0  0  0  0  0  0  0  0  0  0  0  0
    7.0494  -15.1758   26.0548 C   0  0  0  0  0  0  0  0  0  0  0  0
    5.9113  -15.3618   26.7992 C   0  0  0  0  0  0  0  0  0  0  0  0
    5.4106  -14.1511   27.1811 N   0  0  0  0  0  0  0  0  0  0  0  0
    6.2143  -13.1948   26.6896 C   0  0  0  0  0  0  0  0  0  0  0  0
    6.1524  -11.7998   26.7747 C   0  0  0  0  0  0  0  0  0  0  0  0
    7.0931  -11.0311   26.1695 C   0  0  0  0  0  0  0  0  0  0  0  0
    8.1114  -11.6080   25.4704 C   0  0  0  0  0  0  0  0  0  0  0  0
    8.1783  -12.9959   25.3833 C   0  0  0  0  0  0  0  0  0  0  0  0
    7.2359  -13.7937   25.9892 C   0  0  0  0  0  0  0  0  0  0  0  0
    8.2872  -17.0824   23.1509 C   0  0  0  0  0  0  0  0  0  0  0  0
    8.7473  -18.2566   22.9940 O   0  0  0  0  0  0  0  0  0  0  0  0
    8.7500  -16.1110   22.2494 N   0  0  0  0  0  0  0  0  0  0  0  0
    9.6014  -16.4530   21.1262 C   0  0  1  0  0  0  0  0  0  0  0  0
    9.4368  -15.5912   19.9292 C   0  0  0  0  0  0  0  0  0  0  0  0
    7.7262  -15.5114   19.3443 S   0  0  0  0  0  0  0  0  0  0  0  0
   11.0117  -16.5333   21.6198 C   0  0  0  0  0  0  0  0  0  0  0  0
   11.4660  -15.6012   22.3242 O   0  0  0  0  0  0  0  0  0  0  0  0
   11.8859  -17.6109   21.3438 N   0  0  0  0  0  0  0  0  0  0  0  0
   13.2444  -17.6537   21.9136 C   0  0  1  0  0  0  0  0  0  0  0  0
   13.6196  -19.1119   22.0672 C   0  0  0  0  0  0  0  0  0  0  0  0
   13.3327  -19.6971   23.3565 C   0  0  0  0  0  0  0  0  0  0  0  0
   13.4731  -19.0826   24.4227 O   0  0  0  0  0  0  0  0  0  0  0  0
   14.1745  -16.9968   20.9718 C   0  0  0  0  0  0  0  0  0  0  0  0
   13.8275  -16.7721   19.7628 O   0  0  0  0  0  0  0  0  0  0  0  0
   12.8726  -21.0271   23.4152 O   0  0  0  0  0  0  0  0  0  0  0  0
   15.4461  -16.5907   21.3209 O   0  0  0  0  0  0  0  0  0  0  0  0
  2 13  1  0
  2  1  1  1
  3  2  1  0
  4 12  1  0
  4  3  1  0
  5  4  2  0
  6  5  1  0
  6  7  1  0
  7 12  2  0
  8  7  1  0
  8  9  2  0
  9 10  1  0
 10 11  2  0
 12 11  1  0
 13 14  2  0
 15 13  1  0
 15 16  1  0
 16 17  1  6
 18 17  1  0
 19 21  1  0
 19 16  1  0
 20 19  2  0
 22 23  1  6
 22 21  1  0
 23 24  1  0
 24 25  2  0
 24 28  1  0
 26 22  1  0
 26 29  1  0
 27 26  2  0
M  END
$$$$
