WCD.pdb
     RDKit          3D

 29 30  0  0  1  0  0  0  0  0999 V2000
    6.7370  -17.1535   25.6836 N   0  0  0  0  0  0  0  0  0  0  0  0
    7.3242  -16.0972   24.8985 C   0  0  1  0  0  0  0  0  0  0  0  0
    8.5468  -15.4724   25.4786 C   0  0  0  0  0  0  0  0  0  0  0  0
    8.2041  -14.5602   26.6197 C   0  0  0  0  0  0  0  0  0  0  0  0
    8.6932  -14.5629   27.9021 C   0  0  0  0  0  0  0  0  0  0  0  0
    8.1299  -13.5409   28.6095 N   0  0  0  0  0  0  0  0  0  0  0  0
    7.2872  -12.8862   27.7951 C   0  0  0  0  0  0  0  0  0  0  0  0
    6.4565  -11.7825   28.0163 C   0  0  0  0  0  0  0  0  0  0  0  0
    5.6698  -11.3028   27.0197 C   0  0  0  0  0  0  0  0  0  0  0  0
    5.6785  -11.8899   25.7894 C   0  0  0  0  0  0  0  0  0  0  0  0
    6.5040  -12.9880   25.5636 C   0  0  0  0  0  0  0  0  0  0  0  0
    7.3094  -13.4901   26.5590 C   0  0  0  0  0  0  0  0  0  0  0  0
    7.5361  -16.5775   23.5053 C   0  0  0  0  0  0  0  0  0  0  0  0
    7.6375  -17.8292   23.3107 O   0  0  0  0  0  0  0  0  0  0  0  0
    7.6394  -15.7639   22.3659 N   0  0  0  0  0  0  0  0  0  0  0  0
    8.2508  -16.2385   21.1394 C   0  0  1  0  0  0  0  0  0  0  0  0
    7.9986  -15.3941   19.9453 C   0  0  0  0  0  0  0  0  0  0  0  0
    6.7490  -14.1171   20.2326 S   0  0  0  0  0  0  0  0  0  0  0  0
    9.7026  -16.4818   21.4079 C   0  0  0  0  0  0  0  0  0  0  0  0
   10.1861  -16.1343   22.5110 O   0  0  0  0  0  0  0  0  0  0  0  0
   10.5859  -17.0915   20.4862 N   0  0  0  0  0  0  0  0  0  0  0  0
   11.9982  -17.3331   20.8314 C   0  0  1  0  0  0  0  0  0  0  0  0
   12.4872  -16.1192   21.5915 C   0  0  0  0  0  0  0  0  0  0  0  0
   13.8740  -16.1530   21.9949 C   0  0  0  0  0  0  0  0  0  0  0  0
   14.2412  -15.9737   23.1641 O   0  0  0  0  0  0  0  0  0  0  0  0
   12.0769  -18.5279   21.6974 C   0  0  0  0  0  0  0  0  0  0  0  0
   13.0586  -19.3401   21.6003 O   0  0  0  0  0  0  0  0  0  0  0  0
   14.8621  -16.3994   21.0218 O   0  0  0  0  0  0  0  0  0  0  0  0
   11.1244  -18.8419   22.6449 O   0  0  0  0  0  0  0  0  0  0  0  0
  2 13  1  0
  2  1  1  1
  3  2  1  0
  4 12  1  0
  4  3  1  0
  5  4  2  0
  6  5  1  0
  6  7  1  0
  7 12  2  0
  8  7  1  0
  8  9  2  0
  9 10  1  0
 10 11  2  0
 12 11  1  0
 13 14  2  0
 15 13  1  0
 15 16  1  0
 16 17  1  6
 18 17  1  0
 19 21  1  0
 19 16  1  0
 20 19  2  0
 22 23  1  1
 22 21  1  0
 23 24  1  0
 24 25  2  0
 24 28  1  0
 26 22  1  0
 26 29  1  0
 27 26  2  0
M  END
$$$$
