WCD.pdb
     RDKit          3D

 29 30  0  0  1  0  0  0  0  0999 V2000
    8.9496  -16.7682   23.3878 N   0  0  0  0  0  0  0  0  0  0  0  0
    8.3957  -16.7527   24.7182 C   0  0  1  0  0  0  0  0  0  0  0  0
    7.0620  -16.1001   24.8487 C   0  0  0  0  0  0  0  0  0  0  0  0
    7.0907  -14.6922   24.3305 C   0  0  0  0  0  0  0  0  0  0  0  0
    7.2458  -14.2520   23.0397 C   0  0  0  0  0  0  0  0  0  0  0  0
    7.1848  -12.8890   23.0100 N   0  0  0  0  0  0  0  0  0  0  0  0
    6.9932  -12.4537   24.2653 C   0  0  0  0  0  0  0  0  0  0  0  0
    6.8724  -11.1620   24.7887 C   0  0  0  0  0  0  0  0  0  0  0  0
    6.6949  -10.9732   26.1210 C   0  0  0  0  0  0  0  0  0  0  0  0
    6.6318  -12.0399   26.9674 C   0  0  0  0  0  0  0  0  0  0  0  0
    6.7506  -13.3277   26.4518 C   0  0  0  0  0  0  0  0  0  0  0  0
    6.9306  -13.5417   25.1051 C   0  0  0  0  0  0  0  0  0  0  0  0
    8.4114  -18.1333   25.2752 C   0  0  0  0  0  0  0  0  0  0  0  0
    8.0192  -18.3022   26.4722 O   0  0  0  0  0  0  0  0  0  0  0  0
    8.8286  -19.2867   24.5924 N   0  0  0  0  0  0  0  0  0  0  0  0
    8.9111  -20.5772   25.2491 C   0  0  1  0  0  0  0  0  0  0  0  0
    7.9716  -21.6042   24.7341 C   0  0  0  0  0  0  0  0  0  0  0  0
    6.4000  -20.9065   24.1703 S   0  0  0  0  0  0  0  0  0  0  0  0
   10.3426  -21.0130   25.2390 C   0  0  0  0  0  0  0  0  0  0  0  0
   10.9566  -21.0670   24.1475 O   0  0  0  0  0  0  0  0  0  0  0  0
   11.0677  -21.3733   26.3991 N   0  0  0  0  0  0  0  0  0  0  0  0
   12.5414  -21.3925   26.4001 C   0  0  1  0  0  0  0  0  0  0  0  0
   13.0073  -20.0019   26.0260 C   0  0  0  0  0  0  0  0  0  0  0  0
   14.4353  -19.7888   26.0742 C   0  0  0  0  0  0  0  0  0  0  0  0
   15.2383  -20.6706   26.4085 O   0  0  0  0  0  0  0  0  0  0  0  0
   13.0104  -21.7255   27.7612 C   0  0  0  0  0  0  0  0  0  0  0  0
   12.2134  -21.6660   28.7582 O   0  0  0  0  0  0  0  0  0  0  0  0
   14.9486  -18.5236   25.7279 O   0  0  0  0  0  0  0  0  0  0  0  0
   14.3039  -22.1136   28.0439 O   0  0  0  0  0  0  0  0  0  0  0  0
  2 13  1  0
  2  1  1  6
  3  2  1  0
  4 12  1  0
  4  3  1  0
  5  4  2  0
  6  5  1  0
  6  7  1  0
  7 12  2  0
  8  7  1  0
  8  9  2  0
  9 10  1  0
 10 11  2  0
 12 11  1  0
 13 14  2  0
 15 13  1  0
 15 16  1  0
 16 17  1  6
 18 17  1  0
 19 21  1  0
 19 16  1  0
 20 19  2  0
 22 23  1  1
 22 21  1  0
 23 24  1  0
 24 25  2  0
 24 28  1  0
 26 22  1  0
 26 29  1  0
 27 26  2  0
M  END
$$$$
