IVK.pdb
     RDKit          3D

 25 24  0  0  1  0  0  0  0  0999 V2000
   28.1090  -21.9491  -16.3293 C   0  0  0  0  0  0  0  0  0  0  0  0
   26.8575  -22.5830  -16.9281 C   0  0  0  0  0  0  0  0  0  0  0  0
   25.6397  -22.2628  -16.1233 C   0  0  2  0  0  0  0  0  0  0  0  0
   25.4344  -20.7665  -15.9669 C   0  0  0  0  0  0  0  0  0  0  0  0
   25.6584  -22.8495  -14.7359 C   0  0  2  0  0  0  0  0  0  0  0  0
   25.8721  -24.2755  -14.8795 N   0  0  0  0  0  0  0  0  0  0  0  0
   24.4925  -22.5167  -13.9318 C   0  0  0  0  0  0  0  0  0  0  0  0
   23.3518  -22.9061  -14.2356 O   0  0  0  0  0  0  0  0  0  0  0  0
   24.6739  -19.6891  -10.5502 C   0  0  0  0  0  0  0  0  0  0  0  0
   23.6892  -20.8480  -10.5662 C   0  0  1  0  0  0  0  0  0  0  0  0
   22.4405  -20.5358   -9.7763 C   0  0  0  0  0  0  0  0  0  0  0  0
   23.4524  -21.4041  -11.9080 C   0  0  2  0  0  0  0  0  0  0  0  0
   24.5328  -21.7274  -12.7383 N   0  0  0  0  0  0  0  0  0  0  0  0
   22.5374  -20.4579  -12.6380 C   0  0  0  0  0  0  0  0  0  0  0  0
   22.9722  -19.3703  -13.1078 O   0  0  0  0  0  0  0  0  0  0  0  0
   21.1715  -20.7446  -12.8251 N   0  0  0  0  0  0  0  0  0  0  0  0
   20.2779  -19.7557  -13.5706 C   0  0  1  0  0  0  0  0  0  0  0  0
   19.6452  -20.6272  -14.5998 C   0  0  0  0  0  0  0  0  0  0  0  0
   18.5330  -20.1138  -15.3728 C   0  0  0  0  0  0  0  0  0  0  0  0
   17.8570  -20.9601  -16.3619 C   0  0  0  0  0  0  0  0  0  0  0  0
   16.7139  -20.1434  -17.0450 C   0  0  0  0  0  0  0  0  0  0  0  0
   16.1366  -21.0716  -18.0076 N   0  0  0  0  0  0  0  0  0  0  0  0
   19.3205  -19.3985  -12.4982 C   0  0  0  0  0  0  0  0  0  0  0  0
   19.1145  -20.0585  -11.4776 O   0  0  0  0  0  0  0  0  0  0  0  0
   18.5593  -18.2178  -12.6039 O   0  0  0  0  0  0  0  0  0  0  0  0
  1  2  1  0
  2  3  1  0
  3  5  1  0
  3  4  1  1
  5  7  1  0
  5  6  1  6
  7  8  2  0
 10 11  1  6
 10  9  1  0
 10 12  1  0
 12 14  1  0
 12 13  1  6
 13  7  1  0
 14 15  2  0
 16 14  1  0
 16 17  1  0
 17 23  1  0
 17 18  1  6
 19 18  1  0
 20 21  1  0
 20 19  1  0
 21 22  1  0
 23 24  2  0
 23 25  1  0
M  END
$$$$
