IVK.pdb
     RDKit          3D

 25 24  0  0  1  0  0  0  0  0999 V2000
   26.2873  -25.3365  -20.5903 C   0  0  0  0  0  0  0  0  0  0  0  0
   26.8867  -25.3815  -19.1884 C   0  0  0  0  0  0  0  0  0  0  0  0
   25.8592  -25.0969  -18.1412 C   0  0  2  0  0  0  0  0  0  0  0  0
   25.1474  -23.7775  -18.3819 C   0  0  0  0  0  0  0  0  0  0  0  0
   26.4172  -25.0447  -16.7428 C   0  0  2  0  0  0  0  0  0  0  0  0
   26.9410  -26.3623  -16.4440 N   0  0  0  0  0  0  0  0  0  0  0  0
   25.4795  -24.5541  -15.7444 C   0  0  0  0  0  0  0  0  0  0  0  0
   24.3740  -25.0921  -15.5607 O   0  0  0  0  0  0  0  0  0  0  0  0
   26.1436  -20.8405  -13.3447 C   0  0  0  0  0  0  0  0  0  0  0  0
   25.3848  -22.0582  -12.8404 C   0  0  1  0  0  0  0  0  0  0  0  0
   24.3837  -21.6933  -11.7702 C   0  0  0  0  0  0  0  0  0  0  0  0
   24.8599  -22.9148  -13.9158 C   0  0  2  0  0  0  0  0  0  0  0  0
   25.7223  -23.4310  -14.8909 N   0  0  0  0  0  0  0  0  0  0  0  0
   23.7454  -22.1635  -14.5932 C   0  0  0  0  0  0  0  0  0  0  0  0
   23.9911  -21.3165  -15.4960 O   0  0  0  0  0  0  0  0  0  0  0  0
   22.3957  -22.3729  -14.2511 N   0  0  0  0  0  0  0  0  0  0  0  0
   21.2956  -21.5902  -14.9649 C   0  0  1  0  0  0  0  0  0  0  0  0
   20.0883  -22.4081  -14.6610 C   0  0  0  0  0  0  0  0  0  0  0  0
   18.7847  -21.9174  -15.0582 C   0  0  0  0  0  0  0  0  0  0  0  0
   17.5689  -22.6601  -14.7091 C   0  0  0  0  0  0  0  0  0  0  0  0
   16.3392  -21.9937  -15.4049 C   0  0  0  0  0  0  0  0  0  0  0  0
   15.1906  -22.7037  -14.8591 N   0  0  0  0  0  0  0  0  0  0  0  0
   21.3108  -20.3324  -14.1825 C   0  0  0  0  0  0  0  0  0  0  0  0
   21.5768  -20.2427  -12.9822 O   0  0  0  0  0  0  0  0  0  0  0  0
   21.0050  -19.1111  -14.8146 O   0  0  0  0  0  0  0  0  0  0  0  0
  1  2  1  0
  2  3  1  0
  3  5  1  0
  3  4  1  6
  5  7  1  0
  5  6  1  1
  7  8  2  0
 10 11  1  6
 10  9  1  0
 10 12  1  0
 12 14  1  0
 12 13  1  6
 13  7  1  0
 14 15  2  0
 16 14  1  0
 16 17  1  0
 17 23  1  0
 17 18  1  1
 19 18  1  0
 20 21  1  0
 20 19  1  0
 21 22  1  0
 23 24  2  0
 23 25  1  0
M  END
$$$$
