IVK.pdb
     RDKit          3D

 25 24  0  0  1  0  0  0  0  0999 V2000
   28.5722  -19.8432   -6.8276 C   0  0  0  0  0  0  0  0  0  0  0  0
   28.3883  -20.7303   -8.0547 C   0  0  0  0  0  0  0  0  0  0  0  0
   27.1666  -20.3531   -8.8282 C   0  0  2  0  0  0  0  0  0  0  0  0
   25.8985  -20.5128   -8.0084 C   0  0  0  0  0  0  0  0  0  0  0  0
   26.9762  -21.1546  -10.0896 C   0  0  2  0  0  0  0  0  0  0  0  0
   28.2780  -21.2827  -10.7130 N   0  0  0  0  0  0  0  0  0  0  0  0
   25.9557  -20.6278  -10.9827 C   0  0  0  0  0  0  0  0  0  0  0  0
   25.8712  -19.4148  -11.2411 O   0  0  0  0  0  0  0  0  0  0  0  0
   25.5090  -19.8543  -14.1848 C   0  0  0  0  0  0  0  0  0  0  0  0
   24.3277  -20.7854  -13.9609 C   0  0  1  0  0  0  0  0  0  0  0  0
   24.4513  -22.0550  -14.7694 C   0  0  0  0  0  0  0  0  0  0  0  0
   23.9915  -20.9831  -12.5419 C   0  0  2  0  0  0  0  0  0  0  0  0
   24.9674  -21.4271  -11.6410 N   0  0  0  0  0  0  0  0  0  0  0  0
   22.8070  -21.9096  -12.4794 C   0  0  0  0  0  0  0  0  0  0  0  0
   22.8943  -23.1002  -12.8885 O   0  0  0  0  0  0  0  0  0  0  0  0
   21.5645  -21.4900  -11.9667 N   0  0  0  0  0  0  0  0  0  0  0  0
   20.3726  -22.4449  -11.9739 C   0  0  1  0  0  0  0  0  0  0  0  0
   19.9720  -22.4489  -10.5392 C   0  0  0  0  0  0  0  0  0  0  0  0
   18.7866  -23.1787  -10.1391 C   0  0  0  0  0  0  0  0  0  0  0  0
   18.3155  -23.1349   -8.7507 C   0  0  0  0  0  0  0  0  0  0  0  0
   18.5595  -24.5238   -8.0786 C   0  0  0  0  0  0  0  0  0  0  0  0
   18.1655  -24.3242   -6.6906 N   0  0  0  0  0  0  0  0  0  0  0  0
   19.4169  -21.6743  -12.8028 C   0  0  0  0  0  0  0  0  0  0  0  0
   19.4845  -20.4647  -13.0303 O   0  0  0  0  0  0  0  0  0  0  0  0
   18.3246  -22.3300  -13.4041 O   0  0  0  0  0  0  0  0  0  0  0  0
  1  2  1  0
  2  3  1  0
  3  5  1  0
  3  4  1  1
  5  7  1  0
  5  6  1  6
  7  8  2  0
 10 11  1  1
 10  9  1  0
 10 12  1  0
 12 14  1  0
 12 13  1  1
 13  7  1  0
 14 15  2  0
 16 14  1  0
 16 17  1  0
 17 23  1  0
 17 18  1  1
 19 18  1  0
 20 21  1  0
 20 19  1  0
 21 22  1  0
 23 24  2  0
 23 25  1  0
M  END
$$$$
