IVK.pdb
     RDKit          3D

 25 24  0  0  1  0  0  0  0  0999 V2000
   20.1735  -13.0699  -21.1987 C   0  0  0  0  0  0  0  0  0  0  0  0
   20.9170  -12.8955  -19.8783 C   0  0  0  0  0  0  0  0  0  0  0  0
   20.3174  -11.8065  -19.0490 C   0  0  2  0  0  0  0  0  0  0  0  0
   20.2347  -10.4918  -19.8042 C   0  0  0  0  0  0  0  0  0  0  0  0
   21.0701  -11.5318  -17.7732 C   0  0  2  0  0  0  0  0  0  0  0  0
   21.2649  -12.8060  -17.1111 N   0  0  0  0  0  0  0  0  0  0  0  0
   20.4543  -10.5252  -16.9222 C   0  0  0  0  0  0  0  0  0  0  0  0
   19.2201  -10.4130  -16.8247 O   0  0  0  0  0  0  0  0  0  0  0  0
   20.1093   -9.6323  -13.0606 C   0  0  0  0  0  0  0  0  0  0  0  0
   20.9437   -8.6282  -13.8406 C   0  0  1  0  0  0  0  0  0  0  0  0
   22.4104   -8.7262  -13.4942 C   0  0  0  0  0  0  0  0  0  0  0  0
   20.6461   -8.6050  -15.2817 C   0  0  2  0  0  0  0  0  0  0  0  0
   21.1827   -9.5827  -16.1285 N   0  0  0  0  0  0  0  0  0  0  0  0
   21.0217   -7.2437  -15.8023 C   0  0  0  0  0  0  0  0  0  0  0  0
   22.1677   -7.0291  -16.2853 O   0  0  0  0  0  0  0  0  0  0  0  0
   20.1185   -6.1639  -15.7723 N   0  0  0  0  0  0  0  0  0  0  0  0
   20.5485   -4.7928  -16.2896 C   0  0  1  0  0  0  0  0  0  0  0  0
   19.4249   -4.4412  -17.2022 C   0  0  0  0  0  0  0  0  0  0  0  0
   19.3403   -3.0959  -17.7321 C   0  0  0  0  0  0  0  0  0  0  0  0
   18.2522   -2.7179  -18.6405 C   0  0  0  0  0  0  0  0  0  0  0  0
   18.4810   -1.2555  -19.1397 C   0  0  0  0  0  0  0  0  0  0  0  0
   17.2804   -0.9461  -19.9041 N   0  0  0  0  0  0  0  0  0  0  0  0
   20.4972   -4.0053  -15.0360 C   0  0  0  0  0  0  0  0  0  0  0  0
   19.8125   -4.2806  -14.0487 O   0  0  0  0  0  0  0  0  0  0  0  0
   21.2764   -2.8384  -14.9100 O   0  0  0  0  0  0  0  0  0  0  0  0
  1  2  1  0
  2  3  1  0
  3  5  1  0
  3  4  1  6
  5  7  1  0
  5  6  1  1
  7  8  2  0
 10 11  1  6
 10  9  1  0
 10 12  1  0
 12 14  1  0
 12 13  1  6
 13  7  1  0
 14 15  2  0
 16 14  1  0
 16 17  1  0
 17 23  1  0
 17 18  1  6
 19 18  1  0
 20 21  1  0
 20 19  1  0
 21 22  1  0
 23 24  2  0
 23 25  1  0
M  END
$$$$
