IVK.pdb
     RDKit          3D

 25 24  0  0  1  0  0  0  0  0999 V2000
   22.2073  -20.8211   -8.7120 C   0  0  0  0  0  0  0  0  0  0  0  0
   23.6755  -21.0994   -9.0178 C   0  0  0  0  0  0  0  0  0  0  0  0
   24.1213  -20.3981  -10.2599 C   0  0  2  0  0  0  0  0  0  0  0  0
   23.3081  -20.8119  -11.4736 C   0  0  0  0  0  0  0  0  0  0  0  0
   25.5695  -20.6335  -10.6023 C   0  0  2  0  0  0  0  0  0  0  0  0
   26.3463  -20.2834   -9.4303 N   0  0  0  0  0  0  0  0  0  0  0  0
   26.0130  -19.9603  -11.8135 C   0  0  0  0  0  0  0  0  0  0  0  0
   26.2303  -18.7367  -11.8432 O   0  0  0  0  0  0  0  0  0  0  0  0
   27.8527  -22.0706  -15.1722 C   0  0  0  0  0  0  0  0  0  0  0  0
   27.9298  -20.5773  -14.8948 C   0  0  1  0  0  0  0  0  0  0  0  0
   28.4031  -19.8047  -16.1029 C   0  0  0  0  0  0  0  0  0  0  0  0
   26.7276  -20.0345  -14.2423 C   0  0  2  0  0  0  0  0  0  0  0  0
   26.2402  -20.6161  -13.0653 N   0  0  0  0  0  0  0  0  0  0  0  0
   25.6268  -20.0047  -15.2683 C   0  0  0  0  0  0  0  0  0  0  0  0
   24.9148  -21.0243  -15.4834 O   0  0  0  0  0  0  0  0  0  0  0  0
   25.3486  -18.8491  -16.0232 N   0  0  0  0  0  0  0  0  0  0  0  0
   24.1853  -18.8438  -17.0126 C   0  0  1  0  0  0  0  0  0  0  0  0
   23.2819  -17.8177  -16.4208 C   0  0  0  0  0  0  0  0  0  0  0  0
   22.0427  -17.4936  -17.0971 C   0  0  0  0  0  0  0  0  0  0  0  0
   21.1419  -16.4703  -16.5558 C   0  0  0  0  0  0  0  0  0  0  0  0
   19.8524  -16.4005  -17.4348 C   0  0  0  0  0  0  0  0  0  0  0  0
   19.0640  -15.3354  -16.8301 N   0  0  0  0  0  0  0  0  0  0  0  0
   24.8666  -18.3336  -18.2248 C   0  0  0  0  0  0  0  0  0  0  0  0
   25.4849  -17.2698  -18.3007 O   0  0  0  0  0  0  0  0  0  0  0  0
   24.8369  -19.0877  -19.4144 O   0  0  0  0  0  0  0  0  0  0  0  0
  1  2  1  0
  2  3  1  0
  3  5  1  0
  3  4  1  6
  5  7  1  0
  5  6  1  1
  7  8  2  0
 10 11  1  6
 10  9  1  0
 10 12  1  0
 12 14  1  0
 12 13  1  1
 13  7  1  0
 14 15  2  0
 16 14  1  0
 16 17  1  0
 17 23  1  0
 17 18  1  1
 19 18  1  0
 20 21  1  0
 20 19  1  0
 21 22  1  0
 23 24  2  0
 23 25  1  0
M  END
$$$$
