IVK.pdb
     RDKit          3D

 25 24  0  0  1  0  0  0  0  0999 V2000
   18.9788  -17.0637  -18.0423 C   0  0  0  0  0  0  0  0  0  0  0  0
   18.9806  -16.0924  -16.8663 C   0  0  0  0  0  0  0  0  0  0  0  0
   18.9755  -14.6707  -17.3269 C   0  0  2  0  0  0  0  0  0  0  0  0
   20.1490  -14.3608  -18.2392 C   0  0  0  0  0  0  0  0  0  0  0  0
   19.0187  -13.6691  -16.2024 C   0  0  2  0  0  0  0  0  0  0  0  0
   17.9548  -14.0162  -15.2820 N   0  0  0  0  0  0  0  0  0  0  0  0
   18.9782  -12.2815  -16.6378 C   0  0  0  0  0  0  0  0  0  0  0  0
   19.7263  -11.8514  -17.5326 O   0  0  0  0  0  0  0  0  0  0  0  0
   15.5735  -10.2221  -17.0461 C   0  0  0  0  0  0  0  0  0  0  0  0
   16.6851   -9.2962  -16.5774 C   0  0  1  0  0  0  0  0  0  0  0  0
   16.2818   -8.5076  -15.3543 C   0  0  0  0  0  0  0  0  0  0  0  0
   18.0008   -9.9496  -16.4891 C   0  0  2  0  0  0  0  0  0  0  0  0
   18.0976  -11.2906  -16.0978 N   0  0  0  0  0  0  0  0  0  0  0  0
   18.8661   -9.1107  -15.5875 C   0  0  0  0  0  0  0  0  0  0  0  0
   18.8804   -9.3045  -14.3406 O   0  0  0  0  0  0  0  0  0  0  0  0
   19.6875   -8.0849  -16.0934 N   0  0  0  0  0  0  0  0  0  0  0  0
   20.6725   -7.3694  -15.1714 C   0  0  1  0  0  0  0  0  0  0  0  0
   21.6182   -6.7572  -16.1460 C   0  0  0  0  0  0  0  0  0  0  0  0
   22.6634   -7.5758  -16.7252 C   0  0  0  0  0  0  0  0  0  0  0  0
   23.5302   -7.0431  -17.7819 C   0  0  0  0  0  0  0  0  0  0  0  0
   24.4739   -8.1768  -18.2959 C   0  0  0  0  0  0  0  0  0  0  0  0
   25.1874   -7.5705  -19.4116 N   0  0  0  0  0  0  0  0  0  0  0  0
   19.7822   -6.3521  -14.5658 C   0  0  0  0  0  0  0  0  0  0  0  0
   20.0525   -5.6651  -13.5787 O   0  0  0  0  0  0  0  0  0  0  0  0
   18.5124   -6.1104  -15.1262 O   0  0  0  0  0  0  0  0  0  0  0  0
  1  2  1  0
  2  3  1  0
  3  5  1  0
  3  4  1  6
  5  7  1  0
  5  6  1  1
  7  8  2  0
 10 11  1  1
 10  9  1  0
 10 12  1  0
 12 14  1  0
 12 13  1  1
 13  7  1  0
 14 15  2  0
 16 14  1  0
 16 17  1  0
 17 23  1  0
 17 18  1  6
 19 18  1  0
 20 21  1  0
 20 19  1  0
 21 22  1  0
 23 24  2  0
 23 25  1  0
M  END
$$$$
