IVK.pdb
     RDKit          3D

 25 24  0  0  1  0  0  0  0  0999 V2000
   25.4878  -20.8460   -6.4321 C   0  0  0  0  0  0  0  0  0  0  0  0
   26.3978  -20.2371   -7.4940 C   0  0  0  0  0  0  0  0  0  0  0  0
   25.7441  -20.2250   -8.8378 C   0  0  2  0  0  0  0  0  0  0  0  0
   25.2909  -21.6096   -9.2658 C   0  0  0  0  0  0  0  0  0  0  0  0
   26.6273  -19.6942   -9.9368 C   0  0  2  0  0  0  0  0  0  0  0  0
   27.1856  -18.4423   -9.4670 N   0  0  0  0  0  0  0  0  0  0  0  0
   25.9701  -19.5861  -11.2303 C   0  0  0  0  0  0  0  0  0  0  0  0
   24.8535  -19.0550  -11.3577 O   0  0  0  0  0  0  0  0  0  0  0  0
   27.8387  -18.5141  -14.8322 C   0  0  0  0  0  0  0  0  0  0  0  0
   26.9352  -19.7359  -14.8941 C   0  0  1  0  0  0  0  0  0  0  0  0
   27.7086  -20.9912  -15.2209 C   0  0  0  0  0  0  0  0  0  0  0  0
   26.0185  -19.8518  -13.7487 C   0  0  2  0  0  0  0  0  0  0  0  0
   26.5231  -20.0663  -12.4601 N   0  0  0  0  0  0  0  0  0  0  0  0
   25.0204  -20.9311  -14.0718 C   0  0  0  0  0  0  0  0  0  0  0  0
   25.2750  -22.1425  -13.8262 O   0  0  0  0  0  0  0  0  0  0  0  0
   23.7734  -20.6363  -14.6556 N   0  0  0  0  0  0  0  0  0  0  0  0
   22.7728  -21.7574  -14.9283 C   0  0  1  0  0  0  0  0  0  0  0  0
   21.5935  -21.3189  -14.1307 C   0  0  0  0  0  0  0  0  0  0  0  0
   20.3793  -22.1075  -14.1738 C   0  0  0  0  0  0  0  0  0  0  0  0
   19.1793  -21.6711  -13.4518 C   0  0  0  0  0  0  0  0  0  0  0  0
   18.0280  -22.6983  -13.6958 C   0  0  0  0  0  0  0  0  0  0  0  0
   16.9246  -22.1983  -12.8870 N   0  0  0  0  0  0  0  0  0  0  0  0
   22.5475  -21.5683  -16.3801 C   0  0  0  0  0  0  0  0  0  0  0  0
   22.7397  -20.5207  -17.0008 O   0  0  0  0  0  0  0  0  0  0  0  0
   22.0770  -22.6421  -17.1613 O   0  0  0  0  0  0  0  0  0  0  0  0
  1  2  1  0
  2  3  1  0
  3  5  1  0
  3  4  1  6
  5  7  1  0
  5  6  1  1
  7  8  2  0
 10 11  1  1
 10  9  1  0
 10 12  1  0
 12 14  1  0
 12 13  1  1
 13  7  1  0
 14 15  2  0
 16 14  1  0
 16 17  1  0
 17 23  1  0
 17 18  1  1
 19 18  1  0
 20 21  1  0
 20 19  1  0
 21 22  1  0
 23 24  2  0
 23 25  1  0
M  END
$$$$
