IVK.pdb
     RDKit          3D

 25 24  0  0  1  0  0  0  0  0999 V2000
   18.2208  -32.3283   -9.2512 C   0  0  0  0  0  0  0  0  0  0  0  0
   19.5316  -31.8819   -9.8909 C   0  0  0  0  0  0  0  0  0  0  0  0
   20.6404  -32.8408   -9.6001 C   0  0  2  0  0  0  0  0  0  0  0  0
   20.8176  -33.0756   -8.1104 C   0  0  0  0  0  0  0  0  0  0  0  0
   21.9780  -32.4016  -10.1363 C   0  0  2  0  0  0  0  0  0  0  0  0
   21.8562  -32.3314  -11.5785 N   0  0  0  0  0  0  0  0  0  0  0  0
   23.0969  -33.2165   -9.6884 C   0  0  0  0  0  0  0  0  0  0  0  0
   23.2033  -34.4151  -10.0006 O   0  0  0  0  0  0  0  0  0  0  0  0
   27.6901  -33.6640   -7.7516 C   0  0  0  0  0  0  0  0  0  0  0  0
   26.6074  -32.8008   -8.3803 C   0  0  1  0  0  0  0  0  0  0  0  0
   27.0718  -32.1670   -9.6700 C   0  0  0  0  0  0  0  0  0  0  0  0
   25.2928  -33.4587   -8.4498 C   0  0  2  0  0  0  0  0  0  0  0  0
   24.1649  -32.7393   -8.8636 N   0  0  0  0  0  0  0  0  0  0  0  0
   25.0184  -34.0709   -7.1025 C   0  0  0  0  0  0  0  0  0  0  0  0
   24.5514  -33.3754   -6.1586 O   0  0  0  0  0  0  0  0  0  0  0  0
   25.2688  -35.4319   -6.8422 N   0  0  0  0  0  0  0  0  0  0  0  0
   25.0457  -35.9959   -5.4406 C   0  0  1  0  0  0  0  0  0  0  0  0
   23.7408  -36.6977   -5.5947 C   0  0  0  0  0  0  0  0  0  0  0  0
   22.8703  -36.8303   -4.4446 C   0  0  0  0  0  0  0  0  0  0  0  0
   23.3381  -37.5018   -3.2273 C   0  0  0  0  0  0  0  0  0  0  0  0
   22.1750  -37.5512   -2.1856 C   0  0  0  0  0  0  0  0  0  0  0  0
   22.7680  -38.1862   -1.0165 N   0  0  0  0  0  0  0  0  0  0  0  0
   26.1715  -36.9547   -5.3552 C   0  0  0  0  0  0  0  0  0  0  0  0
   26.7873  -37.4187   -6.3171 O   0  0  0  0  0  0  0  0  0  0  0  0
   26.6147  -37.4038   -4.0956 O   0  0  0  0  0  0  0  0  0  0  0  0
  1  2  1  0
  2  3  1  0
  3  5  1  0
  3  4  1  1
  5  7  1  0
  5  6  1  6
  7  8  2  0
 10 11  1  6
 10  9  1  0
 10 12  1  0
 12 14  1  0
 12 13  1  1
 13  7  1  0
 14 15  2  0
 16 14  1  0
 16 17  1  0
 17 23  1  0
 17 18  1  6
 19 18  1  0
 20 21  1  0
 20 19  1  0
 21 22  1  0
 23 24  2  0
 23 25  1  0
M  END
$$$$
