IVK.pdb
     RDKit          3D

 25 24  0  0  1  0  0  0  0  0999 V2000
   26.7291  -15.1344  -18.4878 C   0  0  0  0  0  0  0  0  0  0  0  0
   26.4211  -14.1650  -17.3511 C   0  0  0  0  0  0  0  0  0  0  0  0
   25.2623  -13.2808  -17.6810 C   0  0  2  0  0  0  0  0  0  0  0  0
   25.4473  -12.5665  -19.0081 C   0  0  0  0  0  0  0  0  0  0  0  0
   24.9960  -12.2191  -16.6458 C   0  0  2  0  0  0  0  0  0  0  0  0
   24.8833  -12.8905  -15.3667 N   0  0  0  0  0  0  0  0  0  0  0  0
   23.8623  -11.3598  -16.9507 C   0  0  0  0  0  0  0  0  0  0  0  0
   23.7930  -10.7149  -18.0111 O   0  0  0  0  0  0  0  0  0  0  0  0
   19.9168  -12.2897  -16.2175 C   0  0  0  0  0  0  0  0  0  0  0  0
   20.2778  -10.8612  -15.8408 C   0  0  1  0  0  0  0  0  0  0  0  0
   20.0554  -10.5938  -14.3712 C   0  0  0  0  0  0  0  0  0  0  0  0
   21.5835  -10.4247  -16.3608 C   0  0  2  0  0  0  0  0  0  0  0  0
   22.7369  -11.1702  -16.0868 N   0  0  0  0  0  0  0  0  0  0  0  0
   21.7992   -9.0035  -15.9146 C   0  0  0  0  0  0  0  0  0  0  0  0
   22.4304   -8.7475  -14.8523 O   0  0  0  0  0  0  0  0  0  0  0  0
   21.3105   -7.9115  -16.6573 N   0  0  0  0  0  0  0  0  0  0  0  0
   21.5228   -6.4864  -16.1511 C   0  0  1  0  0  0  0  0  0  0  0  0
   21.2623   -5.6817  -17.3773 C   0  0  0  0  0  0  0  0  0  0  0  0
   21.2058   -4.2379  -17.2756 C   0  0  0  0  0  0  0  0  0  0  0  0
   21.0096   -3.4119  -18.4718 C   0  0  0  0  0  0  0  0  0  0  0  0
   21.0628   -1.9029  -18.0716 C   0  0  0  0  0  0  0  0  0  0  0  0
   20.8241   -1.1924  -19.3205 N   0  0  0  0  0  0  0  0  0  0  0  0
   20.4075   -6.3771  -15.1824 C   0  0  0  0  0  0  0  0  0  0  0  0
   19.3035   -6.9119  -15.3030 O   0  0  0  0  0  0  0  0  0  0  0  0
   20.5706   -5.6125  -14.0105 O   0  0  0  0  0  0  0  0  0  0  0  0
  1  2  1  0
  2  3  1  0
  3  5  1  0
  3  4  1  6
  5  7  1  0
  5  6  1  1
  7  8  2  0
 10 11  1  1
 10  9  1  0
 10 12  1  0
 12 14  1  0
 12 13  1  1
 13  7  1  0
 14 15  2  0
 16 14  1  0
 16 17  1  0
 17 23  1  0
 17 18  1  6
 19 18  1  0
 20 21  1  0
 20 19  1  0
 21 22  1  0
 23 24  2  0
 23 25  1  0
M  END
$$$$
