IVK.pdb
     RDKit          3D

 25 24  0  0  1  0  0  0  0  0999 V2000
   28.0989  -19.2974  -18.6120 C   0  0  0  0  0  0  0  0  0  0  0  0
   28.5547  -20.0409  -17.3605 C   0  0  0  0  0  0  0  0  0  0  0  0
   27.3993  -20.4044  -16.4851 C   0  0  2  0  0  0  0  0  0  0  0  0
   26.6402  -19.1811  -16.0024 C   0  0  0  0  0  0  0  0  0  0  0  0
   27.7905  -21.1886  -15.2597 C   0  0  2  0  0  0  0  0  0  0  0  0
   28.4274  -22.4064  -15.7190 N   0  0  0  0  0  0  0  0  0  0  0  0
   26.6984  -21.4223  -14.3273 C   0  0  0  0  0  0  0  0  0  0  0  0
   25.7982  -22.2465  -14.5629 O   0  0  0  0  0  0  0  0  0  0  0  0
   24.5494  -20.8742   -9.8282 C   0  0  0  0  0  0  0  0  0  0  0  0
   25.7608  -20.6284  -10.7140 C   0  0  1  0  0  0  0  0  0  0  0  0
   27.0170  -21.2275  -10.1277 C   0  0  0  0  0  0  0  0  0  0  0  0
   25.5282  -20.9398  -12.1334 C   0  0  2  0  0  0  0  0  0  0  0  0
   26.5475  -20.7472  -13.0741 N   0  0  0  0  0  0  0  0  0  0  0  0
   24.3049  -20.1802  -12.5716 C   0  0  0  0  0  0  0  0  0  0  0  0
   24.2896  -18.9184  -12.5644 O   0  0  0  0  0  0  0  0  0  0  0  0
   23.1384  -20.8400  -13.0038 N   0  0  0  0  0  0  0  0  0  0  0  0
   21.9077  -20.0311  -13.4079 C   0  0  1  0  0  0  0  0  0  0  0  0
   21.7473  -20.4085  -14.8400 C   0  0  0  0  0  0  0  0  0  0  0  0
   20.5296  -20.0436  -15.5343 C   0  0  0  0  0  0  0  0  0  0  0  0
   20.5747  -19.1737  -16.7145 C   0  0  0  0  0  0  0  0  0  0  0  0
   19.1222  -18.9407  -17.2399 C   0  0  0  0  0  0  0  0  0  0  0  0
   19.2786  -17.9540  -18.2998 N   0  0  0  0  0  0  0  0  0  0  0  0
   20.8760  -20.6704  -12.5588 C   0  0  0  0  0  0  0  0  0  0  0  0
   20.9014  -21.8376  -12.1631 O   0  0  0  0  0  0  0  0  0  0  0  0
   19.7547  -19.9273  -12.1405 O   0  0  0  0  0  0  0  0  0  0  0  0
  1  2  1  0
  2  3  1  0
  3  5  1  0
  3  4  1  1
  5  7  1  0
  5  6  1  6
  7  8  2  0
 10 11  1  1
 10  9  1  0
 10 12  1  0
 12 14  1  0
 12 13  1  6
 13  7  1  0
 14 15  2  0
 16 14  1  0
 16 17  1  0
 17 23  1  0
 17 18  1  6
 19 18  1  0
 20 21  1  0
 20 19  1  0
 21 22  1  0
 23 24  2  0
 23 25  1  0
M  END
$$$$
