IVK.pdb
     RDKit          3D

 25 24  0  0  1  0  0  0  0  0999 V2000
   27.6639  -15.2920  -15.4056 C   0  0  0  0  0  0  0  0  0  0  0  0
   26.1915  -15.5260  -15.0833 C   0  0  0  0  0  0  0  0  0  0  0  0
   25.3193  -14.4861  -15.7090 C   0  0  2  0  0  0  0  0  0  0  0  0
   25.7048  -13.0819  -15.2788 C   0  0  0  0  0  0  0  0  0  0  0  0
   23.8555  -14.6539  -15.3950 C   0  0  2  0  0  0  0  0  0  0  0  0
   23.5165  -16.0355  -15.6708 N   0  0  0  0  0  0  0  0  0  0  0  0
   22.9879  -13.6993  -16.0680 C   0  0  0  0  0  0  0  0  0  0  0  0
   22.8396  -13.7027  -17.3022 O   0  0  0  0  0  0  0  0  0  0  0  0
   19.3688  -13.2882  -16.4325 C   0  0  0  0  0  0  0  0  0  0  0  0
   19.8775  -11.9927  -15.8195 C   0  0  1  0  0  0  0  0  0  0  0  0
   19.3612  -11.7949  -14.4141 C   0  0  0  0  0  0  0  0  0  0  0  0
   21.3259  -11.7900  -15.9834 C   0  0  2  0  0  0  0  0  0  0  0  0
   22.2335  -12.6826  -15.4000 N   0  0  0  0  0  0  0  0  0  0  0  0
   21.6450  -10.3931  -15.5226 C   0  0  0  0  0  0  0  0  0  0  0  0
   22.0693  -10.1783  -14.3537 O   0  0  0  0  0  0  0  0  0  0  0  0
   21.4850   -9.2791  -16.3689 N   0  0  0  0  0  0  0  0  0  0  0  0
   21.8808   -7.8865  -15.8827 C   0  0  1  0  0  0  0  0  0  0  0  0
   21.7835   -7.0839  -17.1339 C   0  0  0  0  0  0  0  0  0  0  0  0
   21.9412   -5.6458  -17.0642 C   0  0  0  0  0  0  0  0  0  0  0  0
   21.8009   -4.8198  -18.2683 C   0  0  0  0  0  0  0  0  0  0  0  0
   22.1865   -3.3443  -17.9300 C   0  0  0  0  0  0  0  0  0  0  0  0
   21.9185   -2.6129  -19.1607 N   0  0  0  0  0  0  0  0  0  0  0  0
   20.7581   -7.5951  -14.9615 C   0  0  0  0  0  0  0  0  0  0  0  0
   19.5928   -7.9654  -15.1182 O   0  0  0  0  0  0  0  0  0  0  0  0
   20.9874   -6.8378  -13.7959 O   0  0  0  0  0  0  0  0  0  0  0  0
  1  2  1  0
  2  3  1  0
  3  5  1  0
  3  4  1  1
  5  7  1  0
  5  6  1  6
  7  8  2  0
 10 11  1  1
 10  9  1  0
 10 12  1  0
 12 14  1  0
 12 13  1  1
 13  7  1  0
 14 15  2  0
 16 14  1  0
 16 17  1  0
 17 23  1  0
 17 18  1  6
 19 18  1  0
 20 21  1  0
 20 19  1  0
 21 22  1  0
 23 24  2  0
 23 25  1  0
M  END
$$$$
