IVK.pdb
     RDKit          3D

 25 24  0  0  1  0  0  0  0  0999 V2000
   28.1683  -19.5279   -6.5443 C   0  0  0  0  0  0  0  0  0  0  0  0
   28.1801  -20.3122   -7.8526 C   0  0  0  0  0  0  0  0  0  0  0  0
   26.8971  -20.1516   -8.6019 C   0  0  2  0  0  0  0  0  0  0  0  0
   25.6978  -20.5991   -7.7853 C   0  0  0  0  0  0  0  0  0  0  0  0
   26.8532  -20.9160   -9.8994 C   0  0  2  0  0  0  0  0  0  0  0  0
   28.1859  -20.8695  -10.4662 N   0  0  0  0  0  0  0  0  0  0  0  0
   25.8170  -20.4715  -10.8187 C   0  0  0  0  0  0  0  0  0  0  0  0
   25.2965  -19.3462  -10.7279 O   0  0  0  0  0  0  0  0  0  0  0  0
   25.3811  -21.9468  -14.8324 C   0  0  0  0  0  0  0  0  0  0  0  0
   24.6804  -20.7296  -14.2493 C   0  0  1  0  0  0  0  0  0  0  0  0
   23.5585  -20.2473  -15.1377 C   0  0  0  0  0  0  0  0  0  0  0  0
   24.3282  -20.8748  -12.8277 C   0  0  2  0  0  0  0  0  0  0  0  0
   25.3002  -21.2597  -11.8960 N   0  0  0  0  0  0  0  0  0  0  0  0
   23.1624  -21.8229  -12.7421 C   0  0  0  0  0  0  0  0  0  0  0  0
   23.3279  -23.0663  -12.8809 O   0  0  0  0  0  0  0  0  0  0  0  0
   21.8517  -21.3660  -12.5057 N   0  0  0  0  0  0  0  0  0  0  0  0
   20.6983  -22.3633  -12.4188 C   0  0  1  0  0  0  0  0  0  0  0  0
   20.4869  -22.4628  -10.9477 C   0  0  0  0  0  0  0  0  0  0  0  0
   19.4397  -23.3262  -10.4417 C   0  0  0  0  0  0  0  0  0  0  0  0
   19.1982  -23.4412   -8.9994 C   0  0  0  0  0  0  0  0  0  0  0  0
   18.0546  -24.4753   -8.7483 C   0  0  0  0  0  0  0  0  0  0  0  0
   17.9444  -24.5422   -7.2975 N   0  0  0  0  0  0  0  0  0  0  0  0
   19.6206  -21.5841  -13.0712 C   0  0  0  0  0  0  0  0  0  0  0  0
   19.6047  -20.3582  -13.1995 O   0  0  0  0  0  0  0  0  0  0  0  0
   18.5006  -22.2504  -13.6064 O   0  0  0  0  0  0  0  0  0  0  0  0
  1  2  1  0
  2  3  1  0
  3  5  1  0
  3  4  1  1
  5  7  1  0
  5  6  1  6
  7  8  2  0
 10 11  1  6
 10  9  1  0
 10 12  1  0
 12 14  1  0
 12 13  1  1
 13  7  1  0
 14 15  2  0
 16 14  1  0
 16 17  1  0
 17 23  1  0
 17 18  1  1
 19 18  1  0
 20 21  1  0
 20 19  1  0
 21 22  1  0
 23 24  2  0
 23 25  1  0
M  END
$$$$
