TEA.pdb
     RDKit          3D

 22 21  0  0  1  0  0  0  0  0999 V2000
    8.6382  -12.4546   20.3955 C   0  0  0  0  0  0  0  0  0  0  0  0
    7.8508  -13.3194   19.4215 C   0  0  1  0  0  0  0  0  0  0  0  0
    8.2175  -12.9452   18.1484 O   0  0  0  0  0  0  0  0  0  0  0  0
    8.1893  -14.7564   19.7404 C   0  0  2  0  0  0  0  0  0  0  0  0
    7.5439  -15.6024   18.7812 N   0  0  0  0  0  0  0  0  0  0  0  0
    7.8098  -15.1520   21.1064 C   0  0  0  0  0  0  0  0  0  0  0  0
    6.5844  -15.3963   21.3815 O   0  0  0  0  0  0  0  0  0  0  0  0
    8.7197  -15.2895   22.1782 N   0  0  0  0  0  0  0  0  0  0  0  0
    8.3158  -15.7511   23.5238 C   0  0  1  0  0  0  0  0  0  0  0  0
    9.2900  -16.8604   23.8310 C   0  0  0  0  0  0  0  0  0  0  0  0
    9.1446  -17.4802   25.1860 C   0  0  0  0  0  0  0  0  0  0  0  0
   10.2045  -18.5306   25.3280 C   0  0  0  0  0  0  0  0  0  0  0  0
    9.8972  -19.7192   25.4768 O   0  0  0  0  0  0  0  0  0  0  0  0
    8.4540  -14.6552   24.4914 C   0  0  0  0  0  0  0  0  0  0  0  0
    9.5709  -14.0150   24.5516 O   0  0  0  0  0  0  0  0  0  0  0  0
   11.5629  -18.1944   25.2958 O   0  0  0  0  0  0  0  0  0  0  0  0
    6.4514  -12.4167   26.7485 C   0  0  0  0  0  0  0  0  0  0  0  0
    7.7434  -13.0889   26.3296 C   0  0  2  0  0  0  0  0  0  0  0  0
    7.4765  -14.1870   25.4002 N   0  0  0  0  0  0  0  0  0  0  0  0
    8.4528  -13.6119   27.5079 C   0  0  0  0  0  0  0  0  0  0  0  0
    8.4650  -14.8689   27.6709 O   0  0  0  0  0  0  0  0  0  0  0  0
    9.0963  -12.8296   28.4321 O   0  0  0  0  0  0  0  0  0  0  0  0
  2  4  1  0
  2  1  1  1
  2  3  1  0
  4  5  1  6
  6  4  1  0
  6  7  2  0
  8  6  1  0
  9  8  1  0
  9 10  1  1
 11 10  1  0
 12 16  1  0
 12 11  1  0
 13 12  2  0
 14  9  1  0
 15 14  2  0
 18 17  1  1
 18 19  1  0
 18 20  1  0
 19 14  1  0
 20 22  1  0
 21 20  2  0
M  END
$$$$
