TEA.pdb
     RDKit          3D

 22 21  0  0  1  0  0  0  0  0999 V2000
    9.2676  -12.0922   19.3801 C   0  0  0  0  0  0  0  0  0  0  0  0
    8.2789  -13.0275   18.6989 C   0  0  1  0  0  0  0  0  0  0  0  0
    7.3659  -12.2450   18.0283 O   0  0  0  0  0  0  0  0  0  0  0  0
    9.0818  -13.9218   17.7842 C   0  0  2  0  0  0  0  0  0  0  0  0
    8.1758  -14.7215   17.0149 N   0  0  0  0  0  0  0  0  0  0  0  0
   10.0354  -14.7812   18.5042 C   0  0  0  0  0  0  0  0  0  0  0  0
    9.6554  -15.9174   18.9532 O   0  0  0  0  0  0  0  0  0  0  0  0
   11.3849  -14.4433   18.7498 N   0  0  0  0  0  0  0  0  0  0  0  0
   12.3322  -15.3526   19.4299 C   0  0  1  0  0  0  0  0  0  0  0  0
   13.6817  -14.9126   18.9205 C   0  0  0  0  0  0  0  0  0  0  0  0
   14.2535  -15.7525   17.8210 C   0  0  0  0  0  0  0  0  0  0  0  0
   15.5928  -15.1859   17.4578 C   0  0  0  0  0  0  0  0  0  0  0  0
   16.6248  -15.8426   17.6398 O   0  0  0  0  0  0  0  0  0  0  0  0
   12.2420  -15.1728   20.8845 C   0  0  0  0  0  0  0  0  0  0  0  0
   11.9490  -14.0077   21.3509 O   0  0  0  0  0  0  0  0  0  0  0  0
   15.7090  -13.9048   16.9057 O   0  0  0  0  0  0  0  0  0  0  0  0
   10.2472  -16.0140   22.9722 C   0  0  0  0  0  0  0  0  0  0  0  0
   11.7470  -16.1011   23.1716 C   0  0  2  0  0  0  0  0  0  0  0  0
   12.4370  -16.1560   21.8825 N   0  0  0  0  0  0  0  0  0  0  0  0
   12.0896  -17.2973   23.9569 C   0  0  0  0  0  0  0  0  0  0  0  0
   12.5490  -18.2967   23.3268 O   0  0  0  0  0  0  0  0  0  0  0  0
   11.9440  -17.3962   25.3168 O   0  0  0  0  0  0  0  0  0  0  0  0
  2  4  1  0
  2  1  1  6
  2  3  1  0
  4  5  1  1
  6  4  1  0
  6  7  2  0
  8  6  1  0
  9  8  1  0
  9 10  1  6
 11 10  1  0
 12 16  1  0
 12 11  1  0
 13 12  2  0
 14  9  1  0
 15 14  2  0
 18 17  1  6
 18 19  1  0
 18 20  1  0
 19 14  1  0
 20 22  1  0
 21 20  2  0
M  END
$$$$
