TEA.pdb
     RDKit          3D

 22 21  0  0  1  0  0  0  0  0999 V2000
    9.0991  -12.4658   20.0060 C   0  0  0  0  0  0  0  0  0  0  0  0
    8.1047  -13.0366   19.0051 C   0  0  1  0  0  0  0  0  0  0  0  0
    7.6984  -12.0025   18.1921 O   0  0  0  0  0  0  0  0  0  0  0  0
    8.8200  -14.1364   18.2568 C   0  0  2  0  0  0  0  0  0  0  0  0
    7.9734  -14.5934   17.1953 N   0  0  0  0  0  0  0  0  0  0  0  0
    9.2117  -15.2638   19.1180 C   0  0  0  0  0  0  0  0  0  0  0  0
    8.3726  -16.1971   19.3664 O   0  0  0  0  0  0  0  0  0  0  0  0
   10.4841  -15.4062   19.7151 N   0  0  0  0  0  0  0  0  0  0  0  0
   10.8262  -16.5189   20.6271 C   0  0  1  0  0  0  0  0  0  0  0  0
   12.2504  -16.8564   20.2644 C   0  0  0  0  0  0  0  0  0  0  0  0
   12.4166  -17.6621   19.0137 C   0  0  0  0  0  0  0  0  0  0  0  0
   13.8822  -17.9042   18.8132 C   0  0  0  0  0  0  0  0  0  0  0  0
   14.3959  -17.7689   17.6965 O   0  0  0  0  0  0  0  0  0  0  0  0
   10.7379  -16.0681   22.0219 C   0  0  0  0  0  0  0  0  0  0  0  0
   11.5193  -15.1247   22.4219 O   0  0  0  0  0  0  0  0  0  0  0  0
   14.7030  -18.2880   19.8802 O   0  0  0  0  0  0  0  0  0  0  0  0
    8.4461  -15.5761   24.7676 C   0  0  0  0  0  0  0  0  0  0  0  0
    9.8498  -15.9920   24.3762 C   0  0  2  0  0  0  0  0  0  0  0  0
    9.8647  -16.5513   23.0243 N   0  0  0  0  0  0  0  0  0  0  0  0
   10.3685  -16.9933   25.3215 C   0  0  0  0  0  0  0  0  0  0  0  0
   10.5337  -16.6291   26.5244 O   0  0  0  0  0  0  0  0  0  0  0  0
   10.6811  -18.2851   24.9840 O   0  0  0  0  0  0  0  0  0  0  0  0
  2  4  1  0
  2  1  1  1
  2  3  1  0
  4  5  1  6
  6  4  1  0
  6  7  2  0
  8  6  1  0
  9  8  1  0
  9 10  1  6
 11 10  1  0
 12 16  1  0
 12 11  1  0
 13 12  2  0
 14  9  1  0
 15 14  2  0
 18 17  1  1
 18 19  1  0
 18 20  1  0
 19 14  1  0
 20 22  1  0
 21 20  2  0
M  END
$$$$
