TEA.pdb
     RDKit          3D

 22 21  0  0  1  0  0  0  0  0999 V2000
    7.3155  -11.9489   19.4565 C   0  0  0  0  0  0  0  0  0  0  0  0
    8.3843  -12.9773   19.7977 C   0  0  1  0  0  0  0  0  0  0  0  0
    7.8272  -13.8731   20.6824 O   0  0  0  0  0  0  0  0  0  0  0  0
    8.8107  -13.6132   18.4959 C   0  0  2  0  0  0  0  0  0  0  0  0
    7.6610  -14.2012   17.8754 N   0  0  0  0  0  0  0  0  0  0  0  0
    9.8712  -14.6202   18.6624 C   0  0  0  0  0  0  0  0  0  0  0  0
    9.5737  -15.8646   18.6616 O   0  0  0  0  0  0  0  0  0  0  0  0
   11.2405  -14.3156   18.8293 N   0  0  0  0  0  0  0  0  0  0  0  0
   12.2654  -15.3428   19.1144 C   0  0  1  0  0  0  0  0  0  0  0  0
   13.5307  -14.7578   18.5393 C   0  0  0  0  0  0  0  0  0  0  0  0
   14.7734  -15.5539   18.7903 C   0  0  0  0  0  0  0  0  0  0  0  0
   15.9301  -14.7969   18.2110 C   0  0  0  0  0  0  0  0  0  0  0  0
   16.7799  -14.2840   18.9486 O   0  0  0  0  0  0  0  0  0  0  0  0
   12.3934  -15.5332   20.5648 C   0  0  0  0  0  0  0  0  0  0  0  0
   12.6635  -14.5135   21.3052 O   0  0  0  0  0  0  0  0  0  0  0  0
   16.0772  -14.6519   16.8265 O   0  0  0  0  0  0  0  0  0  0  0  0
   11.1613  -17.6585   23.2822 C   0  0  0  0  0  0  0  0  0  0  0  0
   12.2749  -16.7802   22.7485 C   0  0  2  0  0  0  0  0  0  0  0  0
   12.2460  -16.7409   21.2862 N   0  0  0  0  0  0  0  0  0  0  0  0
   13.5829  -17.2855   23.1948 C   0  0  0  0  0  0  0  0  0  0  0  0
   13.7888  -17.3473   24.4441 O   0  0  0  0  0  0  0  0  0  0  0  0
   14.5837  -17.6905   22.3495 O   0  0  0  0  0  0  0  0  0  0  0  0
  2  4  1  0
  2  1  1  6
  2  3  1  0
  4  5  1  1
  6  4  1  0
  6  7  2  0
  8  6  1  0
  9  8  1  0
  9 10  1  1
 11 10  1  0
 12 16  1  0
 12 11  1  0
 13 12  2  0
 14  9  1  0
 15 14  2  0
 18 17  1  6
 18 19  1  0
 18 20  1  0
 19 14  1  0
 20 22  1  0
 21 20  2  0
M  END
$$$$
