TEA.pdb
     RDKit          3D

 22 21  0  0  1  0  0  0  0  0999 V2000
    8.4543  -12.4249   20.1794 C   0  0  0  0  0  0  0  0  0  0  0  0
    7.7388  -13.4140   19.2705 C   0  0  1  0  0  0  0  0  0  0  0  0
    7.8881  -12.9676   17.9767 O   0  0  0  0  0  0  0  0  0  0  0  0
    8.3705  -14.7646   19.5109 C   0  0  2  0  0  0  0  0  0  0  0  0
    7.8549  -15.6894   18.5458 N   0  0  0  0  0  0  0  0  0  0  0  0
    8.1492  -15.2739   20.8740 C   0  0  0  0  0  0  0  0  0  0  0  0
    7.0196  -15.7867   21.1868 O   0  0  0  0  0  0  0  0  0  0  0  0
    9.1161  -15.2422   21.9034 N   0  0  0  0  0  0  0  0  0  0  0  0
    8.8539  -15.7409   23.2707 C   0  0  1  0  0  0  0  0  0  0  0  0
   10.0680  -16.5773   23.5875 C   0  0  0  0  0  0  0  0  0  0  0  0
   10.0853  -17.9386   22.9648 C   0  0  0  0  0  0  0  0  0  0  0  0
   11.3358  -18.6337   23.4119 C   0  0  0  0  0  0  0  0  0  0  0  0
   12.2735  -17.9913   23.8992 O   0  0  0  0  0  0  0  0  0  0  0  0
    8.7431  -14.6116   24.2027 C   0  0  0  0  0  0  0  0  0  0  0  0
    9.7021  -13.7524   24.2567 O   0  0  0  0  0  0  0  0  0  0  0  0
   11.4734  -20.0213   23.2899 O   0  0  0  0  0  0  0  0  0  0  0  0
    6.2256  -12.6272   26.0896 C   0  0  0  0  0  0  0  0  0  0  0  0
    7.6461  -13.1246   25.9123 C   0  0  2  0  0  0  0  0  0  0  0  0
    7.6718  -14.3290   25.0819 N   0  0  0  0  0  0  0  0  0  0  0  0
    8.2499  -13.4239   27.2204 C   0  0  0  0  0  0  0  0  0  0  0  0
    8.3756  -12.4635   28.0381 O   0  0  0  0  0  0  0  0  0  0  0  0
    8.6807  -14.6673   27.6058 O   0  0  0  0  0  0  0  0  0  0  0  0
  2  4  1  0
  2  1  1  1
  2  3  1  0
  4  5  1  6
  6  4  1  0
  6  7  2  0
  8  6  1  0
  9  8  1  0
  9 10  1  1
 11 10  1  0
 12 16  1  0
 12 11  1  0
 13 12  2  0
 14  9  1  0
 15 14  2  0
 18 17  1  1
 18 19  1  0
 18 20  1  0
 19 14  1  0
 20 22  1  0
 21 20  2  0
M  END
$$$$
