TEA.pdb
     RDKit          3D

 22 21  0  0  1  0  0  0  0  0999 V2000
    9.5574  -12.4679   19.4174 C   0  0  0  0  0  0  0  0  0  0  0  0
    8.2807  -12.9799   18.7660 C   0  0  1  0  0  0  0  0  0  0  0  0
    7.7587  -11.9501   18.0160 O   0  0  0  0  0  0  0  0  0  0  0  0
    8.6643  -14.1838   17.9386 C   0  0  2  0  0  0  0  0  0  0  0  0
    7.5103  -14.6292   17.2159 N   0  0  0  0  0  0  0  0  0  0  0  0
    9.2200  -15.2854   18.7410 C   0  0  0  0  0  0  0  0  0  0  0  0
    8.4340  -16.1287   19.2959 O   0  0  0  0  0  0  0  0  0  0  0  0
   10.6000  -15.4968   18.9572 N   0  0  0  0  0  0  0  0  0  0  0  0
   11.1243  -16.5814   19.8149 C   0  0  1  0  0  0  0  0  0  0  0  0
   12.5002  -16.8471   19.2579 C   0  0  0  0  0  0  0  0  0  0  0  0
   12.5671  -17.9044   18.2002 C   0  0  0  0  0  0  0  0  0  0  0  0
   13.8101  -17.6724   17.3952 C   0  0  0  0  0  0  0  0  0  0  0  0
   13.8062  -17.8361   16.1694 O   0  0  0  0  0  0  0  0  0  0  0  0
   11.2070  -16.1227   21.2074 C   0  0  0  0  0  0  0  0  0  0  0  0
   11.9578  -15.1133   21.4869 O   0  0  0  0  0  0  0  0  0  0  0  0
   15.0015  -17.2664   18.0077 O   0  0  0  0  0  0  0  0  0  0  0  0
    9.3849  -15.5791   24.1995 C   0  0  0  0  0  0  0  0  0  0  0  0
   10.7021  -16.1130   23.6737 C   0  0  2  0  0  0  0  0  0  0  0  0
   10.5358  -16.6643   22.3286 N   0  0  0  0  0  0  0  0  0  0  0  0
   11.2221  -17.1605   24.5668 C   0  0  0  0  0  0  0  0  0  0  0  0
   11.2175  -18.3516   24.1332 O   0  0  0  0  0  0  0  0  0  0  0  0
   11.7074  -16.9289   25.8281 O   0  0  0  0  0  0  0  0  0  0  0  0
  2  4  1  0
  2  1  1  6
  2  3  1  0
  4  5  1  1
  6  4  1  0
  6  7  2  0
  8  6  1  0
  9  8  1  0
  9 10  1  6
 11 10  1  0
 12 16  1  0
 12 11  1  0
 13 12  2  0
 14  9  1  0
 15 14  2  0
 18 17  1  1
 18 19  1  0
 18 20  1  0
 19 14  1  0
 20 22  1  0
 21 20  2  0
M  END
$$$$
