TEA.pdb
     RDKit          3D

 22 21  0  0  1  0  0  0  0  0999 V2000
    7.4468  -12.9769   18.8190 C   0  0  0  0  0  0  0  0  0  0  0  0
    7.5313  -14.0759   19.8685 C   0  0  1  0  0  0  0  0  0  0  0  0
    7.8908  -15.2369   19.2218 O   0  0  0  0  0  0  0  0  0  0  0  0
    8.5465  -13.6259   20.8921 C   0  0  2  0  0  0  0  0  0  0  0  0
    9.8270  -13.5325   20.2566 N   0  0  0  0  0  0  0  0  0  0  0  0
    8.6220  -14.5141   22.0633 C   0  0  0  0  0  0  0  0  0  0  0  0
    7.5930  -14.6783   22.8056 O   0  0  0  0  0  0  0  0  0  0  0  0
    9.7789  -15.2267   22.4500 N   0  0  0  0  0  0  0  0  0  0  0  0
    9.8127  -16.1368   23.6151 C   0  0  1  0  0  0  0  0  0  0  0  0
   10.8903  -17.1314   23.2635 C   0  0  0  0  0  0  0  0  0  0  0  0
   11.2133  -18.1273   24.3335 C   0  0  0  0  0  0  0  0  0  0  0  0
   12.2430  -19.0706   23.7890 C   0  0  0  0  0  0  0  0  0  0  0  0
   11.9055  -20.1457   23.2795 O   0  0  0  0  0  0  0  0  0  0  0  0
   10.1722  -15.3872   24.8255 C   0  0  0  0  0  0  0  0  0  0  0  0
   11.2039  -14.6154   24.7965 O   0  0  0  0  0  0  0  0  0  0  0  0
   13.6068  -18.7601   23.8432 O   0  0  0  0  0  0  0  0  0  0  0  0
    9.0203  -13.5130   27.5598 C   0  0  0  0  0  0  0  0  0  0  0  0
    9.9838  -14.6321   27.2196 C   0  0  2  0  0  0  0  0  0  0  0  0
    9.5007  -15.3980   26.0704 N   0  0  0  0  0  0  0  0  0  0  0  0
   10.1462  -15.5343   28.3707 C   0  0  0  0  0  0  0  0  0  0  0  0
    9.7248  -16.7231   28.2438 O   0  0  0  0  0  0  0  0  0  0  0  0
   10.7209  -15.1711   29.5615 O   0  0  0  0  0  0  0  0  0  0  0  0
  2  4  1  0
  2  1  1  6
  2  3  1  0
  4  5  1  6
  6  4  1  0
  6  7  2  0
  8  6  1  0
  9  8  1  0
  9 10  1  6
 11 10  1  0
 12 16  1  0
 12 11  1  0
 13 12  2  0
 14  9  1  0
 15 14  2  0
 18 17  1  1
 18 19  1  0
 18 20  1  0
 19 14  1  0
 20 22  1  0
 21 20  2  0
M  END
$$$$
