TEA.pdb
     RDKit          3D

 22 21  0  0  1  0  0  0  0  0999 V2000
    8.8715  -12.3621   19.9643 C   0  0  0  0  0  0  0  0  0  0  0  0
    7.9392  -12.9088   18.8927 C   0  0  1  0  0  0  0  0  0  0  0  0
    7.8648  -11.9669   17.8913 O   0  0  0  0  0  0  0  0  0  0  0  0
    8.5250  -14.2224   18.4321 C   0  0  2  0  0  0  0  0  0  0  0  0
    7.7417  -14.7145   17.3382 N   0  0  0  0  0  0  0  0  0  0  0  0
    8.5982  -15.2312   19.5013 C   0  0  0  0  0  0  0  0  0  0  0  0
    7.5590  -15.9122   19.8067 O   0  0  0  0  0  0  0  0  0  0  0  0
    9.7635  -15.5208   20.2457 N   0  0  0  0  0  0  0  0  0  0  0  0
    9.8190  -16.5804   21.2756 C   0  0  1  0  0  0  0  0  0  0  0  0
   11.1877  -17.1870   21.0942 C   0  0  0  0  0  0  0  0  0  0  0  0
   11.5064  -18.3280   22.0094 C   0  0  0  0  0  0  0  0  0  0  0  0
   12.8629  -18.8486   21.6412 C   0  0  0  0  0  0  0  0  0  0  0  0
   13.6131  -18.1904   20.9109 O   0  0  0  0  0  0  0  0  0  0  0  0
    9.6867  -15.9868   22.6122 C   0  0  0  0  0  0  0  0  0  0  0  0
   10.4967  -15.0463   22.9588 O   0  0  0  0  0  0  0  0  0  0  0  0
   13.3131  -20.0874   22.1126 O   0  0  0  0  0  0  0  0  0  0  0  0
    7.2645  -15.3314   25.2935 C   0  0  0  0  0  0  0  0  0  0  0  0
    8.6958  -15.6361   24.8997 C   0  0  2  0  0  0  0  0  0  0  0  0
    8.7410  -16.3234   23.6087 N   0  0  0  0  0  0  0  0  0  0  0  0
    9.3386  -16.4783   25.9208 C   0  0  0  0  0  0  0  0  0  0  0  0
    9.3577  -16.0405   27.1102 O   0  0  0  0  0  0  0  0  0  0  0  0
    9.9130  -17.6973   25.6667 O   0  0  0  0  0  0  0  0  0  0  0  0
  2  4  1  0
  2  1  1  1
  2  3  1  0
  4  5  1  6
  6  4  1  0
  6  7  2  0
  8  6  1  0
  9  8  1  0
  9 10  1  1
 11 10  1  0
 12 16  1  0
 12 11  1  0
 13 12  2  0
 14  9  1  0
 15 14  2  0
 18 17  1  1
 18 19  1  0
 18 20  1  0
 19 14  1  0
 20 22  1  0
 21 20  2  0
M  END
$$$$
