TEA.pdb
     RDKit          3D

 22 21  0  0  1  0  0  0  0  0999 V2000
    8.8104  -12.1159   19.2995 C   0  0  0  0  0  0  0  0  0  0  0  0
    8.0877  -13.1631   18.4644 C   0  0  1  0  0  0  0  0  0  0  0  0
    7.2494  -12.4950   17.6005 O   0  0  0  0  0  0  0  0  0  0  0  0
    9.1514  -13.9691   17.7574 C   0  0  2  0  0  0  0  0  0  0  0  0
    8.5185  -14.8095   16.7851 N   0  0  0  0  0  0  0  0  0  0  0  0
    9.9712  -14.7777   18.6741 C   0  0  0  0  0  0  0  0  0  0  0  0
    9.5320  -15.9023   19.0975 O   0  0  0  0  0  0  0  0  0  0  0  0
   11.2498  -14.4014   19.1425 N   0  0  0  0  0  0  0  0  0  0  0  0
   12.0544  -15.2440   20.0532 C   0  0  1  0  0  0  0  0  0  0  0  0
   13.4311  -14.6321   19.9872 C   0  0  0  0  0  0  0  0  0  0  0  0
   14.4501  -15.2550   20.8898 C   0  0  0  0  0  0  0  0  0  0  0  0
   15.7294  -14.4888   20.7379 C   0  0  0  0  0  0  0  0  0  0  0  0
   16.1535  -13.7822   21.6600 O   0  0  0  0  0  0  0  0  0  0  0  0
   11.5149  -15.1640   21.4166 C   0  0  0  0  0  0  0  0  0  0  0  0
   11.2726  -14.0041   21.9233 O   0  0  0  0  0  0  0  0  0  0  0  0
   16.4732  -14.5532   19.5539 O   0  0  0  0  0  0  0  0  0  0  0  0
    9.2655  -16.2010   23.7735 C   0  0  0  0  0  0  0  0  0  0  0  0
   10.7668  -16.0289   23.6593 C   0  0  2  0  0  0  0  0  0  0  0  0
   11.2076  -16.2411   22.2804 N   0  0  0  0  0  0  0  0  0  0  0  0
   11.4591  -16.9809   24.5423 C   0  0  0  0  0  0  0  0  0  0  0  0
   12.1441  -17.8945   23.9919 O   0  0  0  0  0  0  0  0  0  0  0  0
   11.4093  -16.9405   25.9120 O   0  0  0  0  0  0  0  0  0  0  0  0
  2  4  1  0
  2  1  1  1
  2  3  1  0
  4  5  1  6
  6  4  1  0
  6  7  2  0
  8  6  1  0
  9  8  1  0
  9 10  1  1
 11 10  1  0
 12 16  1  0
 12 11  1  0
 13 12  2  0
 14  9  1  0
 15 14  2  0
 18 17  1  6
 18 19  1  0
 18 20  1  0
 19 14  1  0
 20 22  1  0
 21 20  2  0
M  END
$$$$
