TEA.pdb
     RDKit          3D

 22 21  0  0  1  0  0  0  0  0999 V2000
    9.0164  -12.3968   19.6743 C   0  0  0  0  0  0  0  0  0  0  0  0
    7.9593  -13.1221   18.8541 C   0  0  1  0  0  0  0  0  0  0  0  0
    7.5997  -12.2908   17.8173 O   0  0  0  0  0  0  0  0  0  0  0  0
    8.5794  -14.4186   18.3899 C   0  0  2  0  0  0  0  0  0  0  0  0
    7.6906  -15.0424   17.4554 N   0  0  0  0  0  0  0  0  0  0  0  0
    8.8882  -15.3416   19.4940 C   0  0  0  0  0  0  0  0  0  0  0  0
    8.0031  -16.1741   19.8947 O   0  0  0  0  0  0  0  0  0  0  0  0
   10.1261  -15.3862   20.1731 N   0  0  0  0  0  0  0  0  0  0  0  0
   10.4529  -16.4128   21.1861 C   0  0  1  0  0  0  0  0  0  0  0  0
   11.8848  -16.7752   20.8820 C   0  0  0  0  0  0  0  0  0  0  0  0
   12.0757  -18.0773   20.1683 C   0  0  0  0  0  0  0  0  0  0  0  0
   13.5459  -18.2716   19.9502 C   0  0  0  0  0  0  0  0  0  0  0  0
   14.1318  -19.2448   20.4391 O   0  0  0  0  0  0  0  0  0  0  0  0
   10.3365  -15.8412   22.5337 C   0  0  0  0  0  0  0  0  0  0  0  0
   10.5053  -14.5731   22.6889 O   0  0  0  0  0  0  0  0  0  0  0  0
   14.2897  -17.3607   19.1911 O   0  0  0  0  0  0  0  0  0  0  0  0
    8.3677  -15.0097   24.6713 C   0  0  0  0  0  0  0  0  0  0  0  0
    9.6109  -15.8322   24.9443 C   0  0  2  0  0  0  0  0  0  0  0  0
   10.0442  -16.5305   23.7338 N   0  0  0  0  0  0  0  0  0  0  0  0
    9.3493  -16.8171   26.0057 C   0  0  0  0  0  0  0  0  0  0  0  0
    9.1432  -16.3734   27.1751 O   0  0  0  0  0  0  0  0  0  0  0  0
    9.3148  -18.1737   25.8089 O   0  0  0  0  0  0  0  0  0  0  0  0
  2  4  1  0
  2  1  1  1
  2  3  1  0
  4  5  1  6
  6  4  1  0
  6  7  2  0
  8  6  1  0
  9  8  1  0
  9 10  1  6
 11 10  1  0
 12 16  1  0
 12 11  1  0
 13 12  2  0
 14  9  1  0
 15 14  2  0
 18 17  1  6
 18 19  1  0
 18 20  1  0
 19 14  1  0
 20 22  1  0
 21 20  2  0
M  END
$$$$
