TEA.pdb
     RDKit          3D

 22 21  0  0  1  0  0  0  0  0999 V2000
    8.8869  -12.2374   20.2592 C   0  0  0  0  0  0  0  0  0  0  0  0
    8.0915  -13.0234   19.2267 C   0  0  1  0  0  0  0  0  0  0  0  0
    8.4044  -12.5110   17.9878 O   0  0  0  0  0  0  0  0  0  0  0  0
    8.4807  -14.4739   19.3866 C   0  0  2  0  0  0  0  0  0  0  0  0
    7.8444  -15.2352   18.3532 N   0  0  0  0  0  0  0  0  0  0  0  0
    8.1392  -15.0235   20.7086 C   0  0  0  0  0  0  0  0  0  0  0  0
    6.9457  -15.4192   20.9450 O   0  0  0  0  0  0  0  0  0  0  0  0
    9.0535  -15.1551   21.7775 N   0  0  0  0  0  0  0  0  0  0  0  0
    8.6865  -15.7428   23.0840 C   0  0  1  0  0  0  0  0  0  0  0  0
    9.7818  -16.7451   23.3480 C   0  0  0  0  0  0  0  0  0  0  0  0
    9.7301  -17.4082   24.6892 C   0  0  0  0  0  0  0  0  0  0  0  0
   10.8543  -18.3973   24.7575 C   0  0  0  0  0  0  0  0  0  0  0  0
   11.4019  -18.8006   23.7246 O   0  0  0  0  0  0  0  0  0  0  0  0
    8.6767  -14.6993   24.1171 C   0  0  0  0  0  0  0  0  0  0  0  0
    9.7012  -13.9258   24.2306 O   0  0  0  0  0  0  0  0  0  0  0  0
   11.3109  -18.8873   25.9866 O   0  0  0  0  0  0  0  0  0  0  0  0
    6.3563  -12.7842   26.3368 C   0  0  0  0  0  0  0  0  0  0  0  0
    7.7346  -13.3142   25.9963 C   0  0  2  0  0  0  0  0  0  0  0  0
    7.6419  -14.4170   25.0391 N   0  0  0  0  0  0  0  0  0  0  0  0
    8.4166  -13.7834   27.2128 C   0  0  0  0  0  0  0  0  0  0  0  0
    8.5931  -15.0324   27.3375 O   0  0  0  0  0  0  0  0  0  0  0  0
    8.8694  -12.9593   28.2109 O   0  0  0  0  0  0  0  0  0  0  0  0
  2  4  1  0
  2  1  1  1
  2  3  1  0
  4  5  1  6
  6  4  1  0
  6  7  2  0
  8  6  1  0
  9  8  1  0
  9 10  1  1
 11 10  1  0
 12 16  1  0
 12 11  1  0
 13 12  2  0
 14  9  1  0
 15 14  2  0
 18 17  1  1
 18 19  1  0
 18 20  1  0
 19 14  1  0
 20 22  1  0
 21 20  2  0
M  END
$$$$
