YCH.pdb
     RDKit          3D

 29 30  0  0  1  0  0  0  0  0999 V2000
   30.0530  -16.6145  -19.2530 O   0  0  0  0  0  0  0  0  0  0  0  0
   29.2561  -17.3239  -18.3663 C   0  0  0  0  0  0  0  0  0  0  0  0
   29.3997  -17.2057  -17.0007 C   0  0  0  0  0  0  0  0  0  0  0  0
   28.5812  -17.9340  -16.1402 C   0  0  0  0  0  0  0  0  0  0  0  0
   27.6117  -18.7873  -16.6250 C   0  0  0  0  0  0  0  0  0  0  0  0
   26.7833  -19.5251  -15.6492 C   0  0  0  0  0  0  0  0  0  0  0  0
   27.4795  -20.7888  -15.1625 C   0  0  2  0  0  0  0  0  0  0  0  0
   27.6886  -21.7242  -16.2495 N   0  0  0  0  0  0  0  0  0  0  0  0
   26.6017  -21.3696  -14.1119 C   0  0  0  0  0  0  0  0  0  0  0  0
   25.6391  -22.0819  -14.4958 O   0  0  0  0  0  0  0  0  0  0  0  0
   27.4611  -18.9118  -17.9722 C   0  0  0  0  0  0  0  0  0  0  0  0
   28.2807  -18.1825  -18.8336 C   0  0  0  0  0  0  0  0  0  0  0  0
   26.7762  -21.1758  -12.7273 N   0  0  0  0  0  0  0  0  0  0  0  0
   25.7126  -21.2291  -11.7569 C   0  0  1  0  0  0  0  0  0  0  0  0
   26.2690  -20.9147  -10.3622 C   0  0  0  0  0  0  0  0  0  0  0  0
   24.9249  -20.9181   -9.1446 S   0  0  0  0  0  0  0  0  0  0  0  0
   24.6092  -20.3014  -12.1025 C   0  0  0  0  0  0  0  0  0  0  0  0
   24.9227  -19.1538  -12.5025 O   0  0  0  0  0  0  0  0  0  0  0  0
   23.2442  -20.6788  -11.9915 N   0  0  0  0  0  0  0  0  0  0  0  0
   22.2443  -20.4831  -12.9896 C   0  0  1  0  0  0  0  0  0  0  0  0
   22.6680  -20.8379  -14.4051 C   0  0  0  0  0  0  0  0  0  0  0  0
   21.6660  -20.4870  -15.4129 C   0  0  0  0  0  0  0  0  0  0  0  0
   20.4778  -19.8349  -15.2848 C   0  0  0  0  0  0  0  0  0  0  0  0
   19.8791  -19.7246  -16.5040 N   0  0  0  0  0  0  0  0  0  0  0  0
   20.6942  -20.3081  -17.3943 C   0  0  0  0  0  0  0  0  0  0  0  0
   21.7693  -20.7691  -16.7516 N   0  0  0  0  0  0  0  0  0  0  0  0
   20.9141  -21.0153  -12.6745 C   0  0  0  0  0  0  0  0  0  0  0  0
   20.6415  -22.3430  -12.4362 O   0  0  0  0  0  0  0  0  0  0  0  0
   19.9534  -20.1823  -12.6203 O   0  0  0  0  0  0  0  0  0  0  0  0
  2  1  1  0
  3  2  2  0
  4  3  1  0
  5  4  2  0
  5 11  1  0
  6  5  1  0
  7  8  1  6
  7  6  1  0
  9  7  1  0
  9 13  1  0
 10  9  2  0
 11 12  2  0
 12  2  1  0
 14 13  1  0
 14 15  1  1
 15 16  1  0
 17 14  1  0
 18 17  2  0
 19 17  1  0
 20 27  1  0
 20 19  1  0
 21 22  1  0
 20 21  1  6
 22 26  1  0
 23 22  2  0
 23 24  1  0
 24 25  1  0
 26 25  2  0
 27 28  1  0
 29 27  2  0
M  END
$$$$
