YCH.pdb
     RDKit          3D

 29 30  0  0  1  0  0  0  0  0999 V2000
   21.2970   -5.6491  -15.0032 O   0  0  0  0  0  0  0  0  0  0  0  0
   21.0957   -6.9867  -15.3111 C   0  0  0  0  0  0  0  0  0  0  0  0
   19.8755   -7.4610  -15.7417 C   0  0  0  0  0  0  0  0  0  0  0  0
   19.7101   -8.8113  -16.0418 C   0  0  0  0  0  0  0  0  0  0  0  0
   20.7533   -9.7055  -15.9181 C   0  0  0  0  0  0  0  0  0  0  0  0
   20.4996  -11.1214  -16.2554 C   0  0  0  0  0  0  0  0  0  0  0  0
   21.3450  -11.5781  -17.4365 C   0  0  2  0  0  0  0  0  0  0  0  0
   21.0771  -10.7770  -18.6142 N   0  0  0  0  0  0  0  0  0  0  0  0
   21.0023  -13.0069  -17.6661 C   0  0  0  0  0  0  0  0  0  0  0  0
   20.1110  -13.2549  -18.5179 O   0  0  0  0  0  0  0  0  0  0  0  0
   21.9630   -9.2479  -15.4936 C   0  0  0  0  0  0  0  0  0  0  0  0
   22.1284   -7.8959  -15.1931 C   0  0  0  0  0  0  0  0  0  0  0  0
   21.6052  -14.0910  -16.9980 N   0  0  0  0  0  0  0  0  0  0  0  0
   21.3016  -15.4760  -17.2536 C   0  0  1  0  0  0  0  0  0  0  0  0
   22.5088  -16.3469  -16.8825 C   0  0  0  0  0  0  0  0  0  0  0  0
   22.9765  -16.0526  -15.1551 S   0  0  0  0  0  0  0  0  0  0  0  0
   20.0920  -15.9160  -16.5181 C   0  0  0  0  0  0  0  0  0  0  0  0
   19.6928  -15.1903  -15.5751 O   0  0  0  0  0  0  0  0  0  0  0  0
   19.3984  -17.1097  -16.8533 N   0  0  0  0  0  0  0  0  0  0  0  0
   18.0458  -17.4080  -16.5132 C   0  0  1  0  0  0  0  0  0  0  0  0
   17.0326  -16.3465  -16.9076 C   0  0  0  0  0  0  0  0  0  0  0  0
   15.6800  -16.6321  -16.4264 C   0  0  0  0  0  0  0  0  0  0  0  0
   15.0147  -16.1616  -15.3358 C   0  0  0  0  0  0  0  0  0  0  0  0
   13.7637  -16.7003  -15.2915 N   0  0  0  0  0  0  0  0  0  0  0  0
   13.6476  -17.5078  -16.3554 C   0  0  0  0  0  0  0  0  0  0  0  0
   14.7907  -17.4751  -17.0436 N   0  0  0  0  0  0  0  0  0  0  0  0
   17.5812  -18.7547  -16.8631 C   0  0  0  0  0  0  0  0  0  0  0  0
   17.1655  -19.6979  -15.9514 O   0  0  0  0  0  0  0  0  0  0  0  0
   17.5657  -19.0609  -18.0984 O   0  0  0  0  0  0  0  0  0  0  0  0
  2  1  1  0
  3  2  2  0
  4  3  1  0
  5  4  2  0
  5 11  1  0
  6  5  1  0
  7  8  1  6
  7  6  1  0
  9  7  1  0
  9 13  1  0
 10  9  2  0
 11 12  2  0
 12  2  1  0
 14 13  1  0
 14 15  1  1
 15 16  1  0
 17 14  1  0
 18 17  2  0
 19 17  1  0
 20 27  1  0
 20 19  1  0
 21 22  1  0
 20 21  1  6
 22 26  1  0
 23 22  2  0
 23 24  1  0
 24 25  1  0
 26 25  2  0
 27 28  1  0
 29 27  2  0
M  END
$$$$
