YCH.pdb
     RDKit          3D

 29 30  0  0  1  0  0  0  0  0999 V2000
   30.4458  -28.0231  -23.8063 O   0  0  0  0  0  0  0  0  0  0  0  0
   29.8329  -28.5119  -22.6618 C   0  0  0  0  0  0  0  0  0  0  0  0
   30.4123  -29.4918  -21.8851 C   0  0  0  0  0  0  0  0  0  0  0  0
   29.7673  -29.9587  -20.7419 C   0  0  0  0  0  0  0  0  0  0  0  0
   28.5407  -29.4585  -20.3570 C   0  0  0  0  0  0  0  0  0  0  0  0
   27.9200  -30.0044  -19.1324 C   0  0  0  0  0  0  0  0  0  0  0  0
   27.9614  -29.0024  -17.9865 C   0  0  2  0  0  0  0  0  0  0  0  0
   29.2549  -29.0063  -17.3329 N   0  0  0  0  0  0  0  0  0  0  0  0
   26.8801  -29.4003  -17.0463 C   0  0  0  0  0  0  0  0  0  0  0  0
   27.2283  -29.9339  -15.9621 O   0  0  0  0  0  0  0  0  0  0  0  0
   27.9590  -28.4902  -21.1168 C   0  0  0  0  0  0  0  0  0  0  0  0
   28.6050  -28.0229  -22.2613 C   0  0  0  0  0  0  0  0  0  0  0  0
   25.5039  -29.2202  -17.2883 N   0  0  0  0  0  0  0  0  0  0  0  0
   24.4627  -29.5339  -16.3431 C   0  0  1  0  0  0  0  0  0  0  0  0
   23.3554  -28.4751  -16.4235 C   0  0  0  0  0  0  0  0  0  0  0  0
   22.1559  -28.7315  -15.0875 S   0  0  0  0  0  0  0  0  0  0  0  0
   23.9085  -30.8901  -16.5692 C   0  0  0  0  0  0  0  0  0  0  0  0
   23.9024  -31.3232  -17.7472 O   0  0  0  0  0  0  0  0  0  0  0  0
   23.3998  -31.6835  -15.5062 N   0  0  0  0  0  0  0  0  0  0  0  0
   22.8320  -32.9851  -15.6391 C   0  0  1  0  0  0  0  0  0  0  0  0
   23.8374  -34.1161  -15.7774 C   0  0  0  0  0  0  0  0  0  0  0  0
   23.2109  -35.4296  -15.9346 C   0  0  0  0  0  0  0  0  0  0  0  0
   22.6156  -36.2381  -15.0150 C   0  0  0  0  0  0  0  0  0  0  0  0
   22.1621  -37.3706  -15.6223 N   0  0  0  0  0  0  0  0  0  0  0  0
   22.4742  -37.2693  -16.9222 C   0  0  0  0  0  0  0  0  0  0  0  0
   23.1035  -36.1093  -17.1216 N   0  0  0  0  0  0  0  0  0  0  0  0
   21.7705  -33.3198  -14.6835 C   0  0  0  0  0  0  0  0  0  0  0  0
   20.7899  -34.2597  -14.9044 O   0  0  0  0  0  0  0  0  0  0  0  0
   21.7661  -32.6910  -13.5770 O   0  0  0  0  0  0  0  0  0  0  0  0
  2  1  1  0
  3  2  2  0
  4  3  1  0
  5  4  2  0
  5 11  1  0
  6  5  1  0
  7  8  1  1
  7  6  1  0
  9  7  1  0
  9 13  1  0
 10  9  2  0
 11 12  2  0
 12  2  1  0
 14 13  1  0
 14 15  1  6
 15 16  1  0
 17 14  1  0
 18 17  2  0
 19 17  1  0
 20 27  1  0
 20 19  1  0
 21 22  1  0
 20 21  1  1
 22 26  1  0
 23 22  2  0
 23 24  1  0
 24 25  1  0
 26 25  2  0
 27 28  1  0
 29 27  2  0
M  END
$$$$
