YCH.pdb
     RDKit          3D

 29 30  0  0  1  0  0  0  0  0999 V2000
   30.0408  -15.5108  -18.7325 O   0  0  0  0  0  0  0  0  0  0  0  0
   29.2408  -16.3038  -17.9227 C   0  0  0  0  0  0  0  0  0  0  0  0
   28.0869  -16.8945  -18.3906 C   0  0  0  0  0  0  0  0  0  0  0  0
   27.3080  -17.6849  -17.5484 C   0  0  0  0  0  0  0  0  0  0  0  0
   27.6653  -17.8977  -16.2330 C   0  0  0  0  0  0  0  0  0  0  0  0
   26.7878  -18.7481  -15.4026 C   0  0  0  0  0  0  0  0  0  0  0  0
   27.4858  -20.0342  -14.9818 C   0  0  2  0  0  0  0  0  0  0  0  0
   27.9736  -20.7671  -16.1331 N   0  0  0  0  0  0  0  0  0  0  0  0
   26.4797  -20.8256  -14.2247 C   0  0  0  0  0  0  0  0  0  0  0  0
   25.8659  -21.7262  -14.8520 O   0  0  0  0  0  0  0  0  0  0  0  0
   28.8032  -17.3191  -15.7602 C   0  0  0  0  0  0  0  0  0  0  0  0
   29.5829  -16.5278  -16.6037 C   0  0  0  0  0  0  0  0  0  0  0  0
   26.1721  -20.6341  -12.8632 N   0  0  0  0  0  0  0  0  0  0  0  0
   25.1832  -21.3900  -12.1374 C   0  0  1  0  0  0  0  0  0  0  0  0
   25.5015  -21.3512  -10.6372 C   0  0  0  0  0  0  0  0  0  0  0  0
   25.2588  -19.6721   -9.9963 S   0  0  0  0  0  0  0  0  0  0  0  0
   23.8124  -20.8880  -12.3956 C   0  0  0  0  0  0  0  0  0  0  0  0
   23.6331  -19.6466  -12.3497 O   0  0  0  0  0  0  0  0  0  0  0  0
   22.7313  -21.7628  -12.6854 N   0  0  0  0  0  0  0  0  0  0  0  0
   21.3769  -21.3685  -12.8959 C   0  0  1  0  0  0  0  0  0  0  0  0
   20.5449  -22.3348  -13.7223 C   0  0  0  0  0  0  0  0  0  0  0  0
   19.1798  -21.8633  -13.9610 C   0  0  0  0  0  0  0  0  0  0  0  0
   18.5528  -20.7298  -13.5421 C   0  0  0  0  0  0  0  0  0  0  0  0
   17.2761  -20.7071  -14.0179 N   0  0  0  0  0  0  0  0  0  0  0  0
   17.1056  -21.8271  -14.7346 C   0  0  0  0  0  0  0  0  0  0  0  0
   18.2407  -22.5286  -14.7078 N   0  0  0  0  0  0  0  0  0  0  0  0
   20.6516  -20.9131  -11.7049 C   0  0  0  0  0  0  0  0  0  0  0  0
   19.8874  -19.7702  -11.6464 O   0  0  0  0  0  0  0  0  0  0  0  0
   20.7427  -21.6329  -10.6591 O   0  0  0  0  0  0  0  0  0  0  0  0
  2  1  1  0
  3  2  2  0
  4  3  1  0
  5  4  2  0
  5 11  1  0
  6  5  1  0
  7  8  1  6
  7  6  1  0
  9  7  1  0
  9 13  1  0
 10  9  2  0
 11 12  2  0
 12  2  1  0
 14 13  1  0
 14 15  1  1
 15 16  1  0
 17 14  1  0
 18 17  2  0
 19 17  1  0
 20 27  1  0
 20 19  1  0
 21 22  1  0
 20 21  1  1
 22 26  1  0
 23 22  2  0
 23 24  1  0
 24 25  1  0
 26 25  2  0
 27 28  1  0
 29 27  2  0
M  END
$$$$
