YCH.pdb
     RDKit          3D

 29 30  0  0  1  0  0  0  0  0999 V2000
   12.3548   -3.5237   -5.5368 O   0  0  0  0  0  0  0  0  0  0  0  0
   12.9649   -4.5896   -6.1820 C   0  0  0  0  0  0  0  0  0  0  0  0
   14.1080   -4.4296   -6.9351 C   0  0  0  0  0  0  0  0  0  0  0  0
   14.6933   -5.5232   -7.5691 C   0  0  0  0  0  0  0  0  0  0  0  0
   14.1512   -6.7873   -7.4629 C   0  0  0  0  0  0  0  0  0  0  0  0
   14.8297   -7.8965   -8.1644 C   0  0  0  0  0  0  0  0  0  0  0  0
   14.0307   -8.3714   -9.3704 C   0  0  2  0  0  0  0  0  0  0  0  0
   13.0016   -9.3140   -8.9796 N   0  0  0  0  0  0  0  0  0  0  0  0
   15.0101   -8.9957  -10.2992 C   0  0  0  0  0  0  0  0  0  0  0  0
   15.3698  -10.1743  -10.0484 O   0  0  0  0  0  0  0  0  0  0  0  0
   13.0221   -6.9569   -6.7215 C   0  0  0  0  0  0  0  0  0  0  0  0
   12.4362   -5.8618   -6.0868 C   0  0  0  0  0  0  0  0  0  0  0  0
   15.5564   -8.3592  -11.4312 N   0  0  0  0  0  0  0  0  0  0  0  0
   16.3998   -9.0077  -12.4027 C   0  0  1  0  0  0  0  0  0  0  0  0
   15.5336   -9.7814  -13.4050 C   0  0  0  0  0  0  0  0  0  0  0  0
   16.5738  -10.4628  -14.7252 S   0  0  0  0  0  0  0  0  0  0  0  0
   17.2730   -8.0369  -13.1045 C   0  0  0  0  0  0  0  0  0  0  0  0
   16.7154   -7.0837  -13.7011 O   0  0  0  0  0  0  0  0  0  0  0  0
   18.6879   -8.1640  -13.1125 N   0  0  0  0  0  0  0  0  0  0  0  0
   19.5967   -7.2913  -13.7808 C   0  0  1  0  0  0  0  0  0  0  0  0
   21.0656   -7.6485  -13.6259 C   0  0  0  0  0  0  0  0  0  0  0  0
   21.9663   -6.6568  -14.2159 C   0  0  0  0  0  0  0  0  0  0  0  0
   22.2260   -5.3722  -13.8472 C   0  0  0  0  0  0  0  0  0  0  0  0
   23.1485   -4.8287  -14.6903 N   0  0  0  0  0  0  0  0  0  0  0  0
   23.4652   -5.7746  -15.5860 C   0  0  0  0  0  0  0  0  0  0  0  0
   22.7625   -6.8755  -15.3116 N   0  0  0  0  0  0  0  0  0  0  0  0
   19.2638   -6.9655  -15.1718 C   0  0  0  0  0  0  0  0  0  0  0  0
   19.2607   -5.6930  -15.6957 O   0  0  0  0  0  0  0  0  0  0  0  0
   18.9581   -7.9348  -15.9379 O   0  0  0  0  0  0  0  0  0  0  0  0
  2  1  1  0
  3  2  2  0
  4  3  1  0
  5  4  2  0
  5 11  1  0
  6  5  1  0
  7  8  1  1
  7  6  1  0
  9  7  1  0
  9 13  1  0
 10  9  2  0
 11 12  2  0
 12  2  1  0
 14 13  1  0
 14 15  1  6
 15 16  1  0
 17 14  1  0
 18 17  2  0
 19 17  1  0
 20 27  1  0
 20 19  1  0
 21 22  1  0
 20 21  1  6
 22 26  1  0
 23 22  2  0
 23 24  1  0
 24 25  1  0
 26 25  2  0
 27 28  1  0
 29 27  2  0
M  END
$$$$
