YCH.pdb
     RDKit          3D

 29 30  0  0  1  0  0  0  0  0999 V2000
   25.4240  -14.7622  -19.3560 O   0  0  0  0  0  0  0  0  0  0  0  0
   24.7102  -15.6536  -18.5682 C   0  0  0  0  0  0  0  0  0  0  0  0
   24.7918  -15.6392  -17.1926 C   0  0  0  0  0  0  0  0  0  0  0  0
   24.0603  -16.5499  -16.4334 C   0  0  0  0  0  0  0  0  0  0  0  0
   23.2401  -17.4846  -17.0307 C   0  0  0  0  0  0  0  0  0  0  0  0
   22.4964  -18.4164  -16.1581 C   0  0  0  0  0  0  0  0  0  0  0  0
   23.4172  -19.4527  -15.5282 C   0  0  2  0  0  0  0  0  0  0  0  0
   24.1093  -20.2241  -16.5412 N   0  0  0  0  0  0  0  0  0  0  0  0
   22.5523  -20.3209  -14.6856 C   0  0  0  0  0  0  0  0  0  0  0  0
   22.0313  -21.3231  -15.2381 O   0  0  0  0  0  0  0  0  0  0  0  0
   23.1519  -17.5078  -18.3889 C   0  0  0  0  0  0  0  0  0  0  0  0
   23.8844  -16.5959  -19.1488 C   0  0  0  0  0  0  0  0  0  0  0  0
   22.2811  -20.0960  -13.3214 N   0  0  0  0  0  0  0  0  0  0  0  0
   21.4567  -20.9489  -12.5036 C   0  0  1  0  0  0  0  0  0  0  0  0
   22.1673  -21.2343  -11.1742 C   0  0  0  0  0  0  0  0  0  0  0  0
   22.3900  -19.6912  -10.2478 S   0  0  0  0  0  0  0  0  0  0  0  0
   20.1199  -20.3537  -12.2661 C   0  0  0  0  0  0  0  0  0  0  0  0
   20.0362  -19.1014  -12.2667 O   0  0  0  0  0  0  0  0  0  0  0  0
   18.9670  -21.1536  -12.0445 N   0  0  0  0  0  0  0  0  0  0  0  0
   17.7227  -21.0256  -12.7298 C   0  0  1  0  0  0  0  0  0  0  0  0
   17.8236  -20.9721  -14.2451 C   0  0  0  0  0  0  0  0  0  0  0  0
   16.5368  -20.7361  -14.9015 C   0  0  0  0  0  0  0  0  0  0  0  0
   15.6928  -21.6039  -15.5245 C   0  0  0  0  0  0  0  0  0  0  0  0
   14.5988  -20.9332  -15.9833 N   0  0  0  0  0  0  0  0  0  0  0  0
   14.7596  -19.6456  -15.6464 C   0  0  0  0  0  0  0  0  0  0  0  0
   15.9184  -19.5151  -14.9971 N   0  0  0  0  0  0  0  0  0  0  0  0
   16.6555  -21.9315  -12.2912 C   0  0  0  0  0  0  0  0  0  0  0  0
   15.3748  -21.5355  -11.9805 O   0  0  0  0  0  0  0  0  0  0  0  0
   16.9458  -23.1670  -12.1949 O   0  0  0  0  0  0  0  0  0  0  0  0
  2  1  1  0
  3  2  2  0
  4  3  1  0
  5  4  2  0
  5 11  1  0
  6  5  1  0
  7  8  1  6
  7  6  1  0
  9  7  1  0
  9 13  1  0
 10  9  2  0
 11 12  2  0
 12  2  1  0
 14 13  1  0
 14 15  1  1
 15 16  1  0
 17 14  1  0
 18 17  2  0
 19 17  1  0
 20 27  1  0
 20 19  1  0
 21 22  1  0
 20 21  1  6
 22 26  1  0
 23 22  2  0
 23 24  1  0
 24 25  1  0
 26 25  2  0
 27 28  1  0
 29 27  2  0
M  END
$$$$
