YCH.pdb
     RDKit          3D

 29 30  0  0  1  0  0  0  0  0999 V2000
   28.7132  -14.4383  -18.7091 O   0  0  0  0  0  0  0  0  0  0  0  0
   28.0917  -15.4073  -17.9349 C   0  0  0  0  0  0  0  0  0  0  0  0
   27.2045  -16.3139  -18.4737 C   0  0  0  0  0  0  0  0  0  0  0  0
   26.5991  -17.2735  -17.6654 C   0  0  0  0  0  0  0  0  0  0  0  0
   26.8673  -17.3441  -16.3140 C   0  0  0  0  0  0  0  0  0  0  0  0
   26.1859  -18.3897  -15.5232 C   0  0  0  0  0  0  0  0  0  0  0  0
   27.1578  -19.4653  -15.0576 C   0  0  2  0  0  0  0  0  0  0  0  0
   27.6342  -20.2598  -16.1722 N   0  0  0  0  0  0  0  0  0  0  0  0
   26.4153  -20.3013  -14.0771 C   0  0  0  0  0  0  0  0  0  0  0  0
   25.8733  -21.3503  -14.5097 O   0  0  0  0  0  0  0  0  0  0  0  0
   27.7421  -16.4535  -15.7712 C   0  0  0  0  0  0  0  0  0  0  0  0
   28.3481  -15.4928  -16.5807 C   0  0  0  0  0  0  0  0  0  0  0  0
   26.2805  -19.9977  -12.7079 N   0  0  0  0  0  0  0  0  0  0  0  0
   25.3086  -20.6006  -11.8318 C   0  0  1  0  0  0  0  0  0  0  0  0
   25.6834  -20.3179  -10.3712 C   0  0  0  0  0  0  0  0  0  0  0  0
   24.5062  -21.1365   -9.2607 S   0  0  0  0  0  0  0  0  0  0  0  0
   23.9366  -20.1205  -12.1231 C   0  0  0  0  0  0  0  0  0  0  0  0
   23.8236  -19.0418  -12.7547 O   0  0  0  0  0  0  0  0  0  0  0  0
   22.7828  -20.8399  -11.7115 N   0  0  0  0  0  0  0  0  0  0  0  0
   21.5356  -20.8754  -12.4024 C   0  0  1  0  0  0  0  0  0  0  0  0
   21.6209  -21.2706  -13.8672 C   0  0  0  0  0  0  0  0  0  0  0  0
   21.6959  -20.1222  -14.7717 C   0  0  0  0  0  0  0  0  0  0  0  0
   21.5926  -18.7893  -14.5145 C   0  0  0  0  0  0  0  0  0  0  0  0
   21.7359  -18.0843  -15.6718 N   0  0  0  0  0  0  0  0  0  0  0  0
   21.9291  -18.9777  -16.6527 C   0  0  0  0  0  0  0  0  0  0  0  0
   21.9072  -20.2033  -16.1249 N   0  0  0  0  0  0  0  0  0  0  0  0
   20.4449  -21.5766  -11.7164 C   0  0  0  0  0  0  0  0  0  0  0  0
   19.2612  -20.9903  -11.3309 O   0  0  0  0  0  0  0  0  0  0  0  0
   20.6164  -22.8126  -11.4655 O   0  0  0  0  0  0  0  0  0  0  0  0
  2  1  1  0
  3  2  2  0
  4  3  1  0
  5  4  2  0
  5 11  1  0
  6  5  1  0
  7  8  1  6
  7  6  1  0
  9  7  1  0
  9 13  1  0
 10  9  2  0
 11 12  2  0
 12  2  1  0
 14 13  1  0
 14 15  1  1
 15 16  1  0
 17 14  1  0
 18 17  2  0
 19 17  1  0
 20 27  1  0
 20 19  1  0
 21 22  1  0
 20 21  1  6
 22 26  1  0
 23 22  2  0
 23 24  1  0
 24 25  1  0
 26 25  2  0
 27 28  1  0
 29 27  2  0
M  END
$$$$
