YCH.pdb
     RDKit          3D

 29 30  0  0  1  0  0  0  0  0999 V2000
   15.8965  -14.1427  -19.4070 O   0  0  0  0  0  0  0  0  0  0  0  0
   16.8148  -13.3957  -18.6837 C   0  0  0  0  0  0  0  0  0  0  0  0
   17.7637  -12.6094  -19.3004 C   0  0  0  0  0  0  0  0  0  0  0  0
   18.6702  -11.8725  -18.5415 C   0  0  0  0  0  0  0  0  0  0  0  0
   18.6451  -11.9077  -17.1626 C   0  0  0  0  0  0  0  0  0  0  0  0
   19.6392  -11.0986  -16.4279 C   0  0  0  0  0  0  0  0  0  0  0  0
   20.9920  -11.7943  -16.3616 C   0  0  2  0  0  0  0  0  0  0  0  0
   20.9083  -13.0338  -15.6152 N   0  0  0  0  0  0  0  0  0  0  0  0
   21.9227  -10.8341  -15.7109 C   0  0  0  0  0  0  0  0  0  0  0  0
   21.8197  -10.6869  -14.4663 O   0  0  0  0  0  0  0  0  0  0  0  0
   17.7120  -12.6811  -16.5428 C   0  0  0  0  0  0  0  0  0  0  0  0
   16.8045  -13.4189  -17.3029 C   0  0  0  0  0  0  0  0  0  0  0  0
   22.9033  -10.0853  -16.3913 N   0  0  0  0  0  0  0  0  0  0  0  0
   23.7867   -9.1372  -15.7616 C   0  0  1  0  0  0  0  0  0  0  0  0
   25.2437   -9.5013  -16.0746 C   0  0  0  0  0  0  0  0  0  0  0  0
   25.7606  -10.9129  -15.0599 S   0  0  0  0  0  0  0  0  0  0  0  0
   23.4908   -7.7479  -16.1858 C   0  0  0  0  0  0  0  0  0  0  0  0
   23.2729   -7.5500  -17.4059 O   0  0  0  0  0  0  0  0  0  0  0  0
   23.4513   -6.6697  -15.2616 N   0  0  0  0  0  0  0  0  0  0  0  0
   23.0897   -5.3248  -15.5691 C   0  0  1  0  0  0  0  0  0  0  0  0
   22.0059   -4.7303  -14.6854 C   0  0  0  0  0  0  0  0  0  0  0  0
   20.7390   -5.4601  -14.7552 C   0  0  0  0  0  0  0  0  0  0  0  0
   19.7452   -5.4140  -15.6845 C   0  0  0  0  0  0  0  0  0  0  0  0
   18.7520   -6.2812  -15.3402 N   0  0  0  0  0  0  0  0  0  0  0  0
   19.1259   -6.8695  -14.1951 C   0  0  0  0  0  0  0  0  0  0  0  0
   20.3161   -6.3851  -13.8344 N   0  0  0  0  0  0  0  0  0  0  0  0
   24.2049   -4.3908  -15.7587 C   0  0  0  0  0  0  0  0  0  0  0  0
   24.0759   -3.1105  -16.2466 O   0  0  0  0  0  0  0  0  0  0  0  0
   25.3676   -4.8039  -15.4469 O   0  0  0  0  0  0  0  0  0  0  0  0
  2  1  1  0
  3  2  2  0
  4  3  1  0
  5  4  2  0
  5 11  1  0
  6  5  1  0
  7  8  1  1
  7  6  1  0
  9  7  1  0
  9 13  1  0
 10  9  2  0
 11 12  2  0
 12  2  1  0
 14 13  1  0
 14 15  1  6
 15 16  1  0
 17 14  1  0
 18 17  2  0
 19 17  1  0
 20 27  1  0
 20 19  1  0
 21 22  1  0
 20 21  1  1
 22 26  1  0
 23 22  2  0
 23 24  1  0
 24 25  1  0
 26 25  2  0
 27 28  1  0
 29 27  2  0
M  END
$$$$
