YCH.pdb
     RDKit          3D

 29 30  0  0  1  0  0  0  0  0999 V2000
   31.4937  -18.1427  -19.3909 O   0  0  0  0  0  0  0  0  0  0  0  0
   30.3939  -17.8451  -18.5995 C   0  0  0  0  0  0  0  0  0  0  0  0
   29.1034  -18.0642  -19.0309 C   0  0  0  0  0  0  0  0  0  0  0  0
   28.0228  -17.7531  -18.2086 C   0  0  0  0  0  0  0  0  0  0  0  0
   28.2106  -17.2212  -16.9496 C   0  0  0  0  0  0  0  0  0  0  0  0
   27.0145  -16.9177  -16.1371 C   0  0  0  0  0  0  0  0  0  0  0  0
   26.2751  -15.6938  -16.6606 C   0  0  2  0  0  0  0  0  0  0  0  0
   27.0060  -14.4762  -16.3717 N   0  0  0  0  0  0  0  0  0  0  0  0
   24.9446  -15.6955  -15.9963 C   0  0  0  0  0  0  0  0  0  0  0  0
   24.8903  -15.2634  -14.8166 O   0  0  0  0  0  0  0  0  0  0  0  0
   29.4811  -17.0006  -16.5133 C   0  0  0  0  0  0  0  0  0  0  0  0
   30.5629  -17.3122  -17.3367 C   0  0  0  0  0  0  0  0  0  0  0  0
   23.7520  -16.1452  -16.5965 N   0  0  0  0  0  0  0  0  0  0  0  0
   22.4493  -16.0549  -15.9877 C   0  0  1  0  0  0  0  0  0  0  0  0
   21.7725  -14.7435  -16.4069 C   0  0  0  0  0  0  0  0  0  0  0  0
   20.1079  -14.6504  -15.6930 S   0  0  0  0  0  0  0  0  0  0  0  0
   21.5997  -17.2183  -16.3375 C   0  0  0  0  0  0  0  0  0  0  0  0
   21.4814  -17.5028  -17.5542 O   0  0  0  0  0  0  0  0  0  0  0  0
   20.9373  -17.9928  -15.3478 N   0  0  0  0  0  0  0  0  0  0  0  0
   20.1132  -19.1300  -15.5967 C   0  0  1  0  0  0  0  0  0  0  0  0
   20.0582  -20.1460  -14.4680 C   0  0  0  0  0  0  0  0  0  0  0  0
   19.2857  -21.3426  -14.8054 C   0  0  0  0  0  0  0  0  0  0  0  0
   18.5770  -21.6471  -15.9273 C   0  0  0  0  0  0  0  0  0  0  0  0
   18.0238  -22.8860  -15.8006 N   0  0  0  0  0  0  0  0  0  0  0  0
   18.3875  -23.3558  -14.5987 C   0  0  0  0  0  0  0  0  0  0  0  0
   19.1445  -22.4389  -13.9926 N   0  0  0  0  0  0  0  0  0  0  0  0
   18.7779  -18.8462  -16.1335 C   0  0  0  0  0  0  0  0  0  0  0  0
   18.2217  -19.4837  -17.2189 O   0  0  0  0  0  0  0  0  0  0  0  0
   18.0955  -17.9461  -15.5468 O   0  0  0  0  0  0  0  0  0  0  0  0
  2  1  1  0
  3  2  2  0
  4  3  1  0
  5  4  2  0
  5 11  1  0
  6  5  1  0
  7  8  1  1
  7  6  1  0
  9  7  1  0
  9 13  1  0
 10  9  2  0
 11 12  2  0
 12  2  1  0
 14 13  1  0
 14 15  1  6
 15 16  1  0
 17 14  1  0
 18 17  2  0
 19 17  1  0
 20 27  1  0
 20 19  1  0
 21 22  1  0
 20 21  1  1
 22 26  1  0
 23 22  2  0
 23 24  1  0
 24 25  1  0
 26 25  2  0
 27 28  1  0
 29 27  2  0
M  END
$$$$
