YCH.pdb
     RDKit          3D

 29 30  0  0  1  0  0  0  0  0999 V2000
   30.8856  -28.2475  -18.2712 O   0  0  0  0  0  0  0  0  0  0  0  0
   30.0837  -27.1590  -17.9604 C   0  0  0  0  0  0  0  0  0  0  0  0
   29.9761  -26.6751  -16.6744 C   0  0  0  0  0  0  0  0  0  0  0  0
   29.1609  -25.5795  -16.3993 C   0  0  0  0  0  0  0  0  0  0  0  0
   28.4436  -24.9521  -17.3968 C   0  0  0  0  0  0  0  0  0  0  0  0
   27.6011  -23.7964  -17.0261 C   0  0  0  0  0  0  0  0  0  0  0  0
   28.1006  -22.5083  -17.6663 C   0  0  2  0  0  0  0  0  0  0  0  0
   29.3933  -22.1254  -17.1347 N   0  0  0  0  0  0  0  0  0  0  0  0
   27.0710  -21.4742  -17.3793 C   0  0  0  0  0  0  0  0  0  0  0  0
   27.2285  -20.7776  -16.3443 O   0  0  0  0  0  0  0  0  0  0  0  0
   28.5424  -25.4216  -18.6707 C   0  0  0  0  0  0  0  0  0  0  0  0
   29.3587  -26.5186  -18.9460 C   0  0  0  0  0  0  0  0  0  0  0  0
   25.9412  -21.2262  -18.1837 N   0  0  0  0  0  0  0  0  0  0  0  0
   24.9515  -20.2158  -17.9087 C   0  0  1  0  0  0  0  0  0  0  0  0
   25.1350  -19.0365  -18.8726 C   0  0  0  0  0  0  0  0  0  0  0  0
   23.8563  -17.7862  -18.5712 S   0  0  0  0  0  0  0  0  0  0  0  0
   23.5751  -20.7586  -18.0005 C   0  0  0  0  0  0  0  0  0  0  0  0
   23.3555  -21.6331  -18.8737 O   0  0  0  0  0  0  0  0  0  0  0  0
   22.5322  -20.3182  -17.1423 N   0  0  0  0  0  0  0  0  0  0  0  0
   21.1700  -20.7357  -17.2081 C   0  0  1  0  0  0  0  0  0  0  0  0
   20.9205  -22.1850  -16.8257 C   0  0  0  0  0  0  0  0  0  0  0  0
   19.5193  -22.5855  -16.9629 C   0  0  0  0  0  0  0  0  0  0  0  0
   18.3869  -22.0152  -16.4668 C   0  0  0  0  0  0  0  0  0  0  0  0
   17.2984  -22.7338  -16.8614 N   0  0  0  0  0  0  0  0  0  0  0  0
   17.7512  -23.7536  -17.6046 C   0  0  0  0  0  0  0  0  0  0  0  0
   19.0818  -23.6751  -17.6726 N   0  0  0  0  0  0  0  0  0  0  0  0
   20.1951  -19.8363  -16.5816 C   0  0  0  0  0  0  0  0  0  0  0  0
   20.5185  -18.8155  -15.7172 O   0  0  0  0  0  0  0  0  0  0  0  0
   18.9682  -20.0223  -16.8644 O   0  0  0  0  0  0  0  0  0  0  0  0
  2  1  1  0
  3  2  2  0
  4  3  1  0
  5  4  2  0
  5 11  1  0
  6  5  1  0
  7  8  1  1
  7  6  1  0
  9  7  1  0
  9 13  1  0
 10  9  2  0
 11 12  2  0
 12  2  1  0
 14 13  1  0
 14 15  1  6
 15 16  1  0
 17 14  1  0
 18 17  2  0
 19 17  1  0
 20 27  1  0
 20 19  1  0
 21 22  1  0
 20 21  1  1
 22 26  1  0
 23 22  2  0
 23 24  1  0
 24 25  1  0
 26 25  2  0
 27 28  1  0
 29 27  2  0
M  END
$$$$
