YCH.pdb
     RDKit          3D

 29 30  0  0  1  0  0  0  0  0999 V2000
   29.0442  -20.1264   -3.2491 O   0  0  0  0  0  0  0  0  0  0  0  0
   28.5730  -20.0273   -4.5501 C   0  0  0  0  0  0  0  0  0  0  0  0
   27.4285  -20.6744   -4.9632 C   0  0  0  0  0  0  0  0  0  0  0  0
   26.9849  -20.5519   -6.2781 C   0  0  0  0  0  0  0  0  0  0  0  0
   27.6719  -19.7862   -7.1973 C   0  0  0  0  0  0  0  0  0  0  0  0
   27.1385  -19.7054   -8.5728 C   0  0  0  0  0  0  0  0  0  0  0  0
   27.3286  -21.0143   -9.3272 C   0  0  2  0  0  0  0  0  0  0  0  0
   28.7345  -21.3125   -9.5142 N   0  0  0  0  0  0  0  0  0  0  0  0
   26.6340  -20.8477  -10.6316 C   0  0  0  0  0  0  0  0  0  0  0  0
   27.2533  -20.2359  -11.5390 O   0  0  0  0  0  0  0  0  0  0  0  0
   28.8038  -19.1426   -6.8001 C   0  0  0  0  0  0  0  0  0  0  0  0
   29.2477  -19.2654   -5.4835 C   0  0  0  0  0  0  0  0  0  0  0  0
   25.3394  -21.3262  -10.9147 N   0  0  0  0  0  0  0  0  0  0  0  0
   24.6996  -21.2320  -12.2022 C   0  0  1  0  0  0  0  0  0  0  0  0
   24.7143  -22.6041  -12.8884 C   0  0  0  0  0  0  0  0  0  0  0  0
   23.8924  -22.4980  -14.5016 S   0  0  0  0  0  0  0  0  0  0  0  0
   23.3140  -20.7176  -12.0887 C   0  0  0  0  0  0  0  0  0  0  0  0
   22.5293  -21.3332  -11.3267 O   0  0  0  0  0  0  0  0  0  0  0  0
   22.8732  -19.5737  -12.8067 N   0  0  0  0  0  0  0  0  0  0  0  0
   21.5281  -19.3057  -13.1978 C   0  0  1  0  0  0  0  0  0  0  0  0
   21.3719  -18.6337  -14.5517 C   0  0  0  0  0  0  0  0  0  0  0  0
   20.0099  -18.1632  -14.8091 C   0  0  0  0  0  0  0  0  0  0  0  0
   18.8869  -18.2532  -14.0446 C   0  0  0  0  0  0  0  0  0  0  0  0
   17.8420  -17.6625  -14.6898 N   0  0  0  0  0  0  0  0  0  0  0  0
   18.3127  -17.2031  -15.8580 C   0  0  0  0  0  0  0  0  0  0  0  0
   19.6119  -17.4974  -15.9408 N   0  0  0  0  0  0  0  0  0  0  0  0
   20.5817  -20.4144  -13.0326 C   0  0  0  0  0  0  0  0  0  0  0  0
   19.4719  -20.3781  -12.2198 O   0  0  0  0  0  0  0  0  0  0  0  0
   20.8132  -21.4784  -13.6916 O   0  0  0  0  0  0  0  0  0  0  0  0
  2  1  1  0
  3  2  2  0
  4  3  1  0
  5  4  2  0
  5 11  1  0
  6  5  1  0
  7  8  1  6
  7  6  1  0
  9  7  1  0
  9 13  1  0
 10  9  2  0
 11 12  2  0
 12  2  1  0
 14 13  1  0
 14 15  1  1
 15 16  1  0
 17 14  1  0
 18 17  2  0
 19 17  1  0
 20 27  1  0
 20 19  1  0
 21 22  1  0
 20 21  1  6
 22 26  1  0
 23 22  2  0
 23 24  1  0
 24 25  1  0
 26 25  2  0
 27 28  1  0
 29 27  2  0
M  END
$$$$
