YCH.pdb
     RDKit          3D

 29 30  0  0  1  0  0  0  0  0999 V2000
   28.7411  -19.3227   -5.9209 O   0  0  0  0  0  0  0  0  0  0  0  0
   28.2797  -19.5222   -7.2138 C   0  0  0  0  0  0  0  0  0  0  0  0
   27.0058  -19.1630   -7.5979 C   0  0  0  0  0  0  0  0  0  0  0  0
   26.5766  -19.3785   -8.9056 C   0  0  0  0  0  0  0  0  0  0  0  0
   27.4063  -19.9527   -9.8463 C   0  0  0  0  0  0  0  0  0  0  0  0
   26.8786  -20.1487  -11.2123 C   0  0  0  0  0  0  0  0  0  0  0  0
   26.3467  -21.5613  -11.4122 C   0  0  2  0  0  0  0  0  0  0  0  0
   27.0599  -22.2451  -12.4725 N   0  0  0  0  0  0  0  0  0  0  0  0
   24.9023  -21.4204  -11.7367 C   0  0  0  0  0  0  0  0  0  0  0  0
   24.5638  -21.5845  -12.9367 O   0  0  0  0  0  0  0  0  0  0  0  0
   28.6667  -20.3115   -9.4779 C   0  0  0  0  0  0  0  0  0  0  0  0
   29.0963  -20.0956   -8.1685 C   0  0  0  0  0  0  0  0  0  0  0  0
   23.8975  -21.1177  -10.7966 N   0  0  0  0  0  0  0  0  0  0  0  0
   22.4861  -21.1129  -11.0859 C   0  0  1  0  0  0  0  0  0  0  0  0
   21.6906  -21.0151   -9.7778 C   0  0  0  0  0  0  0  0  0  0  0  0
   19.9125  -20.9958  -10.1348 S   0  0  0  0  0  0  0  0  0  0  0  0
   22.1197  -20.0097  -12.0059 C   0  0  0  0  0  0  0  0  0  0  0  0
   22.7134  -18.9136  -11.8596 O   0  0  0  0  0  0  0  0  0  0  0  0
   21.1371  -20.1682  -13.0196 N   0  0  0  0  0  0  0  0  0  0  0  0
   20.7306  -19.1638  -13.9469 C   0  0  1  0  0  0  0  0  0  0  0  0
   21.6616  -18.9646  -15.1312 C   0  0  0  0  0  0  0  0  0  0  0  0
   21.2177  -17.9098  -16.0438 C   0  0  0  0  0  0  0  0  0  0  0  0
   20.1412  -17.0792  -15.9739 C   0  0  0  0  0  0  0  0  0  0  0  0
   20.1333  -16.2440  -17.0507 N   0  0  0  0  0  0  0  0  0  0  0  0
   21.2057  -16.5531  -17.7935 C   0  0  0  0  0  0  0  0  0  0  0  0
   21.8638  -17.5508  -17.1996 N   0  0  0  0  0  0  0  0  0  0  0  0
   19.3257  -19.2126  -14.3665 C   0  0  0  0  0  0  0  0  0  0  0  0
   18.6362  -18.1522  -14.9086 O   0  0  0  0  0  0  0  0  0  0  0  0
   18.7123  -20.3172  -14.2139 O   0  0  0  0  0  0  0  0  0  0  0  0
  2  1  1  0
  3  2  2  0
  4  3  1  0
  5  4  2  0
  5 11  1  0
  6  5  1  0
  7  8  1  6
  7  6  1  0
  9  7  1  0
  9 13  1  0
 10  9  2  0
 11 12  2  0
 12  2  1  0
 14 13  1  0
 14 15  1  1
 15 16  1  0
 17 14  1  0
 18 17  2  0
 19 17  1  0
 20 27  1  0
 20 19  1  0
 21 22  1  0
 20 21  1  6
 22 26  1  0
 23 22  2  0
 23 24  1  0
 24 25  1  0
 26 25  2  0
 27 28  1  0
 29 27  2  0
M  END
$$$$
