YCH.pdb
     RDKit          3D

 29 30  0  0  1  0  0  0  0  0999 V2000
    9.7943  -15.6529  -11.4844 O   0  0  0  0  0  0  0  0  0  0  0  0
   10.5179  -14.4735  -11.5842 C   0  0  0  0  0  0  0  0  0  0  0  0
   10.2589  -13.3876  -10.7761 C   0  0  0  0  0  0  0  0  0  0  0  0
   11.0063  -12.2190  -10.9045 C   0  0  0  0  0  0  0  0  0  0  0  0
   12.0186  -12.1151  -11.8359 C   0  0  0  0  0  0  0  0  0  0  0  0
   12.7663  -10.8430  -11.9117 C   0  0  0  0  0  0  0  0  0  0  0  0
   11.9499   -9.7506  -12.5889 C   0  0  2  0  0  0  0  0  0  0  0  0
   10.8097  -10.3062  -13.2899 N   0  0  0  0  0  0  0  0  0  0  0  0
   12.8753   -9.0594  -13.5257 C   0  0  0  0  0  0  0  0  0  0  0  0
   13.0572   -9.5906  -14.6509 O   0  0  0  0  0  0  0  0  0  0  0  0
   12.2831  -13.1816  -12.6395 C   0  0  0  0  0  0  0  0  0  0  0  0
   11.5347  -14.3516  -12.5107 C   0  0  0  0  0  0  0  0  0  0  0  0
   13.5552   -7.8594  -13.2378 N   0  0  0  0  0  0  0  0  0  0  0  0
   14.3507   -7.1256  -14.1889 C   0  0  1  0  0  0  0  0  0  0  0  0
   13.9310   -5.6500  -14.1845 C   0  0  0  0  0  0  0  0  0  0  0  0
   14.9216   -4.7213  -15.3868 S   0  0  0  0  0  0  0  0  0  0  0  0
   15.8003   -7.2591  -13.9087 C   0  0  0  0  0  0  0  0  0  0  0  0
   16.1500   -7.3610  -12.7076 O   0  0  0  0  0  0  0  0  0  0  0  0
   16.7705   -7.2731  -14.9462 N   0  0  0  0  0  0  0  0  0  0  0  0
   18.1743   -7.4522  -14.7686 C   0  0  1  0  0  0  0  0  0  0  0  0
   18.6841   -8.8583  -15.0371 C   0  0  0  0  0  0  0  0  0  0  0  0
   20.1343   -8.9857  -14.8848 C   0  0  0  0  0  0  0  0  0  0  0  0
   20.8742   -9.4368  -13.8347 C   0  0  0  0  0  0  0  0  0  0  0  0
   22.1993   -9.3835  -14.1483 N   0  0  0  0  0  0  0  0  0  0  0  0
   22.2871   -8.8990  -15.3953 C   0  0  0  0  0  0  0  0  0  0  0  0
   21.0549   -8.6567  -15.8474 N   0  0  0  0  0  0  0  0  0  0  0  0
   19.0318   -6.4385  -15.3925 C   0  0  0  0  0  0  0  0  0  0  0  0
   18.6004   -5.5118  -16.3139 O   0  0  0  0  0  0  0  0  0  0  0  0
   20.2576   -6.4246  -15.0504 O   0  0  0  0  0  0  0  0  0  0  0  0
  2  1  1  0
  3  2  2  0
  4  3  1  0
  5  4  2  0
  5 11  1  0
  6  5  1  0
  7  8  1  6
  7  6  1  0
  9  7  1  0
  9 13  1  0
 10  9  2  0
 11 12  2  0
 12  2  1  0
 14 13  1  0
 14 15  1  1
 15 16  1  0
 17 14  1  0
 18 17  2  0
 19 17  1  0
 20 27  1  0
 20 19  1  0
 21 22  1  0
 20 21  1  6
 22 26  1  0
 23 22  2  0
 23 24  1  0
 24 25  1  0
 26 25  2  0
 27 28  1  0
 29 27  2  0
M  END
$$$$
