WED.pdb
     RDKit          3D

 32 33  0  0  1  0  0  0  0  0999 V2000
   23.1419  -13.7939  -17.7202 N   0  0  0  0  0  0  0  0  0  0  0  0
   22.2115  -13.3400  -16.7030 C   0  0  1  0  0  0  0  0  0  0  0  0
   22.8445  -13.6604  -15.3614 C   0  0  0  0  0  0  0  0  0  0  0  0
   23.1461  -15.1000  -15.2863 C   0  0  0  0  0  0  0  0  0  0  0  0
   22.2810  -16.1733  -15.2737 C   0  0  0  0  0  0  0  0  0  0  0  0
   23.0215  -17.3008  -15.1849 N   0  0  0  0  0  0  0  0  0  0  0  0
   24.3296  -17.0034  -15.1396 C   0  0  0  0  0  0  0  0  0  0  0  0
   25.5035  -17.7537  -15.0514 C   0  0  0  0  0  0  0  0  0  0  0  0
   26.7337  -17.1331  -15.0276 C   0  0  0  0  0  0  0  0  0  0  0  0
   26.8443  -15.7607  -15.0898 C   0  0  0  0  0  0  0  0  0  0  0  0
   25.6763  -15.0364  -15.1761 C   0  0  0  0  0  0  0  0  0  0  0  0
   24.4244  -15.6336  -15.2019 C   0  0  0  0  0  0  0  0  0  0  0  0
   22.0262  -11.8677  -16.8898 C   0  0  0  0  0  0  0  0  0  0  0  0
   23.0051  -11.0850  -16.9594 O   0  0  0  0  0  0  0  0  0  0  0  0
   20.7491  -11.2733  -16.9976 N   0  0  0  0  0  0  0  0  0  0  0  0
   20.4431   -9.9182  -17.1960 C   0  0  1  0  0  0  0  0  0  0  0  0
   19.2590   -9.5641  -18.0425 C   0  0  0  0  0  0  0  0  0  0  0  0
   19.0269   -8.0924  -18.2555 C   0  0  0  0  0  0  0  0  0  0  0  0
   17.8509   -7.8017  -19.1293 C   0  0  0  0  0  0  0  0  0  0  0  0
   17.6000   -6.5911  -19.3522 O   0  0  0  0  0  0  0  0  0  0  0  0
   20.4438   -9.0995  -15.9789 C   0  0  0  0  0  0  0  0  0  0  0  0
   19.9997   -9.6272  -14.9335 O   0  0  0  0  0  0  0  0  0  0  0  0
   17.0290   -8.7405  -19.7067 O   0  0  0  0  0  0  0  0  0  0  0  0
   20.9274   -7.7848  -16.0106 N   0  0  0  0  0  0  0  0  0  0  0  0
   20.8830   -6.9198  -14.8230 C   0  0  1  0  0  0  0  0  0  0  0  0
   22.1233   -6.1075  -14.8414 C   0  0  0  0  0  0  0  0  0  0  0  0
   22.2209   -5.0870  -13.7802 C   0  0  0  0  0  0  0  0  0  0  0  0
   22.9410   -4.0805  -13.9494 O   0  0  0  0  0  0  0  0  0  0  0  0
   19.6450   -6.1113  -14.9242 C   0  0  0  0  0  0  0  0  0  0  0  0
   19.4001   -5.3464  -16.0651 O   0  0  0  0  0  0  0  0  0  0  0  0
   21.4853   -5.3049  -12.6155 O   0  0  0  0  0  0  0  0  0  0  0  0
   18.7559   -6.0488  -14.0422 O   0  0  0  0  0  0  0  0  0  0  0  0
  2 13  1  0
  2  1  1  6
  3  4  1  0
  3  2  1  0
  4 12  1  0
  5  4  2  0
  5  6  1  0
  6  7  1  0
  7 12  2  0
  7  8  1  0
  8  9  2  0
  9 10  1  0
 11 10  2  0
 12 11  1  0
 13 14  2  0
 15 16  1  0
 15 13  1  0
 16 17  1  1
 18 17  1  0
 19 18  1  0
 19 20  2  0
 21 16  1  0
 22 21  2  0
 23 19  1  0
 24 21  1  0
 25 29  1  0
 25 24  1  0
 25 26  1  6
 27 26  1  0
 28 27  2  0
 29 30  1  0
 31 27  1  0
 32 29  2  0
M  END
$$$$
