WED.pdb
     RDKit          3D

 32 33  0  0  1  0  0  0  0  0999 V2000
   24.3051  -20.6460  -10.3760 N   0  0  0  0  0  0  0  0  0  0  0  0
   24.4318  -20.4012  -11.8010 C   0  0  1  0  0  0  0  0  0  0  0  0
   25.3245  -21.4977  -12.3523 C   0  0  0  0  0  0  0  0  0  0  0  0
   26.7259  -21.2257  -11.9900 C   0  0  0  0  0  0  0  0  0  0  0  0
   27.4641  -21.7126  -10.9324 C   0  0  0  0  0  0  0  0  0  0  0  0
   28.7011  -21.1725  -11.0077 N   0  0  0  0  0  0  0  0  0  0  0  0
   28.7956  -20.3566  -12.0692 C   0  0  0  0  0  0  0  0  0  0  0  0
   29.8098  -19.5647  -12.6104 C   0  0  0  0  0  0  0  0  0  0  0  0
   29.5879  -18.8196  -13.7483 C   0  0  0  0  0  0  0  0  0  0  0  0
   28.3655  -18.8322  -14.3848 C   0  0  0  0  0  0  0  0  0  0  0  0
   27.3765  -19.6185  -13.8371 C   0  0  0  0  0  0  0  0  0  0  0  0
   27.5710  -20.3787  -12.6931 C   0  0  0  0  0  0  0  0  0  0  0  0
   23.0580  -20.4581  -12.3895 C   0  0  0  0  0  0  0  0  0  0  0  0
   22.1831  -21.2400  -11.9435 O   0  0  0  0  0  0  0  0  0  0  0  0
   22.6650  -19.6429  -13.4744 N   0  0  0  0  0  0  0  0  0  0  0  0
   21.4012  -19.5630  -14.0790 C   0  0  1  0  0  0  0  0  0  0  0  0
   21.1479  -18.4743  -15.0764 C   0  0  0  0  0  0  0  0  0  0  0  0
   19.7341  -18.3698  -15.5820 C   0  0  0  0  0  0  0  0  0  0  0  0
   19.5552  -17.3067  -16.6158 C   0  0  0  0  0  0  0  0  0  0  0  0
   18.8869  -17.6170  -17.6333 O   0  0  0  0  0  0  0  0  0  0  0  0
   20.8794  -20.8346  -14.5913 C   0  0  0  0  0  0  0  0  0  0  0  0
   21.7076  -21.6404  -15.0746 O   0  0  0  0  0  0  0  0  0  0  0  0
   20.0547  -16.0277  -16.5460 O   0  0  0  0  0  0  0  0  0  0  0  0
   19.5074  -21.1128  -14.5300 N   0  0  0  0  0  0  0  0  0  0  0  0
   18.9754  -22.4398  -14.8711 C   0  0  1  0  0  0  0  0  0  0  0  0
   19.0022  -23.2424  -13.6247 C   0  0  0  0  0  0  0  0  0  0  0  0
   17.8610  -23.0262  -12.7145 C   0  0  0  0  0  0  0  0  0  0  0  0
   17.6821  -21.9036  -12.1970 O   0  0  0  0  0  0  0  0  0  0  0  0
   17.6110  -22.2318  -15.4114 C   0  0  0  0  0  0  0  0  0  0  0  0
   17.1916  -22.9336  -16.5419 O   0  0  0  0  0  0  0  0  0  0  0  0
   17.0211  -24.1134  -12.4747 O   0  0  0  0  0  0  0  0  0  0  0  0
   16.7590  -21.4509  -14.9249 O   0  0  0  0  0  0  0  0  0  0  0  0
  2 13  1  0
  2  1  1  1
  3  4  1  0
  3  2  1  0
  4 12  1  0
  5  4  2  0
  5  6  1  0
  6  7  1  0
  7 12  2  0
  7  8  1  0
  8  9  2  0
  9 10  1  0
 11 10  2  0
 12 11  1  0
 13 14  2  0
 15 16  1  0
 15 13  1  0
 16 17  1  6
 18 17  1  0
 19 18  1  0
 19 20  2  0
 21 16  1  0
 22 21  2  0
 23 19  1  0
 24 21  1  0
 25 29  1  0
 25 24  1  0
 25 26  1  1
 27 26  1  0
 28 27  2  0
 29 30  1  0
 31 27  1  0
 32 29  2  0
M  END
$$$$
