WED.pdb
     RDKit          3D

 32 33  0  0  1  0  0  0  0  0999 V2000
   26.6778  -21.6699  -11.1559 N   0  0  0  0  0  0  0  0  0  0  0  0
   26.1100  -20.8457  -10.1047 C   0  0  1  0  0  0  0  0  0  0  0  0
   27.0958  -19.7189   -9.8562 C   0  0  0  0  0  0  0  0  0  0  0  0
   28.2178  -20.2124   -9.0397 C   0  0  0  0  0  0  0  0  0  0  0  0
   29.2969  -20.9841   -9.4148 C   0  0  0  0  0  0  0  0  0  0  0  0
   30.0586  -21.1919   -8.3175 N   0  0  0  0  0  0  0  0  0  0  0  0
   29.5188  -20.5874   -7.2475 C   0  0  0  0  0  0  0  0  0  0  0  0
   29.8732  -20.4749   -5.9019 C   0  0  0  0  0  0  0  0  0  0  0  0
   29.0860  -19.7598   -5.0256 C   0  0  0  0  0  0  0  0  0  0  0  0
   27.9310  -19.1366   -5.4464 C   0  0  0  0  0  0  0  0  0  0  0  0
   27.5964  -19.2583   -6.7765 C   0  0  0  0  0  0  0  0  0  0  0  0
   28.3693  -19.9714   -7.6814 C   0  0  0  0  0  0  0  0  0  0  0  0
   24.7954  -20.3316  -10.5989 C   0  0  0  0  0  0  0  0  0  0  0  0
   24.5910  -19.1049  -10.7704 O   0  0  0  0  0  0  0  0  0  0  0  0
   23.7125  -21.1878  -10.8996 N   0  0  0  0  0  0  0  0  0  0  0  0
   22.4608  -20.8405  -11.4304 C   0  0  1  0  0  0  0  0  0  0  0  0
   22.4099  -19.9179  -12.6096 C   0  0  0  0  0  0  0  0  0  0  0  0
   23.3532  -20.2465  -13.7353 C   0  0  0  0  0  0  0  0  0  0  0  0
   23.2460  -19.3031  -14.8883 C   0  0  0  0  0  0  0  0  0  0  0  0
   24.0810  -19.4491  -15.8155 O   0  0  0  0  0  0  0  0  0  0  0  0
   21.5454  -21.9667  -11.6435 C   0  0  0  0  0  0  0  0  0  0  0  0
   21.9894  -22.9543  -12.2729 O   0  0  0  0  0  0  0  0  0  0  0  0
   22.3165  -18.2986  -15.0192 O   0  0  0  0  0  0  0  0  0  0  0  0
   20.2341  -21.9156  -11.1524 N   0  0  0  0  0  0  0  0  0  0  0  0
   19.3101  -23.0483  -11.3067 C   0  0  1  0  0  0  0  0  0  0  0  0
   18.3997  -23.0172  -10.1368 C   0  0  0  0  0  0  0  0  0  0  0  0
   17.3733  -24.0771  -10.1121 C   0  0  0  0  0  0  0  0  0  0  0  0
   17.2635  -24.8593  -11.0797 O   0  0  0  0  0  0  0  0  0  0  0  0
   18.6145  -22.8642  -12.6025 C   0  0  0  0  0  0  0  0  0  0  0  0
   18.2049  -21.5918  -13.0021 O   0  0  0  0  0  0  0  0  0  0  0  0
   16.5603  -24.1521   -8.9814 O   0  0  0  0  0  0  0  0  0  0  0  0
   18.3495  -23.7855  -13.4107 O   0  0  0  0  0  0  0  0  0  0  0  0
  2 13  1  0
  2  1  1  6
  3  4  1  0
  3  2  1  0
  4 12  1  0
  5  4  2  0
  5  6  1  0
  6  7  1  0
  7 12  2  0
  7  8  1  0
  8  9  2  0
  9 10  1  0
 11 10  2  0
 12 11  1  0
 13 14  2  0
 15 16  1  0
 15 13  1  0
 16 17  1  6
 18 17  1  0
 19 18  1  0
 19 20  2  0
 21 16  1  0
 22 21  2  0
 23 19  1  0
 24 21  1  0
 25 29  1  0
 25 24  1  0
 25 26  1  1
 27 26  1  0
 28 27  2  0
 29 30  1  0
 31 27  1  0
 32 29  2  0
M  END
$$$$
