WED.pdb
     RDKit          3D

 32 33  0  0  1  0  0  0  0  0999 V2000
   23.6938  -19.8538  -18.0350 N   0  0  0  0  0  0  0  0  0  0  0  0
   22.5125  -19.0255  -18.1931 C   0  0  1  0  0  0  0  0  0  0  0  0
   21.8461  -19.4618  -19.4849 C   0  0  0  0  0  0  0  0  0  0  0  0
   22.5937  -18.9249  -20.6348 C   0  0  0  0  0  0  0  0  0  0  0  0
   23.2863  -17.7383  -20.7481 C   0  0  0  0  0  0  0  0  0  0  0  0
   23.8013  -17.6773  -21.9966 N   0  0  0  0  0  0  0  0  0  0  0  0
   23.4717  -18.7740  -22.6967 C   0  0  0  0  0  0  0  0  0  0  0  0
   23.7283  -19.2240  -23.9930 C   0  0  0  0  0  0  0  0  0  0  0  0
   23.2356  -20.4358  -24.4264 C   0  0  0  0  0  0  0  0  0  0  0  0
   22.4787  -21.2376  -23.5995 C   0  0  0  0  0  0  0  0  0  0  0  0
   22.2351  -20.7781  -22.3245 C   0  0  0  0  0  0  0  0  0  0  0  0
   22.7179  -19.5630  -21.8608 C   0  0  0  0  0  0  0  0  0  0  0  0
   21.6332  -19.2678  -17.0078 C   0  0  0  0  0  0  0  0  0  0  0  0
   21.5432  -20.4014  -16.4761 O   0  0  0  0  0  0  0  0  0  0  0  0
   20.8563  -18.2446  -16.4199 N   0  0  0  0  0  0  0  0  0  0  0  0
   20.0701  -18.3179  -15.2600 C   0  0  1  0  0  0  0  0  0  0  0  0
   19.8590  -17.0732  -14.4536 C   0  0  0  0  0  0  0  0  0  0  0  0
   19.1148  -15.9649  -15.1487 C   0  0  0  0  0  0  0  0  0  0  0  0
   19.0334  -14.7120  -14.3396 C   0  0  0  0  0  0  0  0  0  0  0  0
   18.4264  -13.7432  -14.8605 O   0  0  0  0  0  0  0  0  0  0  0  0
   18.7953  -19.0255  -15.4207 C   0  0  0  0  0  0  0  0  0  0  0  0
   18.1791  -18.8577  -16.4982 O   0  0  0  0  0  0  0  0  0  0  0  0
   19.5607  -14.5331  -13.0826 O   0  0  0  0  0  0  0  0  0  0  0  0
   18.3093  -19.8497  -14.3971 N   0  0  0  0  0  0  0  0  0  0  0  0
   17.0483  -20.5914  -14.5398 C   0  0  1  0  0  0  0  0  0  0  0  0
   17.1766  -21.8129  -13.7092 C   0  0  0  0  0  0  0  0  0  0  0  0
   18.2048  -22.7715  -14.1576 C   0  0  0  0  0  0  0  0  0  0  0  0
   19.1061  -23.1304  -13.3708 O   0  0  0  0  0  0  0  0  0  0  0  0
   15.9624  -19.6856  -14.0958 C   0  0  0  0  0  0  0  0  0  0  0  0
   14.6316  -20.0015  -14.3707 O   0  0  0  0  0  0  0  0  0  0  0  0
   18.1135  -23.2387  -15.4685 O   0  0  0  0  0  0  0  0  0  0  0  0
   16.1348  -18.6151  -13.4662 O   0  0  0  0  0  0  0  0  0  0  0  0
  2 13  1  0
  2  1  1  1
  3  4  1  0
  3  2  1  0
  4 12  1  0
  5  4  2  0
  5  6  1  0
  6  7  1  0
  7 12  2  0
  7  8  1  0
  8  9  2  0
  9 10  1  0
 11 10  2  0
 12 11  1  0
 13 14  2  0
 15 16  1  0
 15 13  1  0
 16 17  1  6
 18 17  1  0
 19 18  1  0
 19 20  2  0
 21 16  1  0
 22 21  2  0
 23 19  1  0
 24 21  1  0
 25 29  1  0
 25 24  1  0
 25 26  1  1
 27 26  1  0
 28 27  2  0
 29 30  1  0
 31 27  1  0
 32 29  2  0
M  END
$$$$
