WED.pdb
     RDKit          3D

 32 33  0  0  1  0  0  0  0  0999 V2000
   21.8881  -32.2288   -1.5455 N   0  0  0  0  0  0  0  0  0  0  0  0
   23.2321  -31.8045   -1.8921 C   0  0  1  0  0  0  0  0  0  0  0  0
   23.4786  -30.4998   -1.1573 C   0  0  0  0  0  0  0  0  0  0  0  0
   22.4636  -29.5084   -1.5524 C   0  0  0  0  0  0  0  0  0  0  0  0
   21.9344  -29.2507   -2.7991 C   0  0  0  0  0  0  0  0  0  0  0  0
   21.0408  -28.2446   -2.6694 N   0  0  0  0  0  0  0  0  0  0  0  0
   20.9686  -27.8398   -1.3918 C   0  0  0  0  0  0  0  0  0  0  0  0
   20.2331  -26.8681   -0.7108 C   0  0  0  0  0  0  0  0  0  0  0  0
   20.3879  -26.6934    0.6473 C   0  0  0  0  0  0  0  0  0  0  0  0
   21.2680  -27.4673    1.3727 C   0  0  0  0  0  0  0  0  0  0  0  0
   21.9855  -28.4204    0.6850 C   0  0  0  0  0  0  0  0  0  0  0  0
   21.8505  -28.6188   -0.6814 C   0  0  0  0  0  0  0  0  0  0  0  0
   24.1711  -32.8784   -1.4428 C   0  0  0  0  0  0  0  0  0  0  0  0
   23.9631  -33.5384   -0.3954 O   0  0  0  0  0  0  0  0  0  0  0  0
   25.3398  -33.2120   -2.1631 N   0  0  0  0  0  0  0  0  0  0  0  0
   26.5134  -33.8062   -1.6744 C   0  0  1  0  0  0  0  0  0  0  0  0
   27.6530  -34.0331   -2.6199 C   0  0  0  0  0  0  0  0  0  0  0  0
   28.7885  -34.8634   -2.0846 C   0  0  0  0  0  0  0  0  0  0  0  0
   29.8424  -35.1475   -3.1042 C   0  0  0  0  0  0  0  0  0  0  0  0
   30.8031  -35.8683   -2.7358 O   0  0  0  0  0  0  0  0  0  0  0  0
   27.0174  -33.2386   -0.4192 C   0  0  0  0  0  0  0  0  0  0  0  0
   27.2104  -32.0015   -0.3869 O   0  0  0  0  0  0  0  0  0  0  0  0
   29.8472  -34.6919   -4.4013 O   0  0  0  0  0  0  0  0  0  0  0  0
   27.2637  -34.0671    0.6837 N   0  0  0  0  0  0  0  0  0  0  0  0
   27.7237  -33.5212    1.9685 C   0  0  1  0  0  0  0  0  0  0  0  0
   26.5887  -33.6456    2.9146 C   0  0  0  0  0  0  0  0  0  0  0  0
   26.8893  -33.2663    4.3086 C   0  0  0  0  0  0  0  0  0  0  0  0
   26.1227  -33.6210    5.2288 O   0  0  0  0  0  0  0  0  0  0  0  0
   28.9158  -34.3057    2.3687 C   0  0  0  0  0  0  0  0  0  0  0  0
   29.3498  -35.3708    1.5789 O   0  0  0  0  0  0  0  0  0  0  0  0
   28.0424  -32.5140    4.5309 O   0  0  0  0  0  0  0  0  0  0  0  0
   29.6033  -34.0913    3.3951 O   0  0  0  0  0  0  0  0  0  0  0  0
  2 13  1  0
  2  1  1  1
  3  4  1  0
  3  2  1  0
  4 12  1  0
  5  4  2  0
  5  6  1  0
  6  7  1  0
  7 12  2  0
  7  8  1  0
  8  9  2  0
  9 10  1  0
 11 10  2  0
 12 11  1  0
 13 14  2  0
 15 16  1  0
 15 13  1  0
 16 17  1  6
 18 17  1  0
 19 18  1  0
 19 20  2  0
 21 16  1  0
 22 21  2  0
 23 19  1  0
 24 21  1  0
 25 29  1  0
 25 24  1  0
 25 26  1  1
 27 26  1  0
 28 27  2  0
 29 30  1  0
 31 27  1  0
 32 29  2  0
M  END
$$$$
