WED.pdb
     RDKit          3D

 32 33  0  0  1  0  0  0  0  0999 V2000
   27.6220  -21.6438  -12.7608 N   0  0  0  0  0  0  0  0  0  0  0  0
   26.5074  -21.4909  -11.8438 C   0  0  1  0  0  0  0  0  0  0  0  0
   26.8211  -20.2858  -10.9764 C   0  0  0  0  0  0  0  0  0  0  0  0
   28.0148  -20.5604  -10.1585 C   0  0  0  0  0  0  0  0  0  0  0  0
   29.2512  -21.0287  -10.5490 C   0  0  0  0  0  0  0  0  0  0  0  0
   30.0230  -21.1310   -9.4438 N   0  0  0  0  0  0  0  0  0  0  0  0
   29.3390  -20.7487   -8.3540 C   0  0  0  0  0  0  0  0  0  0  0  0
   29.6355  -20.6538   -6.9932 C   0  0  0  0  0  0  0  0  0  0  0  0
   28.6880  -20.2083   -6.0972 C   0  0  0  0  0  0  0  0  0  0  0  0
   27.4253  -19.8442   -6.5128 C   0  0  0  0  0  0  0  0  0  0  0  0
   27.1500  -19.9444   -7.8583 C   0  0  0  0  0  0  0  0  0  0  0  0
   28.0836  -20.3894   -8.7830 C   0  0  0  0  0  0  0  0  0  0  0  0
   25.2768  -21.2753  -12.6660 C   0  0  0  0  0  0  0  0  0  0  0  0
   25.1399  -20.2604  -13.3920 O   0  0  0  0  0  0  0  0  0  0  0  0
   24.2023  -22.1927  -12.6751 N   0  0  0  0  0  0  0  0  0  0  0  0
   23.0385  -22.1492  -13.4579 C   0  0  1  0  0  0  0  0  0  0  0  0
   22.3787  -23.4390  -13.8390 C   0  0  0  0  0  0  0  0  0  0  0  0
   21.1933  -23.3179  -14.7583 C   0  0  0  0  0  0  0  0  0  0  0  0
   20.6279  -24.6384  -15.1679 C   0  0  0  0  0  0  0  0  0  0  0  0
   21.4393  -25.4814  -15.6252 O   0  0  0  0  0  0  0  0  0  0  0  0
   22.0251  -21.1895  -13.0065 C   0  0  0  0  0  0  0  0  0  0  0  0
   21.8411  -21.0894  -11.7716 O   0  0  0  0  0  0  0  0  0  0  0  0
   19.3056  -25.0054  -15.0846 O   0  0  0  0  0  0  0  0  0  0  0  0
   21.3071  -20.4278  -13.9378 N   0  0  0  0  0  0  0  0  0  0  0  0
   20.3095  -19.4349  -13.5142 C   0  0  1  0  0  0  0  0  0  0  0  0
   20.3426  -18.3435  -14.5174 C   0  0  0  0  0  0  0  0  0  0  0  0
   19.3698  -17.2566  -14.2945 C   0  0  0  0  0  0  0  0  0  0  0  0
   19.0978  -16.8943  -13.1305 O   0  0  0  0  0  0  0  0  0  0  0  0
   19.0053  -20.1358  -13.4456 C   0  0  0  0  0  0  0  0  0  0  0  0
   18.1312  -19.8852  -12.3875 O   0  0  0  0  0  0  0  0  0  0  0  0
   18.7915  -16.6762  -15.4231 O   0  0  0  0  0  0  0  0  0  0  0  0
   18.5943  -20.9687  -14.2880 O   0  0  0  0  0  0  0  0  0  0  0  0
  2 13  1  0
  2  1  1  6
  3  4  1  0
  3  2  1  0
  4 12  1  0
  5  4  2  0
  5  6  1  0
  6  7  1  0
  7 12  2  0
  7  8  1  0
  8  9  2  0
  9 10  1  0
 11 10  2  0
 12 11  1  0
 13 14  2  0
 15 16  1  0
 15 13  1  0
 16 17  1  1
 18 17  1  0
 19 18  1  0
 19 20  2  0
 21 16  1  0
 22 21  2  0
 23 19  1  0
 24 21  1  0
 25 29  1  0
 25 24  1  0
 25 26  1  6
 27 26  1  0
 28 27  2  0
 29 30  1  0
 31 27  1  0
 32 29  2  0
M  END
$$$$
