WED.pdb
     RDKit          3D

 32 33  0  0  1  0  0  0  0  0999 V2000
   22.9246  -25.4248  -15.4059 N   0  0  0  0  0  0  0  0  0  0  0  0
   21.6289  -24.8440  -15.1055 C   0  0  1  0  0  0  0  0  0  0  0  0
   20.6905  -25.2777  -16.2165 C   0  0  0  0  0  0  0  0  0  0  0  0
   21.0243  -24.5576  -17.4572 C   0  0  0  0  0  0  0  0  0  0  0  0
   21.8933  -24.9143  -18.4663 C   0  0  0  0  0  0  0  0  0  0  0  0
   21.8750  -23.9319  -19.3948 N   0  0  0  0  0  0  0  0  0  0  0  0
   21.0309  -22.9542  -19.0301 C   0  0  0  0  0  0  0  0  0  0  0  0
   20.6325  -21.7412  -19.5946 C   0  0  0  0  0  0  0  0  0  0  0  0
   19.7160  -20.9356  -18.9541 C   0  0  0  0  0  0  0  0  0  0  0  0
   19.1666  -21.2990  -17.7434 C   0  0  0  0  0  0  0  0  0  0  0  0
   19.5711  -22.4983  -17.2010 C   0  0  0  0  0  0  0  0  0  0  0  0
   20.4916  -23.3295  -17.8228 C   0  0  0  0  0  0  0  0  0  0  0  0
   21.1962  -25.3766  -13.7766 C   0  0  0  0  0  0  0  0  0  0  0  0
   21.6496  -26.4547  -13.3205 O   0  0  0  0  0  0  0  0  0  0  0  0
   20.2583  -24.7048  -12.9609 N   0  0  0  0  0  0  0  0  0  0  0  0
   19.7241  -25.1277  -11.7342 C   0  0  1  0  0  0  0  0  0  0  0  0
   18.8339  -24.1914  -10.9757 C   0  0  0  0  0  0  0  0  0  0  0  0
   17.5075  -23.8884  -11.6193 C   0  0  0  0  0  0  0  0  0  0  0  0
   16.6282  -23.0229  -10.7775 C   0  0  0  0  0  0  0  0  0  0  0  0
   16.9845  -21.8266  -10.6354 O   0  0  0  0  0  0  0  0  0  0  0  0
   19.1336  -26.4704  -11.7468 C   0  0  0  0  0  0  0  0  0  0  0  0
   18.5198  -26.8163  -12.7823 O   0  0  0  0  0  0  0  0  0  0  0  0
   15.4705  -23.4223  -10.1527 O   0  0  0  0  0  0  0  0  0  0  0  0
   19.2656  -27.3122  -10.6344 N   0  0  0  0  0  0  0  0  0  0  0  0
   18.7065  -28.6715  -10.6275 C   0  0  1  0  0  0  0  0  0  0  0  0
   19.3974  -29.4104   -9.5434 C   0  0  0  0  0  0  0  0  0  0  0  0
   19.0627  -30.8444   -9.4493 C   0  0  0  0  0  0  0  0  0  0  0  0
   19.6433  -31.5649   -8.6103 O   0  0  0  0  0  0  0  0  0  0  0  0
   17.2461  -28.5362  -10.4135 C   0  0  0  0  0  0  0  0  0  0  0  0
   16.3568  -29.3376  -11.1301 O   0  0  0  0  0  0  0  0  0  0  0  0
   18.0912  -31.3318  -10.3232 O   0  0  0  0  0  0  0  0  0  0  0  0
   16.7107  -27.7348   -9.6114 O   0  0  0  0  0  0  0  0  0  0  0  0
  2 13  1  0
  2  1  1  6
  3  4  1  0
  3  2  1  0
  4 12  1  0
  5  4  2  0
  5  6  1  0
  6  7  1  0
  7 12  2  0
  7  8  1  0
  8  9  2  0
  9 10  1  0
 11 10  2  0
 12 11  1  0
 13 14  2  0
 15 16  1  0
 15 13  1  0
 16 17  1  6
 18 17  1  0
 19 18  1  0
 19 20  2  0
 21 16  1  0
 22 21  2  0
 23 19  1  0
 24 21  1  0
 25 29  1  0
 25 24  1  0
 25 26  1  1
 27 26  1  0
 28 27  2  0
 29 30  1  0
 31 27  1  0
 32 29  2  0
M  END
$$$$
