WED.pdb
     RDKit          3D

 32 33  0  0  1  0  0  0  0  0999 V2000
   22.3008  -19.6959  -14.7084 N   0  0  0  0  0  0  0  0  0  0  0  0
   21.2837  -19.3836  -13.7213 C   0  0  1  0  0  0  0  0  0  0  0  0
   19.9421  -19.5847  -14.4017 C   0  0  0  0  0  0  0  0  0  0  0  0
   19.7719  -18.5837  -15.4686 C   0  0  0  0  0  0  0  0  0  0  0  0
   19.9674  -18.7145  -16.8270 C   0  0  0  0  0  0  0  0  0  0  0  0
   19.6942  -17.5215  -17.4013 N   0  0  0  0  0  0  0  0  0  0  0  0
   19.3300  -16.6236  -16.4725 C   0  0  0  0  0  0  0  0  0  0  0  0
   18.9486  -15.2810  -16.5025 C   0  0  0  0  0  0  0  0  0  0  0  0
   18.6216  -14.6174  -15.3399 C   0  0  0  0  0  0  0  0  0  0  0  0
   18.6601  -15.2534  -14.1178 C   0  0  0  0  0  0  0  0  0  0  0  0
   19.0387  -16.5773  -14.1066 C   0  0  0  0  0  0  0  0  0  0  0  0
   19.3733  -17.2708  -15.2607 C   0  0  0  0  0  0  0  0  0  0  0  0
   21.4685  -20.3249  -12.5738 C   0  0  0  0  0  0  0  0  0  0  0  0
   21.1478  -21.5356  -12.6578 O   0  0  0  0  0  0  0  0  0  0  0  0
   22.0099  -19.9120  -11.3359 N   0  0  0  0  0  0  0  0  0  0  0  0
   22.0852  -20.6440  -10.1411 C   0  0  1  0  0  0  0  0  0  0  0  0
   22.9647  -20.1361   -9.0398 C   0  0  0  0  0  0  0  0  0  0  0  0
   24.3748  -19.7922   -9.4381 C   0  0  0  0  0  0  0  0  0  0  0  0
   25.1577  -20.9726   -9.9120 C   0  0  0  0  0  0  0  0  0  0  0  0
   24.8909  -22.0775   -9.3769 O   0  0  0  0  0  0  0  0  0  0  0  0
   20.7918  -21.0609   -9.5888 C   0  0  0  0  0  0  0  0  0  0  0  0
   19.9234  -20.1723   -9.4306 O   0  0  0  0  0  0  0  0  0  0  0  0
   26.1357  -20.9512  -10.8781 O   0  0  0  0  0  0  0  0  0  0  0  0
   20.5618  -22.4037   -9.2609 N   0  0  0  0  0  0  0  0  0  0  0  0
   19.2619  -22.8586   -8.7475 C   0  0  1  0  0  0  0  0  0  0  0  0
   18.6362  -23.6620   -9.8253 C   0  0  0  0  0  0  0  0  0  0  0  0
   17.3194  -24.2394   -9.4937 C   0  0  0  0  0  0  0  0  0  0  0  0
   16.7684  -23.9506   -8.4105 O   0  0  0  0  0  0  0  0  0  0  0  0
   19.5326  -23.6336   -7.5134 C   0  0  0  0  0  0  0  0  0  0  0  0
   18.5212  -23.8256   -6.5718 O   0  0  0  0  0  0  0  0  0  0  0  0
   16.7447  -25.0980  -10.4305 O   0  0  0  0  0  0  0  0  0  0  0  0
   20.6341  -24.1583   -7.2240 O   0  0  0  0  0  0  0  0  0  0  0  0
  2 13  1  0
  2  1  1  6
  3  4  1  0
  3  2  1  0
  4 12  1  0
  5  4  2  0
  5  6  1  0
  6  7  1  0
  7 12  2  0
  7  8  1  0
  8  9  2  0
  9 10  1  0
 11 10  2  0
 12 11  1  0
 13 14  2  0
 15 16  1  0
 15 13  1  0
 16 17  1  1
 18 17  1  0
 19 18  1  0
 19 20  2  0
 21 16  1  0
 22 21  2  0
 23 19  1  0
 24 21  1  0
 25 29  1  0
 25 24  1  0
 25 26  1  6
 27 26  1  0
 28 27  2  0
 29 30  1  0
 31 27  1  0
 32 29  2  0
M  END
$$$$
