WED.pdb
     RDKit          3D

 32 33  0  0  1  0  0  0  0  0999 V2000
   13.3532  -21.8448    1.0590 N   0  0  0  0  0  0  0  0  0  0  0  0
   14.2675  -21.5897    2.1569 C   0  0  1  0  0  0  0  0  0  0  0  0
   13.5562  -20.6393    3.1024 C   0  0  0  0  0  0  0  0  0  0  0  0
   13.5682  -19.2783    2.5397 C   0  0  0  0  0  0  0  0  0  0  0  0
   12.5182  -18.5202    2.0669 C   0  0  0  0  0  0  0  0  0  0  0  0
   13.0192  -17.3388    1.6417 N   0  0  0  0  0  0  0  0  0  0  0  0
   14.3490  -17.2993    1.8191 C   0  0  0  0  0  0  0  0  0  0  0  0
   15.3444  -16.3534    1.5677 C   0  0  0  0  0  0  0  0  0  0  0  0
   16.6610  -16.6205    1.8748 C   0  0  0  0  0  0  0  0  0  0  0  0
   17.0353  -17.8220    2.4367 C   0  0  0  0  0  0  0  0  0  0  0  0
   16.0407  -18.7435    2.6775 C   0  0  0  0  0  0  0  0  0  0  0  0
   14.7076  -18.5024    2.3788 C   0  0  0  0  0  0  0  0  0  0  0  0
   14.5613  -22.9027    2.8100 C   0  0  0  0  0  0  0  0  0  0  0  0
   13.7782  -23.8785    2.7073 O   0  0  0  0  0  0  0  0  0  0  0  0
   15.7278  -23.1227    3.5763 N   0  0  0  0  0  0  0  0  0  0  0  0
   16.0516  -24.2482    4.3493 C   0  0  1  0  0  0  0  0  0  0  0  0
   16.3968  -25.5271    3.6495 C   0  0  0  0  0  0  0  0  0  0  0  0
   17.3558  -25.4006    2.4964 C   0  0  0  0  0  0  0  0  0  0  0  0
   17.5860  -26.6895    1.7775 C   0  0  0  0  0  0  0  0  0  0  0  0
   16.9833  -26.8412    0.6858 O   0  0  0  0  0  0  0  0  0  0  0  0
   17.0123  -24.0007    5.4298 C   0  0  0  0  0  0  0  0  0  0  0  0
   17.9146  -23.1597    5.2122 O   0  0  0  0  0  0  0  0  0  0  0  0
   18.3972  -27.7133    2.2062 O   0  0  0  0  0  0  0  0  0  0  0  0
   16.9028  -24.6885    6.6456 N   0  0  0  0  0  0  0  0  0  0  0  0
   17.8169  -24.4221    7.7653 C   0  0  1  0  0  0  0  0  0  0  0  0
   17.0397  -24.6370    9.0097 C   0  0  0  0  0  0  0  0  0  0  0  0
   17.7861  -24.4118   10.2625 C   0  0  0  0  0  0  0  0  0  0  0  0
   18.9827  -24.0565   10.2183 O   0  0  0  0  0  0  0  0  0  0  0  0
   18.9633  -25.3497    7.6165 C   0  0  0  0  0  0  0  0  0  0  0  0
   20.2668  -24.8853    7.7944 O   0  0  0  0  0  0  0  0  0  0  0  0
   17.0990  -24.6117   11.4595 O   0  0  0  0  0  0  0  0  0  0  0  0
   18.8675  -26.5679    7.3351 O   0  0  0  0  0  0  0  0  0  0  0  0
  2 13  1  0
  2  1  1  6
  3  4  1  0
  3  2  1  0
  4 12  1  0
  5  4  2  0
  5  6  1  0
  6  7  1  0
  7 12  2  0
  7  8  1  0
  8  9  2  0
  9 10  1  0
 11 10  2  0
 12 11  1  0
 13 14  2  0
 15 16  1  0
 15 13  1  0
 16 17  1  6
 18 17  1  0
 19 18  1  0
 19 20  2  0
 21 16  1  0
 22 21  2  0
 23 19  1  0
 24 21  1  0
 25 29  1  0
 25 24  1  0
 25 26  1  1
 27 26  1  0
 28 27  2  0
 29 30  1  0
 31 27  1  0
 32 29  2  0
M  END
$$$$
