WED.pdb
     RDKit          3D

 32 33  0  0  1  0  0  0  0  0999 V2000
   20.5544  -12.6562  -16.3152 N   0  0  0  0  0  0  0  0  0  0  0  0
   19.8043  -11.4788  -16.7120 C   0  0  1  0  0  0  0  0  0  0  0  0
   18.3451  -11.7739  -16.4172 C   0  0  0  0  0  0  0  0  0  0  0  0
   17.8201  -12.7238  -17.4128 C   0  0  0  0  0  0  0  0  0  0  0  0
   18.4675  -13.7524  -18.0635 C   0  0  0  0  0  0  0  0  0  0  0  0
   17.5778  -14.3423  -18.8931 N   0  0  0  0  0  0  0  0  0  0  0  0
   16.3816  -13.7395  -18.8072 C   0  0  0  0  0  0  0  0  0  0  0  0
   15.1409  -13.9305  -19.4178 C   0  0  0  0  0  0  0  0  0  0  0  0
   14.0713  -13.1201  -19.1043 C   0  0  0  0  0  0  0  0  0  0  0  0
   14.1911  -12.1014  -18.1837 C   0  0  0  0  0  0  0  0  0  0  0  0
   15.4220  -11.9269  -17.5915 C   0  0  0  0  0  0  0  0  0  0  0  0
   16.5160  -12.7270  -17.8873 C   0  0  0  0  0  0  0  0  0  0  0  0
   20.3112  -10.3296  -15.9000 C   0  0  0  0  0  0  0  0  0  0  0  0
   20.3321  -10.3690  -14.6455 O   0  0  0  0  0  0  0  0  0  0  0  0
   20.7926   -9.1397  -16.4904 N   0  0  0  0  0  0  0  0  0  0  0  0
   21.2487   -7.9804  -15.8445 C   0  0  1  0  0  0  0  0  0  0  0  0
   22.7237   -7.7283  -15.7747 C   0  0  0  0  0  0  0  0  0  0  0  0
   23.4870   -7.9686  -17.0494 C   0  0  0  0  0  0  0  0  0  0  0  0
   24.9542   -7.7243  -16.9127 C   0  0  0  0  0  0  0  0  0  0  0  0
   25.6577   -7.9333  -17.9323 O   0  0  0  0  0  0  0  0  0  0  0  0
   20.5533   -6.7463  -16.2253 C   0  0  0  0  0  0  0  0  0  0  0  0
   20.5032   -6.4705  -17.4460 O   0  0  0  0  0  0  0  0  0  0  0  0
   25.5927   -7.2915  -15.7746 O   0  0  0  0  0  0  0  0  0  0  0  0
   19.9766   -5.9276  -15.2452 N   0  0  0  0  0  0  0  0  0  0  0  0
   19.3259   -4.6557  -15.5905 C   0  0  1  0  0  0  0  0  0  0  0  0
   18.1127   -4.5546  -14.7441 C   0  0  0  0  0  0  0  0  0  0  0  0
   17.3568   -3.2945  -14.8787 C   0  0  0  0  0  0  0  0  0  0  0  0
   17.3342   -2.4787  -13.9332 O   0  0  0  0  0  0  0  0  0  0  0  0
   20.3155   -3.5819  -15.3364 C   0  0  0  0  0  0  0  0  0  0  0  0
   20.1119   -2.3047  -15.8595 O   0  0  0  0  0  0  0  0  0  0  0  0
   16.6916   -3.0750  -16.0847 O   0  0  0  0  0  0  0  0  0  0  0  0
   21.3646   -3.7190  -14.6634 O   0  0  0  0  0  0  0  0  0  0  0  0
  2 13  1  0
  2  1  1  1
  3  4  1  0
  3  2  1  0
  4 12  1  0
  5  4  2  0
  5  6  1  0
  6  7  1  0
  7 12  2  0
  7  8  1  0
  8  9  2  0
  9 10  1  0
 11 10  2  0
 12 11  1  0
 13 14  2  0
 15 16  1  0
 15 13  1  0
 16 17  1  6
 18 17  1  0
 19 18  1  0
 19 20  2  0
 21 16  1  0
 22 21  2  0
 23 19  1  0
 24 21  1  0
 25 29  1  0
 25 24  1  0
 25 26  1  1
 27 26  1  0
 28 27  2  0
 29 30  1  0
 31 27  1  0
 32 29  2  0
M  END
$$$$
