WED.pdb
     RDKit          3D

 32 33  0  0  1  0  0  0  0  0999 V2000
   25.3395  -19.2001   -8.2246 N   0  0  0  0  0  0  0  0  0  0  0  0
   25.6970  -20.1860   -9.2279 C   0  0  1  0  0  0  0  0  0  0  0  0
   26.9554  -20.8740   -8.7316 C   0  0  0  0  0  0  0  0  0  0  0  0
   27.6855  -19.9759   -7.8208 C   0  0  0  0  0  0  0  0  0  0  0  0
   28.1450  -18.6949   -8.0412 C   0  0  0  0  0  0  0  0  0  0  0  0
   28.7648  -18.2779   -6.9145 N   0  0  0  0  0  0  0  0  0  0  0  0
   28.7261  -19.2343   -5.9736 C   0  0  0  0  0  0  0  0  0  0  0  0
   29.1933  -19.3397   -4.6623 C   0  0  0  0  0  0  0  0  0  0  0  0
   28.9862  -20.4905   -3.9330 C   0  0  0  0  0  0  0  0  0  0  0  0
   28.3154  -21.5676   -4.4710 C   0  0  0  0  0  0  0  0  0  0  0  0
   27.8620  -21.4466   -5.7656 C   0  0  0  0  0  0  0  0  0  0  0  0
   28.0557  -20.3009   -6.5234 C   0  0  0  0  0  0  0  0  0  0  0  0
   24.5530  -21.1423   -9.3443 C   0  0  0  0  0  0  0  0  0  0  0  0
   24.6408  -22.1935  -10.0248 O   0  0  0  0  0  0  0  0  0  0  0  0
   23.3142  -20.9223   -8.7016 N   0  0  0  0  0  0  0  0  0  0  0  0
   22.1004  -21.5928   -8.9169 C   0  0  1  0  0  0  0  0  0  0  0  0
   21.3002  -22.0322   -7.7290 C   0  0  0  0  0  0  0  0  0  0  0  0
   20.1400  -22.9438   -8.0259 C   0  0  0  0  0  0  0  0  0  0  0  0
   19.4579  -23.4487   -6.7968 C   0  0  0  0  0  0  0  0  0  0  0  0
   18.2018  -23.4320   -6.8022 O   0  0  0  0  0  0  0  0  0  0  0  0
   21.2156  -20.9677   -9.9057 C   0  0  0  0  0  0  0  0  0  0  0  0
   21.0383  -19.7311   -9.8148 O   0  0  0  0  0  0  0  0  0  0  0  0
   20.0848  -23.9281   -5.6710 O   0  0  0  0  0  0  0  0  0  0  0  0
   20.6067  -21.7433  -10.9012 N   0  0  0  0  0  0  0  0  0  0  0  0
   19.7429  -21.1400  -11.9260 C   0  0  1  0  0  0  0  0  0  0  0  0
   20.3068  -21.5292  -13.2410 C   0  0  0  0  0  0  0  0  0  0  0  0
   20.7015  -20.4053  -14.1119 C   0  0  0  0  0  0  0  0  0  0  0  0
   20.4898  -19.2302  -13.7453 O   0  0  0  0  0  0  0  0  0  0  0  0
   18.3730  -21.6559  -11.6939 C   0  0  0  0  0  0  0  0  0  0  0  0
   17.2758  -20.8007  -11.8003 O   0  0  0  0  0  0  0  0  0  0  0  0
   21.3058  -20.7222  -15.3282 O   0  0  0  0  0  0  0  0  0  0  0  0
   18.0946  -22.8426  -11.3998 O   0  0  0  0  0  0  0  0  0  0  0  0
  2 13  1  0
  2  1  1  1
  3  4  1  0
  3  2  1  0
  4 12  1  0
  5  4  2  0
  5  6  1  0
  6  7  1  0
  7 12  2  0
  7  8  1  0
  8  9  2  0
  9 10  1  0
 11 10  2  0
 12 11  1  0
 13 14  2  0
 15 16  1  0
 15 13  1  0
 16 17  1  1
 18 17  1  0
 19 18  1  0
 19 20  2  0
 21 16  1  0
 22 21  2  0
 23 19  1  0
 24 21  1  0
 25 29  1  0
 25 24  1  0
 25 26  1  6
 27 26  1  0
 28 27  2  0
 29 30  1  0
 31 27  1  0
 32 29  2  0
M  END
$$$$
