WED.pdb
     RDKit          3D

 32 33  0  0  1  0  0  0  0  0999 V2000
   24.6654  -19.8581   -8.8257 N   0  0  0  0  0  0  0  0  0  0  0  0
   26.0216  -20.0285   -9.3137 C   0  0  1  0  0  0  0  0  0  0  0  0
   26.5616  -21.2894   -8.6642 C   0  0  0  0  0  0  0  0  0  0  0  0
   26.6126  -21.1120   -7.2030 C   0  0  0  0  0  0  0  0  0  0  0  0
   25.6788  -21.4566   -6.2491 C   0  0  0  0  0  0  0  0  0  0  0  0
   26.1645  -21.0881   -5.0424 N   0  0  0  0  0  0  0  0  0  0  0  0
   27.3732  -20.5195   -5.1743 C   0  0  0  0  0  0  0  0  0  0  0  0
   28.3029  -19.9746   -4.2869 C   0  0  0  0  0  0  0  0  0  0  0  0
   29.4927  -19.4542   -4.7478 C   0  0  0  0  0  0  0  0  0  0  0  0
   29.8016  -19.4551   -6.0910 C   0  0  0  0  0  0  0  0  0  0  0  0
   28.8731  -19.9961   -6.9521 C   0  0  0  0  0  0  0  0  0  0  0  0
   27.6675  -20.5269   -6.5169 C   0  0  0  0  0  0  0  0  0  0  0  0
   25.9493  -20.1602  -10.8018 C   0  0  0  0  0  0  0  0  0  0  0  0
   24.8611  -20.3691  -11.3917 O   0  0  0  0  0  0  0  0  0  0  0  0
   27.0917  -20.0591  -11.6269 N   0  0  0  0  0  0  0  0  0  0  0  0
   27.1476  -20.0891  -13.0287 C   0  0  1  0  0  0  0  0  0  0  0  0
   28.4867  -20.1825  -13.6938 C   0  0  0  0  0  0  0  0  0  0  0  0
   28.4832  -20.0263  -15.1908 C   0  0  0  0  0  0  0  0  0  0  0  0
   27.5706  -18.9445  -15.6681 C   0  0  0  0  0  0  0  0  0  0  0  0
   27.7150  -17.8127  -15.1424 O   0  0  0  0  0  0  0  0  0  0  0  0
   26.2129  -21.0235  -13.6651 C   0  0  0  0  0  0  0  0  0  0  0  0
   26.4471  -22.2468  -13.5329 O   0  0  0  0  0  0  0  0  0  0  0  0
   26.5960  -19.0826  -16.6280 O   0  0  0  0  0  0  0  0  0  0  0  0
   25.1110  -20.5424  -14.3845 N   0  0  0  0  0  0  0  0  0  0  0  0
   24.1107  -21.4528  -14.9598 C   0  0  1  0  0  0  0  0  0  0  0  0
   23.0874  -21.6786  -13.9108 C   0  0  0  0  0  0  0  0  0  0  0  0
   21.9292  -22.4917  -14.3286 C   0  0  0  0  0  0  0  0  0  0  0  0
   21.8657  -22.9298  -15.4966 O   0  0  0  0  0  0  0  0  0  0  0  0
   23.5763  -20.7941  -16.1753 C   0  0  0  0  0  0  0  0  0  0  0  0
   23.1440  -21.5640  -17.2555 O   0  0  0  0  0  0  0  0  0  0  0  0
   20.9423  -22.7350  -13.3737 O   0  0  0  0  0  0  0  0  0  0  0  0
   23.4692  -19.5545  -16.3301 O   0  0  0  0  0  0  0  0  0  0  0  0
  2 13  1  0
  2  1  1  1
  3  4  1  0
  3  2  1  0
  4 12  1  0
  5  4  2  0
  5  6  1  0
  6  7  1  0
  7 12  2  0
  7  8  1  0
  8  9  2  0
  9 10  1  0
 11 10  2  0
 12 11  1  0
 13 14  2  0
 15 16  1  0
 15 13  1  0
 16 17  1  1
 18 17  1  0
 19 18  1  0
 19 20  2  0
 21 16  1  0
 22 21  2  0
 23 19  1  0
 24 21  1  0
 25 29  1  0
 25 24  1  0
 25 26  1  1
 27 26  1  0
 28 27  2  0
 29 30  1  0
 31 27  1  0
 32 29  2  0
M  END
$$$$
