WED.pdb
     RDKit          3D

 32 33  0  0  1  0  0  0  0  0999 V2000
   24.6664  -19.8683  -18.1902 N   0  0  0  0  0  0  0  0  0  0  0  0
   23.7766  -18.8889  -17.5940 C   0  0  1  0  0  0  0  0  0  0  0  0
   23.0581  -18.2006  -18.7399 C   0  0  0  0  0  0  0  0  0  0  0  0
   24.0201  -17.4068  -19.5234 C   0  0  0  0  0  0  0  0  0  0  0  0
   25.0421  -17.8355  -20.3432 C   0  0  0  0  0  0  0  0  0  0  0  0
   25.6608  -16.7411  -20.8402 N   0  0  0  0  0  0  0  0  0  0  0  0
   25.0828  -15.6217  -20.3772 C   0  0  0  0  0  0  0  0  0  0  0  0
   25.3052  -14.2556  -20.5590 C   0  0  0  0  0  0  0  0  0  0  0  0
   24.5114  -13.3241  -19.9256 C   0  0  0  0  0  0  0  0  0  0  0  0
   23.4788  -13.7085  -19.0975 C   0  0  0  0  0  0  0  0  0  0  0  0
   23.2740  -15.0597  -18.9292 C   0  0  0  0  0  0  0  0  0  0  0  0
   24.0568  -16.0198  -19.5538 C   0  0  0  0  0  0  0  0  0  0  0  0
   22.8246  -19.6284  -16.7088 C   0  0  0  0  0  0  0  0  0  0  0  0
   22.1324  -20.5832  -17.1391 O   0  0  0  0  0  0  0  0  0  0  0  0
   22.6472  -19.2997  -15.3462 N   0  0  0  0  0  0  0  0  0  0  0  0
   21.6902  -19.8077  -14.4545 C   0  0  1  0  0  0  0  0  0  0  0  0
   22.1031  -20.0985  -13.0441 C   0  0  0  0  0  0  0  0  0  0  0  0
   21.0531  -20.7389  -12.1766 C   0  0  0  0  0  0  0  0  0  0  0  0
   20.7956  -22.1691  -12.5218 C   0  0  0  0  0  0  0  0  0  0  0  0
   21.5682  -22.6940  -13.3619 O   0  0  0  0  0  0  0  0  0  0  0  0
   20.4050  -19.1007  -14.4580 C   0  0  0  0  0  0  0  0  0  0  0  0
   20.3829  -17.9505  -13.9628 O   0  0  0  0  0  0  0  0  0  0  0  0
   19.7938  -22.9525  -11.9996 O   0  0  0  0  0  0  0  0  0  0  0  0
   19.2644  -19.7082  -14.9996 N   0  0  0  0  0  0  0  0  0  0  0  0
   17.9520  -19.0471  -14.9679 C   0  0  1  0  0  0  0  0  0  0  0  0
   17.2881  -19.3569  -16.2570 C   0  0  0  0  0  0  0  0  0  0  0  0
   17.5145  -18.3718  -17.3321 C   0  0  0  0  0  0  0  0  0  0  0  0
   16.7805  -17.3648  -17.4178 O   0  0  0  0  0  0  0  0  0  0  0  0
   17.2296  -19.5786  -13.7879 C   0  0  0  0  0  0  0  0  0  0  0  0
   16.1679  -18.8611  -13.2359 O   0  0  0  0  0  0  0  0  0  0  0  0
   18.5625  -18.6228  -18.2174 O   0  0  0  0  0  0  0  0  0  0  0  0
   17.4932  -20.6621  -13.2146 O   0  0  0  0  0  0  0  0  0  0  0  0
  2 13  1  0
  2  1  1  6
  3  4  1  0
  3  2  1  0
  4 12  1  0
  5  4  2  0
  5  6  1  0
  6  7  1  0
  7 12  2  0
  7  8  1  0
  8  9  2  0
  9 10  1  0
 11 10  2  0
 12 11  1  0
 13 14  2  0
 15 16  1  0
 15 13  1  0
 16 17  1  1
 18 17  1  0
 19 18  1  0
 19 20  2  0
 21 16  1  0
 22 21  2  0
 23 19  1  0
 24 21  1  0
 25 29  1  0
 25 24  1  0
 25 26  1  6
 27 26  1  0
 28 27  2  0
 29 30  1  0
 31 27  1  0
 32 29  2  0
M  END
$$$$
