PGM.pdb
     RDKit          3D

 20 20  0  0  1  0  0  0  0  0999 V2000
   23.9857  -19.3471  -14.3791 N   0  0  0  0  0  0  0  0  0  0  0  0
   23.0628  -18.9756  -15.4610 C   0  0  0  0  0  0  0  0  0  0  0  0
   23.8949  -19.1871  -16.7080 C   0  0  0  0  0  0  0  0  0  0  0  0
   25.0855  -20.0404  -16.2685 C   0  0  0  0  0  0  0  0  0  0  0  0
   24.5553  -20.5679  -14.9349 C   0  0  1  0  0  0  0  0  0  0  0  0
   25.6120  -21.0861  -14.0671 C   0  0  0  0  0  0  0  0  0  0  0  0
   26.0837  -22.2301  -14.2908 O   0  0  0  0  0  0  0  0  0  0  0  0
   26.1274  -20.3463  -12.9802 N   0  0  0  0  0  0  0  0  0  0  0  0
   27.1966  -20.9325  -12.1983 C   0  0  0  0  0  0  0  0  0  0  0  0
   26.7845  -21.2952  -10.8444 C   0  0  0  0  0  0  0  0  0  0  0  0
   26.1541  -22.3562  -10.6411 O   0  0  0  0  0  0  0  0  0  0  0  0
   29.6997  -18.8346   -5.8395 C   0  0  0  0  0  0  0  0  0  0  0  0
   28.1223  -19.0616   -4.9450 S   0  0  0  0  0  0  0  0  0  0  0  0
   26.9910  -20.0218   -6.0045 C   0  0  0  0  0  0  0  0  0  0  0  0
   27.4156  -19.8717   -7.4245 C   0  0  0  0  0  0  0  0  0  0  0  0
   26.6634  -20.7385   -8.3778 C   0  0  2  0  0  0  0  0  0  0  0  0
   27.0872  -20.4586   -9.7435 N   0  0  0  0  0  0  0  0  0  0  0  0
   25.2096  -20.5434   -8.3089 C   0  0  0  0  0  0  0  0  0  0  0  0
   24.5506  -20.9911   -7.3446 O   0  0  0  0  0  0  0  0  0  0  0  0
   24.5530  -19.8581   -9.3183 O   0  0  0  0  0  0  0  0  0  0  0  0
  1  2  1  0
  1  5  1  0
  2  3  1  0
  3  4  1  0
  5  4  1  0
  5  6  1  1
  6  7  2  0
  8  6  1  0
  9  8  1  0
  9 10  1  0
 10 17  1  0
 11 10  2  0
 13 12  1  0
 14 13  1  0
 15 14  1  0
 16 15  1  1
 16 18  1  0
 17 16  1  0
 18 19  2  0
 18 20  1  0
M  END
$$$$
