PGM.pdb
     RDKit          3D

 20 20  0  0  1  0  0  0  0  0999 V2000
   26.1345  -22.7298  -15.1320 N   0  0  0  0  0  0  0  0  0  0  0  0
   25.8696  -23.8014  -16.1024 C   0  0  0  0  0  0  0  0  0  0  0  0
   24.7870  -24.6154  -15.4261 C   0  0  0  0  0  0  0  0  0  0  0  0
   24.2375  -23.7239  -14.3117 C   0  0  0  0  0  0  0  0  0  0  0  0
   24.7701  -22.3664  -14.7714 C   0  0  1  0  0  0  0  0  0  0  0  0
   24.7671  -21.3636  -13.7072 C   0  0  0  0  0  0  0  0  0  0  0  0
   23.6688  -20.9168  -13.2883 O   0  0  0  0  0  0  0  0  0  0  0  0
   25.9580  -20.8742  -13.1272 N   0  0  0  0  0  0  0  0  0  0  0  0
   25.8510  -20.0040  -11.9742 C   0  0  0  0  0  0  0  0  0  0  0  0
   26.0374  -20.7061  -10.7066 C   0  0  0  0  0  0  0  0  0  0  0  0
   25.9875  -21.9552  -10.6654 O   0  0  0  0  0  0  0  0  0  0  0  0
   28.6394  -17.6987   -5.0903 C   0  0  0  0  0  0  0  0  0  0  0  0
   28.8586  -19.5105   -5.1860 S   0  0  0  0  0  0  0  0  0  0  0  0
   27.3495  -20.2371   -5.9066 C   0  0  0  0  0  0  0  0  0  0  0  0
   27.1625  -19.6958   -7.2818 C   0  0  0  0  0  0  0  0  0  0  0  0
   26.4671  -20.6316   -8.2129 C   0  0  2  0  0  0  0  0  0  0  0  0
   26.2755  -19.9918   -9.5080 N   0  0  0  0  0  0  0  0  0  0  0  0
   25.1504  -21.0586   -7.7228 C   0  0  0  0  0  0  0  0  0  0  0  0
   25.0528  -21.8095   -6.7273 O   0  0  0  0  0  0  0  0  0  0  0  0
   23.9993  -20.6304   -8.3640 O   0  0  0  0  0  0  0  0  0  0  0  0
  1  2  1  0
  1  5  1  0
  2  3  1  0
  3  4  1  0
  5  4  1  0
  5  6  1  1
  6  7  2  0
  8  6  1  0
  9  8  1  0
  9 10  1  0
 10 17  1  0
 11 10  2  0
 13 12  1  0
 14 13  1  0
 15 14  1  0
 16 15  1  1
 16 18  1  0
 17 16  1  0
 18 19  2  0
 18 20  1  0
M  END
$$$$
