PGM.pdb
     RDKit          3D

 20 20  0  0  1  0  0  0  0  0999 V2000
   27.5523  -18.7575  -14.2145 N   0  0  0  0  0  0  0  0  0  0  0  0
   28.6130  -18.7861  -15.2315 C   0  0  0  0  0  0  0  0  0  0  0  0
   29.1947  -20.1756  -15.0800 C   0  0  0  0  0  0  0  0  0  0  0  0
   28.1654  -20.9667  -14.2715 C   0  0  0  0  0  0  0  0  0  0  0  0
   26.9441  -20.0623  -14.4404 C   0  0  1  0  0  0  0  0  0  0  0  0
   25.9007  -20.3240  -13.4499 C   0  0  0  0  0  0  0  0  0  0  0  0
   25.2652  -21.4079  -13.4999 O   0  0  0  0  0  0  0  0  0  0  0  0
   25.5771  -19.4003  -12.4319 N   0  0  0  0  0  0  0  0  0  0  0  0
   24.5449  -19.7618  -11.4820 C   0  0  0  0  0  0  0  0  0  0  0  0
   25.0227  -20.6528  -10.4274 C   0  0  0  0  0  0  0  0  0  0  0  0
   25.0025  -21.8923  -10.5933 O   0  0  0  0  0  0  0  0  0  0  0  0
   28.8381  -19.6305   -4.5204 C   0  0  0  0  0  0  0  0  0  0  0  0
   28.3560  -18.6225   -5.9665 S   0  0  0  0  0  0  0  0  0  0  0  0
   27.7264  -19.7384   -7.2637 C   0  0  0  0  0  0  0  0  0  0  0  0
   26.3262  -20.1234   -6.9313 C   0  0  0  0  0  0  0  0  0  0  0  0
   25.6504  -20.9281   -7.9904 C   0  0  2  0  0  0  0  0  0  0  0  0
   25.5136  -20.1349   -9.2050 N   0  0  0  0  0  0  0  0  0  0  0  0
   24.3112  -21.3860   -7.5989 C   0  0  0  0  0  0  0  0  0  0  0  0
   23.2891  -20.8938   -8.1258 O   0  0  0  0  0  0  0  0  0  0  0  0
   24.1691  -22.3726   -6.6366 O   0  0  0  0  0  0  0  0  0  0  0  0
  1  2  1  0
  1  5  1  0
  2  3  1  0
  3  4  1  0
  5  4  1  0
  5  6  1  1
  6  7  2  0
  8  6  1  0
  9  8  1  0
  9 10  1  0
 10 17  1  0
 11 10  2  0
 13 12  1  0
 14 13  1  0
 15 14  1  0
 16 15  1  1
 16 18  1  0
 17 16  1  0
 18 19  2  0
 18 20  1  0
M  END
$$$$
