PGM.pdb
     RDKit          3D

 20 20  0  0  1  0  0  0  0  0999 V2000
   15.1699   -9.7119  -10.2297 N   0  0  0  0  0  0  0  0  0  0  0  0
   14.2539  -10.8598  -10.1697 C   0  0  0  0  0  0  0  0  0  0  0  0
   13.2898  -10.4709   -9.0692 C   0  0  0  0  0  0  0  0  0  0  0  0
   13.4848   -8.9681   -8.8633 C   0  0  0  0  0  0  0  0  0  0  0  0
   14.2126   -8.6153  -10.1608 C   0  0  1  0  0  0  0  0  0  0  0  0
   14.9051   -7.3291  -10.0934 C   0  0  0  0  0  0  0  0  0  0  0  0
   14.2296   -6.2730   -9.9954 O   0  0  0  0  0  0  0  0  0  0  0  0
   16.3130   -7.2263  -10.1340 N   0  0  0  0  0  0  0  0  0  0  0  0
   16.9115   -5.9265   -9.9092 C   0  0  0  0  0  0  0  0  0  0  0  0
   18.3714   -5.9510   -9.9601 C   0  0  0  0  0  0  0  0  0  0  0  0
   19.0228   -6.5368   -9.0674 O   0  0  0  0  0  0  0  0  0  0  0  0
   22.6196  -10.2916  -13.6707 C   0  0  0  0  0  0  0  0  0  0  0  0
   21.0749   -9.5534  -13.0314 S   0  0  0  0  0  0  0  0  0  0  0  0
   21.3980   -7.8075  -12.6168 C   0  0  0  0  0  0  0  0  0  0  0  0
   20.1630   -7.2136  -12.0326 C   0  0  0  0  0  0  0  0  0  0  0  0
   20.3315   -5.8099  -11.5560 C   0  0  2  0  0  0  0  0  0  0  0  0
   19.0730   -5.3158  -11.0127 N   0  0  0  0  0  0  0  0  0  0  0  0
   20.7557   -4.8885  -12.6178 C   0  0  0  0  0  0  0  0  0  0  0  0
   19.9129   -4.2250  -13.2613 O   0  0  0  0  0  0  0  0  0  0  0  0
   22.1011   -4.7467  -12.9166 O   0  0  0  0  0  0  0  0  0  0  0  0
  1  2  1  0
  1  5  1  0
  2  3  1  0
  3  4  1  0
  5  4  1  0
  5  6  1  1
  6  7  2  0
  8  6  1  0
  9  8  1  0
  9 10  1  0
 10 17  1  0
 11 10  2  0
 13 12  1  0
 14 13  1  0
 15 14  1  0
 16 15  1  6
 16 18  1  0
 17 16  1  0
 18 19  2  0
 18 20  1  0
M  END
$$$$
