PGM.pdb
     RDKit          3D

 20 20  0  0  1  0  0  0  0  0999 V2000
   18.6651   -8.9088  -15.4422 N   0  0  0  0  0  0  0  0  0  0  0  0
   17.7463   -9.5113  -16.4186 C   0  0  0  0  0  0  0  0  0  0  0  0
   18.1338   -8.8341  -17.7160 C   0  0  0  0  0  0  0  0  0  0  0  0
   19.5011   -8.1999  -17.4568 C   0  0  0  0  0  0  0  0  0  0  0  0
   19.9113   -8.9611  -16.1958 C   0  0  1  0  0  0  0  0  0  0  0  0
   20.9884   -8.3022  -15.4583 C   0  0  0  0  0  0  0  0  0  0  0  0
   22.1299   -8.2229  -15.9798 O   0  0  0  0  0  0  0  0  0  0  0  0
   20.7951   -7.7472  -14.1742 N   0  0  0  0  0  0  0  0  0  0  0  0
   21.9192   -7.0966  -13.5329 C   0  0  0  0  0  0  0  0  0  0  0  0
   21.8974   -5.6426  -13.6744 C   0  0  0  0  0  0  0  0  0  0  0  0
   22.5793   -4.9254  -12.9097 O   0  0  0  0  0  0  0  0  0  0  0  0
   20.8963    0.2601  -18.7324 C   0  0  0  0  0  0  0  0  0  0  0  0
   20.9396   -1.5359  -18.3969 S   0  0  0  0  0  0  0  0  0  0  0  0
   20.9049   -1.7866  -16.5913 C   0  0  0  0  0  0  0  0  0  0  0  0
   21.0323   -3.2428  -16.3037 C   0  0  0  0  0  0  0  0  0  0  0  0
   21.0250   -3.5772  -14.8497 C   0  0  2  0  0  0  0  0  0  0  0  0
   21.1089   -5.0210  -14.6720 N   0  0  0  0  0  0  0  0  0  0  0  0
   19.8179   -3.1081  -14.1573 C   0  0  0  0  0  0  0  0  0  0  0  0
   18.8227   -3.8554  -14.0325 O   0  0  0  0  0  0  0  0  0  0  0  0
   19.7723   -1.8260  -13.6342 O   0  0  0  0  0  0  0  0  0  0  0  0
  1  2  1  0
  1  5  1  0
  2  3  1  0
  3  4  1  0
  5  4  1  0
  5  6  1  1
  6  7  2  0
  8  6  1  0
  9  8  1  0
  9 10  1  0
 10 17  1  0
 11 10  2  0
 13 12  1  0
 14 13  1  0
 15 14  1  0
 16 15  1  6
 16 18  1  0
 17 16  1  0
 18 19  2  0
 18 20  1  0
M  END
$$$$
