PGM.pdb
     RDKit          3D

 20 20  0  0  1  0  0  0  0  0999 V2000
   17.1434  -11.5444  -15.5140 N   0  0  0  0  0  0  0  0  0  0  0  0
   16.6122  -12.9088  -15.6426 C   0  0  0  0  0  0  0  0  0  0  0  0
   15.5455  -12.9630  -14.5697 C   0  0  0  0  0  0  0  0  0  0  0  0
   15.2754  -11.5080  -14.1840 C   0  0  0  0  0  0  0  0  0  0  0  0
   15.9001  -10.7955  -15.3840 C   0  0  1  0  0  0  0  0  0  0  0  0
   16.1732   -9.3820  -15.1279 C   0  0  0  0  0  0  0  0  0  0  0  0
   15.2106   -8.5962  -14.9353 O   0  0  0  0  0  0  0  0  0  0  0  0
   17.4854   -8.8615  -15.0878 N   0  0  0  0  0  0  0  0  0  0  0  0
   17.6625   -7.4807  -14.6877 C   0  0  0  0  0  0  0  0  0  0  0  0
   18.8263   -7.2775  -13.8282 C   0  0  0  0  0  0  0  0  0  0  0  0
   18.7208   -7.3942  -12.5874 O   0  0  0  0  0  0  0  0  0  0  0  0
   22.7677  -11.1118  -15.4313 C   0  0  0  0  0  0  0  0  0  0  0  0
   23.3596  -10.1705  -13.9810 S   0  0  0  0  0  0  0  0  0  0  0  0
   22.0256   -9.0546  -13.4336 C   0  0  0  0  0  0  0  0  0  0  0  0
   22.3378   -7.6704  -13.8871 C   0  0  0  0  0  0  0  0  0  0  0  0
   21.2719   -6.6744  -13.5742 C   0  0  2  0  0  0  0  0  0  0  0  0
   20.0875   -6.9457  -14.3786 N   0  0  0  0  0  0  0  0  0  0  0  0
   21.6843   -5.2891  -13.8338 C   0  0  0  0  0  0  0  0  0  0  0  0
   21.2666   -4.6771  -14.8415 O   0  0  0  0  0  0  0  0  0  0  0  0
   22.5448   -4.6460  -12.9589 O   0  0  0  0  0  0  0  0  0  0  0  0
  1  2  1  0
  1  5  1  0
  2  3  1  0
  3  4  1  0
  5  4  1  0
  5  6  1  1
  6  7  2  0
  8  6  1  0
  9  8  1  0
  9 10  1  0
 10 17  1  0
 11 10  2  0
 13 12  1  0
 14 13  1  0
 15 14  1  0
 16 15  1  6
 16 18  1  0
 17 16  1  0
 18 19  2  0
 18 20  1  0
M  END
$$$$
