PGM.pdb
     RDKit          3D

 20 20  0  0  1  0  0  0  0  0999 V2000
   26.0586  -17.5871  -13.7114 N   0  0  0  0  0  0  0  0  0  0  0  0
   26.0129  -16.3421  -14.4914 C   0  0  0  0  0  0  0  0  0  0  0  0
   27.3519  -16.3317  -15.1977 C   0  0  0  0  0  0  0  0  0  0  0  0
   27.8891  -17.7589  -15.0823 C   0  0  0  0  0  0  0  0  0  0  0  0
   26.6026  -18.4970  -14.7113 C   0  0  1  0  0  0  0  0  0  0  0  0
   26.8504  -19.8153  -14.1291 C   0  0  0  0  0  0  0  0  0  0  0  0
   26.2486  -20.8155  -14.5967 O   0  0  0  0  0  0  0  0  0  0  0  0
   27.7458  -20.0103  -13.0546 N   0  0  0  0  0  0  0  0  0  0  0  0
   27.9921  -21.3652  -12.6056 C   0  0  0  0  0  0  0  0  0  0  0  0
   27.5252  -21.6116  -11.2433 C   0  0  0  0  0  0  0  0  0  0  0  0
   27.6150  -22.7549  -10.7441 O   0  0  0  0  0  0  0  0  0  0  0  0
   29.0112  -19.6926   -5.1367 C   0  0  0  0  0  0  0  0  0  0  0  0
   27.5476  -18.7708   -5.7265 S   0  0  0  0  0  0  0  0  0  0  0  0
   26.5587  -19.8756   -6.7875 C   0  0  0  0  0  0  0  0  0  0  0  0
   27.0778  -19.7978   -8.1817 C   0  0  0  0  0  0  0  0  0  0  0  0
   26.4348  -20.7601   -9.1232 C   0  0  2  0  0  0  0  0  0  0  0  0
   26.9648  -20.5691  -10.4670 N   0  0  0  0  0  0  0  0  0  0  0  0
   24.9753  -20.6120   -9.1901 C   0  0  0  0  0  0  0  0  0  0  0  0
   24.4285  -20.1329  -10.2078 O   0  0  0  0  0  0  0  0  0  0  0  0
   24.1885  -21.0041   -8.1192 O   0  0  0  0  0  0  0  0  0  0  0  0
  1  2  1  0
  1  5  1  0
  2  3  1  0
  3  4  1  0
  5  4  1  0
  5  6  1  1
  6  7  2  0
  8  6  1  0
  9  8  1  0
  9 10  1  0
 10 17  1  0
 11 10  2  0
 13 12  1  0
 14 13  1  0
 15 14  1  0
 16 15  1  1
 16 18  1  0
 17 16  1  0
 18 19  2  0
 18 20  1  0
M  END
$$$$
