PGM.pdb
     RDKit          3D

 20 20  0  0  1  0  0  0  0  0999 V2000
   24.4338  -19.3444  -14.6458 N   0  0  0  0  0  0  0  0  0  0  0  0
   23.6250  -18.9661  -15.8133 C   0  0  0  0  0  0  0  0  0  0  0  0
   24.5928  -19.1273  -16.9664 C   0  0  0  0  0  0  0  0  0  0  0  0
   25.7494  -19.9646  -16.4189 C   0  0  0  0  0  0  0  0  0  0  0  0
   25.0907  -20.5376  -15.1637 C   0  0  1  0  0  0  0  0  0  0  0  0
   26.0595  -21.0539  -14.1976 C   0  0  0  0  0  0  0  0  0  0  0  0
   26.6476  -22.1389  -14.4386 O   0  0  0  0  0  0  0  0  0  0  0  0
   26.3626  -20.3764  -12.9962 N   0  0  0  0  0  0  0  0  0  0  0  0
   27.3963  -20.9249  -12.1426 C   0  0  0  0  0  0  0  0  0  0  0  0
   26.9036  -21.3156  -10.8239 C   0  0  0  0  0  0  0  0  0  0  0  0
   26.0983  -22.2656  -10.7087 O   0  0  0  0  0  0  0  0  0  0  0  0
   29.7849  -19.5956   -5.4401 C   0  0  0  0  0  0  0  0  0  0  0  0
   28.0953  -19.4058   -4.7699 S   0  0  0  0  0  0  0  0  0  0  0  0
   26.9208  -20.1580   -5.9441 C   0  0  0  0  0  0  0  0  0  0  0  0
   27.4730  -20.0384   -7.3225 C   0  0  0  0  0  0  0  0  0  0  0  0
   26.7585  -20.8674   -8.3365 C   0  0  2  0  0  0  0  0  0  0  0  0
   27.3238  -20.6309   -9.6585 N   0  0  0  0  0  0  0  0  0  0  0  0
   25.3199  -20.5803   -8.4045 C   0  0  0  0  0  0  0  0  0  0  0  0
   24.5224  -21.1238   -7.6088 O   0  0  0  0  0  0  0  0  0  0  0  0
   24.8325  -19.7000   -9.3569 O   0  0  0  0  0  0  0  0  0  0  0  0
  1  2  1  0
  1  5  1  0
  2  3  1  0
  3  4  1  0
  5  4  1  0
  5  6  1  1
  6  7  2  0
  8  6  1  0
  9  8  1  0
  9 10  1  0
 10 17  1  0
 11 10  2  0
 13 12  1  0
 14 13  1  0
 15 14  1  0
 16 15  1  1
 16 18  1  0
 17 16  1  0
 18 19  2  0
 18 20  1  0
M  END
$$$$
