PGM.pdb
     RDKit          3D

 20 20  0  0  1  0  0  0  0  0999 V2000
   19.6730  -21.8870  -12.5531 N   0  0  0  0  0  0  0  0  0  0  0  0
   19.4733  -21.5262  -13.9639 C   0  0  0  0  0  0  0  0  0  0  0  0
   19.4105  -22.8716  -14.6553 C   0  0  0  0  0  0  0  0  0  0  0  0
   19.1769  -23.8952  -13.5433 C   0  0  0  0  0  0  0  0  0  0  0  0
   18.7035  -22.9672  -12.4242 C   0  0  1  0  0  0  0  0  0  0  0  0
   18.7890  -23.5823  -11.1003 C   0  0  0  0  0  0  0  0  0  0  0  0
   18.2594  -24.7070  -10.9110 O   0  0  0  0  0  0  0  0  0  0  0  0
   19.4482  -22.9581  -10.0186 N   0  0  0  0  0  0  0  0  0  0  0  0
   19.5954  -23.7023   -8.7847 C   0  0  0  0  0  0  0  0  0  0  0  0
   18.3201  -23.9878   -8.1315 C   0  0  0  0  0  0  0  0  0  0  0  0
   17.2879  -23.3665   -8.4673 O   0  0  0  0  0  0  0  0  0  0  0  0
   15.7695  -29.6766   -5.9826 C   0  0  0  0  0  0  0  0  0  0  0  0
   17.4966  -29.3323   -5.4945 S   0  0  0  0  0  0  0  0  0  0  0  0
   17.7319  -27.5251   -5.4410 C   0  0  0  0  0  0  0  0  0  0  0  0
   16.9114  -26.8996   -6.5156 C   0  0  0  0  0  0  0  0  0  0  0  0
   16.9672  -25.4087   -6.5317 C   0  0  2  0  0  0  0  0  0  0  0  0
   18.2281  -24.9656   -7.1122 N   0  0  0  0  0  0  0  0  0  0  0  0
   16.8543  -24.8139   -5.1938 C   0  0  0  0  0  0  0  0  0  0  0  0
   15.7414  -24.7148   -4.6314 O   0  0  0  0  0  0  0  0  0  0  0  0
   17.9867  -24.3550   -4.5408 O   0  0  0  0  0  0  0  0  0  0  0  0
  1  2  1  0
  1  5  1  0
  2  3  1  0
  3  4  1  0
  5  4  1  0
  5  6  1  1
  6  7  2  0
  8  6  1  0
  9  8  1  0
  9 10  1  0
 10 17  1  0
 11 10  2  0
 13 12  1  0
 14 13  1  0
 15 14  1  0
 16 15  1  1
 16 18  1  0
 17 16  1  0
 18 19  2  0
 18 20  1  0
M  END
$$$$
