PGM.pdb
     RDKit          3D

 20 20  0  0  1  0  0  0  0  0999 V2000
   25.4091  -18.1373  -14.3945 N   0  0  0  0  0  0  0  0  0  0  0  0
   25.0486  -16.8572  -15.0203 C   0  0  0  0  0  0  0  0  0  0  0  0
   26.3702  -16.1211  -15.0791 C   0  0  0  0  0  0  0  0  0  0  0  0
   27.4447  -17.1857  -14.8537 C   0  0  0  0  0  0  0  0  0  0  0  0
   26.6282  -18.4486  -15.1298 C   0  0  1  0  0  0  0  0  0  0  0  0
   27.2553  -19.6589  -14.6005 C   0  0  0  0  0  0  0  0  0  0  0  0
   28.2471  -20.1481  -15.1991 O   0  0  0  0  0  0  0  0  0  0  0  0
   26.7874  -20.3042  -13.4347 N   0  0  0  0  0  0  0  0  0  0  0  0
   27.5650  -21.4038  -12.9015 C   0  0  0  0  0  0  0  0  0  0  0  0
   27.4855  -21.5099  -11.4466 C   0  0  0  0  0  0  0  0  0  0  0  0
   28.0389  -22.4620  -10.8536 O   0  0  0  0  0  0  0  0  0  0  0  0
   29.3339  -19.6040   -5.8402 C   0  0  0  0  0  0  0  0  0  0  0  0
   27.6968  -18.8029   -5.9735 S   0  0  0  0  0  0  0  0  0  0  0  0
   26.6152  -19.8651   -6.9865 C   0  0  0  0  0  0  0  0  0  0  0  0
   27.0879  -19.8279   -8.3988 C   0  0  0  0  0  0  0  0  0  0  0  0
   26.3584  -20.7594   -9.3076 C   0  0  2  0  0  0  0  0  0  0  0  0
   26.7846  -20.5449  -10.6844 N   0  0  0  0  0  0  0  0  0  0  0  0
   24.9006  -20.5899   -9.2563 C   0  0  0  0  0  0  0  0  0  0  0  0
   24.2820  -20.0896  -10.2215 O   0  0  0  0  0  0  0  0  0  0  0  0
   24.1954  -20.9851   -8.1312 O   0  0  0  0  0  0  0  0  0  0  0  0
  1  2  1  0
  1  5  1  0
  2  3  1  0
  3  4  1  0
  5  4  1  0
  5  6  1  1
  6  7  2  0
  8  6  1  0
  9  8  1  0
  9 10  1  0
 10 17  1  0
 11 10  2  0
 13 12  1  0
 14 13  1  0
 15 14  1  0
 16 15  1  1
 16 18  1  0
 17 16  1  0
 18 19  2  0
 18 20  1  0
M  END
$$$$
