PGM.pdb
     RDKit          3D

 20 20  0  0  1  0  0  0  0  0999 V2000
   18.0900  -10.0426  -13.7748 N   0  0  0  0  0  0  0  0  0  0  0  0
   18.1909  -10.4398  -15.1863 C   0  0  0  0  0  0  0  0  0  0  0  0
   17.7779   -9.1847  -15.9252 C   0  0  0  0  0  0  0  0  0  0  0  0
   17.8612   -8.0556  -14.8971 C   0  0  0  0  0  0  0  0  0  0  0  0
   18.7237   -8.7315  -13.8307 C   0  0  1  0  0  0  0  0  0  0  0  0
   18.6478   -8.0657  -12.5311 C   0  0  0  0  0  0  0  0  0  0  0  0
   19.1340   -6.9131  -12.4029 O   0  0  0  0  0  0  0  0  0  0  0  0
   18.0450   -8.6708  -11.4064 N   0  0  0  0  0  0  0  0  0  0  0  0
   17.8468   -7.8651  -10.2191 C   0  0  0  0  0  0  0  0  0  0  0  0
   16.5445   -7.2038  -10.1857 C   0  0  0  0  0  0  0  0  0  0  0  0
   15.9557   -6.9185  -11.2517 O   0  0  0  0  0  0  0  0  0  0  0  0
   12.2628   -8.4564   -5.7938 C   0  0  0  0  0  0  0  0  0  0  0  0
   11.4501   -7.1529   -6.7839 S   0  0  0  0  0  0  0  0  0  0  0  0
   12.7072   -5.9209   -7.2591 C   0  0  0  0  0  0  0  0  0  0  0  0
   13.9918   -6.6235   -7.5341 C   0  0  0  0  0  0  0  0  0  0  0  0
   14.6015   -6.2797   -8.8517 C   0  0  2  0  0  0  0  0  0  0  0  0
   15.9278   -6.8742   -8.9550 N   0  0  0  0  0  0  0  0  0  0  0  0
   14.7393   -4.8330   -9.0624 C   0  0  0  0  0  0  0  0  0  0  0  0
   15.7698   -4.2293   -8.6909 O   0  0  0  0  0  0  0  0  0  0  0  0
   13.7221   -4.1215   -9.6777 O   0  0  0  0  0  0  0  0  0  0  0  0
  1  2  1  0
  1  5  1  0
  2  3  1  0
  3  4  1  0
  5  4  1  0
  5  6  1  1
  6  7  2  0
  8  6  1  0
  9  8  1  0
  9 10  1  0
 10 17  1  0
 11 10  2  0
 13 12  1  0
 14 13  1  0
 15 14  1  0
 16 15  1  1
 16 18  1  0
 17 16  1  0
 18 19  2  0
 18 20  1  0
M  END
$$$$
