PGM.pdb
     RDKit          3D

 20 20  0  0  1  0  0  0  0  0999 V2000
   27.2318  -19.1010  -14.6011 N   0  0  0  0  0  0  0  0  0  0  0  0
   26.9272  -18.0172  -15.5461 C   0  0  0  0  0  0  0  0  0  0  0  0
   25.4342  -18.1554  -15.7553 C   0  0  0  0  0  0  0  0  0  0  0  0
   24.9391  -19.0439  -14.6133 C   0  0  0  0  0  0  0  0  0  0  0  0
   26.1305  -18.9391  -13.6606 C   0  0  1  0  0  0  0  0  0  0  0  0
   26.1502  -20.0006  -12.6551 C   0  0  0  0  0  0  0  0  0  0  0  0
   25.2082  -20.0775  -11.8256 O   0  0  0  0  0  0  0  0  0  0  0  0
   27.1933  -20.9495  -12.5788 N   0  0  0  0  0  0  0  0  0  0  0  0
   27.1294  -21.9555  -11.5386 C   0  0  0  0  0  0  0  0  0  0  0  0
   27.3568  -21.4128  -10.2014 C   0  0  0  0  0  0  0  0  0  0  0  0
   28.4989  -21.0320   -9.8623 O   0  0  0  0  0  0  0  0  0  0  0  0
   29.0654  -19.4403   -4.3049 C   0  0  0  0  0  0  0  0  0  0  0  0
   28.4983  -20.0839   -5.9187 S   0  0  0  0  0  0  0  0  0  0  0  0
   27.4432  -18.8218   -6.7048 C   0  0  0  0  0  0  0  0  0  0  0  0
   26.9331  -19.3567   -7.9982 C   0  0  0  0  0  0  0  0  0  0  0  0
   26.4556  -20.7683   -7.9251 C   0  0  2  0  0  0  0  0  0  0  0  0
   26.2969  -21.3089   -9.2689 N   0  0  0  0  0  0  0  0  0  0  0  0
   25.1693  -20.9057   -7.2302 C   0  0  0  0  0  0  0  0  0  0  0  0
   25.0751  -20.6594   -6.0075 O   0  0  0  0  0  0  0  0  0  0  0  0
   24.0436  -21.3120   -7.9282 O   0  0  0  0  0  0  0  0  0  0  0  0
  1  2  1  0
  1  5  1  0
  2  3  1  0
  3  4  1  0
  5  4  1  0
  5  6  1  1
  6  7  2  0
  8  6  1  0
  9  8  1  0
  9 10  1  0
 10 17  1  0
 11 10  2  0
 13 12  1  0
 14 13  1  0
 15 14  1  0
 16 15  1  6
 16 18  1  0
 17 16  1  0
 18 19  2  0
 18 20  1  0
M  END
$$$$
