PDT.pdb
     RDKit          3D

 23 23  0  0  1  0  0  0  0  0999 V2000
   17.5857  -12.2873  -15.2621 N   0  0  0  0  0  0  0  0  0  0  0  0
   16.9308  -13.0888  -16.2673 C   0  0  0  0  0  0  0  0  0  0  0  0
   17.8853  -13.0738  -17.4536 C   0  0  0  0  0  0  0  0  0  0  0  0
   19.2105  -13.1986  -16.6865 C   0  0  0  0  0  0  0  0  0  0  0  0
   18.9737  -12.1496  -15.6268 C   0  0  1  0  0  0  0  0  0  0  0  0
   19.2121  -10.7824  -16.1040 C   0  0  0  0  0  0  0  0  0  0  0  0
   20.3540  -10.4581  -16.5079 O   0  0  0  0  0  0  0  0  0  0  0  0
   18.1924   -9.7876  -16.1311 N   0  0  0  0  0  0  0  0  0  0  0  0
   18.3221   -8.4419  -16.5669 C   0  0  1  0  0  0  0  0  0  0  0  0
   17.0902   -7.8969  -17.2430 C   0  0  0  0  0  0  0  0  0  0  0  0
   17.5162   -6.6311  -17.9318 C   0  0  0  0  0  0  0  0  0  0  0  0
   17.0687   -5.5383  -17.5377 O   0  0  0  0  0  0  0  0  0  0  0  0
   18.8147   -7.4927  -15.5185 C   0  0  0  0  0  0  0  0  0  0  0  0
   18.2196   -7.3868  -14.4258 O   0  0  0  0  0  0  0  0  0  0  0  0
   18.3957   -6.6399  -18.9974 O   0  0  0  0  0  0  0  0  0  0  0  0
   22.4830   -5.1603  -13.4039 C   0  0  0  0  0  0  0  0  0  0  0  0
   21.9082   -6.1378  -14.3952 C   0  0  1  0  0  0  0  0  0  0  0  0
   21.9066   -7.4444  -13.8790 O   0  0  0  0  0  0  0  0  0  0  0  0
   20.4476   -5.7966  -14.7032 C   0  0  2  0  0  0  0  0  0  0  0  0
   19.9671   -6.6890  -15.7342 N   0  0  0  0  0  0  0  0  0  0  0  0
   20.3373   -4.3738  -15.1183 C   0  0  0  0  0  0  0  0  0  0  0  0
   19.8965   -3.3693  -14.3045 O   0  0  0  0  0  0  0  0  0  0  0  0
   20.6737   -4.0853  -16.2953 O   0  0  0  0  0  0  0  0  0  0  0  0
  1  5  1  0
  2  1  1  0
  2  3  1  0
  3  4  1  0
  5  4  1  0
  6  8  1  0
  5  6  1  6
  7  6  2  0
  9 13  1  0
  9  8  1  0
  9 10  1  1
 10 11  1  0
 11 15  1  0
 11 12  2  0
 13 20  1  0
 14 13  2  0
 17 16  1  1
 17 18  1  0
 19 17  1  0
 19 20  1  6
 21 22  1  0
 21 19  1  0
 23 21  2  0
M  END
$$$$
