PDT.pdb
     RDKit          3D

 23 23  0  0  1  0  0  0  0  0999 V2000
   24.9321  -20.9573  -11.9562 N   0  0  0  0  0  0  0  0  0  0  0  0
   25.3824  -22.3233  -12.0695 C   0  0  0  0  0  0  0  0  0  0  0  0
   25.3848  -22.6050  -13.5659 C   0  0  0  0  0  0  0  0  0  0  0  0
   25.9350  -21.2565  -14.0548 C   0  0  0  0  0  0  0  0  0  0  0  0
   25.0539  -20.3320  -13.2495 C   0  0  1  0  0  0  0  0  0  0  0  0
   23.7162  -20.1598  -13.8281 C   0  0  0  0  0  0  0  0  0  0  0  0
   23.6005  -19.7854  -15.0193 O   0  0  0  0  0  0  0  0  0  0  0  0
   22.5213  -20.4005  -13.0903 N   0  0  0  0  0  0  0  0  0  0  0  0
   21.1884  -20.3367  -13.5770 C   0  0  1  0  0  0  0  0  0  0  0  0
   20.1883  -21.0676  -12.7183 C   0  0  0  0  0  0  0  0  0  0  0  0
   20.5080  -22.5295  -12.8555 C   0  0  0  0  0  0  0  0  0  0  0  0
   20.8942  -22.9721  -13.9531 O   0  0  0  0  0  0  0  0  0  0  0  0
   20.7060  -18.9544  -13.8917 C   0  0  0  0  0  0  0  0  0  0  0  0
   20.6515  -18.0811  -13.0007 O   0  0  0  0  0  0  0  0  0  0  0  0
   20.3863  -23.4063  -11.7946 O   0  0  0  0  0  0  0  0  0  0  0  0
   22.0473  -16.3974  -16.2456 C   0  0  0  0  0  0  0  0  0  0  0  0
   20.6325  -16.6953  -16.6678 C   0  0  1  0  0  0  0  0  0  0  0  0
   20.5975  -17.6731  -17.6761 O   0  0  0  0  0  0  0  0  0  0  0  0
   19.8277  -17.2606  -15.4941 C   0  0  2  0  0  0  0  0  0  0  0  0
   20.2984  -18.5967  -15.2058 N   0  0  0  0  0  0  0  0  0  0  0  0
   18.3786  -17.2519  -15.8238 C   0  0  0  0  0  0  0  0  0  0  0  0
   17.6399  -18.3752  -16.0644 O   0  0  0  0  0  0  0  0  0  0  0  0
   17.8040  -16.1347  -15.8827 O   0  0  0  0  0  0  0  0  0  0  0  0
  1  5  1  0
  2  1  1  0
  2  3  1  0
  3  4  1  0
  5  4  1  0
  6  8  1  0
  5  6  1  6
  7  6  2  0
  9 13  1  0
  9  8  1  0
  9 10  1  1
 10 11  1  0
 11 15  1  0
 11 12  2  0
 13 20  1  0
 14 13  2  0
 17 16  1  1
 17 18  1  0
 19 17  1  0
 19 20  1  6
 21 22  1  0
 21 19  1  0
 23 21  2  0
M  END
$$$$
