PDT.pdb
     RDKit          3D

 23 23  0  0  1  0  0  0  0  0999 V2000
   28.0023  -18.5288   -6.0415 N   0  0  0  0  0  0  0  0  0  0  0  0
   27.5768  -18.6689   -4.6700 C   0  0  0  0  0  0  0  0  0  0  0  0
   27.5967  -20.1695   -4.4122 C   0  0  0  0  0  0  0  0  0  0  0  0
   28.8872  -20.5177   -5.1694 C   0  0  0  0  0  0  0  0  0  0  0  0
   28.6244  -19.7633   -6.4505 C   0  0  1  0  0  0  0  0  0  0  0  0
   27.7244  -20.4751   -7.3655 C   0  0  0  0  0  0  0  0  0  0  0  0
   27.9841  -21.6570   -7.6945 O   0  0  0  0  0  0  0  0  0  0  0  0
   26.5497  -19.8791   -7.9087 N   0  0  0  0  0  0  0  0  0  0  0  0
   25.7912  -20.3405   -9.0175 C   0  0  1  0  0  0  0  0  0  0  0  0
   24.3037  -20.1553   -8.8601 C   0  0  0  0  0  0  0  0  0  0  0  0
   23.8287  -21.2933   -8.0014 C   0  0  0  0  0  0  0  0  0  0  0  0
   23.5130  -22.3732   -8.5343 O   0  0  0  0  0  0  0  0  0  0  0  0
   26.2517  -19.8234  -10.3453 C   0  0  0  0  0  0  0  0  0  0  0  0
   26.4547  -18.6033  -10.5174 O   0  0  0  0  0  0  0  0  0  0  0  0
   23.7299  -21.1799   -6.6279 O   0  0  0  0  0  0  0  0  0  0  0  0
   29.2961  -20.8502  -12.1678 C   0  0  0  0  0  0  0  0  0  0  0  0
   28.1627  -21.0165  -13.1458 C   0  0  1  0  0  0  0  0  0  0  0  0
   27.7313  -22.3524  -13.2024 O   0  0  0  0  0  0  0  0  0  0  0  0
   26.9487  -20.1919  -12.7088 C   0  0  2  0  0  0  0  0  0  0  0  0
   26.4704  -20.7001  -11.4427 N   0  0  0  0  0  0  0  0  0  0  0  0
   25.8940  -20.2518  -13.7542 C   0  0  0  0  0  0  0  0  0  0  0  0
   26.0348  -19.7476  -15.0158 O   0  0  0  0  0  0  0  0  0  0  0  0
   24.8058  -20.8037  -13.4492 O   0  0  0  0  0  0  0  0  0  0  0  0
  1  5  1  0
  2  1  1  0
  2  3  1  0
  3  4  1  0
  5  4  1  0
  6  8  1  0
  5  6  1  6
  7  6  2  0
  9 13  1  0
  9  8  1  0
  9 10  1  1
 10 11  1  0
 11 15  1  0
 11 12  2  0
 13 20  1  0
 14 13  2  0
 17 16  1  1
 17 18  1  0
 19 17  1  0
 19 20  1  1
 21 22  1  0
 21 19  1  0
 23 21  2  0
M  END
$$$$
