PDT.pdb
     RDKit          3D

 23 23  0  0  1  0  0  0  0  0999 V2000
   18.3824  -12.1060  -14.9916 N   0  0  0  0  0  0  0  0  0  0  0  0
   17.1578  -12.6330  -15.5432 C   0  0  0  0  0  0  0  0  0  0  0  0
   17.2395  -12.3197  -17.0311 C   0  0  0  0  0  0  0  0  0  0  0  0
   18.7282  -12.6283  -17.2515 C   0  0  0  0  0  0  0  0  0  0  0  0
   19.3053  -11.8777  -16.0754 C   0  0  1  0  0  0  0  0  0  0  0  0
   19.4212  -10.4340  -16.3123 C   0  0  0  0  0  0  0  0  0  0  0  0
   20.1113  -10.0177  -17.2729 O   0  0  0  0  0  0  0  0  0  0  0  0
   18.7774   -9.4647  -15.4900 N   0  0  0  0  0  0  0  0  0  0  0  0
   18.8448   -8.0520  -15.6210 C   0  0  1  0  0  0  0  0  0  0  0  0
   17.5773   -7.3400  -15.2230 C   0  0  0  0  0  0  0  0  0  0  0  0
   16.4852   -7.9211  -16.0760 C   0  0  0  0  0  0  0  0  0  0  0  0
   16.5540   -7.8173  -17.3147 O   0  0  0  0  0  0  0  0  0  0  0  0
   20.0345   -7.4219  -14.9652 C   0  0  0  0  0  0  0  0  0  0  0  0
   20.4046   -7.7893  -13.8305 O   0  0  0  0  0  0  0  0  0  0  0  0
   15.3977   -8.5725  -15.5263 O   0  0  0  0  0  0  0  0  0  0  0  0
   24.2202   -4.9009  -15.5729 C   0  0  0  0  0  0  0  0  0  0  0  0
   22.9208   -5.4075  -16.1417 C   0  0  1  0  0  0  0  0  0  0  0  0
   23.1291   -6.5204  -16.9736 O   0  0  0  0  0  0  0  0  0  0  0  0
   21.9892   -5.8779  -15.0212 C   0  0  2  0  0  0  0  0  0  0  0  0
   20.7736   -6.3932  -15.6102 N   0  0  0  0  0  0  0  0  0  0  0  0
   21.7105   -4.7537  -14.0900 C   0  0  0  0  0  0  0  0  0  0  0  0
   22.3877   -4.5378  -12.9237 O   0  0  0  0  0  0  0  0  0  0  0  0
   20.7909   -3.9552  -14.4039 O   0  0  0  0  0  0  0  0  0  0  0  0
  1  5  1  0
  2  1  1  0
  2  3  1  0
  3  4  1  0
  5  4  1  0
  6  8  1  0
  5  6  1  6
  7  6  2  0
  9 13  1  0
  9  8  1  0
  9 10  1  1
 10 11  1  0
 11 15  1  0
 11 12  2  0
 13 20  1  0
 14 13  2  0
 17 16  1  1
 17 18  1  0
 19 17  1  0
 19 20  1  6
 21 22  1  0
 21 19  1  0
 23 21  2  0
M  END
$$$$
