PDT.pdb
     RDKit          3D

 23 23  0  0  1  0  0  0  0  0999 V2000
   21.2554  -12.6084  -16.8511 N   0  0  0  0  0  0  0  0  0  0  0  0
   20.1660  -13.4107  -17.3524 C   0  0  0  0  0  0  0  0  0  0  0  0
   19.5340  -12.5611  -18.4466 C   0  0  0  0  0  0  0  0  0  0  0  0
   20.8183  -11.9961  -19.0723 C   0  0  0  0  0  0  0  0  0  0  0  0
   21.5313  -11.5693  -17.8117 C   0  0  1  0  0  0  0  0  0  0  0  0
   21.0524  -10.2866  -17.2834 C   0  0  0  0  0  0  0  0  0  0  0  0
   21.1274   -9.2571  -17.9953 O   0  0  0  0  0  0  0  0  0  0  0  0
   20.4972  -10.1506  -15.9782 N   0  0  0  0  0  0  0  0  0  0  0  0
   19.9826   -8.9659  -15.3872 C   0  0  1  0  0  0  0  0  0  0  0  0
   18.8448   -9.2056  -14.4281 C   0  0  0  0  0  0  0  0  0  0  0  0
   17.7399   -9.8255  -15.2361 C   0  0  0  0  0  0  0  0  0  0  0  0
   17.4442   -9.3407  -16.3439 O   0  0  0  0  0  0  0  0  0  0  0  0
   21.0181   -8.0780  -14.7691 C   0  0  0  0  0  0  0  0  0  0  0  0
   21.7471   -8.4974  -13.8460 O   0  0  0  0  0  0  0  0  0  0  0  0
   17.0350  -10.9255  -14.7862 O   0  0  0  0  0  0  0  0  0  0  0  0
   23.5970   -5.9342  -16.7260 C   0  0  0  0  0  0  0  0  0  0  0  0
   22.8623   -5.0597  -15.7441 C   0  0  1  0  0  0  0  0  0  0  0  0
   21.8045   -4.3747  -16.3651 O   0  0  0  0  0  0  0  0  0  0  0  0
   22.2324   -5.9065  -14.6348 C   0  0  2  0  0  0  0  0  0  0  0  0
   21.2014   -6.7397  -15.2119 N   0  0  0  0  0  0  0  0  0  0  0  0
   21.6879   -5.0226  -13.5713 C   0  0  0  0  0  0  0  0  0  0  0  0
   22.4583   -4.3064  -12.7001 O   0  0  0  0  0  0  0  0  0  0  0  0
   20.4370   -4.9343  -13.4747 O   0  0  0  0  0  0  0  0  0  0  0  0
  1  5  1  0
  2  1  1  0
  2  3  1  0
  3  4  1  0
  5  4  1  0
  6  8  1  0
  5  6  1  1
  7  6  2  0
  9 13  1  0
  9  8  1  0
  9 10  1  1
 10 11  1  0
 11 15  1  0
 11 12  2  0
 13 20  1  0
 14 13  2  0
 17 16  1  6
 17 18  1  0
 19 17  1  0
 19 20  1  6
 21 22  1  0
 21 19  1  0
 23 21  2  0
M  END
$$$$
