PDT.pdb
     RDKit          3D

 23 23  0  0  1  0  0  0  0  0999 V2000
   22.8387  -14.5333  -17.0555 N   0  0  0  0  0  0  0  0  0  0  0  0
   22.2770  -15.6945  -17.7017 C   0  0  0  0  0  0  0  0  0  0  0  0
   21.9204  -15.2200  -19.1039 C   0  0  0  0  0  0  0  0  0  0  0  0
   23.1521  -14.3417  -19.3716 C   0  0  0  0  0  0  0  0  0  0  0  0
   23.1846  -13.5723  -18.0730 C   0  0  1  0  0  0  0  0  0  0  0  0
   22.2234  -12.4640  -18.0342 C   0  0  0  0  0  0  0  0  0  0  0  0
   22.2137  -11.6202  -18.9617 O   0  0  0  0  0  0  0  0  0  0  0  0
   21.2844  -12.2959  -16.9758 N   0  0  0  0  0  0  0  0  0  0  0  0
   20.3649  -11.2259  -16.8104 C   0  0  1  0  0  0  0  0  0  0  0  0
   19.0469  -11.6401  -16.2078 C   0  0  0  0  0  0  0  0  0  0  0  0
   18.4951  -12.7122  -17.1045 C   0  0  0  0  0  0  0  0  0  0  0  0
   18.1977  -12.4343  -18.2810 O   0  0  0  0  0  0  0  0  0  0  0  0
   20.9209  -10.0317  -16.0982 C   0  0  0  0  0  0  0  0  0  0  0  0
   21.5486  -10.1649  -15.0268 O   0  0  0  0  0  0  0  0  0  0  0  0
   18.3052  -14.0075  -16.6627 O   0  0  0  0  0  0  0  0  0  0  0  0
   21.8574   -5.1548  -16.1876 C   0  0  0  0  0  0  0  0  0  0  0  0
   21.2843   -6.3700  -16.8685 C   0  0  1  0  0  0  0  0  0  0  0  0
   22.0498   -6.7339  -17.9889 O   0  0  0  0  0  0  0  0  0  0  0  0
   21.3045   -7.5759  -15.9251 C   0  0  2  0  0  0  0  0  0  0  0  0
   20.7521   -8.7190  -16.6167 N   0  0  0  0  0  0  0  0  0  0  0  0
   20.5400   -7.2641  -14.6893 C   0  0  0  0  0  0  0  0  0  0  0  0
   21.1144   -6.9356  -13.4944 O   0  0  0  0  0  0  0  0  0  0  0  0
   19.2849   -7.3077  -14.7573 O   0  0  0  0  0  0  0  0  0  0  0  0
  1  5  1  0
  2  1  1  0
  2  3  1  0
  3  4  1  0
  5  4  1  0
  6  8  1  0
  5  6  1  6
  7  6  2  0
  9 13  1  0
  9  8  1  0
  9 10  1  1
 10 11  1  0
 11 15  1  0
 11 12  2  0
 13 20  1  0
 14 13  2  0
 17 16  1  1
 17 18  1  0
 19 17  1  0
 19 20  1  6
 21 22  1  0
 21 19  1  0
 23 21  2  0
M  END
$$$$
