PDT.pdb
     RDKit          3D

 23 23  0  0  1  0  0  0  0  0999 V2000
   15.4188  -11.7555  -12.8199 N   0  0  0  0  0  0  0  0  0  0  0  0
   16.2359  -12.6075  -11.9905 C   0  0  0  0  0  0  0  0  0  0  0  0
   17.0396  -11.6462  -11.1252 C   0  0  0  0  0  0  0  0  0  0  0  0
   15.9364  -10.6168  -10.8363 C   0  0  0  0  0  0  0  0  0  0  0  0
   15.4037  -10.4368  -12.2374 C   0  0  1  0  0  0  0  0  0  0  0  0
   16.2264   -9.5396  -13.0572 C   0  0  0  0  0  0  0  0  0  0  0  0
   17.1021  -10.0216  -13.8142 O   0  0  0  0  0  0  0  0  0  0  0  0
   16.0771   -8.1227  -13.0347 N   0  0  0  0  0  0  0  0  0  0  0  0
   16.8148   -7.1732  -13.7909 C   0  0  1  0  0  0  0  0  0  0  0  0
   16.0822   -5.8772  -14.0265 C   0  0  0  0  0  0  0  0  0  0  0  0
   16.8760   -5.1296  -15.0604 C   0  0  0  0  0  0  0  0  0  0  0  0
   17.4784   -4.0894  -14.7367 O   0  0  0  0  0  0  0  0  0  0  0  0
   18.1998   -6.9140  -13.2838 C   0  0  0  0  0  0  0  0  0  0  0  0
   18.4394   -6.9150  -12.0582 O   0  0  0  0  0  0  0  0  0  0  0  0
   16.9601   -5.5621  -16.3700 O   0  0  0  0  0  0  0  0  0  0  0  0
   22.9300   -7.4989  -13.9314 C   0  0  0  0  0  0  0  0  0  0  0  0
   21.5032   -7.5850  -14.4064 C   0  0  1  0  0  0  0  0  0  0  0  0
   20.9455   -8.8415  -14.1166 O   0  0  0  0  0  0  0  0  0  0  0  0
   20.6321   -6.5526  -13.6854 C   0  0  2  0  0  0  0  0  0  0  0  0
   19.2767   -6.6608  -14.1765 N   0  0  0  0  0  0  0  0  0  0  0  0
   21.1827   -5.1888  -13.8992 C   0  0  0  0  0  0  0  0  0  0  0  0
   22.1397   -4.6156  -13.1110 O   0  0  0  0  0  0  0  0  0  0  0  0
   20.7333   -4.5276  -14.8701 O   0  0  0  0  0  0  0  0  0  0  0  0
  1  5  1  0
  2  1  1  0
  2  3  1  0
  3  4  1  0
  5  4  1  0
  6  8  1  0
  5  6  1  6
  7  6  2  0
  9 13  1  0
  9  8  1  0
  9 10  1  1
 10 11  1  0
 11 15  1  0
 11 12  2  0
 13 20  1  0
 14 13  2  0
 17 16  1  1
 17 18  1  0
 19 17  1  0
 19 20  1  6
 21 22  1  0
 21 19  1  0
 23 21  2  0
M  END
$$$$
