PDT.pdb
     RDKit          3D

 23 23  0  0  1  0  0  0  0  0999 V2000
   19.5111  -12.7394  -15.5022 N   0  0  0  0  0  0  0  0  0  0  0  0
   18.3575  -13.4252  -16.0320 C   0  0  0  0  0  0  0  0  0  0  0  0
   18.2238  -12.9084  -17.4581 C   0  0  0  0  0  0  0  0  0  0  0  0
   19.7130  -12.8786  -17.8345 C   0  0  0  0  0  0  0  0  0  0  0  0
   20.2568  -12.1889  -16.6064 C   0  0  1  0  0  0  0  0  0  0  0  0
   20.0728  -10.7331  -16.6326 C   0  0  0  0  0  0  0  0  0  0  0  0
   20.5634  -10.0639  -17.5728 O   0  0  0  0  0  0  0  0  0  0  0  0
   19.3520  -10.0299  -15.6246 N   0  0  0  0  0  0  0  0  0  0  0  0
   19.1586   -8.6256  -15.5339 C   0  0  1  0  0  0  0  0  0  0  0  0
   17.8902   -8.2278  -14.8236 C   0  0  0  0  0  0  0  0  0  0  0  0
   16.7597   -8.7848  -15.6421 C   0  0  0  0  0  0  0  0  0  0  0  0
   15.7984   -9.3298  -15.0689 O   0  0  0  0  0  0  0  0  0  0  0  0
   20.3305   -7.8697  -14.9883 C   0  0  0  0  0  0  0  0  0  0  0  0
   20.8730   -8.2212  -13.9198 O   0  0  0  0  0  0  0  0  0  0  0  0
   16.7519   -8.7116  -17.0218 O   0  0  0  0  0  0  0  0  0  0  0  0
   23.8774   -4.5093  -15.8334 C   0  0  0  0  0  0  0  0  0  0  0  0
   22.6250   -5.2060  -16.2967 C   0  0  1  0  0  0  0  0  0  0  0  0
   22.8938   -6.0801  -17.3631 O   0  0  0  0  0  0  0  0  0  0  0  0
   22.0404   -6.0669  -15.1734 C   0  0  2  0  0  0  0  0  0  0  0  0
   20.8576   -6.7366  -15.6658 N   0  0  0  0  0  0  0  0  0  0  0  0
   21.7349   -5.2179  -13.9924 C   0  0  0  0  0  0  0  0  0  0  0  0
   22.5319   -5.1258  -12.8871 O   0  0  0  0  0  0  0  0  0  0  0  0
   20.6730   -4.5446  -14.0214 O   0  0  0  0  0  0  0  0  0  0  0  0
  1  5  1  0
  2  1  1  0
  2  3  1  0
  3  4  1  0
  5  4  1  0
  6  8  1  0
  5  6  1  6
  7  6  2  0
  9 13  1  0
  9  8  1  0
  9 10  1  1
 10 11  1  0
 11 15  1  0
 11 12  2  0
 13 20  1  0
 14 13  2  0
 17 16  1  1
 17 18  1  0
 19 17  1  0
 19 20  1  6
 21 22  1  0
 21 19  1  0
 23 21  2  0
M  END
$$$$
