PDT.pdb
     RDKit          3D

 23 23  0  0  1  0  0  0  0  0999 V2000
   19.9830  -12.0566  -15.6001 N   0  0  0  0  0  0  0  0  0  0  0  0
   19.3379  -12.9606  -16.5210 C   0  0  0  0  0  0  0  0  0  0  0  0
   19.4059  -12.2523  -17.8672 C   0  0  0  0  0  0  0  0  0  0  0  0
   20.8263  -11.6777  -17.7553 C   0  0  0  0  0  0  0  0  0  0  0  0
   20.7411  -11.0973  -16.3640 C   0  0  1  0  0  0  0  0  0  0  0  0
   20.0572   -9.7996  -16.3206 C   0  0  0  0  0  0  0  0  0  0  0  0
   20.4961   -8.8453  -17.0056 O   0  0  0  0  0  0  0  0  0  0  0  0
   18.8992   -9.5658  -15.5241 N   0  0  0  0  0  0  0  0  0  0  0  0
   18.1719   -8.3512  -15.4084 C   0  0  1  0  0  0  0  0  0  0  0  0
   16.7571   -8.5298  -14.9202 C   0  0  0  0  0  0  0  0  0  0  0  0
   16.1702   -9.6459  -15.7374 C   0  0  0  0  0  0  0  0  0  0  0  0
   16.2136   -9.5843  -16.9800 O   0  0  0  0  0  0  0  0  0  0  0  0
   18.8697   -7.2795  -14.6291 C   0  0  0  0  0  0  0  0  0  0  0  0
   18.7650   -7.2261  -13.3859 O   0  0  0  0  0  0  0  0  0  0  0  0
   15.5786  -10.7479  -15.1502 O   0  0  0  0  0  0  0  0  0  0  0  0
   22.3635   -6.7586  -14.1168 C   0  0  0  0  0  0  0  0  0  0  0  0
   21.8798   -5.4740  -14.7369 C   0  0  1  0  0  0  0  0  0  0  0  0
   22.0686   -5.4784  -16.1291 O   0  0  0  0  0  0  0  0  0  0  0  0
   20.3759   -5.2984  -14.5086 C   0  0  2  0  0  0  0  0  0  0  0  0
   19.6672   -6.2972  -15.2769 N   0  0  0  0  0  0  0  0  0  0  0  0
   19.9637   -3.9224  -14.8903 C   0  0  0  0  0  0  0  0  0  0  0  0
   20.2617   -2.8036  -14.1657 O   0  0  0  0  0  0  0  0  0  0  0  0
   19.2988   -3.7891  -15.9494 O   0  0  0  0  0  0  0  0  0  0  0  0
  1  5  1  0
  2  1  1  0
  2  3  1  0
  3  4  1  0
  5  4  1  0
  6  8  1  0
  5  6  1  6
  7  6  2  0
  9 13  1  0
  9  8  1  0
  9 10  1  1
 10 11  1  0
 11 15  1  0
 11 12  2  0
 13 20  1  0
 14 13  2  0
 17 16  1  6
 17 18  1  0
 19 17  1  0
 19 20  1  6
 21 22  1  0
 21 19  1  0
 23 21  2  0
M  END
$$$$
