PDT.pdb
     RDKit          3D

 23 23  0  0  1  0  0  0  0  0999 V2000
   26.8889  -18.7453  -18.5986 N   0  0  0  0  0  0  0  0  0  0  0  0
   26.8250  -17.4862  -17.8972 C   0  0  0  0  0  0  0  0  0  0  0  0
   28.1945  -17.3370  -17.2483 C   0  0  0  0  0  0  0  0  0  0  0  0
   29.0568  -17.8732  -18.4011 C   0  0  0  0  0  0  0  0  0  0  0  0
   28.2745  -19.1234  -18.7242 C   0  0  1  0  0  0  0  0  0  0  0  0
   28.5551  -20.2336  -17.8063 C   0  0  0  0  0  0  0  0  0  0  0  0
   29.3978  -20.0816  -16.8903 O   0  0  0  0  0  0  0  0  0  0  0  0
   27.9063  -21.4982  -17.9066 N   0  0  0  0  0  0  0  0  0  0  0  0
   28.1828  -22.6639  -17.1434 C   0  0  1  0  0  0  0  0  0  0  0  0
   26.9913  -23.5674  -16.9540 C   0  0  0  0  0  0  0  0  0  0  0  0
   25.8702  -22.6874  -16.4776 C   0  0  0  0  0  0  0  0  0  0  0  0
   24.9380  -22.4080  -17.2540 O   0  0  0  0  0  0  0  0  0  0  0  0
   29.3717  -23.4460  -17.6098 C   0  0  0  0  0  0  0  0  0  0  0  0
   29.6953  -23.4533  -18.8159 O   0  0  0  0  0  0  0  0  0  0  0  0
   25.8395  -22.1736  -15.1954 O   0  0  0  0  0  0  0  0  0  0  0  0
   31.8520  -25.3924  -14.7428 C   0  0  0  0  0  0  0  0  0  0  0  0
   32.4106  -24.7408  -15.9805 C   0  0  1  0  0  0  0  0  0  0  0  0
   33.5634  -25.4063  -16.4298 O   0  0  0  0  0  0  0  0  0  0  0  0
   31.4001  -24.8105  -17.1289 C   0  0  2  0  0  0  0  0  0  0  0  0
   30.1626  -24.1986  -16.6996 N   0  0  0  0  0  0  0  0  0  0  0  0
   31.1965  -26.2246  -17.5381 C   0  0  0  0  0  0  0  0  0  0  0  0
   32.0854  -26.9422  -18.2866 O   0  0  0  0  0  0  0  0  0  0  0  0
   30.1354  -26.7886  -17.1670 O   0  0  0  0  0  0  0  0  0  0  0  0
  1  5  1  0
  2  1  1  0
  2  3  1  0
  3  4  1  0
  5  4  1  0
  6  8  1  0
  5  6  1  1
  7  6  2  0
  9 13  1  0
  9  8  1  0
  9 10  1  6
 10 11  1  0
 11 15  1  0
 11 12  2  0
 13 20  1  0
 14 13  2  0
 17 16  1  1
 17 18  1  0
 19 17  1  0
 19 20  1  1
 21 22  1  0
 21 19  1  0
 23 21  2  0
M  END
$$$$
