PDT.pdb
     RDKit          3D

 23 23  0  0  1  0  0  0  0  0999 V2000
   21.5937  -12.8012  -16.6464 N   0  0  0  0  0  0  0  0  0  0  0  0
   20.5596  -13.7689  -16.9216 C   0  0  0  0  0  0  0  0  0  0  0  0
   19.7806  -13.1785  -18.0892 C   0  0  0  0  0  0  0  0  0  0  0  0
   20.9620  -12.6209  -18.8976 C   0  0  0  0  0  0  0  0  0  0  0  0
   21.7062  -11.9233  -17.7844 C   0  0  1  0  0  0  0  0  0  0  0  0
   21.1370  -10.6150  -17.4405 C   0  0  0  0  0  0  0  0  0  0  0  0
   21.0430   -9.7295  -18.3233 O   0  0  0  0  0  0  0  0  0  0  0  0
   20.6784  -10.2953  -16.1299 N   0  0  0  0  0  0  0  0  0  0  0  0
   20.1613   -9.0493  -15.6852 C   0  0  1  0  0  0  0  0  0  0  0  0
   19.0070   -9.1745  -14.7242 C   0  0  0  0  0  0  0  0  0  0  0  0
   17.9138   -9.8831  -15.4730 C   0  0  0  0  0  0  0  0  0  0  0  0
   17.5057   -9.4138  -16.5514 O   0  0  0  0  0  0  0  0  0  0  0  0
   21.1920   -8.1013  -15.1546 C   0  0  0  0  0  0  0  0  0  0  0  0
   22.1008   -8.5065  -14.4000 O   0  0  0  0  0  0  0  0  0  0  0  0
   17.3414  -11.0483  -15.0001 O   0  0  0  0  0  0  0  0  0  0  0  0
   23.2971   -3.6304  -15.3562 C   0  0  0  0  0  0  0  0  0  0  0  0
   22.2349   -4.5769  -15.8506 C   0  0  1  0  0  0  0  0  0  0  0  0
   22.5358   -5.0516  -17.1382 O   0  0  0  0  0  0  0  0  0  0  0  0
   22.1501   -5.8107  -14.9476 C   0  0  2  0  0  0  0  0  0  0  0  0
   21.1671   -6.7206  -15.4916 N   0  0  0  0  0  0  0  0  0  0  0  0
   21.8054   -5.4000  -13.5615 C   0  0  0  0  0  0  0  0  0  0  0  0
   22.7215   -5.2196  -12.5647 O   0  0  0  0  0  0  0  0  0  0  0  0
   20.5905   -5.2084  -13.2986 O   0  0  0  0  0  0  0  0  0  0  0  0
  1  5  1  0
  2  1  1  0
  2  3  1  0
  3  4  1  0
  5  4  1  0
  6  8  1  0
  5  6  1  1
  7  6  2  0
  9 13  1  0
  9  8  1  0
  9 10  1  1
 10 11  1  0
 11 15  1  0
 11 12  2  0
 13 20  1  0
 14 13  2  0
 17 16  1  1
 17 18  1  0
 19 17  1  0
 19 20  1  6
 21 22  1  0
 21 19  1  0
 23 21  2  0
M  END
$$$$
