PDT.pdb
     RDKit          3D

 23 23  0  0  1  0  0  0  0  0999 V2000
   17.4187   -9.9373  -15.8776 N   0  0  0  0  0  0  0  0  0  0  0  0
   17.9632  -11.2481  -16.1359 C   0  0  0  0  0  0  0  0  0  0  0  0
   18.7356  -11.6002  -14.8718 C   0  0  0  0  0  0  0  0  0  0  0  0
   17.7505  -11.0399  -13.8346 C   0  0  0  0  0  0  0  0  0  0  0  0
   17.4870   -9.6906  -14.4588 C   0  0  1  0  0  0  0  0  0  0  0  0
   18.5487   -8.7133  -14.1912 C   0  0  0  0  0  0  0  0  0  0  0  0
   18.8262   -8.4094  -13.0067 O   0  0  0  0  0  0  0  0  0  0  0  0
   19.2925   -8.0810  -15.2291 N   0  0  0  0  0  0  0  0  0  0  0  0
   20.3522   -7.1478  -15.0749 C   0  0  1  0  0  0  0  0  0  0  0  0
   21.5606   -7.4492  -15.9238 C   0  0  0  0  0  0  0  0  0  0  0  0
   21.7439   -8.9399  -15.8769 C   0  0  0  0  0  0  0  0  0  0  0  0
   21.4703   -9.6231  -16.8809 O   0  0  0  0  0  0  0  0  0  0  0  0
   19.9455   -5.7141  -15.2224 C   0  0  0  0  0  0  0  0  0  0  0  0
   20.7701   -4.7958  -15.0318 O   0  0  0  0  0  0  0  0  0  0  0  0
   22.2101   -9.5830  -14.7463 O   0  0  0  0  0  0  0  0  0  0  0  0
   18.1644   -3.9392  -18.1414 C   0  0  0  0  0  0  0  0  0  0  0  0
   17.3481   -3.7615  -16.8881 C   0  0  1  0  0  0  0  0  0  0  0  0
   16.3183   -4.7142  -16.8121 O   0  0  0  0  0  0  0  0  0  0  0  0
   18.2175   -3.9696  -15.6449 C   0  0  2  0  0  0  0  0  0  0  0  0
   18.6172   -5.3575  -15.5817 N   0  0  0  0  0  0  0  0  0  0  0  0
   17.4666   -3.5620  -14.4288 C   0  0  0  0  0  0  0  0  0  0  0  0
   16.9705   -4.4368  -13.5045 O   0  0  0  0  0  0  0  0  0  0  0  0
   17.2811   -2.3315  -14.2470 O   0  0  0  0  0  0  0  0  0  0  0  0
  1  5  1  0
  2  1  1  0
  2  3  1  0
  3  4  1  0
  5  4  1  0
  6  8  1  0
  5  6  1  6
  7  6  2  0
  9 13  1  0
  9  8  1  0
  9 10  1  6
 10 11  1  0
 11 15  1  0
 11 12  2  0
 13 20  1  0
 14 13  2  0
 17 16  1  6
 17 18  1  0
 19 17  1  0
 19 20  1  1
 21 22  1  0
 21 19  1  0
 23 21  2  0
M  END
$$$$
