PDT.pdb
     RDKit          3D

 23 23  0  0  1  0  0  0  0  0999 V2000
   30.1563  -22.4472  -13.6320 N   0  0  0  0  0  0  0  0  0  0  0  0
   30.9716  -21.7249  -14.5781 C   0  0  0  0  0  0  0  0  0  0  0  0
   31.2439  -20.3851  -13.9077 C   0  0  0  0  0  0  0  0  0  0  0  0
   31.4654  -20.8851  -12.4720 C   0  0  0  0  0  0  0  0  0  0  0  0
   30.2698  -21.7989  -12.3493 C   0  0  1  0  0  0  0  0  0  0  0  0
   29.0221  -21.0819  -12.0609 C   0  0  0  0  0  0  0  0  0  0  0  0
   29.0663  -19.9720  -11.4790 O   0  0  0  0  0  0  0  0  0  0  0  0
   27.7404  -21.5937  -12.4151 N   0  0  0  0  0  0  0  0  0  0  0  0
   26.4760  -21.0441  -12.0733 C   0  0  1  0  0  0  0  0  0  0  0  0
   25.3945  -21.3227  -13.0855 C   0  0  0  0  0  0  0  0  0  0  0  0
   24.2902  -20.3450  -12.7980 C   0  0  0  0  0  0  0  0  0  0  0  0
   23.9717  -20.1097  -11.6178 O   0  0  0  0  0  0  0  0  0  0  0  0
   26.0059  -21.3765  -10.6909 C   0  0  0  0  0  0  0  0  0  0  0  0
   25.5585  -22.5121  -10.4267 O   0  0  0  0  0  0  0  0  0  0  0  0
   23.6106  -19.6930  -13.8089 O   0  0  0  0  0  0  0  0  0  0  0  0
   27.8573  -20.0048   -7.3056 C   0  0  0  0  0  0  0  0  0  0  0  0
   26.3653  -19.7992   -7.3232 C   0  0  1  0  0  0  0  0  0  0  0  0
   26.0345  -18.5114   -7.7770 O   0  0  0  0  0  0  0  0  0  0  0  0
   25.6978  -20.7798   -8.2915 C   0  0  2  0  0  0  0  0  0  0  0  0
   26.0544  -20.4157   -9.6444 N   0  0  0  0  0  0  0  0  0  0  0  0
   24.2251  -20.7637   -8.0923 C   0  0  0  0  0  0  0  0  0  0  0  0
   23.6047  -21.1165   -6.9277 O   0  0  0  0  0  0  0  0  0  0  0  0
   23.5126  -20.4006   -9.0629 O   0  0  0  0  0  0  0  0  0  0  0  0
  1  5  1  0
  2  1  1  0
  2  3  1  0
  3  4  1  0
  5  4  1  0
  6  8  1  0
  5  6  1  6
  7  6  2  0
  9 13  1  0
  9  8  1  0
  9 10  1  6
 10 11  1  0
 11 15  1  0
 11 12  2  0
 13 20  1  0
 14 13  2  0
 17 16  1  6
 17 18  1  0
 19 17  1  0
 19 20  1  6
 21 22  1  0
 21 19  1  0
 23 21  2  0
M  END
$$$$
