PDT.pdb
     RDKit          3D

 23 23  0  0  1  0  0  0  0  0999 V2000
   21.7223  -12.3676  -17.2254 N   0  0  0  0  0  0  0  0  0  0  0  0
   23.1018  -12.2864  -17.6402 C   0  0  0  0  0  0  0  0  0  0  0  0
   23.6951  -11.1728  -16.7879 C   0  0  0  0  0  0  0  0  0  0  0  0
   22.9986  -11.5020  -15.4587 C   0  0  0  0  0  0  0  0  0  0  0  0
   21.5875  -11.6803  -15.9653 C   0  0  1  0  0  0  0  0  0  0  0  0
   20.8873  -10.4091  -16.1835 C   0  0  0  0  0  0  0  0  0  0  0  0
   21.3061   -9.6138  -17.0579 O   0  0  0  0  0  0  0  0  0  0  0  0
   19.7352  -10.0267  -15.4374 N   0  0  0  0  0  0  0  0  0  0  0  0
   19.0082   -8.8116  -15.5499 C   0  0  1  0  0  0  0  0  0  0  0  0
   17.5184   -8.9734  -15.3881 C   0  0  0  0  0  0  0  0  0  0  0  0
   17.0666   -9.8477  -16.5237 C   0  0  0  0  0  0  0  0  0  0  0  0
   16.9977   -9.3734  -17.6727 O   0  0  0  0  0  0  0  0  0  0  0  0
   19.5171   -7.6994  -14.6859 C   0  0  0  0  0  0  0  0  0  0  0  0
   19.5193   -7.8099  -13.4420 O   0  0  0  0  0  0  0  0  0  0  0  0
   16.7218  -11.1720  -16.3332 O   0  0  0  0  0  0  0  0  0  0  0  0
   22.6773   -4.2235  -13.8944 C   0  0  0  0  0  0  0  0  0  0  0  0
   22.0674   -5.3400  -14.7008 C   0  0  1  0  0  0  0  0  0  0  0  0
   22.6322   -6.5806  -14.3607 O   0  0  0  0  0  0  0  0  0  0  0  0
   20.5684   -5.4572  -14.4110 C   0  0  2  0  0  0  0  0  0  0  0  0
   20.0099   -6.4921  -15.2519 N   0  0  0  0  0  0  0  0  0  0  0  0
   19.9045   -4.1480  -14.6432 C   0  0  0  0  0  0  0  0  0  0  0  0
   19.6697   -3.2230  -13.6661 O   0  0  0  0  0  0  0  0  0  0  0  0
   19.5392   -3.8832  -15.8172 O   0  0  0  0  0  0  0  0  0  0  0  0
  1  5  1  0
  2  1  1  0
  2  3  1  0
  3  4  1  0
  5  4  1  0
  6  8  1  0
  5  6  1  6
  7  6  2  0
  9 13  1  0
  9  8  1  0
  9 10  1  1
 10 11  1  0
 11 15  1  0
 11 12  2  0
 13 20  1  0
 14 13  2  0
 17 16  1  1
 17 18  1  0
 19 17  1  0
 19 20  1  6
 21 22  1  0
 21 19  1  0
 23 21  2  0
M  END
$$$$
