PDT.pdb
     RDKit          3D

 23 23  0  0  1  0  0  0  0  0999 V2000
   26.9968  -20.0176  -14.3175 N   0  0  0  0  0  0  0  0  0  0  0  0
   28.2058  -19.3448  -14.7261 C   0  0  0  0  0  0  0  0  0  0  0  0
   29.1842  -19.5835  -13.5840 C   0  0  0  0  0  0  0  0  0  0  0  0
   28.8293  -21.0464  -13.2769 C   0  0  0  0  0  0  0  0  0  0  0  0
   27.3245  -20.9270  -13.2478 C   0  0  1  0  0  0  0  0  0  0  0  0
   26.8124  -20.3863  -11.9832 C   0  0  0  0  0  0  0  0  0  0  0  0
   27.0437  -19.1912  -11.6821 O   0  0  0  0  0  0  0  0  0  0  0  0
   26.0525  -21.1659  -11.0640 N   0  0  0  0  0  0  0  0  0  0  0  0
   25.5608  -20.7548   -9.7964 C   0  0  1  0  0  0  0  0  0  0  0  0
   24.1742  -21.2577   -9.4861 C   0  0  0  0  0  0  0  0  0  0  0  0
   23.2835  -20.7279  -10.5742 C   0  0  0  0  0  0  0  0  0  0  0  0
   22.9618  -21.4713  -11.5195 O   0  0  0  0  0  0  0  0  0  0  0  0
   26.4893  -21.0214   -8.6522 C   0  0  0  0  0  0  0  0  0  0  0  0
   27.1585  -22.0748   -8.6078 O   0  0  0  0  0  0  0  0  0  0  0  0
   22.8057  -19.4315  -10.5603 O   0  0  0  0  0  0  0  0  0  0  0  0
   29.5032  -19.1633   -7.2755 C   0  0  0  0  0  0  0  0  0  0  0  0
   28.4280  -19.2041   -6.2215 C   0  0  1  0  0  0  0  0  0  0  0  0
   27.6281  -18.0500   -6.2656 O   0  0  0  0  0  0  0  0  0  0  0  0
   27.4862  -20.3880   -6.4583 C   0  0  2  0  0  0  0  0  0  0  0  0
   26.6361  -20.0894   -7.5889 N   0  0  0  0  0  0  0  0  0  0  0  0
   26.6898  -20.6538   -5.2319 C   0  0  0  0  0  0  0  0  0  0  0  0
   27.2320  -20.9680   -4.0183 O   0  0  0  0  0  0  0  0  0  0  0  0
   25.4378  -20.5826   -5.3268 O   0  0  0  0  0  0  0  0  0  0  0  0
  1  5  1  0
  2  1  1  0
  2  3  1  0
  3  4  1  0
  5  4  1  0
  6  8  1  0
  5  6  1  1
  7  6  2  0
  9 13  1  0
  9  8  1  0
  9 10  1  1
 10 11  1  0
 11 15  1  0
 11 12  2  0
 13 20  1  0
 14 13  2  0
 17 16  1  6
 17 18  1  0
 19 17  1  0
 19 20  1  6
 21 22  1  0
 21 19  1  0
 23 21  2  0
M  END
$$$$
