GAE.pdb
     RDKit          3D

 19 18  0  0  1  0  0  0  0  0999 V2000
   14.2926  -10.2201  -10.5278 N   0  0  0  0  0  0  0  0  0  0  0  0
   14.9184   -9.4140   -9.4917 C   0  0  0  0  0  0  0  0  0  0  0  0
   15.5358   -8.1891  -10.0680 C   0  0  0  0  0  0  0  0  0  0  0  0
   15.6085   -8.1346  -11.3264 O   0  0  0  0  0  0  0  0  0  0  0  0
   16.4974   -4.7969   -8.7926 C   0  0  0  0  0  0  0  0  0  0  0  0
   16.4709   -5.9243   -9.8334 C   0  0  2  0  0  0  0  0  0  0  0  0
   16.0126   -7.1471   -9.2369 N   0  0  0  0  0  0  0  0  0  0  0  0
   17.8994   -6.1219  -10.2526 C   0  0  0  0  0  0  0  0  0  0  0  0
   18.6693   -6.6533   -9.4064 O   0  0  0  0  0  0  0  0  0  0  0  0
   18.3688   -5.7407  -11.5161 N   0  0  0  0  0  0  0  0  0  0  0  0
   19.7921   -5.9757  -11.8511 C   0  0  1  0  0  0  0  0  0  0  0  0
   19.8880   -7.1632  -12.7344 C   0  0  0  0  0  0  0  0  0  0  0  0
   21.2530   -7.4564  -13.2324 C   0  0  0  0  0  0  0  0  0  0  0  0
   21.2711   -8.5923  -14.1716 C   0  0  0  0  0  0  0  0  0  0  0  0
   22.0410   -9.5816  -13.9587 O   0  0  0  0  0  0  0  0  0  0  0  0
   20.4187   -4.7583  -12.3213 C   0  0  0  0  0  0  0  0  0  0  0  0
   19.7501   -3.8040  -12.7904 O   0  0  0  0  0  0  0  0  0  0  0  0
   20.4744   -8.6394  -15.3010 O   0  0  0  0  0  0  0  0  0  0  0  0
   21.7970   -4.6031  -12.2687 O   0  0  0  0  0  0  0  0  0  0  0  0
  2  1  1  0
  3  2  1  0
  4  3  2  0
  6  5  1  1
  6  7  1  0
  7  3  1  0
  8 10  1  0
  8  6  1  0
  9  8  2  0
 11 16  1  0
 11 10  1  0
 11 12  1  6
 12 13  1  0
 13 14  1  0
 14 18  1  0
 15 14  2  0
 16 19  1  0
 17 16  2  0
M  END
$$$$
