GAE.pdb
     RDKit          3D

 19 18  0  0  1  0  0  0  0  0999 V2000
   18.2037  -11.8239  -17.5364 N   0  0  0  0  0  0  0  0  0  0  0  0
   19.4745  -11.1698  -17.8043 C   0  0  0  0  0  0  0  0  0  0  0  0
   19.9485  -10.4152  -16.6128 C   0  0  0  0  0  0  0  0  0  0  0  0
   19.0591   -9.8802  -15.8955 O   0  0  0  0  0  0  0  0  0  0  0  0
   23.2212   -9.8612  -14.8388 C   0  0  0  0  0  0  0  0  0  0  0  0
   21.7395   -9.5952  -15.1368 C   0  0  2  0  0  0  0  0  0  0  0  0
   21.3276  -10.3108  -16.3113 N   0  0  0  0  0  0  0  0  0  0  0  0
   21.6436   -8.1261  -15.4336 C   0  0  0  0  0  0  0  0  0  0  0  0
   21.9248   -7.7667  -16.6096 O   0  0  0  0  0  0  0  0  0  0  0  0
   21.2627   -7.1894  -14.4642 N   0  0  0  0  0  0  0  0  0  0  0  0
   21.2367   -5.7541  -14.8281 C   0  0  1  0  0  0  0  0  0  0  0  0
   19.8262   -5.3249  -14.9892 C   0  0  0  0  0  0  0  0  0  0  0  0
   19.6432   -3.8724  -15.2213 C   0  0  0  0  0  0  0  0  0  0  0  0
   18.2203   -3.4894  -15.2600 C   0  0  0  0  0  0  0  0  0  0  0  0
   17.8937   -2.2663  -15.3779 O   0  0  0  0  0  0  0  0  0  0  0  0
   22.0573   -4.9780  -13.9225 C   0  0  0  0  0  0  0  0  0  0  0  0
   22.3408   -5.3835  -12.7680 O   0  0  0  0  0  0  0  0  0  0  0  0
   17.1961   -4.4145  -15.1723 O   0  0  0  0  0  0  0  0  0  0  0  0
   22.5645   -3.7439  -14.3049 O   0  0  0  0  0  0  0  0  0  0  0  0
  2  1  1  0
  3  2  1  0
  4  3  2  0
  6  5  1  6
  6  7  1  0
  7  3  1  0
  8 10  1  0
  8  6  1  0
  9  8  2  0
 11 16  1  0
 11 10  1  0
 11 12  1  1
 12 13  1  0
 13 14  1  0
 14 18  1  0
 15 14  2  0
 16 19  1  0
 17 16  2  0
M  END
$$$$
