GAE.pdb
     RDKit          3D

 19 18  0  0  1  0  0  0  0  0999 V2000
   18.0293  -11.4672  -17.9675 N   0  0  0  0  0  0  0  0  0  0  0  0
   17.5377  -10.3958  -17.1160 C   0  0  0  0  0  0  0  0  0  0  0  0
   18.2696   -9.1271  -17.3776 C   0  0  0  0  0  0  0  0  0  0  0  0
   19.2879   -9.2077  -18.1182 O   0  0  0  0  0  0  0  0  0  0  0  0
   17.6686   -5.4665  -16.7889 C   0  0  0  0  0  0  0  0  0  0  0  0
   18.5175   -6.6871  -17.1692 C   0  0  2  0  0  0  0  0  0  0  0  0
   17.8357   -7.9010  -16.8190 N   0  0  0  0  0  0  0  0  0  0  0  0
   19.7584   -6.5951  -16.3283 C   0  0  0  0  0  0  0  0  0  0  0  0
   19.7633   -7.2539  -15.2525 O   0  0  0  0  0  0  0  0  0  0  0  0
   20.8633   -5.8212  -16.7057 N   0  0  0  0  0  0  0  0  0  0  0  0
   22.0616   -5.8133  -15.8356 C   0  0  1  0  0  0  0  0  0  0  0  0
   23.2663   -5.6201  -16.6787 C   0  0  0  0  0  0  0  0  0  0  0  0
   24.5375   -5.5022  -15.9255 C   0  0  0  0  0  0  0  0  0  0  0  0
   25.6969   -5.3126  -16.8157 C   0  0  0  0  0  0  0  0  0  0  0  0
   26.2099   -4.1575  -16.9549 O   0  0  0  0  0  0  0  0  0  0  0  0
   21.8866   -4.9003  -14.7258 C   0  0  0  0  0  0  0  0  0  0  0  0
   21.2657   -3.8153  -14.8482 O   0  0  0  0  0  0  0  0  0  0  0  0
   26.2702   -6.3517  -17.5257 O   0  0  0  0  0  0  0  0  0  0  0  0
   22.4059   -5.1974  -13.4734 O   0  0  0  0  0  0  0  0  0  0  0  0
  2  1  1  0
  3  2  1  0
  4  3  2  0
  6  5  1  1
  6  7  1  0
  7  3  1  0
  8 10  1  0
  8  6  1  0
  9  8  2  0
 11 16  1  0
 11 10  1  0
 11 12  1  6
 12 13  1  0
 13 14  1  0
 14 18  1  0
 15 14  2  0
 16 19  1  0
 17 16  2  0
M  END
$$$$
