GAE.pdb
     RDKit          3D

 19 18  0  0  1  0  0  0  0  0999 V2000
   19.8416  -11.9042  -19.1333 N   0  0  0  0  0  0  0  0  0  0  0  0
   21.0810  -11.1744  -18.9187 C   0  0  0  0  0  0  0  0  0  0  0  0
   21.1009  -10.5396  -17.5732 C   0  0  0  0  0  0  0  0  0  0  0  0
   19.9896  -10.1550  -17.1163 O   0  0  0  0  0  0  0  0  0  0  0  0
   23.5917  -10.0726  -14.8005 C   0  0  0  0  0  0  0  0  0  0  0  0
   22.2790   -9.7935  -15.5449 C   0  0  2  0  0  0  0  0  0  0  0  0
   22.3100  -10.3816  -16.8542 N   0  0  0  0  0  0  0  0  0  0  0  0
   22.2164   -8.3021  -15.7098 C   0  0  0  0  0  0  0  0  0  0  0  0
   22.7400   -7.8256  -16.7539 O   0  0  0  0  0  0  0  0  0  0  0  0
   21.6106   -7.4683  -14.7611 N   0  0  0  0  0  0  0  0  0  0  0  0
   21.5792   -6.0085  -15.0082 C   0  0  1  0  0  0  0  0  0  0  0  0
   20.2115   -5.6225  -15.4325 C   0  0  0  0  0  0  0  0  0  0  0  0
   20.0181   -4.1695  -15.6534 C   0  0  0  0  0  0  0  0  0  0  0  0
   18.6278   -3.8416  -16.0168 C   0  0  0  0  0  0  0  0  0  0  0  0
   17.7823   -4.7729  -16.2029 O   0  0  0  0  0  0  0  0  0  0  0  0
   22.1462   -5.2842  -13.8903 C   0  0  0  0  0  0  0  0  0  0  0  0
   22.2425   -5.7947  -12.7466 O   0  0  0  0  0  0  0  0  0  0  0  0
   18.1837   -2.5409  -16.1701 O   0  0  0  0  0  0  0  0  0  0  0  0
   22.6082   -3.9849  -14.0471 O   0  0  0  0  0  0  0  0  0  0  0  0
  2  1  1  0
  3  2  1  0
  4  3  2  0
  6  5  1  1
  6  7  1  0
  7  3  1  0
  8 10  1  0
  8  6  1  0
  9  8  2  0
 11 16  1  0
 11 10  1  0
 11 12  1  1
 12 13  1  0
 13 14  1  0
 14 18  1  0
 15 14  2  0
 16 19  1  0
 17 16  2  0
M  END
$$$$
