GAE.pdb
     RDKit          3D

 19 18  0  0  1  0  0  0  0  0999 V2000
   18.0186  -14.0618  -17.4829 N   0  0  0  0  0  0  0  0  0  0  0  0
   17.1570  -13.0824  -18.1256 C   0  0  0  0  0  0  0  0  0  0  0  0
   17.6726  -11.7018  -17.9212 C   0  0  0  0  0  0  0  0  0  0  0  0
   18.6791  -11.5828  -17.1698 O   0  0  0  0  0  0  0  0  0  0  0  0
   16.9893   -8.2651  -19.2850 C   0  0  0  0  0  0  0  0  0  0  0  0
   17.5447   -9.2677  -18.2647 C   0  0  2  0  0  0  0  0  0  0  0  0
   17.0570  -10.5890  -18.5430 N   0  0  0  0  0  0  0  0  0  0  0  0
   16.9911   -8.8414  -16.9354 C   0  0  0  0  0  0  0  0  0  0  0  0
   16.0673   -9.5520  -16.4528 O   0  0  0  0  0  0  0  0  0  0  0  0
   17.4659   -7.7140  -16.2530 N   0  0  0  0  0  0  0  0  0  0  0  0
   16.8994   -7.3919  -14.9231 C   0  0  1  0  0  0  0  0  0  0  0  0
   17.1018   -8.5516  -14.0210 C   0  0  0  0  0  0  0  0  0  0  0  0
   16.7271   -8.3099  -12.6074 C   0  0  0  0  0  0  0  0  0  0  0  0
   17.0616   -9.4531  -11.7392 C   0  0  0  0  0  0  0  0  0  0  0  0
   17.8340  -10.3697  -12.1637 O   0  0  0  0  0  0  0  0  0  0  0  0
   17.3788   -6.1083  -14.4559 C   0  0  0  0  0  0  0  0  0  0  0  0
   16.7961   -5.4725  -13.5426 O   0  0  0  0  0  0  0  0  0  0  0  0
   16.5666   -9.5844  -10.4546 O   0  0  0  0  0  0  0  0  0  0  0  0
   18.5129   -5.5299  -15.0087 O   0  0  0  0  0  0  0  0  0  0  0  0
  2  1  1  0
  3  2  1  0
  4  3  2  0
  6  5  1  6
  6  7  1  0
  7  3  1  0
  8 10  1  0
  8  6  1  0
  9  8  2  0
 11 16  1  0
 11 10  1  0
 11 12  1  1
 12 13  1  0
 13 14  1  0
 14 18  1  0
 15 14  2  0
 16 19  1  0
 17 16  2  0
M  END
$$$$
