GAE.pdb
     RDKit          3D

 19 18  0  0  1  0  0  0  0  0999 V2000
   14.1333  -10.2127  -10.4506 N   0  0  0  0  0  0  0  0  0  0  0  0
   15.5306  -10.0594  -10.0782 C   0  0  0  0  0  0  0  0  0  0  0  0
   16.0633   -8.7464  -10.5318 C   0  0  0  0  0  0  0  0  0  0  0  0
   15.8088   -8.4173  -11.7229 O   0  0  0  0  0  0  0  0  0  0  0  0
   17.6183   -5.7379   -8.9205 C   0  0  0  0  0  0  0  0  0  0  0  0
   17.2385   -6.6243  -10.1142 C   0  0  2  0  0  0  0  0  0  0  0  0
   16.8145   -7.9194   -9.6626 N   0  0  0  0  0  0  0  0  0  0  0  0
   18.5028   -6.8019  -10.9051 C   0  0  0  0  0  0  0  0  0  0  0  0
   19.3500   -7.6143  -10.4430 O   0  0  0  0  0  0  0  0  0  0  0  0
   18.7442   -6.1078  -12.0976 N   0  0  0  0  0  0  0  0  0  0  0  0
   19.9927   -6.3830  -12.8450 C   0  0  1  0  0  0  0  0  0  0  0  0
   19.7272   -6.2313  -14.2963 C   0  0  0  0  0  0  0  0  0  0  0  0
   20.9245   -6.3538  -15.1614 C   0  0  0  0  0  0  0  0  0  0  0  0
   20.6220   -6.0658  -16.5750 C   0  0  0  0  0  0  0  0  0  0  0  0
   19.4403   -5.7485  -16.9209 O   0  0  0  0  0  0  0  0  0  0  0  0
   21.0980   -5.6237  -12.2994 C   0  0  0  0  0  0  0  0  0  0  0  0
   20.9346   -4.4944  -11.7743 O   0  0  0  0  0  0  0  0  0  0  0  0
   21.5807   -6.1243  -17.5700 O   0  0  0  0  0  0  0  0  0  0  0  0
   22.3917   -6.1249  -12.3390 O   0  0  0  0  0  0  0  0  0  0  0  0
  2  1  1  0
  3  2  1  0
  4  3  2  0
  6  5  1  1
  6  7  1  0
  7  3  1  0
  8 10  1  0
  8  6  1  0
  9  8  2  0
 11 16  1  0
 11 10  1  0
 11 12  1  6
 12 13  1  0
 13 14  1  0
 14 18  1  0
 15 14  2  0
 16 19  1  0
 17 16  2  0
M  END
$$$$
