GAE.pdb
     RDKit          3D

 19 18  0  0  1  0  0  0  0  0999 V2000
   23.9420  -20.2873   -9.4173 N   0  0  0  0  0  0  0  0  0  0  0  0
   24.9171  -21.0526  -10.1776 C   0  0  0  0  0  0  0  0  0  0  0  0
   25.4261  -20.2686  -11.3353 C   0  0  0  0  0  0  0  0  0  0  0  0
   24.8642  -19.1606  -11.5548 O   0  0  0  0  0  0  0  0  0  0  0  0
   28.4173  -20.4104  -13.5918 C   0  0  0  0  0  0  0  0  0  0  0  0
   27.0295  -19.9107  -13.1682 C   0  0  2  0  0  0  0  0  0  0  0  0
   26.4857  -20.7520  -12.1398 N   0  0  0  0  0  0  0  0  0  0  0  0
   26.1607  -20.0484  -14.3853 C   0  0  0  0  0  0  0  0  0  0  0  0
   25.6496  -21.1833  -14.5904 O   0  0  0  0  0  0  0  0  0  0  0  0
   25.9201  -18.9800  -15.2587 N   0  0  0  0  0  0  0  0  0  0  0  0
   24.9679  -19.1709  -16.3768 C   0  0  1  0  0  0  0  0  0  0  0  0
   24.3056  -17.8766  -16.6700 C   0  0  0  0  0  0  0  0  0  0  0  0
   23.3064  -17.9256  -17.7637 C   0  0  0  0  0  0  0  0  0  0  0  0
   22.7299  -16.5999  -18.0513 C   0  0  0  0  0  0  0  0  0  0  0  0
   22.0664  -15.9870  -17.1564 O   0  0  0  0  0  0  0  0  0  0  0  0
   25.6057  -19.8457  -17.4875 C   0  0  0  0  0  0  0  0  0  0  0  0
   26.8354  -19.7325  -17.7175 O   0  0  0  0  0  0  0  0  0  0  0  0
   22.8767  -15.9719  -19.2747 O   0  0  0  0  0  0  0  0  0  0  0  0
   24.8702  -20.6507  -18.3462 O   0  0  0  0  0  0  0  0  0  0  0  0
  2  1  1  0
  3  2  1  0
  4  3  2  0
  6  5  1  6
  6  7  1  0
  7  3  1  0
  8 10  1  0
  8  6  1  0
  9  8  2  0
 11 16  1  0
 11 10  1  0
 11 12  1  6
 12 13  1  0
 13 14  1  0
 14 18  1  0
 15 14  2  0
 16 19  1  0
 17 16  2  0
M  END
$$$$
