GAE.pdb
     RDKit          3D

 19 18  0  0  1  0  0  0  0  0999 V2000
   18.9332  -14.2113  -16.1851 N   0  0  0  0  0  0  0  0  0  0  0  0
   18.0917  -13.2898  -15.4386 C   0  0  0  0  0  0  0  0  0  0  0  0
   18.2214  -11.9035  -15.9632 C   0  0  0  0  0  0  0  0  0  0  0  0
   19.3077  -11.6192  -16.5383 O   0  0  0  0  0  0  0  0  0  0  0  0
   15.9436   -8.9580  -16.4687 C   0  0  0  0  0  0  0  0  0  0  0  0
   17.3050   -9.6643  -16.4157 C   0  0  2  0  0  0  0  0  0  0  0  0
   17.1735  -10.9630  -15.8180 N   0  0  0  0  0  0  0  0  0  0  0  0
   18.1619   -8.8246  -15.5124 C   0  0  0  0  0  0  0  0  0  0  0  0
   18.1943   -9.1547  -14.2953 O   0  0  0  0  0  0  0  0  0  0  0  0
   18.8942   -7.7268  -15.9822 N   0  0  0  0  0  0  0  0  0  0  0  0
   19.7016   -6.9415  -15.0208 C   0  0  1  0  0  0  0  0  0  0  0  0
   20.9420   -6.4861  -15.6944 C   0  0  0  0  0  0  0  0  0  0  0  0
   21.7918   -5.5825  -14.8830 C   0  0  0  0  0  0  0  0  0  0  0  0
   22.9551   -5.0843  -15.6388 C   0  0  0  0  0  0  0  0  0  0  0  0
   23.6189   -4.0911  -15.2031 O   0  0  0  0  0  0  0  0  0  0  0  0
   18.8945   -5.9250  -14.3794 C   0  0  0  0  0  0  0  0  0  0  0  0
   17.9272   -5.3767  -14.9637 O   0  0  0  0  0  0  0  0  0  0  0  0
   23.3728   -5.6550  -16.8272 O   0  0  0  0  0  0  0  0  0  0  0  0
   19.1664   -5.5173  -13.0809 O   0  0  0  0  0  0  0  0  0  0  0  0
  2  1  1  0
  3  2  1  0
  4  3  2  0
  6  5  1  1
  6  7  1  0
  7  3  1  0
  8 10  1  0
  8  6  1  0
  9  8  2  0
 11 16  1  0
 11 10  1  0
 11 12  1  6
 12 13  1  0
 13 14  1  0
 14 18  1  0
 15 14  2  0
 16 19  1  0
 17 16  2  0
M  END
$$$$
