GAE.pdb
     RDKit          3D

 19 18  0  0  1  0  0  0  0  0999 V2000
   13.6390  -11.0651  -10.1640 N   0  0  0  0  0  0  0  0  0  0  0  0
   14.3703  -10.3051   -9.1628 C   0  0  0  0  0  0  0  0  0  0  0  0
   14.7621   -8.9690   -9.6874 C   0  0  0  0  0  0  0  0  0  0  0  0
   14.5337   -8.7557  -10.9097 O   0  0  0  0  0  0  0  0  0  0  0  0
   15.8229   -5.6741   -8.2631 C   0  0  0  0  0  0  0  0  0  0  0  0
   15.6911   -6.7094   -9.3883 C   0  0  2  0  0  0  0  0  0  0  0  0
   15.3588   -7.9975   -8.8485 N   0  0  0  0  0  0  0  0  0  0  0  0
   17.0545   -6.8070  -10.0104 C   0  0  0  0  0  0  0  0  0  0  0  0
   18.0057   -7.1201   -9.2431 O   0  0  0  0  0  0  0  0  0  0  0  0
   17.2755   -6.5655  -11.3724 N   0  0  0  0  0  0  0  0  0  0  0  0
   18.6261   -6.8039  -11.9310 C   0  0  1  0  0  0  0  0  0  0  0  0
   18.5488   -7.9049  -12.9217 C   0  0  0  0  0  0  0  0  0  0  0  0
   19.8264   -8.2122  -13.6076 C   0  0  0  0  0  0  0  0  0  0  0  0
   19.6727   -9.2682  -14.6245 C   0  0  0  0  0  0  0  0  0  0  0  0
   19.5540  -10.4828  -14.2674 O   0  0  0  0  0  0  0  0  0  0  0  0
   19.2257   -5.5639  -12.3767 C   0  0  0  0  0  0  0  0  0  0  0  0
   20.4661   -5.4433  -12.5339 O   0  0  0  0  0  0  0  0  0  0  0  0
   19.6504   -9.0001  -15.9809 O   0  0  0  0  0  0  0  0  0  0  0  0
   18.4398   -4.4527  -12.6485 O   0  0  0  0  0  0  0  0  0  0  0  0
  2  1  1  0
  3  2  1  0
  4  3  2  0
  6  5  1  1
  6  7  1  0
  7  3  1  0
  8 10  1  0
  8  6  1  0
  9  8  2  0
 11 16  1  0
 11 10  1  0
 11 12  1  6
 12 13  1  0
 13 14  1  0
 14 18  1  0
 15 14  2  0
 16 19  1  0
 17 16  2  0
M  END
$$$$
