GAE.pdb
     RDKit          3D

 19 18  0  0  1  0  0  0  0  0999 V2000
   19.3770  -13.3263  -16.8806 N   0  0  0  0  0  0  0  0  0  0  0  0
   20.0174  -12.1331  -17.4105 C   0  0  0  0  0  0  0  0  0  0  0  0
   20.6199  -11.3209  -16.3192 C   0  0  0  0  0  0  0  0  0  0  0  0
   19.8162  -10.7824  -15.5094 O   0  0  0  0  0  0  0  0  0  0  0  0
   24.0778  -10.5178  -15.0625 C   0  0  0  0  0  0  0  0  0  0  0  0
   22.5592  -10.3269  -15.1747 C   0  0  2  0  0  0  0  0  0  0  0  0
   22.0227  -11.1684  -16.2068 N   0  0  0  0  0  0  0  0  0  0  0  0
   22.3605   -8.8985  -15.5935 C   0  0  0  0  0  0  0  0  0  0  0  0
   22.3956   -8.6616  -16.8320 O   0  0  0  0  0  0  0  0  0  0  0  0
   22.1460   -7.8694  -14.6677 N   0  0  0  0  0  0  0  0  0  0  0  0
   21.9012   -6.4971  -15.1678 C   0  0  1  0  0  0  0  0  0  0  0  0
   20.5414   -6.4359  -15.7568 C   0  0  0  0  0  0  0  0  0  0  0  0
   20.1057   -5.0807  -16.1702 C   0  0  0  0  0  0  0  0  0  0  0  0
   18.7072   -5.0633  -16.6357 C   0  0  0  0  0  0  0  0  0  0  0  0
   17.7558   -5.0768  -15.7924 O   0  0  0  0  0  0  0  0  0  0  0  0
   22.2196   -5.5145  -14.1534 C   0  0  0  0  0  0  0  0  0  0  0  0
   22.3058   -5.8173  -12.9374 O   0  0  0  0  0  0  0  0  0  0  0  0
   18.3674   -5.0323  -17.9759 O   0  0  0  0  0  0  0  0  0  0  0  0
   22.4429   -4.1879  -14.4953 O   0  0  0  0  0  0  0  0  0  0  0  0
  2  1  1  0
  3  2  1  0
  4  3  2  0
  6  5  1  6
  6  7  1  0
  7  3  1  0
  8 10  1  0
  8  6  1  0
  9  8  2  0
 11 16  1  0
 11 10  1  0
 11 12  1  1
 12 13  1  0
 13 14  1  0
 14 18  1  0
 15 14  2  0
 16 19  1  0
 17 16  2  0
M  END
$$$$
