GAE.pdb
     RDKit          3D

 19 18  0  0  1  0  0  0  0  0999 V2000
   18.6677  -12.3625  -17.6324 N   0  0  0  0  0  0  0  0  0  0  0  0
   19.4599  -11.1901  -17.9679 C   0  0  0  0  0  0  0  0  0  0  0  0
   20.1402  -10.6426  -16.7633 C   0  0  0  0  0  0  0  0  0  0  0  0
   19.3931  -10.2378  -15.8307 O   0  0  0  0  0  0  0  0  0  0  0  0
   23.6668  -10.2498  -15.5093 C   0  0  0  0  0  0  0  0  0  0  0  0
   22.1658   -9.9337  -15.5579 C   0  0  2  0  0  0  0  0  0  0  0  0
   21.5521  -10.5848  -16.6807 N   0  0  0  0  0  0  0  0  0  0  0  0
   22.0712   -8.4508  -15.7753 C   0  0  0  0  0  0  0  0  0  0  0  0
   21.9734   -8.0590  -16.9704 O   0  0  0  0  0  0  0  0  0  0  0  0
   22.0891   -7.5356  -14.7150 N   0  0  0  0  0  0  0  0  0  0  0  0
   21.9226   -6.0942  -15.0115 C   0  0  1  0  0  0  0  0  0  0  0  0
   20.6032   -5.8856  -15.6559 C   0  0  0  0  0  0  0  0  0  0  0  0
   20.2562   -4.4676  -15.9127 C   0  0  0  0  0  0  0  0  0  0  0  0
   18.9127   -4.3207  -16.5009 C   0  0  0  0  0  0  0  0  0  0  0  0
   18.4776   -3.1674  -16.8132 O   0  0  0  0  0  0  0  0  0  0  0  0
   22.2142   -5.2907  -13.8431 C   0  0  0  0  0  0  0  0  0  0  0  0
   22.2176   -5.7770  -12.6850 O   0  0  0  0  0  0  0  0  0  0  0  0
   18.0795   -5.3989  -16.7366 O   0  0  0  0  0  0  0  0  0  0  0  0
   22.5035   -3.9388  -13.9654 O   0  0  0  0  0  0  0  0  0  0  0  0
  2  1  1  0
  3  2  1  0
  4  3  2  0
  6  5  1  6
  6  7  1  0
  7  3  1  0
  8 10  1  0
  8  6  1  0
  9  8  2  0
 11 16  1  0
 11 10  1  0
 11 12  1  1
 12 13  1  0
 13 14  1  0
 14 18  1  0
 15 14  2  0
 16 19  1  0
 17 16  2  0
M  END
$$$$
