GAE.pdb
     RDKit          3D

 19 18  0  0  1  0  0  0  0  0999 V2000
   26.5896  -12.4542  -15.9954 N   0  0  0  0  0  0  0  0  0  0  0  0
   25.1783  -12.4651  -15.6451 C   0  0  0  0  0  0  0  0  0  0  0  0
   24.4818  -11.2716  -16.1968 C   0  0  0  0  0  0  0  0  0  0  0  0
   25.1782  -10.4891  -16.8999 O   0  0  0  0  0  0  0  0  0  0  0  0
   20.9467  -10.2201  -16.7185 C   0  0  0  0  0  0  0  0  0  0  0  0
   22.4491   -9.9383  -16.5829 C   0  0  2  0  0  0  0  0  0  0  0  0
   23.1097  -11.0382  -15.9388 N   0  0  0  0  0  0  0  0  0  0  0  0
   22.5569   -8.7424  -15.6809 C   0  0  0  0  0  0  0  0  0  0  0  0
   22.6827   -8.9735  -14.4472 O   0  0  0  0  0  0  0  0  0  0  0  0
   22.5212   -7.4301  -16.1694 N   0  0  0  0  0  0  0  0  0  0  0  0
   22.7466   -6.3099  -15.2273 C   0  0  1  0  0  0  0  0  0  0  0  0
   23.1496   -5.1082  -15.9974 C   0  0  0  0  0  0  0  0  0  0  0  0
   24.3605   -5.2854  -16.8336 C   0  0  0  0  0  0  0  0  0  0  0  0
   24.6789   -4.0773  -17.6158 C   0  0  0  0  0  0  0  0  0  0  0  0
   23.8878   -3.6851  -18.5308 O   0  0  0  0  0  0  0  0  0  0  0  0
   21.6247   -6.1623  -14.3243 C   0  0  0  0  0  0  0  0  0  0  0  0
   20.4465   -6.4133  -14.6802 O   0  0  0  0  0  0  0  0  0  0  0  0
   25.8221   -3.3293  -17.4012 O   0  0  0  0  0  0  0  0  0  0  0  0
   21.8161   -5.7331  -13.0184 O   0  0  0  0  0  0  0  0  0  0  0  0
  2  1  1  0
  3  2  1  0
  4  3  2  0
  6  5  1  1
  6  7  1  0
  7  3  1  0
  8 10  1  0
  8  6  1  0
  9  8  2  0
 11 16  1  0
 11 10  1  0
 11 12  1  6
 12 13  1  0
 13 14  1  0
 14 18  1  0
 15 14  2  0
 16 19  1  0
 17 16  2  0
M  END
$$$$
