GAE.pdb
     RDKit          3D

 19 18  0  0  1  0  0  0  0  0999 V2000
   18.1956  -11.9382  -17.4229 N   0  0  0  0  0  0  0  0  0  0  0  0
   19.4647  -11.3331  -17.7945 C   0  0  0  0  0  0  0  0  0  0  0  0
   20.1264  -10.7133  -16.6149 C   0  0  0  0  0  0  0  0  0  0  0  0
   19.3675  -10.1779  -15.7610 O   0  0  0  0  0  0  0  0  0  0  0  0
   23.6220  -10.4359  -15.2409 C   0  0  0  0  0  0  0  0  0  0  0  0
   22.1350  -10.0712  -15.3451 C   0  0  2  0  0  0  0  0  0  0  0  0
   21.5345  -10.7303  -16.4703 N   0  0  0  0  0  0  0  0  0  0  0  0
   22.0979   -8.5921  -15.6023 C   0  0  0  0  0  0  0  0  0  0  0  0
   22.0770   -8.2279  -16.8098 O   0  0  0  0  0  0  0  0  0  0  0  0
   22.0867   -7.6514  -14.5644 N   0  0  0  0  0  0  0  0  0  0  0  0
   21.9975   -6.2127  -14.9042 C   0  0  1  0  0  0  0  0  0  0  0  0
   20.7281   -5.9686  -15.6313 C   0  0  0  0  0  0  0  0  0  0  0  0
   20.4074   -4.5389  -15.8554 C   0  0  0  0  0  0  0  0  0  0  0  0
   19.1177   -4.3590  -16.5461 C   0  0  0  0  0  0  0  0  0  0  0  0
   18.4143   -5.3725  -16.8542 O   0  0  0  0  0  0  0  0  0  0  0  0
   22.2526   -5.3914  -13.7397 C   0  0  0  0  0  0  0  0  0  0  0  0
   22.6026   -4.1889  -13.8372 O   0  0  0  0  0  0  0  0  0  0  0  0
   18.6203   -3.1140  -16.8852 O   0  0  0  0  0  0  0  0  0  0  0  0
   22.1173   -5.9120  -12.4602 O   0  0  0  0  0  0  0  0  0  0  0  0
  2  1  1  0
  3  2  1  0
  4  3  2  0
  6  5  1  6
  6  7  1  0
  7  3  1  0
  8 10  1  0
  8  6  1  0
  9  8  2  0
 11 16  1  0
 11 10  1  0
 11 12  1  1
 12 13  1  0
 13 14  1  0
 14 18  1  0
 15 14  2  0
 16 19  1  0
 17 16  2  0
M  END
$$$$
