GAE.pdb
     RDKit          3D

 19 18  0  0  1  0  0  0  0  0999 V2000
   22.9360  -13.5105  -19.0880 N   0  0  0  0  0  0  0  0  0  0  0  0
   23.7074  -12.2794  -19.0277 C   0  0  0  0  0  0  0  0  0  0  0  0
   23.5844  -11.6370  -17.6913 C   0  0  0  0  0  0  0  0  0  0  0  0
   22.4288  -11.6072  -17.1858 O   0  0  0  0  0  0  0  0  0  0  0  0
   25.9013  -10.0863  -15.1533 C   0  0  0  0  0  0  0  0  0  0  0  0
   24.5389  -10.4276  -15.7716 C   0  0  2  0  0  0  0  0  0  0  0  0
   24.7125  -11.0917  -17.0326 N   0  0  0  0  0  0  0  0  0  0  0  0
   23.8707   -9.1082  -16.0325 C   0  0  0  0  0  0  0  0  0  0  0  0
   24.1579   -8.5332  -17.1179 O   0  0  0  0  0  0  0  0  0  0  0  0
   22.9715   -8.5318  -15.1262 N   0  0  0  0  0  0  0  0  0  0  0  0
   22.2557   -7.2957  -15.5173 C   0  0  1  0  0  0  0  0  0  0  0  0
   20.8955   -7.6560  -15.9858 C   0  0  0  0  0  0  0  0  0  0  0  0
   20.0182   -6.5004  -16.2891 C   0  0  0  0  0  0  0  0  0  0  0  0
   18.6637   -6.9199  -16.6917 C   0  0  0  0  0  0  0  0  0  0  0  0
   17.7135   -6.0751  -16.7046 O   0  0  0  0  0  0  0  0  0  0  0  0
   22.3447   -6.2965  -14.4735 C   0  0  0  0  0  0  0  0  0  0  0  0
   22.6132   -6.5987  -13.2842 O   0  0  0  0  0  0  0  0  0  0  0  0
   18.3648   -8.2174  -17.0654 O   0  0  0  0  0  0  0  0  0  0  0  0
   22.1336   -4.9541  -14.7559 O   0  0  0  0  0  0  0  0  0  0  0  0
  2  1  1  0
  3  2  1  0
  4  3  2  0
  6  5  1  6
  6  7  1  0
  7  3  1  0
  8 10  1  0
  8  6  1  0
  9  8  2  0
 11 16  1  0
 11 10  1  0
 11 12  1  1
 12 13  1  0
 13 14  1  0
 14 18  1  0
 15 14  2  0
 16 19  1  0
 17 16  2  0
M  END
$$$$
