IKE.pdb
     RDKit          3D

 27 26  0  0  1  0  0  0  0  0999 V2000
    6.6695  -11.6336   27.9258 C   0  0  0  0  0  0  0  0  0  0  0  0
    5.9382  -12.7244   27.1796 C   0  0  0  0  0  0  0  0  0  0  0  0
    6.9286  -13.4220   26.2760 C   0  0  2  0  0  0  0  0  0  0  0  0
    7.5035  -12.4045   25.3150 C   0  0  0  0  0  0  0  0  0  0  0  0
    6.2494  -14.4848   25.4333 C   0  0  2  0  0  0  0  0  0  0  0  0
    5.6989  -15.5367   26.2727 N   0  0  0  0  0  0  0  0  0  0  0  0
    7.1180  -15.0796   24.4125 C   0  0  0  0  0  0  0  0  0  0  0  0
    7.8142  -16.0770   24.6758 O   0  0  0  0  0  0  0  0  0  0  0  0
    7.1632  -14.5168   23.1183 N   0  0  0  0  0  0  0  0  0  0  0  0
    7.9377  -15.1481   22.0388 C   0  0  1  0  0  0  0  0  0  0  0  0
    7.6248  -14.3641   20.7785 C   0  0  0  0  0  0  0  0  0  0  0  0
    8.3908  -14.8633   19.6016 C   0  0  0  0  0  0  0  0  0  0  0  0
    8.0023  -13.9484   18.4299 C   0  0  0  0  0  0  0  0  0  0  0  0
    8.6558  -14.4268   17.1514 C   0  0  0  0  0  0  0  0  0  0  0  0
    8.4296  -13.3971   16.1543 N   0  0  0  0  0  0  0  0  0  0  0  0
    9.3468  -15.1356   22.4248 C   0  0  0  0  0  0  0  0  0  0  0  0
    9.8774  -14.0916   22.8707 O   0  0  0  0  0  0  0  0  0  0  0  0
   10.1313  -16.2922   22.3042 N   0  0  0  0  0  0  0  0  0  0  0  0
   11.5637  -16.2803   22.7030 C   0  0  1  0  0  0  0  0  0  0  0  0
   11.7193  -17.0106   23.9671 C   0  0  0  0  0  0  0  0  0  0  0  0
   10.5362  -17.7458   24.4580 C   0  0  0  0  0  0  0  0  0  0  0  0
   10.7042  -18.6159   25.6329 C   0  0  0  0  0  0  0  0  0  0  0  0
   10.4657  -18.2724   26.8221 O   0  0  0  0  0  0  0  0  0  0  0  0
   12.3092  -16.7120   21.5531 C   0  0  0  0  0  0  0  0  0  0  0  0
   11.7610  -17.1528   20.5209 O   0  0  0  0  0  0  0  0  0  0  0  0
   11.1582  -19.9377   25.4553 O   0  0  0  0  0  0  0  0  0  0  0  0
   13.7193  -16.6739   21.4945 O   0  0  0  0  0  0  0  0  0  0  0  0
  1  2  1  0
  3  2  1  0
  3  4  1  6
  5  6  1  1
  5  3  1  0
  7  5  1  0
  8  7  2  0
  9  7  1  0
 10  9  1  0
 10 11  1  6
 11 12  1  0
 12 13  1  0
 13 14  1  0
 15 14  1  0
 16 18  1  0
 16 10  1  0
 17 16  2  0
 19 18  1  0
 20 21  1  0
 19 20  1  1
 21 22  1  0
 22 26  1  0
 22 23  2  0
 24 19  1  0
 24 27  1  0
 25 24  2  0
M  END
$$$$
