IKE.pdb
     RDKit          3D

 27 26  0  0  1  0  0  0  0  0999 V2000
    6.8062  -11.5610   27.9277 C   0  0  0  0  0  0  0  0  0  0  0  0
    6.0339  -12.6322   27.1946 C   0  0  0  0  0  0  0  0  0  0  0  0
    7.0044  -13.4046   26.3311 C   0  0  2  0  0  0  0  0  0  0  0  0
    7.6253  -12.4515   25.3335 C   0  0  0  0  0  0  0  0  0  0  0  0
    6.2922  -14.4762   25.5277 C   0  0  2  0  0  0  0  0  0  0  0  0
    5.7726  -15.5169   26.4000 N   0  0  0  0  0  0  0  0  0  0  0  0
    7.1204  -15.0848   24.4819 C   0  0  0  0  0  0  0  0  0  0  0  0
    7.7273  -16.1504   24.6941 O   0  0  0  0  0  0  0  0  0  0  0  0
    7.2288  -14.4571   23.2217 N   0  0  0  0  0  0  0  0  0  0  0  0
    7.9871  -15.0763   22.1239 C   0  0  1  0  0  0  0  0  0  0  0  0
    7.7283  -14.2235   20.8964 C   0  0  0  0  0  0  0  0  0  0  0  0
    8.4062  -14.7636   19.6840 C   0  0  0  0  0  0  0  0  0  0  0  0
    7.9831  -13.8484   18.5246 C   0  0  0  0  0  0  0  0  0  0  0  0
    8.5451  -14.3637   17.2172 C   0  0  0  0  0  0  0  0  0  0  0  0
    8.1268  -13.4331   16.1854 N   0  0  0  0  0  0  0  0  0  0  0  0
    9.3900  -15.1479   22.5260 C   0  0  0  0  0  0  0  0  0  0  0  0
    9.8853  -14.2727   23.2737 O   0  0  0  0  0  0  0  0  0  0  0  0
   10.2078  -16.1979   22.0832 N   0  0  0  0  0  0  0  0  0  0  0  0
   11.4550  -16.5461   22.8141 C   0  0  1  0  0  0  0  0  0  0  0  0
   11.1619  -17.5974   23.7963 C   0  0  0  0  0  0  0  0  0  0  0  0
   11.5906  -17.3439   25.1866 C   0  0  0  0  0  0  0  0  0  0  0  0
   11.3870  -18.4137   26.1764 C   0  0  0  0  0  0  0  0  0  0  0  0
   11.6652  -19.6290   25.9893 O   0  0  0  0  0  0  0  0  0  0  0  0
   12.4581  -16.7874   21.8142 C   0  0  0  0  0  0  0  0  0  0  0  0
   12.1889  -17.2590   20.6893 O   0  0  0  0  0  0  0  0  0  0  0  0
   10.8485  -18.0949   27.4385 O   0  0  0  0  0  0  0  0  0  0  0  0
   13.8276  -16.5122   22.0195 O   0  0  0  0  0  0  0  0  0  0  0  0
  1  2  1  0
  3  2  1  0
  3  4  1  6
  5  6  1  1
  5  3  1  0
  7  5  1  0
  8  7  2  0
  9  7  1  0
 10  9  1  0
 10 11  1  6
 11 12  1  0
 12 13  1  0
 13 14  1  0
 15 14  1  0
 16 18  1  0
 16 10  1  0
 17 16  2  0
 19 18  1  0
 20 21  1  0
 19 20  1  6
 21 22  1  0
 22 26  1  0
 22 23  2  0
 24 19  1  0
 24 27  1  0
 25 24  2  0
M  END
$$$$
