IKE.pdb
     RDKit          3D

 27 26  0  0  1  0  0  0  0  0999 V2000
    9.0379  -11.6186   19.8275 C   0  0  0  0  0  0  0  0  0  0  0  0
    8.0636  -12.7506   19.6020 C   0  0  0  0  0  0  0  0  0  0  0  0
    8.4413  -13.8874   20.5236 C   0  0  2  0  0  0  0  0  0  0  0  0
    9.8358  -14.3534   20.1669 C   0  0  0  0  0  0  0  0  0  0  0  0
    7.5202  -15.0776   20.3338 C   0  0  2  0  0  0  0  0  0  0  0  0
    6.1314  -14.6926   20.5266 N   0  0  0  0  0  0  0  0  0  0  0  0
    7.8351  -16.2177   21.2005 C   0  0  0  0  0  0  0  0  0  0  0  0
    7.6225  -16.1604   22.4253 O   0  0  0  0  0  0  0  0  0  0  0  0
    8.3827  -17.3922   20.6397 N   0  0  0  0  0  0  0  0  0  0  0  0
    8.7319  -18.5476   21.4804 C   0  0  1  0  0  0  0  0  0  0  0  0
    8.1874  -19.7706   20.7670 C   0  0  0  0  0  0  0  0  0  0  0  0
    8.4952  -21.0316   21.4993 C   0  0  0  0  0  0  0  0  0  0  0  0
    7.8054  -22.1542   20.7089 C   0  0  0  0  0  0  0  0  0  0  0  0
    8.0862  -23.4963   21.3498 C   0  0  0  0  0  0  0  0  0  0  0  0
    7.5255  -24.5058   20.4712 N   0  0  0  0  0  0  0  0  0  0  0  0
   10.1811  -18.5512   21.6666 C   0  0  0  0  0  0  0  0  0  0  0  0
   10.9494  -18.7356   20.6939 O   0  0  0  0  0  0  0  0  0  0  0  0
   10.7391  -18.3474   22.9373 N   0  0  0  0  0  0  0  0  0  0  0  0
   12.1826  -18.6074   23.1809 C   0  0  1  0  0  0  0  0  0  0  0  0
   12.8864  -17.3270   23.3260 C   0  0  0  0  0  0  0  0  0  0  0  0
   13.2156  -16.6064   22.0796 C   0  0  0  0  0  0  0  0  0  0  0  0
   14.0226  -15.3804   22.1852 C   0  0  0  0  0  0  0  0  0  0  0  0
   14.4398  -14.8850   23.2667 O   0  0  0  0  0  0  0  0  0  0  0  0
   12.2483  -19.5634   24.2514 C   0  0  0  0  0  0  0  0  0  0  0  0
   11.2642  -19.8406   24.9690 O   0  0  0  0  0  0  0  0  0  0  0  0
   14.3791  -14.6840   21.0136 O   0  0  0  0  0  0  0  0  0  0  0  0
   13.4274  -20.2669   24.5803 O   0  0  0  0  0  0  0  0  0  0  0  0
  1  2  1  0
  3  2  1  0
  3  4  1  6
  5  6  1  1
  5  3  1  0
  7  5  1  0
  8  7  2  0
  9  7  1  0
 10  9  1  0
 10 11  1  6
 11 12  1  0
 12 13  1  0
 13 14  1  0
 15 14  1  0
 16 18  1  0
 16 10  1  0
 17 16  2  0
 19 18  1  0
 20 21  1  0
 19 20  1  1
 21 22  1  0
 22 26  1  0
 22 23  2  0
 24 19  1  0
 24 27  1  0
 25 24  2  0
M  END
$$$$
