IKE.pdb
     RDKit          3D

 27 26  0  0  1  0  0  0  0  0999 V2000
    5.6911  -11.6950   26.9129 C   0  0  0  0  0  0  0  0  0  0  0  0
    6.1750  -12.9919   27.5173 C   0  0  0  0  0  0  0  0  0  0  0  0
    7.1213  -13.6443   26.5359 C   0  0  2  0  0  0  0  0  0  0  0  0
    7.7795  -12.5615   25.7092 C   0  0  0  0  0  0  0  0  0  0  0  0
    6.3750  -14.5418   25.5671 C   0  0  2  0  0  0  0  0  0  0  0  0
    5.7939  -15.6805   26.2598 N   0  0  0  0  0  0  0  0  0  0  0  0
    7.1926  -15.0177   24.4467 C   0  0  0  0  0  0  0  0  0  0  0  0
    7.8951  -16.0383   24.5635 O   0  0  0  0  0  0  0  0  0  0  0  0
    7.1810  -14.3126   23.2234 N   0  0  0  0  0  0  0  0  0  0  0  0
    8.0017  -14.7495   22.0835 C   0  0  1  0  0  0  0  0  0  0  0  0
    7.8020  -13.7118   20.9952 C   0  0  0  0  0  0  0  0  0  0  0  0
    8.7945  -13.8558   19.8929 C   0  0  0  0  0  0  0  0  0  0  0  0
    7.9714  -13.9743   18.6008 C   0  0  0  0  0  0  0  0  0  0  0  0
    8.8800  -14.2567   17.4238 C   0  0  0  0  0  0  0  0  0  0  0  0
    8.0330  -14.3246   16.2474 N   0  0  0  0  0  0  0  0  0  0  0  0
    9.3817  -14.8850   22.5442 C   0  0  0  0  0  0  0  0  0  0  0  0
    9.8755  -14.0489   23.3362 O   0  0  0  0  0  0  0  0  0  0  0  0
   10.1788  -15.9542   22.1092 N   0  0  0  0  0  0  0  0  0  0  0  0
   11.5717  -16.1107   22.6051 C   0  0  1  0  0  0  0  0  0  0  0  0
   11.6041  -17.1596   23.6319 C   0  0  0  0  0  0  0  0  0  0  0  0
   12.9353  -17.5519   24.1372 C   0  0  0  0  0  0  0  0  0  0  0  0
   12.9988  -18.5917   25.1765 C   0  0  0  0  0  0  0  0  0  0  0  0
   12.2366  -19.5940   25.2385 O   0  0  0  0  0  0  0  0  0  0  0  0
   12.4040  -16.2488   21.4421 C   0  0  0  0  0  0  0  0  0  0  0  0
   13.6513  -16.2124   21.4975 O   0  0  0  0  0  0  0  0  0  0  0  0
   13.9722  -18.4976   26.1905 O   0  0  0  0  0  0  0  0  0  0  0  0
   11.8825  -16.4369   20.1436 O   0  0  0  0  0  0  0  0  0  0  0  0
  1  2  1  0
  3  2  1  0
  3  4  1  6
  5  6  1  1
  5  3  1  0
  7  5  1  0
  8  7  2  0
  9  7  1  0
 10  9  1  0
 10 11  1  6
 11 12  1  0
 12 13  1  0
 13 14  1  0
 15 14  1  0
 16 18  1  0
 16 10  1  0
 17 16  2  0
 19 18  1  0
 20 21  1  0
 19 20  1  1
 21 22  1  0
 22 26  1  0
 22 23  2  0
 24 19  1  0
 24 27  1  0
 25 24  2  0
M  END
$$$$
