IKE.pdb
     RDKit          3D

 27 26  0  0  1  0  0  0  0  0999 V2000
    7.2716  -12.4648   28.2256 C   0  0  0  0  0  0  0  0  0  0  0  0
    6.3800  -13.2607   27.3020 C   0  0  0  0  0  0  0  0  0  0  0  0
    7.2614  -14.0529   26.3640 C   0  0  2  0  0  0  0  0  0  0  0  0
    8.0452  -13.0839   25.5062 C   0  0  0  0  0  0  0  0  0  0  0  0
    6.4336  -14.9031   25.4191 C   0  0  2  0  0  0  0  0  0  0  0  0
    5.8001  -16.0008   26.1317 N   0  0  0  0  0  0  0  0  0  0  0  0
    7.1886  -15.4327   24.2791 C   0  0  0  0  0  0  0  0  0  0  0  0
    7.7325  -16.5502   24.3435 O   0  0  0  0  0  0  0  0  0  0  0  0
    7.2977  -14.6686   23.0968 N   0  0  0  0  0  0  0  0  0  0  0  0
    8.1332  -15.1180   21.9726 C   0  0  1  0  0  0  0  0  0  0  0  0
    7.7698  -14.2339   20.7947 C   0  0  0  0  0  0  0  0  0  0  0  0
    8.5780  -14.5516   19.5836 C   0  0  0  0  0  0  0  0  0  0  0  0
    8.0681  -13.6109   18.4809 C   0  0  0  0  0  0  0  0  0  0  0  0
    8.7912  -13.8863   17.1801 C   0  0  0  0  0  0  0  0  0  0  0  0
    8.3943  -12.8445   16.2513 N   0  0  0  0  0  0  0  0  0  0  0  0
    9.5323  -15.0317   22.3848 C   0  0  0  0  0  0  0  0  0  0  0  0
    9.8950  -14.1914   23.2407 O   0  0  0  0  0  0  0  0  0  0  0  0
   10.4949  -15.8884   21.8308 N   0  0  0  0  0  0  0  0  0  0  0  0
   11.6892  -16.2949   22.6176 C   0  0  1  0  0  0  0  0  0  0  0  0
   11.2515  -16.9485   23.8574 C   0  0  0  0  0  0  0  0  0  0  0  0
   12.3098  -17.5175   24.7161 C   0  0  0  0  0  0  0  0  0  0  0  0
   11.9021  -18.1744   25.9683 C   0  0  0  0  0  0  0  0  0  0  0  0
   11.1397  -19.1758   26.0398 O   0  0  0  0  0  0  0  0  0  0  0  0
   12.5445  -17.0150   21.7153 C   0  0  0  0  0  0  0  0  0  0  0  0
   13.7788  -17.1057   21.8843 O   0  0  0  0  0  0  0  0  0  0  0  0
   12.3823  -17.6799   27.1969 O   0  0  0  0  0  0  0  0  0  0  0  0
   12.0622  -17.6782   20.5660 O   0  0  0  0  0  0  0  0  0  0  0  0
  1  2  1  0
  3  2  1  0
  3  4  1  6
  5  6  1  1
  5  3  1  0
  7  5  1  0
  8  7  2  0
  9  7  1  0
 10  9  1  0
 10 11  1  6
 11 12  1  0
 12 13  1  0
 13 14  1  0
 15 14  1  0
 16 18  1  0
 16 10  1  0
 17 16  2  0
 19 18  1  0
 20 21  1  0
 19 20  1  1
 21 22  1  0
 22 26  1  0
 22 23  2  0
 24 19  1  0
 24 27  1  0
 25 24  2  0
M  END
$$$$
