IKE.pdb
     RDKit          3D

 27 26  0  0  1  0  0  0  0  0999 V2000
    9.1801  -12.2844   20.0305 C   0  0  0  0  0  0  0  0  0  0  0  0
    8.7281  -13.4204   20.9174 C   0  0  0  0  0  0  0  0  0  0  0  0
    7.9562  -14.4030   20.0670 C   0  0  2  0  0  0  0  0  0  0  0  0
    6.7222  -13.7106   19.5313 C   0  0  0  0  0  0  0  0  0  0  0  0
    7.4737  -15.5818   20.8908 C   0  0  2  0  0  0  0  0  0  0  0  0
    6.7445  -15.1288   22.0642 N   0  0  0  0  0  0  0  0  0  0  0  0
    8.5429  -16.4963   21.3038 C   0  0  0  0  0  0  0  0  0  0  0  0
    9.0022  -16.4534   22.4597 O   0  0  0  0  0  0  0  0  0  0  0  0
    9.0547  -17.4357   20.3822 N   0  0  0  0  0  0  0  0  0  0  0  0
   10.1476  -18.3486   20.7510 C   0  0  1  0  0  0  0  0  0  0  0  0
   10.0111  -19.5596   19.8478 C   0  0  0  0  0  0  0  0  0  0  0  0
   11.0643  -20.5800   20.1135 C   0  0  0  0  0  0  0  0  0  0  0  0
   10.3641  -21.7166   20.8744 C   0  0  0  0  0  0  0  0  0  0  0  0
   10.9071  -23.0578   20.4306 C   0  0  0  0  0  0  0  0  0  0  0  0
   10.1662  -24.0714   21.1582 N   0  0  0  0  0  0  0  0  0  0  0  0
   11.4095  -17.6261   20.6076 C   0  0  0  0  0  0  0  0  0  0  0  0
   11.4935  -16.6323   19.8489 O   0  0  0  0  0  0  0  0  0  0  0  0
   12.5497  -18.0310   21.3172 N   0  0  0  0  0  0  0  0  0  0  0  0
   13.8171  -17.2600   21.2172 C   0  0  1  0  0  0  0  0  0  0  0  0
   14.3930  -17.1011   22.5584 C   0  0  0  0  0  0  0  0  0  0  0  0
   15.7020  -16.4222   22.6416 C   0  0  0  0  0  0  0  0  0  0  0  0
   16.3612  -16.3553   23.9556 C   0  0  0  0  0  0  0  0  0  0  0  0
   17.1507  -17.2271   24.4093 O   0  0  0  0  0  0  0  0  0  0  0  0
   14.6000  -17.8960   20.1941 C   0  0  0  0  0  0  0  0  0  0  0  0
   14.5233  -19.1184   19.9486 O   0  0  0  0  0  0  0  0  0  0  0  0
   16.1211  -15.2491   24.7943 O   0  0  0  0  0  0  0  0  0  0  0  0
   15.5184  -17.1942   19.3834 O   0  0  0  0  0  0  0  0  0  0  0  0
  1  2  1  0
  3  2  1  0
  3  4  1  1
  5  6  1  1
  5  3  1  0
  7  5  1  0
  8  7  2  0
  9  7  1  0
 10  9  1  0
 10 11  1  6
 11 12  1  0
 12 13  1  0
 13 14  1  0
 15 14  1  0
 16 18  1  0
 16 10  1  0
 17 16  2  0
 19 18  1  0
 20 21  1  0
 19 20  1  1
 21 22  1  0
 22 26  1  0
 22 23  2  0
 24 19  1  0
 24 27  1  0
 25 24  2  0
M  END
$$$$
