IKE.pdb
     RDKit          3D

 27 26  0  0  1  0  0  0  0  0999 V2000
    6.6743  -12.1434   28.0077 C   0  0  0  0  0  0  0  0  0  0  0  0
    5.9488  -13.1294   27.1227 C   0  0  0  0  0  0  0  0  0  0  0  0
    6.9337  -13.6655   26.1094 C   0  0  2  0  0  0  0  0  0  0  0  0
    7.4036  -12.5190   25.2412 C   0  0  0  0  0  0  0  0  0  0  0  0
    6.2772  -14.6736   25.1854 C   0  0  2  0  0  0  0  0  0  0  0  0
    5.8687  -15.8597   25.9206 N   0  0  0  0  0  0  0  0  0  0  0  0
    7.1122  -15.0689   24.0468 C   0  0  0  0  0  0  0  0  0  0  0  0
    7.7556  -16.1339   24.0723 O   0  0  0  0  0  0  0  0  0  0  0  0
    7.1852  -14.2346   22.9099 N   0  0  0  0  0  0  0  0  0  0  0  0
    7.9697  -14.6231   21.7279 C   0  0  1  0  0  0  0  0  0  0  0  0
    7.7798  -13.5145   20.7101 C   0  0  0  0  0  0  0  0  0  0  0  0
    8.7440  -13.6194   19.5787 C   0  0  0  0  0  0  0  0  0  0  0  0
    7.9284  -14.1245   18.3784 C   0  0  0  0  0  0  0  0  0  0  0  0
    8.8102  -14.2338   17.1533 C   0  0  0  0  0  0  0  0  0  0  0  0
    7.9930  -14.8034   16.0982 N   0  0  0  0  0  0  0  0  0  0  0  0
    9.3538  -14.8267   22.1494 C   0  0  0  0  0  0  0  0  0  0  0  0
    9.9200  -14.0005   22.9025 O   0  0  0  0  0  0  0  0  0  0  0  0
   10.0739  -15.9512   21.7197 N   0  0  0  0  0  0  0  0  0  0  0  0
   11.4075  -16.2628   22.2986 C   0  0  1  0  0  0  0  0  0  0  0  0
   11.3088  -17.4821   23.1106 C   0  0  0  0  0  0  0  0  0  0  0  0
   12.5710  -18.0164   23.6605 C   0  0  0  0  0  0  0  0  0  0  0  0
   12.5095  -19.2616   24.4424 C   0  0  0  0  0  0  0  0  0  0  0  0
   11.4553  -19.9115   24.6779 O   0  0  0  0  0  0  0  0  0  0  0  0
   12.3425  -16.2261   21.2083 C   0  0  0  0  0  0  0  0  0  0  0  0
   13.5455  -15.9268   21.3617 O   0  0  0  0  0  0  0  0  0  0  0  0
   13.6952  -19.8005   24.9793 O   0  0  0  0  0  0  0  0  0  0  0  0
   11.9803  -16.5246   19.8768 O   0  0  0  0  0  0  0  0  0  0  0  0
  1  2  1  0
  3  2  1  0
  3  4  1  6
  5  6  1  1
  5  3  1  0
  7  5  1  0
  8  7  2  0
  9  7  1  0
 10  9  1  0
 10 11  1  6
 11 12  1  0
 12 13  1  0
 13 14  1  0
 15 14  1  0
 16 18  1  0
 16 10  1  0
 17 16  2  0
 19 18  1  0
 20 21  1  0
 19 20  1  6
 21 22  1  0
 22 26  1  0
 22 23  2  0
 24 19  1  0
 24 27  1  0
 25 24  2  0
M  END
$$$$
