IKE.pdb
     RDKit          3D

 27 26  0  0  1  0  0  0  0  0999 V2000
    6.6818  -12.0729   28.0545 C   0  0  0  0  0  0  0  0  0  0  0  0
    5.9262  -13.0568   27.1927 C   0  0  0  0  0  0  0  0  0  0  0  0
    6.9020  -13.6750   26.2181 C   0  0  2  0  0  0  0  0  0  0  0  0
    7.4328  -12.5859   25.3119 C   0  0  0  0  0  0  0  0  0  0  0  0
    6.2167  -14.6919   25.3252 C   0  0  2  0  0  0  0  0  0  0  0  0
    5.6738  -15.7878   26.1114 N   0  0  0  0  0  0  0  0  0  0  0  0
    7.0773  -15.2301   24.2670 C   0  0  0  0  0  0  0  0  0  0  0  0
    7.7327  -16.2718   24.4519 O   0  0  0  0  0  0  0  0  0  0  0  0
    7.1615  -14.5616   23.0262 N   0  0  0  0  0  0  0  0  0  0  0  0
    7.9717  -15.1002   21.9230 C   0  0  1  0  0  0  0  0  0  0  0  0
    7.7611  -14.1656   20.7470 C   0  0  0  0  0  0  0  0  0  0  0  0
    8.4999  -14.6148   19.5331 C   0  0  0  0  0  0  0  0  0  0  0  0
    8.0610  -13.6716   18.4024 C   0  0  0  0  0  0  0  0  0  0  0  0
    8.6725  -14.1074   17.0883 C   0  0  0  0  0  0  0  0  0  0  0  0
    8.0794  -13.2790   16.0550 N   0  0  0  0  0  0  0  0  0  0  0  0
    9.3561  -15.1937   22.3811 C   0  0  0  0  0  0  0  0  0  0  0  0
    9.8789  -14.2568   23.0285 O   0  0  0  0  0  0  0  0  0  0  0  0
   10.1248  -16.3341   22.1054 N   0  0  0  0  0  0  0  0  0  0  0  0
   11.4863  -16.4871   22.6830 C   0  0  1  0  0  0  0  0  0  0  0  0
   11.4765  -17.5835   23.6595 C   0  0  0  0  0  0  0  0  0  0  0  0
   12.7748  -17.9446   24.2639 C   0  0  0  0  0  0  0  0  0  0  0  0
   12.8050  -19.0723   25.2089 C   0  0  0  0  0  0  0  0  0  0  0  0
   11.7932  -19.7251   25.5821 O   0  0  0  0  0  0  0  0  0  0  0  0
   12.3943  -16.5528   21.5715 C   0  0  0  0  0  0  0  0  0  0  0  0
   12.0398  -16.9236   20.4326 O   0  0  0  0  0  0  0  0  0  0  0  0
   14.0367  -19.4849   25.7542 O   0  0  0  0  0  0  0  0  0  0  0  0
   13.7587  -16.2045   21.6738 O   0  0  0  0  0  0  0  0  0  0  0  0
  1  2  1  0
  3  2  1  0
  3  4  1  6
  5  6  1  1
  5  3  1  0
  7  5  1  0
  8  7  2  0
  9  7  1  0
 10  9  1  0
 10 11  1  6
 11 12  1  0
 12 13  1  0
 13 14  1  0
 15 14  1  0
 16 18  1  0
 16 10  1  0
 17 16  2  0
 19 18  1  0
 20 21  1  0
 19 20  1  6
 21 22  1  0
 22 26  1  0
 22 23  2  0
 24 19  1  0
 24 27  1  0
 25 24  2  0
M  END
$$$$
