IKE.pdb
     RDKit          3D

 27 26  0  0  1  0  0  0  0  0999 V2000
    7.1874  -11.9013   28.1633 C   0  0  0  0  0  0  0  0  0  0  0  0
    6.3107  -12.8049   27.3288 C   0  0  0  0  0  0  0  0  0  0  0  0
    7.2026  -13.6112   26.4131 C   0  0  2  0  0  0  0  0  0  0  0  0
    7.9253  -12.6600   25.4846 C   0  0  0  0  0  0  0  0  0  0  0  0
    6.3895  -14.5449   25.5367 C   0  0  2  0  0  0  0  0  0  0  0  0
    5.7613  -15.5862   26.3337 N   0  0  0  0  0  0  0  0  0  0  0  0
    7.1574  -15.1594   24.4491 C   0  0  0  0  0  0  0  0  0  0  0  0
    7.7865  -16.2167   24.6363 O   0  0  0  0  0  0  0  0  0  0  0  0
    7.1816  -14.5469   23.1771 N   0  0  0  0  0  0  0  0  0  0  0  0
    8.0126  -15.0828   22.0881 C   0  0  1  0  0  0  0  0  0  0  0  0
    7.7221  -14.2246   20.8716 C   0  0  0  0  0  0  0  0  0  0  0  0
    8.5125  -14.6503   19.6821 C   0  0  0  0  0  0  0  0  0  0  0  0
    8.0661  -13.7339   18.5324 C   0  0  0  0  0  0  0  0  0  0  0  0
    8.7066  -14.1720   17.2330 C   0  0  0  0  0  0  0  0  0  0  0  0
    8.1210  -13.3601   16.1825 N   0  0  0  0  0  0  0  0  0  0  0  0
    9.4060  -15.0582   22.5271 C   0  0  0  0  0  0  0  0  0  0  0  0
    9.9273  -13.9952   22.9377 O   0  0  0  0  0  0  0  0  0  0  0  0
   10.1854  -16.2240   22.4980 N   0  0  0  0  0  0  0  0  0  0  0  0
   11.6010  -16.1998   22.9522 C   0  0  1  0  0  0  0  0  0  0  0  0
   11.6736  -16.6917   24.3337 C   0  0  0  0  0  0  0  0  0  0  0  0
   11.2527  -18.0886   24.5630 C   0  0  0  0  0  0  0  0  0  0  0  0
   11.3278  -18.6144   25.9354 C   0  0  0  0  0  0  0  0  0  0  0  0
   12.3212  -18.4869   26.7010 O   0  0  0  0  0  0  0  0  0  0  0  0
   12.3657  -16.8664   21.9347 C   0  0  0  0  0  0  0  0  0  0  0  0
   11.8347  -17.4567   20.9705 O   0  0  0  0  0  0  0  0  0  0  0  0
   10.2271  -19.3127   26.4698 O   0  0  0  0  0  0  0  0  0  0  0  0
   13.7769  -16.9091   21.9402 O   0  0  0  0  0  0  0  0  0  0  0  0
  1  2  1  0
  3  2  1  0
  3  4  1  6
  5  6  1  1
  5  3  1  0
  7  5  1  0
  8  7  2  0
  9  7  1  0
 10  9  1  0
 10 11  1  6
 11 12  1  0
 12 13  1  0
 13 14  1  0
 15 14  1  0
 16 18  1  0
 16 10  1  0
 17 16  2  0
 19 18  1  0
 20 21  1  0
 19 20  1  1
 21 22  1  0
 22 26  1  0
 22 23  2  0
 24 19  1  0
 24 27  1  0
 25 24  2  0
M  END
$$$$
