IKE.pdb
     RDKit          3D

 27 26  0  0  1  0  0  0  0  0999 V2000
    6.8402  -11.8442   27.9800 C   0  0  0  0  0  0  0  0  0  0  0  0
    6.0946  -12.8702   27.1598 C   0  0  0  0  0  0  0  0  0  0  0  0
    7.0602  -13.4671   26.1620 C   0  0  2  0  0  0  0  0  0  0  0  0
    7.5908  -12.3567   25.2819 C   0  0  0  0  0  0  0  0  0  0  0  0
    6.3630  -14.4557   25.2467 C   0  0  2  0  0  0  0  0  0  0  0  0
    5.9419  -15.6355   25.9847 N   0  0  0  0  0  0  0  0  0  0  0  0
    7.1666  -14.8646   24.0903 C   0  0  0  0  0  0  0  0  0  0  0  0
    7.8786  -15.8839   24.1421 O   0  0  0  0  0  0  0  0  0  0  0  0
    7.1305  -14.0958   22.9065 N   0  0  0  0  0  0  0  0  0  0  0  0
    7.9033  -14.4886   21.7182 C   0  0  1  0  0  0  0  0  0  0  0  0
    7.7622  -13.3502   20.7256 C   0  0  0  0  0  0  0  0  0  0  0  0
    8.6717  -13.5091   19.5557 C   0  0  0  0  0  0  0  0  0  0  0  0
    7.8965  -14.3553   18.5341 C   0  0  0  0  0  0  0  0  0  0  0  0
    8.7418  -14.5948   17.3017 C   0  0  0  0  0  0  0  0  0  0  0  0
    7.9187  -15.3398   16.3673 N   0  0  0  0  0  0  0  0  0  0  0  0
    9.2764  -14.7577   22.1390 C   0  0  0  0  0  0  0  0  0  0  0  0
    9.8902  -13.9469   22.8712 O   0  0  0  0  0  0  0  0  0  0  0  0
    9.9323  -15.9288   21.7319 N   0  0  0  0  0  0  0  0  0  0  0  0
   11.2751  -16.2709   22.2712 C   0  0  1  0  0  0  0  0  0  0  0  0
   11.1663  -17.4674   23.1151 C   0  0  0  0  0  0  0  0  0  0  0  0
   12.4322  -18.0557   23.5975 C   0  0  0  0  0  0  0  0  0  0  0  0
   12.3627  -19.3193   24.3485 C   0  0  0  0  0  0  0  0  0  0  0  0
   11.3493  -19.7269   24.9780 O   0  0  0  0  0  0  0  0  0  0  0  0
   12.1712  -16.2900   21.1482 C   0  0  0  0  0  0  0  0  0  0  0  0
   11.7896  -16.5402   19.9855 O   0  0  0  0  0  0  0  0  0  0  0  0
   13.4891  -20.1645   24.3860 O   0  0  0  0  0  0  0  0  0  0  0  0
   13.5535  -16.0280   21.2654 O   0  0  0  0  0  0  0  0  0  0  0  0
  1  2  1  0
  3  2  1  0
  3  4  1  6
  5  6  1  1
  5  3  1  0
  7  5  1  0
  8  7  2  0
  9  7  1  0
 10  9  1  0
 10 11  1  6
 11 12  1  0
 12 13  1  0
 13 14  1  0
 15 14  1  0
 16 18  1  0
 16 10  1  0
 17 16  2  0
 19 18  1  0
 20 21  1  0
 19 20  1  6
 21 22  1  0
 22 26  1  0
 22 23  2  0
 24 19  1  0
 24 27  1  0
 25 24  2  0
M  END
$$$$
