IKE.pdb
     RDKit          3D

 27 26  0  0  1  0  0  0  0  0999 V2000
    6.7468  -11.8098   28.0521 C   0  0  0  0  0  0  0  0  0  0  0  0
    5.9880  -12.7447   27.1401 C   0  0  0  0  0  0  0  0  0  0  0  0
    6.9917  -13.4991   26.2989 C   0  0  2  0  0  0  0  0  0  0  0  0
    7.7342  -12.5074   25.4303 C   0  0  0  0  0  0  0  0  0  0  0  0
    6.3018  -14.4716   25.3611 C   0  0  2  0  0  0  0  0  0  0  0  0
    5.6276  -15.5208   26.1086 N   0  0  0  0  0  0  0  0  0  0  0  0
    7.1957  -15.0768   24.3688 C   0  0  0  0  0  0  0  0  0  0  0  0
    7.7919  -16.1404   24.6182 O   0  0  0  0  0  0  0  0  0  0  0  0
    7.3802  -14.4482   23.1180 N   0  0  0  0  0  0  0  0  0  0  0  0
    8.2708  -15.0243   22.0988 C   0  0  1  0  0  0  0  0  0  0  0  0
    8.2599  -14.0566   20.9307 C   0  0  0  0  0  0  0  0  0  0  0  0
    8.6801  -14.7078   19.6578 C   0  0  0  0  0  0  0  0  0  0  0  0
    8.4984  -13.6448   18.5633 C   0  0  0  0  0  0  0  0  0  0  0  0
    8.8150  -14.2312   17.2044 C   0  0  0  0  0  0  0  0  0  0  0  0
    8.3710  -13.2648   16.2172 N   0  0  0  0  0  0  0  0  0  0  0  0
    9.5845  -15.2248   22.7060 C   0  0  0  0  0  0  0  0  0  0  0  0
   10.1456  -14.2973   23.3346 O   0  0  0  0  0  0  0  0  0  0  0  0
   10.2414  -16.4594   22.5973 N   0  0  0  0  0  0  0  0  0  0  0  0
   11.6146  -16.6367   23.1392 C   0  0  1  0  0  0  0  0  0  0  0  0
   11.6540  -17.8472   23.9691 C   0  0  0  0  0  0  0  0  0  0  0  0
   11.7177  -17.6469   25.4310 C   0  0  0  0  0  0  0  0  0  0  0  0
   11.9073  -18.8329   26.2813 C   0  0  0  0  0  0  0  0  0  0  0  0
   10.9778  -19.4627   26.8546 O   0  0  0  0  0  0  0  0  0  0  0  0
   12.5098  -16.5300   22.0205 C   0  0  0  0  0  0  0  0  0  0  0  0
   12.1323  -16.6755   20.8387 O   0  0  0  0  0  0  0  0  0  0  0  0
   13.2074  -19.3338   26.4897 O   0  0  0  0  0  0  0  0  0  0  0  0
   13.8867  -16.2525   22.1635 O   0  0  0  0  0  0  0  0  0  0  0  0
  1  2  1  0
  3  2  1  0
  3  4  1  6
  5  6  1  1
  5  3  1  0
  7  5  1  0
  8  7  2  0
  9  7  1  0
 10  9  1  0
 10 11  1  6
 11 12  1  0
 12 13  1  0
 13 14  1  0
 15 14  1  0
 16 18  1  0
 16 10  1  0
 17 16  2  0
 19 18  1  0
 20 21  1  0
 19 20  1  6
 21 22  1  0
 22 26  1  0
 22 23  2  0
 24 19  1  0
 24 27  1  0
 25 24  2  0
M  END
$$$$
