IKE.pdb
     RDKit          3D

 27 26  0  0  1  0  0  0  0  0999 V2000
    6.6514  -11.2652   27.0783 C   0  0  0  0  0  0  0  0  0  0  0  0
    6.2911  -11.8466   25.7315 C   0  0  0  0  0  0  0  0  0  0  0  0
    7.1346  -13.0811   25.5110 C   0  0  2  0  0  0  0  0  0  0  0  0
    8.0030  -12.8595   24.2919 C   0  0  0  0  0  0  0  0  0  0  0  0
    6.2696  -14.2922   25.2178 C   0  0  2  0  0  0  0  0  0  0  0  0
    5.2821  -14.4885   26.2667 N   0  0  0  0  0  0  0  0  0  0  0  0
    7.0281  -15.5320   25.0236 C   0  0  0  0  0  0  0  0  0  0  0  0
    7.4245  -16.1921   26.0013 O   0  0  0  0  0  0  0  0  0  0  0  0
    7.3095  -15.9822   23.7152 N   0  0  0  0  0  0  0  0  0  0  0  0
    7.9519  -17.2840   23.4782 C   0  0  1  0  0  0  0  0  0  0  0  0
    7.5569  -17.7021   22.0745 C   0  0  0  0  0  0  0  0  0  0  0  0
    6.4916  -18.7443   22.0776 C   0  0  0  0  0  0  0  0  0  0  0  0
    5.9404  -18.7844   20.6439 C   0  0  0  0  0  0  0  0  0  0  0  0
    6.9197  -19.4817   19.7244 C   0  0  0  0  0  0  0  0  0  0  0  0
    6.3101  -19.5114   18.4080 N   0  0  0  0  0  0  0  0  0  0  0  0
    9.3901  -17.1231   23.6793 C   0  0  0  0  0  0  0  0  0  0  0  0
    9.9740  -16.0788   23.3067 O   0  0  0  0  0  0  0  0  0  0  0  0
   10.1435  -18.1341   24.2941 N   0  0  0  0  0  0  0  0  0  0  0  0
   11.6139  -17.9881   24.4595 C   0  0  1  0  0  0  0  0  0  0  0  0
   11.9989  -16.6036   24.1583 C   0  0  0  0  0  0  0  0  0  0  0  0
   13.3547  -16.1879   24.5708 C   0  0  0  0  0  0  0  0  0  0  0  0
   14.3581  -15.9670   23.5173 C   0  0  0  0  0  0  0  0  0  0  0  0
   15.4198  -16.6337   23.3842 O   0  0  0  0  0  0  0  0  0  0  0  0
   11.9340  -18.5350   25.7490 C   0  0  0  0  0  0  0  0  0  0  0  0
   11.1428  -18.4924   26.7146 O   0  0  0  0  0  0  0  0  0  0  0  0
   14.1501  -14.9484   22.5666 O   0  0  0  0  0  0  0  0  0  0  0  0
   13.1660  -19.1644   26.0310 O   0  0  0  0  0  0  0  0  0  0  0  0
  1  2  1  0
  3  2  1  0
  3  4  1  6
  5  6  1  1
  5  3  1  0
  7  5  1  0
  8  7  2  0
  9  7  1  0
 10  9  1  0
 10 11  1  6
 11 12  1  0
 12 13  1  0
 13 14  1  0
 15 14  1  0
 16 18  1  0
 16 10  1  0
 17 16  2  0
 19 18  1  0
 20 21  1  0
 19 20  1  1
 21 22  1  0
 22 26  1  0
 22 23  2  0
 24 19  1  0
 24 27  1  0
 25 24  2  0
M  END
$$$$
