MWH.pdb
     RDKit          3D

 33 35  0  0  1  0  0  0  0  0999 V2000
    7.5586  -11.4478   19.9654 C   0  0  0  0  0  0  0  0  0  0  0  0
    7.3260  -12.7798   18.8061 S   0  0  0  0  0  0  0  0  0  0  0  0
    7.6447  -14.4221   19.4147 C   0  0  0  0  0  0  0  0  0  0  0  0
    8.5448  -14.5195   20.6140 C   0  0  0  0  0  0  0  0  0  0  0  0
    8.7696  -15.9252   21.0335 C   0  0  2  0  0  0  0  0  0  0  0  0
    7.4860  -16.6052   21.0269 N   0  0  0  0  0  0  0  0  0  0  0  0
    9.4096  -16.0244   22.3808 C   0  0  0  0  0  0  0  0  0  0  0  0
   10.5710  -15.6176   22.5990 O   0  0  0  0  0  0  0  0  0  0  0  0
    8.7023  -16.6000   23.4943 N   0  0  0  0  0  0  0  0  0  0  0  0
    9.2718  -16.6956   24.8258 C   0  0  1  0  0  0  0  0  0  0  0  0
    8.2734  -16.6637   25.9112 C   0  0  0  0  0  0  0  0  0  0  0  0
    7.2246  -15.6524   25.8398 C   0  0  0  0  0  0  0  0  0  0  0  0
    5.9171  -15.6775   25.4567 C   0  0  0  0  0  0  0  0  0  0  0  0
    5.3542  -14.4617   25.5809 N   0  0  0  0  0  0  0  0  0  0  0  0
    6.2958  -13.6261   26.0497 C   0  0  0  0  0  0  0  0  0  0  0  0
    6.2704  -12.2671   26.3629 C   0  0  0  0  0  0  0  0  0  0  0  0
    7.4211  -11.6609   26.8381 C   0  0  0  0  0  0  0  0  0  0  0  0
    8.5966  -12.3504   27.0147 C   0  0  0  0  0  0  0  0  0  0  0  0
    8.5988  -13.7002   26.6970 C   0  0  0  0  0  0  0  0  0  0  0  0
    7.4679  -14.3273   26.2225 C   0  0  0  0  0  0  0  0  0  0  0  0
   10.1746  -17.8778   24.8739 C   0  0  0  0  0  0  0  0  0  0  0  0
   10.0621  -18.7783   23.9691 O   0  0  0  0  0  0  0  0  0  0  0  0
   11.1495  -18.0425   25.8809 N   0  0  0  0  0  0  0  0  0  0  0  0
   11.9723  -19.2473   25.8344 C   0  0  1  0  0  0  0  0  0  0  0  0
   13.0787  -19.1131   24.8390 C   0  0  0  0  0  0  0  0  0  0  0  0
   13.9230  -20.3220   24.8649 C   0  0  0  0  0  0  0  0  0  0  0  0
   13.9118  -21.2422   23.8256 C   0  0  0  0  0  0  0  0  0  0  0  0
   14.7630  -22.2281   24.1178 N   0  0  0  0  0  0  0  0  0  0  0  0
   15.3084  -21.9495   25.3150 C   0  0  0  0  0  0  0  0  0  0  0  0
   14.7964  -20.7872   25.7710 N   0  0  0  0  0  0  0  0  0  0  0  0
   12.5425  -19.4318   27.1851 C   0  0  0  0  0  0  0  0  0  0  0  0
   12.3111  -18.5432   28.0668 O   0  0  0  0  0  0  0  0  0  0  0  0
   13.3117  -20.5342   27.5142 O   0  0  0  0  0  0  0  0  0  0  0  0
  2  1  1  0
  3  2  1  0
  4  3  1  0
  5  4  1  0
  5  6  1  1
  7  8  2  0
  7  5  1  0
  9  7  1  0
 10 11  1  1
 10  9  1  0
 12 11  1  0
 12 20  1  0
 13 14  1  0
 13 12  2  0
 14 15  1  0
 15 20  2  0
 15 16  1  0
 16 17  2  0
 17 18  1  0
 19 18  2  0
 20 19  1  0
 21 10  1  0
 21 22  2  0
 23 21  1  0
 24 23  1  0
 24 25  1  6
 25 26  1  0
 26 27  2  0
 26 30  1  0
 27 28  1  0
 28 29  1  0
 30 29  2  0
 31 24  1  0
 32 31  2  0
 33 31  1  0
M  END
$$$$
