MWH.pdb
     RDKit          3D

 33 35  0  0  1  0  0  0  0  0999 V2000
    8.6751  -12.0374   18.6808 C   0  0  0  0  0  0  0  0  0  0  0  0
    7.1633  -12.9317   18.9758 S   0  0  0  0  0  0  0  0  0  0  0  0
    7.3320  -14.5623   19.6700 C   0  0  0  0  0  0  0  0  0  0  0  0
    7.8851  -14.6327   21.0654 C   0  0  0  0  0  0  0  0  0  0  0  0
    8.7173  -15.8429   21.2781 C   0  0  2  0  0  0  0  0  0  0  0  0
    7.8246  -16.9769   21.4430 N   0  0  0  0  0  0  0  0  0  0  0  0
    9.6247  -15.7126   22.4590 C   0  0  0  0  0  0  0  0  0  0  0  0
   10.7211  -15.1163   22.3949 O   0  0  0  0  0  0  0  0  0  0  0  0
    9.2646  -16.2766   23.7332 N   0  0  0  0  0  0  0  0  0  0  0  0
   10.0862  -16.1304   24.9207 C   0  0  1  0  0  0  0  0  0  0  0  0
    9.5819  -15.1320   25.8823 C   0  0  0  0  0  0  0  0  0  0  0  0
    8.1486  -14.8613   25.8916 C   0  0  0  0  0  0  0  0  0  0  0  0
    7.0426  -15.6389   25.7217 C   0  0  0  0  0  0  0  0  0  0  0  0
    5.9177  -14.9085   25.8301 N   0  0  0  0  0  0  0  0  0  0  0  0
    6.2819  -13.6387   26.0737 C   0  0  0  0  0  0  0  0  0  0  0  0
    5.5415  -12.4733   26.2719 C   0  0  0  0  0  0  0  0  0  0  0  0
    6.2061  -11.2817   26.5083 C   0  0  0  0  0  0  0  0  0  0  0  0
    7.5770  -11.2009   26.5557 C   0  0  0  0  0  0  0  0  0  0  0  0
    8.2928  -12.3717   26.3560 C   0  0  0  0  0  0  0  0  0  0  0  0
    7.6561  -13.5700   26.1189 C   0  0  0  0  0  0  0  0  0  0  0  0
   10.3102  -17.4769   25.5137 C   0  0  0  0  0  0  0  0  0  0  0  0
    9.3364  -18.3095   25.5413 O   0  0  0  0  0  0  0  0  0  0  0  0
   11.5565  -17.8688   26.0473 N   0  0  0  0  0  0  0  0  0  0  0  0
   11.6624  -19.2170   26.5969 C   0  0  1  0  0  0  0  0  0  0  0  0
   13.0792  -19.6917   26.6060 C   0  0  0  0  0  0  0  0  0  0  0  0
   13.5737  -19.8143   25.2220 C   0  0  0  0  0  0  0  0  0  0  0  0
   12.7083  -19.8295   24.1367 C   0  0  0  0  0  0  0  0  0  0  0  0
   13.4267  -19.9527   23.0183 N   0  0  0  0  0  0  0  0  0  0  0  0
   14.7218  -20.0151   23.3749 C   0  0  0  0  0  0  0  0  0  0  0  0
   14.8119  -19.9308   24.7187 N   0  0  0  0  0  0  0  0  0  0  0  0
   11.1519  -19.1584   27.9825 C   0  0  0  0  0  0  0  0  0  0  0  0
   10.7220  -18.0442   28.4230 O   0  0  0  0  0  0  0  0  0  0  0  0
   11.1274  -20.2715   28.8046 O   0  0  0  0  0  0  0  0  0  0  0  0
  2  1  1  0
  3  2  1  0
  4  3  1  0
  5  4  1  0
  5  6  1  1
  7  8  2  0
  7  5  1  0
  9  7  1  0
 10 11  1  1
 10  9  1  0
 12 11  1  0
 12 20  1  0
 13 14  1  0
 13 12  2  0
 14 15  1  0
 15 20  2  0
 15 16  1  0
 16 17  2  0
 17 18  1  0
 19 18  2  0
 20 19  1  0
 21 10  1  0
 21 22  2  0
 23 21  1  0
 24 23  1  0
 24 25  1  1
 25 26  1  0
 26 27  2  0
 26 30  1  0
 27 28  1  0
 28 29  1  0
 30 29  2  0
 31 24  1  0
 32 31  2  0
 33 31  1  0
M  END
$$$$
