MWH.pdb
     RDKit          3D

 33 35  0  0  1  0  0  0  0  0999 V2000
    9.1821  -18.4226   17.0667 C   0  0  0  0  0  0  0  0  0  0  0  0
    7.5000  -17.8576   16.9132 S   0  0  0  0  0  0  0  0  0  0  0  0
    6.9553  -16.6610   18.1136 C   0  0  0  0  0  0  0  0  0  0  0  0
    7.8854  -16.4115   19.2671 C   0  0  0  0  0  0  0  0  0  0  0  0
    7.3468  -15.4030   20.2134 C   0  0  2  0  0  0  0  0  0  0  0  0
    7.1804  -14.1542   19.4902 N   0  0  0  0  0  0  0  0  0  0  0  0
    8.2297  -15.2071   21.4038 C   0  0  0  0  0  0  0  0  0  0  0  0
    9.1718  -14.3859   21.4073 O   0  0  0  0  0  0  0  0  0  0  0  0
    8.0249  -15.9672   22.6087 N   0  0  0  0  0  0  0  0  0  0  0  0
    8.8689  -15.8287   23.7813 C   0  0  1  0  0  0  0  0  0  0  0  0
    8.1670  -16.0575   25.0584 C   0  0  0  0  0  0  0  0  0  0  0  0
    7.0558  -15.1729   25.3907 C   0  0  0  0  0  0  0  0  0  0  0  0
    5.7012  -15.3211   25.3880 C   0  0  0  0  0  0  0  0  0  0  0  0
    5.0912  -14.1922   25.7928 N   0  0  0  0  0  0  0  0  0  0  0  0
    6.0489  -13.2905   26.0655 C   0  0  0  0  0  0  0  0  0  0  0  0
    5.9930  -11.9714   26.5157 C   0  0  0  0  0  0  0  0  0  0  0  0
    7.1725  -11.2731   26.7117 C   0  0  0  0  0  0  0  0  0  0  0  0
    8.4059  -11.8322   26.4786 C   0  0  0  0  0  0  0  0  0  0  0  0
    8.4377  -13.1445   26.0316 C   0  0  0  0  0  0  0  0  0  0  0  0
    7.2791  -13.8614   25.8285 C   0  0  0  0  0  0  0  0  0  0  0  0
   10.0789  -16.6759   23.6000 C   0  0  0  0  0  0  0  0  0  0  0  0
    9.9763  -17.7648   22.9320 O   0  0  0  0  0  0  0  0  0  0  0  0
   11.3349  -16.3231   24.1382 N   0  0  0  0  0  0  0  0  0  0  0  0
   12.4538  -17.2277   23.8922 C   0  0  1  0  0  0  0  0  0  0  0  0
   13.6570  -16.4864   23.4069 C   0  0  0  0  0  0  0  0  0  0  0  0
   14.7449  -17.4379   23.1131 C   0  0  0  0  0  0  0  0  0  0  0  0
   14.4869  -18.7199   22.6475 C   0  0  0  0  0  0  0  0  0  0  0  0
   15.6488  -19.3536   22.4732 N   0  0  0  0  0  0  0  0  0  0  0  0
   16.6298  -18.5009   22.8179 C   0  0  0  0  0  0  0  0  0  0  0  0
   16.0790  -17.3324   23.2082 N   0  0  0  0  0  0  0  0  0  0  0  0
   12.7648  -17.8874   25.1775 C   0  0  0  0  0  0  0  0  0  0  0  0
   12.1703  -17.4800   26.2268 O   0  0  0  0  0  0  0  0  0  0  0  0
   13.6742  -18.9265   25.2694 O   0  0  0  0  0  0  0  0  0  0  0  0
  2  1  1  0
  3  2  1  0
  4  3  1  0
  5  4  1  0
  5  6  1  6
  7  8  2  0
  7  5  1  0
  9  7  1  0
 10 11  1  1
 10  9  1  0
 12 11  1  0
 12 20  1  0
 13 14  1  0
 13 12  2  0
 14 15  1  0
 15 20  2  0
 15 16  1  0
 16 17  2  0
 17 18  1  0
 19 18  2  0
 20 19  1  0
 21 10  1  0
 21 22  2  0
 23 21  1  0
 24 23  1  0
 24 25  1  1
 25 26  1  0
 26 27  2  0
 26 30  1  0
 27 28  1  0
 28 29  1  0
 30 29  2  0
 31 24  1  0
 32 31  2  0
 33 31  1  0
M  END
$$$$
