MWH.pdb
     RDKit          3D

 33 35  0  0  1  0  0  0  0  0999 V2000
    8.1256  -11.4546   20.3519 C   0  0  0  0  0  0  0  0  0  0  0  0
    8.6212  -12.9902   19.5977 S   0  0  0  0  0  0  0  0  0  0  0  0
    8.4416  -14.4544   20.5942 C   0  0  0  0  0  0  0  0  0  0  0  0
    8.8933  -15.7419   19.9646 C   0  0  0  0  0  0  0  0  0  0  0  0
    8.8843  -16.8705   20.9283 C   0  0  2  0  0  0  0  0  0  0  0  0
    7.5180  -17.0590   21.3844 N   0  0  0  0  0  0  0  0  0  0  0  0
    9.7981  -16.6390   22.0885 C   0  0  0  0  0  0  0  0  0  0  0  0
   11.0261  -16.4573   21.9442 O   0  0  0  0  0  0  0  0  0  0  0  0
    9.2911  -16.6157   23.4353 N   0  0  0  0  0  0  0  0  0  0  0  0
   10.1122  -16.2703   24.5811 C   0  0  1  0  0  0  0  0  0  0  0  0
    9.6650  -15.0623   25.2999 C   0  0  0  0  0  0  0  0  0  0  0  0
    8.2352  -14.9073   25.5436 C   0  0  0  0  0  0  0  0  0  0  0  0
    7.1723  -15.7578   25.4837 C   0  0  0  0  0  0  0  0  0  0  0  0
    6.0302  -15.1273   25.8133 N   0  0  0  0  0  0  0  0  0  0  0  0
    6.3396  -13.8505   26.0936 C   0  0  0  0  0  0  0  0  0  0  0  0
    5.5604  -12.7623   26.4866 C   0  0  0  0  0  0  0  0  0  0  0  0
    6.1701  -11.5391   26.7090 C   0  0  0  0  0  0  0  0  0  0  0  0
    7.5230  -11.3530   26.5567 C   0  0  0  0  0  0  0  0  0  0  0  0
    8.2780  -12.4484   26.1655 C   0  0  0  0  0  0  0  0  0  0  0  0
    7.6963  -13.6761   25.9377 C   0  0  0  0  0  0  0  0  0  0  0  0
   10.2475  -17.4713   25.4495 C   0  0  0  0  0  0  0  0  0  0  0  0
    9.2517  -18.2707   25.5577 O   0  0  0  0  0  0  0  0  0  0  0  0
   11.4330  -17.7604   26.1585 N   0  0  0  0  0  0  0  0  0  0  0  0
   11.4405  -18.9487   27.0064 C   0  0  1  0  0  0  0  0  0  0  0  0
   12.6912  -19.7443   26.8177 C   0  0  0  0  0  0  0  0  0  0  0  0
   12.6112  -20.5097   25.5596 C   0  0  0  0  0  0  0  0  0  0  0  0
   11.8789  -21.6853   25.4661 C   0  0  0  0  0  0  0  0  0  0  0  0
   11.9875  -22.1592   24.2229 N   0  0  0  0  0  0  0  0  0  0  0  0
   12.7698  -21.3100   23.5336 C   0  0  0  0  0  0  0  0  0  0  0  0
   13.1504  -20.3039   24.3485 N   0  0  0  0  0  0  0  0  0  0  0  0
   11.3593  -18.4799   28.4054 C   0  0  0  0  0  0  0  0  0  0  0  0
   11.3129  -17.2264   28.6225 O   0  0  0  0  0  0  0  0  0  0  0  0
   11.3308  -19.3582   29.4746 O   0  0  0  0  0  0  0  0  0  0  0  0
  2  1  1  0
  3  2  1  0
  4  3  1  0
  5  4  1  0
  5  6  1  1
  7  8  2  0
  7  5  1  0
  9  7  1  0
 10 11  1  1
 10  9  1  0
 12 11  1  0
 12 20  1  0
 13 14  1  0
 13 12  2  0
 14 15  1  0
 15 20  2  0
 15 16  1  0
 16 17  2  0
 17 18  1  0
 19 18  2  0
 20 19  1  0
 21 10  1  0
 21 22  2  0
 23 21  1  0
 24 23  1  0
 24 25  1  1
 25 26  1  0
 26 27  2  0
 26 30  1  0
 27 28  1  0
 28 29  1  0
 30 29  2  0
 31 24  1  0
 32 31  2  0
 33 31  1  0
M  END
$$$$
