MWH.pdb
     RDKit          3D

 33 35  0  0  1  0  0  0  0  0999 V2000
    7.3979  -11.6363   19.8424 C   0  0  0  0  0  0  0  0  0  0  0  0
    6.7226  -13.1260   19.1373 S   0  0  0  0  0  0  0  0  0  0  0  0
    7.4646  -14.6564   19.6631 C   0  0  0  0  0  0  0  0  0  0  0  0
    8.2511  -14.6044   20.9423 C   0  0  0  0  0  0  0  0  0  0  0  0
    8.8119  -15.9284   21.3097 C   0  0  2  0  0  0  0  0  0  0  0  0
    7.7332  -16.9002   21.2633 N   0  0  0  0  0  0  0  0  0  0  0  0
    9.4557  -15.9223   22.6589 C   0  0  0  0  0  0  0  0  0  0  0  0
   10.4093  -15.1647   22.9393 O   0  0  0  0  0  0  0  0  0  0  0  0
    8.9948  -16.8009   23.7015 N   0  0  0  0  0  0  0  0  0  0  0  0
    9.5287  -16.7714   25.0508 C   0  0  1  0  0  0  0  0  0  0  0  0
    8.5043  -16.6120   26.1001 C   0  0  0  0  0  0  0  0  0  0  0  0
    7.3843  -15.7186   25.8258 C   0  0  0  0  0  0  0  0  0  0  0  0
    6.1287  -15.9073   25.3310 C   0  0  0  0  0  0  0  0  0  0  0  0
    5.4532  -14.7451   25.2723 N   0  0  0  0  0  0  0  0  0  0  0  0
    6.2674  -13.7804   25.7317 C   0  0  0  0  0  0  0  0  0  0  0  0
    6.0933  -12.4059   25.8933 C   0  0  0  0  0  0  0  0  0  0  0  0
    7.1340  -11.6476   26.4026 C   0  0  0  0  0  0  0  0  0  0  0  0
    8.3412  -12.1997   26.7580 C   0  0  0  0  0  0  0  0  0  0  0  0
    8.4920  -13.5678   26.5888 C   0  0  0  0  0  0  0  0  0  0  0  0
    7.4726  -14.3448   26.0842 C   0  0  0  0  0  0  0  0  0  0  0  0
   10.4057  -17.9585   25.2421 C   0  0  0  0  0  0  0  0  0  0  0  0
    9.8992  -19.1283   25.1106 O   0  0  0  0  0  0  0  0  0  0  0  0
   11.7748  -17.8415   25.5639 N   0  0  0  0  0  0  0  0  0  0  0  0
   12.5080  -19.0697   25.8546 C   0  0  1  0  0  0  0  0  0  0  0  0
   13.9523  -18.9401   25.4942 C   0  0  0  0  0  0  0  0  0  0  0  0
   14.0807  -18.5567   24.0760 C   0  0  0  0  0  0  0  0  0  0  0  0
   13.3034  -19.1454   23.0879 C   0  0  0  0  0  0  0  0  0  0  0  0
   13.6330  -18.6116   21.9095 N   0  0  0  0  0  0  0  0  0  0  0  0
   14.5981  -17.7023   22.1336 C   0  0  0  0  0  0  0  0  0  0  0  0
   14.8714  -17.6685   23.4547 N   0  0  0  0  0  0  0  0  0  0  0  0
   12.3809  -19.3137   27.3065 C   0  0  0  0  0  0  0  0  0  0  0  0
   12.9879  -20.3139   27.8081 O   0  0  0  0  0  0  0  0  0  0  0  0
   11.6288  -18.4913   28.1271 O   0  0  0  0  0  0  0  0  0  0  0  0
  2  1  1  0
  3  2  1  0
  4  3  1  0
  5  4  1  0
  5  6  1  1
  7  8  2  0
  7  5  1  0
  9  7  1  0
 10 11  1  1
 10  9  1  0
 12 11  1  0
 12 20  1  0
 13 14  1  0
 13 12  2  0
 14 15  1  0
 15 20  2  0
 15 16  1  0
 16 17  2  0
 17 18  1  0
 19 18  2  0
 20 19  1  0
 21 10  1  0
 21 22  2  0
 23 21  1  0
 24 23  1  0
 24 25  1  1
 25 26  1  0
 26 27  2  0
 26 30  1  0
 27 28  1  0
 28 29  1  0
 30 29  2  0
 31 24  1  0
 32 31  2  0
 33 31  1  0
M  END
$$$$
