MWH.pdb
     RDKit          3D

 33 35  0  0  1  0  0  0  0  0999 V2000
    3.9143  -15.0487   20.9084 C   0  0  0  0  0  0  0  0  0  0  0  0
    4.4174  -16.5624   20.1160 S   0  0  0  0  0  0  0  0  0  0  0  0
    6.0376  -16.5679   19.3782 C   0  0  0  0  0  0  0  0  0  0  0  0
    7.1450  -15.9865   20.2109 C   0  0  0  0  0  0  0  0  0  0  0  0
    7.8476  -17.0210   21.0101 C   0  0  2  0  0  0  0  0  0  0  0  0
    6.8666  -17.6731   21.8601 N   0  0  0  0  0  0  0  0  0  0  0  0
    8.9589  -16.4515   21.8321 C   0  0  0  0  0  0  0  0  0  0  0  0
    9.9240  -15.8449   21.3197 O   0  0  0  0  0  0  0  0  0  0  0  0
    8.9593  -16.5814   23.2654 N   0  0  0  0  0  0  0  0  0  0  0  0
   10.0502  -16.1113   24.0994 C   0  0  1  0  0  0  0  0  0  0  0  0
    9.6515  -15.1038   25.1004 C   0  0  0  0  0  0  0  0  0  0  0  0
    8.2384  -15.0172   25.4513 C   0  0  0  0  0  0  0  0  0  0  0  0
    7.2183  -15.9202   25.4799 C   0  0  0  0  0  0  0  0  0  0  0  0
    6.0742  -15.3433   25.8905 N   0  0  0  0  0  0  0  0  0  0  0  0
    6.3390  -14.0493   26.1356 C   0  0  0  0  0  0  0  0  0  0  0  0
    5.5379  -12.9965   26.5779 C   0  0  0  0  0  0  0  0  0  0  0  0
    6.1000  -11.7418   26.7427 C   0  0  0  0  0  0  0  0  0  0  0  0
    7.4264  -11.4905   26.4859 C   0  0  0  0  0  0  0  0  0  0  0  0
    8.2039  -12.5517   26.0473 C   0  0  0  0  0  0  0  0  0  0  0  0
    7.6694  -13.8095   25.8750 C   0  0  0  0  0  0  0  0  0  0  0  0
   10.7492  -17.2906   24.6787 C   0  0  0  0  0  0  0  0  0  0  0  0
   10.0633  -18.3325   24.9725 O   0  0  0  0  0  0  0  0  0  0  0  0
   12.1402  -17.3017   24.9166 N   0  0  0  0  0  0  0  0  0  0  0  0
   12.7306  -18.5400   25.4156 C   0  0  1  0  0  0  0  0  0  0  0  0
   14.1982  -18.5935   25.1399 C   0  0  0  0  0  0  0  0  0  0  0  0
   14.4385  -18.4745   23.6897 C   0  0  0  0  0  0  0  0  0  0  0  0
   13.4988  -18.8931   22.7577 C   0  0  0  0  0  0  0  0  0  0  0  0
   13.9816  -18.6697   21.5333 N   0  0  0  0  0  0  0  0  0  0  0  0
   15.2013  -18.1211   21.6739 C   0  0  0  0  0  0  0  0  0  0  0  0
   15.4803  -18.0019   22.9888 N   0  0  0  0  0  0  0  0  0  0  0  0
   12.5005  -18.5691   26.8751 C   0  0  0  0  0  0  0  0  0  0  0  0
   11.8810  -17.5942   27.4101 O   0  0  0  0  0  0  0  0  0  0  0  0
   12.9345  -19.6177   27.6670 O   0  0  0  0  0  0  0  0  0  0  0  0
  2  1  1  0
  3  2  1  0
  4  3  1  0
  5  4  1  0
  5  6  1  1
  7  8  2  0
  7  5  1  0
  9  7  1  0
 10 11  1  1
 10  9  1  0
 12 11  1  0
 12 20  1  0
 13 14  1  0
 13 12  2  0
 14 15  1  0
 15 20  2  0
 15 16  1  0
 16 17  2  0
 17 18  1  0
 19 18  2  0
 20 19  1  0
 21 10  1  0
 21 22  2  0
 23 21  1  0
 24 23  1  0
 24 25  1  1
 25 26  1  0
 26 27  2  0
 26 30  1  0
 27 28  1  0
 28 29  1  0
 30 29  2  0
 31 24  1  0
 32 31  2  0
 33 31  1  0
M  END
$$$$
