MWH.pdb
     RDKit          3D

 33 35  0  0  1  0  0  0  0  0999 V2000
   10.2184  -21.9667   19.7101 C   0  0  0  0  0  0  0  0  0  0  0  0
   10.8152  -20.9435   18.3799 S   0  0  0  0  0  0  0  0  0  0  0  0
   10.1740  -19.2842   18.3100 C   0  0  0  0  0  0  0  0  0  0  0  0
   10.4557  -18.4159   19.5036 C   0  0  0  0  0  0  0  0  0  0  0  0
    9.8413  -17.0710   19.3758 C   0  0  2  0  0  0  0  0  0  0  0  0
   10.6211  -16.3121   18.4135 N   0  0  0  0  0  0  0  0  0  0  0  0
    9.7714  -16.3479   20.6824 C   0  0  0  0  0  0  0  0  0  0  0  0
   10.6988  -15.6159   21.0898 O   0  0  0  0  0  0  0  0  0  0  0  0
    8.6165  -16.4684   21.5327 N   0  0  0  0  0  0  0  0  0  0  0  0
    8.5267  -15.8344   22.8352 C   0  0  1  0  0  0  0  0  0  0  0  0
    7.1609  -15.4243   23.2121 C   0  0  0  0  0  0  0  0  0  0  0  0
    6.9241  -15.0462   24.6008 C   0  0  0  0  0  0  0  0  0  0  0  0
    6.5203  -15.7313   25.7074 C   0  0  0  0  0  0  0  0  0  0  0  0
    6.4586  -14.9220   26.7805 N   0  0  0  0  0  0  0  0  0  0  0  0
    6.8243  -13.6925   26.3814 C   0  0  0  0  0  0  0  0  0  0  0  0
    6.9409  -12.4819   27.0643 C   0  0  0  0  0  0  0  0  0  0  0  0
    7.3500  -11.3530   26.3747 C   0  0  0  0  0  0  0  0  0  0  0  0
    7.6480  -11.3780   25.0335 C   0  0  0  0  0  0  0  0  0  0  0  0
    7.5251  -12.5921   24.3748 C   0  0  0  0  0  0  0  0  0  0  0  0
    7.1201  -13.7299   25.0374 C   0  0  0  0  0  0  0  0  0  0  0  0
    9.1896  -16.7113   23.8385 C   0  0  0  0  0  0  0  0  0  0  0  0
    8.7853  -17.9208   23.9649 O   0  0  0  0  0  0  0  0  0  0  0  0
   10.2470  -16.2578   24.6558 N   0  0  0  0  0  0  0  0  0  0  0  0
   10.8889  -17.2323   25.5328 C   0  0  1  0  0  0  0  0  0  0  0  0
   12.3349  -16.9141   25.7345 C   0  0  0  0  0  0  0  0  0  0  0  0
   13.0949  -17.2502   24.5161 C   0  0  0  0  0  0  0  0  0  0  0  0
   12.5315  -17.9907   23.4859 C   0  0  0  0  0  0  0  0  0  0  0  0
   13.4420  -18.1440   22.5217 N   0  0  0  0  0  0  0  0  0  0  0  0
   14.5630  -17.5178   22.9213 C   0  0  0  0  0  0  0  0  0  0  0  0
   14.3517  -16.9726   24.1375 N   0  0  0  0  0  0  0  0  0  0  0  0
   10.1843  -17.1737   26.8304 C   0  0  0  0  0  0  0  0  0  0  0  0
    9.2291  -16.3428   26.9640 O   0  0  0  0  0  0  0  0  0  0  0  0
   10.5304  -17.9907   27.8925 O   0  0  0  0  0  0  0  0  0  0  0  0
  2  1  1  0
  3  2  1  0
  4  3  1  0
  5  4  1  0
  5  6  1  6
  7  8  2  0
  7  5  1  0
  9  7  1  0
 10 11  1  1
 10  9  1  0
 12 11  1  0
 12 20  1  0
 13 14  1  0
 13 12  2  0
 14 15  1  0
 15 20  2  0
 15 16  1  0
 16 17  2  0
 17 18  1  0
 19 18  2  0
 20 19  1  0
 21 10  1  0
 21 22  2  0
 23 21  1  0
 24 23  1  0
 24 25  1  1
 25 26  1  0
 26 27  2  0
 26 30  1  0
 27 28  1  0
 28 29  1  0
 30 29  2  0
 31 24  1  0
 32 31  2  0
 33 31  1  0
M  END
$$$$
