MWH.pdb
     RDKit          3D

 33 35  0  0  1  0  0  0  0  0999 V2000
    5.3044  -21.2019   23.1750 C   0  0  0  0  0  0  0  0  0  0  0  0
    5.5130  -21.0506   21.4126 S   0  0  0  0  0  0  0  0  0  0  0  0
    6.0039  -19.4492   20.8093 C   0  0  0  0  0  0  0  0  0  0  0  0
    7.2334  -18.8551   21.4363 C   0  0  0  0  0  0  0  0  0  0  0  0
    7.4813  -17.4658   20.9771 C   0  0  2  0  0  0  0  0  0  0  0  0
    7.6911  -17.4997   19.5402 N   0  0  0  0  0  0  0  0  0  0  0  0
    8.6506  -16.8366   21.6640 C   0  0  0  0  0  0  0  0  0  0  0  0
    9.7817  -16.7778   21.1359 O   0  0  0  0  0  0  0  0  0  0  0  0
    8.5160  -16.2659   22.9784 N   0  0  0  0  0  0  0  0  0  0  0  0
    9.6325  -15.6921   23.7070 C   0  0  1  0  0  0  0  0  0  0  0  0
    9.2765  -14.5195   24.5280 C   0  0  0  0  0  0  0  0  0  0  0  0
    7.9133  -14.4379   25.0407 C   0  0  0  0  0  0  0  0  0  0  0  0
    6.9236  -15.3544   25.2338 C   0  0  0  0  0  0  0  0  0  0  0  0
    5.8239  -14.7759   25.7501 N   0  0  0  0  0  0  0  0  0  0  0  0
    6.0878  -13.4673   25.8999 C   0  0  0  0  0  0  0  0  0  0  0  0
    5.3221  -12.4066   26.3840 C   0  0  0  0  0  0  0  0  0  0  0  0
    5.8726  -11.1365   26.4206 C   0  0  0  0  0  0  0  0  0  0  0  0
    7.1534  -10.8773   25.9956 C   0  0  0  0  0  0  0  0  0  0  0  0
    7.8963  -11.9466   25.5184 C   0  0  0  0  0  0  0  0  0  0  0  0
    7.3725  -13.2198   25.4713 C   0  0  0  0  0  0  0  0  0  0  0  0
   10.3116  -16.7756   24.4684 C   0  0  0  0  0  0  0  0  0  0  0  0
    9.6157  -17.7682   24.8841 O   0  0  0  0  0  0  0  0  0  0  0  0
   11.6943  -16.7481   24.7496 N   0  0  0  0  0  0  0  0  0  0  0  0
   12.2741  -17.9167   25.4044 C   0  0  1  0  0  0  0  0  0  0  0  0
   13.7611  -17.9405   25.2593 C   0  0  0  0  0  0  0  0  0  0  0  0
   14.1224  -18.0185   23.8316 C   0  0  0  0  0  0  0  0  0  0  0  0
   13.1664  -18.2297   22.8476 C   0  0  0  0  0  0  0  0  0  0  0  0
   13.7743  -18.2579   21.6594 N   0  0  0  0  0  0  0  0  0  0  0  0
   15.0885  -18.0696   21.8734 C   0  0  0  0  0  0  0  0  0  0  0  0
   15.3012  -17.9235   23.1980 N   0  0  0  0  0  0  0  0  0  0  0  0
   11.9186  -17.8288   26.8360 C   0  0  0  0  0  0  0  0  0  0  0  0
   11.2456  -16.8236   27.2324 O   0  0  0  0  0  0  0  0  0  0  0  0
   12.2923  -18.8009   27.7474 O   0  0  0  0  0  0  0  0  0  0  0  0
  2  1  1  0
  3  2  1  0
  4  3  1  0
  5  4  1  0
  5  6  1  6
  7  8  2  0
  7  5  1  0
  9  7  1  0
 10 11  1  1
 10  9  1  0
 12 11  1  0
 12 20  1  0
 13 14  1  0
 13 12  2  0
 14 15  1  0
 15 20  2  0
 15 16  1  0
 16 17  2  0
 17 18  1  0
 19 18  2  0
 20 19  1  0
 21 10  1  0
 21 22  2  0
 23 21  1  0
 24 23  1  0
 24 25  1  1
 25 26  1  0
 26 27  2  0
 26 30  1  0
 27 28  1  0
 28 29  1  0
 30 29  2  0
 31 24  1  0
 32 31  2  0
 33 31  1  0
M  END
$$$$
