MWH.pdb
     RDKit          3D

 33 35  0  0  1  0  0  0  0  0999 V2000
    8.2035  -11.5567   19.3220 C   0  0  0  0  0  0  0  0  0  0  0  0
    7.9948  -13.0713   18.4085 S   0  0  0  0  0  0  0  0  0  0  0  0
    7.2089  -14.4143   19.2735 C   0  0  0  0  0  0  0  0  0  0  0  0
    7.5775  -14.5735   20.7215 C   0  0  0  0  0  0  0  0  0  0  0  0
    8.3076  -15.8398   20.9780 C   0  0  2  0  0  0  0  0  0  0  0  0
    7.3276  -16.9051   21.0996 N   0  0  0  0  0  0  0  0  0  0  0  0
    9.1615  -15.7693   22.2031 C   0  0  0  0  0  0  0  0  0  0  0  0
   10.1976  -15.0724   22.2546 O   0  0  0  0  0  0  0  0  0  0  0  0
    8.8176  -16.5117   23.3872 N   0  0  0  0  0  0  0  0  0  0  0  0
    9.5463  -16.3860   24.6360 C   0  0  1  0  0  0  0  0  0  0  0  0
    8.6878  -16.3759   25.8355 C   0  0  0  0  0  0  0  0  0  0  0  0
    7.5102  -15.5154   25.8206 C   0  0  0  0  0  0  0  0  0  0  0  0
    6.1866  -15.7350   25.5823 C   0  0  0  0  0  0  0  0  0  0  0  0
    5.4797  -14.5959   25.6979 N   0  0  0  0  0  0  0  0  0  0  0  0
    6.3415  -13.6155   26.0151 C   0  0  0  0  0  0  0  0  0  0  0  0
    6.1640  -12.2525   26.2526 C   0  0  0  0  0  0  0  0  0  0  0  0
    7.2636  -11.4718   26.5665 C   0  0  0  0  0  0  0  0  0  0  0  0
    8.5331  -11.9904   26.6542 C   0  0  0  0  0  0  0  0  0  0  0  0
    8.6862  -13.3476   26.4143 C   0  0  0  0  0  0  0  0  0  0  0  0
    7.6089  -14.1465   26.1001 C   0  0  0  0  0  0  0  0  0  0  0  0
   10.6150  -17.4213   24.6702 C   0  0  0  0  0  0  0  0  0  0  0  0
   10.3522  -18.5951   24.2281 O   0  0  0  0  0  0  0  0  0  0  0  0
   11.9068  -17.1563   25.1727 N   0  0  0  0  0  0  0  0  0  0  0  0
   12.9110  -18.2079   25.0435 C   0  0  1  0  0  0  0  0  0  0  0  0
   14.2793  -17.6351   24.8636 C   0  0  0  0  0  0  0  0  0  0  0  0
   15.2627  -18.7253   24.7244 C   0  0  0  0  0  0  0  0  0  0  0  0
   14.8835  -20.0059   24.3462 C   0  0  0  0  0  0  0  0  0  0  0  0
   15.9706  -20.7796   24.3055 N   0  0  0  0  0  0  0  0  0  0  0  0
   17.0230  -20.0160   24.6489 C   0  0  0  0  0  0  0  0  0  0  0  0
   16.5917  -18.7631   24.9045 N   0  0  0  0  0  0  0  0  0  0  0  0
   12.8670  -19.0008   26.2897 C   0  0  0  0  0  0  0  0  0  0  0  0
   12.2718  -18.5072   27.3010 O   0  0  0  0  0  0  0  0  0  0  0  0
   13.4479  -20.2532   26.3851 O   0  0  0  0  0  0  0  0  0  0  0  0
  2  1  1  0
  3  2  1  0
  4  3  1  0
  5  4  1  0
  5  6  1  1
  7  8  2  0
  7  5  1  0
  9  7  1  0
 10 11  1  1
 10  9  1  0
 12 11  1  0
 12 20  1  0
 13 14  1  0
 13 12  2  0
 14 15  1  0
 15 20  2  0
 15 16  1  0
 16 17  2  0
 17 18  1  0
 19 18  2  0
 20 19  1  0
 21 10  1  0
 21 22  2  0
 23 21  1  0
 24 23  1  0
 24 25  1  1
 25 26  1  0
 26 27  2  0
 26 30  1  0
 27 28  1  0
 28 29  1  0
 30 29  2  0
 31 24  1  0
 32 31  2  0
 33 31  1  0
M  END
$$$$
