MWH.pdb
     RDKit          3D

 33 35  0  0  1  0  0  0  0  0999 V2000
    8.2598  -11.9078   18.0814 C   0  0  0  0  0  0  0  0  0  0  0  0
    7.1843  -13.2772   17.7063 S   0  0  0  0  0  0  0  0  0  0  0  0
    7.1539  -14.6060   18.8907 C   0  0  0  0  0  0  0  0  0  0  0  0
    7.6537  -14.2748   20.2685 C   0  0  0  0  0  0  0  0  0  0  0  0
    7.6721  -15.4622   21.1585 C   0  0  2  0  0  0  0  0  0  0  0  0
    6.2967  -15.8622   21.4001 N   0  0  0  0  0  0  0  0  0  0  0  0
    8.3768  -15.1978   22.4502 C   0  0  0  0  0  0  0  0  0  0  0  0
    8.5666  -14.0403   22.8815 O   0  0  0  0  0  0  0  0  0  0  0  0
    8.8701  -16.2819   23.2582 N   0  0  0  0  0  0  0  0  0  0  0  0
    9.7370  -16.0798   24.4045 C   0  0  1  0  0  0  0  0  0  0  0  0
    9.0531  -16.2042   25.7056 C   0  0  0  0  0  0  0  0  0  0  0  0
    7.8218  -15.4471   25.9009 C   0  0  0  0  0  0  0  0  0  0  0  0
    6.4990  -15.7607   25.8083 C   0  0  0  0  0  0  0  0  0  0  0  0
    5.7289  -14.6959   26.0974 N   0  0  0  0  0  0  0  0  0  0  0  0
    6.5479  -13.6702   26.3835 C   0  0  0  0  0  0  0  0  0  0  0  0
    6.3000  -12.3464   26.7465 C   0  0  0  0  0  0  0  0  0  0  0  0
    7.3688  -11.4990   26.9849 C   0  0  0  0  0  0  0  0  0  0  0  0
    8.6745  -11.9135   26.8773 C   0  0  0  0  0  0  0  0  0  0  0  0
    8.8974  -13.2334   26.5152 C   0  0  0  0  0  0  0  0  0  0  0  0
    7.8521  -14.0970   26.2724 C   0  0  0  0  0  0  0  0  0  0  0  0
   10.9267  -16.9628   24.2637 C   0  0  0  0  0  0  0  0  0  0  0  0
   10.7462  -18.2101   24.0311 O   0  0  0  0  0  0  0  0  0  0  0  0
   12.2461  -16.4755   24.3779 N   0  0  0  0  0  0  0  0  0  0  0  0
   13.3363  -17.4028   24.0905 C   0  0  1  0  0  0  0  0  0  0  0  0
   14.4483  -16.7257   23.3572 C   0  0  0  0  0  0  0  0  0  0  0  0
   13.9164  -16.0442   22.1623 C   0  0  0  0  0  0  0  0  0  0  0  0
   14.0075  -14.6678   22.0063 C   0  0  0  0  0  0  0  0  0  0  0  0
   13.4451  -14.3309   20.8434 N   0  0  0  0  0  0  0  0  0  0  0  0
   13.0034  -15.4619   20.2656 C   0  0  0  0  0  0  0  0  0  0  0  0
   13.2906  -16.5070   21.0696 N   0  0  0  0  0  0  0  0  0  0  0  0
   13.8324  -17.9002   25.3906 C   0  0  0  0  0  0  0  0  0  0  0  0
   13.2742  -17.4776   26.4537 O   0  0  0  0  0  0  0  0  0  0  0  0
   14.8755  -18.8051   25.4819 O   0  0  0  0  0  0  0  0  0  0  0  0
  2  1  1  0
  3  2  1  0
  4  3  1  0
  5  4  1  0
  5  6  1  1
  7  8  2  0
  7  5  1  0
  9  7  1  0
 10 11  1  1
 10  9  1  0
 12 11  1  0
 12 20  1  0
 13 14  1  0
 13 12  2  0
 14 15  1  0
 15 20  2  0
 15 16  1  0
 16 17  2  0
 17 18  1  0
 19 18  2  0
 20 19  1  0
 21 10  1  0
 21 22  2  0
 23 21  1  0
 24 23  1  0
 24 25  1  1
 25 26  1  0
 26 27  2  0
 26 30  1  0
 27 28  1  0
 28 29  1  0
 30 29  2  0
 31 24  1  0
 32 31  2  0
 33 31  1  0
M  END
$$$$
