MWH.pdb
     RDKit          3D

 33 35  0  0  1  0  0  0  0  0999 V2000
    7.0027  -11.5034   19.6499 C   0  0  0  0  0  0  0  0  0  0  0  0
    6.4129  -13.0449   18.9803 S   0  0  0  0  0  0  0  0  0  0  0  0
    7.3130  -14.5070   19.4505 C   0  0  0  0  0  0  0  0  0  0  0  0
    8.0788  -14.4254   20.7408 C   0  0  0  0  0  0  0  0  0  0  0  0
    8.7491  -15.7061   21.0767 C   0  0  2  0  0  0  0  0  0  0  0  0
    7.7381  -16.7490   21.0967 N   0  0  0  0  0  0  0  0  0  0  0  0
    9.4699  -15.6482   22.3852 C   0  0  0  0  0  0  0  0  0  0  0  0
   10.4617  -14.9102   22.5680 O   0  0  0  0  0  0  0  0  0  0  0  0
    9.0425  -16.4514   23.5004 N   0  0  0  0  0  0  0  0  0  0  0  0
    9.6920  -16.4089   24.7976 C   0  0  1  0  0  0  0  0  0  0  0  0
    8.7590  -16.4468   25.9394 C   0  0  0  0  0  0  0  0  0  0  0  0
    7.5429  -15.6464   25.8498 C   0  0  0  0  0  0  0  0  0  0  0  0
    6.2521  -15.9292   25.5170 C   0  0  0  0  0  0  0  0  0  0  0  0
    5.4817  -14.8287   25.5932 N   0  0  0  0  0  0  0  0  0  0  0  0
    6.2682  -13.8104   25.9793 C   0  0  0  0  0  0  0  0  0  0  0  0
    6.0052  -12.4612   26.2162 C   0  0  0  0  0  0  0  0  0  0  0  0
    7.0390  -11.6302   26.6139 C   0  0  0  0  0  0  0  0  0  0  0  0
    8.3241  -12.0855   26.7858 C   0  0  0  0  0  0  0  0  0  0  0  0
    8.5625  -13.4301   26.5447 C   0  0  0  0  0  0  0  0  0  0  0  0
    7.5520  -14.2780   26.1481 C   0  0  0  0  0  0  0  0  0  0  0  0
   10.7389  -17.4658   24.8410 C   0  0  0  0  0  0  0  0  0  0  0  0
   10.4276  -18.6584   24.4900 O   0  0  0  0  0  0  0  0  0  0  0  0
   12.0617  -17.2015   25.2556 N   0  0  0  0  0  0  0  0  0  0  0  0
   12.9741  -18.3353   25.3676 C   0  0  1  0  0  0  0  0  0  0  0  0
   14.3644  -17.9568   24.9718 C   0  0  0  0  0  0  0  0  0  0  0  0
   14.3712  -17.4638   23.5819 C   0  0  0  0  0  0  0  0  0  0  0  0
   13.6395  -18.0900   22.5821 C   0  0  0  0  0  0  0  0  0  0  0  0
   13.8353  -17.4358   21.4350 N   0  0  0  0  0  0  0  0  0  0  0  0
   14.6718  -16.4143   21.6902 C   0  0  0  0  0  0  0  0  0  0  0  0
   14.9989  -16.4310   22.9994 N   0  0  0  0  0  0  0  0  0  0  0  0
   12.9615  -18.7600   26.7830 C   0  0  0  0  0  0  0  0  0  0  0  0
   12.2398  -18.1083   27.6045 O   0  0  0  0  0  0  0  0  0  0  0  0
   13.7043  -19.8371   27.2341 O   0  0  0  0  0  0  0  0  0  0  0  0
  2  1  1  0
  3  2  1  0
  4  3  1  0
  5  4  1  0
  5  6  1  1
  7  8  2  0
  7  5  1  0
  9  7  1  0
 10 11  1  1
 10  9  1  0
 12 11  1  0
 12 20  1  0
 13 14  1  0
 13 12  2  0
 14 15  1  0
 15 20  2  0
 15 16  1  0
 16 17  2  0
 17 18  1  0
 19 18  2  0
 20 19  1  0
 21 10  1  0
 21 22  2  0
 23 21  1  0
 24 23  1  0
 24 25  1  1
 25 26  1  0
 26 27  2  0
 26 30  1  0
 27 28  1  0
 28 29  1  0
 30 29  2  0
 31 24  1  0
 32 31  2  0
 33 31  1  0
M  END
$$$$
