MWH.pdb
     RDKit          3D

 33 35  0  0  1  0  0  0  0  0999 V2000
    8.9530  -12.2729   19.9177 C   0  0  0  0  0  0  0  0  0  0  0  0
    7.5125  -13.2967   19.6953 S   0  0  0  0  0  0  0  0  0  0  0  0
    7.8107  -15.0247   19.3878 C   0  0  0  0  0  0  0  0  0  0  0  0
    8.6821  -15.7329   20.3862 C   0  0  0  0  0  0  0  0  0  0  0  0
    7.8881  -16.4294   21.4288 C   0  0  2  0  0  0  0  0  0  0  0  0
    6.4838  -16.3090   21.0771 N   0  0  0  0  0  0  0  0  0  0  0  0
    8.1357  -15.8813   22.7974 C   0  0  0  0  0  0  0  0  0  0  0  0
    7.3519  -15.0768   23.3454 O   0  0  0  0  0  0  0  0  0  0  0  0
    9.3026  -16.2654   23.5472 N   0  0  0  0  0  0  0  0  0  0  0  0
    9.2880  -16.4562   24.9859 C   0  0  1  0  0  0  0  0  0  0  0  0
    7.9400  -16.6449   25.5543 C   0  0  0  0  0  0  0  0  0  0  0  0
    7.0700  -15.4774   25.6413 C   0  0  0  0  0  0  0  0  0  0  0  0
    5.7476  -15.2676   25.3878 C   0  0  0  0  0  0  0  0  0  0  0  0
    5.4059  -13.9894   25.6325 N   0  0  0  0  0  0  0  0  0  0  0  0
    6.5099  -13.3487   26.0512 C   0  0  0  0  0  0  0  0  0  0  0  0
    6.7365  -12.0281   26.4387 C   0  0  0  0  0  0  0  0  0  0  0  0
    8.0087  -11.6470   26.8307 C   0  0  0  0  0  0  0  0  0  0  0  0
    9.0654  -12.5251   26.8533 C   0  0  0  0  0  0  0  0  0  0  0  0
    8.8173  -13.8327   26.4641 C   0  0  0  0  0  0  0  0  0  0  0  0
    7.5611  -14.2376   26.0697 C   0  0  0  0  0  0  0  0  0  0  0  0
   10.2441  -17.5429   25.3320 C   0  0  0  0  0  0  0  0  0  0  0  0
   10.0819  -18.6996   24.8045 O   0  0  0  0  0  0  0  0  0  0  0  0
   11.3222  -17.3450   26.2209 N   0  0  0  0  0  0  0  0  0  0  0  0
   11.9890  -18.5312   26.7492 C   0  0  1  0  0  0  0  0  0  0  0  0
   13.4749  -18.3745   26.7305 C   0  0  0  0  0  0  0  0  0  0  0  0
   13.9319  -18.1105   25.3534 C   0  0  0  0  0  0  0  0  0  0  0  0
   13.3925  -18.7815   24.2644 C   0  0  0  0  0  0  0  0  0  0  0  0
   13.9929  -18.3471   23.1540 N   0  0  0  0  0  0  0  0  0  0  0  0
   14.8958  -17.4199   23.5192 C   0  0  0  0  0  0  0  0  0  0  0  0
   14.8589  -17.2753   24.8604 N   0  0  0  0  0  0  0  0  0  0  0  0
   11.5273  -18.7000   28.1428 C   0  0  0  0  0  0  0  0  0  0  0  0
   12.0062  -19.6603   28.8274 O   0  0  0  0  0  0  0  0  0  0  0  0
   10.5992  -17.8496   28.7179 O   0  0  0  0  0  0  0  0  0  0  0  0
  2  1  1  0
  3  2  1  0
  4  3  1  0
  5  4  1  0
  5  6  1  6
  7  8  2  0
  7  5  1  0
  9  7  1  0
 10 11  1  6
 10  9  1  0
 12 11  1  0
 12 20  1  0
 13 14  1  0
 13 12  2  0
 14 15  1  0
 15 20  2  0
 15 16  1  0
 16 17  2  0
 17 18  1  0
 19 18  2  0
 20 19  1  0
 21 10  1  0
 21 22  2  0
 23 21  1  0
 24 23  1  0
 24 25  1  1
 25 26  1  0
 26 27  2  0
 26 30  1  0
 27 28  1  0
 28 29  1  0
 30 29  2  0
 31 24  1  0
 32 31  2  0
 33 31  1  0
M  END
$$$$
