MWH.pdb
     RDKit          3D

 33 35  0  0  1  0  0  0  0  0999 V2000
    8.3554  -12.0561   18.9909 C   0  0  0  0  0  0  0  0  0  0  0  0
    7.8362  -13.4248   17.9763 S   0  0  0  0  0  0  0  0  0  0  0  0
    9.0140  -14.7427   17.7637 C   0  0  0  0  0  0  0  0  0  0  0  0
   10.0532  -14.8805   18.8403 C   0  0  0  0  0  0  0  0  0  0  0  0
    9.8871  -16.1304   19.6230 C   0  0  2  0  0  0  0  0  0  0  0  0
    8.6437  -16.7566   19.2083 N   0  0  0  0  0  0  0  0  0  0  0  0
    9.8857  -15.8857   21.0978 C   0  0  0  0  0  0  0  0  0  0  0  0
   10.8440  -15.3379   21.6837 O   0  0  0  0  0  0  0  0  0  0  0  0
    8.7641  -16.2767   21.9105 N   0  0  0  0  0  0  0  0  0  0  0  0
    8.6521  -15.9348   23.3166 C   0  0  1  0  0  0  0  0  0  0  0  0
    7.2857  -15.5772   23.7421 C   0  0  0  0  0  0  0  0  0  0  0  0
    7.0883  -15.1849   25.1330 C   0  0  0  0  0  0  0  0  0  0  0  0
    6.7504  -15.8652   26.2643 C   0  0  0  0  0  0  0  0  0  0  0  0
    6.7009  -15.0411   27.3268 N   0  0  0  0  0  0  0  0  0  0  0  0
    7.0084  -13.8065   26.8956 C   0  0  0  0  0  0  0  0  0  0  0  0
    7.1084  -12.5816   27.5554 C   0  0  0  0  0  0  0  0  0  0  0  0
    7.4518  -11.4508   26.8338 C   0  0  0  0  0  0  0  0  0  0  0  0
    7.6999  -11.4875   25.4827 C   0  0  0  0  0  0  0  0  0  0  0  0
    7.5947  -12.7157   24.8475 C   0  0  0  0  0  0  0  0  0  0  0  0
    7.2547  -13.8557   25.5420 C   0  0  0  0  0  0  0  0  0  0  0  0
    9.2669  -17.0247   24.1223 C   0  0  0  0  0  0  0  0  0  0  0  0
    8.9339  -18.2376   23.8767 O   0  0  0  0  0  0  0  0  0  0  0  0
   10.2027  -16.7697   25.1474 N   0  0  0  0  0  0  0  0  0  0  0  0
   10.8382  -17.9195   25.7836 C   0  0  1  0  0  0  0  0  0  0  0  0
   12.3265  -17.7865   25.7870 C   0  0  0  0  0  0  0  0  0  0  0  0
   12.8559  -18.0660   24.4392 C   0  0  0  0  0  0  0  0  0  0  0  0
   12.0211  -18.4055   23.3834 C   0  0  0  0  0  0  0  0  0  0  0  0
   12.7675  -18.6042   22.2946 N   0  0  0  0  0  0  0  0  0  0  0  0
   14.0504  -18.3977   22.6410 C   0  0  0  0  0  0  0  0  0  0  0  0
   14.1047  -18.0695   23.9488 N   0  0  0  0  0  0  0  0  0  0  0  0
   10.3433  -17.9697   27.1751 C   0  0  0  0  0  0  0  0  0  0  0  0
   10.7836  -18.8855   27.9419 O   0  0  0  0  0  0  0  0  0  0  0  0
    9.4249  -17.0562   27.6622 O   0  0  0  0  0  0  0  0  0  0  0  0
  2  1  1  0
  3  2  1  0
  4  3  1  0
  5  4  1  0
  5  6  1  6
  7  8  2  0
  7  5  1  0
  9  7  1  0
 10 11  1  1
 10  9  1  0
 12 11  1  0
 12 20  1  0
 13 14  1  0
 13 12  2  0
 14 15  1  0
 15 20  2  0
 15 16  1  0
 16 17  2  0
 17 18  1  0
 19 18  2  0
 20 19  1  0
 21 10  1  0
 21 22  2  0
 23 21  1  0
 24 23  1  0
 24 25  1  1
 25 26  1  0
 26 27  2  0
 26 30  1  0
 27 28  1  0
 28 29  1  0
 30 29  2  0
 31 24  1  0
 32 31  2  0
 33 31  1  0
M  END
$$$$
