RML.pdb
     RDKit          3D

 28 27  0  0  1  0  0  0  0  0999 V2000
   26.5924  -23.9626  -17.0324 N   0  0  0  0  0  0  0  0  0  0  0  0
   26.0058  -23.0923  -17.9807 C   0  0  0  0  0  0  0  0  0  0  0  0
   24.9613  -23.3950  -18.6621 N   0  0  0  0  0  0  0  0  0  0  0  0
   26.6152  -21.8024  -18.1885 N   0  0  0  0  0  0  0  0  0  0  0  0
   27.6303  -21.3117  -17.2992 C   0  0  0  0  0  0  0  0  0  0  0  0
   26.9163  -20.7448  -16.0707 C   0  0  0  0  0  0  0  0  0  0  0  0
   27.8901  -19.9387  -15.2097 C   0  0  0  0  0  0  0  0  0  0  0  0
   28.4033  -20.8981  -14.1549 C   0  0  2  0  0  0  0  0  0  0  0  0
   28.7700  -22.1721  -14.7413 N   0  0  0  0  0  0  0  0  0  0  0  0
   27.3509  -21.1794  -13.1279 C   0  0  0  0  0  0  0  0  0  0  0  0
   26.4866  -22.0842  -13.2976 O   0  0  0  0  0  0  0  0  0  0  0  0
   24.6024  -22.7697  -19.3958 C   0  0  0  0  0  0  0  0  0  0  0  0
   28.2788  -20.0546   -6.6811 S   0  0  0  0  0  0  0  0  0  0  0  0
   26.5517  -19.5581   -6.9522 C   0  0  0  0  0  0  0  0  0  0  0  0
   25.8760  -20.4166   -8.3919 C   0  0  0  0  0  0  0  0  0  0  0  0
   26.6605  -20.1987   -9.6104 C   0  0  2  0  0  0  0  0  0  0  0  0
   26.2174  -20.7823  -10.9066 N   0  0  0  0  0  0  0  0  0  0  0  0
   27.2789  -20.4424  -11.9201 C   0  0  0  0  0  0  0  0  0  0  0  0
   24.9846  -20.2715  -11.5069 O   0  0  0  0  0  0  0  0  0  0  0  0
   24.9993  -19.5477  -12.5729 C   0  0  0  0  0  0  0  0  0  0  0  0
   21.7483  -20.6693  -14.9465 C   0  0  2  0  0  0  0  0  0  0  0  0
   21.6122  -21.8588  -13.9565 C   0  0  0  0  0  0  0  0  0  0  0  0
   21.8018  -23.1357  -14.7812 C   0  0  0  0  0  0  0  0  0  0  0  0
   22.7041  -21.7462  -12.9610 C   0  0  1  0  0  0  0  0  0  0  0  0
   22.5593  -20.6533  -11.9339 N   0  0  0  0  0  0  0  0  0  0  0  0
   23.6464  -20.5043  -11.0232 C   0  0  0  0  0  0  0  0  0  0  0  0
   21.2757  -20.8844  -11.2556 O   0  0  0  0  0  0  0  0  0  0  0  0
   21.0939  -21.6431  -10.2948 O   0  0  0  0  0  0  0  0  0  0  0  0
  1  2  1  0
  2  3  2  0
  4  2  1  0
  4  5  1  0
  6  5  1  0
  7  6  1  0
  8  7  1  0
  8  9  1  6
 10  8  1  0
 10 11  2  0
 12 13  1  0
 14 13  1  0
 15 14  1  0
 16 17  1  0
 16 15  1  1
 17 10  1  0
 18 16  1  0
 19 18  2  0
 21 20  1  6
 21 22  1  0
 23 21  1  0
 24 23  1  6
 24 25  1  0
 25 18  1  0
 26 24  1  0
 26 28  1  0
 27 26  2  0
M  END
$$$$
