RML.pdb
     RDKit          3D

 28 27  0  0  1  0  0  0  0  0999 V2000
   28.3594  -25.6365  -17.7289 N   0  0  0  0  0  0  0  0  0  0  0  0
   27.3964  -24.6084  -17.6004 C   0  0  0  0  0  0  0  0  0  0  0  0
   26.1544  -24.7686  -17.8808 N   0  0  0  0  0  0  0  0  0  0  0  0
   27.8370  -23.3186  -17.1308 N   0  0  0  0  0  0  0  0  0  0  0  0
   29.1969  -23.1048  -16.7224 C   0  0  0  0  0  0  0  0  0  0  0  0
   29.2837  -21.6783  -16.1765 C   0  0  0  0  0  0  0  0  0  0  0  0
   28.8793  -21.6435  -14.7018 C   0  0  0  0  0  0  0  0  0  0  0  0
   27.6003  -20.8331  -14.6413 C   0  0  2  0  0  0  0  0  0  0  0  0
   27.8773  -19.4406  -14.3485 N   0  0  0  0  0  0  0  0  0  0  0  0
   26.6985  -21.3340  -13.5564 C   0  0  0  0  0  0  0  0  0  0  0  0
   26.1567  -22.4728  -13.6201 O   0  0  0  0  0  0  0  0  0  0  0  0
   25.4721  -24.0127  -17.7350 C   0  0  0  0  0  0  0  0  0  0  0  0
   26.5676  -18.7180   -7.6786 S   0  0  0  0  0  0  0  0  0  0  0  0
   27.1794  -20.4264   -7.5775 C   0  0  0  0  0  0  0  0  0  0  0  0
   26.6967  -21.3487   -9.0549 C   0  0  0  0  0  0  0  0  0  0  0  0
   25.9967  -20.5236  -10.0433 C   0  0  2  0  0  0  0  0  0  0  0  0
   25.5319  -21.1173  -11.3272 N   0  0  0  0  0  0  0  0  0  0  0  0
   26.4133  -20.5517  -12.4102 C   0  0  0  0  0  0  0  0  0  0  0  0
   24.1764  -20.8043  -11.7806 O   0  0  0  0  0  0  0  0  0  0  0  0
   23.9011  -19.6971  -12.3797 C   0  0  0  0  0  0  0  0  0  0  0  0
   20.5485  -21.3262  -15.4274 C   0  0  2  0  0  0  0  0  0  0  0  0
   20.1890  -22.1446  -14.1566 C   0  0  0  0  0  0  0  0  0  0  0  0
   19.6021  -23.4724  -14.6453 C   0  0  0  0  0  0  0  0  0  0  0  0
   21.4453  -22.4025  -13.4141 C   0  0  1  0  0  0  0  0  0  0  0  0
   21.8258  -21.3815  -12.3734 N   0  0  0  0  0  0  0  0  0  0  0  0
   23.0186  -21.6519  -11.6402 C   0  0  0  0  0  0  0  0  0  0  0  0
   20.6509  -21.2103  -11.5064 O   0  0  0  0  0  0  0  0  0  0  0  0
   20.5936  -21.4983  -10.3041 O   0  0  0  0  0  0  0  0  0  0  0  0
  1  2  1  0
  2  3  2  0
  4  2  1  0
  4  5  1  0
  6  5  1  0
  7  6  1  0
  8  7  1  0
  8  9  1  1
 10  8  1  0
 10 11  2  0
 12 13  1  0
 14 13  1  0
 15 14  1  0
 16 17  1  0
 16 15  1  1
 17 10  1  0
 18 16  1  0
 19 18  2  0
 21 20  1  1
 21 22  1  0
 23 21  1  0
 24 23  1  6
 24 25  1  0
 25 18  1  0
 26 24  1  0
 26 28  1  0
 27 26  2  0
M  END
$$$$
