RML.pdb
     RDKit          3D

 28 27  0  0  1  0  0  0  0  0999 V2000
   23.5406  -23.9280  -16.0691 N   0  0  0  0  0  0  0  0  0  0  0  0
   22.2567  -24.1703  -15.5273 C   0  0  0  0  0  0  0  0  0  0  0  0
   22.0644  -24.8127  -14.4332 N   0  0  0  0  0  0  0  0  0  0  0  0
   21.1104  -23.6686  -16.2435 N   0  0  0  0  0  0  0  0  0  0  0  0
   21.2668  -22.9207  -17.4592 C   0  0  0  0  0  0  0  0  0  0  0  0
   21.2491  -21.4384  -17.0809 C   0  0  0  0  0  0  0  0  0  0  0  0
   22.5964  -20.7882  -17.3990 C   0  0  0  0  0  0  0  0  0  0  0  0
   23.2070  -20.4228  -16.0612 C   0  0  2  0  0  0  0  0  0  0  0  0
   22.2561  -19.7117  -15.2295 N   0  0  0  0  0  0  0  0  0  0  0  0
   24.3884  -19.5206  -16.2390 C   0  0  0  0  0  0  0  0  0  0  0  0
   25.2778  -19.7583  -17.1033 O   0  0  0  0  0  0  0  0  0  0  0  0
   21.1156  -24.9882  -14.0764 C   0  0  0  0  0  0  0  0  0  0  0  0
   26.3607  -15.7877  -18.3780 S   0  0  0  0  0  0  0  0  0  0  0  0
   25.8427  -14.5019  -17.2027 C   0  0  0  0  0  0  0  0  0  0  0  0
   24.7993  -15.2207  -15.9138 C   0  0  0  0  0  0  0  0  0  0  0  0
   25.5113  -16.1848  -15.0704 C   0  0  2  0  0  0  0  0  0  0  0  0
   25.8219  -17.5483  -15.5817 N   0  0  0  0  0  0  0  0  0  0  0  0
   24.5601  -18.3600  -15.4449 C   0  0  0  0  0  0  0  0  0  0  0  0
   26.8256  -18.3395  -14.8693 O   0  0  0  0  0  0  0  0  0  0  0  0
   28.0703  -18.0059  -14.8606 C   0  0  0  0  0  0  0  0  0  0  0  0
   26.0349  -21.5440  -10.2413 C   0  0  2  0  0  0  0  0  0  0  0  0
   26.3568  -20.4775  -11.3243 C   0  0  0  0  0  0  0  0  0  0  0  0
   27.0566  -19.3215  -10.6028 C   0  0  0  0  0  0  0  0  0  0  0  0
   27.2902  -21.0897  -12.2989 C   0  0  2  0  0  0  0  0  0  0  0  0
   27.6503  -20.2483  -13.4958 N   0  0  0  0  0  0  0  0  0  0  0  0
   26.5754  -19.5359  -14.1045 C   0  0  0  0  0  0  0  0  0  0  0  0
   28.3497  -21.1361  -14.4360 O   0  0  0  0  0  0  0  0  0  0  0  0
   29.3309  -21.8412  -14.1682 O   0  0  0  0  0  0  0  0  0  0  0  0
  1  2  1  0
  2  3  2  0
  4  2  1  0
  4  5  1  0
  6  5  1  0
  7  6  1  0
  8  7  1  0
  8  9  1  1
 10  8  1  0
 10 11  2  0
 12 13  1  0
 14 13  1  0
 15 14  1  0
 16 17  1  0
 16 15  1  6
 17 10  1  0
 18 16  1  0
 19 18  2  0
 21 20  1  1
 21 22  1  0
 23 21  1  0
 24 23  1  1
 24 25  1  0
 25 18  1  0
 26 24  1  0
 26 28  1  0
 27 26  2  0
M  END
$$$$
