RML.pdb
     RDKit          3D

 28 27  0  0  1  0  0  0  0  0999 V2000
   20.8121  -32.5376   -3.4659 N   0  0  0  0  0  0  0  0  0  0  0  0
   21.1030  -33.9215   -3.4307 C   0  0  0  0  0  0  0  0  0  0  0  0
   20.3593  -34.7820   -2.8364 N   0  0  0  0  0  0  0  0  0  0  0  0
   22.2954  -34.3829   -4.0968 N   0  0  0  0  0  0  0  0  0  0  0  0
   23.1567  -33.4673   -4.7907 C   0  0  0  0  0  0  0  0  0  0  0  0
   24.2284  -34.3028   -5.4937 C   0  0  0  0  0  0  0  0  0  0  0  0
   25.0553  -33.4287   -6.4379 C   0  0  0  0  0  0  0  0  0  0  0  0
   26.1332  -34.3319   -7.0021 C   0  0  2  0  0  0  0  0  0  0  0  0
   25.5615  -35.5388   -7.5659 N   0  0  0  0  0  0  0  0  0  0  0  0
   27.0873  -34.7622   -5.9316 C   0  0  0  0  0  0  0  0  0  0  0  0
   26.8482  -35.7592   -5.1945 O   0  0  0  0  0  0  0  0  0  0  0  0
   20.5998  -35.7822   -2.8303 C   0  0  0  0  0  0  0  0  0  0  0  0
   34.5098  -34.6105   -3.4448 S   0  0  0  0  0  0  0  0  0  0  0  0
   33.2330  -34.2187   -4.6774 C   0  0  0  0  0  0  0  0  0  0  0  0
   31.6278  -34.0235   -3.8702 C   0  0  0  0  0  0  0  0  0  0  0  0
   30.5262  -33.8427   -4.8196 C   0  0  1  0  0  0  0  0  0  0  0  0
   29.2302  -34.5461   -4.6131 N   0  0  0  0  0  0  0  0  0  0  0  0
   28.3008  -34.0692   -5.6987 C   0  0  0  0  0  0  0  0  0  0  0  0
   28.4910  -34.2808   -3.3785 O   0  0  0  0  0  0  0  0  0  0  0  0
   27.5751  -33.3763   -3.3182 C   0  0  0  0  0  0  0  0  0  0  0  0
   24.9695  -33.4105   -0.0022 C   0  0  2  0  0  0  0  0  0  0  0  0
   25.4958  -34.8723    0.0027 C   0  0  0  0  0  0  0  0  0  0  0  0
   24.2668  -35.7781   -0.1224 C   0  0  0  0  0  0  0  0  0  0  0  0
   26.3612  -35.0455   -1.1878 C   0  0  1  0  0  0  0  0  0  0  0  0
   27.8133  -34.6826   -1.0144 N   0  0  0  0  0  0  0  0  0  0  0  0
   28.6646  -34.9672   -2.1225 C   0  0  0  0  0  0  0  0  0  0  0  0
   28.2605  -35.3292    0.2279 O   0  0  0  0  0  0  0  0  0  0  0  0
   29.0914  -36.2430    0.3069 O   0  0  0  0  0  0  0  0  0  0  0  0
  1  2  1  0
  2  3  2  0
  4  2  1  0
  4  5  1  0
  6  5  1  0
  7  6  1  0
  8  7  1  0
  8  9  1  1
 10  8  1  0
 10 11  2  0
 12 13  1  0
 14 13  1  0
 15 14  1  0
 16 17  1  0
 16 15  1  6
 17 10  1  0
 18 16  1  0
 19 18  2  0
 21 20  1  1
 21 22  1  0
 23 21  1  0
 24 23  1  6
 24 25  1  0
 25 18  1  0
 26 24  1  0
 26 28  1  0
 27 26  2  0
M  END
$$$$
