RML.pdb
     RDKit          3D

 28 27  0  0  1  0  0  0  0  0999 V2000
   24.7640  -25.3336  -19.4316 N   0  0  0  0  0  0  0  0  0  0  0  0
   24.2056  -25.5631  -18.1524 C   0  0  0  0  0  0  0  0  0  0  0  0
   23.8121  -26.7174  -17.7532 N   0  0  0  0  0  0  0  0  0  0  0  0
   24.0741  -24.4413  -17.2565 N   0  0  0  0  0  0  0  0  0  0  0  0
   24.5269  -23.1330  -17.6375 C   0  0  0  0  0  0  0  0  0  0  0  0
   26.0558  -23.1774  -17.6682 C   0  0  0  0  0  0  0  0  0  0  0  0
   26.6412  -22.1408  -16.7079 C   0  0  0  0  0  0  0  0  0  0  0  0
   27.1020  -22.9166  -15.4906 C   0  0  2  0  0  0  0  0  0  0  0  0
   27.0627  -24.3449  -15.7353 N   0  0  0  0  0  0  0  0  0  0  0  0
   26.2109  -22.6524  -14.3169 C   0  0  0  0  0  0  0  0  0  0  0  0
   25.4134  -23.5292  -13.8816 O   0  0  0  0  0  0  0  0  0  0  0  0
   23.4103  -26.8500  -16.8155 C   0  0  0  0  0  0  0  0  0  0  0  0
   26.5791  -20.6950   -7.7112 S   0  0  0  0  0  0  0  0  0  0  0  0
   25.3025  -21.0450   -8.9566 C   0  0  0  0  0  0  0  0  0  0  0  0
   25.3878  -19.8316  -10.2933 C   0  0  0  0  0  0  0  0  0  0  0  0
   26.0543  -20.3455  -11.4930 C   0  0  1  0  0  0  0  0  0  0  0  0
   25.3086  -21.1908  -12.4658 N   0  0  0  0  0  0  0  0  0  0  0  0
   26.2237  -21.4063  -13.6430 C   0  0  0  0  0  0  0  0  0  0  0  0
   24.0917  -20.6420  -13.0648 O   0  0  0  0  0  0  0  0  0  0  0  0
   24.0743  -20.1919  -14.2722 C   0  0  0  0  0  0  0  0  0  0  0  0
   20.6086  -21.8034  -16.3241 C   0  0  2  0  0  0  0  0  0  0  0  0
   20.1951  -21.9536  -14.8341 C   0  0  0  0  0  0  0  0  0  0  0  0
   19.5731  -23.3463  -14.6930 C   0  0  0  0  0  0  0  0  0  0  0  0
   21.4262  -21.8761  -14.0129 C   0  0  1  0  0  0  0  0  0  0  0  0
   21.6031  -20.6239  -13.1938 N   0  0  0  0  0  0  0  0  0  0  0  0
   22.8025  -20.5438  -12.4267 C   0  0  0  0  0  0  0  0  0  0  0  0
   20.3916  -20.4869  -12.3723 O   0  0  0  0  0  0  0  0  0  0  0  0
   20.3416  -20.5815  -11.1393 O   0  0  0  0  0  0  0  0  0  0  0  0
  1  2  1  0
  2  3  2  0
  4  2  1  0
  4  5  1  0
  6  5  1  0
  7  6  1  0
  8  7  1  0
  8  9  1  6
 10  8  1  0
 10 11  2  0
 12 13  1  0
 14 13  1  0
 15 14  1  0
 16 17  1  0
 16 15  1  1
 17 10  1  0
 18 16  1  0
 19 18  2  0
 21 20  1  6
 21 22  1  0
 23 21  1  0
 24 23  1  6
 24 25  1  0
 25 18  1  0
 26 24  1  0
 26 28  1  0
 27 26  2  0
M  END
$$$$
