RML.pdb
     RDKit          3D

 28 27  0  0  1  0  0  0  0  0999 V2000
   26.1893  -22.9120  -17.3955 N   0  0  0  0  0  0  0  0  0  0  0  0
   25.4123  -23.1320  -16.2341 C   0  0  0  0  0  0  0  0  0  0  0  0
   25.7100  -24.0068  -15.3437 N   0  0  0  0  0  0  0  0  0  0  0  0
   24.2283  -22.3313  -16.0461 N   0  0  0  0  0  0  0  0  0  0  0  0
   23.3540  -22.0336  -17.1457 C   0  0  0  0  0  0  0  0  0  0  0  0
   23.9873  -20.8788  -17.9240 C   0  0  0  0  0  0  0  0  0  0  0  0
   23.4642  -19.5364  -17.4109 C   0  0  0  0  0  0  0  0  0  0  0  0
   24.5935  -18.9333  -16.6004 C   0  0  2  0  0  0  0  0  0  0  0  0
   25.8389  -19.6375  -16.8346 N   0  0  0  0  0  0  0  0  0  0  0  0
   24.3108  -19.0273  -15.1332 C   0  0  0  0  0  0  0  0  0  0  0  0
   23.3659  -18.3819  -14.5993 O   0  0  0  0  0  0  0  0  0  0  0  0
   25.1094  -24.1588  -14.5225 C   0  0  0  0  0  0  0  0  0  0  0  0
   21.7182  -23.2445  -12.4785 S   0  0  0  0  0  0  0  0  0  0  0  0
   21.6858  -21.9983  -11.1560 C   0  0  0  0  0  0  0  0  0  0  0  0
   23.1922  -21.0009  -11.2036 C   0  0  0  0  0  0  0  0  0  0  0  0
   23.6355  -20.6958  -12.5667 C   0  0  1  0  0  0  0  0  0  0  0  0
   24.8271  -19.8328  -12.7962 N   0  0  0  0  0  0  0  0  0  0  0  0
   25.0914  -19.8450  -14.2793 C   0  0  0  0  0  0  0  0  0  0  0  0
   26.1020  -20.2480  -12.2104 O   0  0  0  0  0  0  0  0  0  0  0  0
   26.9265  -21.0051  -12.8490 C   0  0  0  0  0  0  0  0  0  0  0  0
   28.1443  -19.3647   -6.7437 C   0  0  2  0  0  0  0  0  0  0  0  0
   27.5319  -20.0739   -7.9829 C   0  0  0  0  0  0  0  0  0  0  0  0
   26.1221  -19.5015   -8.1598 C   0  0  0  0  0  0  0  0  0  0  0  0
   28.3600  -19.7224   -9.1605 C   0  0  1  0  0  0  0  0  0  0  0  0
   27.9008  -20.2723  -10.4861 N   0  0  0  0  0  0  0  0  0  0  0  0
   26.5971  -19.8777  -10.9079 C   0  0  0  0  0  0  0  0  0  0  0  0
   28.0572  -21.7321  -10.4099 O   0  0  0  0  0  0  0  0  0  0  0  0
   27.1413  -22.5608  -10.4891 O   0  0  0  0  0  0  0  0  0  0  0  0
  1  2  1  0
  2  3  2  0
  4  2  1  0
  4  5  1  0
  6  5  1  0
  7  6  1  0
  8  7  1  0
  8  9  1  1
 10  8  1  0
 10 11  2  0
 12 13  1  0
 14 13  1  0
 15 14  1  0
 16 17  1  0
 16 15  1  6
 17 10  1  0
 18 16  1  0
 19 18  2  0
 21 20  1  1
 21 22  1  0
 23 21  1  0
 24 23  1  6
 24 25  1  0
 25 18  1  0
 26 24  1  0
 26 28  1  0
 27 26  2  0
M  END
$$$$
