RML.pdb
     RDKit          3D

 28 27  0  0  1  0  0  0  0  0999 V2000
   27.3937  -23.3911  -16.7044 N   0  0  0  0  0  0  0  0  0  0  0  0
   28.5463  -22.8656  -17.3339 C   0  0  0  0  0  0  0  0  0  0  0  0
   29.0168  -23.3241  -18.4362 N   0  0  0  0  0  0  0  0  0  0  0  0
   29.2223  -21.7602  -16.7018 N   0  0  0  0  0  0  0  0  0  0  0  0
   28.6859  -21.1418  -15.5220 C   0  0  0  0  0  0  0  0  0  0  0  0
   27.7051  -20.0632  -15.9859 C   0  0  0  0  0  0  0  0  0  0  0  0
   27.0490  -19.3829  -14.7833 C   0  0  0  0  0  0  0  0  0  0  0  0
   25.8943  -20.2773  -14.3798 C   0  0  2  0  0  0  0  0  0  0  0  0
   24.8375  -20.2460  -15.3716 N   0  0  0  0  0  0  0  0  0  0  0  0
   25.2903  -19.8234  -13.0872 C   0  0  0  0  0  0  0  0  0  0  0  0
   24.4740  -18.8612  -13.0406 O   0  0  0  0  0  0  0  0  0  0  0  0
   29.8927  -22.9609  -18.8352 C   0  0  0  0  0  0  0  0  0  0  0  0
   20.6368  -20.6110  -11.9254 S   0  0  0  0  0  0  0  0  0  0  0  0
   20.8141  -20.4130  -10.1275 C   0  0  0  0  0  0  0  0  0  0  0  0
   22.5131  -19.9538   -9.7165 C   0  0  0  0  0  0  0  0  0  0  0  0
   23.4701  -20.2896  -10.7743 C   0  0  2  0  0  0  0  0  0  0  0  0
   24.9209  -20.0061  -10.5958 N   0  0  0  0  0  0  0  0  0  0  0  0
   25.6085  -20.4542  -11.8592 C   0  0  0  0  0  0  0  0  0  0  0  0
   25.6371  -20.7178   -9.5368 O   0  0  0  0  0  0  0  0  0  0  0  0
   25.9027  -21.9757   -9.6255 C   0  0  0  0  0  0  0  0  0  0  0  0
   28.5487  -18.4901   -5.1300 C   0  0  2  0  0  0  0  0  0  0  0  0
   28.2143  -19.3191   -6.4008 C   0  0  0  0  0  0  0  0  0  0  0  0
   29.4888  -20.0848   -6.7691 C   0  0  0  0  0  0  0  0  0  0  0  0
   27.1447  -20.2810   -6.0449 C   0  0  2  0  0  0  0  0  0  0  0  0
   26.4548  -20.9663   -7.1959 N   0  0  0  0  0  0  0  0  0  0  0  0
   26.1332  -20.1398   -8.3126 C   0  0  0  0  0  0  0  0  0  0  0  0
   25.2790  -21.6465   -6.6336 O   0  0  0  0  0  0  0  0  0  0  0  0
   24.1051  -21.4621   -6.9793 O   0  0  0  0  0  0  0  0  0  0  0  0
  1  2  1  0
  2  3  2  0
  4  2  1  0
  4  5  1  0
  6  5  1  0
  7  6  1  0
  8  7  1  0
  8  9  1  6
 10  8  1  0
 10 11  2  0
 12 13  1  0
 14 13  1  0
 15 14  1  0
 16 17  1  0
 16 15  1  6
 17 10  1  0
 18 16  1  0
 19 18  2  0
 21 20  1  6
 21 22  1  0
 23 21  1  0
 24 23  1  6
 24 25  1  0
 25 18  1  0
 26 24  1  0
 26 28  1  0
 27 26  2  0
M  END
$$$$
