RML.pdb
     RDKit          3D

 28 27  0  0  1  0  0  0  0  0999 V2000
   28.8766  -17.2664  -18.4298 N   0  0  0  0  0  0  0  0  0  0  0  0
   27.4973  -17.5780  -18.4656 C   0  0  0  0  0  0  0  0  0  0  0  0
   26.9012  -18.0132  -19.5154 N   0  0  0  0  0  0  0  0  0  0  0  0
   26.7274  -17.3957  -17.2604 N   0  0  0  0  0  0  0  0  0  0  0  0
   27.3495  -16.9514  -16.0450 C   0  0  0  0  0  0  0  0  0  0  0  0
   27.9646  -18.1832  -15.3780 C   0  0  0  0  0  0  0  0  0  0  0  0
   26.9320  -18.8862  -14.4955 C   0  0  0  0  0  0  0  0  0  0  0  0
   27.6572  -20.0542  -13.8583 C   0  0  2  0  0  0  0  0  0  0  0  0
   27.9692  -21.0741  -14.8401 N   0  0  0  0  0  0  0  0  0  0  0  0
   26.8092  -20.7052  -12.8103 C   0  0  0  0  0  0  0  0  0  0  0  0
   26.0093  -21.6402  -13.0937 O   0  0  0  0  0  0  0  0  0  0  0  0
   25.8994  -18.2465  -19.5027 C   0  0  0  0  0  0  0  0  0  0  0  0
   27.0131  -19.5416   -5.6518 S   0  0  0  0  0  0  0  0  0  0  0  0
   26.5796  -21.1089   -6.4634 C   0  0  0  0  0  0  0  0  0  0  0  0
   25.5616  -20.7930   -7.9230 C   0  0  0  0  0  0  0  0  0  0  0  0
   26.3510  -20.4597   -9.1119 C   0  0  1  0  0  0  0  0  0  0  0  0
   25.8932  -20.8839  -10.4638 N   0  0  0  0  0  0  0  0  0  0  0  0
   26.8673  -20.3004  -11.4539 C   0  0  0  0  0  0  0  0  0  0  0  0
   24.5913  -20.4072  -10.9317 O   0  0  0  0  0  0  0  0  0  0  0  0
   24.4874  -19.4335  -11.7694 C   0  0  0  0  0  0  0  0  0  0  0  0
   21.4785  -21.5267  -15.0958 C   0  0  2  0  0  0  0  0  0  0  0  0
   21.0828  -21.1153  -13.6508 C   0  0  0  0  0  0  0  0  0  0  0  0
   19.9916  -22.0927  -13.2031 C   0  0  0  0  0  0  0  0  0  0  0  0
   22.2780  -21.2801  -12.7902 C   0  0  1  0  0  0  0  0  0  0  0  0
   22.1649  -20.7500  -11.3843 N   0  0  0  0  0  0  0  0  0  0  0  0
   23.3067  -20.9403  -10.5516 C   0  0  0  0  0  0  0  0  0  0  0  0
   20.9413  -21.3329  -10.8148 O   0  0  0  0  0  0  0  0  0  0  0  0
   20.7913  -22.5167  -10.4868 O   0  0  0  0  0  0  0  0  0  0  0  0
  1  2  1  0
  2  3  2  0
  4  2  1  0
  4  5  1  0
  6  5  1  0
  7  6  1  0
  8  7  1  0
  8  9  1  6
 10  8  1  0
 10 11  2  0
 12 13  1  0
 14 13  1  0
 15 14  1  0
 16 17  1  0
 16 15  1  1
 17 10  1  0
 18 16  1  0
 19 18  2  0
 21 20  1  6
 21 22  1  0
 23 21  1  0
 24 23  1  6
 24 25  1  0
 25 18  1  0
 26 24  1  0
 26 28  1  0
 27 26  2  0
M  END
$$$$
