RML.pdb
     RDKit          3D

 28 27  0  0  1  0  0  0  0  0999 V2000
   27.7770  -16.7753  -18.6488 N   0  0  0  0  0  0  0  0  0  0  0  0
   26.4235  -16.9835  -18.2942 C   0  0  0  0  0  0  0  0  0  0  0  0
   25.5230  -17.3424  -19.1351 N   0  0  0  0  0  0  0  0  0  0  0  0
   26.0419  -16.7812  -16.9188 N   0  0  0  0  0  0  0  0  0  0  0  0
   27.0147  -16.4196  -15.9265 C   0  0  0  0  0  0  0  0  0  0  0  0
   27.6677  -17.7161  -15.4433 C   0  0  0  0  0  0  0  0  0  0  0  0
   26.7269  -18.4717  -14.5034 C   0  0  0  0  0  0  0  0  0  0  0  0
   27.4477  -19.7533  -14.1371 C   0  0  2  0  0  0  0  0  0  0  0  0
   27.5553  -20.6376  -15.2807 N   0  0  0  0  0  0  0  0  0  0  0  0
   26.7033  -20.5033  -13.0766 C   0  0  0  0  0  0  0  0  0  0  0  0
   26.2421  -21.6602  -13.2850 O   0  0  0  0  0  0  0  0  0  0  0  0
   24.5527  -17.5124  -18.8386 C   0  0  0  0  0  0  0  0  0  0  0  0
   28.1163  -20.4385   -6.6616 S   0  0  0  0  0  0  0  0  0  0  0  0
   26.3323  -20.0941   -6.7018 C   0  0  0  0  0  0  0  0  0  0  0  0
   25.5978  -20.7900   -8.1994 C   0  0  0  0  0  0  0  0  0  0  0  0
   26.2277  -20.3001   -9.4285 C   0  0  1  0  0  0  0  0  0  0  0  0
   25.7283  -20.7431  -10.7595 N   0  0  0  0  0  0  0  0  0  0  0  0
   26.4836  -19.9475  -11.7922 C   0  0  0  0  0  0  0  0  0  0  0  0
   24.3237  -20.4954  -11.0860 O   0  0  0  0  0  0  0  0  0  0  0  0
   23.8690  -19.3025  -11.2615 C   0  0  0  0  0  0  0  0  0  0  0  0
   20.6756  -21.8592   -7.6336 C   0  0  2  0  0  0  0  0  0  0  0  0
   21.2711  -22.2386   -9.0175 C   0  0  0  0  0  0  0  0  0  0  0  0
   20.2974  -23.2365   -9.6518 C   0  0  0  0  0  0  0  0  0  0  0  0
   21.3235  -21.0073   -9.8404 C   0  0  2  0  0  0  0  0  0  0  0  0
   21.9227  -21.1499  -11.2155 N   0  0  0  0  0  0  0  0  0  0  0  0
   23.3043  -21.4999  -11.2614 C   0  0  0  0  0  0  0  0  0  0  0  0
   21.6277  -19.9004  -11.9318 O   0  0  0  0  0  0  0  0  0  0  0  0
   20.6936  -19.7269  -12.7249 O   0  0  0  0  0  0  0  0  0  0  0  0
  1  2  1  0
  2  3  2  0
  4  2  1  0
  4  5  1  0
  6  5  1  0
  7  6  1  0
  8  7  1  0
  8  9  1  6
 10  8  1  0
 10 11  2  0
 12 13  1  0
 14 13  1  0
 15 14  1  0
 16 17  1  0
 16 15  1  6
 17 10  1  0
 18 16  1  0
 19 18  2  0
 21 20  1  1
 21 22  1  0
 23 21  1  0
 24 23  1  6
 24 25  1  0
 25 18  1  0
 26 24  1  0
 26 28  1  0
 27 26  2  0
M  END
$$$$
