RML.pdb
     RDKit          3D

 28 27  0  0  1  0  0  0  0  0999 V2000
   27.7059  -21.1030  -20.7175 N   0  0  0  0  0  0  0  0  0  0  0  0
   27.1759  -19.8128  -20.9525 C   0  0  0  0  0  0  0  0  0  0  0  0
   26.6137  -19.4730  -22.0549 N   0  0  0  0  0  0  0  0  0  0  0  0
   27.2748  -18.8345  -19.8982 N   0  0  0  0  0  0  0  0  0  0  0  0
   27.6563  -19.2165  -18.5677 C   0  0  0  0  0  0  0  0  0  0  0  0
   26.7885  -20.4145  -18.1774 C   0  0  0  0  0  0  0  0  0  0  0  0
   25.9222  -20.0754  -16.9633 C   0  0  0  0  0  0  0  0  0  0  0  0
   26.7722  -20.3852  -15.7477 C   0  0  2  0  0  0  0  0  0  0  0  0
   27.8093  -21.3465  -16.0663 N   0  0  0  0  0  0  0  0  0  0  0  0
   25.9451  -20.9851  -14.6534 C   0  0  0  0  0  0  0  0  0  0  0  0
   25.4714  -22.1519  -14.7465 O   0  0  0  0  0  0  0  0  0  0  0  0
   26.2157  -18.5332  -22.1842 C   0  0  0  0  0  0  0  0  0  0  0  0
   26.6790  -20.9405   -8.3982 S   0  0  0  0  0  0  0  0  0  0  0  0
   25.0732  -21.6109   -8.9225 C   0  0  0  0  0  0  0  0  0  0  0  0
   24.2060  -20.4104   -9.9585 C   0  0  0  0  0  0  0  0  0  0  0  0
   24.9412  -20.0693  -11.1795 C   0  0  1  0  0  0  0  0  0  0  0  0
   24.8085  -20.9126  -12.3995 N   0  0  0  0  0  0  0  0  0  0  0  0
   25.6578  -20.2696  -13.4649 C   0  0  0  0  0  0  0  0  0  0  0  0
   23.4890  -21.0209  -13.0224 O   0  0  0  0  0  0  0  0  0  0  0  0
   22.9918  -20.0635  -13.7274 C   0  0  0  0  0  0  0  0  0  0  0  0
   19.2644  -24.5219  -15.5457 C   0  0  2  0  0  0  0  0  0  0  0  0
   19.3365  -23.3785  -14.4963 C   0  0  0  0  0  0  0  0  0  0  0  0
   18.2605  -23.6805  -13.4486 C   0  0  0  0  0  0  0  0  0  0  0  0
   20.6742  -23.4311  -13.8609 C   0  0  1  0  0  0  0  0  0  0  0  0
   21.2996  -22.1050  -13.5136 N   0  0  0  0  0  0  0  0  0  0  0  0
   22.6085  -22.1603  -12.9504 C   0  0  0  0  0  0  0  0  0  0  0  0
   20.3381  -21.4022  -12.6517 O   0  0  0  0  0  0  0  0  0  0  0  0
   20.2456  -21.5258  -11.4238 O   0  0  0  0  0  0  0  0  0  0  0  0
  1  2  1  0
  2  3  2  0
  4  2  1  0
  4  5  1  0
  6  5  1  0
  7  6  1  0
  8  7  1  0
  8  9  1  6
 10  8  1  0
 10 11  2  0
 12 13  1  0
 14 13  1  0
 15 14  1  0
 16 17  1  0
 16 15  1  1
 17 10  1  0
 18 16  1  0
 19 18  2  0
 21 20  1  6
 21 22  1  0
 23 21  1  0
 24 23  1  6
 24 25  1  0
 25 18  1  0
 26 24  1  0
 26 28  1  0
 27 26  2  0
M  END
$$$$
