RML.pdb
     RDKit          3D

 28 27  0  0  1  0  0  0  0  0999 V2000
   26.1153  -16.3903  -15.4602 N   0  0  0  0  0  0  0  0  0  0  0  0
   24.8539  -16.7204  -16.0084 C   0  0  0  0  0  0  0  0  0  0  0  0
   24.3704  -16.1533  -17.0531 N   0  0  0  0  0  0  0  0  0  0  0  0
   24.0766  -17.7454  -15.3575 N   0  0  0  0  0  0  0  0  0  0  0  0
   24.5255  -18.3503  -14.1350 C   0  0  0  0  0  0  0  0  0  0  0  0
   24.6240  -19.8559  -14.3878 C   0  0  0  0  0  0  0  0  0  0  0  0
   24.4051  -20.6326  -13.0885 C   0  0  0  0  0  0  0  0  0  0  0  0
   25.6712  -20.4484  -12.2766 C   0  0  2  0  0  0  0  0  0  0  0  0
   26.7938  -21.1222  -12.8989 N   0  0  0  0  0  0  0  0  0  0  0  0
   25.5197  -21.0321  -10.9064 C   0  0  0  0  0  0  0  0  0  0  0  0
   25.6963  -22.2633  -10.6888 O   0  0  0  0  0  0  0  0  0  0  0  0
   23.4709  -16.4504  -17.4543 C   0  0  0  0  0  0  0  0  0  0  0  0
   26.9693  -19.1775   -4.6810 S   0  0  0  0  0  0  0  0  0  0  0  0
   27.8626  -18.8396   -6.2273 C   0  0  0  0  0  0  0  0  0  0  0  0
   27.1714  -19.8272   -7.5739 C   0  0  0  0  0  0  0  0  0  0  0  0
   25.7220  -20.0133   -7.4635 C   0  0  2  0  0  0  0  0  0  0  0  0
   24.9955  -20.8695   -8.4414 N   0  0  0  0  0  0  0  0  0  0  0  0
   25.1713  -20.2280   -9.7932 C   0  0  0  0  0  0  0  0  0  0  0  0
   23.5446  -20.9973   -8.3011 O   0  0  0  0  0  0  0  0  0  0  0  0
   22.7319  -20.2204   -8.9308 C   0  0  0  0  0  0  0  0  0  0  0  0
   18.9203  -24.0956   -8.2540 C   0  0  2  0  0  0  0  0  0  0  0  0
   19.3622  -23.4104   -6.9315 C   0  0  0  0  0  0  0  0  0  0  0  0
   18.9106  -24.3298   -5.7926 C   0  0  0  0  0  0  0  0  0  0  0  0
   20.8415  -23.3228   -6.9396 C   0  0  1  0  0  0  0  0  0  0  0  0
   21.4315  -22.0661   -7.5252 N   0  0  0  0  0  0  0  0  0  0  0  0
   22.8537  -21.9689   -7.4903 C   0  0  0  0  0  0  0  0  0  0  0  0
   20.7671  -20.9398   -6.8533 O   0  0  0  0  0  0  0  0  0  0  0  0
   21.2613  -20.2392   -5.9608 O   0  0  0  0  0  0  0  0  0  0  0  0
  1  2  1  0
  2  3  2  0
  4  2  1  0
  4  5  1  0
  6  5  1  0
  7  6  1  0
  8  7  1  0
  8  9  1  6
 10  8  1  0
 10 11  2  0
 12 13  1  0
 14 13  1  0
 15 14  1  0
 16 17  1  0
 16 15  1  6
 17 10  1  0
 18 16  1  0
 19 18  2  0
 21 20  1  1
 21 22  1  0
 23 21  1  0
 24 23  1  6
 24 25  1  0
 25 18  1  0
 26 24  1  0
 26 28  1  0
 27 26  2  0
M  END
$$$$
