RML.pdb
     RDKit          3D

 28 27  0  0  1  0  0  0  0  0999 V2000
   23.3071  -20.6301  -19.5728 N   0  0  0  0  0  0  0  0  0  0  0  0
   23.3501  -19.3728  -18.9261 C   0  0  0  0  0  0  0  0  0  0  0  0
   22.3045  -18.7687  -18.4919 N   0  0  0  0  0  0  0  0  0  0  0  0
   24.6347  -18.7429  -18.7484 N   0  0  0  0  0  0  0  0  0  0  0  0
   25.8448  -19.4042  -19.1486 C   0  0  0  0  0  0  0  0  0  0  0  0
   26.1199  -20.5011  -18.1182 C   0  0  0  0  0  0  0  0  0  0  0  0
   26.8106  -19.9166  -16.8851 C   0  0  0  0  0  0  0  0  0  0  0  0
   27.9902  -20.8244  -16.6010 C   0  0  2  0  0  0  0  0  0  0  0  0
   27.8819  -22.0681  -17.3377 N   0  0  0  0  0  0  0  0  0  0  0  0
   28.0532  -21.1837  -15.1490 C   0  0  0  0  0  0  0  0  0  0  0  0
   27.3856  -22.1456  -14.6763 O   0  0  0  0  0  0  0  0  0  0  0  0
   22.3666  -17.8374  -18.0594 C   0  0  0  0  0  0  0  0  0  0  0  0
   31.5840  -22.4395   -8.8764 S   0  0  0  0  0  0  0  0  0  0  0  0
   31.1081  -22.1462  -10.6057 C   0  0  0  0  0  0  0  0  0  0  0  0
   30.4490  -20.4740  -10.7948 C   0  0  0  0  0  0  0  0  0  0  0  0
   30.0501  -20.1667  -12.1710 C   0  0  2  0  0  0  0  0  0  0  0  0
   28.8774  -20.8478  -12.7858 N   0  0  0  0  0  0  0  0  0  0  0  0
   28.8652  -20.4597  -14.2414 C   0  0  0  0  0  0  0  0  0  0  0  0
   27.5418  -20.4801  -12.3147 O   0  0  0  0  0  0  0  0  0  0  0  0
   27.0322  -19.3219  -12.5589 C   0  0  0  0  0  0  0  0  0  0  0  0
   22.7843  -22.0989  -13.6607 C   0  0  1  0  0  0  0  0  0  0  0  0
   23.9331  -21.1753  -13.1698 C   0  0  0  0  0  0  0  0  0  0  0  0
   23.4286  -19.7366  -13.3176 C   0  0  0  0  0  0  0  0  0  0  0  0
   24.1709  -21.4715  -11.7374 C   0  0  2  0  0  0  0  0  0  0  0  0
   25.3847  -20.8296  -11.1169 N   0  0  0  0  0  0  0  0  0  0  0  0
   26.6472  -21.3224  -11.5604 C   0  0  0  0  0  0  0  0  0  0  0  0
   25.2133  -20.9320   -9.6603 O   0  0  0  0  0  0  0  0  0  0  0  0
   24.2850  -20.4391   -9.0069 O   0  0  0  0  0  0  0  0  0  0  0  0
  1  2  1  0
  2  3  2  0
  4  2  1  0
  4  5  1  0
  6  5  1  0
  7  6  1  0
  8  7  1  0
  8  9  1  6
 10  8  1  0
 10 11  2  0
 12 13  1  0
 14 13  1  0
 15 14  1  0
 16 17  1  0
 16 15  1  6
 17 10  1  0
 18 16  1  0
 19 18  2  0
 21 20  1  6
 21 22  1  0
 23 21  1  0
 24 23  1  6
 24 25  1  0
 25 18  1  0
 26 24  1  0
 26 28  1  0
 27 26  2  0
M  END
$$$$
