RML.pdb
     RDKit          3D

 28 27  0  0  1  0  0  0  0  0999 V2000
   17.5400  -23.7739  -10.0631 N   0  0  0  0  0  0  0  0  0  0  0  0
   18.8939  -24.0333   -9.7459 C   0  0  0  0  0  0  0  0  0  0  0  0
   19.2844  -24.4100   -8.5830 N   0  0  0  0  0  0  0  0  0  0  0  0
   19.8800  -23.8643  -10.7838 N   0  0  0  0  0  0  0  0  0  0  0  0
   19.4978  -23.4701  -12.1106 C   0  0  0  0  0  0  0  0  0  0  0  0
   19.2443  -21.9618  -12.0762 C   0  0  0  0  0  0  0  0  0  0  0  0
   20.5493  -21.2049  -11.8245 C   0  0  0  0  0  0  0  0  0  0  0  0
   21.0683  -20.8067  -13.1913 C   0  0  2  0  0  0  0  0  0  0  0  0
   21.2631  -21.9691  -14.0354 N   0  0  0  0  0  0  0  0  0  0  0  0
   22.3950  -20.1216  -13.0827 C   0  0  0  0  0  0  0  0  0  0  0  0
   22.5389  -19.0614  -12.4122 O   0  0  0  0  0  0  0  0  0  0  0  0
   20.2819  -24.5499   -8.3738 C   0  0  0  0  0  0  0  0  0  0  0  0
   27.3235  -22.0818  -10.6642 S   0  0  0  0  0  0  0  0  0  0  0  0
   28.2868  -21.2701  -11.9743 C   0  0  0  0  0  0  0  0  0  0  0  0
   27.2263  -20.1631  -12.9315 C   0  0  0  0  0  0  0  0  0  0  0  0
   25.8267  -20.5961  -12.9650 C   0  0  1  0  0  0  0  0  0  0  0  0
   24.8159  -19.8198  -13.7350 N   0  0  0  0  0  0  0  0  0  0  0  0
   23.5478  -20.6333  -13.7280 C   0  0  0  0  0  0  0  0  0  0  0  0
   25.0685  -19.5783  -15.1559 O   0  0  0  0  0  0  0  0  0  0  0  0
   24.1530  -19.7523  -16.0460 C   0  0  0  0  0  0  0  0  0  0  0  0
   25.9849  -14.2215  -15.2551 C   0  0  2  0  0  0  0  0  0  0  0  0
   26.2622  -15.3454  -16.2913 C   0  0  0  0  0  0  0  0  0  0  0  0
   27.6757  -15.1025  -16.8294 C   0  0  0  0  0  0  0  0  0  0  0  0
   26.2217  -16.6417  -15.5745 C   0  0  1  0  0  0  0  0  0  0  0  0
   26.3767  -17.8773  -16.4228 N   0  0  0  0  0  0  0  0  0  0  0  0
   26.3096  -19.1223  -15.7307 C   0  0  0  0  0  0  0  0  0  0  0  0
   27.6275  -17.7121  -17.1776 O   0  0  0  0  0  0  0  0  0  0  0  0
   28.7657  -17.9338  -16.7451 O   0  0  0  0  0  0  0  0  0  0  0  0
  1  2  1  0
  2  3  2  0
  4  2  1  0
  4  5  1  0
  6  5  1  0
  7  6  1  0
  8  7  1  0
  8  9  1  6
 10  8  1  0
 10 11  2  0
 12 13  1  0
 14 13  1  0
 15 14  1  0
 16 17  1  0
 16 15  1  1
 17 10  1  0
 18 16  1  0
 19 18  2  0
 21 20  1  6
 21 22  1  0
 23 21  1  0
 24 23  1  6
 24 25  1  0
 25 18  1  0
 26 24  1  0
 26 28  1  0
 27 26  2  0
M  END
$$$$
