RML.pdb
     RDKit          3D

 28 27  0  0  1  0  0  0  0  0999 V2000
   29.3486  -22.9275  -18.1164 N   0  0  0  0  0  0  0  0  0  0  0  0
   28.8599  -21.6901  -18.5969 C   0  0  0  0  0  0  0  0  0  0  0  0
   28.5648  -21.4803  -19.8281 N   0  0  0  0  0  0  0  0  0  0  0  0
   28.6867  -20.6145  -17.6528 N   0  0  0  0  0  0  0  0  0  0  0  0
   28.9958  -20.7936  -16.2620 C   0  0  0  0  0  0  0  0  0  0  0  0
   27.7372  -21.3442  -15.5888 C   0  0  0  0  0  0  0  0  0  0  0  0
   27.2042  -20.3506  -14.5553 C   0  0  0  0  0  0  0  0  0  0  0  0
   25.9590  -20.9869  -13.9717 C   0  0  2  0  0  0  0  0  0  0  0  0
   24.8593  -20.9450  -14.9153 N   0  0  0  0  0  0  0  0  0  0  0  0
   25.5073  -20.2562  -12.7455 C   0  0  0  0  0  0  0  0  0  0  0  0
   25.2429  -19.0218  -12.7712 O   0  0  0  0  0  0  0  0  0  0  0  0
   28.2681  -20.5513  -20.1554 C   0  0  0  0  0  0  0  0  0  0  0  0
   20.4904  -20.0733   -9.1720 S   0  0  0  0  0  0  0  0  0  0  0  0
   20.8195  -20.6728  -10.8558 C   0  0  0  0  0  0  0  0  0  0  0  0
   22.5496  -20.3850  -11.2919 C   0  0  0  0  0  0  0  0  0  0  0  0
   23.4462  -20.4159  -10.1331 C   0  0  2  0  0  0  0  0  0  0  0  0
   24.8998  -20.1378  -10.2973 N   0  0  0  0  0  0  0  0  0  0  0  0
   25.3568  -20.9183  -11.5021 C   0  0  0  0  0  0  0  0  0  0  0  0
   25.8085  -20.5703   -9.2352 O   0  0  0  0  0  0  0  0  0  0  0  0
   26.2756  -21.7705   -9.1901 C   0  0  0  0  0  0  0  0  0  0  0  0
   29.8894  -18.7479   -4.9209 C   0  0  2  0  0  0  0  0  0  0  0  0
   28.8619  -19.8373   -5.3347 C   0  0  0  0  0  0  0  0  0  0  0  0
   27.8886  -19.9861   -4.1613 C   0  0  0  0  0  0  0  0  0  0  0  0
   28.1306  -19.3410   -6.5242 C   0  0  1  0  0  0  0  0  0  0  0  0
   27.1589  -20.3025   -7.1580 N   0  0  0  0  0  0  0  0  0  0  0  0
   26.2957  -19.7535   -8.1515 C   0  0  0  0  0  0  0  0  0  0  0  0
   26.4250  -20.9422   -6.0565 O   0  0  0  0  0  0  0  0  0  0  0  0
   25.2684  -20.6728   -5.7079 O   0  0  0  0  0  0  0  0  0  0  0  0
  1  2  1  0
  2  3  2  0
  4  2  1  0
  4  5  1  0
  6  5  1  0
  7  6  1  0
  8  7  1  0
  8  9  1  6
 10  8  1  0
 10 11  2  0
 12 13  1  0
 14 13  1  0
 15 14  1  0
 16 17  1  0
 16 15  1  6
 17 10  1  0
 18 16  1  0
 19 18  2  0
 21 20  1  1
 21 22  1  0
 23 21  1  0
 24 23  1  6
 24 25  1  0
 25 18  1  0
 26 24  1  0
 26 28  1  0
 27 26  2  0
M  END
$$$$
