RML.pdb
     RDKit          3D

 28 27  0  0  1  0  0  0  0  0999 V2000
   31.3579  -24.6521  -17.1669 N   0  0  0  0  0  0  0  0  0  0  0  0
   30.2920  -25.4367  -17.6660 C   0  0  0  0  0  0  0  0  0  0  0  0
   30.3603  -26.7108  -17.8034 N   0  0  0  0  0  0  0  0  0  0  0  0
   29.0705  -24.7671  -18.0376 N   0  0  0  0  0  0  0  0  0  0  0  0
   29.0876  -23.4231  -18.5427 C   0  0  0  0  0  0  0  0  0  0  0  0
   29.4858  -22.5109  -17.3809 C   0  0  0  0  0  0  0  0  0  0  0  0
   28.3135  -21.6155  -16.9768 C   0  0  0  0  0  0  0  0  0  0  0  0
   27.7872  -22.1836  -15.6743 C   0  0  2  0  0  0  0  0  0  0  0  0
   26.9025  -23.3067  -15.9137 N   0  0  0  0  0  0  0  0  0  0  0  0
   26.9951  -21.1590  -14.9233 C   0  0  0  0  0  0  0  0  0  0  0  0
   27.4673  -20.0167  -14.6654 O   0  0  0  0  0  0  0  0  0  0  0  0
   29.6037  -27.2405  -18.2562 C   0  0  0  0  0  0  0  0  0  0  0  0
   21.8455  -19.1236  -16.9742 S   0  0  0  0  0  0  0  0  0  0  0  0
   21.2485  -19.0542  -15.2590 C   0  0  0  0  0  0  0  0  0  0  0  0
   22.6370  -19.1945  -14.1106 C   0  0  0  0  0  0  0  0  0  0  0  0
   23.7125  -20.0540  -14.6129 C   0  0  1  0  0  0  0  0  0  0  0  0
   24.9035  -20.3429  -13.7673 N   0  0  0  0  0  0  0  0  0  0  0  0
   25.6802  -21.4266  -14.4688 C   0  0  0  0  0  0  0  0  0  0  0  0
   24.6817  -20.8841  -12.4260 O   0  0  0  0  0  0  0  0  0  0  0  0
   24.2230  -22.0744  -12.2430 C   0  0  0  0  0  0  0  0  0  0  0  0
   27.3188  -19.5260   -7.5645 C   0  0  2  0  0  0  0  0  0  0  0  0
   26.7730  -20.3139   -8.7872 C   0  0  0  0  0  0  0  0  0  0  0  0
   27.2610  -21.7572   -8.6284 C   0  0  0  0  0  0  0  0  0  0  0  0
   25.2929  -20.2822   -8.7218 C   0  0  2  0  0  0  0  0  0  0  0  0
   24.5611  -20.7855   -9.9390 N   0  0  0  0  0  0  0  0  0  0  0  0
   24.9434  -20.2024  -11.1828 C   0  0  0  0  0  0  0  0  0  0  0  0
   23.1262  -20.6345   -9.6564 O   0  0  0  0  0  0  0  0  0  0  0  0
   22.3404  -19.9104  -10.2807 O   0  0  0  0  0  0  0  0  0  0  0  0
  1  2  1  0
  2  3  2  0
  4  2  1  0
  4  5  1  0
  6  5  1  0
  7  6  1  0
  8  7  1  0
  8  9  1  6
 10  8  1  0
 10 11  2  0
 12 13  1  0
 14 13  1  0
 15 14  1  0
 16 17  1  0
 16 15  1  6
 17 10  1  0
 18 16  1  0
 19 18  2  0
 21 20  1  6
 21 22  1  0
 23 21  1  0
 24 23  1  6
 24 25  1  0
 25 18  1  0
 26 24  1  0
 26 28  1  0
 27 26  2  0
M  END
$$$$
