RML.pdb
     RDKit          3D

 28 27  0  0  1  0  0  0  0  0999 V2000
   20.3122  -28.8371  -10.4610 N   0  0  0  0  0  0  0  0  0  0  0  0
   19.3426  -28.5857  -11.4598 C   0  0  0  0  0  0  0  0  0  0  0  0
   18.9942  -29.4552  -12.3370 N   0  0  0  0  0  0  0  0  0  0  0  0
   18.7177  -27.2868  -11.4895 N   0  0  0  0  0  0  0  0  0  0  0  0
   19.0250  -26.2950  -10.4977 C   0  0  0  0  0  0  0  0  0  0  0  0
   18.4025  -26.7665   -9.1821 C   0  0  0  0  0  0  0  0  0  0  0  0
   18.5744  -25.7028   -8.0966 C   0  0  0  0  0  0  0  0  0  0  0  0
   17.1728  -25.3034   -7.6815 C   0  0  2  0  0  0  0  0  0  0  0  0
   16.6797  -24.2078   -8.4927 N   0  0  0  0  0  0  0  0  0  0  0  0
   17.1469  -24.8368   -6.2593 C   0  0  0  0  0  0  0  0  0  0  0  0
   17.6287  -23.7197   -5.9210 O   0  0  0  0  0  0  0  0  0  0  0  0
   18.2883  -29.2382  -13.0532 C   0  0  0  0  0  0  0  0  0  0  0  0
   13.0307  -22.2283   -0.6932 S   0  0  0  0  0  0  0  0  0  0  0  0
   13.2972  -23.0807   -2.2760 C   0  0  0  0  0  0  0  0  0  0  0  0
   14.9844  -23.7232   -2.3605 C   0  0  0  0  0  0  0  0  0  0  0  0
   15.2688  -24.4253   -3.6150 C   0  0  2  0  0  0  0  0  0  0  0  0
   16.5749  -25.1118   -3.8150 N   0  0  0  0  0  0  0  0  0  0  0  0
   16.5803  -25.6286   -5.2302 C   0  0  0  0  0  0  0  0  0  0  0  0
   16.8604  -26.2987   -3.0083 O   0  0  0  0  0  0  0  0  0  0  0  0
   16.4548  -27.4704   -3.3596 C   0  0  0  0  0  0  0  0  0  0  0  0
   21.4521  -28.4098   -1.4348 C   0  0  1  0  0  0  0  0  0  0  0  0
   20.0101  -28.1358   -1.9443 C   0  0  0  0  0  0  0  0  0  0  0  0
   19.5977  -29.3619   -2.7647 C   0  0  0  0  0  0  0  0  0  0  0  0
   19.1276  -28.0131   -0.7602 C   0  0  2  0  0  0  0  0  0  0  0  0
   17.7242  -27.5311   -1.0222 N   0  0  0  0  0  0  0  0  0  0  0  0
   17.6084  -26.3263   -1.7760 C   0  0  0  0  0  0  0  0  0  0  0  0
   17.0588  -27.4504    0.2863 O   0  0  0  0  0  0  0  0  0  0  0  0
   16.8788  -28.3965    1.0636 O   0  0  0  0  0  0  0  0  0  0  0  0
  1  2  1  0
  2  3  2  0
  4  2  1  0
  4  5  1  0
  6  5  1  0
  7  6  1  0
  8  7  1  0
  8  9  1  6
 10  8  1  0
 10 11  2  0
 12 13  1  0
 14 13  1  0
 15 14  1  0
 16 17  1  0
 16 15  1  6
 17 10  1  0
 18 16  1  0
 19 18  2  0
 21 20  1  6
 21 22  1  0
 23 21  1  0
 24 23  1  6
 24 25  1  0
 25 18  1  0
 26 24  1  0
 26 28  1  0
 27 26  2  0
M  END
$$$$
