GTY.pdb
     RDKit          3D

 24 24  0  0  1  0  0  0  0  0999 V2000
   30.0675  -24.2334  -16.7183 N   0  0  0  0  0  0  0  0  0  0  0  0
   28.9436  -23.6043  -17.3576 C   0  0  0  0  0  0  0  0  0  0  0  0
   28.2599  -22.6831  -16.4107 C   0  0  0  0  0  0  0  0  0  0  0  0
   28.5563  -22.6513  -15.1776 O   0  0  0  0  0  0  0  0  0  0  0  0
   27.8994  -19.0175  -17.0826 C   0  0  0  0  0  0  0  0  0  0  0  0
   26.5059  -19.5400  -16.8146 C   0  0  1  0  0  0  0  0  0  0  0  0
   25.8323  -19.5933  -18.0249 O   0  0  0  0  0  0  0  0  0  0  0  0
   26.5359  -20.8734  -16.1139 C   0  0  2  0  0  0  0  0  0  0  0  0
   27.2482  -21.8197  -16.9149 N   0  0  0  0  0  0  0  0  0  0  0  0
   25.1490  -21.3132  -15.8121 C   0  0  0  0  0  0  0  0  0  0  0  0
   24.5853  -22.1228  -16.5812 O   0  0  0  0  0  0  0  0  0  0  0  0
   17.5701  -22.3716  -11.4721 O   0  0  0  0  0  0  0  0  0  0  0  0
   18.8882  -22.0966  -11.8041 C   0  0  0  0  0  0  0  0  0  0  0  0
   19.3411  -20.8019  -11.8759 C   0  0  0  0  0  0  0  0  0  0  0  0
   20.6491  -20.5655  -12.2065 C   0  0  0  0  0  0  0  0  0  0  0  0
   21.5500  -21.5713  -12.4757 C   0  0  0  0  0  0  0  0  0  0  0  0
   22.9345  -21.2452  -12.8245 C   0  0  0  0  0  0  0  0  0  0  0  0
   23.1306  -21.1373  -14.3377 C   0  0  2  0  0  0  0  0  0  0  0  0
   24.4926  -20.8074  -14.6590 N   0  0  0  0  0  0  0  0  0  0  0  0
   22.1418  -20.2442  -14.9597 C   0  0  0  0  0  0  0  0  0  0  0  0
   22.4573  -18.8958  -15.0405 O   0  0  0  0  0  0  0  0  0  0  0  0
   21.0955  -22.8699  -12.4037 C   0  0  0  0  0  0  0  0  0  0  0  0
   19.7692  -23.1271  -12.0689 C   0  0  0  0  0  0  0  0  0  0  0  0
   21.0404  -20.6090  -15.4202 O   0  0  0  0  0  0  0  0  0  0  0  0
  1  2  1  0
  3  2  1  0
  3  9  1  0
  4  3  2  0
  6  5  1  6
  7  6  1  0
  8  6  1  0
  8  9  1  6
  8 10  1  0
 10 19  1  0
 11 10  2  0
 13 12  1  0
 14 13  2  0
 15 14  1  0
 16 22  1  0
 16 15  2  0
 17 16  1  0
 18 17  1  1
 19 18  1  0
 20 21  1  0
 20 18  1  0
 22 23  2  0
 23 13  1  0
 24 20  2  0
M  END
$$$$
