GTY.pdb
     RDKit          3D

 24 24  0  0  1  0  0  0  0  0999 V2000
   28.9438  -29.2864  -17.0408 N   0  0  0  0  0  0  0  0  0  0  0  0
   27.7750  -28.5147  -17.3666 C   0  0  0  0  0  0  0  0  0  0  0  0
   27.9672  -27.0940  -16.9699 C   0  0  0  0  0  0  0  0  0  0  0  0
   28.9698  -26.7200  -16.2887 O   0  0  0  0  0  0  0  0  0  0  0  0
   28.1475  -24.2858  -19.2989 C   0  0  0  0  0  0  0  0  0  0  0  0
   27.0005  -23.9568  -18.3699 C   0  0  1  0  0  0  0  0  0  0  0  0
   25.8185  -24.1859  -19.0568 O   0  0  0  0  0  0  0  0  0  0  0  0
   27.0808  -24.7411  -17.0860 C   0  0  2  0  0  0  0  0  0  0  0  0
   26.9927  -26.1392  -17.3722 N   0  0  0  0  0  0  0  0  0  0  0  0
   26.0201  -24.2837  -16.1512 C   0  0  0  0  0  0  0  0  0  0  0  0
   24.9593  -24.9408  -16.0644 O   0  0  0  0  0  0  0  0  0  0  0  0
   22.3053  -19.9330   -9.4707 O   0  0  0  0  0  0  0  0  0  0  0  0
   23.1937  -20.3451  -10.4526 C   0  0  0  0  0  0  0  0  0  0  0  0
   23.0407  -19.9398  -11.7560 C   0  0  0  0  0  0  0  0  0  0  0  0
   23.9363  -20.3652  -12.7010 C   0  0  0  0  0  0  0  0  0  0  0  0
   24.9993  -21.1909  -12.4113 C   0  0  0  0  0  0  0  0  0  0  0  0
   25.9178  -21.6080  -13.4731 C   0  0  0  0  0  0  0  0  0  0  0  0
   25.2883  -22.6569  -14.3915 C   0  0  2  0  0  0  0  0  0  0  0  0
   26.2315  -23.1128  -15.3763 N   0  0  0  0  0  0  0  0  0  0  0  0
   24.0127  -22.1974  -14.9606 C   0  0  0  0  0  0  0  0  0  0  0  0
   22.8465  -22.5913  -14.3209 O   0  0  0  0  0  0  0  0  0  0  0  0
   25.1525  -21.5973  -11.1039 C   0  0  0  0  0  0  0  0  0  0  0  0
   24.2512  -21.1738  -10.1316 C   0  0  0  0  0  0  0  0  0  0  0  0
   23.9012  -21.4796  -15.9758 O   0  0  0  0  0  0  0  0  0  0  0  0
  1  2  1  0
  3  2  1  0
  3  9  1  0
  4  3  2  0
  6  5  1  6
  7  6  1  0
  8  6  1  0
  8  9  1  6
  8 10  1  0
 10 19  1  0
 11 10  2  0
 13 12  1  0
 14 13  2  0
 15 14  1  0
 16 22  1  0
 16 15  2  0
 17 16  1  0
 18 17  1  6
 19 18  1  0
 20 21  1  0
 20 18  1  0
 22 23  2  0
 23 13  1  0
 24 20  2  0
M  END
$$$$
