GTY.pdb
     RDKit          3D

 24 24  0  0  1  0  0  0  0  0999 V2000
   16.9902  -12.6972  -15.4344 N   0  0  0  0  0  0  0  0  0  0  0  0
   16.3165  -11.4427  -15.2347 C   0  0  0  0  0  0  0  0  0  0  0  0
   17.1548  -10.3209  -15.7363 C   0  0  0  0  0  0  0  0  0  0  0  0
   17.7021  -10.3550  -16.8802 O   0  0  0  0  0  0  0  0  0  0  0  0
   16.0830   -6.9492  -16.3103 C   0  0  0  0  0  0  0  0  0  0  0  0
   17.1860   -6.8211  -15.2837 C   0  0  1  0  0  0  0  0  0  0  0  0
   16.5941   -6.6005  -14.0498 O   0  0  0  0  0  0  0  0  0  0  0  0
   18.0879   -8.0279  -15.2814 C   0  0  2  0  0  0  0  0  0  0  0  0
   17.3393   -9.1850  -14.9004 N   0  0  0  0  0  0  0  0  0  0  0  0
   19.2511   -7.7836  -14.3894 C   0  0  0  0  0  0  0  0  0  0  0  0
   19.1424   -8.0236  -13.1666 O   0  0  0  0  0  0  0  0  0  0  0  0
   24.0219   -3.6953  -19.0225 O   0  0  0  0  0  0  0  0  0  0  0  0
   23.7458   -4.6078  -18.0154 C   0  0  0  0  0  0  0  0  0  0  0  0
   24.4074   -4.5515  -16.8131 C   0  0  0  0  0  0  0  0  0  0  0  0
   24.1103   -5.4680  -15.8396 C   0  0  0  0  0  0  0  0  0  0  0  0
   23.1692   -6.4596  -16.0029 C   0  0  0  0  0  0  0  0  0  0  0  0
   22.9033   -7.4076  -14.9187 C   0  0  0  0  0  0  0  0  0  0  0  0
   21.6336   -7.0473  -14.1454 C   0  0  2  0  0  0  0  0  0  0  0  0
   20.4602   -7.2843  -14.9416 N   0  0  0  0  0  0  0  0  0  0  0  0
   21.7002   -5.6932  -13.5760 C   0  0  0  0  0  0  0  0  0  0  0  0
   22.5003   -5.5065  -12.4583 O   0  0  0  0  0  0  0  0  0  0  0  0
   22.5056   -6.5159  -17.2090 C   0  0  0  0  0  0  0  0  0  0  0  0
   22.7957   -5.5918  -18.2085 C   0  0  0  0  0  0  0  0  0  0  0  0
   21.0907   -4.7000  -14.0234 O   0  0  0  0  0  0  0  0  0  0  0  0
  1  2  1  0
  3  2  1  0
  3  9  1  0
  4  3  2  0
  6  5  1  6
  7  6  1  0
  8  6  1  0
  8  9  1  1
  8 10  1  0
 10 19  1  0
 11 10  2  0
 13 12  1  0
 14 13  2  0
 15 14  1  0
 16 22  1  0
 16 15  2  0
 17 16  1  0
 18 17  1  6
 19 18  1  0
 20 21  1  0
 20 18  1  0
 22 23  2  0
 23 13  1  0
 24 20  2  0
M  END
$$$$
