GTY.pdb
     RDKit          3D

 24 24  0  0  1  0  0  0  0  0999 V2000
   31.3682  -23.7693  -18.8622 N   0  0  0  0  0  0  0  0  0  0  0  0
   29.9388  -23.9103  -18.7949 C   0  0  0  0  0  0  0  0  0  0  0  0
   29.3326  -22.7189  -18.1424 C   0  0  0  0  0  0  0  0  0  0  0  0
   30.0299  -21.8935  -17.4777 O   0  0  0  0  0  0  0  0  0  0  0  0
   25.5089  -19.6527  -18.1783 C   0  0  0  0  0  0  0  0  0  0  0  0
   26.2599  -20.8483  -18.7200 C   0  0  1  0  0  0  0  0  0  0  0  0
   26.8806  -20.4620  -19.8977 O   0  0  0  0  0  0  0  0  0  0  0  0
   27.2334  -21.3989  -17.7106 C   0  0  2  0  0  0  0  0  0  0  0  0
   27.9317  -22.5113  -18.2755 N   0  0  0  0  0  0  0  0  0  0  0  0
   26.5129  -21.7546  -16.4605 C   0  0  0  0  0  0  0  0  0  0  0  0
   25.8118  -22.7902  -16.4348 O   0  0  0  0  0  0  0  0  0  0  0  0
   23.6673  -21.1587   -8.1241 O   0  0  0  0  0  0  0  0  0  0  0  0
   24.3500  -20.9486   -9.3128 C   0  0  0  0  0  0  0  0  0  0  0  0
   25.6601  -21.3374   -9.4507 C   0  0  0  0  0  0  0  0  0  0  0  0
   26.3049  -21.1151  -10.6385 C   0  0  0  0  0  0  0  0  0  0  0  0
   25.7019  -20.5130  -11.7199 C   0  0  0  0  0  0  0  0  0  0  0  0
   26.4529  -20.3054  -12.9600 C   0  0  0  0  0  0  0  0  0  0  0  0
   25.8897  -21.1377  -14.1133 C   0  0  2  0  0  0  0  0  0  0  0  0
   26.6347  -20.9142  -15.3225 N   0  0  0  0  0  0  0  0  0  0  0  0
   24.4389  -20.9546  -14.2685 C   0  0  0  0  0  0  0  0  0  0  0  0
   23.6103  -21.9478  -13.7674 O   0  0  0  0  0  0  0  0  0  0  0  0
   24.3878  -20.1232  -11.5813 C   0  0  0  0  0  0  0  0  0  0  0  0
   23.7182  -20.3420  -10.3809 C   0  0  0  0  0  0  0  0  0  0  0  0
   23.8980  -19.9724  -14.8171 O   0  0  0  0  0  0  0  0  0  0  0  0
  1  2  1  0
  3  2  1  0
  3  9  1  0
  4  3  2  0
  6  5  1  1
  7  6  1  0
  8  6  1  0
  8  9  1  6
  8 10  1  0
 10 19  1  0
 11 10  2  0
 13 12  1  0
 14 13  2  0
 15 14  1  0
 16 22  1  0
 16 15  2  0
 17 16  1  0
 18 17  1  1
 19 18  1  0
 20 21  1  0
 20 18  1  0
 22 23  2  0
 23 13  1  0
 24 20  2  0
M  END
$$$$
