GTY.pdb
     RDKit          3D

 24 24  0  0  1  0  0  0  0  0999 V2000
   20.3269   -7.9605  -23.6975 N   0  0  0  0  0  0  0  0  0  0  0  0
   20.2499   -6.9356  -22.6919 C   0  0  0  0  0  0  0  0  0  0  0  0
   21.4623   -6.9652  -21.8306 C   0  0  0  0  0  0  0  0  0  0  0  0
   22.3159   -7.9004  -21.9099 O   0  0  0  0  0  0  0  0  0  0  0  0
   24.2426   -4.7385  -21.6235 C   0  0  0  0  0  0  0  0  0  0  0  0
   23.5989   -4.6524  -20.2578 C   0  0  1  0  0  0  0  0  0  0  0  0
   22.8809   -3.4681  -20.2006 O   0  0  0  0  0  0  0  0  0  0  0  0
   22.7434   -5.8583  -19.9681 C   0  0  2  0  0  0  0  0  0  0  0  0
   21.6578   -5.9099  -20.8971 N   0  0  0  0  0  0  0  0  0  0  0  0
   22.2824   -5.8192  -18.5560 C   0  0  0  0  0  0  0  0  0  0  0  0
   21.1359   -5.3891  -18.3007 O   0  0  0  0  0  0  0  0  0  0  0  0
   26.9073  -11.0621  -16.5049 O   0  0  0  0  0  0  0  0  0  0  0  0
   25.8363  -10.2123  -16.2728 C   0  0  0  0  0  0  0  0  0  0  0  0
   24.8465  -10.0539  -17.2118 C   0  0  0  0  0  0  0  0  0  0  0  0
   23.8024   -9.2067  -16.9505 C   0  0  0  0  0  0  0  0  0  0  0  0
   23.6888   -8.4930  -15.7786 C   0  0  0  0  0  0  0  0  0  0  0  0
   22.5448   -7.6033  -15.5668 C   0  0  0  0  0  0  0  0  0  0  0  0
   22.7974   -6.2054  -16.1344 C   0  0  2  0  0  0  0  0  0  0  0  0
   23.1504   -6.2701  -17.5266 N   0  0  0  0  0  0  0  0  0  0  0  0
   23.7510   -5.4419  -15.3159 C   0  0  0  0  0  0  0  0  0  0  0  0
   23.3654   -5.1087  -14.0258 O   0  0  0  0  0  0  0  0  0  0  0  0
   24.6817   -8.6520  -14.8369 C   0  0  0  0  0  0  0  0  0  0  0  0
   25.7494   -9.5092  -15.0869 C   0  0  0  0  0  0  0  0  0  0  0  0
   24.8811   -5.0717  -15.6955 O   0  0  0  0  0  0  0  0  0  0  0  0
  1  2  1  0
  3  2  1  0
  3  9  1  0
  4  3  2  0
  6  5  1  6
  7  6  1  0
  8  6  1  0
  8  9  1  6
  8 10  1  0
 10 19  1  0
 11 10  2  0
 13 12  1  0
 14 13  2  0
 15 14  1  0
 16 22  1  0
 16 15  2  0
 17 16  1  0
 18 17  1  1
 19 18  1  0
 20 21  1  0
 20 18  1  0
 22 23  2  0
 23 13  1  0
 24 20  2  0
M  END
$$$$
