GTY.pdb
     RDKit          3D

 24 24  0  0  1  0  0  0  0  0999 V2000
   28.0649  -15.8057  -20.3583 N   0  0  0  0  0  0  0  0  0  0  0  0
   28.4610  -16.9628  -19.6021 C   0  0  0  0  0  0  0  0  0  0  0  0
   27.2625  -17.7192  -19.1501 C   0  0  0  0  0  0  0  0  0  0  0  0
   26.1067  -17.1965  -19.1402 O   0  0  0  0  0  0  0  0  0  0  0  0
   26.0286  -20.8067  -20.5504 C   0  0  0  0  0  0  0  0  0  0  0  0
   26.2785  -21.1352  -19.0956 C   0  0  1  0  0  0  0  0  0  0  0  0
   27.4308  -21.9024  -19.0254 O   0  0  0  0  0  0  0  0  0  0  0  0
   26.3635  -19.8911  -18.2501 C   0  0  2  0  0  0  0  0  0  0  0  0
   27.4313  -19.0644  -18.7199 N   0  0  0  0  0  0  0  0  0  0  0  0
   26.5204  -20.2654  -16.8206 C   0  0  0  0  0  0  0  0  0  0  0  0
   27.6290  -20.1000  -16.2653 O   0  0  0  0  0  0  0  0  0  0  0  0
   25.6175  -21.2538   -8.3545 O   0  0  0  0  0  0  0  0  0  0  0  0
   25.6743  -20.9425   -9.7047 C   0  0  0  0  0  0  0  0  0  0  0  0
   26.8487  -21.0637  -10.4066 C   0  0  0  0  0  0  0  0  0  0  0  0
   26.8700  -20.7481  -11.7393 C   0  0  0  0  0  0  0  0  0  0  0  0
   25.7602  -20.3084  -12.4254 C   0  0  0  0  0  0  0  0  0  0  0  0
   25.8559  -19.9872  -13.8511 C   0  0  0  0  0  0  0  0  0  0  0  0
   25.4872  -21.1833  -14.7306 C   0  0  2  0  0  0  0  0  0  0  0  0
   25.4112  -20.8017  -16.1147 N   0  0  0  0  0  0  0  0  0  0  0  0
   24.2878  -21.8790  -14.2408 C   0  0  0  0  0  0  0  0  0  0  0  0
   23.0537  -21.3376  -14.5695 O   0  0  0  0  0  0  0  0  0  0  0  0
   24.5824  -20.1870  -11.7211 C   0  0  0  0  0  0  0  0  0  0  0  0
   24.5439  -20.5038  -10.3663 C   0  0  0  0  0  0  0  0  0  0  0  0
   24.2978  -22.9199  -13.5519 O   0  0  0  0  0  0  0  0  0  0  0  0
  1  2  1  0
  3  2  1  0
  3  9  1  0
  4  3  2  0
  6  5  1  6
  7  6  1  0
  8  6  1  0
  8  9  1  6
  8 10  1  0
 10 19  1  0
 11 10  2  0
 13 12  1  0
 14 13  2  0
 15 14  1  0
 16 22  1  0
 16 15  2  0
 17 16  1  0
 18 17  1  1
 19 18  1  0
 20 21  1  0
 20 18  1  0
 22 23  2  0
 23 13  1  0
 24 20  2  0
M  END
$$$$
