GTY.pdb
     RDKit          3D

 24 24  0  0  1  0  0  0  0  0999 V2000
   42.9735  -16.3190  -10.0633 N   0  0  0  0  0  0  0  0  0  0  0  0
   43.5232  -14.9911  -10.1076 C   0  0  0  0  0  0  0  0  0  0  0  0
   43.0282  -14.1886   -8.9571 C   0  0  0  0  0  0  0  0  0  0  0  0
   41.8553  -14.3340   -8.4961 O   0  0  0  0  0  0  0  0  0  0  0  0
   44.4324  -10.8636   -5.5152 C   0  0  0  0  0  0  0  0  0  0  0  0
   44.7614  -11.7144   -6.7213 C   0  0  1  0  0  0  0  0  0  0  0  0
   45.7192  -12.6407   -6.3390 O   0  0  0  0  0  0  0  0  0  0  0  0
   43.5302  -12.3644   -7.2972 C   0  0  2  0  0  0  0  0  0  0  0  0
   43.9043  -13.2360   -8.3670 N   0  0  0  0  0  0  0  0  0  0  0  0
   42.5647  -11.3193   -7.7259 C   0  0  0  0  0  0  0  0  0  0  0  0
   42.7631  -10.7102   -8.8003 O   0  0  0  0  0  0  0  0  0  0  0  0
   35.6120   -5.9065   -7.4420 O   0  0  0  0  0  0  0  0  0  0  0  0
   36.4975   -6.9442   -7.1927 C   0  0  0  0  0  0  0  0  0  0  0  0
   36.5259   -8.0551   -7.9999 C   0  0  0  0  0  0  0  0  0  0  0  0
   37.4131   -9.0620   -7.7256 C   0  0  0  0  0  0  0  0  0  0  0  0
   38.2927   -9.0210   -6.6672 C   0  0  0  0  0  0  0  0  0  0  0  0
   39.2137  -10.1352   -6.4322 C   0  0  0  0  0  0  0  0  0  0  0  0
   40.5255   -9.9617   -7.1998 C   0  0  2  0  0  0  0  0  0  0  0  0
   41.4385  -11.0337   -6.9096 N   0  0  0  0  0  0  0  0  0  0  0  0
   41.1032   -8.6230   -7.0090 C   0  0  0  0  0  0  0  0  0  0  0  0
   40.8321   -7.6643   -7.9742 O   0  0  0  0  0  0  0  0  0  0  0  0
   38.2641   -7.9066   -5.8577 C   0  0  0  0  0  0  0  0  0  0  0  0
   37.3686   -6.8746   -6.1229 C   0  0  0  0  0  0  0  0  0  0  0  0
   41.8188   -8.2854   -6.0435 O   0  0  0  0  0  0  0  0  0  0  0  0
  1  2  1  0
  3  2  1  0
  3  9  1  0
  4  3  2  0
  6  5  1  1
  7  6  1  0
  8  6  1  0
  8  9  1  6
  8 10  1  0
 10 19  1  0
 11 10  2  0
 13 12  1  0
 14 13  2  0
 15 14  1  0
 16 22  1  0
 16 15  2  0
 17 16  1  0
 18 17  1  1
 19 18  1  0
 20 21  1  0
 20 18  1  0
 22 23  2  0
 23 13  1  0
 24 20  2  0
M  END
$$$$
