GTY.pdb
     RDKit          3D

 24 24  0  0  1  0  0  0  0  0999 V2000
   22.2118  -15.8076  -19.9189 N   0  0  0  0  0  0  0  0  0  0  0  0
   21.9700  -14.7211  -20.8292 C   0  0  0  0  0  0  0  0  0  0  0  0
   22.5456  -13.4592  -20.2916 C   0  0  0  0  0  0  0  0  0  0  0  0
   23.0190  -13.3876  -19.1168 O   0  0  0  0  0  0  0  0  0  0  0  0
   24.3793   -9.0379  -21.3188 C   0  0  0  0  0  0  0  0  0  0  0  0
   23.8532  -10.3872  -21.7541 C   0  0  1  0  0  0  0  0  0  0  0  0
   24.9408  -11.1812  -22.0829 O   0  0  0  0  0  0  0  0  0  0  0  0
   22.9829  -11.0137  -20.6957 C   0  0  2  0  0  0  0  0  0  0  0  0
   22.5596  -12.3090  -21.1283 N   0  0  0  0  0  0  0  0  0  0  0  0
   21.8402  -10.1147  -20.3887 C   0  0  0  0  0  0  0  0  0  0  0  0
   20.9218   -9.9878  -21.2286 O   0  0  0  0  0  0  0  0  0  0  0  0
   24.1373   -4.4222  -15.2974 O   0  0  0  0  0  0  0  0  0  0  0  0
   23.2806   -5.4004  -15.7795 C   0  0  0  0  0  0  0  0  0  0  0  0
   21.9609   -5.1177  -16.0342 C   0  0  0  0  0  0  0  0  0  0  0  0
   21.1420   -6.1072  -16.5100 C   0  0  0  0  0  0  0  0  0  0  0  0
   21.5763   -7.3913  -16.7508 C   0  0  0  0  0  0  0  0  0  0  0  0
   20.6442   -8.4002  -17.2589 C   0  0  0  0  0  0  0  0  0  0  0  0
   20.7342   -8.5449  -18.7791 C   0  0  2  0  0  0  0  0  0  0  0  0
   21.8130   -9.4195  -19.1509 N   0  0  0  0  0  0  0  0  0  0  0  0
   20.7687   -7.2401  -19.4562 C   0  0  0  0  0  0  0  0  0  0  0  0
   19.6161   -6.4690  -19.4211 O   0  0  0  0  0  0  0  0  0  0  0  0
   22.9001   -7.6746  -16.4952 C   0  0  0  0  0  0  0  0  0  0  0  0
   23.7454   -6.6803  -16.0116 C   0  0  0  0  0  0  0  0  0  0  0  0
   21.7574   -6.7750  -20.0597 O   0  0  0  0  0  0  0  0  0  0  0  0
  1  2  1  0
  3  2  1  0
  3  9  1  0
  4  3  2  0
  6  5  1  1
  7  6  1  0
  8  6  1  0
  8  9  1  6
  8 10  1  0
 10 19  1  0
 11 10  2  0
 13 12  1  0
 14 13  2  0
 15 14  1  0
 16 22  1  0
 16 15  2  0
 17 16  1  0
 18 17  1  1
 19 18  1  0
 20 21  1  0
 20 18  1  0
 22 23  2  0
 23 13  1  0
 24 20  2  0
M  END
$$$$
