GTY.pdb
     RDKit          3D

 24 24  0  0  1  0  0  0  0  0999 V2000
   28.7162  -28.3205  -16.7763 N   0  0  0  0  0  0  0  0  0  0  0  0
   27.7247  -27.3943  -17.2523 C   0  0  0  0  0  0  0  0  0  0  0  0
   27.9571  -26.0450  -16.6707 C   0  0  0  0  0  0  0  0  0  0  0  0
   29.1006  -25.4958  -16.6922 O   0  0  0  0  0  0  0  0  0  0  0  0
   28.3537  -23.5605  -17.7321 C   0  0  0  0  0  0  0  0  0  0  0  0
   27.0690  -23.1726  -17.0350 C   0  0  1  0  0  0  0  0  0  0  0  0
   26.0304  -23.3322  -17.9390 O   0  0  0  0  0  0  0  0  0  0  0  0
   26.8589  -23.9663  -15.7718 C   0  0  2  0  0  0  0  0  0  0  0  0
   26.8588  -25.3630  -16.0778 N   0  0  0  0  0  0  0  0  0  0  0  0
   25.6037  -23.5293  -15.1072 C   0  0  0  0  0  0  0  0  0  0  0  0
   24.5431  -24.1508  -15.3390 O   0  0  0  0  0  0  0  0  0  0  0  0
   20.3333  -19.1647   -9.5402 O   0  0  0  0  0  0  0  0  0  0  0  0
   21.4376  -19.5931  -10.2615 C   0  0  0  0  0  0  0  0  0  0  0  0
   22.3243  -20.4935   -9.7233 C   0  0  0  0  0  0  0  0  0  0  0  0
   23.4046  -20.8959  -10.4629 C   0  0  0  0  0  0  0  0  0  0  0  0
   23.6550  -20.4394  -11.7375 C   0  0  0  0  0  0  0  0  0  0  0  0
   24.8316  -20.9119  -12.4705 C   0  0  0  0  0  0  0  0  0  0  0  0
   24.4627  -21.9489  -13.5328 C   0  0  2  0  0  0  0  0  0  0  0  0
   25.6329  -22.4179  -14.2240 N   0  0  0  0  0  0  0  0  0  0  0  0
   23.3989  -21.4681  -14.4269 C   0  0  0  0  0  0  0  0  0  0  0  0
   23.7689  -20.6378  -15.4747 O   0  0  0  0  0  0  0  0  0  0  0  0
   22.7655  -19.5363  -12.2771 C   0  0  0  0  0  0  0  0  0  0  0  0
   21.6625  -19.1175  -11.5387 C   0  0  0  0  0  0  0  0  0  0  0  0
   22.1886  -21.7515  -14.3133 O   0  0  0  0  0  0  0  0  0  0  0  0
  1  2  1  0
  3  2  1  0
  3  9  1  0
  4  3  2  0
  6  5  1  6
  7  6  1  0
  8  6  1  0
  8  9  1  6
  8 10  1  0
 10 19  1  0
 11 10  2  0
 13 12  1  0
 14 13  2  0
 15 14  1  0
 16 22  1  0
 16 15  2  0
 17 16  1  0
 18 17  1  1
 19 18  1  0
 20 21  1  0
 20 18  1  0
 22 23  2  0
 23 13  1  0
 24 20  2  0
M  END
$$$$
