GTY.pdb
     RDKit          3D

 24 24  0  0  1  0  0  0  0  0999 V2000
   18.0147  -12.3048  -16.2615 N   0  0  0  0  0  0  0  0  0  0  0  0
   17.3938  -11.0163  -16.4089 C   0  0  0  0  0  0  0  0  0  0  0  0
   18.4262   -9.9671  -16.6235 C   0  0  0  0  0  0  0  0  0  0  0  0
   19.6653  -10.2390  -16.6253 O   0  0  0  0  0  0  0  0  0  0  0  0
   19.0263   -5.1508  -17.7867 C   0  0  0  0  0  0  0  0  0  0  0  0
   18.1348   -6.3583  -17.6027 C   0  0  1  0  0  0  0  0  0  0  0  0
   17.5624   -6.6544  -18.8299 O   0  0  0  0  0  0  0  0  0  0  0  0
   18.8908   -7.5260  -17.0240 C   0  0  2  0  0  0  0  0  0  0  0  0
   17.9986   -8.6265  -16.8314 N   0  0  0  0  0  0  0  0  0  0  0  0
   19.5654   -7.1134  -15.7659 C   0  0  0  0  0  0  0  0  0  0  0  0
   18.8716   -6.8696  -14.7539 O   0  0  0  0  0  0  0  0  0  0  0  0
   26.0387  -10.7620  -16.7265 O   0  0  0  0  0  0  0  0  0  0  0  0
   25.0921  -10.0495  -16.0058 C   0  0  0  0  0  0  0  0  0  0  0  0
   25.4614   -8.9924  -15.2105 C   0  0  0  0  0  0  0  0  0  0  0  0
   24.5009   -8.3099  -14.5121 C   0  0  0  0  0  0  0  0  0  0  0  0
   23.1630   -8.6309  -14.5642 C   0  0  0  0  0  0  0  0  0  0  0  0
   22.1900   -7.8579  -13.7891 C   0  0  0  0  0  0  0  0  0  0  0  0
   21.7030   -6.6254  -14.5531 C   0  0  2  0  0  0  0  0  0  0  0  0
   20.9808   -7.0046  -15.7371 N   0  0  0  0  0  0  0  0  0  0  0  0
   22.7894   -5.6665  -14.8031 C   0  0  0  0  0  0  0  0  0  0  0  0
   23.3612   -5.0447  -13.7028 O   0  0  0  0  0  0  0  0  0  0  0  0
   22.7928   -9.6913  -15.3620 C   0  0  0  0  0  0  0  0  0  0  0  0
   23.7566  -10.3951  -16.0783 C   0  0  0  0  0  0  0  0  0  0  0  0
   23.2351   -5.3708  -15.9309 O   0  0  0  0  0  0  0  0  0  0  0  0
  1  2  1  0
  3  2  1  0
  3  9  1  0
  4  3  2  0
  6  5  1  6
  7  6  1  0
  8  6  1  0
  8  9  1  1
  8 10  1  0
 10 19  1  0
 11 10  2  0
 13 12  1  0
 14 13  2  0
 15 14  1  0
 16 22  1  0
 16 15  2  0
 17 16  1  0
 18 17  1  6
 19 18  1  0
 20 21  1  0
 20 18  1  0
 22 23  2  0
 23 13  1  0
 24 20  2  0
M  END
$$$$
