GTY.pdb
     RDKit          3D

 24 24  0  0  1  0  0  0  0  0999 V2000
   28.5536  -19.9205  -18.6632 N   0  0  0  0  0  0  0  0  0  0  0  0
   27.9829  -20.2766  -17.3923 C   0  0  0  0  0  0  0  0  0  0  0  0
   26.5852  -20.7539  -17.5695 C   0  0  0  0  0  0  0  0  0  0  0  0
   26.0390  -20.8130  -18.7130 O   0  0  0  0  0  0  0  0  0  0  0  0
   23.1611  -23.7131  -16.8749 C   0  0  0  0  0  0  0  0  0  0  0  0
   24.5206  -23.0622  -16.9964 C   0  0  1  0  0  0  0  0  0  0  0  0
   24.9001  -23.1169  -18.3285 O   0  0  0  0  0  0  0  0  0  0  0  0
   24.5150  -21.6553  -16.4574 C   0  0  2  0  0  0  0  0  0  0  0  0
   25.8527  -21.1521  -16.4172 N   0  0  0  0  0  0  0  0  0  0  0  0
   23.8575  -21.6308  -15.1250 C   0  0  0  0  0  0  0  0  0  0  0  0
   24.5421  -21.8595  -14.1033 O   0  0  0  0  0  0  0  0  0  0  0  0
   20.0116  -15.5884  -16.2396 O   0  0  0  0  0  0  0  0  0  0  0  0
   20.5221  -16.6308  -15.4807 C   0  0  0  0  0  0  0  0  0  0  0  0
   21.7786  -17.1294  -15.7238 C   0  0  0  0  0  0  0  0  0  0  0  0
   22.2524  -18.1595  -14.9552 C   0  0  0  0  0  0  0  0  0  0  0  0
   21.5260  -18.7323  -13.9355 C   0  0  0  0  0  0  0  0  0  0  0  0
   22.0954  -19.8327  -13.1546 C   0  0  0  0  0  0  0  0  0  0  0  0
   21.7885  -21.1943  -13.7808 C   0  0  2  0  0  0  0  0  0  0  0  0
   22.4686  -21.3487  -15.0380 N   0  0  0  0  0  0  0  0  0  0  0  0
   20.3432  -21.4551  -13.8527 C   0  0  0  0  0  0  0  0  0  0  0  0
   19.6822  -21.7337  -12.6654 O   0  0  0  0  0  0  0  0  0  0  0  0
   20.2657  -18.2320  -13.6920 C   0  0  0  0  0  0  0  0  0  0  0  0
   19.7695  -17.1854  -14.4637 C   0  0  0  0  0  0  0  0  0  0  0  0
   19.6672  -21.4443  -14.9021 O   0  0  0  0  0  0  0  0  0  0  0  0
  1  2  1  0
  3  2  1  0
  3  9  1  0
  4  3  2  0
  6  5  1  6
  7  6  1  0
  8  6  1  0
  8  9  1  1
  8 10  1  0
 10 19  1  0
 11 10  2  0
 13 12  1  0
 14 13  2  0
 15 14  1  0
 16 22  1  0
 16 15  2  0
 17 16  1  0
 18 17  1  6
 19 18  1  0
 20 21  1  0
 20 18  1  0
 22 23  2  0
 23 13  1  0
 24 20  2  0
M  END
$$$$
