GTY.pdb
     RDKit          3D

 24 24  0  0  1  0  0  0  0  0999 V2000
   29.0475  -21.9415  -18.9501 N   0  0  0  0  0  0  0  0  0  0  0  0
   28.0468  -21.1551  -18.2809 C   0  0  0  0  0  0  0  0  0  0  0  0
   28.3668  -21.0358  -16.8331 C   0  0  0  0  0  0  0  0  0  0  0  0
   29.5389  -20.7697  -16.4273 O   0  0  0  0  0  0  0  0  0  0  0  0
   28.6357  -18.7608  -15.5045 C   0  0  0  0  0  0  0  0  0  0  0  0
   27.4536  -19.1729  -14.6561 C   0  0  1  0  0  0  0  0  0  0  0  0
   26.3215  -18.5730  -15.1852 O   0  0  0  0  0  0  0  0  0  0  0  0
   27.3240  -20.6715  -14.5715 C   0  0  2  0  0  0  0  0  0  0  0  0
   27.3206  -21.2274  -15.8887 N   0  0  0  0  0  0  0  0  0  0  0  0
   26.1044  -21.0272  -13.8006 C   0  0  0  0  0  0  0  0  0  0  0  0
   25.0243  -21.1908  -14.4100 O   0  0  0  0  0  0  0  0  0  0  0  0
   28.2481  -18.5141   -6.9744 O   0  0  0  0  0  0  0  0  0  0  0  0
   27.5771  -19.4187   -7.7835 C   0  0  0  0  0  0  0  0  0  0  0  0
   28.2677  -20.3280   -8.5469 C   0  0  0  0  0  0  0  0  0  0  0  0
   27.5739  -21.2076   -9.3349 C   0  0  0  0  0  0  0  0  0  0  0  0
   26.1991  -21.2305   -9.4054 C   0  0  0  0  0  0  0  0  0  0  0  0
   25.5227  -22.1986  -10.2714 C   0  0  0  0  0  0  0  0  0  0  0  0
   25.0635  -21.5642  -11.5855 C   0  0  2  0  0  0  0  0  0  0  0  0
   26.1889  -21.1744  -12.3908 N   0  0  0  0  0  0  0  0  0  0  0  0
   24.0894  -20.4848  -11.3661 C   0  0  0  0  0  0  0  0  0  0  0  0
   22.8060  -20.8475  -10.9844 O   0  0  0  0  0  0  0  0  0  0  0  0
   25.5066  -20.3183   -8.6396 C   0  0  0  0  0  0  0  0  0  0  0  0
   26.1966  -19.4178   -7.8333 C   0  0  0  0  0  0  0  0  0  0  0  0
   24.3313  -19.2673  -11.4975 O   0  0  0  0  0  0  0  0  0  0  0  0
  1  2  1  0
  3  2  1  0
  3  9  1  0
  4  3  2  0
  6  5  1  6
  7  6  1  0
  8  6  1  0
  8  9  1  6
  8 10  1  0
 10 19  1  0
 11 10  2  0
 13 12  1  0
 14 13  2  0
 15 14  1  0
 16 22  1  0
 16 15  2  0
 17 16  1  0
 18 17  1  1
 19 18  1  0
 20 21  1  0
 20 18  1  0
 22 23  2  0
 23 13  1  0
 24 20  2  0
M  END
$$$$
