GTY.pdb
     RDKit          3D

 24 24  0  0  1  0  0  0  0  0999 V2000
   28.9030  -10.9508  -17.6409 N   0  0  0  0  0  0  0  0  0  0  0  0
   28.2386   -9.9986  -18.4891 C   0  0  0  0  0  0  0  0  0  0  0  0
   27.3130   -9.1522  -17.6893 C   0  0  0  0  0  0  0  0  0  0  0  0
   27.1791   -9.3069  -16.4373 O   0  0  0  0  0  0  0  0  0  0  0  0
   24.8235   -4.8865  -17.7268 C   0  0  0  0  0  0  0  0  0  0  0  0
   25.7052   -5.9054  -18.4133 C   0  0  1  0  0  0  0  0  0  0  0  0
   26.9806   -5.3703  -18.5051 O   0  0  0  0  0  0  0  0  0  0  0  0
   25.6876   -7.2305  -17.6965 C   0  0  2  0  0  0  0  0  0  0  0  0
   26.5640   -8.1454  -18.3590 N   0  0  0  0  0  0  0  0  0  0  0  0
   24.2932   -7.7375  -17.6128 C   0  0  0  0  0  0  0  0  0  0  0  0
   23.7309   -8.1488  -18.6517 O   0  0  0  0  0  0  0  0  0  0  0  0
   17.0471  -11.8294  -15.7159 O   0  0  0  0  0  0  0  0  0  0  0  0
   18.3327  -11.3100  -15.7411 C   0  0  0  0  0  0  0  0  0  0  0  0
   19.0168  -11.1800  -16.9250 C   0  0  0  0  0  0  0  0  0  0  0  0
   20.2851  -10.6629  -16.9143 C   0  0  0  0  0  0  0  0  0  0  0  0
   20.9228  -10.2599  -15.7625 C   0  0  0  0  0  0  0  0  0  0  0  0
   22.2815   -9.7169  -15.8251 C   0  0  0  0  0  0  0  0  0  0  0  0
   22.2856   -8.2333  -16.1980 C   0  0  2  0  0  0  0  0  0  0  0  0
   23.6285   -7.7455  -16.3581 N   0  0  0  0  0  0  0  0  0  0  0  0
   21.4693   -7.4305  -15.2752 C   0  0  0  0  0  0  0  0  0  0  0  0
   20.1391   -7.2240  -15.6101 O   0  0  0  0  0  0  0  0  0  0  0  0
   20.2364  -10.3905  -14.5751 C   0  0  0  0  0  0  0  0  0  0  0  0
   18.9468  -10.9139  -14.5688 C   0  0  0  0  0  0  0  0  0  0  0  0
   21.8841   -6.9216  -14.2136 O   0  0  0  0  0  0  0  0  0  0  0  0
  1  2  1  0
  3  2  1  0
  3  9  1  0
  4  3  2  0
  6  5  1  1
  7  6  1  0
  8  6  1  0
  8  9  1  6
  8 10  1  0
 10 19  1  0
 11 10  2  0
 13 12  1  0
 14 13  2  0
 15 14  1  0
 16 22  1  0
 16 15  2  0
 17 16  1  0
 18 17  1  1
 19 18  1  0
 20 21  1  0
 20 18  1  0
 22 23  2  0
 23 13  1  0
 24 20  2  0
M  END
$$$$
