ARI.pdb
     RDKit          3D

 25 24  0  0  1  0  0  0  0  0999 V2000
    7.8006  -12.8249   18.3753 C   0  0  0  0  0  0  0  0  0  0  0  0
    8.8774  -13.3361   19.3244 C   0  0  2  0  0  0  0  0  0  0  0  0
    9.6949  -14.2525   18.5879 N   0  0  0  0  0  0  0  0  0  0  0  0
    8.2380  -13.9663   20.5111 C   0  0  0  0  0  0  0  0  0  0  0  0
    7.4898  -13.2681   21.2297 O   0  0  0  0  0  0  0  0  0  0  0  0
    4.1343  -18.7546   23.1017 N   0  0  0  0  0  0  0  0  0  0  0  0
    4.8167  -19.6706   22.2792 C   0  0  0  0  0  0  0  0  0  0  0  0
    4.3312  -19.9175   21.1044 N   0  0  0  0  0  0  0  0  0  0  0  0
    6.0035  -20.3330   22.6718 N   0  0  0  0  0  0  0  0  0  0  0  0
    7.2872  -19.6865   22.6866 C   0  0  0  0  0  0  0  0  0  0  0  0
    7.1827  -18.2053   22.9124 C   0  0  0  0  0  0  0  0  0  0  0  0
    7.8093  -17.4414   21.7631 C   0  0  0  0  0  0  0  0  0  0  0  0
    7.7990  -15.9590   22.0020 C   0  0  2  0  0  0  0  0  0  0  0  0
    8.4283  -15.3200   20.8775 N   0  0  0  0  0  0  0  0  0  0  0  0
    8.4041  -15.5809   23.2913 C   0  0  0  0  0  0  0  0  0  0  0  0
    9.6094  -15.8784   23.4889 O   0  0  0  0  0  0  0  0  0  0  0  0
    4.7435  -20.6195   20.4631 C   0  0  0  0  0  0  0  0  0  0  0  0
    5.7740  -11.8576   26.4861 C   0  0  0  0  0  0  0  0  0  0  0  0
    6.8579  -12.4983   25.6410 C   0  0  2  0  0  0  0  0  0  0  0  0
    7.3401  -13.7191   26.3843 C   0  0  0  0  0  0  0  0  0  0  0  0
    8.0523  -13.2386   27.6319 C   0  0  2  0  0  0  0  0  0  0  0  0
    8.3320  -14.5245   25.5844 N   0  0  0  0  0  0  0  0  0  0  0  0
    7.6974  -14.9023   24.3128 C   0  0  0  0  0  0  0  0  0  0  0  0
    8.6711  -15.7250   26.3670 O   0  0  0  0  0  0  0  0  0  0  0  0
    9.8355  -15.7502   27.0961 O   0  0  0  0  0  0  0  0  0  0  0  0
  2  1  1  6
  3  2  1  0
  4  5  2  0
  4  2  1  0
  6  7  1  0
  7  9  1  0
  7  8  2  0
  9 10  1  0
 10 11  1  0
 11 12  1  0
 13 12  1  6
 13 14  1  0
 14  4  1  0
 15 22  1  0
 15 13  1  0
 16 15  2  0
 18 17  1  0
 19 18  1  0
 19 21  1  0
 19 20  1  6
 21 22  1  6
 21 23  1  0
 23 24  1  0
 25 23  2  0
M  END
$$$$
