ARI.pdb
     RDKit          3D

 25 24  0  0  1  0  0  0  0  0999 V2000
    7.1971  -19.3600   26.7855 C   0  0  0  0  0  0  0  0  0  0  0  0
    7.0394  -19.6938   25.3073 C   0  0  2  0  0  0  0  0  0  0  0  0
    7.6676  -20.9617   25.0870 N   0  0  0  0  0  0  0  0  0  0  0  0
    7.6379  -18.6082   24.4842 C   0  0  0  0  0  0  0  0  0  0  0  0
    8.8801  -18.5780   24.3446 O   0  0  0  0  0  0  0  0  0  0  0  0
    7.9929  -14.0973   18.2519 N   0  0  0  0  0  0  0  0  0  0  0  0
    8.4660  -13.1814   19.2103 C   0  0  0  0  0  0  0  0  0  0  0  0
    8.6514  -11.9534   18.8436 N   0  0  0  0  0  0  0  0  0  0  0  0
    8.7481  -13.5355   20.5505 N   0  0  0  0  0  0  0  0  0  0  0  0
    8.2362  -14.7303   21.1642 C   0  0  0  0  0  0  0  0  0  0  0  0
    6.8247  -14.5674   21.6510 C   0  0  0  0  0  0  0  0  0  0  0  0
    6.3483  -15.8263   22.3476 C   0  0  0  0  0  0  0  0  0  0  0  0
    7.4370  -16.4643   23.1613 C   0  0  2  0  0  0  0  0  0  0  0  0
    6.8781  -17.5997   23.8450 N   0  0  0  0  0  0  0  0  0  0  0  0
    8.1045  -15.5165   24.0709 C   0  0  0  0  0  0  0  0  0  0  0  0
    8.3070  -14.3457   23.6606 O   0  0  0  0  0  0  0  0  0  0  0  0
    9.0342  -11.2298   19.4792 C   0  0  0  0  0  0  0  0  0  0  0  0
    6.6640  -11.9560   25.9366 C   0  0  0  0  0  0  0  0  0  0  0  0
    7.7740  -12.8909   25.4967 C   0  0  2  0  0  0  0  0  0  0  0  0
    8.0153  -13.8600   26.6272 C   0  0  0  0  0  0  0  0  0  0  0  0
    8.4943  -13.0567   27.8187 C   0  0  2  0  0  0  0  0  0  0  0  0
    9.0910  -14.8650   26.3029 N   0  0  0  0  0  0  0  0  0  0  0  0
    8.5267  -15.8590   25.3777 C   0  0  0  0  0  0  0  0  0  0  0  0
    9.4994  -15.5084   27.5630 O   0  0  0  0  0  0  0  0  0  0  0  0
   10.3641  -14.8541   28.4070 O   0  0  0  0  0  0  0  0  0  0  0  0
  2  1  1  1
  3  2  1  0
  4  5  2  0
  4  2  1  0
  6  7  1  0
  7  9  1  0
  7  8  2  0
  9 10  1  0
 10 11  1  0
 11 12  1  0
 13 12  1  1
 13 14  1  0
 14  4  1  0
 15 22  1  0
 15 13  1  0
 16 15  2  0
 18 17  1  0
 19 18  1  0
 19 21  1  0
 19 20  1  1
 21 22  1  6
 21 23  1  0
 23 24  1  0
 25 23  2  0
M  END
$$$$
