ARI.pdb
     RDKit          3D

 25 24  0  0  1  0  0  0  0  0999 V2000
   13.8121  -16.3158   20.2005 C   0  0  0  0  0  0  0  0  0  0  0  0
   13.1031  -17.2830   21.1403 C   0  0  2  0  0  0  0  0  0  0  0  0
   12.2471  -18.1055   20.3395 N   0  0  0  0  0  0  0  0  0  0  0  0
   12.3563  -16.5166   22.1744 C   0  0  0  0  0  0  0  0  0  0  0  0
   12.9942  -15.7504   22.9291 O   0  0  0  0  0  0  0  0  0  0  0  0
    8.2195  -15.4114   18.4753 N   0  0  0  0  0  0  0  0  0  0  0  0
    7.5162  -14.2457   18.8327 C   0  0  0  0  0  0  0  0  0  0  0  0
    7.4279  -13.2929   17.9602 N   0  0  0  0  0  0  0  0  0  0  0  0
    6.9028  -14.0644   20.0945 N   0  0  0  0  0  0  0  0  0  0  0  0
    7.1432  -14.9388   21.2097 C   0  0  0  0  0  0  0  0  0  0  0  0
    8.5744  -14.9104   21.6647 C   0  0  0  0  0  0  0  0  0  0  0  0
    8.7722  -15.8069   22.8707 C   0  0  0  0  0  0  0  0  0  0  0  0
   10.2056  -15.8406   23.3164 C   0  0  2  0  0  0  0  0  0  0  0  0
   10.9554  -16.6044   22.3555 N   0  0  0  0  0  0  0  0  0  0  0  0
   10.3667  -16.3343   24.6955 C   0  0  0  0  0  0  0  0  0  0  0  0
   10.7552  -17.5187   24.8582 O   0  0  0  0  0  0  0  0  0  0  0  0
    6.9623  -12.3892   18.1615 C   0  0  0  0  0  0  0  0  0  0  0  0
    9.9572  -12.5494   28.6913 C   0  0  0  0  0  0  0  0  0  0  0  0
   10.5928  -13.5863   27.7855 C   0  0  2  0  0  0  0  0  0  0  0  0
   10.0188  -14.9271   28.1706 C   0  0  0  0  0  0  0  0  0  0  0  0
   10.6012  -15.2996   29.5183 C   0  0  2  0  0  0  0  0  0  0  0  0
   10.4013  -16.0160   27.2009 N   0  0  0  0  0  0  0  0  0  0  0  0
   10.1064  -15.5432   25.8400 C   0  0  0  0  0  0  0  0  0  0  0  0
    9.5931  -17.2051   27.5189 O   0  0  0  0  0  0  0  0  0  0  0  0
    8.3348  -17.3311   26.9812 O   0  0  0  0  0  0  0  0  0  0  0  0
  2  1  1  6
  3  2  1  0
  4  5  2  0
  4  2  1  0
  6  7  1  0
  7  9  1  0
  7  8  2  0
  9 10  1  0
 10 11  1  0
 11 12  1  0
 13 12  1  6
 13 14  1  0
 14  4  1  0
 15 22  1  0
 15 13  1  0
 16 15  2  0
 18 17  1  0
 19 18  1  0
 19 21  1  0
 19 20  1  6
 21 22  1  6
 21 23  1  0
 23 24  1  0
 25 23  2  0
M  END
$$$$
