ARI.pdb
     RDKit          3D

 25 24  0  0  1  0  0  0  0  0999 V2000
    9.1996  -20.1212   21.6668 C   0  0  0  0  0  0  0  0  0  0  0  0
    9.1184  -19.5136   23.0617 C   0  0  2  0  0  0  0  0  0  0  0  0
    7.7591  -19.6268   23.4977 N   0  0  0  0  0  0  0  0  0  0  0  0
    9.5900  -18.1028   23.0195 C   0  0  0  0  0  0  0  0  0  0  0  0
   10.7795  -17.8781   22.7065 O   0  0  0  0  0  0  0  0  0  0  0  0
    8.6035  -14.5199   18.0523 N   0  0  0  0  0  0  0  0  0  0  0  0
    8.1023  -13.3783   18.7056 C   0  0  0  0  0  0  0  0  0  0  0  0
    8.4586  -12.2146   18.2635 N   0  0  0  0  0  0  0  0  0  0  0  0
    7.2309  -13.4397   19.8184 N   0  0  0  0  0  0  0  0  0  0  0  0
    6.7510  -14.6801   20.3637 C   0  0  0  0  0  0  0  0  0  0  0  0
    7.8273  -15.4514   21.0726 C   0  0  0  0  0  0  0  0  0  0  0  0
    8.0742  -14.8817   22.4552 C   0  0  0  0  0  0  0  0  0  0  0  0
    9.1652  -15.6167   23.1790 C   0  0  2  0  0  0  0  0  0  0  0  0
    8.7649  -16.9915   23.3150 N   0  0  0  0  0  0  0  0  0  0  0  0
    9.5235  -14.9920   24.4646 C   0  0  0  0  0  0  0  0  0  0  0  0
    9.6574  -13.7426   24.4982 O   0  0  0  0  0  0  0  0  0  0  0  0
    8.0991  -11.3284   18.6631 C   0  0  0  0  0  0  0  0  0  0  0  0
    7.0094  -12.6600   26.8960 C   0  0  0  0  0  0  0  0  0  0  0  0
    8.2789  -13.3001   26.3685 C   0  0  2  0  0  0  0  0  0  0  0  0
    8.6856  -14.3649   27.3565 C   0  0  0  0  0  0  0  0  0  0  0  0
    8.9539  -13.6776   28.6793 C   0  0  2  0  0  0  0  0  0  0  0  0
    9.9554  -15.0693   26.9520 N   0  0  0  0  0  0  0  0  0  0  0  0
    9.7231  -15.7273   25.6575 C   0  0  0  0  0  0  0  0  0  0  0  0
   10.2648  -16.0683   27.9888 O   0  0  0  0  0  0  0  0  0  0  0  0
   10.9532  -15.6839   29.1142 O   0  0  0  0  0  0  0  0  0  0  0  0
  2  1  1  6
  3  2  1  0
  4  5  2  0
  4  2  1  0
  6  7  1  0
  7  9  1  0
  7  8  2  0
  9 10  1  0
 10 11  1  0
 11 12  1  0
 13 12  1  1
 13 14  1  0
 14  4  1  0
 15 22  1  0
 15 13  1  0
 16 15  2  0
 18 17  1  0
 19 18  1  0
 19 21  1  0
 19 20  1  6
 21 22  1  6
 21 23  1  0
 23 24  1  0
 25 23  2  0
M  END
$$$$
