ARI.pdb
     RDKit          3D

 25 24  0  0  1  0  0  0  0  0999 V2000
    8.7588  -12.5730   19.0123 C   0  0  0  0  0  0  0  0  0  0  0  0
    8.3189  -14.0162   18.7996 C   0  0  2  0  0  0  0  0  0  0  0  0
    7.3737  -14.0198   17.7239 N   0  0  0  0  0  0  0  0  0  0  0  0
    7.7488  -14.5554   20.0639 C   0  0  0  0  0  0  0  0  0  0  0  0
    6.5954  -14.2061   20.3976 O   0  0  0  0  0  0  0  0  0  0  0  0
    7.5786  -21.0593   25.0233 N   0  0  0  0  0  0  0  0  0  0  0  0
    7.0968  -19.9811   25.7892 C   0  0  0  0  0  0  0  0  0  0  0  0
    7.2645  -20.0193   27.0727 N   0  0  0  0  0  0  0  0  0  0  0  0
    6.4402  -18.8611   25.2274 N   0  0  0  0  0  0  0  0  0  0  0  0
    6.6490  -18.4364   23.8702 C   0  0  0  0  0  0  0  0  0  0  0  0
    8.0583  -17.9809   23.6204 C   0  0  0  0  0  0  0  0  0  0  0  0
    8.2031  -17.4285   22.2164 C   0  0  0  0  0  0  0  0  0  0  0  0
    7.9249  -15.9541   22.1614 C   0  0  2  0  0  0  0  0  0  0  0  0
    8.4404  -15.4473   20.9178 N   0  0  0  0  0  0  0  0  0  0  0  0
    8.4399  -15.2283   23.3359 C   0  0  0  0  0  0  0  0  0  0  0  0
    9.6705  -14.9762   23.3827 O   0  0  0  0  0  0  0  0  0  0  0  0
    6.8888  -19.2931   27.7095 C   0  0  0  0  0  0  0  0  0  0  0  0
    6.5523  -10.9864   27.1891 C   0  0  0  0  0  0  0  0  0  0  0  0
    7.6193  -12.0444   26.9844 C   0  0  2  0  0  0  0  0  0  0  0  0
    7.1386  -12.9555   25.8824 C   0  0  0  0  0  0  0  0  0  0  0  0
    5.8975  -13.6622   26.3873 C   0  0  2  0  0  0  0  0  0  0  0  0
    8.1489  -14.0186   25.5340 N   0  0  0  0  0  0  0  0  0  0  0  0
    7.6198  -14.8034   24.4085 C   0  0  0  0  0  0  0  0  0  0  0  0
    8.3276  -14.8743   26.7190 O   0  0  0  0  0  0  0  0  0  0  0  0
    9.1123  -14.4351   27.7580 O   0  0  0  0  0  0  0  0  0  0  0  0
  2  1  1  1
  3  2  1  0
  4  5  2  0
  4  2  1  0
  6  7  1  0
  7  9  1  0
  7  8  2  0
  9 10  1  0
 10 11  1  0
 11 12  1  0
 13 12  1  1
 13 14  1  0
 14  4  1  0
 15 22  1  0
 15 13  1  0
 16 15  2  0
 18 17  1  0
 19 18  1  0
 19 21  1  0
 19 20  1  6
 21 22  1  1
 21 23  1  0
 23 24  1  0
 25 23  2  0
M  END
$$$$
