ARI.pdb
     RDKit          3D

 25 24  0  0  1  0  0  0  0  0999 V2000
   14.0090  -18.7820   22.3456 C   0  0  0  0  0  0  0  0  0  0  0  0
   13.3808  -17.6874   21.4920 C   0  0  2  0  0  0  0  0  0  0  0  0
   14.4483  -16.8894   20.9682 N   0  0  0  0  0  0  0  0  0  0  0  0
   12.4274  -16.8970   22.3169 C   0  0  0  0  0  0  0  0  0  0  0  0
   12.8760  -15.9741   23.0315 O   0  0  0  0  0  0  0  0  0  0  0  0
    7.6092  -14.2034   18.4069 N   0  0  0  0  0  0  0  0  0  0  0  0
    7.6721  -13.8750   19.7742 C   0  0  0  0  0  0  0  0  0  0  0  0
    7.8005  -12.6279   20.0985 N   0  0  0  0  0  0  0  0  0  0  0  0
    7.6021  -14.8376   20.8085 N   0  0  0  0  0  0  0  0  0  0  0  0
    7.6247  -14.4858   22.2020 C   0  0  0  0  0  0  0  0  0  0  0  0
    7.6762  -15.6899   23.0984 C   0  0  0  0  0  0  0  0  0  0  0  0
    8.7079  -16.6838   22.6036 C   0  0  0  0  0  0  0  0  0  0  0  0
   10.0864  -16.3572   23.1012 C   0  0  2  0  0  0  0  0  0  0  0  0
   11.0316  -17.1300   22.3408 N   0  0  0  0  0  0  0  0  0  0  0  0
   10.2305  -16.5419   24.5560 C   0  0  0  0  0  0  0  0  0  0  0  0
   10.5761  -17.6748   24.9771 O   0  0  0  0  0  0  0  0  0  0  0  0
    7.9003  -12.3109   21.0801 C   0  0  0  0  0  0  0  0  0  0  0  0
    9.2803  -12.1220   27.8083 C   0  0  0  0  0  0  0  0  0  0  0  0
   10.0522  -13.2103   27.0876 C   0  0  2  0  0  0  0  0  0  0  0  0
    9.6080  -14.5306   27.6666 C   0  0  0  0  0  0  0  0  0  0  0  0
   10.1008  -14.5869   29.0978 C   0  0  2  0  0  0  0  0  0  0  0  0
   10.2071  -15.7075   26.9399 N   0  0  0  0  0  0  0  0  0  0  0  0
    9.9998  -15.5104   25.4974 C   0  0  0  0  0  0  0  0  0  0  0  0
    9.5104  -16.9209   27.3989 O   0  0  0  0  0  0  0  0  0  0  0  0
   10.1115  -17.7350   28.3285 O   0  0  0  0  0  0  0  0  0  0  0  0
  2  1  1  1
  3  2  1  0
  4  5  2  0
  4  2  1  0
  6  7  1  0
  7  9  1  0
  7  8  2  0
  9 10  1  0
 10 11  1  0
 11 12  1  0
 13 12  1  6
 13 14  1  0
 14  4  1  0
 15 22  1  0
 15 13  1  0
 16 15  2  0
 18 17  1  0
 19 18  1  0
 19 21  1  0
 19 20  1  6
 21 22  1  6
 21 23  1  0
 23 24  1  0
 25 23  2  0
M  END
$$$$
