ARI.pdb
     RDKit          3D

 25 24  0  0  1  0  0  0  0  0999 V2000
    8.0027  -11.8816   19.4594 C   0  0  0  0  0  0  0  0  0  0  0  0
    7.9923  -13.3554   19.0727 C   0  0  2  0  0  0  0  0  0  0  0  0
    6.8814  -13.5575   18.1920 N   0  0  0  0  0  0  0  0  0  0  0  0
    7.9091  -14.1926   20.3001 C   0  0  0  0  0  0  0  0  0  0  0  0
    6.8124  -14.2758   20.8950 O   0  0  0  0  0  0  0  0  0  0  0  0
   12.6113  -20.2793   23.2757 N   0  0  0  0  0  0  0  0  0  0  0  0
   11.4492  -20.6694   23.9675 C   0  0  0  0  0  0  0  0  0  0  0  0
   11.5669  -21.5398   24.9189 N   0  0  0  0  0  0  0  0  0  0  0  0
   10.1627  -20.1587   23.6752 N   0  0  0  0  0  0  0  0  0  0  0  0
    9.9097  -19.2699   22.5743 C   0  0  0  0  0  0  0  0  0  0  0  0
    9.9542  -17.8244   22.9801 C   0  0  0  0  0  0  0  0  0  0  0  0
    9.8675  -16.9227   21.7649 C   0  0  0  0  0  0  0  0  0  0  0  0
    8.9382  -15.7650   21.9897 C   0  0  2  0  0  0  0  0  0  0  0  0
    9.0066  -14.9059   20.8381 N   0  0  0  0  0  0  0  0  0  0  0  0
    9.2009  -15.0547   23.2537 C   0  0  0  0  0  0  0  0  0  0  0  0
   10.1964  -14.2889   23.3061 O   0  0  0  0  0  0  0  0  0  0  0  0
   10.7648  -21.8518   25.4963 C   0  0  0  0  0  0  0  0  0  0  0  0
    5.6391  -12.2583   25.8137 C   0  0  0  0  0  0  0  0  0  0  0  0
    6.9634  -12.7505   25.2627 C   0  0  2  0  0  0  0  0  0  0  0  0
    7.4443  -13.8520   26.1743 C   0  0  0  0  0  0  0  0  0  0  0  0
    7.7700  -13.2229   27.5132 C   0  0  2  0  0  0  0  0  0  0  0  0
    8.7042  -14.5073   25.6690 N   0  0  0  0  0  0  0  0  0  0  0  0
    8.3906  -15.1924   24.4061 C   0  0  0  0  0  0  0  0  0  0  0  0
    9.1446  -15.4778   26.6852 O   0  0  0  0  0  0  0  0  0  0  0  0
    8.8987  -16.8160   26.4936 O   0  0  0  0  0  0  0  0  0  0  0  0
  2  1  1  1
  3  2  1  0
  4  5  2  0
  4  2  1  0
  6  7  1  0
  7  9  1  0
  7  8  2  0
  9 10  1  0
 10 11  1  0
 11 12  1  0
 13 12  1  6
 13 14  1  0
 14  4  1  0
 15 22  1  0
 15 13  1  0
 16 15  2  0
 18 17  1  0
 19 18  1  0
 19 21  1  0
 19 20  1  6
 21 22  1  6
 21 23  1  0
 23 24  1  0
 25 23  2  0
M  END
$$$$
