ARI.pdb
     RDKit          3D

 25 24  0  0  1  0  0  0  0  0999 V2000
    8.0007  -12.0635   19.0446 C   0  0  0  0  0  0  0  0  0  0  0  0
    8.1787  -13.5543   18.7851 C   0  0  2  0  0  0  0  0  0  0  0  0
    7.3116  -13.9050   17.7008 N   0  0  0  0  0  0  0  0  0  0  0  0
    7.8779  -14.3162   20.0275 C   0  0  0  0  0  0  0  0  0  0  0  0
    6.6886  -14.4024   20.4040 O   0  0  0  0  0  0  0  0  0  0  0  0
   12.1171  -19.3274   24.6005 N   0  0  0  0  0  0  0  0  0  0  0  0
   11.0029  -20.1806   24.7085 C   0  0  0  0  0  0  0  0  0  0  0  0
   10.9536  -20.9985   25.7112 N   0  0  0  0  0  0  0  0  0  0  0  0
    9.9373  -20.1884   23.7781 N   0  0  0  0  0  0  0  0  0  0  0  0
    9.9035  -19.3296   22.6260 C   0  0  0  0  0  0  0  0  0  0  0  0
    9.3299  -17.9760   22.9343 C   0  0  0  0  0  0  0  0  0  0  0  0
    9.1879  -17.1524   21.6699 C   0  0  0  0  0  0  0  0  0  0  0  0
    8.5913  -15.8020   21.9433 C   0  0  2  0  0  0  0  0  0  0  0  0
    8.8663  -14.9542   20.8143 N   0  0  0  0  0  0  0  0  0  0  0  0
    9.0424  -15.2228   23.2209 C   0  0  0  0  0  0  0  0  0  0  0  0
   10.2677  -14.9786   23.3599 O   0  0  0  0  0  0  0  0  0  0  0  0
   10.1807  -21.6758   25.8452 C   0  0  0  0  0  0  0  0  0  0  0  0
    5.8529  -11.7955   25.8895 C   0  0  0  0  0  0  0  0  0  0  0  0
    7.0718  -12.4298   25.2479 C   0  0  2  0  0  0  0  0  0  0  0  0
    7.5290  -13.5408   26.1602 C   0  0  0  0  0  0  0  0  0  0  0  0
    8.0674  -12.8989   27.4222 C   0  0  2  0  0  0  0  0  0  0  0  0
    8.6467  -14.3545   25.5595 N   0  0  0  0  0  0  0  0  0  0  0  0
    8.1671  -14.9295   24.2939 C   0  0  0  0  0  0  0  0  0  0  0  0
    8.9876  -15.4230   26.5138 O   0  0  0  0  0  0  0  0  0  0  0  0
    9.9747  -15.2081   27.4452 O   0  0  0  0  0  0  0  0  0  0  0  0
  2  1  1  1
  3  2  1  0
  4  5  2  0
  4  2  1  0
  6  7  1  0
  7  9  1  0
  7  8  2  0
  9 10  1  0
 10 11  1  0
 11 12  1  0
 13 12  1  6
 13 14  1  0
 14  4  1  0
 15 22  1  0
 15 13  1  0
 16 15  2  0
 18 17  1  0
 19 18  1  0
 19 21  1  0
 19 20  1  1
 21 22  1  6
 21 23  1  0
 23 24  1  0
 25 23  2  0
M  END
$$$$
