ARI.pdb
     RDKit          3D

 25 24  0  0  1  0  0  0  0  0999 V2000
    8.6896  -12.5879   19.3926 C   0  0  0  0  0  0  0  0  0  0  0  0
    8.1157  -13.9782   19.1493 C   0  0  2  0  0  0  0  0  0  0  0  0
    7.1437  -13.8615   18.1043 N   0  0  0  0  0  0  0  0  0  0  0  0
    7.5356  -14.5067   20.4137 C   0  0  0  0  0  0  0  0  0  0  0  0
    6.4967  -13.9760   20.8637 O   0  0  0  0  0  0  0  0  0  0  0  0
    8.2933  -20.4034   24.1958 N   0  0  0  0  0  0  0  0  0  0  0  0
    6.9854  -20.8881   24.3844 C   0  0  0  0  0  0  0  0  0  0  0  0
    6.8384  -22.1028   24.8083 N   0  0  0  0  0  0  0  0  0  0  0  0
    5.8269  -20.1158   24.1341 N   0  0  0  0  0  0  0  0  0  0  0  0
    5.8825  -18.7643   23.6478 C   0  0  0  0  0  0  0  0  0  0  0  0
    7.2713  -18.1939   23.6917 C   0  0  0  0  0  0  0  0  0  0  0  0
    7.6423  -17.5807   22.3562 C   0  0  0  0  0  0  0  0  0  0  0  0
    7.5801  -16.0809   22.3902 C   0  0  2  0  0  0  0  0  0  0  0  0
    8.0949  -15.5831   21.1428 N   0  0  0  0  0  0  0  0  0  0  0  0
    8.2593  -15.5043   23.5639 C   0  0  0  0  0  0  0  0  0  0  0  0
    9.5146  -15.4402   23.5485 O   0  0  0  0  0  0  0  0  0  0  0  0
    5.9090  -22.5364   24.9575 C   0  0  0  0  0  0  0  0  0  0  0  0
    6.0603  -11.3189   25.8384 C   0  0  0  0  0  0  0  0  0  0  0  0
    7.1810  -12.2015   25.3237 C   0  0  2  0  0  0  0  0  0  0  0  0
    7.4147  -13.2745   26.3579 C   0  0  0  0  0  0  0  0  0  0  0  0
    8.1627  -12.6378   27.5110 C   0  0  2  0  0  0  0  0  0  0  0  0
    8.2710  -14.3996   25.8353 N   0  0  0  0  0  0  0  0  0  0  0  0
    7.5700  -15.0217   24.7021 C   0  0  0  0  0  0  0  0  0  0  0  0
    8.4498  -15.3722   26.9264 O   0  0  0  0  0  0  0  0  0  0  0  0
    9.5577  -15.2856   27.7346 O   0  0  0  0  0  0  0  0  0  0  0  0
  2  1  1  1
  3  2  1  0
  4  5  2  0
  4  2  1  0
  6  7  1  0
  7  9  1  0
  7  8  2  0
  9 10  1  0
 10 11  1  0
 11 12  1  0
 13 12  1  6
 13 14  1  0
 14  4  1  0
 15 22  1  0
 15 13  1  0
 16 15  2  0
 18 17  1  0
 19 18  1  0
 19 21  1  0
 19 20  1  1
 21 22  1  6
 21 23  1  0
 23 24  1  0
 25 23  2  0
M  END
$$$$
