ARI.pdb
     RDKit          3D

 25 24  0  0  1  0  0  0  0  0999 V2000
    8.4781  -12.2243   19.0371 C   0  0  0  0  0  0  0  0  0  0  0  0
    8.4681  -13.7241   18.7687 C   0  0  2  0  0  0  0  0  0  0  0  0
    7.7660  -13.9325   17.5381 N   0  0  0  0  0  0  0  0  0  0  0  0
    7.8359  -14.4318   19.9149 C   0  0  0  0  0  0  0  0  0  0  0  0
    6.5889  -14.5163   19.9525 O   0  0  0  0  0  0  0  0  0  0  0  0
   12.0429  -19.0315   23.4559 N   0  0  0  0  0  0  0  0  0  0  0  0
   12.1541  -19.3757   22.0956 C   0  0  0  0  0  0  0  0  0  0  0  0
   13.3267  -19.6737   21.6340 N   0  0  0  0  0  0  0  0  0  0  0  0
   11.0511  -19.4120   21.2106 N   0  0  0  0  0  0  0  0  0  0  0  0
    9.7272  -19.0098   21.6000 C   0  0  0  0  0  0  0  0  0  0  0  0
    9.5837  -17.5176   21.6940 C   0  0  0  0  0  0  0  0  0  0  0  0
    8.1465  -17.1336   21.9839 C   0  0  0  0  0  0  0  0  0  0  0  0
    7.9796  -15.6482   22.1254 C   0  0  2  0  0  0  0  0  0  0  0  0
    8.5686  -15.0197   20.9735 N   0  0  0  0  0  0  0  0  0  0  0  0
    8.5107  -15.1293   23.3983 C   0  0  0  0  0  0  0  0  0  0  0  0
    9.6932  -14.7032   23.4160 O   0  0  0  0  0  0  0  0  0  0  0  0
   13.4847  -19.9718   20.6541 C   0  0  0  0  0  0  0  0  0  0  0  0
    5.8178  -11.6037   26.0604 C   0  0  0  0  0  0  0  0  0  0  0  0
    6.9357  -12.4166   25.4365 C   0  0  2  0  0  0  0  0  0  0  0  0
    7.2446  -13.5503   26.3825 C   0  0  0  0  0  0  0  0  0  0  0  0
    7.8117  -12.9427   27.6488 C   0  0  2  0  0  0  0  0  0  0  0  0
    8.2857  -14.4909   25.8317 N   0  0  0  0  0  0  0  0  0  0  0  0
    7.7574  -15.0878   24.5959 C   0  0  0  0  0  0  0  0  0  0  0  0
    8.5297  -15.5331   26.8431 O   0  0  0  0  0  0  0  0  0  0  0  0
    9.5113  -15.3438   27.7858 O   0  0  0  0  0  0  0  0  0  0  0  0
  2  1  1  1
  3  2  1  0
  4  5  2  0
  4  2  1  0
  6  7  1  0
  7  9  1  0
  7  8  2  0
  9 10  1  0
 10 11  1  0
 11 12  1  0
 13 12  1  6
 13 14  1  0
 14  4  1  0
 15 22  1  0
 15 13  1  0
 16 15  2  0
 18 17  1  0
 19 18  1  0
 19 21  1  0
 19 20  1  1
 21 22  1  6
 21 23  1  0
 23 24  1  0
 25 23  2  0
M  END
$$$$
