ARI.pdb
     RDKit          3D

 25 24  0  0  1  0  0  0  0  0999 V2000
   12.5993  -20.1721   22.1116 C   0  0  0  0  0  0  0  0  0  0  0  0
   12.1912  -19.0084   21.2167 C   0  0  2  0  0  0  0  0  0  0  0  0
   13.3071  -18.7091   20.3708 N   0  0  0  0  0  0  0  0  0  0  0  0
   11.7847  -17.8506   22.0585 C   0  0  0  0  0  0  0  0  0  0  0  0
   12.6752  -17.1046   22.5211 O   0  0  0  0  0  0  0  0  0  0  0  0
    8.4235  -14.6018   18.7459 N   0  0  0  0  0  0  0  0  0  0  0  0
    7.7384  -13.4906   19.2722 C   0  0  0  0  0  0  0  0  0  0  0  0
    7.7835  -12.3762   18.6141 N   0  0  0  0  0  0  0  0  0  0  0  0
    7.0051  -13.5311   20.4812 N   0  0  0  0  0  0  0  0  0  0  0  0
    7.1100  -14.6153   21.4191 C   0  0  0  0  0  0  0  0  0  0  0  0
    8.5260  -14.8651   21.8534 C   0  0  0  0  0  0  0  0  0  0  0  0
    8.6035  -16.0768   22.7607 C   0  0  0  0  0  0  0  0  0  0  0  0
   10.0185  -16.4035   23.1418 C   0  0  2  0  0  0  0  0  0  0  0  0
   10.4389  -17.5415   22.3690 N   0  0  0  0  0  0  0  0  0  0  0  0
   10.1926  -16.5971   24.5921 C   0  0  0  0  0  0  0  0  0  0  0  0
    9.8135  -17.6859   25.0933 O   0  0  0  0  0  0  0  0  0  0  0  0
    7.3393  -11.5045   18.9558 C   0  0  0  0  0  0  0  0  0  0  0  0
   10.1050  -13.4395   29.7151 C   0  0  0  0  0  0  0  0  0  0  0  0
   10.6445  -14.7191   29.1060 C   0  0  2  0  0  0  0  0  0  0  0  0
   10.4040  -14.6414   27.6188 C   0  0  0  0  0  0  0  0  0  0  0  0
    8.9051  -14.6080   27.4029 C   0  0  2  0  0  0  0  0  0  0  0  0
   10.9353  -15.8473   26.8869 N   0  0  0  0  0  0  0  0  0  0  0  0
   10.7631  -15.6213   25.4440 C   0  0  0  0  0  0  0  0  0  0  0  0
   10.1534  -17.0170   27.3214 O   0  0  0  0  0  0  0  0  0  0  0  0
    9.1373  -17.4854   26.5237 O   0  0  0  0  0  0  0  0  0  0  0  0
  2  1  1  1
  3  2  1  0
  4  5  2  0
  4  2  1  0
  6  7  1  0
  7  9  1  0
  7  8  2  0
  9 10  1  0
 10 11  1  0
 11 12  1  0
 13 12  1  1
 13 14  1  0
 14  4  1  0
 15 22  1  0
 15 13  1  0
 16 15  2  0
 18 17  1  0
 19 18  1  0
 19 21  1  0
 19 20  1  6
 21 22  1  1
 21 23  1  0
 23 24  1  0
 25 23  2  0
M  END
$$$$
