CMS.pdb
     RDKit          3D

 21 20  0  0  1  0  0  0  0  0999 V2000
    4.8465  -19.7781   22.1064 N   0  0  0  0  0  0  0  0  0  0  0  0
    5.4310  -19.5275   23.4005 C   0  0  1  0  0  0  0  0  0  0  0  0
    6.2831  -20.6998   23.7781 C   0  0  0  0  0  0  0  0  0  0  0  0
    5.3841  -21.8828   24.8192 S   0  0  0  0  0  0  0  0  0  0  0  0
    6.2783  -18.2779   23.3778 C   0  0  0  0  0  0  0  0  0  0  0  0
    6.8704  -18.0709   22.3042 O   0  0  0  0  0  0  0  0  0  0  0  0
    7.6447  -11.2563   26.6391 C   0  0  0  0  0  0  0  0  0  0  0  0
    6.5627  -12.7009   26.6289 S   0  0  0  0  0  0  0  0  0  0  0  0
    7.3881  -14.0114   25.6945 C   0  0  0  0  0  0  0  0  0  0  0  0
    6.5247  -15.2398   25.5850 C   0  0  0  0  0  0  0  0  0  0  0  0
    7.1619  -16.2807   24.6885 C   0  0  2  0  0  0  0  0  0  0  0  0
    6.3609  -17.4472   24.5012 N   0  0  0  0  0  0  0  0  0  0  0  0
    8.5854  -16.5210   24.9567 C   0  0  0  0  0  0  0  0  0  0  0  0
    8.9575  -17.3063   25.8962 O   0  0  0  0  0  0  0  0  0  0  0  0
   13.1284  -16.4065   23.1823 O   0  0  0  0  0  0  0  0  0  0  0  0
   11.8570  -15.8403   23.1755 C   0  0  0  0  0  0  0  0  0  0  0  0
   10.9833  -16.4187   24.2693 C   0  0  2  0  0  0  0  0  0  0  0  0
    9.6387  -15.9198   24.2177 N   0  0  0  0  0  0  0  0  0  0  0  0
   11.6194  -16.2449   25.5901 C   0  0  0  0  0  0  0  0  0  0  0  0
   12.7780  -16.8733   26.0001 O   0  0  0  0  0  0  0  0  0  0  0  0
   11.0608  -15.4637   26.4027 O   0  0  0  0  0  0  0  0  0  0  0  0
  2  3  1  0
  2  1  1  6
  4  3  1  0
  5  2  1  0
  5 12  1  0
  6  5  2  0
  7  8  1  0
  8  9  1  0
  9 10  1  0
 11 10  1  1
 11 12  1  0
 13 14  2  0
 13 11  1  0
 16 15  1  0
 17 18  1  0
 17 16  1  6
 18 13  1  0
 19 17  1  0
 20 19  1  0
 21 19  2  0
M  END
$$$$
