CMS.pdb
     RDKit          3D

 21 20  0  0  1  0  0  0  0  0999 V2000
    8.4263  -15.9378   19.1784 N   0  0  0  0  0  0  0  0  0  0  0  0
    7.5280  -15.6108   20.2580 C   0  0  1  0  0  0  0  0  0  0  0  0
    6.5079  -16.7005   20.3809 C   0  0  0  0  0  0  0  0  0  0  0  0
    7.2608  -18.2826   20.8518 S   0  0  0  0  0  0  0  0  0  0  0  0
    8.2771  -15.4753   21.5619 C   0  0  0  0  0  0  0  0  0  0  0  0
    9.4236  -15.9565   21.5550 O   0  0  0  0  0  0  0  0  0  0  0  0
    6.1766  -11.3574   26.1546 C   0  0  0  0  0  0  0  0  0  0  0  0
    7.0872  -12.4621   27.2538 S   0  0  0  0  0  0  0  0  0  0  0  0
    8.0076  -13.6358   26.2305 C   0  0  0  0  0  0  0  0  0  0  0  0
    7.3742  -13.8020   24.8749 C   0  0  0  0  0  0  0  0  0  0  0  0
    8.2000  -14.7131   23.9910 C   0  0  2  0  0  0  0  0  0  0  0  0
    7.6871  -14.8494   22.6660 N   0  0  0  0  0  0  0  0  0  0  0  0
    8.6304  -15.9582   24.6394 C   0  0  0  0  0  0  0  0  0  0  0  0
    7.8091  -16.9202   24.8339 O   0  0  0  0  0  0  0  0  0  0  0  0
   12.6991  -17.1096   25.1722 O   0  0  0  0  0  0  0  0  0  0  0  0
   11.6314  -17.9799   24.9737 C   0  0  0  0  0  0  0  0  0  0  0  0
   10.3633  -17.4636   25.6214 C   0  0  2  0  0  0  0  0  0  0  0  0
    9.9559  -16.1933   25.0921 N   0  0  0  0  0  0  0  0  0  0  0  0
   10.4907  -17.4687   27.0921 C   0  0  0  0  0  0  0  0  0  0  0  0
   10.3038  -16.3705   27.9072 O   0  0  0  0  0  0  0  0  0  0  0  0
   10.7930  -18.5588   27.6427 O   0  0  0  0  0  0  0  0  0  0  0  0
  2  3  1  0
  2  1  1  6
  4  3  1  0
  5  2  1  0
  5 12  1  0
  6  5  2  0
  7  8  1  0
  8  9  1  0
  9 10  1  0
 11 10  1  1
 11 12  1  0
 13 14  2  0
 13 11  1  0
 16 15  1  0
 17 18  1  0
 17 16  1  6
 18 13  1  0
 19 17  1  0
 20 19  1  0
 21 19  2  0
M  END
$$$$
