CMS.pdb
     RDKit          3D

 21 20  0  0  1  0  0  0  0  0999 V2000
    8.3082  -12.9205   18.8122 N   0  0  0  0  0  0  0  0  0  0  0  0
    7.5281  -13.7576   19.6898 C   0  0  1  0  0  0  0  0  0  0  0  0
    7.4847  -15.1420   19.1200 C   0  0  0  0  0  0  0  0  0  0  0  0
    6.3356  -15.2627   17.7212 S   0  0  0  0  0  0  0  0  0  0  0  0
    8.1332  -13.8027   21.0724 C   0  0  0  0  0  0  0  0  0  0  0  0
    9.3758  -13.8407   21.0949 O   0  0  0  0  0  0  0  0  0  0  0  0
    7.1894  -12.3594   28.6797 C   0  0  0  0  0  0  0  0  0  0  0  0
    6.4788  -12.1647   27.0319 S   0  0  0  0  0  0  0  0  0  0  0  0
    7.1579  -13.4642   25.9727 C   0  0  0  0  0  0  0  0  0  0  0  0
    6.7027  -13.3084   24.5462 C   0  0  0  0  0  0  0  0  0  0  0  0
    7.7064  -13.9042   23.5814 C   0  0  2  0  0  0  0  0  0  0  0  0
    7.3198  -13.8002   22.2114 N   0  0  0  0  0  0  0  0  0  0  0  0
    8.2445  -15.2063   23.9950 C   0  0  0  0  0  0  0  0  0  0  0  0
    7.5371  -16.2697   23.9137 O   0  0  0  0  0  0  0  0  0  0  0  0
   12.0139  -18.0992   24.8485 O   0  0  0  0  0  0  0  0  0  0  0  0
   11.5224  -16.8560   24.4613 C   0  0  0  0  0  0  0  0  0  0  0  0
   10.0658  -16.6893   24.8416 C   0  0  2  0  0  0  0  0  0  0  0  0
    9.5571  -15.3901   24.5053 N   0  0  0  0  0  0  0  0  0  0  0  0
    9.8528  -17.0503   26.2571 C   0  0  0  0  0  0  0  0  0  0  0  0
    9.7881  -18.3401   26.7445 O   0  0  0  0  0  0  0  0  0  0  0  0
    9.7204  -16.1084   27.0806 O   0  0  0  0  0  0  0  0  0  0  0  0
  2  3  1  0
  2  1  1  6
  4  3  1  0
  5  2  1  0
  5 12  1  0
  6  5  2  0
  7  8  1  0
  8  9  1  0
  9 10  1  0
 11 10  1  1
 11 12  1  0
 13 14  2  0
 13 11  1  0
 16 15  1  0
 17 18  1  0
 17 16  1  1
 18 13  1  0
 19 17  1  0
 20 19  1  0
 21 19  2  0
M  END
$$$$
