CMS.pdb
     RDKit          3D

 21 20  0  0  1  0  0  0  0  0999 V2000
    9.9880  -15.9701   19.7655 N   0  0  0  0  0  0  0  0  0  0  0  0
    8.8411  -15.8714   20.6340 C   0  0  1  0  0  0  0  0  0  0  0  0
    8.0165  -17.1126   20.4840 C   0  0  0  0  0  0  0  0  0  0  0  0
    7.3687  -17.2954   18.7992 S   0  0  0  0  0  0  0  0  0  0  0  0
    9.2660  -15.7224   22.0752 C   0  0  0  0  0  0  0  0  0  0  0  0
   10.3580  -16.2486   22.3521 O   0  0  0  0  0  0  0  0  0  0  0  0
    5.6196  -12.0173   26.0989 C   0  0  0  0  0  0  0  0  0  0  0  0
    6.9764  -12.3926   27.2286 S   0  0  0  0  0  0  0  0  0  0  0  0
    7.9587  -13.7252   26.4999 C   0  0  0  0  0  0  0  0  0  0  0  0
    7.7815  -13.7891   25.0063 C   0  0  0  0  0  0  0  0  0  0  0  0
    8.6659  -14.8547   24.3935 C   0  0  2  0  0  0  0  0  0  0  0  0
    8.4614  -15.0371   22.9927 N   0  0  0  0  0  0  0  0  0  0  0  0
    8.7706  -16.0850   25.1881 C   0  0  0  0  0  0  0  0  0  0  0  0
    7.7763  -16.8820   25.3064 O   0  0  0  0  0  0  0  0  0  0  0  0
   12.1769  -18.3241   25.6241 O   0  0  0  0  0  0  0  0  0  0  0  0
   10.8658  -18.7564   25.8007 C   0  0  0  0  0  0  0  0  0  0  0  0
   10.0408  -17.7388   26.5609 C   0  0  2  0  0  0  0  0  0  0  0  0
    9.9498  -16.4829   25.8724 N   0  0  0  0  0  0  0  0  0  0  0  0
   10.5252  -17.6087   27.9494 C   0  0  0  0  0  0  0  0  0  0  0  0
   10.9007  -16.4238   28.5496 O   0  0  0  0  0  0  0  0  0  0  0  0
   10.6006  -18.6599   28.6365 O   0  0  0  0  0  0  0  0  0  0  0  0
  2  3  1  0
  2  1  1  6
  4  3  1  0
  5  2  1  0
  5 12  1  0
  6  5  2  0
  7  8  1  0
  8  9  1  0
  9 10  1  0
 11 10  1  1
 11 12  1  0
 13 14  2  0
 13 11  1  0
 16 15  1  0
 17 18  1  0
 17 16  1  6
 18 13  1  0
 19 17  1  0
 20 19  1  0
 21 19  2  0
M  END
$$$$
