CMS.pdb
     RDKit          3D

 21 20  0  0  1  0  0  0  0  0999 V2000
    8.4792  -12.9385   19.7600 N   0  0  0  0  0  0  0  0  0  0  0  0
    7.6549  -13.7825   20.5893 C   0  0  1  0  0  0  0  0  0  0  0  0
    7.4422  -15.0873   19.8856 C   0  0  0  0  0  0  0  0  0  0  0  0
    6.4089  -14.8980   18.4063 S   0  0  0  0  0  0  0  0  0  0  0  0
    8.3117  -14.0342   21.9254 C   0  0  0  0  0  0  0  0  0  0  0  0
    9.5530  -14.0976   21.8905 O   0  0  0  0  0  0  0  0  0  0  0  0
    6.1533  -10.2269   27.1419 C   0  0  0  0  0  0  0  0  0  0  0  0
    5.9190  -12.0036   26.9263 S   0  0  0  0  0  0  0  0  0  0  0  0
    7.0546  -12.5651   25.6352 C   0  0  0  0  0  0  0  0  0  0  0  0
    7.0341  -14.0638   25.4949 C   0  0  0  0  0  0  0  0  0  0  0  0
    7.9746  -14.5259   24.4017 C   0  0  2  0  0  0  0  0  0  0  0  0
    7.5432  -14.1784   23.0862 N   0  0  0  0  0  0  0  0  0  0  0  0
    8.4693  -15.8982   24.5688 C   0  0  0  0  0  0  0  0  0  0  0  0
    7.7350  -16.9054   24.2784 O   0  0  0  0  0  0  0  0  0  0  0  0
   12.4959  -16.9396   24.6399 O   0  0  0  0  0  0  0  0  0  0  0  0
   11.4675  -17.8173   24.3098 C   0  0  0  0  0  0  0  0  0  0  0  0
   10.2315  -17.5689   25.1492 C   0  0  2  0  0  0  0  0  0  0  0  0
    9.7667  -16.2145   25.0524 N   0  0  0  0  0  0  0  0  0  0  0  0
   10.4492  -18.0126   26.5403 C   0  0  0  0  0  0  0  0  0  0  0  0
   10.9168  -19.2573   26.9107 O   0  0  0  0  0  0  0  0  0  0  0  0
   10.1878  -17.1914   27.4569 O   0  0  0  0  0  0  0  0  0  0  0  0
  2  3  1  0
  2  1  1  6
  4  3  1  0
  5  2  1  0
  5 12  1  0
  6  5  2  0
  7  8  1  0
  8  9  1  0
  9 10  1  0
 11 10  1  1
 11 12  1  0
 13 14  2  0
 13 11  1  0
 16 15  1  0
 17 18  1  0
 17 16  1  6
 18 13  1  0
 19 17  1  0
 20 19  1  0
 21 19  2  0
M  END
$$$$
