CMS.pdb
     RDKit          3D

 21 20  0  0  1  0  0  0  0  0999 V2000
    9.5144  -15.8369   19.2847 N   0  0  0  0  0  0  0  0  0  0  0  0
    8.4620  -15.9945   20.2578 C   0  0  1  0  0  0  0  0  0  0  0  0
    8.0374  -17.4306   20.2779 C   0  0  0  0  0  0  0  0  0  0  0  0
    7.1459  -17.8942   18.7673 S   0  0  0  0  0  0  0  0  0  0  0  0
    8.9341  -15.5914   21.6342 C   0  0  0  0  0  0  0  0  0  0  0  0
   10.1567  -15.7177   21.8220 O   0  0  0  0  0  0  0  0  0  0  0  0
    6.8223  -10.9505   26.5091 C   0  0  0  0  0  0  0  0  0  0  0  0
    6.2716  -12.6405   26.8235 S   0  0  0  0  0  0  0  0  0  0  0  0
    7.4737  -13.7682   26.0784 C   0  0  0  0  0  0  0  0  0  0  0  0
    7.1935  -13.9866   24.6155 C   0  0  0  0  0  0  0  0  0  0  0  0
    8.2567  -14.8554   23.9766 C   0  0  2  0  0  0  0  0  0  0  0  0
    8.0300  -15.1180   22.5921 N   0  0  0  0  0  0  0  0  0  0  0  0
    8.6616  -16.0111   24.7869 C   0  0  0  0  0  0  0  0  0  0  0  0
    7.8433  -16.9633   25.0353 O   0  0  0  0  0  0  0  0  0  0  0  0
   11.8309  -17.8708   24.3056 O   0  0  0  0  0  0  0  0  0  0  0  0
   11.6730  -17.8840   25.6883 C   0  0  0  0  0  0  0  0  0  0  0  0
   10.3252  -17.3298   26.1009 C   0  0  2  0  0  0  0  0  0  0  0  0
    9.9576  -16.1653   25.3468 N   0  0  0  0  0  0  0  0  0  0  0  0
   10.2739  -17.1190   27.5611 C   0  0  0  0  0  0  0  0  0  0  0  0
   10.5438  -18.0838   28.5107 O   0  0  0  0  0  0  0  0  0  0  0  0
    9.9599  -15.9711   27.9691 O   0  0  0  0  0  0  0  0  0  0  0  0
  2  3  1  0
  2  1  1  6
  4  3  1  0
  5  2  1  0
  5 12  1  0
  6  5  2  0
  7  8  1  0
  8  9  1  0
  9 10  1  0
 11 10  1  1
 11 12  1  0
 13 14  2  0
 13 11  1  0
 16 15  1  0
 17 18  1  0
 17 16  1  6
 18 13  1  0
 19 17  1  0
 20 19  1  0
 21 19  2  0
M  END
$$$$
