CMS.pdb
     RDKit          3D

 21 20  0  0  1  0  0  0  0  0999 V2000
    9.1908  -15.7774   19.1699 N   0  0  0  0  0  0  0  0  0  0  0  0
    8.1901  -16.0318   20.1766 C   0  0  1  0  0  0  0  0  0  0  0  0
    7.8321  -17.4856   20.1416 C   0  0  0  0  0  0  0  0  0  0  0  0
    6.5390  -17.8935   21.3471 S   0  0  0  0  0  0  0  0  0  0  0  0
    8.7032  -15.6742   21.5508 C   0  0  0  0  0  0  0  0  0  0  0  0
    9.9032  -15.9377   21.7424 O   0  0  0  0  0  0  0  0  0  0  0  0
    6.9387  -11.8135   28.2488 C   0  0  0  0  0  0  0  0  0  0  0  0
    6.4049  -12.1672   26.5612 S   0  0  0  0  0  0  0  0  0  0  0  0
    7.5145  -13.4198   25.8744 C   0  0  0  0  0  0  0  0  0  0  0  0
    7.1808  -13.7261   24.4387 C   0  0  0  0  0  0  0  0  0  0  0  0
    8.1538  -14.7260   23.8501 C   0  0  2  0  0  0  0  0  0  0  0  0
    7.8578  -15.0930   22.5029 N   0  0  0  0  0  0  0  0  0  0  0  0
    8.5036  -15.8323   24.7501 C   0  0  0  0  0  0  0  0  0  0  0  0
    7.6184  -16.6678   25.1453 O   0  0  0  0  0  0  0  0  0  0  0  0
   12.4697  -17.1020   25.3601 O   0  0  0  0  0  0  0  0  0  0  0  0
   11.3686  -17.9508   25.4244 C   0  0  0  0  0  0  0  0  0  0  0  0
   10.1518  -17.2439   25.9846 C   0  0  2  0  0  0  0  0  0  0  0  0
    9.8154  -16.0618   25.2435 N   0  0  0  0  0  0  0  0  0  0  0  0
   10.3123  -16.9990   27.4315 C   0  0  0  0  0  0  0  0  0  0  0  0
   10.6128  -17.9657   28.3699 O   0  0  0  0  0  0  0  0  0  0  0  0
   10.1633  -15.8179   27.8382 O   0  0  0  0  0  0  0  0  0  0  0  0
  2  3  1  0
  2  1  1  6
  4  3  1  0
  5  2  1  0
  5 12  1  0
  6  5  2  0
  7  8  1  0
  8  9  1  0
  9 10  1  0
 11 10  1  1
 11 12  1  0
 13 14  2  0
 13 11  1  0
 16 15  1  0
 17 18  1  0
 17 16  1  6
 18 13  1  0
 19 17  1  0
 20 19  1  0
 21 19  2  0
M  END
$$$$
