PNA.pdb
     RDKit          3D

 21 21  0  0  1  0  0  0  0  0999 V2000
    7.9772  -13.7088   20.3510 N   0  0  0  0  0  0  0  0  0  0  0  0
    7.2966  -12.9768   19.3004 C   0  0  0  0  0  0  0  0  0  0  0  0
    6.8288  -13.9852   18.2889 C   0  0  0  0  0  0  0  0  0  0  0  0
    7.3950  -15.2758   18.7819 C   0  0  0  0  0  0  0  0  0  0  0  0
    7.4757  -15.0669   20.2839 C   0  0  1  0  0  0  0  0  0  0  0  0
    8.3981  -16.0399   20.8826 C   0  0  0  0  0  0  0  0  0  0  0  0
    8.0688  -17.2476   20.9702 O   0  0  0  0  0  0  0  0  0  0  0  0
   13.1143  -18.4445   21.3603 N   0  0  0  0  0  0  0  0  0  0  0  0
   13.0574  -17.1008   21.8167 C   0  0  0  0  0  0  0  0  0  0  0  0
   13.8984  -16.7193   22.6505 O   0  0  0  0  0  0  0  0  0  0  0  0
   12.0272  -16.1855   21.3130 C   0  0  0  0  0  0  0  0  0  0  0  0
   10.6515  -16.5424   21.8828 C   0  0  2  0  0  0  0  0  0  0  0  0
    9.6535  -15.6353   21.3625 N   0  0  0  0  0  0  0  0  0  0  0  0
   10.7148  -16.4639   23.3494 C   0  0  0  0  0  0  0  0  0  0  0  0
   11.5340  -17.1118   24.0495 O   0  0  0  0  0  0  0  0  0  0  0  0
    8.8836  -14.3794   25.8871 C   0  0  0  0  0  0  0  0  0  0  0  0
    9.7828  -15.5222   25.4798 C   0  0  2  0  0  0  0  0  0  0  0  0
    9.8078  -15.6134   24.0365 N   0  0  0  0  0  0  0  0  0  0  0  0
    9.3229  -16.7967   26.0816 C   0  0  0  0  0  0  0  0  0  0  0  0
    8.7798  -17.6844   25.3705 O   0  0  0  0  0  0  0  0  0  0  0  0
    9.4664  -17.0655   27.4268 O   0  0  0  0  0  0  0  0  0  0  0  0
  2  1  1  0
  3  4  1  0
  3  2  1  0
  4  5  1  0
  5  1  1  0
  5  6  1  6
  6 13  1  0
  7  6  2  0
  9  8  1  0
 10  9  2  0
 11  9  1  0
 12 11  1  6
 12 13  1  0
 12 14  1  0
 14 15  2  0
 14 18  1  0
 17 16  1  6
 17 19  1  0
 18 17  1  0
 19 21  1  0
 20 19  2  0
M  END
$$$$
