PNA.pdb
     RDKit          3D

 21 21  0  0  1  0  0  0  0  0999 V2000
    8.4110  -15.2016   20.4394 N   0  0  0  0  0  0  0  0  0  0  0  0
    8.2251  -14.7430   19.0763 C   0  0  0  0  0  0  0  0  0  0  0  0
    7.6556  -13.3540   19.1495 C   0  0  0  0  0  0  0  0  0  0  0  0
    7.4303  -13.1362   20.6094 C   0  0  0  0  0  0  0  0  0  0  0  0
    8.4918  -14.0077   21.2571 C   0  0  1  0  0  0  0  0  0  0  0  0
    8.1513  -14.2618   22.6626 C   0  0  0  0  0  0  0  0  0  0  0  0
    7.9373  -13.3015   23.4416 O   0  0  0  0  0  0  0  0  0  0  0  0
    5.6686  -16.7931   22.9002 N   0  0  0  0  0  0  0  0  0  0  0  0
    6.2983  -17.7742   23.7112 C   0  0  0  0  0  0  0  0  0  0  0  0
    5.9032  -18.9515   23.6360 O   0  0  0  0  0  0  0  0  0  0  0  0
    7.3912  -17.4029   24.6171 C   0  0  0  0  0  0  0  0  0  0  0  0
    7.7053  -15.9079   24.5125 C   0  0  2  0  0  0  0  0  0  0  0  0
    8.0609  -15.5743   23.1517 N   0  0  0  0  0  0  0  0  0  0  0  0
    8.8079  -15.5933   25.4326 C   0  0  0  0  0  0  0  0  0  0  0  0
   10.0142  -15.8559   25.1938 O   0  0  0  0  0  0  0  0  0  0  0  0
    9.0854  -13.2869   28.3094 C   0  0  0  0  0  0  0  0  0  0  0  0
    9.5591  -14.5152   27.5697 C   0  0  2  0  0  0  0  0  0  0  0  0
    8.5173  -14.9560   26.6685 N   0  0  0  0  0  0  0  0  0  0  0  0
    9.9283  -15.5935   28.5179 C   0  0  0  0  0  0  0  0  0  0  0  0
    9.2505  -16.6543   28.5807 O   0  0  0  0  0  0  0  0  0  0  0  0
   11.0140  -15.4869   29.3619 O   0  0  0  0  0  0  0  0  0  0  0  0
  2  1  1  0
  3  4  1  0
  3  2  1  0
  4  5  1  0
  5  1  1  0
  5  6  1  1
  6 13  1  0
  7  6  2  0
  9  8  1  0
 10  9  2  0
 11  9  1  0
 12 11  1  6
 12 13  1  0
 12 14  1  0
 14 15  2  0
 14 18  1  0
 17 16  1  1
 17 19  1  0
 18 17  1  0
 19 21  1  0
 20 19  2  0
M  END
$$$$
