PNA.pdb
     RDKit          3D

 21 21  0  0  1  0  0  0  0  0999 V2000
    8.6192  -14.8773   19.9368 N   0  0  0  0  0  0  0  0  0  0  0  0
    8.4444  -14.3884   18.5829 C   0  0  0  0  0  0  0  0  0  0  0  0
    7.6422  -13.1204   18.6694 C   0  0  0  0  0  0  0  0  0  0  0  0
    7.2908  -13.0174   20.1169 C   0  0  0  0  0  0  0  0  0  0  0  0
    8.4424  -13.7296   20.8041 C   0  0  1  0  0  0  0  0  0  0  0  0
    8.0620  -14.1079   22.1709 C   0  0  0  0  0  0  0  0  0  0  0  0
    7.7427  -13.2239   23.0024 O   0  0  0  0  0  0  0  0  0  0  0  0
    6.9557  -17.0278   26.2852 N   0  0  0  0  0  0  0  0  0  0  0  0
    7.0614  -17.9218   25.1868 C   0  0  0  0  0  0  0  0  0  0  0  0
    6.8210  -19.1278   25.3756 O   0  0  0  0  0  0  0  0  0  0  0  0
    7.4461  -17.4294   23.8593 C   0  0  0  0  0  0  0  0  0  0  0  0
    7.6480  -15.9116   23.8755 C   0  0  2  0  0  0  0  0  0  0  0  0
    8.0500  -15.4551   22.5642 N   0  0  0  0  0  0  0  0  0  0  0  0
    8.6710  -15.5837   24.8790 C   0  0  0  0  0  0  0  0  0  0  0  0
    9.8951  -15.8333   24.7368 O   0  0  0  0  0  0  0  0  0  0  0  0
    8.7008  -13.1202   27.5970 C   0  0  0  0  0  0  0  0  0  0  0  0
    9.2398  -14.4078   27.0209 C   0  0  2  0  0  0  0  0  0  0  0  0
    8.2768  -14.9479   26.0867 N   0  0  0  0  0  0  0  0  0  0  0  0
    9.5373  -15.3841   28.0962 C   0  0  0  0  0  0  0  0  0  0  0  0
    8.9234  -16.4833   28.1544 O   0  0  0  0  0  0  0  0  0  0  0  0
   10.4853  -15.1381   29.0674 O   0  0  0  0  0  0  0  0  0  0  0  0
  2  1  1  0
  3  4  1  0
  3  2  1  0
  4  5  1  0
  5  1  1  0
  5  6  1  1
  6 13  1  0
  7  6  2  0
  9  8  1  0
 10  9  2  0
 11  9  1  0
 12 11  1  6
 12 13  1  0
 12 14  1  0
 14 15  2  0
 14 18  1  0
 17 16  1  1
 17 19  1  0
 18 17  1  0
 19 21  1  0
 20 19  2  0
M  END
$$$$
