PNA.pdb
     RDKit          3D

 21 21  0  0  1  0  0  0  0  0999 V2000
    8.7696  -13.3832   18.9676 N   0  0  0  0  0  0  0  0  0  0  0  0
    8.0805  -12.6529   17.9214 C   0  0  0  0  0  0  0  0  0  0  0  0
    7.2709  -13.6517   17.1429 C   0  0  0  0  0  0  0  0  0  0  0  0
    7.6523  -14.9655   17.7411 C   0  0  0  0  0  0  0  0  0  0  0  0
    8.0136  -14.6029   19.1708 C   0  0  1  0  0  0  0  0  0  0  0  0
    8.8175  -15.6713   19.7775 C   0  0  0  0  0  0  0  0  0  0  0  0
    8.3326  -16.8199   19.9199 O   0  0  0  0  0  0  0  0  0  0  0  0
   12.5751  -14.2985   18.9022 N   0  0  0  0  0  0  0  0  0  0  0  0
   12.9264  -15.1548   19.9795 C   0  0  0  0  0  0  0  0  0  0  0  0
   13.7547  -14.7508   20.8152 O   0  0  0  0  0  0  0  0  0  0  0  0
   12.3228  -16.4867   20.1002 C   0  0  0  0  0  0  0  0  0  0  0  0
   10.9786  -16.4147   20.8300 C   0  0  2  0  0  0  0  0  0  0  0  0
   10.1317  -15.4246   20.2040 N   0  0  0  0  0  0  0  0  0  0  0  0
   11.2256  -16.0753   22.2389 C   0  0  0  0  0  0  0  0  0  0  0  0
   12.3731  -15.9312   22.7324 O   0  0  0  0  0  0  0  0  0  0  0  0
    9.0922  -14.9696   25.0839 C   0  0  0  0  0  0  0  0  0  0  0  0
   10.2856  -15.7161   24.5369 C   0  0  2  0  0  0  0  0  0  0  0  0
   10.1192  -15.8949   23.1114 N   0  0  0  0  0  0  0  0  0  0  0  0
   10.4486  -17.0231   25.2176 C   0  0  0  0  0  0  0  0  0  0  0  0
   10.1883  -18.0989   24.6147 O   0  0  0  0  0  0  0  0  0  0  0  0
   10.8862  -17.1202   26.5220 O   0  0  0  0  0  0  0  0  0  0  0  0
  2  1  1  0
  3  4  1  0
  3  2  1  0
  4  5  1  0
  5  1  1  0
  5  6  1  6
  6 13  1  0
  7  6  2  0
  9  8  1  0
 10  9  2  0
 11  9  1  0
 12 11  1  6
 12 13  1  0
 12 14  1  0
 14 15  2  0
 14 18  1  0
 17 16  1  1
 17 19  1  0
 18 17  1  0
 19 21  1  0
 20 19  2  0
M  END
$$$$
