PNA.pdb
     RDKit          3D

 21 21  0  0  1  0  0  0  0  0999 V2000
   10.6150  -18.2768   20.1429 N   0  0  0  0  0  0  0  0  0  0  0  0
    9.8391  -19.0486   19.1915 C   0  0  0  0  0  0  0  0  0  0  0  0
    8.4743  -18.4230   19.1212 C   0  0  0  0  0  0  0  0  0  0  0  0
    8.5147  -17.3579   20.1668 C   0  0  0  0  0  0  0  0  0  0  0  0
    9.9832  -16.9743   20.2136 C   0  0  1  0  0  0  0  0  0  0  0  0
   10.2836  -16.2681   21.4654 C   0  0  0  0  0  0  0  0  0  0  0  0
    9.7851  -15.1377   21.6851 O   0  0  0  0  0  0  0  0  0  0  0  0
   10.6742  -15.6369   26.8099 N   0  0  0  0  0  0  0  0  0  0  0  0
   11.5290  -16.5425   26.1271 C   0  0  0  0  0  0  0  0  0  0  0  0
   12.6288  -16.8223   26.6369 O   0  0  0  0  0  0  0  0  0  0  0  0
   11.1197  -17.1331   24.8478 C   0  0  0  0  0  0  0  0  0  0  0  0
   11.4778  -16.2108   23.6792 C   0  0  2  0  0  0  0  0  0  0  0  0
   11.1273  -16.8439   22.4279 N   0  0  0  0  0  0  0  0  0  0  0  0
   12.9181  -15.9211   23.7326 C   0  0  0  0  0  0  0  0  0  0  0  0
   13.4653  -15.2642   24.6545 O   0  0  0  0  0  0  0  0  0  0  0  0
   15.2551  -14.5462   22.3427 C   0  0  0  0  0  0  0  0  0  0  0  0
   15.1543  -16.0307   22.6008 C   0  0  2  0  0  0  0  0  0  0  0  0
   13.7594  -16.4012   22.6934 N   0  0  0  0  0  0  0  0  0  0  0  0
   15.8828  -16.4027   23.8372 C   0  0  0  0  0  0  0  0  0  0  0  0
   15.2755  -16.9313   24.8069 O   0  0  0  0  0  0  0  0  0  0  0  0
   17.2382  -16.1908   23.9809 O   0  0  0  0  0  0  0  0  0  0  0  0
  2  1  1  0
  3  4  1  0
  3  2  1  0
  4  5  1  0
  5  1  1  0
  5  6  1  1
  6 13  1  0
  7  6  2  0
  9  8  1  0
 10  9  2  0
 11  9  1  0
 12 11  1  1
 12 13  1  0
 12 14  1  0
 14 15  2  0
 14 18  1  0
 17 16  1  1
 17 19  1  0
 18 17  1  0
 19 21  1  0
 20 19  2  0
M  END
$$$$
