PNA.pdb
     RDKit          3D

 21 21  0  0  1  0  0  0  0  0999 V2000
    8.5902  -14.8357   20.1699 N   0  0  0  0  0  0  0  0  0  0  0  0
    8.4117  -14.3832   18.8038 C   0  0  0  0  0  0  0  0  0  0  0  0
    7.6509  -13.0883   18.8615 C   0  0  0  0  0  0  0  0  0  0  0  0
    7.3234  -12.9298   20.3096 C   0  0  0  0  0  0  0  0  0  0  0  0
    8.4619  -13.6569   21.0033 C   0  0  1  0  0  0  0  0  0  0  0  0
    8.0892  -13.9808   22.3861 C   0  0  0  0  0  0  0  0  0  0  0  0
    7.7193  -13.0712   23.1675 O   0  0  0  0  0  0  0  0  0  0  0  0
    5.9342  -16.6654   22.4180 N   0  0  0  0  0  0  0  0  0  0  0  0
    6.6234  -17.6325   23.1971 C   0  0  0  0  0  0  0  0  0  0  0  0
    6.4164  -18.8378   22.9690 O   0  0  0  0  0  0  0  0  0  0  0  0
    7.5584  -17.2144   24.2476 C   0  0  0  0  0  0  0  0  0  0  0  0
    7.7987  -15.7030   24.1973 C   0  0  2  0  0  0  0  0  0  0  0  0
    8.1410  -15.3042   22.8507 N   0  0  0  0  0  0  0  0  0  0  0  0
    8.8820  -15.3673   25.1327 C   0  0  0  0  0  0  0  0  0  0  0  0
   10.0996  -15.5712   24.8944 O   0  0  0  0  0  0  0  0  0  0  0  0
    9.0314  -13.2287   28.1664 C   0  0  0  0  0  0  0  0  0  0  0  0
    9.5751  -14.3561   27.3215 C   0  0  2  0  0  0  0  0  0  0  0  0
    8.5578  -14.7779   26.3840 N   0  0  0  0  0  0  0  0  0  0  0  0
   10.0129  -15.4895   28.1711 C   0  0  0  0  0  0  0  0  0  0  0  0
    9.3933  -16.5868   28.1486 O   0  0  0  0  0  0  0  0  0  0  0  0
   11.1020  -15.3965   29.0124 O   0  0  0  0  0  0  0  0  0  0  0  0
  2  1  1  0
  3  4  1  0
  3  2  1  0
  4  5  1  0
  5  1  1  0
  5  6  1  1
  6 13  1  0
  7  6  2  0
  9  8  1  0
 10  9  2  0
 11  9  1  0
 12 11  1  6
 12 13  1  0
 12 14  1  0
 14 15  2  0
 14 18  1  0
 17 16  1  1
 17 19  1  0
 18 17  1  0
 19 21  1  0
 20 19  2  0
M  END
$$$$
