PNA.pdb
     RDKit          3D

 21 21  0  0  1  0  0  0  0  0999 V2000
    8.3879  -14.9703   20.1461 N   0  0  0  0  0  0  0  0  0  0  0  0
    8.0850  -14.4893   18.8121 C   0  0  0  0  0  0  0  0  0  0  0  0
    7.4275  -13.1463   18.9636 C   0  0  0  0  0  0  0  0  0  0  0  0
    7.2808  -12.9844   20.4407 C   0  0  0  0  0  0  0  0  0  0  0  0
    8.4384  -13.7963   20.9944 C   0  0  1  0  0  0  0  0  0  0  0  0
    8.2060  -14.1116   22.4095 C   0  0  0  0  0  0  0  0  0  0  0  0
    8.0739  -13.1862   23.2467 O   0  0  0  0  0  0  0  0  0  0  0  0
    7.5300  -18.8995   26.1459 N   0  0  0  0  0  0  0  0  0  0  0  0
    6.9588  -17.7515   25.5353 C   0  0  0  0  0  0  0  0  0  0  0  0
    6.0921  -17.1140   26.1602 O   0  0  0  0  0  0  0  0  0  0  0  0
    7.3845  -17.3298   24.1960 C   0  0  0  0  0  0  0  0  0  0  0  0
    7.7359  -15.8396   24.1768 C   0  0  2  0  0  0  0  0  0  0  0  0
    8.1287  -15.4442   22.8431 N   0  0  0  0  0  0  0  0  0  0  0  0
    8.8255  -15.6007   25.1345 C   0  0  0  0  0  0  0  0  0  0  0  0
   10.0252  -15.9098   24.9198 O   0  0  0  0  0  0  0  0  0  0  0  0
    9.0967  -13.3813   28.0843 C   0  0  0  0  0  0  0  0  0  0  0  0
    9.5657  -14.5881   27.3072 C   0  0  2  0  0  0  0  0  0  0  0  0
    8.5290  -14.9866   26.3807 N   0  0  0  0  0  0  0  0  0  0  0  0
    9.9141  -15.7024   28.2210 C   0  0  0  0  0  0  0  0  0  0  0  0
   10.7697  -15.5428   29.1326 O   0  0  0  0  0  0  0  0  0  0  0  0
    9.3268  -16.9461   28.1170 O   0  0  0  0  0  0  0  0  0  0  0  0
  2  1  1  0
  3  4  1  0
  3  2  1  0
  4  5  1  0
  5  1  1  0
  5  6  1  1
  6 13  1  0
  7  6  2  0
  9  8  1  0
 10  9  2  0
 11  9  1  0
 12 11  1  6
 12 13  1  0
 12 14  1  0
 14 15  2  0
 14 18  1  0
 17 16  1  1
 17 19  1  0
 18 17  1  0
 19 21  1  0
 20 19  2  0
M  END
$$$$
