PNA.pdb
     RDKit          3D

 21 21  0  0  1  0  0  0  0  0999 V2000
    8.8194  -15.0008   19.8310 N   0  0  0  0  0  0  0  0  0  0  0  0
    8.7082  -14.5556   18.4554 C   0  0  0  0  0  0  0  0  0  0  0  0
    7.8731  -13.3061   18.4598 C   0  0  0  0  0  0  0  0  0  0  0  0
    7.4400  -13.1701   19.8823 C   0  0  0  0  0  0  0  0  0  0  0  0
    8.5684  -13.8333   20.6523 C   0  0  1  0  0  0  0  0  0  0  0  0
    8.1221  -14.1813   22.0072 C   0  0  0  0  0  0  0  0  0  0  0  0
    7.7287  -13.2830   22.7901 O   0  0  0  0  0  0  0  0  0  0  0  0
    5.9917  -18.1262   25.5372 N   0  0  0  0  0  0  0  0  0  0  0  0
    7.3546  -17.9076   25.2032 C   0  0  0  0  0  0  0  0  0  0  0  0
    8.2200  -18.1039   26.0752 O   0  0  0  0  0  0  0  0  0  0  0  0
    7.7296  -17.4597   23.8573 C   0  0  0  0  0  0  0  0  0  0  0  0
    7.7763  -15.9311   23.7818 C   0  0  2  0  0  0  0  0  0  0  0  0
    8.1290  -15.5154   22.4431 N   0  0  0  0  0  0  0  0  0  0  0  0
    8.7613  -15.4417   24.7573 C   0  0  0  0  0  0  0  0  0  0  0  0
   10.0047  -15.5662   24.6176 O   0  0  0  0  0  0  0  0  0  0  0  0
    8.5741  -12.9762   27.4975 C   0  0  0  0  0  0  0  0  0  0  0  0
    9.2173  -14.1992   26.8885 C   0  0  2  0  0  0  0  0  0  0  0  0
    8.3049  -14.7874   25.9327 N   0  0  0  0  0  0  0  0  0  0  0  0
    9.5873  -15.1795   27.9375 C   0  0  0  0  0  0  0  0  0  0  0  0
    9.0130  -16.2995   28.0022 O   0  0  0  0  0  0  0  0  0  0  0  0
   10.5625  -14.9147   28.8763 O   0  0  0  0  0  0  0  0  0  0  0  0
  2  1  1  0
  3  4  1  0
  3  2  1  0
  4  5  1  0
  5  1  1  0
  5  6  1  1
  6 13  1  0
  7  6  2  0
  9  8  1  0
 10  9  2  0
 11  9  1  0
 12 11  1  6
 12 13  1  0
 12 14  1  0
 14 15  2  0
 14 18  1  0
 17 16  1  1
 17 19  1  0
 18 17  1  0
 19 21  1  0
 20 19  2  0
M  END
$$$$
