PNA.pdb
     RDKit          3D

 21 21  0  0  1  0  0  0  0  0999 V2000
    8.6930  -14.9819   20.1417 N   0  0  0  0  0  0  0  0  0  0  0  0
    8.4329  -14.5006   18.7987 C   0  0  0  0  0  0  0  0  0  0  0  0
    7.6276  -13.2382   18.9283 C   0  0  0  0  0  0  0  0  0  0  0  0
    7.3635  -13.1311   20.3940 C   0  0  0  0  0  0  0  0  0  0  0  0
    8.5602  -13.8315   21.0132 C   0  0  1  0  0  0  0  0  0  0  0  0
    8.2660  -14.2061   22.4021 C   0  0  0  0  0  0  0  0  0  0  0  0
    8.0324  -13.3180   23.2573 O   0  0  0  0  0  0  0  0  0  0  0  0
    6.1281  -18.3538   25.8291 N   0  0  0  0  0  0  0  0  0  0  0  0
    7.4649  -18.0259   25.4790 C   0  0  0  0  0  0  0  0  0  0  0  0
    8.3555  -18.1629   26.3368 O   0  0  0  0  0  0  0  0  0  0  0  0
    7.7842  -17.5364   24.1332 C   0  0  0  0  0  0  0  0  0  0  0  0
    7.8867  -16.0087   24.1160 C   0  0  2  0  0  0  0  0  0  0  0  0
    8.2421  -15.5547   22.7905 N   0  0  0  0  0  0  0  0  0  0  0  0
    8.8983  -15.5939   25.0989 C   0  0  0  0  0  0  0  0  0  0  0  0
   10.1376  -15.6912   24.9101 O   0  0  0  0  0  0  0  0  0  0  0  0
    8.7828  -13.3969   28.0656 C   0  0  0  0  0  0  0  0  0  0  0  0
    9.4124  -14.5503   27.3216 C   0  0  2  0  0  0  0  0  0  0  0  0
    8.4741  -15.0491   26.3404 N   0  0  0  0  0  0  0  0  0  0  0  0
    9.8179  -15.6253   28.2587 C   0  0  0  0  0  0  0  0  0  0  0  0
    9.2531  -16.7517   28.2282 O   0  0  0  0  0  0  0  0  0  0  0  0
   10.8167  -15.4448   29.1926 O   0  0  0  0  0  0  0  0  0  0  0  0
  2  1  1  0
  3  4  1  0
  3  2  1  0
  4  5  1  0
  5  1  1  0
  5  6  1  1
  6 13  1  0
  7  6  2  0
  9  8  1  0
 10  9  2  0
 11  9  1  0
 12 11  1  6
 12 13  1  0
 12 14  1  0
 14 15  2  0
 14 18  1  0
 17 16  1  1
 17 19  1  0
 18 17  1  0
 19 21  1  0
 20 19  2  0
M  END
$$$$
