PNA.pdb
     RDKit          3D

 21 21  0  0  1  0  0  0  0  0999 V2000
    8.9189  -14.8839   20.1686 N   0  0  0  0  0  0  0  0  0  0  0  0
    8.8002  -14.3604   18.8215 C   0  0  0  0  0  0  0  0  0  0  0  0
    8.0076  -13.0864   18.9091 C   0  0  0  0  0  0  0  0  0  0  0  0
    7.6027  -13.0149   20.3445 C   0  0  0  0  0  0  0  0  0  0  0  0
    8.7206  -13.7558   21.0566 C   0  0  1  0  0  0  0  0  0  0  0  0
    8.2851  -14.1631   22.3984 C   0  0  0  0  0  0  0  0  0  0  0  0
    7.9749  -13.2948   23.2497 O   0  0  0  0  0  0  0  0  0  0  0  0
    6.0500  -18.0387   25.8361 N   0  0  0  0  0  0  0  0  0  0  0  0
    7.3940  -18.0408   25.3772 C   0  0  0  0  0  0  0  0  0  0  0  0
    8.2789  -18.4875   26.1291 O   0  0  0  0  0  0  0  0  0  0  0  0
    7.7274  -17.5260   24.0443 C   0  0  0  0  0  0  0  0  0  0  0  0
    7.8614  -16.0008   24.0639 C   0  0  2  0  0  0  0  0  0  0  0  0
    8.2101  -15.5209   22.7458 N   0  0  0  0  0  0  0  0  0  0  0  0
    8.8932  -15.6317   25.0440 C   0  0  0  0  0  0  0  0  0  0  0  0
   10.1269  -15.7737   24.8472 O   0  0  0  0  0  0  0  0  0  0  0  0
    8.8230  -13.3579   27.9429 C   0  0  0  0  0  0  0  0  0  0  0  0
    9.4521  -14.5294   27.2272 C   0  0  2  0  0  0  0  0  0  0  0  0
    8.4966  -15.0811   26.2920 N   0  0  0  0  0  0  0  0  0  0  0  0
    9.9006  -15.5603   28.1937 C   0  0  0  0  0  0  0  0  0  0  0  0
    9.3384  -16.6874   28.2387 O   0  0  0  0  0  0  0  0  0  0  0  0
   10.9381  -15.3365   29.0747 O   0  0  0  0  0  0  0  0  0  0  0  0
  2  1  1  0
  3  4  1  0
  3  2  1  0
  4  5  1  0
  5  1  1  0
  5  6  1  1
  6 13  1  0
  7  6  2  0
  9  8  1  0
 10  9  2  0
 11  9  1  0
 12 11  1  6
 12 13  1  0
 12 14  1  0
 14 15  2  0
 14 18  1  0
 17 16  1  1
 17 19  1  0
 18 17  1  0
 19 21  1  0
 20 19  2  0
M  END
$$$$
