KCI.pdb
     RDKit          3D

 24 23  0  0  1  0  0  0  0  0999 V2000
   16.6727  -15.1296  -17.6843 N   0  0  0  0  0  0  0  0  0  0  0  0
   17.8379  -14.5075  -17.1333 C   0  0  1  0  0  0  0  0  0  0  0  0
   19.0880  -14.6942  -17.9476 C   0  0  0  0  0  0  0  0  0  0  0  0
   19.3356  -16.1315  -18.3455 C   0  0  0  0  0  0  0  0  0  0  0  0
   20.0604  -16.8093  -17.2190 C   0  0  0  0  0  0  0  0  0  0  0  0
   20.4344  -18.2380  -17.5555 C   0  0  0  0  0  0  0  0  0  0  0  0
   21.1718  -18.7566  -16.4104 N   0  0  0  0  0  0  0  0  0  0  0  0
   17.6467  -13.0151  -17.0147 C   0  0  0  0  0  0  0  0  0  0  0  0
   17.2695  -12.3501  -18.0046 O   0  0  0  0  0  0  0  0  0  0  0  0
   17.8866  -12.3460  -15.8006 N   0  0  0  0  0  0  0  0  0  0  0  0
   17.6498  -10.8894  -15.7439 C   0  0  1  0  0  0  0  0  0  0  0  0
   16.7002  -10.6324  -14.5919 C   0  0  0  0  0  0  0  0  0  0  0  0
   16.6203   -8.8870  -14.2402 S   0  0  0  0  0  0  0  0  0  0  0  0
   18.9601  -10.2145  -15.5381 C   0  0  0  0  0  0  0  0  0  0  0  0
   19.7933  -10.7849  -14.7478 O   0  0  0  0  0  0  0  0  0  0  0  0
   21.6846   -8.3271  -19.5016 C   0  0  0  0  0  0  0  0  0  0  0  0
   21.4773   -8.8880  -18.1080 C   0  0  0  0  0  0  0  0  0  0  0  0
   21.2382   -7.8090  -17.0953 C   0  0  2  0  0  0  0  0  0  0  0  0
   22.5836   -7.2035  -16.6887 C   0  0  0  0  0  0  0  0  0  0  0  0
   20.6274   -8.4374  -15.8616 C   0  0  2  0  0  0  0  0  0  0  0  0
   19.3266   -8.9981  -16.1618 N   0  0  0  0  0  0  0  0  0  0  0  0
   20.4310   -7.3761  -14.8328 C   0  0  0  0  0  0  0  0  0  0  0  0
   19.3314   -6.5493  -14.8357 O   0  0  0  0  0  0  0  0  0  0  0  0
   21.2929   -7.2121  -13.9154 O   0  0  0  0  0  0  0  0  0  0  0  0
  2  1  1  6
  3  2  1  0
  4  3  1  0
  5  4  1  0
  5  6  1  0
  6  7  1  0
  8  9  2  0
  8  2  1  0
 10  8  1  0
 11 10  1  0
 12 13  1  0
 11 12  1  1
 14 21  1  0
 14 11  1  0
 15 14  2  0
 17 16  1  0
 18 17  1  0
 18 20  1  0
 18 19  1  1
 20 21  1  6
 20 22  1  0
 22 23  1  0
 24 22  2  0
M  END
$$$$
