KCI.pdb
     RDKit          3D

 24 23  0  0  1  0  0  0  0  0999 V2000
   25.1386  -25.7392  -15.6781 N   0  0  0  0  0  0  0  0  0  0  0  0
   25.4709  -24.3525  -15.5567 C   0  0  1  0  0  0  0  0  0  0  0  0
   24.9737  -23.4915  -16.6847 C   0  0  0  0  0  0  0  0  0  0  0  0
   23.5572  -23.8118  -17.1044 C   0  0  0  0  0  0  0  0  0  0  0  0
   23.5589  -24.0887  -18.5799 C   0  0  0  0  0  0  0  0  0  0  0  0
   22.1803  -24.4425  -19.0982 C   0  0  0  0  0  0  0  0  0  0  0  0
   22.3417  -24.7988  -20.5021 N   0  0  0  0  0  0  0  0  0  0  0  0
   24.8763  -23.7638  -14.3007 C   0  0  0  0  0  0  0  0  0  0  0  0
   23.8564  -24.2765  -13.7892 O   0  0  0  0  0  0  0  0  0  0  0  0
   25.4498  -22.6368  -13.6842 N   0  0  0  0  0  0  0  0  0  0  0  0
   24.7361  -22.0197  -12.5480 C   0  0  1  0  0  0  0  0  0  0  0  0
   25.6872  -21.0342  -11.9009 C   0  0  0  0  0  0  0  0  0  0  0  0
   24.9319  -20.3087  -10.4588 S   0  0  0  0  0  0  0  0  0  0  0  0
   23.5196  -21.3446  -13.0764 C   0  0  0  0  0  0  0  0  0  0  0  0
   23.6098  -20.8001  -14.2339 O   0  0  0  0  0  0  0  0  0  0  0  0
   19.3973  -22.5827  -10.6769 C   0  0  0  0  0  0  0  0  0  0  0  0
   19.4994  -22.0429  -12.0904 C   0  0  0  0  0  0  0  0  0  0  0  0
   19.9588  -20.6164  -12.1179 C   0  0  2  0  0  0  0  0  0  0  0  0
   18.8781  -19.7601  -12.7820 C   0  0  0  0  0  0  0  0  0  0  0  0
   21.2024  -20.5305  -12.9758 C   0  0  2  0  0  0  0  0  0  0  0  0
   22.2900  -21.2771  -12.3790 N   0  0  0  0  0  0  0  0  0  0  0  0
   21.6293  -19.1041  -13.0559 C   0  0  0  0  0  0  0  0  0  0  0  0
   21.4336  -18.3445  -14.1862 O   0  0  0  0  0  0  0  0  0  0  0  0
   22.1933  -18.5519  -12.0618 O   0  0  0  0  0  0  0  0  0  0  0  0
  2  1  1  6
  3  2  1  0
  4  3  1  0
  5  4  1  0
  5  6  1  0
  6  7  1  0
  8  9  2  0
  8  2  1  0
 10  8  1  0
 11 10  1  0
 12 13  1  0
 11 12  1  6
 14 21  1  0
 14 11  1  0
 15 14  2  0
 17 16  1  0
 18 17  1  0
 18 20  1  0
 18 19  1  6
 20 21  1  1
 20 22  1  0
 22 23  1  0
 24 22  2  0
M  END
$$$$
