KCI.pdb
     RDKit          3D

 24 23  0  0  1  0  0  0  0  0999 V2000
   18.2762  -23.5617   -6.4070 N   0  0  0  0  0  0  0  0  0  0  0  0
   18.9977  -23.8068   -7.6185 C   0  0  1  0  0  0  0  0  0  0  0  0
   18.1694  -24.3892   -8.7301 C   0  0  0  0  0  0  0  0  0  0  0  0
   17.8296  -25.8478   -8.5240 C   0  0  0  0  0  0  0  0  0  0  0  0
   18.9066  -26.6731   -9.1666 C   0  0  0  0  0  0  0  0  0  0  0  0
   18.6643  -28.1593   -9.0026 C   0  0  0  0  0  0  0  0  0  0  0  0
   19.7200  -28.8379   -9.7436 N   0  0  0  0  0  0  0  0  0  0  0  0
   19.5775  -22.5266   -8.1686 C   0  0  0  0  0  0  0  0  0  0  0  0
   18.8874  -21.4835   -8.1903 O   0  0  0  0  0  0  0  0  0  0  0  0
   20.8932  -22.4789   -8.6645 N   0  0  0  0  0  0  0  0  0  0  0  0
   21.3939  -21.1979   -9.2026 C   0  0  1  0  0  0  0  0  0  0  0  0
   22.8997  -21.1983   -9.0375 C   0  0  0  0  0  0  0  0  0  0  0  0
   23.3273  -21.2261   -7.3074 S   0  0  0  0  0  0  0  0  0  0  0  0
   20.9973  -21.1099  -10.6343 C   0  0  0  0  0  0  0  0  0  0  0  0
   20.6077  -22.1926  -11.2002 O   0  0  0  0  0  0  0  0  0  0  0  0
   18.2631  -16.9850  -12.6912 C   0  0  0  0  0  0  0  0  0  0  0  0
   18.7692  -18.4031  -12.5102 C   0  0  0  0  0  0  0  0  0  0  0  0
   20.0642  -18.6361  -13.2280 C   0  0  2  0  0  0  0  0  0  0  0  0
   19.7881  -18.7335  -14.7301 C   0  0  0  0  0  0  0  0  0  0  0  0
   20.6278  -19.9667  -12.7789 C   0  0  2  0  0  0  0  0  0  0  0  0
   21.0256  -19.9122  -11.3877 N   0  0  0  0  0  0  0  0  0  0  0  0
   21.8483  -20.2638  -13.5823 C   0  0  0  0  0  0  0  0  0  0  0  0
   21.8012  -21.0175  -14.7324 O   0  0  0  0  0  0  0  0  0  0  0  0
   22.9776  -19.8175  -13.2126 O   0  0  0  0  0  0  0  0  0  0  0  0
  2  1  1  1
  3  2  1  0
  4  3  1  0
  5  4  1  0
  5  6  1  0
  6  7  1  0
  8  9  2  0
  8  2  1  0
 10  8  1  0
 11 10  1  0
 12 13  1  0
 11 12  1  6
 14 21  1  0
 14 11  1  0
 15 14  2  0
 17 16  1  0
 18 17  1  0
 18 20  1  0
 18 19  1  6
 20 21  1  1
 20 22  1  0
 22 23  1  0
 24 22  2  0
M  END
$$$$
