KCI.pdb
     RDKit          3D

 24 23  0  0  1  0  0  0  0  0999 V2000
   18.6795  -19.0985  -16.2693 N   0  0  0  0  0  0  0  0  0  0  0  0
   18.8099  -18.2557  -17.4186 C   0  0  1  0  0  0  0  0  0  0  0  0
   18.1089  -18.7649  -18.6475 C   0  0  0  0  0  0  0  0  0  0  0  0
   18.6428  -20.0922  -19.1360 C   0  0  0  0  0  0  0  0  0  0  0  0
   20.1241  -19.9537  -19.3371 C   0  0  0  0  0  0  0  0  0  0  0  0
   20.7403  -21.2013  -19.9356 C   0  0  0  0  0  0  0  0  0  0  0  0
   22.1304  -20.8789  -20.2314 N   0  0  0  0  0  0  0  0  0  0  0  0
   18.2279  -16.8888  -17.1531 C   0  0  0  0  0  0  0  0  0  0  0  0
   17.0609  -16.7775  -16.7168 O   0  0  0  0  0  0  0  0  0  0  0  0
   18.9772  -15.7217  -17.3887 N   0  0  0  0  0  0  0  0  0  0  0  0
   18.3425  -14.4150  -17.1226 C   0  0  1  0  0  0  0  0  0  0  0  0
   18.1303  -14.3143  -15.6261 C   0  0  0  0  0  0  0  0  0  0  0  0
   17.4882  -12.7060  -15.2041 S   0  0  0  0  0  0  0  0  0  0  0  0
   19.2512  -13.3478  -17.6226 C   0  0  0  0  0  0  0  0  0  0  0  0
   20.4878  -13.4322  -17.2941 O   0  0  0  0  0  0  0  0  0  0  0  0
   18.1785  -10.7970  -22.1558 C   0  0  0  0  0  0  0  0  0  0  0  0
   19.1786  -11.3271  -21.1466 C   0  0  0  0  0  0  0  0  0  0  0  0
   19.3090  -10.4269  -19.9551 C   0  0  2  0  0  0  0  0  0  0  0  0
   20.3715   -9.3655  -20.2494 C   0  0  0  0  0  0  0  0  0  0  0  0
   19.7974  -11.2511  -18.7837 C   0  0  2  0  0  0  0  0  0  0  0  0
   18.8269  -12.2658  -18.4301 N   0  0  0  0  0  0  0  0  0  0  0  0
   19.9583  -10.3545  -17.6033 C   0  0  0  0  0  0  0  0  0  0  0  0
   18.9895  -10.2419  -16.6330 O   0  0  0  0  0  0  0  0  0  0  0  0
   21.0146   -9.6636  -17.4684 O   0  0  0  0  0  0  0  0  0  0  0  0
  2  1  1  1
  3  2  1  0
  4  3  1  0
  5  4  1  0
  5  6  1  0
  6  7  1  0
  8  9  2  0
  8  2  1  0
 10  8  1  0
 11 10  1  0
 12 13  1  0
 11 12  1  1
 14 21  1  0
 14 11  1  0
 15 14  2  0
 17 16  1  0
 18 17  1  0
 18 20  1  0
 18 19  1  6
 20 21  1  1
 20 22  1  0
 22 23  1  0
 24 22  2  0
M  END
$$$$
