KCI.pdb
     RDKit          3D

 24 23  0  0  1  0  0  0  0  0999 V2000
   19.2503  -14.2545  -16.3995 N   0  0  0  0  0  0  0  0  0  0  0  0
   19.7311  -13.1787  -17.2118 C   0  0  1  0  0  0  0  0  0  0  0  0
   18.9615  -12.9681  -18.4863 C   0  0  0  0  0  0  0  0  0  0  0  0
   19.2283  -14.0283  -19.5303 C   0  0  0  0  0  0  0  0  0  0  0  0
   18.5491  -15.2941  -19.0941 C   0  0  0  0  0  0  0  0  0  0  0  0
   18.7451  -16.4211  -20.0870 C   0  0  0  0  0  0  0  0  0  0  0  0
   18.0253  -17.5726  -19.5578 N   0  0  0  0  0  0  0  0  0  0  0  0
   19.6569  -11.8674  -16.4683 C   0  0  0  0  0  0  0  0  0  0  0  0
   18.6089  -11.5460  -15.8659 O   0  0  0  0  0  0  0  0  0  0  0  0
   20.7535  -10.9866  -16.4373 N   0  0  0  0  0  0  0  0  0  0  0  0
   20.6332   -9.7444  -15.6476 C   0  0  1  0  0  0  0  0  0  0  0  0
   21.6768   -9.8054  -14.5513 C   0  0  0  0  0  0  0  0  0  0  0  0
   21.6387   -8.3090  -13.5838 S   0  0  0  0  0  0  0  0  0  0  0  0
   20.8604   -8.5912  -16.5603 C   0  0  0  0  0  0  0  0  0  0  0  0
   21.9164   -8.6206  -17.2872 O   0  0  0  0  0  0  0  0  0  0  0  0
   17.1035   -6.2224  -19.5702 C   0  0  0  0  0  0  0  0  0  0  0  0
   18.3841   -6.7761  -18.9756 C   0  0  0  0  0  0  0  0  0  0  0  0
   19.1068   -5.7585  -18.1455 C   0  0  2  0  0  0  0  0  0  0  0  0
   19.5671   -4.6150  -19.0526 C   0  0  0  0  0  0  0  0  0  0  0  0
   20.3438   -6.4071  -17.5632 C   0  0  2  0  0  0  0  0  0  0  0  0
   19.9839   -7.4851  -16.6660 N   0  0  0  0  0  0  0  0  0  0  0  0
   21.0858   -5.3893  -16.7653 C   0  0  0  0  0  0  0  0  0  0  0  0
   20.9634   -5.3006  -15.3978 O   0  0  0  0  0  0  0  0  0  0  0  0
   21.8610   -4.5680  -17.3449 O   0  0  0  0  0  0  0  0  0  0  0  0
  2  1  1  1
  3  2  1  0
  4  3  1  0
  5  4  1  0
  5  6  1  0
  6  7  1  0
  8  9  2  0
  8  2  1  0
 10  8  1  0
 11 10  1  0
 12 13  1  0
 11 12  1  1
 14 21  1  0
 14 11  1  0
 15 14  2  0
 17 16  1  0
 18 17  1  0
 18 20  1  0
 18 19  1  6
 20 21  1  1
 20 22  1  0
 22 23  1  0
 24 22  2  0
M  END
$$$$
