KCI.pdb
     RDKit          3D

 24 23  0  0  1  0  0  0  0  0999 V2000
   17.6838  -17.9389  -16.2334 N   0  0  0  0  0  0  0  0  0  0  0  0
   18.3131  -17.3185  -17.3591 C   0  0  1  0  0  0  0  0  0  0  0  0
   17.8536  -17.8366  -18.6938 C   0  0  0  0  0  0  0  0  0  0  0  0
   17.1307  -19.1614  -18.6064 C   0  0  0  0  0  0  0  0  0  0  0  0
   17.4983  -19.9741  -19.8140 C   0  0  0  0  0  0  0  0  0  0  0  0
   16.2897  -20.6193  -20.4602 C   0  0  0  0  0  0  0  0  0  0  0  0
   16.7966  -21.5076  -21.4984 N   0  0  0  0  0  0  0  0  0  0  0  0
   18.0382  -15.8347  -17.3802 C   0  0  0  0  0  0  0  0  0  0  0  0
   16.8678  -15.4153  -17.5175 O   0  0  0  0  0  0  0  0  0  0  0  0
   19.0815  -14.9003  -17.2477 N   0  0  0  0  0  0  0  0  0  0  0  0
   18.7523  -13.4636  -17.3403 C   0  0  1  0  0  0  0  0  0  0  0  0
   19.7685  -12.7143  -16.5033 C   0  0  0  0  0  0  0  0  0  0  0  0
   19.3866  -10.9734  -16.4876 S   0  0  0  0  0  0  0  0  0  0  0  0
   18.8174  -13.0646  -18.7725 C   0  0  0  0  0  0  0  0  0  0  0  0
   19.6351  -13.7083  -19.5217 O   0  0  0  0  0  0  0  0  0  0  0  0
   15.8903  -11.8732  -23.7817 C   0  0  0  0  0  0  0  0  0  0  0  0
   17.0733  -11.5046  -22.9075 C   0  0  0  0  0  0  0  0  0  0  0  0
   16.8955  -11.9675  -21.4929 C   0  0  2  0  0  0  0  0  0  0  0  0
   15.8222  -11.1080  -20.8210 C   0  0  0  0  0  0  0  0  0  0  0  0
   18.1940  -11.7426  -20.7490 C   0  0  2  0  0  0  0  0  0  0  0  0
   18.0342  -12.0309  -19.3391 N   0  0  0  0  0  0  0  0  0  0  0  0
   18.5720  -10.3055  -20.8722 C   0  0  0  0  0  0  0  0  0  0  0  0
   18.4903   -9.4342  -19.8106 O   0  0  0  0  0  0  0  0  0  0  0  0
   18.9852   -9.8493  -21.9823 O   0  0  0  0  0  0  0  0  0  0  0  0
  2  1  1  1
  3  2  1  0
  4  3  1  0
  5  4  1  0
  5  6  1  0
  6  7  1  0
  8  9  2  0
  8  2  1  0
 10  8  1  0
 11 10  1  0
 12 13  1  0
 11 12  1  1
 14 21  1  0
 14 11  1  0
 15 14  2  0
 17 16  1  0
 18 17  1  0
 18 20  1  0
 18 19  1  1
 20 21  1  1
 20 22  1  0
 22 23  1  0
 24 22  2  0
M  END
$$$$
