KCI.pdb
     RDKit          3D

 24 23  0  0  1  0  0  0  0  0999 V2000
   28.1100  -25.3694  -17.4241 N   0  0  0  0  0  0  0  0  0  0  0  0
   26.9270  -24.6154  -17.1409 C   0  0  1  0  0  0  0  0  0  0  0  0
   25.8964  -25.3534  -16.3322 C   0  0  0  0  0  0  0  0  0  0  0  0
   24.7909  -25.9519  -17.1718 C   0  0  0  0  0  0  0  0  0  0  0  0
   25.1638  -27.3706  -17.4916 C   0  0  0  0  0  0  0  0  0  0  0  0
   24.1218  -28.0574  -18.3500 C   0  0  0  0  0  0  0  0  0  0  0  0
   24.5808  -29.4266  -18.5471 N   0  0  0  0  0  0  0  0  0  0  0  0
   27.2562  -23.3740  -16.3483 C   0  0  0  0  0  0  0  0  0  0  0  0
   28.2483  -23.3604  -15.5867 O   0  0  0  0  0  0  0  0  0  0  0  0
   26.4622  -22.2168  -16.4472 N   0  0  0  0  0  0  0  0  0  0  0  0
   26.7873  -21.0669  -15.5794 C   0  0  1  0  0  0  0  0  0  0  0  0
   26.3584  -19.8135  -16.3139 C   0  0  0  0  0  0  0  0  0  0  0  0
   26.5460  -18.3893  -15.2588 S   0  0  0  0  0  0  0  0  0  0  0  0
   26.0514  -21.2319  -14.2964 C   0  0  0  0  0  0  0  0  0  0  0  0
   24.8899  -21.7720  -14.3543 O   0  0  0  0  0  0  0  0  0  0  0  0
   28.6018  -21.2590   -9.4637 C   0  0  0  0  0  0  0  0  0  0  0  0
   27.5335  -21.6854  -10.4521 C   0  0  0  0  0  0  0  0  0  0  0  0
   26.4642  -20.6470  -10.6101 C   0  0  2  0  0  0  0  0  0  0  0  0
   25.4836  -20.7629   -9.4409 C   0  0  0  0  0  0  0  0  0  0  0  0
   25.6973  -20.9394  -11.8815 C   0  0  2  0  0  0  0  0  0  0  0  0
   26.5615  -20.8322  -13.0382 N   0  0  0  0  0  0  0  0  0  0  0  0
   24.6182  -19.9216  -12.0328 C   0  0  0  0  0  0  0  0  0  0  0  0
   23.3050  -20.1972  -11.7288 O   0  0  0  0  0  0  0  0  0  0  0  0
   24.8967  -18.7568  -12.4537 O   0  0  0  0  0  0  0  0  0  0  0  0
  2  1  1  1
  3  2  1  0
  4  3  1  0
  5  4  1  0
  5  6  1  0
  6  7  1  0
  8  9  2  0
  8  2  1  0
 10  8  1  0
 11 10  1  0
 12 13  1  0
 11 12  1  6
 14 21  1  0
 14 11  1  0
 15 14  2  0
 17 16  1  0
 18 17  1  0
 18 20  1  0
 18 19  1  1
 20 21  1  6
 20 22  1  0
 22 23  1  0
 24 22  2  0
M  END
$$$$
