KCI.pdb
     RDKit          3D

 24 23  0  0  1  0  0  0  0  0999 V2000
   12.6130  -11.5587  -10.8895 N   0  0  0  0  0  0  0  0  0  0  0  0
   13.9812  -11.1512  -10.9908 C   0  0  1  0  0  0  0  0  0  0  0  0
   14.6033  -11.3869  -12.3392 C   0  0  0  0  0  0  0  0  0  0  0  0
   14.4106  -12.7964  -12.8507 C   0  0  0  0  0  0  0  0  0  0  0  0
   15.7636  -13.3719  -13.1538 C   0  0  0  0  0  0  0  0  0  0  0  0
   15.6819  -14.8064  -13.6335 C   0  0  0  0  0  0  0  0  0  0  0  0
   17.0539  -15.2687  -13.8007 N   0  0  0  0  0  0  0  0  0  0  0  0
   14.1236   -9.6719  -10.7281 C   0  0  0  0  0  0  0  0  0  0  0  0
   13.2150   -8.8833  -11.0705 O   0  0  0  0  0  0  0  0  0  0  0  0
   15.2700   -9.1526  -10.0993 N   0  0  0  0  0  0  0  0  0  0  0  0
   15.3285   -7.7005   -9.8360 C   0  0  1  0  0  0  0  0  0  0  0  0
   15.8259   -7.5203   -8.4166 C   0  0  0  0  0  0  0  0  0  0  0  0
   16.2960   -5.8232   -8.1418 S   0  0  0  0  0  0  0  0  0  0  0  0
   16.2550   -7.0870  -10.8259 C   0  0  0  0  0  0  0  0  0  0  0  0
   17.3412   -7.7195  -11.0796 O   0  0  0  0  0  0  0  0  0  0  0  0
   16.8479   -5.6748  -16.3488 C   0  0  0  0  0  0  0  0  0  0  0  0
   17.2440   -5.2368  -14.9520 C   0  0  0  0  0  0  0  0  0  0  0  0
   16.3776   -5.8586  -13.8986 C   0  0  2  0  0  0  0  0  0  0  0  0
   14.9595   -5.2983  -14.0286 C   0  0  0  0  0  0  0  0  0  0  0  0
   16.9080   -5.4516  -12.5411 C   0  0  2  0  0  0  0  0  0  0  0  0
   16.0004   -5.8639  -11.4909 N   0  0  0  0  0  0  0  0  0  0  0  0
   17.0035   -3.9644  -12.4921 C   0  0  0  0  0  0  0  0  0  0  0  0
   18.1006   -3.2859  -12.9705 O   0  0  0  0  0  0  0  0  0  0  0  0
   16.0542   -3.2819  -11.9979 O   0  0  0  0  0  0  0  0  0  0  0  0
  2  1  1  6
  3  2  1  0
  4  3  1  0
  5  4  1  0
  5  6  1  0
  6  7  1  0
  8  9  2  0
  8  2  1  0
 10  8  1  0
 11 10  1  0
 12 13  1  0
 11 12  1  1
 14 21  1  0
 14 11  1  0
 15 14  2  0
 17 16  1  0
 18 17  1  0
 18 20  1  0
 18 19  1  6
 20 21  1  1
 20 22  1  0
 22 23  1  0
 24 22  2  0
M  END
$$$$
