KCI.pdb
     RDKit          3D

 24 23  0  0  1  0  0  0  0  0999 V2000
   24.2797  -33.6407  -13.3302 N   0  0  0  0  0  0  0  0  0  0  0  0
   25.1054  -34.3209  -12.3796 C   0  0  1  0  0  0  0  0  0  0  0  0
   26.3954  -34.8511  -12.9414 C   0  0  0  0  0  0  0  0  0  0  0  0
   26.1972  -35.8797  -14.0314 C   0  0  0  0  0  0  0  0  0  0  0  0
   27.5421  -36.4387  -14.3957 C   0  0  0  0  0  0  0  0  0  0  0  0
   27.4596  -37.4339  -15.5346 C   0  0  0  0  0  0  0  0  0  0  0  0
   28.8233  -37.8708  -15.8057 N   0  0  0  0  0  0  0  0  0  0  0  0
   25.4994  -33.3994  -11.2511 C   0  0  0  0  0  0  0  0  0  0  0  0
   25.1363  -32.2025  -11.2625 O   0  0  0  0  0  0  0  0  0  0  0  0
   26.2762  -33.8615  -10.1730 N   0  0  0  0  0  0  0  0  0  0  0  0
   26.2445  -33.0994   -8.9084 C   0  0  1  0  0  0  0  0  0  0  0  0
   24.7937  -32.9856   -8.4879 C   0  0  0  0  0  0  0  0  0  0  0  0
   24.6834  -32.3229   -6.8370 S   0  0  0  0  0  0  0  0  0  0  0  0
   27.0530  -33.8389   -7.9013 C   0  0  0  0  0  0  0  0  0  0  0  0
   26.9263  -35.1146   -7.8729 O   0  0  0  0  0  0  0  0  0  0  0  0
   32.2132  -32.8860   -7.2516 C   0  0  0  0  0  0  0  0  0  0  0  0
   30.8264  -33.4968   -7.3114 C   0  0  0  0  0  0  0  0  0  0  0  0
   30.1417  -33.4738   -5.9782 C   0  0  2  0  0  0  0  0  0  0  0  0
   30.9123  -34.3736   -5.0094 C   0  0  0  0  0  0  0  0  0  0  0  0
   28.7556  -34.0584   -6.1419 C   0  0  2  0  0  0  0  0  0  0  0  0
   27.9404  -33.2160   -6.9917 N   0  0  0  0  0  0  0  0  0  0  0  0
   28.0996  -34.1132   -4.8039 C   0  0  0  0  0  0  0  0  0  0  0  0
   28.4195  -35.0729   -3.8714 O   0  0  0  0  0  0  0  0  0  0  0  0
   27.2151  -33.2574   -4.4935 O   0  0  0  0  0  0  0  0  0  0  0  0
  2  1  1  6
  3  2  1  0
  4  3  1  0
  5  4  1  0
  5  6  1  0
  6  7  1  0
  8  9  2  0
  8  2  1  0
 10  8  1  0
 11 10  1  0
 12 13  1  0
 11 12  1  1
 14 21  1  0
 14 11  1  0
 15 14  2  0
 17 16  1  0
 18 17  1  0
 18 20  1  0
 18 19  1  1
 20 21  1  6
 20 22  1  0
 22 23  1  0
 24 22  2  0
M  END
$$$$
