KCI.pdb
     RDKit          3D

 24 23  0  0  1  0  0  0  0  0999 V2000
   29.3868  -24.3996  -16.1178 N   0  0  0  0  0  0  0  0  0  0  0  0
   28.5107  -23.8396  -17.1012 C   0  0  1  0  0  0  0  0  0  0  0  0
   27.4670  -24.7899  -17.6193 C   0  0  0  0  0  0  0  0  0  0  0  0
   28.0495  -26.0114  -18.2931 C   0  0  0  0  0  0  0  0  0  0  0  0
   27.9773  -27.1570  -17.3255 C   0  0  0  0  0  0  0  0  0  0  0  0
   28.5104  -28.4440  -17.9203 C   0  0  0  0  0  0  0  0  0  0  0  0
   28.3332  -29.4763  -16.9070 N   0  0  0  0  0  0  0  0  0  0  0  0
   27.7496  -22.6643  -16.5380 C   0  0  0  0  0  0  0  0  0  0  0  0
   27.5481  -22.5790  -15.3065 O   0  0  0  0  0  0  0  0  0  0  0  0
   27.2548  -21.6495  -17.3774 N   0  0  0  0  0  0  0  0  0  0  0  0
   26.6562  -20.4525  -16.7527 C   0  0  1  0  0  0  0  0  0  0  0  0
   26.9910  -19.2687  -17.6365 C   0  0  0  0  0  0  0  0  0  0  0  0
   28.6892  -18.7841  -17.3960 S   0  0  0  0  0  0  0  0  0  0  0  0
   25.1868  -20.6672  -16.6537 C   0  0  0  0  0  0  0  0  0  0  0  0
   24.6387  -21.3855  -17.5636 O   0  0  0  0  0  0  0  0  0  0  0  0
   20.8285  -22.8224  -13.5024 C   0  0  0  0  0  0  0  0  0  0  0  0
   21.2051  -21.7618  -14.5189 C   0  0  0  0  0  0  0  0  0  0  0  0
   22.6707  -21.4486  -14.4910 C   0  0  2  0  0  0  0  0  0  0  0  0
   23.0054  -20.7594  -13.1663 C   0  0  0  0  0  0  0  0  0  0  0  0
   22.9722  -20.4701  -15.6052 C   0  0  2  0  0  0  0  0  0  0  0  0
   24.3796  -20.1302  -15.6227 N   0  0  0  0  0  0  0  0  0  0  0  0
   22.2110  -19.2126  -15.3552 C   0  0  0  0  0  0  0  0  0  0  0  0
   22.8266  -18.0562  -14.9349 O   0  0  0  0  0  0  0  0  0  0  0  0
   20.9539  -19.1847  -15.5291 O   0  0  0  0  0  0  0  0  0  0  0  0
  2  1  1  1
  3  2  1  0
  4  3  1  0
  5  4  1  0
  5  6  1  0
  6  7  1  0
  8  9  2  0
  8  2  1  0
 10  8  1  0
 11 10  1  0
 12 13  1  0
 11 12  1  6
 14 21  1  0
 14 11  1  0
 15 14  2  0
 17 16  1  0
 18 17  1  0
 18 20  1  0
 18 19  1  1
 20 21  1  1
 20 22  1  0
 22 23  1  0
 24 22  2  0
M  END
$$$$
