KCI.pdb
     RDKit          3D

 24 23  0  0  1  0  0  0  0  0999 V2000
   12.2008  -22.7744    1.0956 N   0  0  0  0  0  0  0  0  0  0  0  0
   13.4564  -22.0888    1.0554 C   0  0  1  0  0  0  0  0  0  0  0  0
   14.0764  -22.0036   -0.3118 C   0  0  0  0  0  0  0  0  0  0  0  0
   14.1336  -23.3335   -1.0284 C   0  0  0  0  0  0  0  0  0  0  0  0
   14.9857  -23.1672   -2.2532 C   0  0  0  0  0  0  0  0  0  0  0  0
   15.0248  -24.4232   -3.0989 C   0  0  0  0  0  0  0  0  0  0  0  0
   15.9102  -24.1421   -4.2219 N   0  0  0  0  0  0  0  0  0  0  0  0
   13.3067  -20.6625    1.5257 C   0  0  0  0  0  0  0  0  0  0  0  0
   12.2046  -20.0801    1.4225 O   0  0  0  0  0  0  0  0  0  0  0  0
   14.3925  -19.9638    2.0843 N   0  0  0  0  0  0  0  0  0  0  0  0
   14.1206  -18.6995    2.7975 C   0  0  1  0  0  0  0  0  0  0  0  0
   13.2484  -19.0342    3.9900 C   0  0  0  0  0  0  0  0  0  0  0  0
   14.1398  -20.0752    5.1294 S   0  0  0  0  0  0  0  0  0  0  0  0
   15.4233  -18.1139    3.2156 C   0  0  0  0  0  0  0  0  0  0  0  0
   16.3895  -18.9298    3.4277 O   0  0  0  0  0  0  0  0  0  0  0  0
   19.0112  -13.1322    3.0488 C   0  0  0  0  0  0  0  0  0  0  0  0
   18.6819  -14.5533    3.4634 C   0  0  0  0  0  0  0  0  0  0  0  0
   17.2614  -14.9170    3.1524 C   0  0  2  0  0  0  0  0  0  0  0  0
   16.3311  -13.9153    3.8404 C   0  0  0  0  0  0  0  0  0  0  0  0
   16.9776  -16.2828    3.7390 C   0  0  2  0  0  0  0  0  0  0  0  0
   15.6455  -16.7265    3.3852 N   0  0  0  0  0  0  0  0  0  0  0  0
   17.0372  -16.1856    5.2257 C   0  0  0  0  0  0  0  0  0  0  0  0
   18.2273  -16.2318    5.9145 O   0  0  0  0  0  0  0  0  0  0  0  0
   15.9685  -16.0555    5.8981 O   0  0  0  0  0  0  0  0  0  0  0  0
  2  1  1  6
  3  2  1  0
  4  3  1  0
  5  4  1  0
  5  6  1  0
  6  7  1  0
  8  9  2  0
  8  2  1  0
 10  8  1  0
 11 10  1  0
 12 13  1  0
 11 12  1  1
 14 21  1  0
 14 11  1  0
 15 14  2  0
 17 16  1  0
 18 17  1  0
 18 20  1  0
 18 19  1  1
 20 21  1  1
 20 22  1  0
 22 23  1  0
 24 22  2  0
M  END
$$$$
