KCI.pdb
     RDKit          3D

 24 23  0  0  1  0  0  0  0  0999 V2000
   23.9443  -14.5004  -18.6266 N   0  0  0  0  0  0  0  0  0  0  0  0
   24.0257  -13.1129  -18.9676 C   0  0  1  0  0  0  0  0  0  0  0  0
   22.8920  -12.6130  -19.8196 C   0  0  0  0  0  0  0  0  0  0  0  0
   22.8404  -13.2560  -21.1868 C   0  0  0  0  0  0  0  0  0  0  0  0
   21.6631  -14.1869  -21.2205 C   0  0  0  0  0  0  0  0  0  0  0  0
   21.5490  -14.9189  -22.5417 C   0  0  0  0  0  0  0  0  0  0  0  0
   20.3947  -15.8017  -22.4307 N   0  0  0  0  0  0  0  0  0  0  0  0
   24.0158  -12.2518  -17.7282 C   0  0  0  0  0  0  0  0  0  0  0  0
   23.1419  -12.4257  -16.8503 O   0  0  0  0  0  0  0  0  0  0  0  0
   24.9790  -11.2448  -17.5352 N   0  0  0  0  0  0  0  0  0  0  0  0
   24.9186  -10.4450  -16.2951 C   0  0  1  0  0  0  0  0  0  0  0  0
   26.3271   -9.9760  -15.9932 C   0  0  0  0  0  0  0  0  0  0  0  0
   27.3201  -11.3424  -15.4242 S   0  0  0  0  0  0  0  0  0  0  0  0
   23.9953   -9.3009  -16.5258 C   0  0  0  0  0  0  0  0  0  0  0  0
   23.9991   -8.7737  -17.6947 O   0  0  0  0  0  0  0  0  0  0  0  0
   18.9258   -7.7397  -17.9120 C   0  0  0  0  0  0  0  0  0  0  0  0
   20.0558   -7.2562  -17.0236 C   0  0  0  0  0  0  0  0  0  0  0  0
   21.0345   -8.3477  -16.7113 C   0  0  2  0  0  0  0  0  0  0  0  0
   20.3526   -9.3838  -15.8149 C   0  0  0  0  0  0  0  0  0  0  0  0
   22.1837   -7.7506  -15.9284 C   0  0  2  0  0  0  0  0  0  0  0  0
   23.1272   -8.7772  -15.5384 N   0  0  0  0  0  0  0  0  0  0  0  0
   21.6442   -7.1402  -14.6795 C   0  0  0  0  0  0  0  0  0  0  0  0
   21.7726   -7.7500  -13.4529 O   0  0  0  0  0  0  0  0  0  0  0  0
   21.0436   -6.0229  -14.7253 O   0  0  0  0  0  0  0  0  0  0  0  0
  2  1  1  1
  3  2  1  0
  4  3  1  0
  5  4  1  0
  5  6  1  0
  6  7  1  0
  8  9  2  0
  8  2  1  0
 10  8  1  0
 11 10  1  0
 12 13  1  0
 11 12  1  6
 14 21  1  0
 14 11  1  0
 15 14  2  0
 17 16  1  0
 18 17  1  0
 18 20  1  0
 18 19  1  1
 20 21  1  1
 20 22  1  0
 22 23  1  0
 24 22  2  0
M  END
$$$$
