KCI.pdb
     RDKit          3D

 24 23  0  0  1  0  0  0  0  0999 V2000
   28.8026  -22.2623  -18.2300 N   0  0  0  0  0  0  0  0  0  0  0  0
   28.6494  -22.8780  -16.9472 C   0  0  1  0  0  0  0  0  0  0  0  0
   29.8081  -23.7390  -16.5269 C   0  0  0  0  0  0  0  0  0  0  0  0
   29.9406  -25.0058  -17.3413 C   0  0  0  0  0  0  0  0  0  0  0  0
   28.9929  -26.0244  -16.7773 C   0  0  0  0  0  0  0  0  0  0  0  0
   29.0311  -27.3296  -17.5449 C   0  0  0  0  0  0  0  0  0  0  0  0
   28.0020  -28.1839  -16.9660 N   0  0  0  0  0  0  0  0  0  0  0  0
   28.4999  -21.8372  -15.8645 C   0  0  0  0  0  0  0  0  0  0  0  0
   29.4576  -21.0841  -15.5814 O   0  0  0  0  0  0  0  0  0  0  0  0
   27.2926  -21.6931  -15.1567 N   0  0  0  0  0  0  0  0  0  0  0  0
   27.1897  -20.6094  -14.1587 C   0  0  1  0  0  0  0  0  0  0  0  0
   26.5416  -19.4250  -14.8457 C   0  0  0  0  0  0  0  0  0  0  0  0
   24.8867  -19.8432  -15.3586 S   0  0  0  0  0  0  0  0  0  0  0  0
   26.3672  -21.1035  -13.0211 C   0  0  0  0  0  0  0  0  0  0  0  0
   25.7120  -22.1906  -13.2028 O   0  0  0  0  0  0  0  0  0  0  0  0
   27.1996  -19.3867   -7.8475 C   0  0  0  0  0  0  0  0  0  0  0  0
   26.9042  -20.3494   -8.9815 C   0  0  0  0  0  0  0  0  0  0  0  0
   25.4936  -20.2262   -9.4733 C   0  0  2  0  0  0  0  0  0  0  0  0
   24.5560  -20.8892   -8.4617 C   0  0  0  0  0  0  0  0  0  0  0  0
   25.3729  -20.9865  -10.7761 C   0  0  2  0  0  0  0  0  0  0  0  0
   26.2760  -20.4467  -11.7708 N   0  0  0  0  0  0  0  0  0  0  0  0
   23.9849  -20.8244  -11.2964 C   0  0  0  0  0  0  0  0  0  0  0  0
   23.0045  -21.7625  -11.0691 O   0  0  0  0  0  0  0  0  0  0  0  0
   23.6752  -19.7962  -11.9731 O   0  0  0  0  0  0  0  0  0  0  0  0
  2  1  1  6
  3  2  1  0
  4  3  1  0
  5  4  1  0
  5  6  1  0
  6  7  1  0
  8  9  2  0
  8  2  1  0
 10  8  1  0
 11 10  1  0
 12 13  1  0
 11 12  1  6
 14 21  1  0
 14 11  1  0
 15 14  2  0
 17 16  1  0
 18 17  1  0
 18 20  1  0
 18 19  1  1
 20 21  1  6
 20 22  1  0
 22 23  1  0
 24 22  2  0
M  END
$$$$
