KCI.pdb
     RDKit          3D

 24 23  0  0  1  0  0  0  0  0999 V2000
   18.4259  -13.3111  -17.9717 N   0  0  0  0  0  0  0  0  0  0  0  0
   17.0506  -12.9268  -18.0668 C   0  0  1  0  0  0  0  0  0  0  0  0
   16.0732  -14.0375  -17.7991 C   0  0  0  0  0  0  0  0  0  0  0  0
   16.6503  -15.4145  -18.0362 C   0  0  0  0  0  0  0  0  0  0  0  0
   15.6526  -16.4278  -17.5548 C   0  0  0  0  0  0  0  0  0  0  0  0
   16.2119  -17.8355  -17.5717 C   0  0  0  0  0  0  0  0  0  0  0  0
   16.8706  -18.0377  -16.2875 N   0  0  0  0  0  0  0  0  0  0  0  0
   16.7232  -11.8446  -17.0670 C   0  0  0  0  0  0  0  0  0  0  0  0
   15.5522  -11.4166  -16.9665 O   0  0  0  0  0  0  0  0  0  0  0  0
   17.7177  -11.2989  -16.2350 N   0  0  0  0  0  0  0  0  0  0  0  0
   17.3536  -10.1712  -15.3536 C   0  0  1  0  0  0  0  0  0  0  0  0
   17.8837  -10.4915  -13.9711 C   0  0  0  0  0  0  0  0  0  0  0  0
   17.6216   -9.1085  -12.8778 S   0  0  0  0  0  0  0  0  0  0  0  0
   17.9690   -8.9339  -15.9059 C   0  0  0  0  0  0  0  0  0  0  0  0
   19.1739   -9.0222  -16.3355 O   0  0  0  0  0  0  0  0  0  0  0  0
   17.7331   -4.7997  -19.9603 C   0  0  0  0  0  0  0  0  0  0  0  0
   18.1014   -5.0655  -18.5134 C   0  0  0  0  0  0  0  0  0  0  0  0
   17.4830   -6.3294  -17.9967 C   0  0  2  0  0  0  0  0  0  0  0  0
   15.9669   -6.1403  -17.9097 C   0  0  0  0  0  0  0  0  0  0  0  0
   17.9951   -6.5741  -16.5939 C   0  0  2  0  0  0  0  0  0  0  0  0
   17.3018   -7.6880  -15.9816 N   0  0  0  0  0  0  0  0  0  0  0  0
   17.7179   -5.3648  -15.7669 C   0  0  0  0  0  0  0  0  0  0  0  0
   18.5912   -4.3034  -15.7076 O   0  0  0  0  0  0  0  0  0  0  0  0
   16.6481   -5.2901  -15.0877 O   0  0  0  0  0  0  0  0  0  0  0  0
  2  1  1  1
  3  2  1  0
  4  3  1  0
  5  4  1  0
  5  6  1  0
  6  7  1  0
  8  9  2  0
  8  2  1  0
 10  8  1  0
 11 10  1  0
 12 13  1  0
 11 12  1  1
 14 21  1  0
 14 11  1  0
 15 14  2  0
 17 16  1  0
 18 17  1  0
 18 20  1  0
 18 19  1  1
 20 21  1  1
 20 22  1  0
 22 23  1  0
 24 22  2  0
M  END
$$$$
