KCI.pdb
     RDKit          3D

 24 23  0  0  1  0  0  0  0  0999 V2000
   23.0934  -13.8126  -17.5432 N   0  0  0  0  0  0  0  0  0  0  0  0
   22.8138  -12.4730  -17.9621 C   0  0  1  0  0  0  0  0  0  0  0  0
   21.3699  -12.2113  -18.2901 C   0  0  0  0  0  0  0  0  0  0  0  0
   20.5625  -13.4732  -18.4928 C   0  0  0  0  0  0  0  0  0  0  0  0
   19.1971  -13.0807  -18.9781 C   0  0  0  0  0  0  0  0  0  0  0  0
   18.3073  -14.2825  -19.2197 C   0  0  0  0  0  0  0  0  0  0  0  0
   18.2280  -15.0031  -17.9554 N   0  0  0  0  0  0  0  0  0  0  0  0
   23.1726  -11.4841  -16.8800 C   0  0  0  0  0  0  0  0  0  0  0  0
   22.5922  -11.5272  -15.7728 O   0  0  0  0  0  0  0  0  0  0  0  0
   24.1574  -10.5017  -17.0909 N   0  0  0  0  0  0  0  0  0  0  0  0
   24.5353   -9.6330  -15.9579 C   0  0  1  0  0  0  0  0  0  0  0  0
   26.0352   -9.4318  -16.0260 C   0  0  0  0  0  0  0  0  0  0  0  0
   26.8697  -10.7314  -15.1366 S   0  0  0  0  0  0  0  0  0  0  0  0
   23.8006   -8.3461  -16.0955 C   0  0  0  0  0  0  0  0  0  0  0  0
   23.6129   -7.9048  -17.2847 O   0  0  0  0  0  0  0  0  0  0  0  0
   18.8882   -5.9145  -16.4071 C   0  0  0  0  0  0  0  0  0  0  0  0
   20.2648   -5.6044  -15.8517 C   0  0  0  0  0  0  0  0  0  0  0  0
   21.0740   -6.8453  -15.6236 C   0  0  2  0  0  0  0  0  0  0  0  0
   20.4990   -7.5984  -14.4218 C   0  0  0  0  0  0  0  0  0  0  0  0
   22.4885   -6.4368  -15.2737 C   0  0  2  0  0  0  0  0  0  0  0  0
   23.3056   -7.6002  -14.9994 N   0  0  0  0  0  0  0  0  0  0  0  0
   22.4537   -5.6111  -14.0326 C   0  0  0  0  0  0  0  0  0  0  0  0
   22.8114   -6.1200  -12.8054 O   0  0  0  0  0  0  0  0  0  0  0  0
   22.0857   -4.3974  -14.0860 O   0  0  0  0  0  0  0  0  0  0  0  0
  2  1  1  1
  3  2  1  0
  4  3  1  0
  5  4  1  0
  5  6  1  0
  6  7  1  0
  8  9  2  0
  8  2  1  0
 10  8  1  0
 11 10  1  0
 12 13  1  0
 11 12  1  6
 14 21  1  0
 14 11  1  0
 15 14  2  0
 17 16  1  0
 18 17  1  0
 18 20  1  0
 18 19  1  1
 20 21  1  1
 20 22  1  0
 22 23  1  0
 24 22  2  0
M  END
$$$$
