KCI.pdb
     RDKit          3D

 24 23  0  0  1  0  0  0  0  0999 V2000
   19.1557  -13.4254  -16.5877 N   0  0  0  0  0  0  0  0  0  0  0  0
   19.9666  -12.4388  -17.2337 C   0  0  1  0  0  0  0  0  0  0  0  0
   19.6850  -12.2637  -18.7003 C   0  0  0  0  0  0  0  0  0  0  0  0
   20.3274  -13.3240  -19.5653 C   0  0  0  0  0  0  0  0  0  0  0  0
   19.4360  -14.5321  -19.5618 C   0  0  0  0  0  0  0  0  0  0  0  0
   19.9713  -15.6417  -20.4431 C   0  0  0  0  0  0  0  0  0  0  0  0
   19.0469  -16.7607  -20.3119 N   0  0  0  0  0  0  0  0  0  0  0  0
   19.7584  -11.0792  -16.6125 C   0  0  0  0  0  0  0  0  0  0  0  0
   18.6347  -10.7586  -16.1662 O   0  0  0  0  0  0  0  0  0  0  0  0
   20.8126  -10.1520  -16.5230 N   0  0  0  0  0  0  0  0  0  0  0  0
   20.5724   -8.8840  -15.8048 C   0  0  1  0  0  0  0  0  0  0  0  0
   21.2683   -8.9880  -14.4633 C   0  0  0  0  0  0  0  0  0  0  0  0
   21.2452   -7.4094  -13.6360 S   0  0  0  0  0  0  0  0  0  0  0  0
   21.1253   -7.7737  -16.6270 C   0  0  0  0  0  0  0  0  0  0  0  0
   22.3398   -7.8881  -17.0222 O   0  0  0  0  0  0  0  0  0  0  0  0
   20.6642   -4.4378  -21.4080 C   0  0  0  0  0  0  0  0  0  0  0  0
   21.0640   -4.4444  -19.9452 C   0  0  0  0  0  0  0  0  0  0  0  0
   20.4992   -5.6231  -19.2112 C   0  0  2  0  0  0  0  0  0  0  0  0
   18.9794   -5.4686  -19.1199 C   0  0  0  0  0  0  0  0  0  0  0  0
   21.0458   -5.6150  -17.8002 C   0  0  2  0  0  0  0  0  0  0  0  0
   20.3901   -6.6202  -16.9901 N   0  0  0  0  0  0  0  0  0  0  0  0
   20.7593   -4.2873  -17.1850 C   0  0  0  0  0  0  0  0  0  0  0  0
   21.6102   -3.2157  -17.3288 O   0  0  0  0  0  0  0  0  0  0  0  0
   19.7026   -4.1169  -16.5026 O   0  0  0  0  0  0  0  0  0  0  0  0
  2  1  1  1
  3  2  1  0
  4  3  1  0
  5  4  1  0
  5  6  1  0
  6  7  1  0
  8  9  2  0
  8  2  1  0
 10  8  1  0
 11 10  1  0
 12 13  1  0
 11 12  1  1
 14 21  1  0
 14 11  1  0
 15 14  2  0
 17 16  1  0
 18 17  1  0
 18 20  1  0
 18 19  1  1
 20 21  1  1
 20 22  1  0
 22 23  1  0
 24 22  2  0
M  END
$$$$
