KCI.pdb
     RDKit          3D

 24 23  0  0  1  0  0  0  0  0999 V2000
   27.1130  -21.8359  -17.5326 N   0  0  0  0  0  0  0  0  0  0  0  0
   27.5275  -22.1237  -16.1934 C   0  0  1  0  0  0  0  0  0  0  0  0
   29.0159  -22.0972  -15.9824 C   0  0  0  0  0  0  0  0  0  0  0  0
   29.7095  -23.3595  -16.4418 C   0  0  0  0  0  0  0  0  0  0  0  0
   30.4306  -23.0558  -17.7231 C   0  0  0  0  0  0  0  0  0  0  0  0
   31.1559  -24.2664  -18.2732 C   0  0  0  0  0  0  0  0  0  0  0  0
   31.8574  -23.8231  -19.4713 N   0  0  0  0  0  0  0  0  0  0  0  0
   26.9596  -21.1149  -15.2251 C   0  0  0  0  0  0  0  0  0  0  0  0
   26.6718  -19.9623  -15.6166 O   0  0  0  0  0  0  0  0  0  0  0  0
   26.7440  -21.4452  -13.8747 N   0  0  0  0  0  0  0  0  0  0  0  0
   25.8658  -20.5716  -13.0705 C   0  0  1  0  0  0  0  0  0  0  0  0
   24.4606  -20.7212  -13.6163 C   0  0  0  0  0  0  0  0  0  0  0  0
   23.2974  -19.8886  -12.5532 S   0  0  0  0  0  0  0  0  0  0  0  0
   25.9537  -21.0071  -11.6502 C   0  0  0  0  0  0  0  0  0  0  0  0
   25.6752  -22.2328  -11.3966 O   0  0  0  0  0  0  0  0  0  0  0  0
   28.3317  -19.6753   -6.1057 C   0  0  0  0  0  0  0  0  0  0  0  0
   27.4820  -20.5005   -7.0527 C   0  0  0  0  0  0  0  0  0  0  0  0
   27.2518  -19.8017   -8.3586 C   0  0  2  0  0  0  0  0  0  0  0  0
   26.4002  -18.5546   -8.1103 C   0  0  0  0  0  0  0  0  0  0  0  0
   26.4614  -20.7234   -9.2618 C   0  0  2  0  0  0  0  0  0  0  0  0
   26.3253  -20.1522  -10.5853 N   0  0  0  0  0  0  0  0  0  0  0  0
   25.0897  -20.8820   -8.6993 C   0  0  0  0  0  0  0  0  0  0  0  0
   24.8258  -21.7201   -7.6406 O   0  0  0  0  0  0  0  0  0  0  0  0
   24.1189  -20.2329   -9.1970 O   0  0  0  0  0  0  0  0  0  0  0  0
  2  1  1  6
  3  2  1  0
  4  3  1  0
  5  4  1  0
  5  6  1  0
  6  7  1  0
  8  9  2  0
  8  2  1  0
 10  8  1  0
 11 10  1  0
 12 13  1  0
 11 12  1  6
 14 21  1  0
 14 11  1  0
 15 14  2  0
 17 16  1  0
 18 17  1  0
 18 20  1  0
 18 19  1  1
 20 21  1  6
 20 22  1  0
 22 23  1  0
 24 22  2  0
M  END
$$$$
