KCI.pdb
     RDKit          3D

 24 23  0  0  1  0  0  0  0  0999 V2000
   28.2283  -22.1382  -14.7109 N   0  0  0  0  0  0  0  0  0  0  0  0
   27.8414  -20.8422  -15.1788 C   0  0  1  0  0  0  0  0  0  0  0  0
   26.9391  -20.8576  -16.3814 C   0  0  0  0  0  0  0  0  0  0  0  0
   26.7253  -22.2406  -16.9533 C   0  0  0  0  0  0  0  0  0  0  0  0
   25.9722  -23.0532  -15.9401 C   0  0  0  0  0  0  0  0  0  0  0  0
   25.5255  -24.3899  -16.4951 C   0  0  0  0  0  0  0  0  0  0  0  0
   26.6022  -25.3342  -16.2246 N   0  0  0  0  0  0  0  0  0  0  0  0
   27.0870  -20.0872  -14.1117 C   0  0  0  0  0  0  0  0  0  0  0  0
   26.5627  -18.9828  -14.3762 O   0  0  0  0  0  0  0  0  0  0  0  0
   26.9587  -20.6036  -12.8093 N   0  0  0  0  0  0  0  0  0  0  0  0
   25.8626  -20.0970  -11.9589 C   0  0  1  0  0  0  0  0  0  0  0  0
   24.5592  -20.4951  -12.6202 C   0  0  0  0  0  0  0  0  0  0  0  0
   23.1813  -20.0329  -11.5886 S   0  0  0  0  0  0  0  0  0  0  0  0
   26.0036  -20.7072  -10.6089 C   0  0  0  0  0  0  0  0  0  0  0  0
   26.0195  -21.9878  -10.5453 O   0  0  0  0  0  0  0  0  0  0  0  0
   28.9335  -18.4686   -6.6548 C   0  0  0  0  0  0  0  0  0  0  0  0
   28.2562  -19.4686   -7.5718 C   0  0  0  0  0  0  0  0  0  0  0  0
   26.8777  -19.8222   -7.1011 C   0  0  2  0  0  0  0  0  0  0  0  0
   26.9892  -20.6657   -5.8290 C   0  0  0  0  0  0  0  0  0  0  0  0
   26.2147  -20.6761   -8.1600 C   0  0  2  0  0  0  0  0  0  0  0  0
   26.1214  -19.9582   -9.4139 N   0  0  0  0  0  0  0  0  0  0  0  0
   24.8253  -20.9900   -7.7191 C   0  0  0  0  0  0  0  0  0  0  0  0
   24.5394  -22.0688   -6.9146 O   0  0  0  0  0  0  0  0  0  0  0  0
   23.8596  -20.2520   -8.0854 O   0  0  0  0  0  0  0  0  0  0  0  0
  2  1  1  1
  3  2  1  0
  4  3  1  0
  5  4  1  0
  5  6  1  0
  6  7  1  0
  8  9  2  0
  8  2  1  0
 10  8  1  0
 11 10  1  0
 12 13  1  0
 11 12  1  6
 14 21  1  0
 14 11  1  0
 15 14  2  0
 17 16  1  0
 18 17  1  0
 18 20  1  0
 18 19  1  1
 20 21  1  6
 20 22  1  0
 22 23  1  0
 24 22  2  0
M  END
$$$$
