GWH.pdb
     RDKit          3D

 29 31  0  0  1  0  0  0  0  0999 V2000
   10.2761  -19.6078   18.4908 N   0  0  0  0  0  0  0  0  0  0  0  0
    9.3755  -18.4792   18.5369 C   0  0  0  0  0  0  0  0  0  0  0  0
   10.0871  -17.3122   19.1222 C   0  0  0  0  0  0  0  0  0  0  0  0
   10.4743  -16.3542   18.3723 O   0  0  0  0  0  0  0  0  0  0  0  0
   10.3752  -17.1846   20.5001 N   0  0  0  0  0  0  0  0  0  0  0  0
   11.0803  -16.0476   21.0574 C   0  0  1  0  0  0  0  0  0  0  0  0
   10.3624  -15.4849   22.2651 C   0  0  0  0  0  0  0  0  0  0  0  0
    9.0057  -15.0157   21.9800 C   0  0  0  0  0  0  0  0  0  0  0  0
    7.8181  -15.4303   22.5345 C   0  0  0  0  0  0  0  0  0  0  0  0
    6.7955  -14.7441   21.9957 N   0  0  0  0  0  0  0  0  0  0  0  0
    7.3101  -13.8871   21.0955 C   0  0  0  0  0  0  0  0  0  0  0  0
    6.7342  -12.9411   20.2459 C   0  0  0  0  0  0  0  0  0  0  0  0
    7.4844  -12.1622   19.3909 C   0  0  0  0  0  0  0  0  0  0  0  0
    8.8637  -12.3337   19.3834 C   0  0  0  0  0  0  0  0  0  0  0  0
    9.4608  -13.2475   20.1988 C   0  0  0  0  0  0  0  0  0  0  0  0
    8.6901  -14.0222   21.0522 C   0  0  0  0  0  0  0  0  0  0  0  0
   12.4428  -16.4451   21.5036 C   0  0  0  0  0  0  0  0  0  0  0  0
   12.6258  -17.6119   21.9174 O   0  0  0  0  0  0  0  0  0  0  0  0
   13.5212  -15.5426   21.4704 N   0  0  0  0  0  0  0  0  0  0  0  0
   14.9155  -15.9119   21.8006 C   0  0  1  0  0  0  0  0  0  0  0  0
   15.8573  -14.8190   21.4123 C   0  0  0  0  0  0  0  0  0  0  0  0
   15.9769  -14.7404   19.9419 C   0  0  0  0  0  0  0  0  0  0  0  0
   15.4337  -15.5354   18.9806 C   0  0  0  0  0  0  0  0  0  0  0  0
   15.7332  -15.0540   17.7419 N   0  0  0  0  0  0  0  0  0  0  0  0
   16.4609  -13.9594   17.9271 C   0  0  0  0  0  0  0  0  0  0  0  0
   16.6187  -13.7528   19.2358 N   0  0  0  0  0  0  0  0  0  0  0  0
   14.9642  -15.9979   23.3114 C   0  0  0  0  0  0  0  0  0  0  0  0
   16.1852  -16.3361   23.9325 O   0  0  0  0  0  0  0  0  0  0  0  0
   14.0217  -15.7969   24.0754 O   0  0  0  0  0  0  0  0  0  0  0  0
  1  2  1  0
  2  3  1  0
  3  4  2  0
  5  3  1  0
  5  6  1  0
  6 17  1  0
  6  7  1  1
  8  7  1  0
  9  8  2  0
 10 11  1  0
 10  9  1  0
 11 16  2  0
 12 11  1  0
 12 13  2  0
 13 14  1  0
 14 15  2  0
 16  8  1  0
 16 15  1  0
 17 18  2  0
 19 20  1  0
 19 17  1  0
 20 27  1  0
 20 21  1  1
 22 21  1  0
 23 22  2  0
 24 23  1  0
 25 24  1  0
 25 26  2  0
 26 22  1  0
 27 29  2  0
 27 28  1  0
M  END
$$$$
