GWH.pdb
     RDKit          3D

 29 31  0  0  1  0  0  0  0  0999 V2000
    5.8786  -14.9011   20.6119 N   0  0  0  0  0  0  0  0  0  0  0  0
    6.3061  -16.0147   21.4267 C   0  0  0  0  0  0  0  0  0  0  0  0
    7.5070  -15.6144   22.2068 C   0  0  0  0  0  0  0  0  0  0  0  0
    8.2308  -14.6382   21.8152 O   0  0  0  0  0  0  0  0  0  0  0  0
    7.9181  -16.2620   23.3940 N   0  0  0  0  0  0  0  0  0  0  0  0
    9.0965  -15.8689   24.1405 C   0  0  1  0  0  0  0  0  0  0  0  0
    8.8267  -15.8356   25.6293 C   0  0  0  0  0  0  0  0  0  0  0  0
    7.6539  -15.0421   25.9993 C   0  0  0  0  0  0  0  0  0  0  0  0
    6.3523  -15.4545   26.1597 C   0  0  0  0  0  0  0  0  0  0  0  0
    5.5791  -14.4104   26.5045 N   0  0  0  0  0  0  0  0  0  0  0  0
    6.3686  -13.3232   26.5691 C   0  0  0  0  0  0  0  0  0  0  0  0
    6.1196  -11.9838   26.8734 C   0  0  0  0  0  0  0  0  0  0  0  0
    7.1140  -11.0291   26.8738 C   0  0  0  0  0  0  0  0  0  0  0  0
    8.4082  -11.4263   26.5583 C   0  0  0  0  0  0  0  0  0  0  0  0
    8.6887  -12.7249   26.2560 C   0  0  0  0  0  0  0  0  0  0  0  0
    7.6755  -13.6715   26.2605 C   0  0  0  0  0  0  0  0  0  0  0  0
   10.2036  -16.8375   23.9175 C   0  0  0  0  0  0  0  0  0  0  0  0
    9.9318  -18.0564   23.8366 O   0  0  0  0  0  0  0  0  0  0  0  0
   11.5395  -16.4141   23.7971 N   0  0  0  0  0  0  0  0  0  0  0  0
   12.6837  -17.3359   23.6225 C   0  0  1  0  0  0  0  0  0  0  0  0
   13.8457  -16.6249   23.0087 C   0  0  0  0  0  0  0  0  0  0  0  0
   13.4883  -16.1150   21.6689 C   0  0  0  0  0  0  0  0  0  0  0  0
   12.7487  -16.6955   20.6855 C   0  0  0  0  0  0  0  0  0  0  0  0
   12.5956  -15.8378   19.6382 N   0  0  0  0  0  0  0  0  0  0  0  0
   13.2365  -14.7225   19.9657 C   0  0  0  0  0  0  0  0  0  0  0  0
   13.7777  -14.8661   21.1768 N   0  0  0  0  0  0  0  0  0  0  0  0
   13.1119  -17.7191   25.0231 C   0  0  0  0  0  0  0  0  0  0  0  0
   14.2043  -18.5981   25.1818 O   0  0  0  0  0  0  0  0  0  0  0  0
   12.5908  -17.3315   26.0675 O   0  0  0  0  0  0  0  0  0  0  0  0
  1  2  1  0
  2  3  1  0
  3  4  2  0
  5  3  1  0
  5  6  1  0
  6 17  1  0
  6  7  1  1
  8  7  1  0
  9  8  2  0
 10 11  1  0
 10  9  1  0
 11 16  2  0
 12 11  1  0
 12 13  2  0
 13 14  1  0
 14 15  2  0
 16  8  1  0
 16 15  1  0
 17 18  2  0
 19 20  1  0
 19 17  1  0
 20 27  1  0
 20 21  1  1
 22 21  1  0
 23 22  2  0
 24 23  1  0
 25 24  1  0
 25 26  2  0
 26 22  1  0
 27 29  2  0
 27 28  1  0
M  END
$$$$
