GWH.pdb
     RDKit          3D

 29 31  0  0  1  0  0  0  0  0999 V2000
    5.7657  -16.6132   20.3434 N   0  0  0  0  0  0  0  0  0  0  0  0
    6.1777  -17.3279   21.5293 C   0  0  0  0  0  0  0  0  0  0  0  0
    7.3555  -16.6436   22.1255 C   0  0  0  0  0  0  0  0  0  0  0  0
    7.9863  -15.7549   21.4604 O   0  0  0  0  0  0  0  0  0  0  0  0
    7.8430  -16.9178   23.4236 N   0  0  0  0  0  0  0  0  0  0  0  0
    9.0076  -16.2623   23.9845 C   0  0  1  0  0  0  0  0  0  0  0  0
    8.8123  -15.9389   25.4500 C   0  0  0  0  0  0  0  0  0  0  0  0
    7.6559  -15.0824   25.7167 C   0  0  0  0  0  0  0  0  0  0  0  0
    6.3412  -15.4430   25.8937 C   0  0  0  0  0  0  0  0  0  0  0  0
    5.5915  -14.3500   26.1175 N   0  0  0  0  0  0  0  0  0  0  0  0
    6.4093  -13.2824   26.0872 C   0  0  0  0  0  0  0  0  0  0  0  0
    6.1921  -11.9132   26.2507 C   0  0  0  0  0  0  0  0  0  0  0  0
    7.2122  -10.9891   26.1736 C   0  0  0  0  0  0  0  0  0  0  0  0
    8.4998  -11.4491   25.9235 C   0  0  0  0  0  0  0  0  0  0  0  0
    8.7495  -12.7783   25.7584 C   0  0  0  0  0  0  0  0  0  0  0  0
    7.7109  -13.6934   25.8393 C   0  0  0  0  0  0  0  0  0  0  0  0
   10.2018  -17.1442   23.8859 C   0  0  0  0  0  0  0  0  0  0  0  0
   10.1144  -18.3257   24.2890 O   0  0  0  0  0  0  0  0  0  0  0  0
   11.4180  -16.6801   23.3531 N   0  0  0  0  0  0  0  0  0  0  0  0
   12.6076  -17.5357   23.1474 C   0  0  1  0  0  0  0  0  0  0  0  0
   13.6410  -16.8184   22.3413 C   0  0  0  0  0  0  0  0  0  0  0  0
   13.1654  -16.6153   20.9574 C   0  0  0  0  0  0  0  0  0  0  0  0
   12.0996  -17.1642   20.3140 C   0  0  0  0  0  0  0  0  0  0  0  0
   11.9759  -16.6351   19.0647 N   0  0  0  0  0  0  0  0  0  0  0  0
   12.9608  -15.7560   18.9268 C   0  0  0  0  0  0  0  0  0  0  0  0
   13.6846  -15.7276   20.0474 N   0  0  0  0  0  0  0  0  0  0  0  0
   13.2055  -17.7350   24.5239 C   0  0  0  0  0  0  0  0  0  0  0  0
   14.3027  -18.6106   24.6665 O   0  0  0  0  0  0  0  0  0  0  0  0
   12.8223  -17.1962   25.5610 O   0  0  0  0  0  0  0  0  0  0  0  0
  1  2  1  0
  2  3  1  0
  3  4  2  0
  5  3  1  0
  5  6  1  0
  6 17  1  0
  6  7  1  1
  8  7  1  0
  9  8  2  0
 10 11  1  0
 10  9  1  0
 11 16  2  0
 12 11  1  0
 12 13  2  0
 13 14  1  0
 14 15  2  0
 16  8  1  0
 16 15  1  0
 17 18  2  0
 19 20  1  0
 19 17  1  0
 20 27  1  0
 20 21  1  6
 22 21  1  0
 23 22  2  0
 24 23  1  0
 25 24  1  0
 25 26  2  0
 26 22  1  0
 27 29  2  0
 27 28  1  0
M  END
$$$$
