GWH.pdb
     RDKit          3D

 29 31  0  0  1  0  0  0  0  0999 V2000
    5.7010  -18.5479   23.1875 N   0  0  0  0  0  0  0  0  0  0  0  0
    6.1702  -18.1277   21.8875 C   0  0  0  0  0  0  0  0  0  0  0  0
    7.3210  -17.2022   22.0611 C   0  0  0  0  0  0  0  0  0  0  0  0
    7.8452  -16.6321   21.0461 O   0  0  0  0  0  0  0  0  0  0  0  0
    7.8958  -16.8985   23.3162 N   0  0  0  0  0  0  0  0  0  0  0  0
    9.1889  -16.2597   23.4587 C   0  0  1  0  0  0  0  0  0  0  0  0
    9.0609  -14.8670   24.0372 C   0  0  0  0  0  0  0  0  0  0  0  0
    7.8373  -14.6600   24.8132 C   0  0  0  0  0  0  0  0  0  0  0  0
    6.8582  -15.5701   25.1340 C   0  0  0  0  0  0  0  0  0  0  0  0
    5.8989  -14.9744   25.8633 N   0  0  0  0  0  0  0  0  0  0  0  0
    6.2478  -13.6846   26.0185 C   0  0  0  0  0  0  0  0  0  0  0  0
    5.6448  -12.6084   26.6719 C   0  0  0  0  0  0  0  0  0  0  0  0
    6.2054  -11.3492   26.6934 C   0  0  0  0  0  0  0  0  0  0  0  0
    7.4155  -11.1559   26.0373 C   0  0  0  0  0  0  0  0  0  0  0  0
    8.0331  -12.1829   25.3890 C   0  0  0  0  0  0  0  0  0  0  0  0
    7.4542  -13.4427   25.3778 C   0  0  0  0  0  0  0  0  0  0  0  0
   10.0580  -17.0390   24.3811 C   0  0  0  0  0  0  0  0  0  0  0  0
    9.6234  -17.3300   25.5180 O   0  0  0  0  0  0  0  0  0  0  0  0
   11.3486  -17.4518   24.0041 N   0  0  0  0  0  0  0  0  0  0  0  0
   12.2219  -18.2990   24.8463 C   0  0  1  0  0  0  0  0  0  0  0  0
   12.5993  -19.5509   24.1234 C   0  0  0  0  0  0  0  0  0  0  0  0
   11.4198  -20.4245   23.9559 C   0  0  0  0  0  0  0  0  0  0  0  0
   10.4130  -20.7043   24.8273 C   0  0  0  0  0  0  0  0  0  0  0  0
    9.4786  -21.4979   24.2333 N   0  0  0  0  0  0  0  0  0  0  0  0
    9.8983  -21.7132   22.9926 C   0  0  0  0  0  0  0  0  0  0  0  0
   11.0577  -21.0800   22.8048 N   0  0  0  0  0  0  0  0  0  0  0  0
   13.5012  -17.5093   25.0248 C   0  0  0  0  0  0  0  0  0  0  0  0
   13.6201  -16.2570   24.3856 O   0  0  0  0  0  0  0  0  0  0  0  0
   14.4760  -17.8569   25.6893 O   0  0  0  0  0  0  0  0  0  0  0  0
  1  2  1  0
  2  3  1  0
  3  4  2  0
  5  3  1  0
  5  6  1  0
  6 17  1  0
  6  7  1  1
  8  7  1  0
  9  8  2  0
 10 11  1  0
 10  9  1  0
 11 16  2  0
 12 11  1  0
 12 13  2  0
 13 14  1  0
 14 15  2  0
 16  8  1  0
 16 15  1  0
 17 18  2  0
 19 20  1  0
 19 17  1  0
 20 27  1  0
 20 21  1  6
 22 21  1  0
 23 22  2  0
 24 23  1  0
 25 24  1  0
 25 26  2  0
 26 22  1  0
 27 29  2  0
 27 28  1  0
M  END
$$$$
