GWH.pdb
     RDKit          3D

 29 31  0  0  1  0  0  0  0  0999 V2000
    7.0513  -18.9143   21.9518 N   0  0  0  0  0  0  0  0  0  0  0  0
    7.4220  -18.6007   23.3123 C   0  0  0  0  0  0  0  0  0  0  0  0
    8.3873  -17.4697   23.3054 C   0  0  0  0  0  0  0  0  0  0  0  0
    8.9033  -17.0728   22.2071 O   0  0  0  0  0  0  0  0  0  0  0  0
    8.7881  -16.7785   24.4714 N   0  0  0  0  0  0  0  0  0  0  0  0
    9.7766  -15.7187   24.4606 C   0  0  1  0  0  0  0  0  0  0  0  0
    9.4023  -14.5990   25.4076 C   0  0  0  0  0  0  0  0  0  0  0  0
    7.9611  -14.3628   25.5026 C   0  0  0  0  0  0  0  0  0  0  0  0
    6.9477  -15.2792   25.6544 C   0  0  0  0  0  0  0  0  0  0  0  0
    5.7613  -14.6486   25.6983 N   0  0  0  0  0  0  0  0  0  0  0  0
    5.9967  -13.3299   25.5761 C   0  0  0  0  0  0  0  0  0  0  0  0
    5.1601  -12.2127   25.5534 C   0  0  0  0  0  0  0  0  0  0  0  0
    5.6446  -10.9297   25.4137 C   0  0  0  0  0  0  0  0  0  0  0  0
    7.0181  -10.7542   25.2919 C   0  0  0  0  0  0  0  0  0  0  0  0
    7.8653  -11.8212   25.3097 C   0  0  0  0  0  0  0  0  0  0  0  0
    7.3598  -13.1045   25.4510 C   0  0  0  0  0  0  0  0  0  0  0  0
   11.1020  -16.2358   24.8957 C   0  0  0  0  0  0  0  0  0  0  0  0
   12.1074  -15.5014   24.7693 O   0  0  0  0  0  0  0  0  0  0  0  0
   11.2468  -17.5239   25.4419 N   0  0  0  0  0  0  0  0  0  0  0  0
   12.4824  -18.0072   26.0971 C   0  0  1  0  0  0  0  0  0  0  0  0
   12.2250  -18.3378   27.5312 C   0  0  0  0  0  0  0  0  0  0  0  0
   11.6409  -17.1751   28.2310 C   0  0  0  0  0  0  0  0  0  0  0  0
   11.8722  -15.8461   28.0536 C   0  0  0  0  0  0  0  0  0  0  0  0
   11.0542  -15.1110   28.8576 N   0  0  0  0  0  0  0  0  0  0  0  0
   10.3116  -15.9774   29.5356 C   0  0  0  0  0  0  0  0  0  0  0  0
   10.6456  -17.2182   29.1761 N   0  0  0  0  0  0  0  0  0  0  0  0
   12.8177  -19.3156   25.4131 C   0  0  0  0  0  0  0  0  0  0  0  0
   14.0091  -19.9818   25.7704 O   0  0  0  0  0  0  0  0  0  0  0  0
   12.1386  -19.8741   24.5532 O   0  0  0  0  0  0  0  0  0  0  0  0
  1  2  1  0
  2  3  1  0
  3  4  2  0
  5  3  1  0
  5  6  1  0
  6 17  1  0
  6  7  1  1
  8  7  1  0
  9  8  2  0
 10 11  1  0
 10  9  1  0
 11 16  2  0
 12 11  1  0
 12 13  2  0
 13 14  1  0
 14 15  2  0
 16  8  1  0
 16 15  1  0
 17 18  2  0
 19 20  1  0
 19 17  1  0
 20 27  1  0
 20 21  1  1
 22 21  1  0
 23 22  2  0
 24 23  1  0
 25 24  1  0
 25 26  2  0
 26 22  1  0
 27 29  2  0
 27 28  1  0
M  END
$$$$
