GWH.pdb
     RDKit          3D

 29 31  0  0  1  0  0  0  0  0999 V2000
    7.0084  -17.8510   20.7272 N   0  0  0  0  0  0  0  0  0  0  0  0
    6.5764  -16.5497   21.1822 C   0  0  0  0  0  0  0  0  0  0  0  0
    7.6796  -15.9108   21.9476 C   0  0  0  0  0  0  0  0  0  0  0  0
    8.1805  -14.8057   21.5504 O   0  0  0  0  0  0  0  0  0  0  0  0
    8.2322  -16.4610   23.1265 N   0  0  0  0  0  0  0  0  0  0  0  0
    9.3302  -15.8462   23.8455 C   0  0  1  0  0  0  0  0  0  0  0  0
    9.0794  -15.8319   25.3380 C   0  0  0  0  0  0  0  0  0  0  0  0
    7.8711  -15.1034   25.7268 C   0  0  0  0  0  0  0  0  0  0  0  0
    6.6131  -15.5970   25.9788 C   0  0  0  0  0  0  0  0  0  0  0  0
    5.7830  -14.5921   26.3076 N   0  0  0  0  0  0  0  0  0  0  0  0
    6.4924  -13.4498   26.2710 C   0  0  0  0  0  0  0  0  0  0  0  0
    6.1607  -12.1161   26.5154 C   0  0  0  0  0  0  0  0  0  0  0  0
    7.0809  -11.0950   26.4110 C   0  0  0  0  0  0  0  0  0  0  0  0
    8.3836  -11.4170   26.0486 C   0  0  0  0  0  0  0  0  0  0  0  0
    8.7437  -12.7078   25.8023 C   0  0  0  0  0  0  0  0  0  0  0  0
    7.8046  -13.7219   25.9121 C   0  0  0  0  0  0  0  0  0  0  0  0
   10.5912  -16.6029   23.6204 C   0  0  0  0  0  0  0  0  0  0  0  0
   10.5696  -17.8511   23.7072 O   0  0  0  0  0  0  0  0  0  0  0  0
   11.7982  -15.9485   23.3146 N   0  0  0  0  0  0  0  0  0  0  0  0
   13.0658  -16.6526   23.0202 C   0  0  1  0  0  0  0  0  0  0  0  0
   14.0515  -15.7239   22.3891 C   0  0  0  0  0  0  0  0  0  0  0  0
   13.5993  -15.3336   21.0379 C   0  0  0  0  0  0  0  0  0  0  0  0
   12.8604  -16.0301   20.1322 C   0  0  0  0  0  0  0  0  0  0  0  0
   12.5998  -15.2594   19.0396 N   0  0  0  0  0  0  0  0  0  0  0  0
   13.1727  -14.0827   19.2612 C   0  0  0  0  0  0  0  0  0  0  0  0
   13.7760  -14.1047   20.4511 N   0  0  0  0  0  0  0  0  0  0  0  0
   13.6413  -17.0304   24.3687 C   0  0  0  0  0  0  0  0  0  0  0  0
   14.8098  -17.8201   24.4103 O   0  0  0  0  0  0  0  0  0  0  0  0
   13.1820  -16.7100   25.4636 O   0  0  0  0  0  0  0  0  0  0  0  0
  1  2  1  0
  2  3  1  0
  3  4  2  0
  5  3  1  0
  5  6  1  0
  6 17  1  0
  6  7  1  1
  8  7  1  0
  9  8  2  0
 10 11  1  0
 10  9  1  0
 11 16  2  0
 12 11  1  0
 12 13  2  0
 13 14  1  0
 14 15  2  0
 16  8  1  0
 16 15  1  0
 17 18  2  0
 19 20  1  0
 19 17  1  0
 20 27  1  0
 20 21  1  1
 22 21  1  0
 23 22  2  0
 24 23  1  0
 25 24  1  0
 25 26  2  0
 26 22  1  0
 27 29  2  0
 27 28  1  0
M  END
$$$$
