GWH.pdb
     RDKit          3D

 29 31  0  0  1  0  0  0  0  0999 V2000
    8.7577  -17.8237   20.8930 N   0  0  0  0  0  0  0  0  0  0  0  0
    8.0842  -16.6004   21.2628 C   0  0  0  0  0  0  0  0  0  0  0  0
    8.8369  -15.9443   22.3646 C   0  0  0  0  0  0  0  0  0  0  0  0
    9.4221  -14.8271   22.1660 O   0  0  0  0  0  0  0  0  0  0  0  0
    8.9541  -16.4905   23.6631 N   0  0  0  0  0  0  0  0  0  0  0  0
    9.7313  -15.8662   24.7151 C   0  0  1  0  0  0  0  0  0  0  0  0
    8.9718  -15.8340   26.0237 C   0  0  0  0  0  0  0  0  0  0  0  0
    7.6737  -15.1635   25.9368 C   0  0  0  0  0  0  0  0  0  0  0  0
    6.4475  -15.7008   25.6247 C   0  0  0  0  0  0  0  0  0  0  0  0
    5.5053  -14.7425   25.6542 N   0  0  0  0  0  0  0  0  0  0  0  0
    6.1105  -13.5870   25.9831 C   0  0  0  0  0  0  0  0  0  0  0  0
    5.6411  -12.2843   26.1591 C   0  0  0  0  0  0  0  0  0  0  0  0
    6.4723  -11.2398   26.5036 C   0  0  0  0  0  0  0  0  0  0  0  0
    7.8253  -11.5055   26.6795 C   0  0  0  0  0  0  0  0  0  0  0  0
    8.3193  -12.7648   26.5161 C   0  0  0  0  0  0  0  0  0  0  0  0
    7.4681  -13.8030   26.1694 C   0  0  0  0  0  0  0  0  0  0  0  0
   10.9882  -16.6248   24.9567 C   0  0  0  0  0  0  0  0  0  0  0  0
   11.1371  -17.2129   26.0512 O   0  0  0  0  0  0  0  0  0  0  0  0
   12.0048  -16.6935   23.9871 N   0  0  0  0  0  0  0  0  0  0  0  0
   13.0103  -17.7772   23.9225 C   0  0  1  0  0  0  0  0  0  0  0  0
   12.3758  -19.0616   23.4982 C   0  0  0  0  0  0  0  0  0  0  0  0
   11.9181  -19.8244   24.6778 C   0  0  0  0  0  0  0  0  0  0  0  0
   11.9566  -19.4933   25.9969 C   0  0  0  0  0  0  0  0  0  0  0  0
   11.3493  -20.4560   26.7454 N   0  0  0  0  0  0  0  0  0  0  0  0
   10.9301  -21.3868   25.8969 C   0  0  0  0  0  0  0  0  0  0  0  0
   11.2595  -21.0291   24.6543 N   0  0  0  0  0  0  0  0  0  0  0  0
   13.9582  -17.3837   22.8095 C   0  0  0  0  0  0  0  0  0  0  0  0
   13.4185  -16.9804   21.5698 O   0  0  0  0  0  0  0  0  0  0  0  0
   15.1862  -17.3788   22.8768 O   0  0  0  0  0  0  0  0  0  0  0  0
  1  2  1  0
  2  3  1  0
  3  4  2  0
  5  3  1  0
  5  6  1  0
  6 17  1  0
  6  7  1  1
  8  7  1  0
  9  8  2  0
 10 11  1  0
 10  9  1  0
 11 16  2  0
 12 11  1  0
 12 13  2  0
 13 14  1  0
 14 15  2  0
 16  8  1  0
 16 15  1  0
 17 18  2  0
 19 20  1  0
 19 17  1  0
 20 27  1  0
 20 21  1  6
 22 21  1  0
 23 22  2  0
 24 23  1  0
 25 24  1  0
 25 26  2  0
 26 22  1  0
 27 29  2  0
 27 28  1  0
M  END
$$$$
