GWH.pdb
     RDKit          3D

 29 31  0  0  1  0  0  0  0  0999 V2000
    6.1960  -17.5724   19.9733 N   0  0  0  0  0  0  0  0  0  0  0  0
    6.2294  -17.2132   21.3721 C   0  0  0  0  0  0  0  0  0  0  0  0
    7.5713  -16.6641   21.7017 C   0  0  0  0  0  0  0  0  0  0  0  0
    8.5166  -16.7217   20.8455 O   0  0  0  0  0  0  0  0  0  0  0  0
    7.8849  -16.0611   22.9411 N   0  0  0  0  0  0  0  0  0  0  0  0
    9.2170  -15.6029   23.2817 C   0  0  1  0  0  0  0  0  0  0  0  0
    9.1769  -14.4779   24.2933 C   0  0  0  0  0  0  0  0  0  0  0  0
    7.9064  -14.3756   25.0126 C   0  0  0  0  0  0  0  0  0  0  0  0
    6.9846  -15.3613   25.2744 C   0  0  0  0  0  0  0  0  0  0  0  0
    5.9504  -14.8509   25.9649 N   0  0  0  0  0  0  0  0  0  0  0  0
    6.1936  -13.5414   26.1534 C   0  0  0  0  0  0  0  0  0  0  0  0
    5.4816  -12.5242   26.7912 C   0  0  0  0  0  0  0  0  0  0  0  0
    5.9442  -11.2272   26.8559 C   0  0  0  0  0  0  0  0  0  0  0  0
    7.1656  -10.9334   26.2609 C   0  0  0  0  0  0  0  0  0  0  0  0
    7.8882  -11.9007   25.6294 C   0  0  0  0  0  0  0  0  0  0  0  0
    7.4069  -13.1998   25.5742 C   0  0  0  0  0  0  0  0  0  0  0  0
   10.0109  -16.7068   23.8855 C   0  0  0  0  0  0  0  0  0  0  0  0
    9.4182  -17.5749   24.5647 O   0  0  0  0  0  0  0  0  0  0  0  0
   11.4038  -16.7937   23.7100 N   0  0  0  0  0  0  0  0  0  0  0  0
   12.2421  -17.8670   24.2885 C   0  0  1  0  0  0  0  0  0  0  0  0
   12.3780  -19.0053   23.3303 C   0  0  0  0  0  0  0  0  0  0  0  0
   12.3550  -18.5120   21.9379 C   0  0  0  0  0  0  0  0  0  0  0  0
   12.2899  -17.2371   21.4671 C   0  0  0  0  0  0  0  0  0  0  0  0
   12.3775  -17.2285   20.1077 N   0  0  0  0  0  0  0  0  0  0  0  0
   12.4988  -18.4947   19.7282 C   0  0  0  0  0  0  0  0  0  0  0  0
   12.4881  -19.2797   20.8071 N   0  0  0  0  0  0  0  0  0  0  0  0
   13.6244  -17.2668   24.4339 C   0  0  0  0  0  0  0  0  0  0  0  0
   13.8073  -15.9024   24.1245 O   0  0  0  0  0  0  0  0  0  0  0  0
   14.6337  -17.8634   24.8052 O   0  0  0  0  0  0  0  0  0  0  0  0
  1  2  1  0
  2  3  1  0
  3  4  2  0
  5  3  1  0
  5  6  1  0
  6 17  1  0
  6  7  1  1
  8  7  1  0
  9  8  2  0
 10 11  1  0
 10  9  1  0
 11 16  2  0
 12 11  1  0
 12 13  2  0
 13 14  1  0
 14 15  2  0
 16  8  1  0
 16 15  1  0
 17 18  2  0
 19 20  1  0
 19 17  1  0
 20 27  1  0
 20 21  1  6
 22 21  1  0
 23 22  2  0
 24 23  1  0
 25 24  1  0
 25 26  2  0
 26 22  1  0
 27 29  2  0
 27 28  1  0
M  END
$$$$
