GWH.pdb
     RDKit          3D

 29 31  0  0  1  0  0  0  0  0999 V2000
    6.6258  -16.9900   19.7013 N   0  0  0  0  0  0  0  0  0  0  0  0
    6.6349  -17.4173   21.0812 C   0  0  0  0  0  0  0  0  0  0  0  0
    7.7229  -16.7065   21.8036 C   0  0  0  0  0  0  0  0  0  0  0  0
    8.5545  -15.9823   21.1601 O   0  0  0  0  0  0  0  0  0  0  0  0
    7.9076  -16.7789   23.2032 N   0  0  0  0  0  0  0  0  0  0  0  0
    8.9953  -16.1131   23.8916 C   0  0  1  0  0  0  0  0  0  0  0  0
    8.7121  -15.9692   25.3713 C   0  0  0  0  0  0  0  0  0  0  0  0
    7.5366  -15.1504   25.6708 C   0  0  0  0  0  0  0  0  0  0  0  0
    6.2258  -15.5433   25.8024 C   0  0  0  0  0  0  0  0  0  0  0  0
    5.4533  -14.4790   26.0807 N   0  0  0  0  0  0  0  0  0  0  0  0
    6.2525  -13.3981   26.1307 C   0  0  0  0  0  0  0  0  0  0  0  0
    6.0085  -12.0456   26.3752 C   0  0  0  0  0  0  0  0  0  0  0  0
    7.0131  -11.1016   26.3732 C   0  0  0  0  0  0  0  0  0  0  0  0
    8.3126  -11.5235   26.1173 C   0  0  0  0  0  0  0  0  0  0  0  0
    8.5884  -12.8355   25.8743 C   0  0  0  0  0  0  0  0  0  0  0  0
    7.5650  -13.7710   25.8803 C   0  0  0  0  0  0  0  0  0  0  0  0
   10.2538  -16.8958   23.7605 C   0  0  0  0  0  0  0  0  0  0  0  0
   10.1826  -18.1418   23.6688 O   0  0  0  0  0  0  0  0  0  0  0  0
   11.5124  -16.2683   23.7381 N   0  0  0  0  0  0  0  0  0  0  0  0
   12.7028  -16.8325   23.0643 C   0  0  1  0  0  0  0  0  0  0  0  0
   13.2822  -15.8467   22.1027 C   0  0  0  0  0  0  0  0  0  0  0  0
   14.4799  -16.4101   21.4464 C   0  0  0  0  0  0  0  0  0  0  0  0
   15.0833  -17.6165   21.6240 C   0  0  0  0  0  0  0  0  0  0  0  0
   16.1180  -17.7625   20.7499 N   0  0  0  0  0  0  0  0  0  0  0  0
   16.1615  -16.6508   20.0259 C   0  0  0  0  0  0  0  0  0  0  0  0
   15.1901  -15.8279   20.4254 N   0  0  0  0  0  0  0  0  0  0  0  0
   13.7353  -17.0185   24.1558 C   0  0  0  0  0  0  0  0  0  0  0  0
   13.4026  -16.6446   25.4751 O   0  0  0  0  0  0  0  0  0  0  0  0
   14.8673  -17.4757   24.0068 O   0  0  0  0  0  0  0  0  0  0  0  0
  1  2  1  0
  2  3  1  0
  3  4  2  0
  5  3  1  0
  5  6  1  0
  6 17  1  0
  6  7  1  1
  8  7  1  0
  9  8  2  0
 10 11  1  0
 10  9  1  0
 11 16  2  0
 12 11  1  0
 12 13  2  0
 13 14  1  0
 14 15  2  0
 16  8  1  0
 16 15  1  0
 17 18  2  0
 19 20  1  0
 19 17  1  0
 20 27  1  0
 20 21  1  6
 22 21  1  0
 23 22  2  0
 24 23  1  0
 25 24  1  0
 25 26  2  0
 26 22  1  0
 27 29  2  0
 27 28  1  0
M  END
$$$$
