GWH.pdb
     RDKit          3D

 29 31  0  0  1  0  0  0  0  0999 V2000
    7.9315  -16.0323   19.9858 N   0  0  0  0  0  0  0  0  0  0  0  0
    7.6635  -16.8174   21.1684 C   0  0  0  0  0  0  0  0  0  0  0  0
    8.5329  -16.3407   22.2764 C   0  0  0  0  0  0  0  0  0  0  0  0
    9.4401  -15.4709   22.0519 O   0  0  0  0  0  0  0  0  0  0  0  0
    8.4212  -16.7994   23.6087 N   0  0  0  0  0  0  0  0  0  0  0  0
    9.2536  -16.3041   24.6868 C   0  0  1  0  0  0  0  0  0  0  0  0
    8.5087  -16.2914   26.0042 C   0  0  0  0  0  0  0  0  0  0  0  0
    7.3252  -15.4303   26.0052 C   0  0  0  0  0  0  0  0  0  0  0  0
    6.0064  -15.7810   25.8391 C   0  0  0  0  0  0  0  0  0  0  0  0
    5.2284  -14.6870   25.9071 N   0  0  0  0  0  0  0  0  0  0  0  0
    6.0319  -13.6286   26.1161 C   0  0  0  0  0  0  0  0  0  0  0  0
    5.7857  -12.2629   26.2669 C   0  0  0  0  0  0  0  0  0  0  0  0
    6.7962  -11.3488   26.4757 C   0  0  0  0  0  0  0  0  0  0  0  0
    8.1041  -11.8155   26.5367 C   0  0  0  0  0  0  0  0  0  0  0  0
    8.3823  -13.1417   26.3938 C   0  0  0  0  0  0  0  0  0  0  0  0
    7.3529  -14.0466   26.1843 C   0  0  0  0  0  0  0  0  0  0  0  0
   10.4475  -17.1733   24.8670 C   0  0  0  0  0  0  0  0  0  0  0  0
   10.3158  -18.4119   24.7463 O   0  0  0  0  0  0  0  0  0  0  0  0
   11.7116  -16.6351   25.1683 N   0  0  0  0  0  0  0  0  0  0  0  0
   12.9199  -17.4543   25.4096 C   0  0  1  0  0  0  0  0  0  0  0  0
   14.1577  -16.6442   25.1997 C   0  0  0  0  0  0  0  0  0  0  0  0
   14.3425  -16.3486   23.7640 C   0  0  0  0  0  0  0  0  0  0  0  0
   13.6755  -16.8348   22.6824 C   0  0  0  0  0  0  0  0  0  0  0  0
   14.1140  -16.2296   21.5434 N   0  0  0  0  0  0  0  0  0  0  0  0
   15.0522  -15.3655   21.9111 C   0  0  0  0  0  0  0  0  0  0  0  0
   15.2049  -15.4198   23.2355 N   0  0  0  0  0  0  0  0  0  0  0  0
   12.8850  -17.8026   26.8826 C   0  0  0  0  0  0  0  0  0  0  0  0
   11.7901  -17.3646   27.6573 O   0  0  0  0  0  0  0  0  0  0  0  0
   13.7374  -18.4473   27.4911 O   0  0  0  0  0  0  0  0  0  0  0  0
  1  2  1  0
  2  3  1  0
  3  4  2  0
  5  3  1  0
  5  6  1  0
  6 17  1  0
  6  7  1  1
  8  7  1  0
  9  8  2  0
 10 11  1  0
 10  9  1  0
 11 16  2  0
 12 11  1  0
 12 13  2  0
 13 14  1  0
 14 15  2  0
 16  8  1  0
 16 15  1  0
 17 18  2  0
 19 20  1  0
 19 17  1  0
 20 27  1  0
 20 21  1  1
 22 21  1  0
 23 22  2  0
 24 23  1  0
 25 24  1  0
 25 26  2  0
 26 22  1  0
 27 29  2  0
 27 28  1  0
M  END
$$$$
