GWH.pdb
     RDKit          3D

 29 31  0  0  1  0  0  0  0  0999 V2000
    6.4644  -15.5948   20.0396 N   0  0  0  0  0  0  0  0  0  0  0  0
    6.5437  -16.2628   21.3180 C   0  0  0  0  0  0  0  0  0  0  0  0
    7.8031  -15.8620   21.9994 C   0  0  0  0  0  0  0  0  0  0  0  0
    8.7008  -15.2164   21.3612 O   0  0  0  0  0  0  0  0  0  0  0  0
    8.0860  -16.1562   23.3526 N   0  0  0  0  0  0  0  0  0  0  0  0
    9.3534  -15.8406   23.9810 C   0  0  1  0  0  0  0  0  0  0  0  0
    9.1700  -15.4206   25.4233 C   0  0  0  0  0  0  0  0  0  0  0  0
    7.8620  -14.8270   25.7038 C   0  0  0  0  0  0  0  0  0  0  0  0
    6.6329  -15.4403   25.7573 C   0  0  0  0  0  0  0  0  0  0  0  0
    5.6808  -14.5363   26.0461 N   0  0  0  0  0  0  0  0  0  0  0  0
    6.2824  -13.3407   26.1806 C   0  0  0  0  0  0  0  0  0  0  0  0
    5.8032  -12.0626   26.4728 C   0  0  0  0  0  0  0  0  0  0  0  0
    6.6324  -10.9646   26.5589 C   0  0  0  0  0  0  0  0  0  0  0  0
    7.9934  -11.1490   26.3450 C   0  0  0  0  0  0  0  0  0  0  0  0
    8.4970  -12.3820   26.0575 C   0  0  0  0  0  0  0  0  0  0  0  0
    7.6478  -13.4749   25.9749 C   0  0  0  0  0  0  0  0  0  0  0  0
   10.2470  -17.0302   23.9814 C   0  0  0  0  0  0  0  0  0  0  0  0
   10.1674  -17.8444   24.9284 O   0  0  0  0  0  0  0  0  0  0  0  0
   11.1727  -17.2561   22.9467 N   0  0  0  0  0  0  0  0  0  0  0  0
   12.6335  -17.0712   23.0929 C   0  0  1  0  0  0  0  0  0  0  0  0
   13.0210  -15.6618   22.7835 C   0  0  0  0  0  0  0  0  0  0  0  0
   12.9393  -15.4125   21.3296 C   0  0  0  0  0  0  0  0  0  0  0  0
   12.5740  -16.2506   20.3220 C   0  0  0  0  0  0  0  0  0  0  0  0
   12.5585  -15.5849   19.1335 N   0  0  0  0  0  0  0  0  0  0  0  0
   12.9118  -14.3327   19.3966 C   0  0  0  0  0  0  0  0  0  0  0  0
   13.1439  -14.2071   20.7045 N   0  0  0  0  0  0  0  0  0  0  0  0
   12.9222  -17.2778   24.5647 C   0  0  0  0  0  0  0  0  0  0  0  0
   13.5640  -18.4673   24.9696 O   0  0  0  0  0  0  0  0  0  0  0  0
   12.6472  -16.4923   25.4702 O   0  0  0  0  0  0  0  0  0  0  0  0
  1  2  1  0
  2  3  1  0
  3  4  2  0
  5  3  1  0
  5  6  1  0
  6 17  1  0
  6  7  1  1
  8  7  1  0
  9  8  2  0
 10 11  1  0
 10  9  1  0
 11 16  2  0
 12 11  1  0
 12 13  2  0
 13 14  1  0
 14 15  2  0
 16  8  1  0
 16 15  1  0
 17 18  2  0
 19 20  1  0
 19 17  1  0
 20 27  1  0
 20 21  1  1
 22 21  1  0
 23 22  2  0
 24 23  1  0
 25 24  1  0
 25 26  2  0
 26 22  1  0
 27 29  2  0
 27 28  1  0
M  END
$$$$
