GWH.pdb
     RDKit          3D

 29 31  0  0  1  0  0  0  0  0999 V2000
    9.6878  -19.2107   18.6454 N   0  0  0  0  0  0  0  0  0  0  0  0
    8.8836  -18.8532   19.7910 C   0  0  0  0  0  0  0  0  0  0  0  0
    9.6881  -17.9967   20.7022 C   0  0  0  0  0  0  0  0  0  0  0  0
   10.9333  -17.8189   20.4834 O   0  0  0  0  0  0  0  0  0  0  0  0
    9.1514  -17.3420   21.8341 N   0  0  0  0  0  0  0  0  0  0  0  0
    9.9549  -16.5467   22.7411 C   0  0  1  0  0  0  0  0  0  0  0  0
    9.3195  -15.2002   23.0124 C   0  0  0  0  0  0  0  0  0  0  0  0
    8.2104  -14.8786   22.1132 C   0  0  0  0  0  0  0  0  0  0  0  0
    6.9144  -15.3355   22.1487 C   0  0  0  0  0  0  0  0  0  0  0  0
    6.2095  -14.7955   21.1395 N   0  0  0  0  0  0  0  0  0  0  0  0
    7.0379  -13.9915   20.4491 C   0  0  0  0  0  0  0  0  0  0  0  0
    6.8617  -13.1868   19.3221 C   0  0  0  0  0  0  0  0  0  0  0  0
    7.8846  -12.4357   18.7836 C   0  0  0  0  0  0  0  0  0  0  0  0
    9.1325  -12.4892   19.3935 C   0  0  0  0  0  0  0  0  0  0  0  0
    9.3415  -13.2635   20.4950 C   0  0  0  0  0  0  0  0  0  0  0  0
    8.3008  -14.0125   21.0227 C   0  0  0  0  0  0  0  0  0  0  0  0
   10.0991  -17.2352   24.0521 C   0  0  0  0  0  0  0  0  0  0  0  0
    9.0728  -17.6676   24.6227 O   0  0  0  0  0  0  0  0  0  0  0  0
   11.3564  -17.4082   24.6586 N   0  0  0  0  0  0  0  0  0  0  0  0
   11.5945  -18.2858   25.8259 C   0  0  1  0  0  0  0  0  0  0  0  0
   11.4034  -19.7206   25.4555 C   0  0  0  0  0  0  0  0  0  0  0  0
   11.5821  -20.5863   26.6392 C   0  0  0  0  0  0  0  0  0  0  0  0
   11.7093  -20.2510   27.9517 C   0  0  0  0  0  0  0  0  0  0  0  0
   11.7703  -21.3716   28.7238 N   0  0  0  0  0  0  0  0  0  0  0  0
   11.6801  -22.4062   27.8970 C   0  0  0  0  0  0  0  0  0  0  0  0
   11.5663  -21.9594   26.6449 N   0  0  0  0  0  0  0  0  0  0  0  0
   13.0625  -18.1253   26.1599 C   0  0  0  0  0  0  0  0  0  0  0  0
   13.4777  -18.3056   27.4963 O   0  0  0  0  0  0  0  0  0  0  0  0
   13.9566  -17.8461   25.3629 O   0  0  0  0  0  0  0  0  0  0  0  0
  1  2  1  0
  2  3  1  0
  3  4  2  0
  5  3  1  0
  5  6  1  0
  6 17  1  0
  6  7  1  1
  8  7  1  0
  9  8  2  0
 10 11  1  0
 10  9  1  0
 11 16  2  0
 12 11  1  0
 12 13  2  0
 13 14  1  0
 14 15  2  0
 16  8  1  0
 16 15  1  0
 17 18  2  0
 19 20  1  0
 19 17  1  0
 20 27  1  0
 20 21  1  6
 22 21  1  0
 23 22  2  0
 24 23  1  0
 25 24  1  0
 25 26  2  0
 26 22  1  0
 27 29  2  0
 27 28  1  0
M  END
$$$$
