GWH.pdb
     RDKit          3D

 29 31  0  0  1  0  0  0  0  0999 V2000
    7.3284  -19.4582   22.2274 N   0  0  0  0  0  0  0  0  0  0  0  0
    8.0389  -19.0715   21.0305 C   0  0  0  0  0  0  0  0  0  0  0  0
    8.7941  -17.8185   21.2963 C   0  0  0  0  0  0  0  0  0  0  0  0
    9.7340  -17.4566   20.5116 O   0  0  0  0  0  0  0  0  0  0  0  0
    8.5349  -16.9694   22.3963 N   0  0  0  0  0  0  0  0  0  0  0  0
    9.2127  -15.7037   22.5936 C   0  0  1  0  0  0  0  0  0  0  0  0
    8.2313  -14.5820   22.8566 C   0  0  0  0  0  0  0  0  0  0  0  0
    7.4872  -14.7297   24.1082 C   0  0  0  0  0  0  0  0  0  0  0  0
    6.8805  -15.8518   24.6207 C   0  0  0  0  0  0  0  0  0  0  0  0
    6.3016  -15.5632   25.7990 N   0  0  0  0  0  0  0  0  0  0  0  0
    6.5277  -14.2622   26.0555 C   0  0  0  0  0  0  0  0  0  0  0  0
    6.1706  -13.4257   27.1145 C   0  0  0  0  0  0  0  0  0  0  0  0
    6.5252  -12.0942   27.1560 C   0  0  0  0  0  0  0  0  0  0  0  0
    7.2653  -11.5766   26.0994 C   0  0  0  0  0  0  0  0  0  0  0  0
    7.6318  -12.3632   25.0489 C   0  0  0  0  0  0  0  0  0  0  0  0
    7.2661  -13.7004   25.0242 C   0  0  0  0  0  0  0  0  0  0  0  0
   10.1215  -15.7752   23.7694 C   0  0  0  0  0  0  0  0  0  0  0  0
   10.9149  -14.8301   23.9772 O   0  0  0  0  0  0  0  0  0  0  0  0
   10.1073  -16.8757   24.6453 N   0  0  0  0  0  0  0  0  0  0  0  0
   11.0907  -17.0766   25.7325 C   0  0  1  0  0  0  0  0  0  0  0  0
   10.4087  -17.1130   27.0613 C   0  0  0  0  0  0  0  0  0  0  0  0
   10.3633  -15.7606   27.6543 C   0  0  0  0  0  0  0  0  0  0  0  0
   11.0759  -14.6462   27.3357 C   0  0  0  0  0  0  0  0  0  0  0  0
   10.6576  -13.5863   28.0823 N   0  0  0  0  0  0  0  0  0  0  0  0
    9.6844  -14.0356   28.8654 C   0  0  0  0  0  0  0  0  0  0  0  0
    9.4915  -15.3339   28.6256 N   0  0  0  0  0  0  0  0  0  0  0  0
   11.6623  -18.4608   25.5102 C   0  0  0  0  0  0  0  0  0  0  0  0
   12.6775  -18.9222   26.3747 O   0  0  0  0  0  0  0  0  0  0  0  0
   11.3226  -19.2477   24.6283 O   0  0  0  0  0  0  0  0  0  0  0  0
  1  2  1  0
  2  3  1  0
  3  4  2  0
  5  3  1  0
  5  6  1  0
  6 17  1  0
  6  7  1  1
  8  7  1  0
  9  8  2  0
 10 11  1  0
 10  9  1  0
 11 16  2  0
 12 11  1  0
 12 13  2  0
 13 14  1  0
 14 15  2  0
 16  8  1  0
 16 15  1  0
 17 18  2  0
 19 20  1  0
 19 17  1  0
 20 27  1  0
 20 21  1  1
 22 21  1  0
 23 22  2  0
 24 23  1  0
 25 24  1  0
 25 26  2  0
 26 22  1  0
 27 29  2  0
 27 28  1  0
M  END
$$$$
