TSH.pdb
     RDKit          3D

 24 24  0  0  1  0  0  0  0  0999 V2000
   20.9913  -15.0149  -14.2230 C   0  0  0  0  0  0  0  0  0  0  0  0
   21.8806  -15.7292  -15.2120 C   0  0  1  0  0  0  0  0  0  0  0  0
   21.8259  -17.0782  -14.9552 O   0  0  0  0  0  0  0  0  0  0  0  0
   21.4129  -15.3690  -16.6024 C   0  0  2  0  0  0  0  0  0  0  0  0
   22.0437  -16.1875  -17.6084 N   0  0  0  0  0  0  0  0  0  0  0  0
   21.5369  -13.9261  -16.8841 C   0  0  0  0  0  0  0  0  0  0  0  0
   22.6355  -13.4615  -17.2262 O   0  0  0  0  0  0  0  0  0  0  0  0
   18.2293  -11.4546  -16.4122 O   0  0  0  0  0  0  0  0  0  0  0  0
   19.0503  -11.1906  -17.5008 C   0  0  0  0  0  0  0  0  0  0  0  0
   20.4340  -11.6816  -17.1651 C   0  0  2  0  0  0  0  0  0  0  0  0
   20.4324  -13.0727  -16.7710 N   0  0  0  0  0  0  0  0  0  0  0  0
   21.0970  -10.8999  -16.0904 C   0  0  0  0  0  0  0  0  0  0  0  0
   20.8265  -11.2791  -14.8913 O   0  0  0  0  0  0  0  0  0  0  0  0
   21.9600   -9.8239  -16.3250 N   0  0  0  0  0  0  0  0  0  0  0  0
   22.5501   -9.0902  -15.1832 C   0  0  1  0  0  0  0  0  0  0  0  0
   23.9612   -8.8677  -15.5570 C   0  0  0  0  0  0  0  0  0  0  0  0
   24.8854   -9.9887  -15.5299 C   0  0  0  0  0  0  0  0  0  0  0  0
   24.8074  -11.3186  -15.2848 C   0  0  0  0  0  0  0  0  0  0  0  0
   26.0066  -11.9178  -15.4421 N   0  0  0  0  0  0  0  0  0  0  0  0
   26.8424  -10.9332  -15.7934 C   0  0  0  0  0  0  0  0  0  0  0  0
   26.2083   -9.7808  -15.8538 N   0  0  0  0  0  0  0  0  0  0  0  0
   21.7605   -7.8434  -15.0084 C   0  0  0  0  0  0  0  0  0  0  0  0
   20.9806   -7.3204  -15.8183 O   0  0  0  0  0  0  0  0  0  0  0  0
   21.9016   -7.1635  -13.7880 O   0  0  0  0  0  0  0  0  0  0  0  0
  2  1  1  1
  2  3  1  0
  4  2  1  0
  4  5  1  6
  6 11  1  0
  6  4  1  0
  7  6  2  0
  8  9  1  0
 10  9  1  1
 10 11  1  0
 10 12  1  0
 12 14  1  0
 13 12  2  0
 14 15  1  0
 15 16  1  6
 15 22  1  0
 17 21  1  0
 17 16  1  0
 18 17  2  0
 19 18  1  0
 19 20  1  0
 20 21  2  0
 22 24  1  0
 23 22  2  0
M  END
$$$$
