TSH.pdb
     RDKit          3D

 24 24  0  0  1  0  0  0  0  0999 V2000
   35.7823  -29.3458  -14.4090 C   0  0  0  0  0  0  0  0  0  0  0  0
   37.0865  -29.7908  -15.0256 C   0  0  1  0  0  0  0  0  0  0  0  0
   37.5970  -30.8218  -14.2738 O   0  0  0  0  0  0  0  0  0  0  0  0
   36.8141  -30.1788  -16.4599 C   0  0  2  0  0  0  0  0  0  0  0  0
   37.9347  -30.8685  -17.0502 N   0  0  0  0  0  0  0  0  0  0  0  0
   36.3547  -29.0388  -17.2760 C   0  0  0  0  0  0  0  0  0  0  0  0
   36.9790  -28.7305  -18.3031 O   0  0  0  0  0  0  0  0  0  0  0  0
   33.0855  -28.7076  -18.8840 O   0  0  0  0  0  0  0  0  0  0  0  0
   34.1875  -27.8866  -19.0857 C   0  0  0  0  0  0  0  0  0  0  0  0
   34.5858  -27.3130  -17.7513 C   0  0  2  0  0  0  0  0  0  0  0  0
   35.2239  -28.2993  -16.9083 N   0  0  0  0  0  0  0  0  0  0  0  0
   33.4508  -26.7262  -16.9944 C   0  0  0  0  0  0  0  0  0  0  0  0
   32.7187  -27.5736  -16.3612 O   0  0  0  0  0  0  0  0  0  0  0  0
   33.1662  -25.3571  -16.9482 N   0  0  0  0  0  0  0  0  0  0  0  0
   32.0610  -24.8625  -16.0973 C   0  0  1  0  0  0  0  0  0  0  0  0
   32.6782  -23.8536  -15.2132 C   0  0  0  0  0  0  0  0  0  0  0  0
   33.5494  -24.2942  -14.1369 C   0  0  0  0  0  0  0  0  0  0  0  0
   34.0445  -25.4759  -13.6972 C   0  0  0  0  0  0  0  0  0  0  0  0
   34.8678  -25.3008  -12.6420 N   0  0  0  0  0  0  0  0  0  0  0  0
   34.8805  -23.9797  -12.4279 C   0  0  0  0  0  0  0  0  0  0  0  0
   34.1104  -23.3578  -13.2963 N   0  0  0  0  0  0  0  0  0  0  0  0
   31.0168  -24.3215  -17.0060 C   0  0  0  0  0  0  0  0  0  0  0  0
   31.0505  -24.2536  -18.2437 O   0  0  0  0  0  0  0  0  0  0  0  0
   29.8467  -23.8241  -16.4102 O   0  0  0  0  0  0  0  0  0  0  0  0
  2  1  1  1
  2  3  1  0
  4  2  1  0
  4  5  1  6
  6 11  1  0
  6  4  1  0
  7  6  2  0
  8  9  1  0
 10  9  1  6
 10 11  1  0
 10 12  1  0
 12 14  1  0
 13 12  2  0
 14 15  1  0
 15 16  1  1
 15 22  1  0
 17 21  1  0
 17 16  1  0
 18 17  2  0
 19 18  1  0
 19 20  1  0
 20 21  2  0
 22 24  1  0
 23 22  2  0
M  END
$$$$
