TSH.pdb
     RDKit          3D

 24 24  0  0  1  0  0  0  0  0999 V2000
   19.5875  -14.0993  -15.6258 C   0  0  0  0  0  0  0  0  0  0  0  0
   18.3609  -14.7407  -16.2285 C   0  0  1  0  0  0  0  0  0  0  0  0
   18.3872  -16.0857  -15.9473 O   0  0  0  0  0  0  0  0  0  0  0  0
   17.1464  -14.0394  -15.6673 C   0  0  2  0  0  0  0  0  0  0  0  0
   15.9251  -14.7238  -16.0137 N   0  0  0  0  0  0  0  0  0  0  0  0
   17.1118  -12.6056  -16.0132 C   0  0  0  0  0  0  0  0  0  0  0  0
   16.7110  -12.2559  -17.1343 O   0  0  0  0  0  0  0  0  0  0  0  0
   16.2368   -8.2424  -14.9394 O   0  0  0  0  0  0  0  0  0  0  0  0
   16.1585   -9.6232  -14.8121 C   0  0  0  0  0  0  0  0  0  0  0  0
   17.4476  -10.2079  -15.3264 C   0  0  2  0  0  0  0  0  0  0  0  0
   17.5248  -11.6330  -15.0943 N   0  0  0  0  0  0  0  0  0  0  0  0
   18.6596   -9.5804  -14.7408 C   0  0  0  0  0  0  0  0  0  0  0  0
   19.0471  -10.0790  -13.6199 O   0  0  0  0  0  0  0  0  0  0  0  0
   19.3574   -8.5231  -15.3349 N   0  0  0  0  0  0  0  0  0  0  0  0
   20.5464   -7.9544  -14.6617 C   0  0  1  0  0  0  0  0  0  0  0  0
   21.6652   -8.8380  -15.0460 C   0  0  0  0  0  0  0  0  0  0  0  0
   21.9909   -8.9957  -16.4534 C   0  0  0  0  0  0  0  0  0  0  0  0
   21.5614   -8.4681  -17.6246 C   0  0  0  0  0  0  0  0  0  0  0  0
   22.2616   -8.9578  -18.6695 N   0  0  0  0  0  0  0  0  0  0  0  0
   23.1437   -9.8064  -18.1282 C   0  0  0  0  0  0  0  0  0  0  0  0
   23.0080   -9.8500  -16.8192 N   0  0  0  0  0  0  0  0  0  0  0  0
   20.6867   -6.5515  -15.1315 C   0  0  0  0  0  0  0  0  0  0  0  0
   20.0237   -5.9755  -16.0069 O   0  0  0  0  0  0  0  0  0  0  0  0
   21.6827   -5.7706  -14.5234 O   0  0  0  0  0  0  0  0  0  0  0  0
  2  1  1  1
  2  3  1  0
  4  2  1  0
  4  5  1  6
  6 11  1  0
  6  4  1  0
  7  6  2  0
  8  9  1  0
 10  9  1  1
 10 11  1  0
 10 12  1  0
 12 14  1  0
 13 12  2  0
 14 15  1  0
 15 16  1  6
 15 22  1  0
 17 21  1  0
 17 16  1  0
 18 17  2  0
 19 18  1  0
 19 20  1  0
 20 21  2  0
 22 24  1  0
 23 22  2  0
M  END
$$$$
