TSH.pdb
     RDKit          3D

 24 24  0  0  1  0  0  0  0  0999 V2000
   44.8010  -10.3921   -3.7992 C   0  0  0  0  0  0  0  0  0  0  0  0
   45.9118  -10.5991   -4.8003 C   0  0  1  0  0  0  0  0  0  0  0  0
   46.9849  -11.1634   -4.1530 O   0  0  0  0  0  0  0  0  0  0  0  0
   45.3740  -11.4580   -5.9204 C   0  0  2  0  0  0  0  0  0  0  0  0
   46.4347  -12.0541   -6.6948 N   0  0  0  0  0  0  0  0  0  0  0  0
   44.3913  -10.7441   -6.7579 C   0  0  0  0  0  0  0  0  0  0  0  0
   44.7869  -10.0400   -7.6999 O   0  0  0  0  0  0  0  0  0  0  0  0
   40.5665  -10.4962   -5.3648 O   0  0  0  0  0  0  0  0  0  0  0  0
   40.6151  -10.4619   -6.7524 C   0  0  0  0  0  0  0  0  0  0  0  0
   42.0059  -10.0475   -7.1553 C   0  0  2  0  0  0  0  0  0  0  0  0
   43.0181  -10.8496   -6.5050 N   0  0  0  0  0  0  0  0  0  0  0  0
   42.3035   -8.6190   -6.8787 C   0  0  0  0  0  0  0  0  0  0  0  0
   42.6726   -8.3600   -5.6739 O   0  0  0  0  0  0  0  0  0  0  0  0
   42.2023   -7.6003   -7.8325 N   0  0  0  0  0  0  0  0  0  0  0  0
   42.3734   -6.1884   -7.4235 C   0  0  1  0  0  0  0  0  0  0  0  0
   43.8130   -5.9094   -7.5972 C   0  0  0  0  0  0  0  0  0  0  0  0
   44.3024   -4.5577   -7.3848 C   0  0  0  0  0  0  0  0  0  0  0  0
   45.0231   -3.9133   -6.4362 C   0  0  0  0  0  0  0  0  0  0  0  0
   45.2318   -2.6224   -6.7709 N   0  0  0  0  0  0  0  0  0  0  0  0
   44.6258   -2.4691   -7.9544 C   0  0  0  0  0  0  0  0  0  0  0  0
   44.0674   -3.5964   -8.3433 N   0  0  0  0  0  0  0  0  0  0  0  0
   41.4839   -5.3707   -8.2889 C   0  0  0  0  0  0  0  0  0  0  0  0
   41.3916   -4.1348   -8.3278 O   0  0  0  0  0  0  0  0  0  0  0  0
   40.6412   -6.0626   -9.1737 O   0  0  0  0  0  0  0  0  0  0  0  0
  2  1  1  1
  2  3  1  0
  4  2  1  0
  4  5  1  6
  6 11  1  0
  6  4  1  0
  7  6  2  0
  8  9  1  0
 10  9  1  1
 10 11  1  0
 10 12  1  0
 12 14  1  0
 13 12  2  0
 14 15  1  0
 15 16  1  6
 15 22  1  0
 17 21  1  0
 17 16  1  0
 18 17  2  0
 19 18  1  0
 19 20  1  0
 20 21  2  0
 22 24  1  0
 23 22  2  0
M  END
$$$$
