TSH.pdb
     RDKit          3D

 24 24  0  0  1  0  0  0  0  0999 V2000
   37.8643  -22.9345    7.0468 C   0  0  0  0  0  0  0  0  0  0  0  0
   37.9215  -23.4682    5.6358 C   0  0  1  0  0  0  0  0  0  0  0  0
   39.0859  -23.0326    5.0499 O   0  0  0  0  0  0  0  0  0  0  0  0
   37.8168  -24.9736    5.7036 C   0  0  2  0  0  0  0  0  0  0  0  0
   37.8356  -25.5714    4.3913 N   0  0  0  0  0  0  0  0  0  0  0  0
   36.6711  -25.4242    6.5167 C   0  0  0  0  0  0  0  0  0  0  0  0
   35.5379  -25.4570    6.0123 O   0  0  0  0  0  0  0  0  0  0  0  0
   35.1566  -27.1973   10.7562 O   0  0  0  0  0  0  0  0  0  0  0  0
   36.2598  -26.8775    9.9753 C   0  0  0  0  0  0  0  0  0  0  0  0
   35.7626  -26.1707    8.7417 C   0  0  2  0  0  0  0  0  0  0  0  0
   36.8440  -25.8155    7.8501 N   0  0  0  0  0  0  0  0  0  0  0  0
   34.9855  -24.9397    9.0352 C   0  0  0  0  0  0  0  0  0  0  0  0
   35.6721  -23.8521    9.0619 O   0  0  0  0  0  0  0  0  0  0  0  0
   33.6062  -24.9230    9.2702 N   0  0  0  0  0  0  0  0  0  0  0  0
   32.9411  -23.6611    9.6644 C   0  0  1  0  0  0  0  0  0  0  0  0
   32.4991  -23.0470    8.3964 C   0  0  0  0  0  0  0  0  0  0  0  0
   31.6288  -21.8841    8.4392 C   0  0  0  0  0  0  0  0  0  0  0  0
   31.1328  -21.0648    9.3971 C   0  0  0  0  0  0  0  0  0  0  0  0
   30.3787  -20.0824    8.8605 N   0  0  0  0  0  0  0  0  0  0  0  0
   30.4122  -20.3017    7.5406 C   0  0  0  0  0  0  0  0  0  0  0  0
   31.1438  -21.3602    7.2608 N   0  0  0  0  0  0  0  0  0  0  0  0
   31.8336  -24.0197   10.5882 C   0  0  0  0  0  0  0  0  0  0  0  0
   31.4552  -25.1550   10.9132 O   0  0  0  0  0  0  0  0  0  0  0  0
   31.1199  -22.9605   11.1716 O   0  0  0  0  0  0  0  0  0  0  0  0
  2  1  1  1
  2  3  1  0
  4  2  1  0
  4  5  1  6
  6 11  1  0
  6  4  1  0
  7  6  2  0
  8  9  1  0
 10  9  1  1
 10 11  1  0
 10 12  1  0
 12 14  1  0
 13 12  2  0
 14 15  1  0
 15 16  1  6
 15 22  1  0
 17 21  1  0
 17 16  1  0
 18 17  2  0
 19 18  1  0
 19 20  1  0
 20 21  2  0
 22 24  1  0
 23 22  2  0
M  END
$$$$
