TSH.pdb
     RDKit          3D

 24 24  0  0  1  0  0  0  0  0999 V2000
   18.4799  -12.0695  -19.3891 C   0  0  0  0  0  0  0  0  0  0  0  0
   19.8753  -11.7715  -19.8823 C   0  0  1  0  0  0  0  0  0  0  0  0
   19.9308  -10.4538  -20.2690 O   0  0  0  0  0  0  0  0  0  0  0  0
   20.8424  -12.1066  -18.7714 C   0  0  2  0  0  0  0  0  0  0  0  0
   20.8387  -13.5158  -18.4650 N   0  0  0  0  0  0  0  0  0  0  0  0
   20.6436  -11.2648  -17.5761 C   0  0  0  0  0  0  0  0  0  0  0  0
   19.7835  -11.5825  -16.7400 O   0  0  0  0  0  0  0  0  0  0  0  0
   22.1594   -8.5601  -14.1721 O   0  0  0  0  0  0  0  0  0  0  0  0
   22.3771   -9.4369  -15.2271 C   0  0  0  0  0  0  0  0  0  0  0  0
   21.2737   -9.2329  -16.2317 C   0  0  2  0  0  0  0  0  0  0  0  0
   21.4117  -10.1120  -17.3713 N   0  0  0  0  0  0  0  0  0  0  0  0
   21.1792   -7.8389  -16.7351 C   0  0  0  0  0  0  0  0  0  0  0  0
   21.9989   -7.5417  -17.6810 O   0  0  0  0  0  0  0  0  0  0  0  0
   20.2771   -6.8893  -16.2430 N   0  0  0  0  0  0  0  0  0  0  0  0
   20.2236   -5.5403  -16.8493 C   0  0  1  0  0  0  0  0  0  0  0  0
   18.8554   -5.0530  -16.5831 C   0  0  0  0  0  0  0  0  0  0  0  0
   18.5096   -3.6867  -16.9369 C   0  0  0  0  0  0  0  0  0  0  0  0
   19.0845   -2.4663  -16.8145 C   0  0  0  0  0  0  0  0  0  0  0  0
   18.3181   -1.5047  -17.3709 N   0  0  0  0  0  0  0  0  0  0  0  0
   17.2462   -2.1488  -17.8481 C   0  0  0  0  0  0  0  0  0  0  0  0
   17.3311   -3.4405  -17.6067 N   0  0  0  0  0  0  0  0  0  0  0  0
   21.2950   -4.7309  -16.2124 C   0  0  0  0  0  0  0  0  0  0  0  0
   21.7520   -4.8467  -15.0655 O   0  0  0  0  0  0  0  0  0  0  0  0
   21.8696   -3.7096  -16.9860 O   0  0  0  0  0  0  0  0  0  0  0  0
  2  1  1  1
  2  3  1  0
  4  2  1  0
  4  5  1  1
  6 11  1  0
  6  4  1  0
  7  6  2  0
  8  9  1  0
 10  9  1  1
 10 11  1  0
 10 12  1  0
 12 14  1  0
 13 12  2  0
 14 15  1  0
 15 16  1  1
 15 22  1  0
 17 21  1  0
 17 16  1  0
 18 17  2  0
 19 18  1  0
 19 20  1  0
 20 21  2  0
 22 24  1  0
 23 22  2  0
M  END
$$$$
