TSH.pdb
     RDKit          3D

 24 24  0  0  1  0  0  0  0  0999 V2000
   29.4099  -33.6462  -18.2925 C   0  0  0  0  0  0  0  0  0  0  0  0
   28.4550  -33.6388  -17.1232 C   0  0  1  0  0  0  0  0  0  0  0  0
   28.3403  -34.9216  -16.6435 O   0  0  0  0  0  0  0  0  0  0  0  0
   28.9845  -32.6652  -16.0968 C   0  0  2  0  0  0  0  0  0  0  0  0
   28.1564  -32.6283  -14.9165 N   0  0  0  0  0  0  0  0  0  0  0  0
   29.2274  -31.3244  -16.6625 C   0  0  0  0  0  0  0  0  0  0  0  0
   28.3030  -30.4973  -16.6953 O   0  0  0  0  0  0  0  0  0  0  0  0
   32.9979  -30.3325  -17.1458 O   0  0  0  0  0  0  0  0  0  0  0  0
   32.2775  -29.5572  -18.0453 C   0  0  0  0  0  0  0  0  0  0  0  0
   30.8198  -29.6636  -17.6820 C   0  0  2  0  0  0  0  0  0  0  0  0
   30.4866  -30.9715  -17.1632 N   0  0  0  0  0  0  0  0  0  0  0  0
   29.9030  -29.3704  -18.8130 C   0  0  0  0  0  0  0  0  0  0  0  0
   29.2218  -30.3747  -19.2401 O   0  0  0  0  0  0  0  0  0  0  0  0
   29.7616  -28.1071  -19.3977 N   0  0  0  0  0  0  0  0  0  0  0  0
   28.7499  -27.8943  -20.4566 C   0  0  1  0  0  0  0  0  0  0  0  0
   27.4477  -28.0957  -19.7904 C   0  0  0  0  0  0  0  0  0  0  0  0
   26.2266  -27.7927  -20.5176 C   0  0  0  0  0  0  0  0  0  0  0  0
   25.9046  -27.4009  -21.7736 C   0  0  0  0  0  0  0  0  0  0  0  0
   24.5675  -27.3015  -21.9290 N   0  0  0  0  0  0  0  0  0  0  0  0
   24.0543  -27.6411  -20.7404 C   0  0  0  0  0  0  0  0  0  0  0  0
   25.0110  -27.9370  -19.8854 N   0  0  0  0  0  0  0  0  0  0  0  0
   28.9571  -26.5232  -20.9912 C   0  0  0  0  0  0  0  0  0  0  0  0
   28.9503  -26.1634  -22.1779 O   0  0  0  0  0  0  0  0  0  0  0  0
   29.1894  -25.5013  -20.0567 O   0  0  0  0  0  0  0  0  0  0  0  0
  2  1  1  6
  2  3  1  0
  4  2  1  0
  4  5  1  1
  6 11  1  0
  6  4  1  0
  7  6  2  0
  8  9  1  0
 10  9  1  6
 10 11  1  0
 10 12  1  0
 12 14  1  0
 13 12  2  0
 14 15  1  0
 15 16  1  1
 15 22  1  0
 17 21  1  0
 17 16  1  0
 18 17  2  0
 19 18  1  0
 19 20  1  0
 20 21  2  0
 22 24  1  0
 23 22  2  0
M  END
$$$$
