TSH.pdb
     RDKit          3D

 24 24  0  0  1  0  0  0  0  0999 V2000
   30.3028  -25.9196  -19.2586 C   0  0  0  0  0  0  0  0  0  0  0  0
   30.3058  -24.5810  -18.5607 C   0  0  1  0  0  0  0  0  0  0  0  0
   30.5224  -23.5992  -19.4977 O   0  0  0  0  0  0  0  0  0  0  0  0
   28.9888  -24.4315  -17.8362 C   0  0  2  0  0  0  0  0  0  0  0  0
   28.8395  -23.1169  -17.2622 N   0  0  0  0  0  0  0  0  0  0  0  0
   28.7581  -25.5092  -16.8553 C   0  0  0  0  0  0  0  0  0  0  0  0
   28.6527  -25.2286  -15.6512 O   0  0  0  0  0  0  0  0  0  0  0  0
   25.8014  -28.3802  -16.8462 O   0  0  0  0  0  0  0  0  0  0  0  0
   26.6399  -27.5751  -16.0861 C   0  0  0  0  0  0  0  0  0  0  0  0
   28.0604  -27.8962  -16.4698 C   0  0  2  0  0  0  0  0  0  0  0  0
   28.6562  -26.8448  -17.2636 N   0  0  0  0  0  0  0  0  0  0  0  0
   28.1997  -29.1719  -17.2174 C   0  0  0  0  0  0  0  0  0  0  0  0
   27.9309  -29.1024  -18.4735 O   0  0  0  0  0  0  0  0  0  0  0  0
   28.5929  -30.3813  -16.6339 N   0  0  0  0  0  0  0  0  0  0  0  0
   28.7212  -31.5955  -17.4702 C   0  0  1  0  0  0  0  0  0  0  0  0
   29.6624  -32.4678  -16.7398 C   0  0  0  0  0  0  0  0  0  0  0  0
   31.0906  -32.2334  -16.8699 C   0  0  0  0  0  0  0  0  0  0  0  0
   31.8879  -31.4138  -17.5960 C   0  0  0  0  0  0  0  0  0  0  0  0
   33.1890  -31.5919  -17.2840 N   0  0  0  0  0  0  0  0  0  0  0  0
   33.1924  -32.5433  -16.3427 C   0  0  0  0  0  0  0  0  0  0  0  0
   31.9660  -32.9423  -16.0765 N   0  0  0  0  0  0  0  0  0  0  0  0
   27.3576  -32.1649  -17.6280 C   0  0  0  0  0  0  0  0  0  0  0  0
   26.3344  -31.8683  -16.9934 O   0  0  0  0  0  0  0  0  0  0  0  0
   27.1889  -33.1573  -18.6069 O   0  0  0  0  0  0  0  0  0  0  0  0
  2  1  1  6
  2  3  1  0
  4  2  1  0
  4  5  1  1
  6 11  1  0
  6  4  1  0
  7  6  2  0
  8  9  1  0
 10  9  1  6
 10 11  1  0
 10 12  1  0
 12 14  1  0
 13 12  2  0
 14 15  1  0
 15 16  1  1
 15 22  1  0
 17 21  1  0
 17 16  1  0
 18 17  2  0
 19 18  1  0
 19 20  1  0
 20 21  2  0
 22 24  1  0
 23 22  2  0
M  END
$$$$
