TSH.pdb
     RDKit          3D

 24 24  0  0  1  0  0  0  0  0999 V2000
   26.9281  -11.6423  -15.5047 C   0  0  0  0  0  0  0  0  0  0  0  0
   25.9750  -10.5158  -15.8237 C   0  0  1  0  0  0  0  0  0  0  0  0
   26.5422   -9.7237  -16.7930 O   0  0  0  0  0  0  0  0  0  0  0  0
   24.6599  -11.1258  -16.2484 C   0  0  2  0  0  0  0  0  0  0  0  0
   24.8226  -12.0266  -17.3629 N   0  0  0  0  0  0  0  0  0  0  0  0
   23.6167  -10.1101  -16.4864 C   0  0  0  0  0  0  0  0  0  0  0  0
   23.5187   -9.5841  -17.6060 O   0  0  0  0  0  0  0  0  0  0  0  0
   20.7335   -9.4924  -13.6043 O   0  0  0  0  0  0  0  0  0  0  0  0
   20.4046   -9.2187  -14.9257 C   0  0  0  0  0  0  0  0  0  0  0  0
   21.6598   -8.7782  -15.6319 C   0  0  2  0  0  0  0  0  0  0  0  0
   22.7349   -9.7309  -15.4668 N   0  0  0  0  0  0  0  0  0  0  0  0
   22.1527   -7.4479  -15.1927 C   0  0  0  0  0  0  0  0  0  0  0  0
   23.0543   -7.4737  -14.2754 O   0  0  0  0  0  0  0  0  0  0  0  0
   21.6953   -6.2331  -15.7149 N   0  0  0  0  0  0  0  0  0  0  0  0
   22.1945   -4.9566  -15.1567 C   0  0  1  0  0  0  0  0  0  0  0  0
   22.6075   -4.1596  -16.3291 C   0  0  0  0  0  0  0  0  0  0  0  0
   23.8319   -4.5116  -17.0282 C   0  0  0  0  0  0  0  0  0  0  0  0
   24.9953   -5.1315  -16.7171 C   0  0  0  0  0  0  0  0  0  0  0  0
   25.8018   -5.2311  -17.7949 N   0  0  0  0  0  0  0  0  0  0  0  0
   25.1178   -4.6595  -18.7933 C   0  0  0  0  0  0  0  0  0  0  0  0
   23.9490   -4.2247  -18.3706 N   0  0  0  0  0  0  0  0  0  0  0  0
   21.0839   -4.3578  -14.3715 C   0  0  0  0  0  0  0  0  0  0  0  0
   19.9102   -4.7510  -14.2972 O   0  0  0  0  0  0  0  0  0  0  0  0
   21.3802   -3.2104  -13.6182 O   0  0  0  0  0  0  0  0  0  0  0  0
  2  1  1  6
  2  3  1  0
  4  2  1  0
  4  5  1  6
  6 11  1  0
  6  4  1  0
  7  6  2  0
  8  9  1  0
 10  9  1  1
 10 11  1  0
 10 12  1  0
 12 14  1  0
 13 12  2  0
 14 15  1  0
 15 16  1  6
 15 22  1  0
 17 21  1  0
 17 16  1  0
 18 17  2  0
 19 18  1  0
 19 20  1  0
 20 21  2  0
 22 24  1  0
 23 22  2  0
M  END
$$$$
