TSH.pdb
     RDKit          3D

 24 24  0  0  1  0  0  0  0  0999 V2000
   20.0185  -12.1463  -20.0874 C   0  0  0  0  0  0  0  0  0  0  0  0
   20.2552  -11.2383  -18.9048 C   0  0  1  0  0  0  0  0  0  0  0  0
   19.0667  -10.6336  -18.5724 O   0  0  0  0  0  0  0  0  0  0  0  0
   20.8311  -12.0734  -17.7855 C   0  0  2  0  0  0  0  0  0  0  0  0
   19.9887  -13.2008  -17.4705 N   0  0  0  0  0  0  0  0  0  0  0  0
   21.1704  -11.2681  -16.5968 C   0  0  0  0  0  0  0  0  0  0  0  0
   20.2609  -10.8154  -15.8843 O   0  0  0  0  0  0  0  0  0  0  0  0
   25.1459  -10.2062  -15.8612 O   0  0  0  0  0  0  0  0  0  0  0  0
   24.3477  -10.4506  -14.7512 C   0  0  0  0  0  0  0  0  0  0  0  0
   22.9178  -10.1868  -15.1440 C   0  0  2  0  0  0  0  0  0  0  0  0
   22.5045  -11.0071  -16.2606 N   0  0  0  0  0  0  0  0  0  0  0  0
   22.6494   -8.7681  -15.4914 C   0  0  0  0  0  0  0  0  0  0  0  0
   22.8075   -8.4690  -16.7326 O   0  0  0  0  0  0  0  0  0  0  0  0
   22.2511   -7.7980  -14.5650 N   0  0  0  0  0  0  0  0  0  0  0  0
   22.1194   -6.3858  -14.9875 C   0  0  1  0  0  0  0  0  0  0  0  0
   20.7520   -6.2737  -15.5333 C   0  0  0  0  0  0  0  0  0  0  0  0
   20.2408   -4.9630  -15.8973 C   0  0  0  0  0  0  0  0  0  0  0  0
   20.7202   -3.8631  -16.5259 C   0  0  0  0  0  0  0  0  0  0  0  0
   19.7727   -2.9081  -16.6351 N   0  0  0  0  0  0  0  0  0  0  0  0
   18.6837   -3.4332  -16.0608 C   0  0  0  0  0  0  0  0  0  0  0  0
   18.9296   -4.6477  -15.6152 N   0  0  0  0  0  0  0  0  0  0  0  0
   22.3693   -5.5446  -13.7881 C   0  0  0  0  0  0  0  0  0  0  0  0
   22.5416   -5.9226  -12.6198 O   0  0  0  0  0  0  0  0  0  0  0  0
   22.4197   -4.1548  -13.9817 O   0  0  0  0  0  0  0  0  0  0  0  0
  2  1  1  6
  2  3  1  0
  4  2  1  0
  4  5  1  1
  6 11  1  0
  6  4  1  0
  7  6  2  0
  8  9  1  0
 10  9  1  6
 10 11  1  0
 10 12  1  0
 12 14  1  0
 13 12  2  0
 14 15  1  0
 15 16  1  1
 15 22  1  0
 17 21  1  0
 17 16  1  0
 18 17  2  0
 19 18  1  0
 19 20  1  0
 20 21  2  0
 22 24  1  0
 23 22  2  0
M  END
$$$$
