PHW.pdb
     RDKit          3D

 32 35  0  0  1  0  0  0  0  0999 V2000
    7.8980  -20.5102   21.9656 N   0  0  0  0  0  0  0  0  0  0  0  0
    7.6054  -21.9229   21.6928 C   0  0  0  0  0  0  0  0  0  0  0  0
    8.1310  -22.2021   20.3077 C   0  0  0  0  0  0  0  0  0  0  0  0
    8.7548  -20.8706   19.8704 C   0  0  0  0  0  0  0  0  0  0  0  0
    9.0984  -20.2744   21.2177 C   0  0  1  0  0  0  0  0  0  0  0  0
    9.4175  -18.8364   21.0827 C   0  0  0  0  0  0  0  0  0  0  0  0
   10.5814  -18.4030   20.9036 O   0  0  0  0  0  0  0  0  0  0  0  0
    8.4044  -17.8211   21.1475 N   0  0  0  0  0  0  0  0  0  0  0  0
    8.6178  -16.4549   20.8521 C   0  0  1  0  0  0  0  0  0  0  0  0
    7.6792  -15.7590   19.9661 C   0  0  0  0  0  0  0  0  0  0  0  0
    7.9644  -14.3759   19.6051 C   0  0  0  0  0  0  0  0  0  0  0  0
    7.5416  -13.1630   20.0720 C   0  0  0  0  0  0  0  0  0  0  0  0
    8.1394  -12.1794   19.3878 N   0  0  0  0  0  0  0  0  0  0  0  0
    8.9407  -12.7406   18.4881 C   0  0  0  0  0  0  0  0  0  0  0  0
    8.8483  -14.0715   18.6046 N   0  0  0  0  0  0  0  0  0  0  0  0
    8.8230  -15.7323   22.1566 C   0  0  0  0  0  0  0  0  0  0  0  0
    8.7116  -14.4774   22.2321 O   0  0  0  0  0  0  0  0  0  0  0  0
    9.1487  -16.3978   23.3640 N   0  0  0  0  0  0  0  0  0  0  0  0
   10.0742  -15.8651   24.3515 C   0  0  1  0  0  0  0  0  0  0  0  0
    9.6291  -14.5519   24.8994 C   0  0  0  0  0  0  0  0  0  0  0  0
    8.2178  -14.5361   25.3456 C   0  0  0  0  0  0  0  0  0  0  0  0
    7.2916  -15.5517   25.2099 C   0  0  0  0  0  0  0  0  0  0  0  0
    6.1343  -15.1299   25.7483 N   0  0  0  0  0  0  0  0  0  0  0  0
    6.2404  -13.8880   26.2350 C   0  0  0  0  0  0  0  0  0  0  0  0
    5.3340  -13.0606   26.8627 C   0  0  0  0  0  0  0  0  0  0  0  0
    5.7544  -11.8082   27.2536 C   0  0  0  0  0  0  0  0  0  0  0  0
    7.0438  -11.4033   27.0203 C   0  0  0  0  0  0  0  0  0  0  0  0
    7.9444  -12.2575   26.3833 C   0  0  0  0  0  0  0  0  0  0  0  0
    7.5499  -13.5022   25.9874 C   0  0  0  0  0  0  0  0  0  0  0  0
   10.2305  -16.8092   25.4978 C   0  0  0  0  0  0  0  0  0  0  0  0
    9.5253  -17.8440   25.5378 O   0  0  0  0  0  0  0  0  0  0  0  0
   11.1327  -16.5747   26.5179 O   0  0  0  0  0  0  0  0  0  0  0  0
  1  2  1  0
  3  2  1  0
  4  3  1  0
  5  4  1  0
  5  1  1  0
  6  7  2  0
  5  6  1  6
  8  6  1  0
  9  8  1  0
 10 11  1  0
  9 10  1  1
 11 15  1  0
 12 11  2  0
 12 13  1  0
 13 14  1  0
 15 14  2  0
 16 18  1  0
 16  9  1  0
 17 16  2  0
 19 18  1  0
 19 30  1  0
 19 20  1  1
 21 22  2  0
 21 20  1  0
 23 22  1  0
 24 29  2  0
 24 23  1  0
 25 24  1  0
 26 27  1  0
 26 25  2  0
 27 28  2  0
 28 29  1  0
 29 21  1  0
 30 32  1  0
 31 30  2  0
M  END
$$$$
