PHW.pdb
     RDKit          3D

 32 35  0  0  1  0  0  0  0  0999 V2000
    9.0211  -14.5127   18.6937 N   0  0  0  0  0  0  0  0  0  0  0  0
    8.7877  -13.4922   17.6643 C   0  0  0  0  0  0  0  0  0  0  0  0
    7.7028  -12.5933   18.2005 C   0  0  0  0  0  0  0  0  0  0  0  0
    7.3959  -13.1673   19.5895 C   0  0  0  0  0  0  0  0  0  0  0  0
    8.7210  -13.8215   19.9136 C   0  0  1  0  0  0  0  0  0  0  0  0
    8.5807  -14.7328   21.0702 C   0  0  0  0  0  0  0  0  0  0  0  0
    8.1908  -14.3548   22.2015 O   0  0  0  0  0  0  0  0  0  0  0  0
    8.8843  -16.1330   20.9790 N   0  0  0  0  0  0  0  0  0  0  0  0
    8.6723  -17.0692   22.0173 C   0  0  1  0  0  0  0  0  0  0  0  0
    8.7640  -18.5019   21.7190 C   0  0  0  0  0  0  0  0  0  0  0  0
    9.6212  -18.9263   20.6191 C   0  0  0  0  0  0  0  0  0  0  0  0
   10.4423  -18.2720   19.7442 C   0  0  0  0  0  0  0  0  0  0  0  0
   11.0288  -19.1542   18.9251 N   0  0  0  0  0  0  0  0  0  0  0  0
   10.5980  -20.3662   19.2598 C   0  0  0  0  0  0  0  0  0  0  0  0
    9.7441  -20.2485   20.2846 N   0  0  0  0  0  0  0  0  0  0  0  0
    9.5389  -16.6656   23.1801 C   0  0  0  0  0  0  0  0  0  0  0  0
   10.6318  -16.0607   23.0003 O   0  0  0  0  0  0  0  0  0  0  0  0
    9.1940  -16.9320   24.5279 N   0  0  0  0  0  0  0  0  0  0  0  0
   10.0332  -16.5700   25.6594 C   0  0  1  0  0  0  0  0  0  0  0  0
    9.7177  -15.2138   26.1921 C   0  0  0  0  0  0  0  0  0  0  0  0
    8.2766  -14.8777   26.1598 C   0  0  0  0  0  0  0  0  0  0  0  0
    7.2287  -15.7357   25.8886 C   0  0  0  0  0  0  0  0  0  0  0  0
    6.0870  -15.0299   25.9633 N   0  0  0  0  0  0  0  0  0  0  0  0
    6.3187  -13.7481   26.2695 C   0  0  0  0  0  0  0  0  0  0  0  0
    5.4744  -12.6731   26.4476 C   0  0  0  0  0  0  0  0  0  0  0  0
    6.0291  -11.4518   26.7623 C   0  0  0  0  0  0  0  0  0  0  0  0
    7.3878  -11.3183   26.8931 C   0  0  0  0  0  0  0  0  0  0  0  0
    8.2235  -12.4201   26.7085 C   0  0  0  0  0  0  0  0  0  0  0  0
    7.6960  -13.6391   26.3962 C   0  0  0  0  0  0  0  0  0  0  0  0
    9.8719  -17.5484   26.7758 C   0  0  0  0  0  0  0  0  0  0  0  0
    8.9544  -18.3994   26.7149 O   0  0  0  0  0  0  0  0  0  0  0  0
   10.7072  -17.5430   27.8767 O   0  0  0  0  0  0  0  0  0  0  0  0
  1  2  1  0
  3  2  1  0
  4  3  1  0
  5  4  1  0
  5  1  1  0
  6  7  2  0
  5  6  1  1
  8  6  1  0
  9  8  1  0
 10 11  1  0
  9 10  1  6
 11 15  1  0
 12 11  2  0
 12 13  1  0
 13 14  1  0
 15 14  2  0
 16 18  1  0
 16  9  1  0
 17 16  2  0
 19 18  1  0
 19 30  1  0
 19 20  1  1
 21 22  2  0
 21 20  1  0
 23 22  1  0
 24 29  2  0
 24 23  1  0
 25 24  1  0
 26 27  1  0
 26 25  2  0
 27 28  2  0
 28 29  1  0
 29 21  1  0
 30 32  1  0
 31 30  2  0
M  END
$$$$
