PHW.pdb
     RDKit          3D

 32 35  0  0  1  0  0  0  0  0999 V2000
    9.1024  -14.7297   18.4206 N   0  0  0  0  0  0  0  0  0  0  0  0
    8.9076  -13.7156   17.3768 C   0  0  0  0  0  0  0  0  0  0  0  0
    7.7784  -12.8358   17.8497 C   0  0  0  0  0  0  0  0  0  0  0  0
    7.4058  -13.4127   19.2214 C   0  0  0  0  0  0  0  0  0  0  0  0
    8.7227  -14.0417   19.6200 C   0  0  1  0  0  0  0  0  0  0  0  0
    8.5355  -14.9531   20.7699 C   0  0  0  0  0  0  0  0  0  0  0  0
    8.1730  -14.5630   21.9061 O   0  0  0  0  0  0  0  0  0  0  0  0
    8.7578  -16.3677   20.6657 N   0  0  0  0  0  0  0  0  0  0  0  0
    8.6246  -17.2817   21.7363 C   0  0  1  0  0  0  0  0  0  0  0  0
    8.8154  -18.7134   21.4832 C   0  0  0  0  0  0  0  0  0  0  0  0
   10.1222  -19.1666   21.0234 C   0  0  0  0  0  0  0  0  0  0  0  0
   10.9667  -18.7788   20.0213 C   0  0  0  0  0  0  0  0  0  0  0  0
   12.0750  -19.5298   20.0450 N   0  0  0  0  0  0  0  0  0  0  0  0
   11.9570  -20.3947   21.0472 C   0  0  0  0  0  0  0  0  0  0  0  0
   10.7800  -20.1900   21.6522 N   0  0  0  0  0  0  0  0  0  0  0  0
    9.4726  -16.7792   22.8740 C   0  0  0  0  0  0  0  0  0  0  0  0
   10.5003  -16.0781   22.6617 O   0  0  0  0  0  0  0  0  0  0  0  0
    9.1810  -17.0533   24.2328 N   0  0  0  0  0  0  0  0  0  0  0  0
    9.9764  -16.5526   25.3428 C   0  0  1  0  0  0  0  0  0  0  0  0
    9.6678  -15.1311   25.6695 C   0  0  0  0  0  0  0  0  0  0  0  0
    8.2197  -14.8362   25.7531 C   0  0  0  0  0  0  0  0  0  0  0  0
    7.1783  -15.7222   25.5574 C   0  0  0  0  0  0  0  0  0  0  0  0
    6.0266  -15.0500   25.7275 N   0  0  0  0  0  0  0  0  0  0  0  0
    6.2455  -13.7640   26.0258 C   0  0  0  0  0  0  0  0  0  0  0  0
    5.3880  -12.7149   26.2788 C   0  0  0  0  0  0  0  0  0  0  0  0
    5.9312  -11.4803   26.5597 C   0  0  0  0  0  0  0  0  0  0  0  0
    7.2916  -11.3087   26.5849 C   0  0  0  0  0  0  0  0  0  0  0  0
    8.1409  -12.3848   26.3257 C   0  0  0  0  0  0  0  0  0  0  0  0
    7.6250  -13.6164   26.0451 C   0  0  0  0  0  0  0  0  0  0  0  0
    9.7431  -17.3653   26.5736 C   0  0  0  0  0  0  0  0  0  0  0  0
   10.4108  -17.1186   27.6046 O   0  0  0  0  0  0  0  0  0  0  0  0
    8.8098  -18.3837   26.6091 O   0  0  0  0  0  0  0  0  0  0  0  0
  1  2  1  0
  3  2  1  0
  4  3  1  0
  5  4  1  0
  5  1  1  0
  6  7  2  0
  5  6  1  1
  8  6  1  0
  9  8  1  0
 10 11  1  0
  9 10  1  6
 11 15  1  0
 12 11  2  0
 12 13  1  0
 13 14  1  0
 15 14  2  0
 16 18  1  0
 16  9  1  0
 17 16  2  0
 19 18  1  0
 19 30  1  0
 19 20  1  1
 21 22  2  0
 21 20  1  0
 23 22  1  0
 24 29  2  0
 24 23  1  0
 25 24  1  0
 26 27  1  0
 26 25  2  0
 27 28  2  0
 28 29  1  0
 29 21  1  0
 30 32  1  0
 31 30  2  0
M  END
$$$$
