PHW.pdb
     RDKit          3D

 32 35  0  0  1  0  0  0  0  0999 V2000
    9.0089  -14.6530   18.2676 N   0  0  0  0  0  0  0  0  0  0  0  0
    8.8751  -13.5885   17.2652 C   0  0  0  0  0  0  0  0  0  0  0  0
    7.8917  -12.5967   17.8326 C   0  0  0  0  0  0  0  0  0  0  0  0
    7.5362  -13.1708   19.2101 C   0  0  0  0  0  0  0  0  0  0  0  0
    8.7891  -13.9653   19.5064 C   0  0  1  0  0  0  0  0  0  0  0  0
    8.5632  -14.8860   20.6419 C   0  0  0  0  0  0  0  0  0  0  0  0
    8.2734  -14.4950   21.7985 O   0  0  0  0  0  0  0  0  0  0  0  0
    8.6605  -16.3113   20.4989 N   0  0  0  0  0  0  0  0  0  0  0  0
    8.4496  -17.2387   21.5452 C   0  0  1  0  0  0  0  0  0  0  0  0
    8.4160  -18.6716   21.2356 C   0  0  0  0  0  0  0  0  0  0  0  0
    8.2305  -19.6126   22.3332 C   0  0  0  0  0  0  0  0  0  0  0  0
    7.9676  -19.4796   23.6678 C   0  0  0  0  0  0  0  0  0  0  0  0
    7.8715  -20.6889   24.2346 N   0  0  0  0  0  0  0  0  0  0  0  0
    8.0680  -21.5981   23.2852 C   0  0  0  0  0  0  0  0  0  0  0  0
    8.2870  -20.9650   22.1258 N   0  0  0  0  0  0  0  0  0  0  0  0
    9.4185  -16.9099   22.6492 C   0  0  0  0  0  0  0  0  0  0  0  0
   10.6522  -16.7792   22.4173 O   0  0  0  0  0  0  0  0  0  0  0  0
    9.0200  -16.7284   23.9964 N   0  0  0  0  0  0  0  0  0  0  0  0
    9.9439  -16.4018   25.0713 C   0  0  1  0  0  0  0  0  0  0  0  0
    9.7081  -15.0404   25.6314 C   0  0  0  0  0  0  0  0  0  0  0  0
    8.2776  -14.6748   25.7354 C   0  0  0  0  0  0  0  0  0  0  0  0
    7.1941  -15.5286   25.6657 C   0  0  0  0  0  0  0  0  0  0  0  0
    6.0783  -14.7925   25.8077 N   0  0  0  0  0  0  0  0  0  0  0  0
    6.3608  -13.4944   25.9680 C   0  0  0  0  0  0  0  0  0  0  0  0
    5.5572  -12.3884   26.1445 C   0  0  0  0  0  0  0  0  0  0  0  0
    6.1607  -11.1575   26.2814 C   0  0  0  0  0  0  0  0  0  0  0  0
    7.5270  -11.0447   26.2419 C   0  0  0  0  0  0  0  0  0  0  0  0
    8.3210  -12.1778   26.0623 C   0  0  0  0  0  0  0  0  0  0  0  0
    7.7448  -13.4069   25.9245 C   0  0  0  0  0  0  0  0  0  0  0  0
    9.8260  -17.3831   26.1905 C   0  0  0  0  0  0  0  0  0  0  0  0
    8.8539  -18.1732   26.2109 O   0  0  0  0  0  0  0  0  0  0  0  0
   10.7603  -17.4460   27.2068 O   0  0  0  0  0  0  0  0  0  0  0  0
  1  2  1  0
  3  2  1  0
  4  3  1  0
  5  4  1  0
  5  1  1  0
  6  7  2  0
  5  6  1  1
  8  6  1  0
  9  8  1  0
 10 11  1  0
  9 10  1  6
 11 15  1  0
 12 11  2  0
 12 13  1  0
 13 14  1  0
 15 14  2  0
 16 18  1  0
 16  9  1  0
 17 16  2  0
 19 18  1  0
 19 30  1  0
 19 20  1  1
 21 22  2  0
 21 20  1  0
 23 22  1  0
 24 29  2  0
 24 23  1  0
 25 24  1  0
 26 27  1  0
 26 25  2  0
 27 28  2  0
 28 29  1  0
 29 21  1  0
 30 32  1  0
 31 30  2  0
M  END
$$$$
