PHW.pdb
     RDKit          3D

 32 35  0  0  1  0  0  0  0  0999 V2000
    8.9447  -13.7355   20.5480 N   0  0  0  0  0  0  0  0  0  0  0  0
    8.1741  -12.6881   19.8661 C   0  0  0  0  0  0  0  0  0  0  0  0
    6.8906  -13.3365   19.4135 C   0  0  0  0  0  0  0  0  0  0  0  0
    7.0012  -14.7786   19.9246 C   0  0  0  0  0  0  0  0  0  0  0  0
    7.9280  -14.5802   21.1037 C   0  0  1  0  0  0  0  0  0  0  0  0
    8.4551  -15.8798   21.5739 C   0  0  0  0  0  0  0  0  0  0  0  0
    7.7217  -16.8176   21.9705 O   0  0  0  0  0  0  0  0  0  0  0  0
    9.8619  -16.1642   21.6098 N   0  0  0  0  0  0  0  0  0  0  0  0
   10.4194  -17.4099   21.9794 C   0  0  1  0  0  0  0  0  0  0  0  0
   11.5368  -17.9533   21.2007 C   0  0  0  0  0  0  0  0  0  0  0  0
   11.4249  -17.9683   19.7475 C   0  0  0  0  0  0  0  0  0  0  0  0
   10.4062  -18.2243   18.8731 C   0  0  0  0  0  0  0  0  0  0  0  0
   10.8399  -18.0778   17.6148 N   0  0  0  0  0  0  0  0  0  0  0  0
   12.1220  -17.7311   17.6659 C   0  0  0  0  0  0  0  0  0  0  0  0
   12.4946  -17.6595   18.9502 N   0  0  0  0  0  0  0  0  0  0  0  0
   10.7156  -17.3581   23.4543 C   0  0  0  0  0  0  0  0  0  0  0  0
   11.4897  -18.1961   23.9942 O   0  0  0  0  0  0  0  0  0  0  0  0
   10.1572  -16.3853   24.3194 N   0  0  0  0  0  0  0  0  0  0  0  0
   10.3886  -16.3582   25.7551 C   0  0  1  0  0  0  0  0  0  0  0  0
    9.9888  -15.0613   26.3723 C   0  0  0  0  0  0  0  0  0  0  0  0
    8.5654  -14.7124   26.1645 C   0  0  0  0  0  0  0  0  0  0  0  0
    7.5384  -15.5737   25.8308 C   0  0  0  0  0  0  0  0  0  0  0  0
    6.4075  -14.8527   25.7404 N   0  0  0  0  0  0  0  0  0  0  0  0
    6.6264  -13.5576   25.9959 C   0  0  0  0  0  0  0  0  0  0  0  0
    5.7863  -12.4651   26.0192 C   0  0  0  0  0  0  0  0  0  0  0  0
    6.3244  -11.2333   26.3217 C   0  0  0  0  0  0  0  0  0  0  0  0
    7.6631  -11.1067   26.5914 C   0  0  0  0  0  0  0  0  0  0  0  0
    8.4951  -12.2263   26.5622 C   0  0  0  0  0  0  0  0  0  0  0  0
    7.9838  -13.4559   26.2650 C   0  0  0  0  0  0  0  0  0  0  0  0
    9.6241  -17.4441   26.4377 C   0  0  0  0  0  0  0  0  0  0  0  0
    8.7391  -18.0616   25.8012 O   0  0  0  0  0  0  0  0  0  0  0  0
    9.8651  -17.7892   27.7539 O   0  0  0  0  0  0  0  0  0  0  0  0
  1  2  1  0
  3  2  1  0
  4  3  1  0
  5  4  1  0
  5  1  1  0
  6  7  2  0
  5  6  1  6
  8  6  1  0
  9  8  1  0
 10 11  1  0
  9 10  1  6
 11 15  1  0
 12 11  2  0
 12 13  1  0
 13 14  1  0
 15 14  2  0
 16 18  1  0
 16  9  1  0
 17 16  2  0
 19 18  1  0
 19 30  1  0
 19 20  1  1
 21 22  2  0
 21 20  1  0
 23 22  1  0
 24 29  2  0
 24 23  1  0
 25 24  1  0
 26 27  1  0
 26 25  2  0
 27 28  2  0
 28 29  1  0
 29 21  1  0
 30 32  1  0
 31 30  2  0
M  END
$$$$
