PHW.pdb
     RDKit          3D

 32 35  0  0  1  0  0  0  0  0999 V2000
    9.2909  -13.9632   18.6354 N   0  0  0  0  0  0  0  0  0  0  0  0
    8.4728  -13.1867   17.6954 C   0  0  0  0  0  0  0  0  0  0  0  0
    7.0424  -13.5889   17.9501 C   0  0  0  0  0  0  0  0  0  0  0  0
    7.1380  -14.5950   19.1041 C   0  0  0  0  0  0  0  0  0  0  0  0
    8.4205  -14.1352   19.7618 C   0  0  1  0  0  0  0  0  0  0  0  0
    8.9097  -15.1553   20.7148 C   0  0  0  0  0  0  0  0  0  0  0  0
    8.2084  -15.6211   21.6452 O   0  0  0  0  0  0  0  0  0  0  0  0
   10.2392  -15.6922   20.6412 N   0  0  0  0  0  0  0  0  0  0  0  0
   10.7346  -16.7242   21.4711 C   0  0  1  0  0  0  0  0  0  0  0  0
   11.8534  -17.5467   20.9999 C   0  0  0  0  0  0  0  0  0  0  0  0
   11.7228  -18.2218   19.7147 C   0  0  0  0  0  0  0  0  0  0  0  0
   10.6626  -18.6661   18.9754 C   0  0  0  0  0  0  0  0  0  0  0  0
   11.1013  -19.2105   17.8335 N   0  0  0  0  0  0  0  0  0  0  0  0
   12.4276  -19.1231   17.8262 C   0  0  0  0  0  0  0  0  0  0  0  0
   12.8228  -18.5265   18.9581 N   0  0  0  0  0  0  0  0  0  0  0  0
   10.9862  -16.1342   22.8329 C   0  0  0  0  0  0  0  0  0  0  0  0
   11.6067  -15.0434   22.9669 O   0  0  0  0  0  0  0  0  0  0  0  0
   10.5526  -16.7503   24.0324 N   0  0  0  0  0  0  0  0  0  0  0  0
    9.6711  -16.1069   24.9939 C   0  0  1  0  0  0  0  0  0  0  0  0
    8.4197  -15.5948   24.3659 C   0  0  0  0  0  0  0  0  0  0  0  0
    7.5317  -14.8709   25.3031 C   0  0  0  0  0  0  0  0  0  0  0  0
    6.3872  -15.3552   25.9058 C   0  0  0  0  0  0  0  0  0  0  0  0
    5.8837  -14.3790   26.6809 N   0  0  0  0  0  0  0  0  0  0  0  0
    6.6315  -13.2707   26.6263 C   0  0  0  0  0  0  0  0  0  0  0  0
    6.5085  -12.0415   27.2378 C   0  0  0  0  0  0  0  0  0  0  0  0
    7.4606  -11.0817   26.9727 C   0  0  0  0  0  0  0  0  0  0  0  0
    8.5010  -11.3511   26.1207 C   0  0  0  0  0  0  0  0  0  0  0  0
    8.6058  -12.6024   25.5127 C   0  0  0  0  0  0  0  0  0  0  0  0
    7.6743  -13.5680   25.7606 C   0  0  0  0  0  0  0  0  0  0  0  0
    9.2824  -17.0572   26.0782 C   0  0  0  0  0  0  0  0  0  0  0  0
    8.9389  -18.2232   25.7748 O   0  0  0  0  0  0  0  0  0  0  0  0
    9.2911  -16.6876   27.4097 O   0  0  0  0  0  0  0  0  0  0  0  0
  1  2  1  0
  3  2  1  0
  4  3  1  0
  5  4  1  0
  5  1  1  0
  6  7  2  0
  5  6  1  1
  8  6  1  0
  9  8  1  0
 10 11  1  0
  9 10  1  6
 11 15  1  0
 12 11  2  0
 12 13  1  0
 13 14  1  0
 15 14  2  0
 16 18  1  0
 16  9  1  0
 17 16  2  0
 19 18  1  0
 19 30  1  0
 19 20  1  6
 21 22  2  0
 21 20  1  0
 23 22  1  0
 24 29  2  0
 24 23  1  0
 25 24  1  0
 26 27  1  0
 26 25  2  0
 27 28  2  0
 28 29  1  0
 29 21  1  0
 30 32  1  0
 31 30  2  0
M  END
$$$$
