PHW.pdb
     RDKit          3D

 32 35  0  0  1  0  0  0  0  0999 V2000
    8.8366  -14.8360   17.9143 N   0  0  0  0  0  0  0  0  0  0  0  0
    8.8625  -13.8352   16.8404 C   0  0  0  0  0  0  0  0  0  0  0  0
    8.0734  -12.6543   17.3459 C   0  0  0  0  0  0  0  0  0  0  0  0
    7.6566  -13.0643   18.7642 C   0  0  0  0  0  0  0  0  0  0  0  0
    8.7635  -14.0381   19.1034 C   0  0  1  0  0  0  0  0  0  0  0  0
    8.4105  -14.8274   20.3036 C   0  0  0  0  0  0  0  0  0  0  0  0
    8.2514  -14.3192   21.4398 O   0  0  0  0  0  0  0  0  0  0  0  0
    8.2218  -16.2498   20.2525 N   0  0  0  0  0  0  0  0  0  0  0  0
    7.9345  -17.0617   21.3739 C   0  0  1  0  0  0  0  0  0  0  0  0
    7.6932  -18.4946   21.1772 C   0  0  0  0  0  0  0  0  0  0  0  0
    7.4104  -19.3158   22.3478 C   0  0  0  0  0  0  0  0  0  0  0  0
    7.3141  -19.0637   23.6876 C   0  0  0  0  0  0  0  0  0  0  0  0
    7.0069  -20.1913   24.3411 N   0  0  0  0  0  0  0  0  0  0  0  0
    6.9035  -21.1651   23.4424 C   0  0  0  0  0  0  0  0  0  0  0  0
    7.1445  -20.6538   22.2284 N   0  0  0  0  0  0  0  0  0  0  0  0
    8.9878  -16.7919   22.4149 C   0  0  0  0  0  0  0  0  0  0  0  0
   10.2064  -16.6962   22.1008 O   0  0  0  0  0  0  0  0  0  0  0  0
    8.6893  -16.6302   23.7902 N   0  0  0  0  0  0  0  0  0  0  0  0
    9.6926  -16.3381   24.8020 C   0  0  1  0  0  0  0  0  0  0  0  0
    9.5881  -14.9450   25.3226 C   0  0  0  0  0  0  0  0  0  0  0  0
    8.2022  -14.5191   25.6208 C   0  0  0  0  0  0  0  0  0  0  0  0
    7.0699  -15.3100   25.6140 C   0  0  0  0  0  0  0  0  0  0  0  0
    6.0220  -14.5339   25.9409 N   0  0  0  0  0  0  0  0  0  0  0  0
    6.3961  -13.2688   26.1647 C   0  0  0  0  0  0  0  0  0  0  0  0
    5.6834  -12.1428   26.5172 C   0  0  0  0  0  0  0  0  0  0  0  0
    6.3693  -10.9583   26.6751 C   0  0  0  0  0  0  0  0  0  0  0  0
    7.7266  -10.9102   26.4845 C   0  0  0  0  0  0  0  0  0  0  0  0
    8.4278  -12.0624   26.1281 C   0  0  0  0  0  0  0  0  0  0  0  0
    7.7691  -13.2463   25.9661 C   0  0  0  0  0  0  0  0  0  0  0  0
    9.5657  -17.2701   25.9617 C   0  0  0  0  0  0  0  0  0  0  0  0
    8.5454  -17.9908   26.0578 O   0  0  0  0  0  0  0  0  0  0  0  0
   10.5431  -17.3616   26.9342 O   0  0  0  0  0  0  0  0  0  0  0  0
  1  2  1  0
  3  2  1  0
  4  3  1  0
  5  4  1  0
  5  1  1  0
  6  7  2  0
  5  6  1  1
  8  6  1  0
  9  8  1  0
 10 11  1  0
  9 10  1  6
 11 15  1  0
 12 11  2  0
 12 13  1  0
 13 14  1  0
 15 14  2  0
 16 18  1  0
 16  9  1  0
 17 16  2  0
 19 18  1  0
 19 30  1  0
 19 20  1  1
 21 22  2  0
 21 20  1  0
 23 22  1  0
 24 29  2  0
 24 23  1  0
 25 24  1  0
 26 27  1  0
 26 25  2  0
 27 28  2  0
 28 29  1  0
 29 21  1  0
 30 32  1  0
 31 30  2  0
M  END
$$$$
