PHW.pdb
     RDKit          3D

 32 35  0  0  1  0  0  0  0  0999 V2000
    9.2796  -14.2949   19.1903 N   0  0  0  0  0  0  0  0  0  0  0  0
    8.8995  -13.3365   18.1449 C   0  0  0  0  0  0  0  0  0  0  0  0
    7.4924  -12.9001   18.4650 C   0  0  0  0  0  0  0  0  0  0  0  0
    7.1555  -13.6493   19.7605 C   0  0  0  0  0  0  0  0  0  0  0  0
    8.5424  -13.8415   20.3335 C   0  0  1  0  0  0  0  0  0  0  0  0
    8.5177  -14.8330   21.4309 C   0  0  0  0  0  0  0  0  0  0  0  0
    7.7837  -14.7225   22.4426 O   0  0  0  0  0  0  0  0  0  0  0  0
    9.3425  -16.0081   21.4156 N   0  0  0  0  0  0  0  0  0  0  0  0
    9.3253  -17.0133   22.4098 C   0  0  1  0  0  0  0  0  0  0  0  0
    9.7587  -18.3705   22.0630 C   0  0  0  0  0  0  0  0  0  0  0  0
    9.1279  -19.0290   20.9259 C   0  0  0  0  0  0  0  0  0  0  0  0
    7.8322  -19.2461   20.5492 C   0  0  0  0  0  0  0  0  0  0  0  0
    7.8021  -19.8989   19.3805 N   0  0  0  0  0  0  0  0  0  0  0  0
    9.0585  -20.1049   18.9990 C   0  0  0  0  0  0  0  0  0  0  0  0
    9.8765  -19.5846   19.9228 N   0  0  0  0  0  0  0  0  0  0  0  0
   10.0388  -16.4715   23.6194 C   0  0  0  0  0  0  0  0  0  0  0  0
   11.1230  -15.8352   23.5070 O   0  0  0  0  0  0  0  0  0  0  0  0
    9.5523  -16.6355   24.9396 N   0  0  0  0  0  0  0  0  0  0  0  0
   10.3116  -16.2762   26.1270 C   0  0  1  0  0  0  0  0  0  0  0  0
    9.7976  -15.0378   26.7790 C   0  0  0  0  0  0  0  0  0  0  0  0
    8.4120  -14.6884   26.3932 C   0  0  0  0  0  0  0  0  0  0  0  0
    7.3928  -15.5634   26.0716 C   0  0  0  0  0  0  0  0  0  0  0  0
    6.2994  -14.8362   25.7839 N   0  0  0  0  0  0  0  0  0  0  0  0
    6.5361  -13.5240   25.8964 C   0  0  0  0  0  0  0  0  0  0  0  0
    5.7337  -12.4200   25.7028 C   0  0  0  0  0  0  0  0  0  0  0  0
    6.2816  -11.1714   25.9003 C   0  0  0  0  0  0  0  0  0  0  0  0
    7.5928  -11.0396   26.2800 C   0  0  0  0  0  0  0  0  0  0  0  0
    8.3867  -12.1710   26.4704 C   0  0  0  0  0  0  0  0  0  0  0  0
    7.8651  -13.4174   26.2803 C   0  0  0  0  0  0  0  0  0  0  0  0
   10.2709  -17.3750   27.1372 C   0  0  0  0  0  0  0  0  0  0  0  0
   10.9806  -17.2863   28.1658 O   0  0  0  0  0  0  0  0  0  0  0  0
    9.4709  -18.4895   26.9707 O   0  0  0  0  0  0  0  0  0  0  0  0
  1  2  1  0
  3  2  1  0
  4  3  1  0
  5  4  1  0
  5  1  1  0
  6  7  2  0
  5  6  1  1
  8  6  1  0
  9  8  1  0
 10 11  1  0
  9 10  1  6
 11 15  1  0
 12 11  2  0
 12 13  1  0
 13 14  1  0
 15 14  2  0
 16 18  1  0
 16  9  1  0
 17 16  2  0
 19 18  1  0
 19 30  1  0
 19 20  1  1
 21 22  2  0
 21 20  1  0
 23 22  1  0
 24 29  2  0
 24 23  1  0
 25 24  1  0
 26 27  1  0
 26 25  2  0
 27 28  2  0
 28 29  1  0
 29 21  1  0
 30 32  1  0
 31 30  2  0
M  END
$$$$
