PHW.pdb
     RDKit          3D

 32 35  0  0  1  0  0  0  0  0999 V2000
    7.9913  -14.5793   18.4922 N   0  0  0  0  0  0  0  0  0  0  0  0
    7.8850  -13.2659   17.8444 C   0  0  0  0  0  0  0  0  0  0  0  0
    7.5715  -12.2797   18.9407 C   0  0  0  0  0  0  0  0  0  0  0  0
    7.5538  -13.1327   20.2155 C   0  0  0  0  0  0  0  0  0  0  0  0
    8.4757  -14.2592   19.8032 C   0  0  1  0  0  0  0  0  0  0  0  0
    8.3659  -15.3918   20.7482 C   0  0  0  0  0  0  0  0  0  0  0  0
    7.2945  -16.0091   20.9619 O   0  0  0  0  0  0  0  0  0  0  0  0
    9.4926  -15.8718   21.4975 N   0  0  0  0  0  0  0  0  0  0  0  0
    9.4513  -16.9596   22.3999 C   0  0  1  0  0  0  0  0  0  0  0  0
   10.0168  -18.2496   21.9923 C   0  0  0  0  0  0  0  0  0  0  0  0
    9.8622  -19.3876   22.8900 C   0  0  0  0  0  0  0  0  0  0  0  0
    8.8000  -19.9509   23.5398 C   0  0  0  0  0  0  0  0  0  0  0  0
    9.2086  -21.0173   24.2388 N   0  0  0  0  0  0  0  0  0  0  0  0
   10.5174  -21.1493   24.0485 C   0  0  0  0  0  0  0  0  0  0  0  0
   10.9317  -20.1707   23.2337 N   0  0  0  0  0  0  0  0  0  0  0  0
    9.9986  -16.4806   23.7179 C   0  0  0  0  0  0  0  0  0  0  0  0
   11.0725  -15.8202   23.7772 O   0  0  0  0  0  0  0  0  0  0  0  0
    9.3588  -16.7333   24.9562 N   0  0  0  0  0  0  0  0  0  0  0  0
    9.9003  -16.3178   26.2406 C   0  0  1  0  0  0  0  0  0  0  0  0
    8.8489  -15.7982   27.1611 C   0  0  0  0  0  0  0  0  0  0  0  0
    7.7109  -15.1537   26.4679 C   0  0  0  0  0  0  0  0  0  0  0  0
    6.6489  -15.7845   25.8497 C   0  0  0  0  0  0  0  0  0  0  0  0
    5.8402  -14.8353   25.3475 N   0  0  0  0  0  0  0  0  0  0  0  0
    6.3070  -13.6065   25.5980 C   0  0  0  0  0  0  0  0  0  0  0  0
    5.8272  -12.3534   25.2826 C   0  0  0  0  0  0  0  0  0  0  0  0
    6.5530  -11.2548   25.6881 C   0  0  0  0  0  0  0  0  0  0  0  0
    7.7220  -11.4133   26.3876 C   0  0  0  0  0  0  0  0  0  0  0  0
    8.1889  -12.6914   26.6960 C   0  0  0  0  0  0  0  0  0  0  0  0
    7.4865  -13.7936   26.3043 C   0  0  0  0  0  0  0  0  0  0  0  0
   10.5832  -17.4567   26.9234 C   0  0  0  0  0  0  0  0  0  0  0  0
   11.2233  -17.2415   27.9787 O   0  0  0  0  0  0  0  0  0  0  0  0
   10.5294  -18.7443   26.4246 O   0  0  0  0  0  0  0  0  0  0  0  0
  1  2  1  0
  3  2  1  0
  4  3  1  0
  5  4  1  0
  5  1  1  0
  6  7  2  0
  5  6  1  1
  8  6  1  0
  9  8  1  0
 10 11  1  0
  9 10  1  6
 11 15  1  0
 12 11  2  0
 12 13  1  0
 13 14  1  0
 15 14  2  0
 16 18  1  0
 16  9  1  0
 17 16  2  0
 19 18  1  0
 19 30  1  0
 19 20  1  1
 21 22  2  0
 21 20  1  0
 23 22  1  0
 24 29  2  0
 24 23  1  0
 25 24  1  0
 26 27  1  0
 26 25  2  0
 27 28  2  0
 28 29  1  0
 29 21  1  0
 30 32  1  0
 31 30  2  0
M  END
$$$$
