PHW.pdb
     RDKit          3D

 32 35  0  0  1  0  0  0  0  0999 V2000
    8.9330  -14.4810   18.7884 N   0  0  0  0  0  0  0  0  0  0  0  0
    8.6005  -13.4548   17.7923 C   0  0  0  0  0  0  0  0  0  0  0  0
    7.4881  -12.6318   18.3905 C   0  0  0  0  0  0  0  0  0  0  0  0
    7.2705  -13.2511   19.7770 C   0  0  0  0  0  0  0  0  0  0  0  0
    8.6428  -13.8336   20.0344 C   0  0  1  0  0  0  0  0  0  0  0  0
    8.6014  -14.7750   21.1745 C   0  0  0  0  0  0  0  0  0  0  0  0
    8.2761  -14.4343   22.3376 O   0  0  0  0  0  0  0  0  0  0  0  0
    8.9346  -16.1639   21.0291 N   0  0  0  0  0  0  0  0  0  0  0  0
    8.8148  -17.1294   22.0552 C   0  0  1  0  0  0  0  0  0  0  0  0
    9.0032  -18.5467   21.7299 C   0  0  0  0  0  0  0  0  0  0  0  0
    8.8892  -19.5245   22.8049 C   0  0  0  0  0  0  0  0  0  0  0  0
    9.7888  -20.2701   23.5139 C   0  0  0  0  0  0  0  0  0  0  0  0
    9.1463  -21.0127   24.4241 N   0  0  0  0  0  0  0  0  0  0  0  0
    7.8469  -20.7561   24.3122 C   0  0  0  0  0  0  0  0  0  0  0  0
    7.6714  -19.8563   23.3361 N   0  0  0  0  0  0  0  0  0  0  0  0
    9.6763  -16.6823   23.2057 C   0  0  0  0  0  0  0  0  0  0  0  0
   10.8478  -16.2531   23.0155 O   0  0  0  0  0  0  0  0  0  0  0  0
    9.2399  -16.7121   24.5531 N   0  0  0  0  0  0  0  0  0  0  0  0
   10.0954  -16.3848   25.6829 C   0  0  1  0  0  0  0  0  0  0  0  0
    9.6495  -15.1547   26.3977 C   0  0  0  0  0  0  0  0  0  0  0  0
    8.2559  -14.7580   26.0954 C   0  0  0  0  0  0  0  0  0  0  0  0
    7.2106  -15.5918   25.7493 C   0  0  0  0  0  0  0  0  0  0  0  0
    6.1191  -14.8299   25.5617 N   0  0  0  0  0  0  0  0  0  0  0  0
    6.3817  -13.5335   25.7643 C   0  0  0  0  0  0  0  0  0  0  0  0
    5.5909  -12.4071   25.6875 C   0  0  0  0  0  0  0  0  0  0  0  0
    6.1666  -11.1849   25.9575 C   0  0  0  0  0  0  0  0  0  0  0  0
    7.4937  -11.1005   26.2933 C   0  0  0  0  0  0  0  0  0  0  0  0
    8.2754  -12.2538   26.3650 C   0  0  0  0  0  0  0  0  0  0  0  0
    7.7263  -13.4748   26.1017 C   0  0  0  0  0  0  0  0  0  0  0  0
   10.1221  -17.5035   26.6715 C   0  0  0  0  0  0  0  0  0  0  0  0
   10.9439  -17.4646   27.6164 O   0  0  0  0  0  0  0  0  0  0  0  0
    9.2646  -18.5828   26.5750 O   0  0  0  0  0  0  0  0  0  0  0  0
  1  2  1  0
  3  2  1  0
  4  3  1  0
  5  4  1  0
  5  1  1  0
  6  7  2  0
  5  6  1  1
  8  6  1  0
  9  8  1  0
 10 11  1  0
  9 10  1  6
 11 15  1  0
 12 11  2  0
 12 13  1  0
 13 14  1  0
 15 14  2  0
 16 18  1  0
 16  9  1  0
 17 16  2  0
 19 18  1  0
 19 30  1  0
 19 20  1  1
 21 22  2  0
 21 20  1  0
 23 22  1  0
 24 29  2  0
 24 23  1  0
 25 24  1  0
 26 27  1  0
 26 25  2  0
 27 28  2  0
 28 29  1  0
 29 21  1  0
 30 32  1  0
 31 30  2  0
M  END
$$$$
