TIF.pdb
     RDKit          3D

 27 27  0  0  1  0  0  0  0  0999 V2000
   13.7454  -17.7763   19.6280 C   0  0  0  0  0  0  0  0  0  0  0  0
   12.7754  -17.3427   20.6840 C   0  0  1  0  0  0  0  0  0  0  0  0
   13.3495  -17.6592   21.9305 O   0  0  0  0  0  0  0  0  0  0  0  0
   12.5252  -15.8593   20.6903 C   0  0  2  0  0  0  0  0  0  0  0  0
   13.7996  -15.2055   20.9074 N   0  0  0  0  0  0  0  0  0  0  0  0
   11.5781  -15.4166   21.7031 C   0  0  0  0  0  0  0  0  0  0  0  0
   11.9079  -14.9403   22.8205 O   0  0  0  0  0  0  0  0  0  0  0  0
    7.0925  -12.7391   20.0099 C   0  0  0  0  0  0  0  0  0  0  0  0
    8.2598  -13.2896   20.7470 C   0  0  0  0  0  0  0  0  0  0  0  0
    7.9885  -14.3819   21.7111 C   0  0  2  0  0  0  0  0  0  0  0  0
    7.0118  -13.9841   22.8017 C   0  0  0  0  0  0  0  0  0  0  0  0
    9.1779  -15.0127   22.3724 C   0  0  2  0  0  0  0  0  0  0  0  0
   10.1785  -15.5104   21.4555 N   0  0  0  0  0  0  0  0  0  0  0  0
    8.7915  -16.0719   23.3647 C   0  0  0  0  0  0  0  0  0  0  0  0
    8.9291  -17.2977   23.0837 O   0  0  0  0  0  0  0  0  0  0  0  0
    8.2657  -15.7454   24.6359 N   0  0  0  0  0  0  0  0  0  0  0  0
    7.9466  -16.7487   25.6596 C   0  0  1  0  0  0  0  0  0  0  0  0
    7.5265  -16.1149   26.9313 C   0  0  0  0  0  0  0  0  0  0  0  0
    8.5255  -15.1644   27.4208 C   0  0  0  0  0  0  0  0  0  0  0  0
    8.4329  -13.8170   27.1794 C   0  0  0  0  0  0  0  0  0  0  0  0
    9.3983  -12.9237   27.6583 C   0  0  0  0  0  0  0  0  0  0  0  0
   10.4561  -13.4037   28.3820 C   0  0  0  0  0  0  0  0  0  0  0  0
   10.5713  -14.7444   28.6365 C   0  0  0  0  0  0  0  0  0  0  0  0
    9.6002  -15.6189   28.1515 C   0  0  0  0  0  0  0  0  0  0  0  0
    6.9541  -17.7121   25.1641 C   0  0  0  0  0  0  0  0  0  0  0  0
    6.8555  -18.9554   25.7598 O   0  0  0  0  0  0  0  0  0  0  0  0
    6.1983  -17.4326   24.2184 O   0  0  0  0  0  0  0  0  0  0  0  0
  2  3  1  0
  2  1  1  6
  4  5  1  1
  4  2  1  0
  6  4  1  0
  7  6  2  0
  9  8  1  0
 10  9  1  0
 10 11  1  1
 12 10  1  0
 12 13  1  6
 13  6  1  0
 14 12  1  0
 15 14  2  0
 16 14  1  0
 17 16  1  0
 17 18  1  1
 18 19  1  0
 19 20  2  0
 20 21  1  0
 22 21  2  0
 23 22  1  0
 24 19  1  0
 24 23  2  0
 25 17  1  0
 25 26  1  0
 27 25  2  0
M  END
$$$$
