TIF.pdb
     RDKit          3D

 27 27  0  0  1  0  0  0  0  0999 V2000
   11.2942  -19.6376   18.2104 C   0  0  0  0  0  0  0  0  0  0  0  0
   10.9792  -18.8584   19.4504 C   0  0  1  0  0  0  0  0  0  0  0  0
   11.7850  -19.3768   20.4826 O   0  0  0  0  0  0  0  0  0  0  0  0
   11.3143  -17.3963   19.3366 C   0  0  2  0  0  0  0  0  0  0  0  0
   12.7452  -17.2939   19.1347 N   0  0  0  0  0  0  0  0  0  0  0  0
   10.9337  -16.6031   20.4962 C   0  0  0  0  0  0  0  0  0  0  0  0
   11.6950  -16.3609   21.4688 O   0  0  0  0  0  0  0  0  0  0  0  0
    7.0848  -12.4888   20.0112 C   0  0  0  0  0  0  0  0  0  0  0  0
    8.2538  -13.3145   20.4122 C   0  0  0  0  0  0  0  0  0  0  0  0
    8.0133  -14.3683   21.4260 C   0  0  2  0  0  0  0  0  0  0  0  0
    7.5140  -13.8183   22.7489 C   0  0  0  0  0  0  0  0  0  0  0  0
    9.1529  -15.2981   21.7200 C   0  0  2  0  0  0  0  0  0  0  0  0
    9.6252  -16.0462   20.5767 N   0  0  0  0  0  0  0  0  0  0  0  0
    8.8655  -16.2153   22.8742 C   0  0  0  0  0  0  0  0  0  0  0  0
    8.2844  -17.3232   22.6865 O   0  0  0  0  0  0  0  0  0  0  0  0
    9.2287  -15.8814   24.1992 N   0  0  0  0  0  0  0  0  0  0  0  0
    9.2654  -16.8566   25.2964 C   0  0  1  0  0  0  0  0  0  0  0  0
   10.3036  -16.5130   26.2962 C   0  0  0  0  0  0  0  0  0  0  0  0
    9.9165  -15.3581   27.1069 C   0  0  0  0  0  0  0  0  0  0  0  0
   10.0673  -15.3384   28.4704 C   0  0  0  0  0  0  0  0  0  0  0  0
    9.6924  -14.2226   29.2281 C   0  0  0  0  0  0  0  0  0  0  0  0
    9.1648  -13.1292   28.5962 C   0  0  0  0  0  0  0  0  0  0  0  0
    9.0040  -13.1242   27.2363 C   0  0  0  0  0  0  0  0  0  0  0  0
    9.3830  -14.2443   26.4982 C   0  0  0  0  0  0  0  0  0  0  0  0
    7.9381  -17.0167   25.9058 C   0  0  0  0  0  0  0  0  0  0  0  0
    7.7306  -18.0215   26.8319 O   0  0  0  0  0  0  0  0  0  0  0  0
    6.9948  -16.2655   25.6064 O   0  0  0  0  0  0  0  0  0  0  0  0
  2  3  1  0
  2  1  1  6
  4  5  1  1
  4  2  1  0
  6  4  1  0
  7  6  2  0
  9  8  1  0
 10  9  1  0
 10 11  1  1
 12 10  1  0
 12 13  1  6
 13  6  1  0
 14 12  1  0
 15 14  2  0
 16 14  1  0
 17 16  1  0
 17 18  1  1
 18 19  1  0
 19 20  2  0
 20 21  1  0
 22 21  2  0
 23 22  1  0
 24 19  1  0
 24 23  2  0
 25 17  1  0
 25 26  1  0
 27 25  2  0
M  END
$$$$
