TIF.pdb
     RDKit          3D

 27 27  0  0  1  0  0  0  0  0999 V2000
    6.8378  -20.6596   20.7937 C   0  0  0  0  0  0  0  0  0  0  0  0
    7.6894  -19.4830   21.1600 C   0  0  1  0  0  0  0  0  0  0  0  0
    8.9782  -19.9752   21.4434 O   0  0  0  0  0  0  0  0  0  0  0  0
    7.8452  -18.4890   20.0417 C   0  0  2  0  0  0  0  0  0  0  0  0
    8.3928  -19.1989   18.9037 N   0  0  0  0  0  0  0  0  0  0  0  0
    8.7032  -17.3576   20.3619 C   0  0  0  0  0  0  0  0  0  0  0  0
    9.9244  -17.2891   20.0645 O   0  0  0  0  0  0  0  0  0  0  0  0
    7.0879  -11.9838   20.1393 C   0  0  0  0  0  0  0  0  0  0  0  0
    7.3479  -13.2541   20.8656 C   0  0  0  0  0  0  0  0  0  0  0  0
    8.7030  -13.8384   20.7291 C   0  0  2  0  0  0  0  0  0  0  0  0
    9.1131  -14.0591   19.2852 C   0  0  0  0  0  0  0  0  0  0  0  0
    8.9712  -15.1097   21.4785 C   0  0  2  0  0  0  0  0  0  0  0  0
    8.1679  -16.2347   21.0555 N   0  0  0  0  0  0  0  0  0  0  0  0
    8.8916  -14.9289   22.9675 C   0  0  0  0  0  0  0  0  0  0  0  0
    8.2606  -13.9514   23.4641 O   0  0  0  0  0  0  0  0  0  0  0  0
    9.5106  -15.8325   23.8616 N   0  0  0  0  0  0  0  0  0  0  0  0
    9.2698  -15.8275   25.3101 C   0  0  1  0  0  0  0  0  0  0  0  0
    7.8215  -15.7957   25.6214 C   0  0  0  0  0  0  0  0  0  0  0  0
    7.3774  -14.4553   26.0049 C   0  0  0  0  0  0  0  0  0  0  0  0
    8.2416  -13.5131   26.5028 C   0  0  0  0  0  0  0  0  0  0  0  0
    7.7971  -12.2353   26.8621 C   0  0  0  0  0  0  0  0  0  0  0  0
    6.4737  -11.9191   26.7140 C   0  0  0  0  0  0  0  0  0  0  0  0
    5.5910  -12.8419   26.2194 C   0  0  0  0  0  0  0  0  0  0  0  0
    6.0519  -14.1094   25.8668 C   0  0  0  0  0  0  0  0  0  0  0  0
    9.9544  -16.9513   25.9635 C   0  0  0  0  0  0  0  0  0  0  0  0
   10.5695  -17.9171   25.1893 O   0  0  0  0  0  0  0  0  0  0  0  0
    9.9935  -17.0526   27.2012 O   0  0  0  0  0  0  0  0  0  0  0  0
  2  3  1  0
  2  1  1  6
  4  5  1  6
  4  2  1  0
  6  4  1  0
  7  6  2  0
  9  8  1  0
 10  9  1  0
 10 11  1  6
 12 10  1  0
 12 13  1  6
 13  6  1  0
 14 12  1  0
 15 14  2  0
 16 14  1  0
 17 16  1  0
 17 18  1  6
 18 19  1  0
 19 20  2  0
 20 21  1  0
 22 21  2  0
 23 22  1  0
 24 19  1  0
 24 23  2  0
 25 17  1  0
 25 26  1  0
 27 25  2  0
M  END
$$$$
