TIF.pdb
     RDKit          3D

 27 27  0  0  1  0  0  0  0  0999 V2000
    5.7604  -20.3028   20.8993 C   0  0  0  0  0  0  0  0  0  0  0  0
    6.6454  -19.1951   21.3826 C   0  0  1  0  0  0  0  0  0  0  0  0
    7.7749  -19.7938   21.9736 O   0  0  0  0  0  0  0  0  0  0  0  0
    7.1559  -18.3140   20.2753 C   0  0  2  0  0  0  0  0  0  0  0  0
    7.8155  -19.1692   19.3098 N   0  0  0  0  0  0  0  0  0  0  0  0
    8.0807  -17.2786   20.7127 C   0  0  0  0  0  0  0  0  0  0  0  0
    9.3306  -17.3435   20.5786 O   0  0  0  0  0  0  0  0  0  0  0  0
    7.0235  -11.9391   19.8494 C   0  0  0  0  0  0  0  0  0  0  0  0
    7.7107  -13.2328   20.1006 C   0  0  0  0  0  0  0  0  0  0  0  0
    7.8655  -13.6453   21.5156 C   0  0  2  0  0  0  0  0  0  0  0  0
    8.6677  -12.6556   22.3395 C   0  0  0  0  0  0  0  0  0  0  0  0
    8.4326  -15.0112   21.7649 C   0  0  2  0  0  0  0  0  0  0  0  0
    7.5825  -16.0994   21.3372 N   0  0  0  0  0  0  0  0  0  0  0  0
    8.8672  -15.2038   23.1897 C   0  0  0  0  0  0  0  0  0  0  0  0
    9.8498  -14.5576   23.6556 O   0  0  0  0  0  0  0  0  0  0  0  0
    8.2038  -16.1033   24.0556 N   0  0  0  0  0  0  0  0  0  0  0  0
    8.5873  -16.3045   25.4587 C   0  0  1  0  0  0  0  0  0  0  0  0
    7.4734  -15.9791   26.3800 C   0  0  0  0  0  0  0  0  0  0  0  0
    7.2708  -14.5349   26.4992 C   0  0  0  0  0  0  0  0  0  0  0  0
    8.2621  -13.6908   26.9318 C   0  0  0  0  0  0  0  0  0  0  0  0
    8.0489  -12.3113   27.0370 C   0  0  0  0  0  0  0  0  0  0  0  0
    6.8269  -11.7939   26.7018 C   0  0  0  0  0  0  0  0  0  0  0  0
    5.8211  -12.6154   26.2674 C   0  0  0  0  0  0  0  0  0  0  0  0
    6.0518  -13.9866   26.1689 C   0  0  0  0  0  0  0  0  0  0  0  0
    9.1093  -17.6607   25.6746 C   0  0  0  0  0  0  0  0  0  0  0  0
    9.6223  -18.0042   26.9113 O   0  0  0  0  0  0  0  0  0  0  0  0
    9.0991  -18.5092   24.7670 O   0  0  0  0  0  0  0  0  0  0  0  0
  2  3  1  0
  2  1  1  6
  4  5  1  6
  4  2  1  0
  6  4  1  0
  7  6  2  0
  9  8  1  0
 10  9  1  0
 10 11  1  1
 12 10  1  0
 12 13  1  1
 13  6  1  0
 14 12  1  0
 15 14  2  0
 16 14  1  0
 17 16  1  0
 17 18  1  1
 18 19  1  0
 19 20  2  0
 20 21  1  0
 22 21  2  0
 23 22  1  0
 24 19  1  0
 24 23  2  0
 25 17  1  0
 25 26  1  0
 27 25  2  0
M  END
$$$$
