TIF.pdb
     RDKit          3D

 27 27  0  0  1  0  0  0  0  0999 V2000
    6.7650  -16.8028   19.4433 C   0  0  0  0  0  0  0  0  0  0  0  0
    7.3415  -16.5452   20.8018 C   0  0  1  0  0  0  0  0  0  0  0  0
    8.3797  -17.4768   20.9958 O   0  0  0  0  0  0  0  0  0  0  0  0
    7.9580  -15.1798   20.9383 C   0  0  2  0  0  0  0  0  0  0  0  0
    8.9828  -15.0631   19.9210 N   0  0  0  0  0  0  0  0  0  0  0  0
    8.5436  -14.9157   22.2444 C   0  0  0  0  0  0  0  0  0  0  0  0
    9.7525  -15.1170   22.5318 O   0  0  0  0  0  0  0  0  0  0  0  0
    7.3294  -11.6873   27.4838 C   0  0  0  0  0  0  0  0  0  0  0  0
    8.0051  -12.7916   26.7537 C   0  0  0  0  0  0  0  0  0  0  0  0
    7.5198  -13.0848   25.3845 C   0  0  2  0  0  0  0  0  0  0  0  0
    6.0305  -13.3686   25.3292 C   0  0  0  0  0  0  0  0  0  0  0  0
    8.2206  -14.1804   24.6375 C   0  0  2  0  0  0  0  0  0  0  0  0
    7.7330  -14.3956   23.2938 N   0  0  0  0  0  0  0  0  0  0  0  0
    8.2539  -15.4714   25.4046 C   0  0  0  0  0  0  0  0  0  0  0  0
    7.2134  -16.1828   25.5123 O   0  0  0  0  0  0  0  0  0  0  0  0
    9.4342  -15.9369   26.0285 N   0  0  0  0  0  0  0  0  0  0  0  0
    9.5228  -17.2235   26.7306 C   0  0  1  0  0  0  0  0  0  0  0  0
    9.8397  -18.3316   25.7994 C   0  0  0  0  0  0  0  0  0  0  0  0
   11.1259  -18.1294   25.1318 C   0  0  0  0  0  0  0  0  0  0  0  0
   11.2266  -17.5148   23.9093 C   0  0  0  0  0  0  0  0  0  0  0  0
   12.4671  -17.3290   23.2879 C   0  0  0  0  0  0  0  0  0  0  0  0
   13.6027  -17.7694   23.9121 C   0  0  0  0  0  0  0  0  0  0  0  0
   13.5289  -18.3860   25.1327 C   0  0  0  0  0  0  0  0  0  0  0  0
   12.2848  -18.5622   25.7363 C   0  0  0  0  0  0  0  0  0  0  0  0
   10.4707  -17.1501   27.8507 C   0  0  0  0  0  0  0  0  0  0  0  0
   10.6423  -18.2494   28.6708 O   0  0  0  0  0  0  0  0  0  0  0  0
   11.1245  -16.1182   28.0774 O   0  0  0  0  0  0  0  0  0  0  0  0
  2  3  1  0
  2  1  1  6
  4  5  1  6
  4  2  1  0
  6  4  1  0
  7  6  2  0
  9  8  1  0
 10  9  1  0
 10 11  1  1
 12 10  1  0
 12 13  1  6
 13  6  1  0
 14 12  1  0
 15 14  2  0
 16 14  1  0
 17 16  1  0
 17 18  1  6
 18 19  1  0
 19 20  2  0
 20 21  1  0
 22 21  2  0
 23 22  1  0
 24 19  1  0
 24 23  2  0
 25 17  1  0
 25 26  1  0
 27 25  2  0
M  END
$$$$
