TIF.pdb
     RDKit          3D

 27 27  0  0  1  0  0  0  0  0999 V2000
    7.4388  -17.4494   20.5884 C   0  0  0  0  0  0  0  0  0  0  0  0
    7.8696  -16.2631   19.7814 C   0  0  1  0  0  0  0  0  0  0  0  0
    7.2659  -16.3812   18.5145 O   0  0  0  0  0  0  0  0  0  0  0  0
    7.4085  -14.9518   20.3567 C   0  0  2  0  0  0  0  0  0  0  0  0
    7.6266  -13.9351   19.3480 N   0  0  0  0  0  0  0  0  0  0  0  0
    8.0875  -14.5654   21.5848 C   0  0  0  0  0  0  0  0  0  0  0  0
    9.2826  -14.1741   21.6396 O   0  0  0  0  0  0  0  0  0  0  0  0
    5.6943  -11.6694   25.6939 C   0  0  0  0  0  0  0  0  0  0  0  0
    6.7173  -12.2733   24.8008 C   0  0  0  0  0  0  0  0  0  0  0  0
    7.1278  -13.6659   25.0981 C   0  0  2  0  0  0  0  0  0  0  0  0
    7.7690  -13.8183   26.4646 C   0  0  0  0  0  0  0  0  0  0  0  0
    8.0216  -14.3369   24.0978 C   0  0  2  0  0  0  0  0  0  0  0  0
    7.3926  -14.6182   22.8270 N   0  0  0  0  0  0  0  0  0  0  0  0
    8.6816  -15.5683   24.6491 C   0  0  0  0  0  0  0  0  0  0  0  0
    8.1141  -16.6957   24.5631 O   0  0  0  0  0  0  0  0  0  0  0  0
    9.9470  -15.5173   25.2777 N   0  0  0  0  0  0  0  0  0  0  0  0
   10.6939  -16.7133   25.6874 C   0  0  1  0  0  0  0  0  0  0  0  0
   11.8533  -16.3655   26.5419 C   0  0  0  0  0  0  0  0  0  0  0  0
   11.4360  -15.7283   27.7912 C   0  0  0  0  0  0  0  0  0  0  0  0
   11.0520  -14.4123   27.8481 C   0  0  0  0  0  0  0  0  0  0  0  0
   10.6542  -13.8216   29.0532 C   0  0  0  0  0  0  0  0  0  0  0  0
   10.6481  -14.5717   30.1980 C   0  0  0  0  0  0  0  0  0  0  0  0
   11.0270  -15.8873   30.1676 C   0  0  0  0  0  0  0  0  0  0  0  0
   11.4201  -16.4585   28.9583 C   0  0  0  0  0  0  0  0  0  0  0  0
    9.8081  -17.6967   26.3254 C   0  0  0  0  0  0  0  0  0  0  0  0
    8.5336  -17.3198   26.7052 O   0  0  0  0  0  0  0  0  0  0  0  0
   10.1804  -18.8640   26.5312 O   0  0  0  0  0  0  0  0  0  0  0  0
  2  3  1  0
  2  1  1  1
  4  5  1  6
  4  2  1  0
  6  4  1  0
  7  6  2  0
  9  8  1  0
 10  9  1  0
 10 11  1  1
 12 10  1  0
 12 13  1  6
 13  6  1  0
 14 12  1  0
 15 14  2  0
 16 14  1  0
 17 16  1  0
 17 18  1  1
 18 19  1  0
 19 20  2  0
 20 21  1  0
 22 21  2  0
 23 22  1  0
 24 19  1  0
 24 23  2  0
 25 17  1  0
 25 26  1  0
 27 25  2  0
M  END
$$$$
