TIF.pdb
     RDKit          3D

 27 27  0  0  1  0  0  0  0  0999 V2000
   11.6043  -19.8618   18.4789 C   0  0  0  0  0  0  0  0  0  0  0  0
   11.2702  -18.9259   19.5998 C   0  0  1  0  0  0  0  0  0  0  0  0
   12.2656  -19.0837   20.5835 O   0  0  0  0  0  0  0  0  0  0  0  0
   11.2931  -17.4775   19.1937 C   0  0  2  0  0  0  0  0  0  0  0  0
   12.6031  -17.2034   18.6391 N   0  0  0  0  0  0  0  0  0  0  0  0
   11.0259  -16.5470   20.2806 C   0  0  0  0  0  0  0  0  0  0  0  0
   11.9135  -15.8880   20.8824 O   0  0  0  0  0  0  0  0  0  0  0  0
    6.8488  -12.9565   20.4081 C   0  0  0  0  0  0  0  0  0  0  0  0
    8.1206  -13.6868   20.6495 C   0  0  0  0  0  0  0  0  0  0  0  0
    8.1127  -14.7090   21.7224 C   0  0  2  0  0  0  0  0  0  0  0  0
    7.7634  -14.1394   23.0845 C   0  0  0  0  0  0  0  0  0  0  0  0
    9.3539  -15.5364   21.8790 C   0  0  2  0  0  0  0  0  0  0  0  0
    9.6884  -16.3383   20.7237 N   0  0  0  0  0  0  0  0  0  0  0  0
    9.3327  -16.3780   23.1229 C   0  0  0  0  0  0  0  0  0  0  0  0
    8.6761  -17.4588   23.1573 O   0  0  0  0  0  0  0  0  0  0  0  0
   10.0367  -16.0009   24.2895 N   0  0  0  0  0  0  0  0  0  0  0  0
   10.3281  -16.9267   25.3914 C   0  0  1  0  0  0  0  0  0  0  0  0
   11.3490  -16.3738   26.3120 C   0  0  0  0  0  0  0  0  0  0  0  0
   10.7894  -15.3456   27.1899 C   0  0  0  0  0  0  0  0  0  0  0  0
   10.8112  -15.4604   28.5569 C   0  0  0  0  0  0  0  0  0  0  0  0
   10.2721  -14.4645   29.3797 C   0  0  0  0  0  0  0  0  0  0  0  0
    9.7119  -13.3536   28.8092 C   0  0  0  0  0  0  0  0  0  0  0  0
    9.6778  -13.2154   27.4472 C   0  0  0  0  0  0  0  0  0  0  0  0
   10.2195  -14.2175   26.6439 C   0  0  0  0  0  0  0  0  0  0  0  0
    9.0979  -17.3155   26.0943 C   0  0  0  0  0  0  0  0  0  0  0  0
    9.1313  -18.3608   26.9981 O   0  0  0  0  0  0  0  0  0  0  0  0
    8.0245  -16.7228   25.8942 O   0  0  0  0  0  0  0  0  0  0  0  0
  2  3  1  0
  2  1  1  6
  4  5  1  1
  4  2  1  0
  6  4  1  0
  7  6  2  0
  9  8  1  0
 10  9  1  0
 10 11  1  1
 12 10  1  0
 12 13  1  6
 13  6  1  0
 14 12  1  0
 15 14  2  0
 16 14  1  0
 17 16  1  0
 17 18  1  1
 18 19  1  0
 19 20  2  0
 20 21  1  0
 22 21  2  0
 23 22  1  0
 24 19  1  0
 24 23  2  0
 25 17  1  0
 25 26  1  0
 27 25  2  0
M  END
$$$$
