TIF.pdb
     RDKit          3D

 27 27  0  0  1  0  0  0  0  0999 V2000
   10.6073  -18.8619   20.3196 C   0  0  0  0  0  0  0  0  0  0  0  0
   10.2598  -17.7898   19.3329 C   0  0  1  0  0  0  0  0  0  0  0  0
    9.7827  -18.4312   18.1734 O   0  0  0  0  0  0  0  0  0  0  0  0
    9.1586  -16.8799   19.8046 C   0  0  2  0  0  0  0  0  0  0  0  0
    8.8470  -15.9759   18.7163 N   0  0  0  0  0  0  0  0  0  0  0  0
    9.4889  -16.1071   20.9930 C   0  0  0  0  0  0  0  0  0  0  0  0
   10.4592  -15.3091   21.0713 O   0  0  0  0  0  0  0  0  0  0  0  0
    6.9345  -13.2311   25.7667 C   0  0  0  0  0  0  0  0  0  0  0  0
    8.0755  -14.0060   25.2130 C   0  0  0  0  0  0  0  0  0  0  0  0
    7.8203  -14.7834   23.9774 C   0  0  2  0  0  0  0  0  0  0  0  0
    6.6626  -15.7545   24.1139 C   0  0  0  0  0  0  0  0  0  0  0  0
    8.9812  -15.5366   23.3990 C   0  0  2  0  0  0  0  0  0  0  0  0
    8.6893  -16.2311   22.1653 N   0  0  0  0  0  0  0  0  0  0  0  0
    9.6200  -16.4637   24.3933 C   0  0  0  0  0  0  0  0  0  0  0  0
    9.2959  -17.6858   24.4338 O   0  0  0  0  0  0  0  0  0  0  0  0
   10.5962  -16.0132   25.3114 N   0  0  0  0  0  0  0  0  0  0  0  0
   11.3329  -16.9097   26.2113 C   0  0  1  0  0  0  0  0  0  0  0  0
   12.2321  -16.1554   27.1157 C   0  0  0  0  0  0  0  0  0  0  0  0
   11.4837  -15.2959   28.0334 C   0  0  0  0  0  0  0  0  0  0  0  0
   11.3991  -15.5596   29.3771 C   0  0  0  0  0  0  0  0  0  0  0  0
   10.6795  -14.7237   30.2391 C   0  0  0  0  0  0  0  0  0  0  0  0
   10.0476  -13.6209   29.7314 C   0  0  0  0  0  0  0  0  0  0  0  0
   10.1169  -13.3359   28.3937 C   0  0  0  0  0  0  0  0  0  0  0  0
   10.8381  -14.1798   27.5506 C   0  0  0  0  0  0  0  0  0  0  0  0
   10.4156  -17.7905   26.9471 C   0  0  0  0  0  0  0  0  0  0  0  0
   10.9065  -18.9316   27.5530 O   0  0  0  0  0  0  0  0  0  0  0  0
    9.2039  -17.5309   27.0375 O   0  0  0  0  0  0  0  0  0  0  0  0
  2  3  1  0
  2  1  1  1
  4  5  1  6
  4  2  1  0
  6  4  1  0
  7  6  2  0
  9  8  1  0
 10  9  1  0
 10 11  1  1
 12 10  1  0
 12 13  1  6
 13  6  1  0
 14 12  1  0
 15 14  2  0
 16 14  1  0
 17 16  1  0
 17 18  1  1
 18 19  1  0
 19 20  2  0
 20 21  1  0
 22 21  2  0
 23 22  1  0
 24 19  1  0
 24 23  2  0
 25 17  1  0
 25 26  1  0
 27 25  2  0
M  END
$$$$
