TIF.pdb
     RDKit          3D

 27 27  0  0  1  0  0  0  0  0999 V2000
    9.2453  -20.1099   22.4012 C   0  0  0  0  0  0  0  0  0  0  0  0
    9.2446  -20.3673   20.9255 C   0  0  1  0  0  0  0  0  0  0  0  0
    8.5854  -21.5945   20.7183 O   0  0  0  0  0  0  0  0  0  0  0  0
    8.4845  -19.3333   20.1407 C   0  0  2  0  0  0  0  0  0  0  0  0
    8.3935  -19.8063   18.7744 N   0  0  0  0  0  0  0  0  0  0  0  0
    9.0890  -18.0093   20.1526 C   0  0  0  0  0  0  0  0  0  0  0  0
   10.2465  -17.7559   19.7277 O   0  0  0  0  0  0  0  0  0  0  0  0
    7.6330  -11.9738   20.1607 C   0  0  0  0  0  0  0  0  0  0  0  0
    8.5651  -13.0880   20.4747 C   0  0  0  0  0  0  0  0  0  0  0  0
    8.0120  -14.4615   20.4131 C   0  0  2  0  0  0  0  0  0  0  0  0
    6.7208  -14.6186   21.1941 C   0  0  0  0  0  0  0  0  0  0  0  0
    8.9274  -15.5792   20.8162 C   0  0  2  0  0  0  0  0  0  0  0  0
    8.3595  -16.9005   20.6694 N   0  0  0  0  0  0  0  0  0  0  0  0
    9.4921  -15.3929   22.1954 C   0  0  0  0  0  0  0  0  0  0  0  0
   10.4492  -14.5903   22.3959 O   0  0  0  0  0  0  0  0  0  0  0  0
    8.9829  -16.0978   23.3103 N   0  0  0  0  0  0  0  0  0  0  0  0
    8.6091  -15.4493   24.5736 C   0  0  1  0  0  0  0  0  0  0  0  0
    7.6389  -14.3507   24.3558 C   0  0  0  0  0  0  0  0  0  0  0  0
    7.3978  -13.5878   25.5809 C   0  0  0  0  0  0  0  0  0  0  0  0
    8.4197  -13.1720   26.3964 C   0  0  0  0  0  0  0  0  0  0  0  0
    8.1682  -12.4411   27.5635 C   0  0  0  0  0  0  0  0  0  0  0  0
    6.8769  -12.1349   27.8980 C   0  0  0  0  0  0  0  0  0  0  0  0
    5.8392  -12.5384   27.1006 C   0  0  0  0  0  0  0  0  0  0  0  0
    6.1089  -13.2654   25.9422 C   0  0  0  0  0  0  0  0  0  0  0  0
    8.1239  -16.4342   25.5499 C   0  0  0  0  0  0  0  0  0  0  0  0
    8.7191  -16.5088   26.7952 O   0  0  0  0  0  0  0  0  0  0  0  0
    7.1866  -17.2038   25.2802 O   0  0  0  0  0  0  0  0  0  0  0  0
  2  3  1  0
  2  1  1  1
  4  5  1  6
  4  2  1  0
  6  4  1  0
  7  6  2  0
  9  8  1  0
 10  9  1  0
 10 11  1  1
 12 10  1  0
 12 13  1  1
 13  6  1  0
 14 12  1  0
 15 14  2  0
 16 14  1  0
 17 16  1  0
 17 18  1  6
 18 19  1  0
 19 20  2  0
 20 21  1  0
 22 21  2  0
 23 22  1  0
 24 19  1  0
 24 23  2  0
 25 17  1  0
 25 26  1  0
 27 25  2  0
M  END
$$$$
