TIF.pdb
     RDKit          3D

 27 27  0  0  1  0  0  0  0  0999 V2000
    5.0956  -20.3752   20.6951 C   0  0  0  0  0  0  0  0  0  0  0  0
    6.0687  -19.3706   21.2316 C   0  0  1  0  0  0  0  0  0  0  0  0
    7.1196  -20.0902   21.8325 O   0  0  0  0  0  0  0  0  0  0  0  0
    6.6905  -18.5137   20.1629 C   0  0  2  0  0  0  0  0  0  0  0  0
    7.3582  -19.3993   19.2309 N   0  0  0  0  0  0  0  0  0  0  0  0
    7.6430  -17.5325   20.6616 C   0  0  0  0  0  0  0  0  0  0  0  0
    8.8580  -17.7750   20.8838 O   0  0  0  0  0  0  0  0  0  0  0  0
    7.6343  -12.2469   19.0996 C   0  0  0  0  0  0  0  0  0  0  0  0
    8.0097  -13.5887   19.6170 C   0  0  0  0  0  0  0  0  0  0  0  0
    7.8557  -13.8120   21.0739 C   0  0  2  0  0  0  0  0  0  0  0  0
    8.7297  -12.8977   21.9117 C   0  0  0  0  0  0  0  0  0  0  0  0
    8.0556  -15.2135   21.5693 C   0  0  2  0  0  0  0  0  0  0  0  0
    7.2155  -16.2003   20.9288 N   0  0  0  0  0  0  0  0  0  0  0  0
    7.9528  -15.3168   23.0642 C   0  0  0  0  0  0  0  0  0  0  0  0
    6.8286  -15.2369   23.6389 O   0  0  0  0  0  0  0  0  0  0  0  0
    9.0935  -15.5051   23.8780 N   0  0  0  0  0  0  0  0  0  0  0  0
    9.0264  -15.6780   25.3347 C   0  0  1  0  0  0  0  0  0  0  0  0
    7.6363  -15.5608   25.8338 C   0  0  0  0  0  0  0  0  0  0  0  0
    7.3187  -14.1918   26.2414 C   0  0  0  0  0  0  0  0  0  0  0  0
    6.0272  -13.7576   26.4019 C   0  0  0  0  0  0  0  0  0  0  0  0
    5.7444  -12.4441   26.7946 C   0  0  0  0  0  0  0  0  0  0  0  0
    6.7768  -11.5752   27.0230 C   0  0  0  0  0  0  0  0  0  0  0  0
    8.0747  -11.9842   26.8697 C   0  0  0  0  0  0  0  0  0  0  0  0
    8.3372  -13.2960   26.4781 C   0  0  0  0  0  0  0  0  0  0  0  0
    9.6610  -16.9373   25.7472 C   0  0  0  0  0  0  0  0  0  0  0  0
    9.7657  -17.2386   27.0921 O   0  0  0  0  0  0  0  0  0  0  0  0
   10.1065  -17.7407   24.9107 O   0  0  0  0  0  0  0  0  0  0  0  0
  2  3  1  0
  2  1  1  6
  4  5  1  6
  4  2  1  0
  6  4  1  0
  7  6  2  0
  9  8  1  0
 10  9  1  0
 10 11  1  1
 12 10  1  0
 12 13  1  6
 13  6  1  0
 14 12  1  0
 15 14  2  0
 16 14  1  0
 17 16  1  0
 17 18  1  6
 18 19  1  0
 19 20  2  0
 20 21  1  0
 22 21  2  0
 23 22  1  0
 24 19  1  0
 24 23  2  0
 25 17  1  0
 25 26  1  0
 27 25  2  0
M  END
$$$$
