TIF.pdb
     RDKit          3D

 27 27  0  0  1  0  0  0  0  0999 V2000
    9.6702  -14.3890   18.0349 C   0  0  0  0  0  0  0  0  0  0  0  0
    9.1073  -14.7928   19.3631 C   0  0  1  0  0  0  0  0  0  0  0  0
    9.8544  -14.1234   20.3517 O   0  0  0  0  0  0  0  0  0  0  0  0
    7.6738  -14.3785   19.5536 C   0  0  2  0  0  0  0  0  0  0  0  0
    7.6090  -12.9431   19.3685 N   0  0  0  0  0  0  0  0  0  0  0  0
    7.1196  -14.7217   20.8550 C   0  0  0  0  0  0  0  0  0  0  0  0
    6.9091  -13.8902   21.7763 O   0  0  0  0  0  0  0  0  0  0  0  0
    4.1251  -18.2974   20.2764 C   0  0  0  0  0  0  0  0  0  0  0  0
    4.1509  -17.6892   21.6322 C   0  0  0  0  0  0  0  0  0  0  0  0
    5.4337  -17.7547   22.3714 C   0  0  2  0  0  0  0  0  0  0  0  0
    5.2763  -18.2622   23.7925 C   0  0  0  0  0  0  0  0  0  0  0  0
    6.2501  -16.4976   22.4242 C   0  0  2  0  0  0  0  0  0  0  0  0
    6.7793  -16.0736   21.1475 N   0  0  0  0  0  0  0  0  0  0  0  0
    7.3387  -16.5600   23.4571 C   0  0  0  0  0  0  0  0  0  0  0  0
    8.5249  -16.8484   23.1252 O   0  0  0  0  0  0  0  0  0  0  0  0
    7.0844  -16.3021   24.8238 N   0  0  0  0  0  0  0  0  0  0  0  0
    8.1327  -16.2902   25.8519 C   0  0  1  0  0  0  0  0  0  0  0  0
    7.6867  -15.5855   27.0767 C   0  0  0  0  0  0  0  0  0  0  0  0
    7.3327  -14.1923   26.8037 C   0  0  0  0  0  0  0  0  0  0  0  0
    8.2810  -13.2310   26.5604 C   0  0  0  0  0  0  0  0  0  0  0  0
    7.9215  -11.9036   26.2993 C   0  0  0  0  0  0  0  0  0  0  0  0
    6.5975  -11.5573   26.2864 C   0  0  0  0  0  0  0  0  0  0  0  0
    5.6318  -12.4982   26.5263 C   0  0  0  0  0  0  0  0  0  0  0  0
    6.0087  -13.8152   26.7844 C   0  0  0  0  0  0  0  0  0  0  0  0
    8.6102  -17.6504   26.1357 C   0  0  0  0  0  0  0  0  0  0  0  0
    9.8161  -17.8267   26.7877 O   0  0  0  0  0  0  0  0  0  0  0  0
    7.9510  -18.6493   25.8020 O   0  0  0  0  0  0  0  0  0  0  0  0
  2  3  1  0
  2  1  1  6
  4  5  1  1
  4  2  1  0
  6  4  1  0
  7  6  2  0
  9  8  1  0
 10  9  1  0
 10 11  1  1
 12 10  1  0
 12 13  1  6
 13  6  1  0
 14 12  1  0
 15 14  2  0
 16 14  1  0
 17 16  1  0
 17 18  1  1
 18 19  1  0
 19 20  2  0
 20 21  1  0
 22 21  2  0
 23 22  1  0
 24 19  1  0
 24 23  2  0
 25 17  1  0
 25 26  1  0
 27 25  2  0
M  END
$$$$
