TIF.pdb
     RDKit          3D

 27 27  0  0  1  0  0  0  0  0999 V2000
    5.0286  -20.3644   21.8064 C   0  0  0  0  0  0  0  0  0  0  0  0
    6.0576  -19.3144   22.0937 C   0  0  1  0  0  0  0  0  0  0  0  0
    7.1755  -19.9687   22.6465 O   0  0  0  0  0  0  0  0  0  0  0  0
    6.5427  -18.6023   20.8605 C   0  0  2  0  0  0  0  0  0  0  0  0
    7.0484  -19.6087   19.9493 N   0  0  0  0  0  0  0  0  0  0  0  0
    7.5811  -17.6133   21.1101 C   0  0  0  0  0  0  0  0  0  0  0  0
    8.8080  -17.8088   20.9079 O   0  0  0  0  0  0  0  0  0  0  0  0
    6.7462  -12.3329   19.7451 C   0  0  0  0  0  0  0  0  0  0  0  0
    7.3845  -13.6370   20.0629 C   0  0  0  0  0  0  0  0  0  0  0  0
    7.6984  -13.8996   21.4873 C   0  0  2  0  0  0  0  0  0  0  0  0
    8.6725  -12.8969   22.0766 C   0  0  0  0  0  0  0  0  0  0  0  0
    8.1951  -15.2729   21.8294 C   0  0  2  0  0  0  0  0  0  0  0  0
    7.2309  -16.3286   21.6157 N   0  0  0  0  0  0  0  0  0  0  0  0
    8.7697  -15.3495   23.2150 C   0  0  0  0  0  0  0  0  0  0  0  0
    9.8909  -14.8254   23.4765 O   0  0  0  0  0  0  0  0  0  0  0  0
    8.0889  -16.0019   24.2686 N   0  0  0  0  0  0  0  0  0  0  0  0
    8.6529  -16.1668   25.6143 C   0  0  1  0  0  0  0  0  0  0  0  0
    7.7208  -15.6817   26.6590 C   0  0  0  0  0  0  0  0  0  0  0  0
    7.5399  -14.2311   26.5948 C   0  0  0  0  0  0  0  0  0  0  0  0
    8.5510  -13.3541   26.8961 C   0  0  0  0  0  0  0  0  0  0  0  0
    8.3583  -11.9693   26.8266 C   0  0  0  0  0  0  0  0  0  0  0  0
    7.1366  -11.4801   26.4507 C   0  0  0  0  0  0  0  0  0  0  0  0
    6.1112  -12.3347   26.1449 C   0  0  0  0  0  0  0  0  0  0  0  0
    6.3217  -13.7107   26.2197 C   0  0  0  0  0  0  0  0  0  0  0  0
    9.0722  -17.5559   25.8449 C   0  0  0  0  0  0  0  0  0  0  0  0
    9.6791  -17.8947   27.0397 O   0  0  0  0  0  0  0  0  0  0  0  0
    8.8920  -18.4363   24.9869 O   0  0  0  0  0  0  0  0  0  0  0  0
  2  3  1  0
  2  1  1  6
  4  5  1  6
  4  2  1  0
  6  4  1  0
  7  6  2  0
  9  8  1  0
 10  9  1  0
 10 11  1  6
 12 10  1  0
 12 13  1  1
 13  6  1  0
 14 12  1  0
 15 14  2  0
 16 14  1  0
 17 16  1  0
 17 18  1  1
 18 19  1  0
 19 20  2  0
 20 21  1  0
 22 21  2  0
 23 22  1  0
 24 19  1  0
 24 23  2  0
 25 17  1  0
 25 26  1  0
 27 25  2  0
M  END
$$$$
