TIF.pdb
     RDKit          3D

 27 27  0  0  1  0  0  0  0  0999 V2000
    7.8174  -20.7275   20.5315 C   0  0  0  0  0  0  0  0  0  0  0  0
    8.2060  -19.4076   21.1236 C   0  0  1  0  0  0  0  0  0  0  0  0
    9.4279  -19.5982   21.7974 O   0  0  0  0  0  0  0  0  0  0  0  0
    8.4462  -18.3393   20.0919 C   0  0  2  0  0  0  0  0  0  0  0  0
    9.3734  -18.8779   19.1178 N   0  0  0  0  0  0  0  0  0  0  0  0
    8.9809  -17.0971   20.6302 C   0  0  0  0  0  0  0  0  0  0  0  0
   10.1928  -16.7626   20.5682 O   0  0  0  0  0  0  0  0  0  0  0  0
    6.8832  -12.1781   19.6222 C   0  0  0  0  0  0  0  0  0  0  0  0
    7.8148  -13.2600   20.0349 C   0  0  0  0  0  0  0  0  0  0  0  0
    7.7144  -13.7321   21.4361 C   0  0  2  0  0  0  0  0  0  0  0  0
    7.9647  -12.6346   22.4531 C   0  0  0  0  0  0  0  0  0  0  0  0
    8.5630  -14.9087   21.8169 C   0  0  2  0  0  0  0  0  0  0  0  0
    8.1124  -16.1716   21.2766 N   0  0  0  0  0  0  0  0  0  0  0  0
    8.7757  -15.0102   23.3003 C   0  0  0  0  0  0  0  0  0  0  0  0
    8.9972  -13.9736   23.9909 O   0  0  0  0  0  0  0  0  0  0  0  0
    8.7370  -16.2520   23.9752 N   0  0  0  0  0  0  0  0  0  0  0  0
    8.4986  -16.3795   25.4185 C   0  0  1  0  0  0  0  0  0  0  0  0
    7.1241  -15.9629   25.7825 C   0  0  0  0  0  0  0  0  0  0  0  0
    7.0651  -14.5486   26.1533 C   0  0  0  0  0  0  0  0  0  0  0  0
    5.9447  -13.7844   25.9456 C   0  0  0  0  0  0  0  0  0  0  0  0
    5.9076  -12.4332   26.3093 C   0  0  0  0  0  0  0  0  0  0  0  0
    7.0111  -11.8626   26.8837 C   0  0  0  0  0  0  0  0  0  0  0  0
    8.1417  -12.6040   27.1016 C   0  0  0  0  0  0  0  0  0  0  0  0
    8.1602  -13.9482   26.7328 C   0  0  0  0  0  0  0  0  0  0  0  0
    8.8111  -17.7362   25.8879 C   0  0  0  0  0  0  0  0  0  0  0  0
    8.8216  -18.0020   27.2442 O   0  0  0  0  0  0  0  0  0  0  0  0
    9.0663  -18.6534   25.0896 O   0  0  0  0  0  0  0  0  0  0  0  0
  2  3  1  0
  2  1  1  6
  4  5  1  6
  4  2  1  0
  6  4  1  0
  7  6  2  0
  9  8  1  0
 10  9  1  0
 10 11  1  1
 12 10  1  0
 12 13  1  1
 13  6  1  0
 14 12  1  0
 15 14  2  0
 16 14  1  0
 17 16  1  0
 17 18  1  6
 18 19  1  0
 19 20  2  0
 20 21  1  0
 22 21  2  0
 23 22  1  0
 24 19  1  0
 24 23  2  0
 25 17  1  0
 25 26  1  0
 27 25  2  0
M  END
$$$$
