TIF.pdb
     RDKit          3D

 27 27  0  0  1  0  0  0  0  0999 V2000
    8.1546  -21.2332   19.6880 C   0  0  0  0  0  0  0  0  0  0  0  0
    8.5216  -19.9730   20.4099 C   0  0  1  0  0  0  0  0  0  0  0  0
    9.6654  -20.2546   21.1819 O   0  0  0  0  0  0  0  0  0  0  0  0
    8.8930  -18.8443   19.4873 C   0  0  2  0  0  0  0  0  0  0  0  0
    9.9768  -19.3103   18.6466 N   0  0  0  0  0  0  0  0  0  0  0  0
    9.3019  -17.6247   20.1684 C   0  0  0  0  0  0  0  0  0  0  0  0
   10.4996  -17.2794   20.3435 O   0  0  0  0  0  0  0  0  0  0  0  0
    7.7573  -11.7673   20.8971 C   0  0  0  0  0  0  0  0  0  0  0  0
    8.3934  -12.9921   21.4489 C   0  0  0  0  0  0  0  0  0  0  0  0
    8.0015  -14.2839   20.8375 C   0  0  2  0  0  0  0  0  0  0  0  0
    6.5008  -14.5069   20.8284 C   0  0  0  0  0  0  0  0  0  0  0  0
    8.6425  -15.5197   21.3956 C   0  0  2  0  0  0  0  0  0  0  0  0
    8.3163  -16.7360   20.6857 N   0  0  0  0  0  0  0  0  0  0  0  0
    8.3974  -15.6812   22.8687 C   0  0  0  0  0  0  0  0  0  0  0  0
    7.3408  -16.2362   23.2880 O   0  0  0  0  0  0  0  0  0  0  0  0
    9.3259  -15.2255   23.8326 N   0  0  0  0  0  0  0  0  0  0  0  0
    9.1671  -15.4486   25.2753 C   0  0  1  0  0  0  0  0  0  0  0  0
    7.7485  -15.3431   25.6900 C   0  0  0  0  0  0  0  0  0  0  0  0
    7.3745  -13.9631   26.0011 C   0  0  0  0  0  0  0  0  0  0  0  0
    6.1402  -13.4519   25.6885 C   0  0  0  0  0  0  0  0  0  0  0  0
    5.8009  -12.1292   25.9965 C   0  0  0  0  0  0  0  0  0  0  0  0
    6.7188  -11.3295   26.6219 C   0  0  0  0  0  0  0  0  0  0  0  0
    7.9576  -11.8160   26.9444 C   0  0  0  0  0  0  0  0  0  0  0  0
    8.2776  -13.1358   26.6299 C   0  0  0  0  0  0  0  0  0  0  0  0
    9.7720  -16.7241   25.6825 C   0  0  0  0  0  0  0  0  0  0  0  0
   10.3232  -17.5532   24.7238 O   0  0  0  0  0  0  0  0  0  0  0  0
    9.7998  -17.0748   26.8741 O   0  0  0  0  0  0  0  0  0  0  0  0
  2  3  1  0
  2  1  1  6
  4  5  1  6
  4  2  1  0
  6  4  1  0
  7  6  2  0
  9  8  1  0
 10  9  1  0
 10 11  1  1
 12 10  1  0
 12 13  1  6
 13  6  1  0
 14 12  1  0
 15 14  2  0
 16 14  1  0
 17 16  1  0
 17 18  1  6
 18 19  1  0
 19 20  2  0
 20 21  1  0
 22 21  2  0
 23 22  1  0
 24 19  1  0
 24 23  2  0
 25 17  1  0
 25 26  1  0
 27 25  2  0
M  END
$$$$
