TIF.pdb
     RDKit          3D

 27 27  0  0  1  0  0  0  0  0999 V2000
   14.0657  -16.7880   17.4705 C   0  0  0  0  0  0  0  0  0  0  0  0
   13.2834  -16.5587   18.7272 C   0  0  1  0  0  0  0  0  0  0  0  0
   14.1139  -16.9213   19.8053 O   0  0  0  0  0  0  0  0  0  0  0  0
   12.9071  -15.1179   18.9403 C   0  0  2  0  0  0  0  0  0  0  0  0
   14.1336  -14.3472   18.9571 N   0  0  0  0  0  0  0  0  0  0  0  0
   12.1648  -14.8685   20.1672 C   0  0  0  0  0  0  0  0  0  0  0  0
   12.6941  -14.5334   21.2590 O   0  0  0  0  0  0  0  0  0  0  0  0
    7.0734  -12.6496   19.6187 C   0  0  0  0  0  0  0  0  0  0  0  0
    8.4403  -13.0379   20.0542 C   0  0  0  0  0  0  0  0  0  0  0  0
    8.5463  -14.1919   20.9780 C   0  0  2  0  0  0  0  0  0  0  0  0
    7.7941  -13.9837   22.2790 C   0  0  0  0  0  0  0  0  0  0  0  0
    9.9293  -14.6602   21.3210 C   0  0  2  0  0  0  0  0  0  0  0  0
   10.7466  -15.0005   20.1782 N   0  0  0  0  0  0  0  0  0  0  0  0
    9.9273  -15.7771   22.3253 C   0  0  0  0  0  0  0  0  0  0  0  0
    9.7385  -16.9727   21.9575 O   0  0  0  0  0  0  0  0  0  0  0  0
   10.1338  -15.5397   23.7037 N   0  0  0  0  0  0  0  0  0  0  0  0
   10.4015  -16.6074   24.6756 C   0  0  1  0  0  0  0  0  0  0  0  0
   11.3462  -16.1628   25.7269 C   0  0  0  0  0  0  0  0  0  0  0  0
   10.7254  -15.2101   26.6478 C   0  0  0  0  0  0  0  0  0  0  0  0
   10.5564  -15.4860   27.9811 C   0  0  0  0  0  0  0  0  0  0  0  0
    9.9618  -14.5601   28.8464 C   0  0  0  0  0  0  0  0  0  0  0  0
    9.5404  -13.3552   28.3526 C   0  0  0  0  0  0  0  0  0  0  0  0
    9.6977  -13.0558   27.0256 C   0  0  0  0  0  0  0  0  0  0  0  0
   10.2920  -13.9903   26.1790 C   0  0  0  0  0  0  0  0  0  0  0  0
    9.1512  -17.1352   25.2386 C   0  0  0  0  0  0  0  0  0  0  0  0
    9.1771  -18.3016   25.9798 O   0  0  0  0  0  0  0  0  0  0  0  0
    8.0674  -16.5537   25.0632 O   0  0  0  0  0  0  0  0  0  0  0  0
  2  3  1  0
  2  1  1  6
  4  5  1  1
  4  2  1  0
  6  4  1  0
  7  6  2  0
  9  8  1  0
 10  9  1  0
 10 11  1  1
 12 10  1  0
 12 13  1  6
 13  6  1  0
 14 12  1  0
 15 14  2  0
 16 14  1  0
 17 16  1  0
 17 18  1  1
 18 19  1  0
 19 20  2  0
 20 21  1  0
 22 21  2  0
 23 22  1  0
 24 19  1  0
 24 23  2  0
 25 17  1  0
 25 26  1  0
 27 25  2  0
M  END
$$$$
