TIF.pdb
     RDKit          3D

 27 27  0  0  1  0  0  0  0  0999 V2000
    9.7651  -13.9160   17.9596 C   0  0  0  0  0  0  0  0  0  0  0  0
    9.2913  -14.4136   19.2907 C   0  0  1  0  0  0  0  0  0  0  0  0
   10.0384  -13.7396   20.2761 O   0  0  0  0  0  0  0  0  0  0  0  0
    7.8443  -14.1043   19.5619 C   0  0  2  0  0  0  0  0  0  0  0  0
    7.6840  -12.6673   19.4731 N   0  0  0  0  0  0  0  0  0  0  0  0
    7.3672  -14.5629   20.8583 C   0  0  0  0  0  0  0  0  0  0  0  0
    7.1974  -13.8137   21.8554 O   0  0  0  0  0  0  0  0  0  0  0  0
    3.7863  -18.8696   20.7025 C   0  0  0  0  0  0  0  0  0  0  0  0
    4.4747  -17.5993   21.0510 C   0  0  0  0  0  0  0  0  0  0  0  0
    5.5935  -17.6875   22.0188 C   0  0  2  0  0  0  0  0  0  0  0  0
    5.1644  -18.2051   23.3788 C   0  0  0  0  0  0  0  0  0  0  0  0
    6.3988  -16.4414   22.2387 C   0  0  2  0  0  0  0  0  0  0  0  0
    7.0607  -15.9399   21.0554 N   0  0  0  0  0  0  0  0  0  0  0  0
    7.3712  -16.5764   23.3755 C   0  0  0  0  0  0  0  0  0  0  0  0
    8.5586  -16.9584   23.1645 O   0  0  0  0  0  0  0  0  0  0  0  0
    7.0030  -16.2856   24.7092 N   0  0  0  0  0  0  0  0  0  0  0  0
    7.9409  -16.3467   25.8374 C   0  0  1  0  0  0  0  0  0  0  0  0
    7.4222  -15.6159   27.0173 C   0  0  0  0  0  0  0  0  0  0  0  0
    7.2315  -14.1929   26.7346 C   0  0  0  0  0  0  0  0  0  0  0  0
    8.2856  -13.3221   26.6222 C   0  0  0  0  0  0  0  0  0  0  0  0
    8.0821  -11.9642   26.3493 C   0  0  0  0  0  0  0  0  0  0  0  0
    6.8059  -11.4957   26.1915 C   0  0  0  0  0  0  0  0  0  0  0  0
    5.7368  -12.3447   26.2990 C   0  0  0  0  0  0  0  0  0  0  0  0
    5.9588  -13.6937   26.5711 C   0  0  0  0  0  0  0  0  0  0  0  0
    8.2949  -17.7367   26.1557 C   0  0  0  0  0  0  0  0  0  0  0  0
    9.4944  -18.0064   26.7873 O   0  0  0  0  0  0  0  0  0  0  0  0
    7.5367  -18.6784   25.8693 O   0  0  0  0  0  0  0  0  0  0  0  0
  2  3  1  0
  2  1  1  6
  4  5  1  1
  4  2  1  0
  6  4  1  0
  7  6  2  0
  9  8  1  0
 10  9  1  0
 10 11  1  1
 12 10  1  0
 12 13  1  6
 13  6  1  0
 14 12  1  0
 15 14  2  0
 16 14  1  0
 17 16  1  0
 17 18  1  1
 18 19  1  0
 19 20  2  0
 20 21  1  0
 22 21  2  0
 23 22  1  0
 24 19  1  0
 24 23  2  0
 25 17  1  0
 25 26  1  0
 27 25  2  0
M  END
$$$$
