TIF.pdb
     RDKit          3D

 27 27  0  0  1  0  0  0  0  0999 V2000
    7.6884  -18.1299   18.7361 C   0  0  0  0  0  0  0  0  0  0  0  0
    8.2163  -17.5923   20.0308 C   0  0  1  0  0  0  0  0  0  0  0  0
    9.5213  -18.0976   20.1892 O   0  0  0  0  0  0  0  0  0  0  0  0
    8.3308  -16.0925   20.0509 C   0  0  2  0  0  0  0  0  0  0  0  0
    9.2103  -15.7102   18.9650 N   0  0  0  0  0  0  0  0  0  0  0  0
    8.8429  -15.5481   21.2999 C   0  0  0  0  0  0  0  0  0  0  0  0
   10.0567  -15.2949   21.5166 O   0  0  0  0  0  0  0  0  0  0  0  0
    6.7693  -12.4779   26.3494 C   0  0  0  0  0  0  0  0  0  0  0  0
    7.7973  -13.2581   25.6123 C   0  0  0  0  0  0  0  0  0  0  0  0
    7.3445  -13.9915   24.4067 C   0  0  2  0  0  0  0  0  0  0  0  0
    6.1788  -14.9233   24.6800 C   0  0  0  0  0  0  0  0  0  0  0  0
    8.3844  -14.7701   23.6571 C   0  0  2  0  0  0  0  0  0  0  0  0
    7.9481  -15.2690   22.3723 N   0  0  0  0  0  0  0  0  0  0  0  0
    8.9834  -15.8740   24.4810 C   0  0  0  0  0  0  0  0  0  0  0  0
    8.4893  -17.0382   24.4534 O   0  0  0  0  0  0  0  0  0  0  0  0
   10.1088  -15.6586   25.3093 N   0  0  0  0  0  0  0  0  0  0  0  0
   10.8537  -16.7452   25.9579 C   0  0  1  0  0  0  0  0  0  0  0  0
   11.9575  -16.2235   26.7976 C   0  0  0  0  0  0  0  0  0  0  0  0
   11.4606  -15.3851   27.8889 C   0  0  0  0  0  0  0  0  0  0  0  0
   11.0872  -14.0791   27.6959 C   0  0  0  0  0  0  0  0  0  0  0  0
   10.6124  -13.2939   28.7531 C   0  0  0  0  0  0  0  0  0  0  0  0
   10.5187  -13.8398   30.0046 C   0  0  0  0  0  0  0  0  0  0  0  0
   10.8852  -15.1410   30.2233 C   0  0  0  0  0  0  0  0  0  0  0  0
   11.3557  -15.9076   29.1584 C   0  0  0  0  0  0  0  0  0  0  0  0
    9.9521  -17.6281   26.7104 C   0  0  0  0  0  0  0  0  0  0  0  0
    8.6486  -17.2319   26.9433 O   0  0  0  0  0  0  0  0  0  0  0  0
   10.3368  -18.7275   27.1430 O   0  0  0  0  0  0  0  0  0  0  0  0
  2  3  1  0
  2  1  1  6
  4  5  1  6
  4  2  1  0
  6  4  1  0
  7  6  2  0
  9  8  1  0
 10  9  1  0
 10 11  1  1
 12 10  1  0
 12 13  1  6
 13  6  1  0
 14 12  1  0
 15 14  2  0
 16 14  1  0
 17 16  1  0
 17 18  1  1
 18 19  1  0
 19 20  2  0
 20 21  1  0
 22 21  2  0
 23 22  1  0
 24 19  1  0
 24 23  2  0
 25 17  1  0
 25 26  1  0
 27 25  2  0
M  END
$$$$
