TIF.pdb
     RDKit          3D

 27 27  0  0  1  0  0  0  0  0999 V2000
    7.2945  -21.1539   21.4736 C   0  0  0  0  0  0  0  0  0  0  0  0
    7.8632  -19.7939   21.7403 C   0  0  1  0  0  0  0  0  0  0  0  0
    9.1396  -19.9809   22.3053 O   0  0  0  0  0  0  0  0  0  0  0  0
    8.0607  -18.9756   20.4935 C   0  0  2  0  0  0  0  0  0  0  0  0
    8.8157  -19.7850   19.5588 N   0  0  0  0  0  0  0  0  0  0  0  0
    8.7552  -17.7148   20.7091 C   0  0  0  0  0  0  0  0  0  0  0  0
    9.9638  -17.5141   20.4202 O   0  0  0  0  0  0  0  0  0  0  0  0
    7.7093  -11.6625   20.6230 C   0  0  0  0  0  0  0  0  0  0  0  0
    8.4781  -12.8122   21.1674 C   0  0  0  0  0  0  0  0  0  0  0  0
    7.8681  -14.1549   21.0217 C   0  0  2  0  0  0  0  0  0  0  0  0
    6.4900  -14.2535   21.6483 C   0  0  0  0  0  0  0  0  0  0  0  0
    8.6748  -15.3218   21.5087 C   0  0  2  0  0  0  0  0  0  0  0  0
    8.0608  -16.6106   21.2812 N   0  0  0  0  0  0  0  0  0  0  0  0
    9.0902  -15.1764   22.9448 C   0  0  0  0  0  0  0  0  0  0  0  0
    9.8191  -14.2087   23.3089 O   0  0  0  0  0  0  0  0  0  0  0  0
    8.6880  -16.1031   23.9340 N   0  0  0  0  0  0  0  0  0  0  0  0
    9.1040  -16.0151   25.3395 C   0  0  1  0  0  0  0  0  0  0  0  0
    7.9481  -15.7793   26.2360 C   0  0  0  0  0  0  0  0  0  0  0  0
    7.5689  -14.3666   26.2738 C   0  0  0  0  0  0  0  0  0  0  0  0
    8.4380  -13.3869   26.6828 C   0  0  0  0  0  0  0  0  0  0  0  0
    8.0564  -12.0403   26.7099 C   0  0  0  0  0  0  0  0  0  0  0  0
    6.7909  -11.6938   26.3206 C   0  0  0  0  0  0  0  0  0  0  0  0
    5.9047  -12.6530   25.9082 C   0  0  0  0  0  0  0  0  0  0  0  0
    6.3025  -13.9888   25.8878 C   0  0  0  0  0  0  0  0  0  0  0  0
    9.8826  -17.1966   25.7351 C   0  0  0  0  0  0  0  0  0  0  0  0
   10.4226  -17.2622   27.0058 O   0  0  0  0  0  0  0  0  0  0  0  0
   10.0664  -18.1419   24.9501 O   0  0  0  0  0  0  0  0  0  0  0  0
  2  3  1  0
  2  1  1  6
  4  5  1  6
  4  2  1  0
  6  4  1  0
  7  6  2  0
  9  8  1  0
 10  9  1  0
 10 11  1  1
 12 10  1  0
 12 13  1  1
 13  6  1  0
 14 12  1  0
 15 14  2  0
 16 14  1  0
 17 16  1  0
 17 18  1  1
 18 19  1  0
 19 20  2  0
 20 21  1  0
 22 21  2  0
 23 22  1  0
 24 19  1  0
 24 23  2  0
 25 17  1  0
 25 26  1  0
 27 25  2  0
M  END
$$$$
