TLI.pdb
     RDKit          3D

 24 23  0  0  1  0  0  0  0  0999 V2000
   26.3770  -22.9340  -16.0955 C   0  0  0  0  0  0  0  0  0  0  0  0
   26.6977  -21.9766  -17.2419 C   0  0  1  0  0  0  0  0  0  0  0  0
   26.1596  -20.7350  -16.9073 O   0  0  0  0  0  0  0  0  0  0  0  0
   28.2119  -21.7832  -17.3188 C   0  0  2  0  0  0  0  0  0  0  0  0
   28.5229  -20.7805  -18.2903 N   0  0  0  0  0  0  0  0  0  0  0  0
   28.9281  -23.0438  -17.5139 C   0  0  0  0  0  0  0  0  0  0  0  0
   28.8320  -23.6859  -18.5858 O   0  0  0  0  0  0  0  0  0  0  0  0
   33.5904  -26.2316  -14.8223 C   0  0  0  0  0  0  0  0  0  0  0  0
   32.5104  -26.1117  -15.8191 C   0  0  2  0  0  0  0  0  0  0  0  0
   33.1582  -26.2268  -17.2284 C   0  0  0  0  0  0  0  0  0  0  0  0
   31.5951  -24.9507  -15.7843 C   0  0  0  0  0  0  0  0  0  0  0  0
   30.4240  -24.8876  -16.6604 C   0  0  2  0  0  0  0  0  0  0  0  0
   29.7496  -23.5728  -16.4964 N   0  0  0  0  0  0  0  0  0  0  0  0
   29.4098  -25.9357  -16.4949 C   0  0  0  0  0  0  0  0  0  0  0  0
   28.6538  -26.1110  -15.5156 O   0  0  0  0  0  0  0  0  0  0  0  0
   24.9460  -26.4453  -18.7987 C   0  0  0  0  0  0  0  0  0  0  0  0
   26.1451  -26.6265  -17.9424 C   0  0  0  0  0  0  0  0  0  0  0  0
   26.9709  -27.8406  -18.1871 C   0  0  2  0  0  0  0  0  0  0  0  0
   26.1383  -29.1207  -18.0058 C   0  0  0  0  0  0  0  0  0  0  0  0
   28.2160  -27.9774  -17.3894 C   0  0  2  0  0  0  0  0  0  0  0  0
   29.1897  -26.9299  -17.5408 N   0  0  0  0  0  0  0  0  0  0  0  0
   28.9179  -29.2716  -17.6612 C   0  0  0  0  0  0  0  0  0  0  0  0
   28.7969  -30.3521  -16.8016 O   0  0  0  0  0  0  0  0  0  0  0  0
   29.6378  -29.4147  -18.6788 O   0  0  0  0  0  0  0  0  0  0  0  0
  2  1  1  1
  2  4  1  0
  3  2  1  0
  4  6  1  0
  4  5  1  6
  6  7  2  0
  9  8  1  1
  9 10  1  0
 11  9  1  0
 12 11  1  1
 13 12  1  0
 13  6  1  0
 14 15  2  0
 14 12  1  0
 17 16  1  0
 17 18  1  0
 18 20  1  0
 18 19  1  1
 20 21  1  6
 20 22  1  0
 21 14  1  0
 22 23  1  0
 24 22  2  0
M  END
$$$$
