TLI.pdb
     RDKit          3D

 24 23  0  0  1  0  0  0  0  0999 V2000
   23.1411  -18.8827   -3.7053 C   0  0  0  0  0  0  0  0  0  0  0  0
   24.1793  -18.3523   -4.6925 C   0  0  1  0  0  0  0  0  0  0  0  0
   25.3591  -18.1433   -3.9801 O   0  0  0  0  0  0  0  0  0  0  0  0
   24.4852  -19.4386   -5.7232 C   0  0  2  0  0  0  0  0  0  0  0  0
   24.6800  -20.6920   -5.0620 N   0  0  0  0  0  0  0  0  0  0  0  0
   25.5758  -19.0647   -6.6237 C   0  0  0  0  0  0  0  0  0  0  0  0
   25.4507  -18.1201   -7.4377 O   0  0  0  0  0  0  0  0  0  0  0  0
   29.7056  -18.4361   -4.5906 C   0  0  0  0  0  0  0  0  0  0  0  0
   29.2785  -19.6360   -5.3338 C   0  0  2  0  0  0  0  0  0  0  0  0
   30.1870  -20.8150   -4.8824 C   0  0  0  0  0  0  0  0  0  0  0  0
   29.1992  -19.6044   -6.8101 C   0  0  0  0  0  0  0  0  0  0  0  0
   27.9256  -19.3668   -7.4916 C   0  0  2  0  0  0  0  0  0  0  0  0
   26.8028  -19.7604   -6.6000 N   0  0  0  0  0  0  0  0  0  0  0  0
   27.7264  -20.0327   -8.7844 C   0  0  0  0  0  0  0  0  0  0  0  0
   28.5815  -20.2348   -9.6727 O   0  0  0  0  0  0  0  0  0  0  0  0
   27.6631  -24.7752   -9.8194 C   0  0  0  0  0  0  0  0  0  0  0  0
   27.5944  -23.2966   -9.9331 C   0  0  0  0  0  0  0  0  0  0  0  0
   26.2972  -22.7140  -10.3734 C   0  0  2  0  0  0  0  0  0  0  0  0
   25.8877  -23.2566  -11.7527 C   0  0  0  0  0  0  0  0  0  0  0  0
   26.2047  -21.2322  -10.4091 C   0  0  2  0  0  0  0  0  0  0  0  0
   26.4139  -20.5492   -9.1609 N   0  0  0  0  0  0  0  0  0  0  0  0
   24.8894  -20.7645  -10.9501 C   0  0  0  0  0  0  0  0  0  0  0  0
   24.0439  -19.9639  -10.1983 O   0  0  0  0  0  0  0  0  0  0  0  0
   24.5145  -21.0855  -12.1036 O   0  0  0  0  0  0  0  0  0  0  0  0
  2  1  1  1
  2  4  1  0
  3  2  1  0
  4  6  1  0
  4  5  1  1
  6  7  2  0
  9  8  1  6
  9 10  1  0
 11  9  1  0
 12 11  1  1
 13 12  1  0
 13  6  1  0
 14 15  2  0
 14 12  1  0
 17 16  1  0
 17 18  1  0
 18 20  1  0
 18 19  1  6
 20 21  1  1
 20 22  1  0
 21 14  1  0
 22 23  1  0
 24 22  2  0
M  END
$$$$
