TLI.pdb
     RDKit          3D

 24 23  0  0  1  0  0  0  0  0999 V2000
   26.6361  -18.2345  -18.0473 C   0  0  0  0  0  0  0  0  0  0  0  0
   26.6204  -18.8659  -16.6564 C   0  0  1  0  0  0  0  0  0  0  0  0
   25.3258  -19.3286  -16.4263 O   0  0  0  0  0  0  0  0  0  0  0  0
   27.5241  -20.0984  -16.6601 C   0  0  2  0  0  0  0  0  0  0  0  0
   27.1294  -20.9847  -17.7112 N   0  0  0  0  0  0  0  0  0  0  0  0
   27.6089  -20.7344  -15.3454 C   0  0  0  0  0  0  0  0  0  0  0  0
   26.8377  -21.6689  -15.0253 O   0  0  0  0  0  0  0  0  0  0  0  0
   31.4210  -20.7499  -10.3706 C   0  0  0  0  0  0  0  0  0  0  0  0
   30.1336  -21.0795  -11.0096 C   0  0  2  0  0  0  0  0  0  0  0  0
   29.9113  -22.6110  -10.8536 C   0  0  0  0  0  0  0  0  0  0  0  0
   29.8768  -20.6784  -12.4096 C   0  0  0  0  0  0  0  0  0  0  0  0
   28.5486  -20.8313  -13.0058 C   0  0  2  0  0  0  0  0  0  0  0  0
   28.5651  -20.3111  -14.3986 N   0  0  0  0  0  0  0  0  0  0  0  0
   27.4254  -20.1987  -12.3040 C   0  0  0  0  0  0  0  0  0  0  0  0
   27.1170  -18.9878  -12.3037 O   0  0  0  0  0  0  0  0  0  0  0  0
   22.7826  -21.0309  -13.6027 C   0  0  0  0  0  0  0  0  0  0  0  0
   23.8110  -20.2868  -12.8329 C   0  0  0  0  0  0  0  0  0  0  0  0
   24.0452  -20.7192  -11.4279 C   0  0  2  0  0  0  0  0  0  0  0  0
   22.9600  -20.1633  -10.4907 C   0  0  0  0  0  0  0  0  0  0  0  0
   25.3730  -20.4053  -10.8415 C   0  0  2  0  0  0  0  0  0  0  0  0
   26.5129  -20.9958  -11.4898 N   0  0  0  0  0  0  0  0  0  0  0  0
   25.4498  -20.7780   -9.3935 C   0  0  0  0  0  0  0  0  0  0  0  0
   25.0632  -19.8927   -8.3995 O   0  0  0  0  0  0  0  0  0  0  0  0
   25.8679  -21.9063   -9.0382 O   0  0  0  0  0  0  0  0  0  0  0  0
  2  1  1  6
  2  4  1  0
  3  2  1  0
  4  6  1  0
  4  5  1  6
  6  7  2  0
  9  8  1  6
  9 10  1  0
 11  9  1  0
 12 11  1  1
 13 12  1  0
 13  6  1  0
 14 15  2  0
 14 12  1  0
 17 16  1  0
 17 18  1  0
 18 20  1  0
 18 19  1  1
 20 21  1  6
 20 22  1  0
 21 14  1  0
 22 23  1  0
 24 22  2  0
M  END
$$$$
