TLI.pdb
     RDKit          3D

 24 23  0  0  1  0  0  0  0  0999 V2000
   26.1421  -19.9669  -16.8417 C   0  0  0  0  0  0  0  0  0  0  0  0
   27.2836  -19.3083  -16.0690 C   0  0  1  0  0  0  0  0  0  0  0  0
   26.7389  -18.2434  -15.3532 O   0  0  0  0  0  0  0  0  0  0  0  0
   27.8166  -20.2965  -15.0321 C   0  0  2  0  0  0  0  0  0  0  0  0
   28.5616  -21.3284  -15.6851 N   0  0  0  0  0  0  0  0  0  0  0  0
   26.7681  -20.7923  -14.1405 C   0  0  0  0  0  0  0  0  0  0  0  0
   26.1379  -21.8437  -14.4010 O   0  0  0  0  0  0  0  0  0  0  0  0
   25.5109  -22.1605   -9.3817 C   0  0  0  0  0  0  0  0  0  0  0  0
   26.0843  -20.8479   -9.7318 C   0  0  2  0  0  0  0  0  0  0  0  0
   26.2330  -20.0348   -8.4143 C   0  0  0  0  0  0  0  0  0  0  0  0
   25.4398  -20.0093  -10.7654 C   0  0  0  0  0  0  0  0  0  0  0  0
   25.2670  -20.4996  -12.1338 C   0  0  2  0  0  0  0  0  0  0  0  0
   26.4369  -20.0973  -12.9584 N   0  0  0  0  0  0  0  0  0  0  0  0
   24.0525  -20.0810  -12.8440 C   0  0  0  0  0  0  0  0  0  0  0  0
   23.8540  -18.9965  -13.4319 O   0  0  0  0  0  0  0  0  0  0  0  0
   20.5581  -21.7756  -17.2876 C   0  0  0  0  0  0  0  0  0  0  0  0
   20.5285  -21.1836  -15.9265 C   0  0  0  0  0  0  0  0  0  0  0  0
   21.7104  -21.4339  -15.0567 C   0  0  2  0  0  0  0  0  0  0  0  0
   21.8497  -22.9304  -14.7313 C   0  0  0  0  0  0  0  0  0  0  0  0
   21.7807  -20.6716  -13.7842 C   0  0  2  0  0  0  0  0  0  0  0  0
   22.8948  -20.9666  -12.9240 N   0  0  0  0  0  0  0  0  0  0  0  0
   20.5385  -20.8319  -12.9641 C   0  0  0  0  0  0  0  0  0  0  0  0
   20.5773  -21.3980  -11.6995 O   0  0  0  0  0  0  0  0  0  0  0  0
   19.4235  -20.4569  -13.4003 O   0  0  0  0  0  0  0  0  0  0  0  0
  2  1  1  1
  2  4  1  0
  3  2  1  0
  4  6  1  0
  4  5  1  6
  6  7  2  0
  9  8  1  1
  9 10  1  0
 11  9  1  0
 12 11  1  1
 13 12  1  0
 13  6  1  0
 14 15  2  0
 14 12  1  0
 17 16  1  0
 17 18  1  0
 18 20  1  0
 18 19  1  1
 20 21  1  1
 20 22  1  0
 21 14  1  0
 22 23  1  0
 24 22  2  0
M  END
$$$$
