TLI.pdb
     RDKit          3D

 24 23  0  0  1  0  0  0  0  0999 V2000
   27.1752  -18.2888  -13.9597 C   0  0  0  0  0  0  0  0  0  0  0  0
   27.6404  -19.5941  -14.6027 C   0  0  1  0  0  0  0  0  0  0  0  0
   28.7044  -19.2832  -15.4480 O   0  0  0  0  0  0  0  0  0  0  0  0
   28.2061  -20.5088  -13.5168 C   0  0  2  0  0  0  0  0  0  0  0  0
   28.8563  -21.6312  -14.1198 N   0  0  0  0  0  0  0  0  0  0  0  0
   27.2061  -20.8693  -12.5116 C   0  0  0  0  0  0  0  0  0  0  0  0
   26.4489  -21.8546  -12.6734 O   0  0  0  0  0  0  0  0  0  0  0  0
   26.7453  -21.6044   -7.5451 C   0  0  0  0  0  0  0  0  0  0  0  0
   27.0890  -20.3054   -8.1526 C   0  0  2  0  0  0  0  0  0  0  0  0
   27.3799  -19.3086   -6.9947 C   0  0  0  0  0  0  0  0  0  0  0  0
   26.1741  -19.6796   -9.1315 C   0  0  0  0  0  0  0  0  0  0  0  0
   25.9042  -20.3134  -10.4231 C   0  0  2  0  0  0  0  0  0  0  0  0
   27.0668  -20.1142  -11.3282 N   0  0  0  0  0  0  0  0  0  0  0  0
   24.6986  -19.8805  -11.1396 C   0  0  0  0  0  0  0  0  0  0  0  0
   24.5255  -18.8047  -11.7512 O   0  0  0  0  0  0  0  0  0  0  0  0
   21.9286  -21.1271  -15.9400 C   0  0  0  0  0  0  0  0  0  0  0  0
   21.6429  -20.7394  -14.5357 C   0  0  0  0  0  0  0  0  0  0  0  0
   22.7273  -20.9633  -13.5408 C   0  0  2  0  0  0  0  0  0  0  0  0
   23.1376  -22.4446  -13.4948 C   0  0  0  0  0  0  0  0  0  0  0  0
   22.4677  -20.5081  -12.1513 C   0  0  2  0  0  0  0  0  0  0  0  0
   23.5188  -20.7383  -11.1971 N   0  0  0  0  0  0  0  0  0  0  0  0
   21.2210  -21.1140  -11.5855 C   0  0  0  0  0  0  0  0  0  0  0  0
   19.9661  -20.7314  -12.0326 O   0  0  0  0  0  0  0  0  0  0  0  0
   21.2777  -21.9882  -10.6874 O   0  0  0  0  0  0  0  0  0  0  0  0
  2  1  1  1
  2  4  1  0
  3  2  1  0
  4  6  1  0
  4  5  1  6
  6  7  2  0
  9  8  1  1
  9 10  1  0
 11  9  1  0
 12 11  1  1
 13 12  1  0
 13  6  1  0
 14 15  2  0
 14 12  1  0
 17 16  1  0
 17 18  1  0
 18 20  1  0
 18 19  1  1
 20 21  1  1
 20 22  1  0
 21 14  1  0
 22 23  1  0
 24 22  2  0
M  END
$$$$
