TLI.pdb
     RDKit          3D

 24 23  0  0  1  0  0  0  0  0999 V2000
   18.6135  -26.9880   -7.6604 C   0  0  0  0  0  0  0  0  0  0  0  0
   17.6716  -26.5484   -6.5409 C   0  0  1  0  0  0  0  0  0  0  0  0
   17.7974  -27.4742   -5.5064 O   0  0  0  0  0  0  0  0  0  0  0  0
   18.1544  -25.2101   -5.9823 C   0  0  2  0  0  0  0  0  0  0  0  0
   17.4085  -24.8786   -4.8076 N   0  0  0  0  0  0  0  0  0  0  0  0
   18.1712  -24.1542   -6.9947 C   0  0  0  0  0  0  0  0  0  0  0  0
   17.1136  -23.5933   -7.3654 O   0  0  0  0  0  0  0  0  0  0  0  0
   22.4989  -20.6821   -9.9234 C   0  0  0  0  0  0  0  0  0  0  0  0
   21.1023  -21.1263   -9.7600 C   0  0  2  0  0  0  0  0  0  0  0  0
   20.2194  -19.8540   -9.6164 C   0  0  0  0  0  0  0  0  0  0  0  0
   20.7526  -22.0981   -8.7015 C   0  0  0  0  0  0  0  0  0  0  0  0
   19.4071  -22.6686   -8.6168 C   0  0  2  0  0  0  0  0  0  0  0  0
   19.3835  -23.7372   -7.5834 N   0  0  0  0  0  0  0  0  0  0  0  0
   18.8396  -23.2252   -9.8507 C   0  0  0  0  0  0  0  0  0  0  0  0
   19.0868  -24.3370  -10.3645 O   0  0  0  0  0  0  0  0  0  0  0  0
   13.9995  -24.8464  -12.7610 C   0  0  0  0  0  0  0  0  0  0  0  0
   15.3109  -24.1683  -12.9169 C   0  0  0  0  0  0  0  0  0  0  0  0
   15.9389  -23.6234  -11.6822 C   0  0  2  0  0  0  0  0  0  0  0  0
   15.0114  -22.6095  -10.9919 C   0  0  0  0  0  0  0  0  0  0  0  0
   17.2804  -23.0034  -11.8290 C   0  0  2  0  0  0  0  0  0  0  0  0
   17.8693  -22.4649  -10.6325 N   0  0  0  0  0  0  0  0  0  0  0  0
   17.2847  -21.9094  -12.8510 C   0  0  0  0  0  0  0  0  0  0  0  0
   17.1713  -22.1863  -14.2044 O   0  0  0  0  0  0  0  0  0  0  0  0
   17.3915  -20.7068  -12.5095 O   0  0  0  0  0  0  0  0  0  0  0  0
  2  1  1  6
  2  4  1  0
  3  2  1  0
  4  6  1  0
  4  5  1  1
  6  7  2  0
  9  8  1  1
  9 10  1  0
 11  9  1  0
 12 11  1  6
 13 12  1  0
 13  6  1  0
 14 15  2  0
 14 12  1  0
 17 16  1  0
 17 18  1  0
 18 20  1  0
 18 19  1  6
 20 21  1  1
 20 22  1  0
 21 14  1  0
 22 23  1  0
 24 22  2  0
M  END
$$$$
