TLI.pdb
     RDKit          3D

 24 23  0  0  1  0  0  0  0  0999 V2000
   19.9960   -9.5326  -19.1365 C   0  0  0  0  0  0  0  0  0  0  0  0
   19.1248  -10.4076  -18.2370 C   0  0  1  0  0  0  0  0  0  0  0  0
   18.2651  -11.1267  -19.0658 O   0  0  0  0  0  0  0  0  0  0  0  0
   20.0109  -11.4380  -17.5376 C   0  0  2  0  0  0  0  0  0  0  0  0
   19.1946  -12.4152  -16.8856 N   0  0  0  0  0  0  0  0  0  0  0  0
   21.0089  -10.8184  -16.6657 C   0  0  0  0  0  0  0  0  0  0  0  0
   20.6855  -10.3118  -15.5661 O   0  0  0  0  0  0  0  0  0  0  0  0
   27.2431  -10.2077  -16.3597 C   0  0  0  0  0  0  0  0  0  0  0  0
   25.8874   -9.7637  -15.9861 C   0  0  2  0  0  0  0  0  0  0  0  0
   25.8159   -9.7320  -14.4327 C   0  0  0  0  0  0  0  0  0  0  0  0
   24.7026  -10.4652  -16.5257 C   0  0  0  0  0  0  0  0  0  0  0  0
   23.3504   -9.9646  -16.2730 C   0  0  2  0  0  0  0  0  0  0  0  0
   22.3681  -10.7743  -17.0410 N   0  0  0  0  0  0  0  0  0  0  0  0
   23.0963   -8.5500  -16.5709 C   0  0  0  0  0  0  0  0  0  0  0  0
   23.1008   -7.9988  -17.6922 O   0  0  0  0  0  0  0  0  0  0  0  0
   19.5041   -4.3357  -17.4075 C   0  0  0  0  0  0  0  0  0  0  0  0
   20.7434   -4.5780  -16.6267 C   0  0  0  0  0  0  0  0  0  0  0  0
   21.1461   -5.9968  -16.4246 C   0  0  2  0  0  0  0  0  0  0  0  0
   20.0728   -6.7692  -15.6396 C   0  0  0  0  0  0  0  0  0  0  0  0
   22.4604   -6.2354  -15.7757 C   0  0  2  0  0  0  0  0  0  0  0  0
   22.7961   -7.6061  -15.4986 N   0  0  0  0  0  0  0  0  0  0  0  0
   22.5969   -5.4815  -14.4895 C   0  0  0  0  0  0  0  0  0  0  0  0
   22.7354   -6.1408  -13.2782 O   0  0  0  0  0  0  0  0  0  0  0  0
   22.5897   -4.2270  -14.4722 O   0  0  0  0  0  0  0  0  0  0  0  0
  2  1  1  6
  2  4  1  0
  3  2  1  0
  4  6  1  0
  4  5  1  1
  6  7  2  0
  9  8  1  1
  9 10  1  0
 11  9  1  0
 12 11  1  6
 13 12  1  0
 13  6  1  0
 14 15  2  0
 14 12  1  0
 17 16  1  0
 17 18  1  0
 18 20  1  0
 18 19  1  1
 20 21  1  1
 20 22  1  0
 21 14  1  0
 22 23  1  0
 24 22  2  0
M  END
$$$$
