TLI.pdb
     RDKit          3D

 24 23  0  0  1  0  0  0  0  0999 V2000
   28.6733  -20.2389  -17.7103 C   0  0  0  0  0  0  0  0  0  0  0  0
   27.4814  -20.3632  -16.7629 C   0  0  1  0  0  0  0  0  0  0  0  0
   26.3357  -20.4670  -17.5502 O   0  0  0  0  0  0  0  0  0  0  0  0
   27.5947  -21.6780  -15.9919 C   0  0  2  0  0  0  0  0  0  0  0  0
   27.6121  -22.7764  -16.9082 N   0  0  0  0  0  0  0  0  0  0  0  0
   26.5872  -21.7977  -14.9381 C   0  0  0  0  0  0  0  0  0  0  0  0
   25.5564  -22.4916  -15.1011 O   0  0  0  0  0  0  0  0  0  0  0  0
   25.8753  -19.9033   -8.9862 C   0  0  0  0  0  0  0  0  0  0  0  0
   25.3352  -20.4941  -10.2246 C   0  0  2  0  0  0  0  0  0  0  0  0
   24.6485  -21.8364   -9.8429 C   0  0  0  0  0  0  0  0  0  0  0  0
   26.2171  -20.6999  -11.3937 C   0  0  0  0  0  0  0  0  0  0  0  0
   25.6744  -21.1466  -12.6778 C   0  0  2  0  0  0  0  0  0  0  0  0
   26.7494  -21.1324  -13.7048 N   0  0  0  0  0  0  0  0  0  0  0  0
   24.5309  -20.3994  -13.2150 C   0  0  0  0  0  0  0  0  0  0  0  0
   24.5143  -19.2094  -13.5956 O   0  0  0  0  0  0  0  0  0  0  0  0
   22.6206  -20.8218  -17.7485 C   0  0  0  0  0  0  0  0  0  0  0  0
   22.9025  -20.4496  -16.3393 C   0  0  0  0  0  0  0  0  0  0  0  0
   21.8033  -20.6514  -15.3560 C   0  0  2  0  0  0  0  0  0  0  0  0
   20.5467  -19.8639  -15.7629 C   0  0  0  0  0  0  0  0  0  0  0  0
   22.1079  -20.3419  -13.9358 C   0  0  2  0  0  0  0  0  0  0  0  0
   23.2255  -21.0372  -13.3563 N   0  0  0  0  0  0  0  0  0  0  0  0
   20.9303  -20.5832  -13.0433 C   0  0  0  0  0  0  0  0  0  0  0  0
   20.2071  -19.5313  -12.5033 O   0  0  0  0  0  0  0  0  0  0  0  0
   20.5640  -21.7488  -12.7583 O   0  0  0  0  0  0  0  0  0  0  0  0
  2  1  1  6
  2  4  1  0
  3  2  1  0
  4  6  1  0
  4  5  1  6
  6  7  2  0
  9  8  1  1
  9 10  1  0
 11  9  1  0
 12 11  1  1
 13 12  1  0
 13  6  1  0
 14 15  2  0
 14 12  1  0
 17 16  1  0
 17 18  1  0
 18 20  1  0
 18 19  1  6
 20 21  1  1
 20 22  1  0
 21 14  1  0
 22 23  1  0
 24 22  2  0
M  END
$$$$
