TLI.pdb
     RDKit          3D

 24 23  0  0  1  0  0  0  0  0999 V2000
   18.9322  -24.2463  -12.7876 C   0  0  0  0  0  0  0  0  0  0  0  0
   19.4447  -22.8533  -13.1489 C   0  0  1  0  0  0  0  0  0  0  0  0
   18.3337  -22.0714  -13.4611 O   0  0  0  0  0  0  0  0  0  0  0  0
   20.0817  -22.2219  -11.9114 C   0  0  2  0  0  0  0  0  0  0  0  0
   19.0619  -21.6966  -11.0568 N   0  0  0  0  0  0  0  0  0  0  0  0
   21.1290  -21.2585  -12.2506 C   0  0  0  0  0  0  0  0  0  0  0  0
   20.9075  -20.0251  -12.2314 O   0  0  0  0  0  0  0  0  0  0  0  0
   24.9286  -19.9037  -10.2032 C   0  0  0  0  0  0  0  0  0  0  0  0
   24.9952  -21.1617  -10.9696 C   0  0  2  0  0  0  0  0  0  0  0  0
   26.3660  -21.8277  -10.6592 C   0  0  0  0  0  0  0  0  0  0  0  0
   24.7642  -21.1531  -12.4302 C   0  0  0  0  0  0  0  0  0  0  0  0
   23.4814  -20.7215  -12.9879 C   0  0  2  0  0  0  0  0  0  0  0  0
   22.4219  -21.6936  -12.6100 N   0  0  0  0  0  0  0  0  0  0  0  0
   23.4167  -20.5299  -14.4417 C   0  0  0  0  0  0  0  0  0  0  0  0
   23.2498  -21.4076  -15.3152 O   0  0  0  0  0  0  0  0  0  0  0  0
   20.4773  -16.6232  -16.7172 C   0  0  0  0  0  0  0  0  0  0  0  0
   21.2333  -17.8928  -16.5744 C   0  0  0  0  0  0  0  0  0  0  0  0
   22.6797  -17.8590  -16.9246 C   0  0  2  0  0  0  0  0  0  0  0  0
   22.8773  -17.7224  -18.4436 C   0  0  0  0  0  0  0  0  0  0  0  0
   23.5128  -18.9914  -16.4461 C   0  0  2  0  0  0  0  0  0  0  0  0
   23.5531  -19.1980  -15.0235 N   0  0  0  0  0  0  0  0  0  0  0  0
   24.9308  -18.8825  -16.9140 C   0  0  0  0  0  0  0  0  0  0  0  0
   25.9216  -18.3600  -16.0976 O   0  0  0  0  0  0  0  0  0  0  0  0
   25.2630  -19.2626  -18.0626 O   0  0  0  0  0  0  0  0  0  0  0  0
  2  1  1  1
  2  4  1  0
  3  2  1  0
  4  6  1  0
  4  5  1  6
  6  7  2  0
  9  8  1  6
  9 10  1  0
 11  9  1  0
 12 11  1  6
 13 12  1  0
 13  6  1  0
 14 15  2  0
 14 12  1  0
 17 16  1  0
 17 18  1  0
 18 20  1  0
 18 19  1  6
 20 21  1  1
 20 22  1  0
 21 14  1  0
 22 23  1  0
 24 22  2  0
M  END
$$$$
