TLI.pdb
     RDKit          3D

 24 23  0  0  1  0  0  0  0  0999 V2000
   20.8228  -24.1261  -15.2894 C   0  0  0  0  0  0  0  0  0  0  0  0
   20.3234  -22.6833  -15.2402 C   0  0  1  0  0  0  0  0  0  0  0  0
   18.9890  -22.6929  -15.6431 O   0  0  0  0  0  0  0  0  0  0  0  0
   20.3317  -22.2039  -13.7889 C   0  0  2  0  0  0  0  0  0  0  0  0
   19.0847  -21.5750  -13.4799 N   0  0  0  0  0  0  0  0  0  0  0  0
   21.5042  -21.3870  -13.4759 C   0  0  0  0  0  0  0  0  0  0  0  0
   21.4789  -20.1403  -13.6005 O   0  0  0  0  0  0  0  0  0  0  0  0
   26.8329  -21.7541  -10.3043 C   0  0  0  0  0  0  0  0  0  0  0  0
   26.0194  -21.1237  -11.3603 C   0  0  2  0  0  0  0  0  0  0  0  0
   25.8982  -19.6112  -11.0187 C   0  0  0  0  0  0  0  0  0  0  0  0
   24.6854  -21.6683  -11.6928 C   0  0  0  0  0  0  0  0  0  0  0  0
   23.9415  -21.1824  -12.8562 C   0  0  2  0  0  0  0  0  0  0  0  0
   22.7000  -21.9832  -13.0234 N   0  0  0  0  0  0  0  0  0  0  0  0
   24.6469  -21.1744  -14.1433 C   0  0  0  0  0  0  0  0  0  0  0  0
   25.1279  -22.1550  -14.7502 O   0  0  0  0  0  0  0  0  0  0  0  0
   24.1201  -21.2624  -19.6484 C   0  0  0  0  0  0  0  0  0  0  0  0
   24.9176  -20.5038  -18.6522 C   0  0  0  0  0  0  0  0  0  0  0  0
   24.4875  -20.6000  -17.2303 C   0  0  2  0  0  0  0  0  0  0  0  0
   23.0413  -20.1073  -17.0561 C   0  0  0  0  0  0  0  0  0  0  0  0
   25.3379  -19.9147  -16.2241 C   0  0  2  0  0  0  0  0  0  0  0  0
   24.8575  -19.9251  -14.8686 N   0  0  0  0  0  0  0  0  0  0  0  0
   25.5963  -18.4853  -16.5870 C   0  0  0  0  0  0  0  0  0  0  0  0
   25.2226  -17.4488  -15.7461 O   0  0  0  0  0  0  0  0  0  0  0  0
   26.1604  -18.1849  -17.6667 O   0  0  0  0  0  0  0  0  0  0  0  0
  2  1  1  1
  2  4  1  0
  3  2  1  0
  4  6  1  0
  4  5  1  6
  6  7  2  0
  9  8  1  1
  9 10  1  0
 11  9  1  0
 12 11  1  1
 13 12  1  0
 13  6  1  0
 14 15  2  0
 14 12  1  0
 17 16  1  0
 17 18  1  0
 18 20  1  0
 18 19  1  6
 20 21  1  1
 20 22  1  0
 21 14  1  0
 22 23  1  0
 24 22  2  0
M  END
$$$$
