TLI.pdb
     RDKit          3D

 24 23  0  0  1  0  0  0  0  0999 V2000
   26.3792  -22.7387  -11.6142 C   0  0  0  0  0  0  0  0  0  0  0  0
   25.7941  -21.7502  -12.6212 C   0  0  1  0  0  0  0  0  0  0  0  0
   24.5932  -22.2889  -13.0804 O   0  0  0  0  0  0  0  0  0  0  0  0
   25.4349  -20.4546  -11.8943 C   0  0  2  0  0  0  0  0  0  0  0  0
   24.4945  -20.7293  -10.8520 N   0  0  0  0  0  0  0  0  0  0  0  0
   25.0142  -19.3959  -12.8120 C   0  0  0  0  0  0  0  0  0  0  0  0
   23.8965  -18.8413  -12.6948 O   0  0  0  0  0  0  0  0  0  0  0  0
   27.8989  -15.6167  -16.8604 C   0  0  0  0  0  0  0  0  0  0  0  0
   26.6932  -16.0070  -16.1065 C   0  0  2  0  0  0  0  0  0  0  0  0
   26.1725  -14.7415  -15.3673 C   0  0  0  0  0  0  0  0  0  0  0  0
   26.7433  -17.1480  -15.1671 C   0  0  0  0  0  0  0  0  0  0  0  0
   25.5151  -17.7834  -14.6868 C   0  0  2  0  0  0  0  0  0  0  0  0
   25.8590  -18.9689  -13.8580 N   0  0  0  0  0  0  0  0  0  0  0  0
   24.5448  -18.2117  -15.7015 C   0  0  0  0  0  0  0  0  0  0  0  0
   24.5653  -19.2653  -16.3728 O   0  0  0  0  0  0  0  0  0  0  0  0
   19.6462  -19.4874  -14.9044 C   0  0  0  0  0  0  0  0  0  0  0  0
   20.9576  -19.2745  -15.5670 C   0  0  0  0  0  0  0  0  0  0  0  0
   21.0658  -18.1107  -16.4889 C   0  0  2  0  0  0  0  0  0  0  0  0
   20.1163  -18.2662  -17.6886 C   0  0  0  0  0  0  0  0  0  0  0  0
   22.4202  -17.7872  -17.0052 C   0  0  2  0  0  0  0  0  0  0  0  0
   23.3939  -17.3761  -16.0299 N   0  0  0  0  0  0  0  0  0  0  0  0
   22.3803  -16.7256  -18.0601 C   0  0  0  0  0  0  0  0  0  0  0  0
   22.5357  -17.0360  -19.4019 O   0  0  0  0  0  0  0  0  0  0  0  0
   22.2044  -15.5207  -17.7576 O   0  0  0  0  0  0  0  0  0  0  0  0
  2  1  1  1
  2  4  1  0
  3  2  1  0
  4  6  1  0
  4  5  1  1
  6  7  2  0
  9  8  1  1
  9 10  1  0
 11  9  1  0
 12 11  1  6
 13 12  1  0
 13  6  1  0
 14 15  2  0
 14 12  1  0
 17 16  1  0
 17 18  1  0
 18 20  1  0
 18 19  1  6
 20 21  1  1
 20 22  1  0
 21 14  1  0
 22 23  1  0
 24 22  2  0
M  END
$$$$
