TLI.pdb
     RDKit          3D

 24 23  0  0  1  0  0  0  0  0999 V2000
   27.0619  -24.3072  -19.1780 C   0  0  0  0  0  0  0  0  0  0  0  0
   26.7143  -23.5924  -17.8734 C   0  0  1  0  0  0  0  0  0  0  0  0
   26.7750  -24.5402  -16.8530 O   0  0  0  0  0  0  0  0  0  0  0  0
   27.7995  -22.5605  -17.5679 C   0  0  2  0  0  0  0  0  0  0  0  0
   29.0733  -23.2067  -17.4890 N   0  0  0  0  0  0  0  0  0  0  0  0
   27.4767  -21.7366  -16.4030 C   0  0  0  0  0  0  0  0  0  0  0  0
   28.0566  -21.9085  -15.3054 O   0  0  0  0  0  0  0  0  0  0  0  0
   28.1610  -17.1862  -15.5297 C   0  0  0  0  0  0  0  0  0  0  0  0
   27.0321  -17.5681  -16.3981 C   0  0  2  0  0  0  0  0  0  0  0  0
   26.4057  -16.2583  -16.9558 C   0  0  0  0  0  0  0  0  0  0  0  0
   25.9643  -18.4506  -15.8805 C   0  0  0  0  0  0  0  0  0  0  0  0
   26.2748  -19.7812  -15.3552 C   0  0  2  0  0  0  0  0  0  0  0  0
   26.4997  -20.7222  -16.4841 N   0  0  0  0  0  0  0  0  0  0  0  0
   25.2887  -20.3894  -14.4540 C   0  0  0  0  0  0  0  0  0  0  0  0
   24.3721  -21.1824  -14.7575 O   0  0  0  0  0  0  0  0  0  0  0  0
   26.3307  -20.5353   -8.8272 C   0  0  0  0  0  0  0  0  0  0  0  0
   25.8803  -21.0333  -10.1512 C   0  0  0  0  0  0  0  0  0  0  0  0
   24.5987  -20.4877  -10.6763 C   0  0  2  0  0  0  0  0  0  0  0  0
   23.3983  -21.0507   -9.8973 C   0  0  0  0  0  0  0  0  0  0  0  0
   24.3378  -20.6658  -12.1273 C   0  0  2  0  0  0  0  0  0  0  0  0
   25.3038  -20.0918  -13.0249 N   0  0  0  0  0  0  0  0  0  0  0  0
   22.9969  -20.1326  -12.5264 C   0  0  0  0  0  0  0  0  0  0  0  0
   22.8348  -18.8163  -12.9290 O   0  0  0  0  0  0  0  0  0  0  0  0
   21.9787  -20.8655  -12.5075 O   0  0  0  0  0  0  0  0  0  0  0  0
  2  1  1  6
  2  4  1  0
  3  2  1  0
  4  6  1  0
  4  5  1  1
  6  7  2  0
  9  8  1  1
  9 10  1  0
 11  9  1  0
 12 11  1  6
 13 12  1  0
 13  6  1  0
 14 15  2  0
 14 12  1  0
 17 16  1  0
 17 18  1  0
 18 20  1  0
 18 19  1  1
 20 21  1  6
 20 22  1  0
 21 14  1  0
 22 23  1  0
 24 22  2  0
M  END
$$$$
