VNK.pdb
     RDKit          3D

 25 24  0  0  1  0  0  0  0  0999 V2000
    7.1643  -12.8521   18.5396 C   0  0  0  0  0  0  0  0  0  0  0  0
    8.5345  -13.3920   18.8377 C   0  0  1  0  0  0  0  0  0  0  0  0
    9.2942  -12.4380   19.7067 C   0  0  0  0  0  0  0  0  0  0  0  0
    8.3817  -14.7611   19.4631 C   0  0  2  0  0  0  0  0  0  0  0  0
    7.6241  -14.5831   20.6878 N   0  0  0  0  0  0  0  0  0  0  0  0
    9.6949  -15.3539   19.7914 C   0  0  0  0  0  0  0  0  0  0  0  0
   10.3659  -15.9142   18.9079 O   0  0  0  0  0  0  0  0  0  0  0  0
   13.5983  -13.8201   19.3460 N   0  0  0  0  0  0  0  0  0  0  0  0
   13.2194  -15.0146   20.0334 C   0  0  0  0  0  0  0  0  0  0  0  0
   13.4200  -16.0910   19.4210 O   0  0  0  0  0  0  0  0  0  0  0  0
   12.6327  -14.9606   21.3744 C   0  0  0  0  0  0  0  0  0  0  0  0
   11.4551  -15.8689   21.5148 C   0  0  2  0  0  0  0  0  0  0  0  0
   10.2055  -15.2904   21.1192 N   0  0  0  0  0  0  0  0  0  0  0  0
   11.3508  -16.2313   22.9727 C   0  0  0  0  0  0  0  0  0  0  0  0
   12.3650  -16.6313   23.6230 O   0  0  0  0  0  0  0  0  0  0  0  0
   10.1263  -16.1443   23.6836 N   0  0  0  0  0  0  0  0  0  0  0  0
    9.9048  -16.9236   24.9150 C   0  0  1  0  0  0  0  0  0  0  0  0
    8.8204  -17.9079   24.5936 C   0  0  0  0  0  0  0  0  0  0  0  0
    7.6182  -17.3235   23.9297 C   0  0  0  0  0  0  0  0  0  0  0  0
    6.6063  -18.4179   23.6869 C   0  0  0  0  0  0  0  0  0  0  0  0
    5.4720  -17.7850   22.9022 C   0  0  0  0  0  0  0  0  0  0  0  0
    4.4946  -18.8050   22.5743 N   0  0  0  0  0  0  0  0  0  0  0  0
   11.1657  -17.6685   25.1629 C   0  0  0  0  0  0  0  0  0  0  0  0
   11.6487  -18.6555   24.2891 O   0  0  0  0  0  0  0  0  0  0  0  0
   11.8912  -17.4631   26.1809 O   0  0  0  0  0  0  0  0  0  0  0  0
  2  1  1  1
  2  4  1  0
  2  3  1  0
  4  5  1  1
  4  6  1  0
  6  7  2  0
  9  8  1  0
 10  9  2  0
 12 11  1  1
 11  9  1  0
 13  6  1  0
 13 12  1  0
 14 12  1  0
 14 15  2  0
 16 14  1  0
 17 23  1  0
 17 16  1  0
 17 18  1  6
 19 18  1  0
 20 19  1  0
 21 20  1  0
 21 22  1  0
 23 24  1  0
 25 23  2  0
M  END
$$$$
