VNK.pdb
     RDKit          3D

 25 24  0  0  1  0  0  0  0  0999 V2000
    7.1629  -12.5962   19.3912 C   0  0  0  0  0  0  0  0  0  0  0  0
    8.1083  -13.7614   19.4711 C   0  0  1  0  0  0  0  0  0  0  0  0
    7.8280  -14.7379   18.3710 C   0  0  0  0  0  0  0  0  0  0  0  0
    9.5243  -13.2295   19.4369 C   0  0  2  0  0  0  0  0  0  0  0  0
    9.7424  -12.6961   18.1053 N   0  0  0  0  0  0  0  0  0  0  0  0
   10.5093  -14.3008   19.6936 C   0  0  0  0  0  0  0  0  0  0  0  0
   10.2855  -15.1599   20.5634 O   0  0  0  0  0  0  0  0  0  0  0  0
   11.8672  -16.7322   16.9147 N   0  0  0  0  0  0  0  0  0  0  0  0
   13.1596  -16.1231   16.8737 C   0  0  0  0  0  0  0  0  0  0  0  0
   13.7611  -16.1786   15.7741 O   0  0  0  0  0  0  0  0  0  0  0  0
   13.7284  -15.4776   18.0591 C   0  0  0  0  0  0  0  0  0  0  0  0
   12.7347  -15.3514   19.1673 C   0  0  2  0  0  0  0  0  0  0  0  0
   11.7224  -14.3612   18.9503 N   0  0  0  0  0  0  0  0  0  0  0  0
   13.5015  -14.9592   20.4027 C   0  0  0  0  0  0  0  0  0  0  0  0
   13.9900  -13.7943   20.5288 O   0  0  0  0  0  0  0  0  0  0  0  0
   13.7133  -15.8633   21.4750 N   0  0  0  0  0  0  0  0  0  0  0  0
   14.3703  -15.4260   22.7200 C   0  0  1  0  0  0  0  0  0  0  0  0
   13.9917  -16.4329   23.7645 C   0  0  0  0  0  0  0  0  0  0  0  0
   12.5391  -16.4688   24.1051 C   0  0  0  0  0  0  0  0  0  0  0  0
   12.2888  -17.5883   25.0873 C   0  0  0  0  0  0  0  0  0  0  0  0
   10.8033  -17.5624   25.3960 C   0  0  0  0  0  0  0  0  0  0  0  0
   10.5073  -18.5754   26.3906 N   0  0  0  0  0  0  0  0  0  0  0  0
   15.8312  -15.5248   22.4709 C   0  0  0  0  0  0  0  0  0  0  0  0
   16.3664  -16.1319   21.3238 O   0  0  0  0  0  0  0  0  0  0  0  0
   16.6938  -15.0672   23.2780 O   0  0  0  0  0  0  0  0  0  0  0  0
  2  1  1  6
  2  4  1  0
  2  3  1  0
  4  5  1  6
  4  6  1  0
  6  7  2  0
  9  8  1  0
 10  9  2  0
 12 11  1  6
 11  9  1  0
 13  6  1  0
 13 12  1  0
 14 12  1  0
 14 15  2  0
 16 14  1  0
 17 23  1  0
 17 16  1  0
 17 18  1  1
 19 18  1  0
 20 19  1  0
 21 20  1  0
 21 22  1  0
 23 24  1  0
 25 23  2  0
M  END
$$$$
