VNK.pdb
     RDKit          3D

 25 24  0  0  1  0  0  0  0  0999 V2000
    7.0843  -12.8120   19.0075 C   0  0  0  0  0  0  0  0  0  0  0  0
    8.4437  -13.4512   18.9745 C   0  0  1  0  0  0  0  0  0  0  0  0
    9.4573  -12.5568   19.6188 C   0  0  0  0  0  0  0  0  0  0  0  0
    8.3495  -14.8065   19.6404 C   0  0  2  0  0  0  0  0  0  0  0  0
    7.8070  -14.5872   20.9682 N   0  0  0  0  0  0  0  0  0  0  0  0
    9.6784  -15.4413   19.7623 C   0  0  0  0  0  0  0  0  0  0  0  0
   10.1680  -16.0555   18.7990 O   0  0  0  0  0  0  0  0  0  0  0  0
   13.4522  -13.7063   19.0101 N   0  0  0  0  0  0  0  0  0  0  0  0
   13.4257  -14.9308   19.7471 C   0  0  0  0  0  0  0  0  0  0  0  0
   13.9249  -15.9298   19.1755 O   0  0  0  0  0  0  0  0  0  0  0  0
   12.8441  -14.9916   21.0901 C   0  0  0  0  0  0  0  0  0  0  0  0
   11.7014  -15.9504   21.1699 C   0  0  2  0  0  0  0  0  0  0  0  0
   10.4112  -15.3572   20.9803 N   0  0  0  0  0  0  0  0  0  0  0  0
   11.7297  -16.5541   22.5492 C   0  0  0  0  0  0  0  0  0  0  0  0
   11.6721  -15.8236   23.5858 O   0  0  0  0  0  0  0  0  0  0  0  0
   11.8212  -17.9545   22.7554 N   0  0  0  0  0  0  0  0  0  0  0  0
   11.8268  -18.5243   24.1150 C   0  0  1  0  0  0  0  0  0  0  0  0
   11.6012  -19.9972   23.9483 C   0  0  0  0  0  0  0  0  0  0  0  0
   11.5452  -20.7722   25.2225 C   0  0  0  0  0  0  0  0  0  0  0  0
   11.2399  -22.2177   24.9092 C   0  0  0  0  0  0  0  0  0  0  0  0
   11.1051  -22.9255   26.2448 C   0  0  0  0  0  0  0  0  0  0  0  0
   10.6644  -24.2882   26.0174 N   0  0  0  0  0  0  0  0  0  0  0  0
   13.1975  -18.3096   24.6454 C   0  0  0  0  0  0  0  0  0  0  0  0
   13.4652  -18.1477   26.0139 O   0  0  0  0  0  0  0  0  0  0  0  0
   14.2186  -18.2581   23.8975 O   0  0  0  0  0  0  0  0  0  0  0  0
  2  1  1  1
  2  4  1  0
  2  3  1  0
  4  5  1  1
  4  6  1  0
  6  7  2  0
  9  8  1  0
 10  9  2  0
 12 11  1  1
 11  9  1  0
 13  6  1  0
 13 12  1  0
 14 12  1  0
 14 15  2  0
 16 14  1  0
 17 23  1  0
 17 16  1  0
 17 18  1  6
 19 18  1  0
 20 19  1  0
 21 20  1  0
 21 22  1  0
 23 24  1  0
 25 23  2  0
M  END
$$$$
