VNK.pdb
     RDKit          3D

 25 24  0  0  1  0  0  0  0  0999 V2000
    7.8300  -11.9255   19.3383 C   0  0  0  0  0  0  0  0  0  0  0  0
    8.0542  -13.3793   19.6449 C   0  0  1  0  0  0  0  0  0  0  0  0
    8.0451  -14.1865   18.3837 C   0  0  0  0  0  0  0  0  0  0  0  0
    9.3494  -13.5097   20.4158 C   0  0  2  0  0  0  0  0  0  0  0  0
   10.4209  -13.1581   19.5027 N   0  0  0  0  0  0  0  0  0  0  0  0
    9.5571  -14.8933   20.8917 C   0  0  0  0  0  0  0  0  0  0  0  0
    8.7204  -15.4293   21.6382 O   0  0  0  0  0  0  0  0  0  0  0  0
    9.5883  -18.5000   18.7875 N   0  0  0  0  0  0  0  0  0  0  0  0
   10.9564  -18.0974   18.6902 C   0  0  0  0  0  0  0  0  0  0  0  0
   11.4322  -18.0356   17.5310 O   0  0  0  0  0  0  0  0  0  0  0  0
   11.7375  -17.7804   19.8880 C   0  0  0  0  0  0  0  0  0  0  0  0
   10.9540  -16.9865   20.8818 C   0  0  2  0  0  0  0  0  0  0  0  0
   10.7141  -15.6261   20.5020 N   0  0  0  0  0  0  0  0  0  0  0  0
   11.7514  -16.9716   22.1592 C   0  0  0  0  0  0  0  0  0  0  0  0
   12.7734  -16.2293   22.2854 O   0  0  0  0  0  0  0  0  0  0  0  0
   11.4028  -17.7781   23.2728 N   0  0  0  0  0  0  0  0  0  0  0  0
   12.2093  -17.7608   24.5065 C   0  0  1  0  0  0  0  0  0  0  0  0
   11.4417  -18.5620   25.5151 C   0  0  0  0  0  0  0  0  0  0  0  0
   12.1237  -18.7340   26.8313 C   0  0  0  0  0  0  0  0  0  0  0  0
   11.2751  -19.6154   27.7166 C   0  0  0  0  0  0  0  0  0  0  0  0
   11.9325  -19.6074   29.0843 C   0  0  0  0  0  0  0  0  0  0  0  0
   11.1279  -20.3902   30.0024 N   0  0  0  0  0  0  0  0  0  0  0  0
   13.4682  -18.4805   24.1852 C   0  0  0  0  0  0  0  0  0  0  0  0
   14.6873  -18.1990   24.8221 O   0  0  0  0  0  0  0  0  0  0  0  0
   13.5268  -19.3980   23.3137 O   0  0  0  0  0  0  0  0  0  0  0  0
  2  1  1  6
  2  4  1  0
  2  3  1  0
  4  5  1  6
  4  6  1  0
  6  7  2  0
  9  8  1  0
 10  9  2  0
 12 11  1  6
 11  9  1  0
 13  6  1  0
 13 12  1  0
 14 12  1  0
 14 15  2  0
 16 14  1  0
 17 23  1  0
 17 16  1  0
 17 18  1  1
 19 18  1  0
 20 19  1  0
 21 20  1  0
 21 22  1  0
 23 24  1  0
 25 23  2  0
M  END
$$$$
