VNK.pdb
     RDKit          3D

 25 24  0  0  1  0  0  0  0  0999 V2000
    7.1716  -13.0208   19.7655 C   0  0  0  0  0  0  0  0  0  0  0  0
    7.9711  -13.8022   18.7615 C   0  0  1  0  0  0  0  0  0  0  0  0
    8.1541  -13.0065   17.5061 C   0  0  0  0  0  0  0  0  0  0  0  0
    9.2835  -14.1984   19.4015 C   0  0  2  0  0  0  0  0  0  0  0  0
   10.0488  -14.9052   18.3917 N   0  0  0  0  0  0  0  0  0  0  0  0
    9.0711  -15.0932   20.5583 C   0  0  0  0  0  0  0  0  0  0  0  0
    8.0672  -14.9560   21.2782 O   0  0  0  0  0  0  0  0  0  0  0  0
    9.6455  -19.3280   20.4599 N   0  0  0  0  0  0  0  0  0  0  0  0
   10.9045  -18.9790   21.0398 C   0  0  0  0  0  0  0  0  0  0  0  0
   11.9099  -19.5625   20.5681 O   0  0  0  0  0  0  0  0  0  0  0  0
   10.9912  -17.9946   22.1209 C   0  0  0  0  0  0  0  0  0  0  0  0
    9.9263  -16.9514   22.0242 C   0  0  2  0  0  0  0  0  0  0  0  0
   10.0107  -16.1195   20.8610 N   0  0  0  0  0  0  0  0  0  0  0  0
   10.0688  -16.0645   23.2329 C   0  0  0  0  0  0  0  0  0  0  0  0
   11.1294  -15.3967   23.4346 O   0  0  0  0  0  0  0  0  0  0  0  0
    9.0352  -15.9332   24.1954 N   0  0  0  0  0  0  0  0  0  0  0  0
    9.1643  -14.9976   25.3272 C   0  0  1  0  0  0  0  0  0  0  0  0
    7.8827  -14.2205   25.3712 C   0  0  0  0  0  0  0  0  0  0  0  0
    7.8197  -13.1725   26.4319 C   0  0  0  0  0  0  0  0  0  0  0  0
    6.4912  -12.4597   26.3446 C   0  0  0  0  0  0  0  0  0  0  0  0
    6.5534  -11.3158   27.3398 C   0  0  0  0  0  0  0  0  0  0  0  0
    5.3330  -10.5380   27.2460 N   0  0  0  0  0  0  0  0  0  0  0  0
    9.2532  -15.8387   26.5482 C   0  0  0  0  0  0  0  0  0  0  0  0
    9.6911  -15.3382   27.7846 O   0  0  0  0  0  0  0  0  0  0  0  0
    8.9394  -17.0660   26.5562 O   0  0  0  0  0  0  0  0  0  0  0  0
  2  1  1  1
  2  4  1  0
  2  3  1  0
  4  5  1  6
  4  6  1  0
  6  7  2  0
  9  8  1  0
 10  9  2  0
 12 11  1  6
 11  9  1  0
 13  6  1  0
 13 12  1  0
 14 12  1  0
 14 15  2  0
 16 14  1  0
 17 23  1  0
 17 16  1  0
 17 18  1  1
 19 18  1  0
 20 19  1  0
 21 20  1  0
 21 22  1  0
 23 24  1  0
 25 23  2  0
M  END
$$$$
