VNK.pdb
     RDKit          3D

 25 24  0  0  1  0  0  0  0  0999 V2000
    7.4188  -12.8472   18.3252 C   0  0  0  0  0  0  0  0  0  0  0  0
    8.2670  -13.0956   19.5404 C   0  0  1  0  0  0  0  0  0  0  0  0
    7.6290  -12.4943   20.7544 C   0  0  0  0  0  0  0  0  0  0  0  0
    8.4877  -14.5866   19.6711 C   0  0  2  0  0  0  0  0  0  0  0  0
    7.1764  -15.2002   19.7672 N   0  0  0  0  0  0  0  0  0  0  0  0
    9.2621  -14.9128   20.8867 C   0  0  0  0  0  0  0  0  0  0  0  0
   10.4873  -14.7070   20.9208 O   0  0  0  0  0  0  0  0  0  0  0  0
   10.5214  -15.8357   25.7543 N   0  0  0  0  0  0  0  0  0  0  0  0
    9.0929  -15.8746   25.7236 C   0  0  0  0  0  0  0  0  0  0  0  0
    8.5199  -15.9825   26.8344 O   0  0  0  0  0  0  0  0  0  0  0  0
    8.3621  -15.7917   24.4570 C   0  0  0  0  0  0  0  0  0  0  0  0
    9.2769  -15.6892   23.2805 C   0  0  2  0  0  0  0  0  0  0  0  0
    8.6161  -15.4649   22.0293 N   0  0  0  0  0  0  0  0  0  0  0  0
   10.0135  -16.9988   23.1811 C   0  0  0  0  0  0  0  0  0  0  0  0
    9.3863  -18.0976   23.0767 O   0  0  0  0  0  0  0  0  0  0  0  0
   11.4303  -17.0681   23.1990 N   0  0  0  0  0  0  0  0  0  0  0  0
   12.1311  -18.3538   23.0294 C   0  0  1  0  0  0  0  0  0  0  0  0
   13.2226  -18.1029   22.0325 C   0  0  0  0  0  0  0  0  0  0  0  0
   13.1930  -18.9893   20.8322 C   0  0  0  0  0  0  0  0  0  0  0  0
   14.3674  -18.6570   19.9429 C   0  0  0  0  0  0  0  0  0  0  0  0
   14.2600  -19.5684   18.7343 C   0  0  0  0  0  0  0  0  0  0  0  0
   15.3896  -19.3287   17.8570 N   0  0  0  0  0  0  0  0  0  0  0  0
   12.7490  -18.6621   24.3444 C   0  0  0  0  0  0  0  0  0  0  0  0
   13.4347  -19.8605   24.5987 O   0  0  0  0  0  0  0  0  0  0  0  0
   12.6988  -17.8634   25.3264 O   0  0  0  0  0  0  0  0  0  0  0  0
  2  1  1  6
  2  4  1  0
  2  3  1  0
  4  5  1  1
  4  6  1  0
  6  7  2  0
  9  8  1  0
 10  9  2  0
 12 11  1  1
 11  9  1  0
 13  6  1  0
 13 12  1  0
 14 12  1  0
 14 15  2  0
 16 14  1  0
 17 23  1  0
 17 16  1  0
 17 18  1  6
 19 18  1  0
 20 19  1  0
 21 20  1  0
 21 22  1  0
 23 24  1  0
 25 23  2  0
M  END
$$$$
