VNK.pdb
     RDKit          3D

 25 24  0  0  1  0  0  0  0  0999 V2000
    7.5638  -12.2497   25.3877 C   0  0  0  0  0  0  0  0  0  0  0  0
    6.8241  -13.2854   26.1864 C   0  0  1  0  0  0  0  0  0  0  0  0
    5.9445  -12.6292   27.2054 C   0  0  0  0  0  0  0  0  0  0  0  0
    6.0546  -14.1669   25.2274 C   0  0  2  0  0  0  0  0  0  0  0  0
    5.5098  -15.2629   26.0066 N   0  0  0  0  0  0  0  0  0  0  0  0
    6.9345  -14.7156   24.1745 C   0  0  0  0  0  0  0  0  0  0  0  0
    7.4457  -15.8402   24.3110 O   0  0  0  0  0  0  0  0  0  0  0  0
    8.8464  -13.4435   18.3767 N   0  0  0  0  0  0  0  0  0  0  0  0
    8.2052  -14.0644   19.4931 C   0  0  0  0  0  0  0  0  0  0  0  0
    7.6051  -15.1404   19.2564 O   0  0  0  0  0  0  0  0  0  0  0  0
    8.2591  -13.4611   20.8268 C   0  0  0  0  0  0  0  0  0  0  0  0
    8.0017  -14.4570   21.9101 C   0  0  2  0  0  0  0  0  0  0  0  0
    7.2061  -13.9651   22.9952 N   0  0  0  0  0  0  0  0  0  0  0  0
    9.3422  -14.8552   22.4688 C   0  0  0  0  0  0  0  0  0  0  0  0
   10.2699  -15.2749   21.7107 O   0  0  0  0  0  0  0  0  0  0  0  0
    9.6309  -14.7815   23.8556 N   0  0  0  0  0  0  0  0  0  0  0  0
   10.9125  -15.2732   24.3928 C   0  0  1  0  0  0  0  0  0  0  0  0
   10.6641  -15.5849   25.8383 C   0  0  0  0  0  0  0  0  0  0  0  0
   11.7988  -16.2530   26.5408 C   0  0  0  0  0  0  0  0  0  0  0  0
   11.4061  -16.5165   27.9751 C   0  0  0  0  0  0  0  0  0  0  0  0
   12.5425  -17.3120   28.5904 C   0  0  0  0  0  0  0  0  0  0  0  0
   12.2360  -17.5789   29.9824 N   0  0  0  0  0  0  0  0  0  0  0  0
   11.2001  -16.5413   23.6749 C   0  0  0  0  0  0  0  0  0  0  0  0
   10.2518  -17.5672   23.5364 O   0  0  0  0  0  0  0  0  0  0  0  0
   12.3221  -16.7829   23.1386 O   0  0  0  0  0  0  0  0  0  0  0  0
  2  1  1  6
  2  4  1  0
  2  3  1  0
  4  5  1  1
  4  6  1  0
  6  7  2  0
  9  8  1  0
 10  9  2  0
 12 11  1  6
 11  9  1  0
 13  6  1  0
 13 12  1  0
 14 12  1  0
 14 15  2  0
 16 14  1  0
 17 23  1  0
 17 16  1  0
 17 18  1  1
 19 18  1  0
 20 19  1  0
 21 20  1  0
 21 22  1  0
 23 24  1  0
 25 23  2  0
M  END
$$$$
