VNK.pdb
     RDKit          3D

 25 24  0  0  1  0  0  0  0  0999 V2000
    8.1361  -11.9664   18.9242 C   0  0  0  0  0  0  0  0  0  0  0  0
    8.0885  -13.3008   19.6132 C   0  0  1  0  0  0  0  0  0  0  0  0
    7.7975  -14.3884   18.6258 C   0  0  0  0  0  0  0  0  0  0  0  0
    9.3969  -13.5068   20.3443 C   0  0  2  0  0  0  0  0  0  0  0  0
   10.4368  -13.5813   19.3352 N   0  0  0  0  0  0  0  0  0  0  0  0
    9.3888  -14.7641   21.1209 C   0  0  0  0  0  0  0  0  0  0  0  0
    8.5160  -14.9598   21.9838 O   0  0  0  0  0  0  0  0  0  0  0  0
   11.1005  -18.0871   18.5568 N   0  0  0  0  0  0  0  0  0  0  0  0
   11.8300  -17.6521   19.7065 C   0  0  0  0  0  0  0  0  0  0  0  0
   12.8543  -16.9635   19.4819 O   0  0  0  0  0  0  0  0  0  0  0  0
   11.3882  -18.0022   21.0584 C   0  0  0  0  0  0  0  0  0  0  0  0
   10.4505  -16.9886   21.6284 C   0  0  2  0  0  0  0  0  0  0  0  0
   10.3775  -15.7627   20.8907 N   0  0  0  0  0  0  0  0  0  0  0  0
   10.9452  -16.6615   23.0126 C   0  0  0  0  0  0  0  0  0  0  0  0
   12.1123  -16.1982   23.1991 O   0  0  0  0  0  0  0  0  0  0  0  0
   10.1394  -16.8531   24.1641 N   0  0  0  0  0  0  0  0  0  0  0  0
   10.6504  -16.5393   25.5107 C   0  0  1  0  0  0  0  0  0  0  0  0
    9.4459  -16.2409   26.3523 C   0  0  0  0  0  0  0  0  0  0  0  0
    9.7250  -16.0617   27.8074 C   0  0  0  0  0  0  0  0  0  0  0  0
   10.1147  -14.6252   28.0630 C   0  0  0  0  0  0  0  0  0  0  0  0
   10.3297  -14.5003   29.5600 C   0  0  0  0  0  0  0  0  0  0  0  0
   10.6339  -13.1195   29.8824 N   0  0  0  0  0  0  0  0  0  0  0  0
   11.2839  -17.7861   26.0113 C   0  0  0  0  0  0  0  0  0  0  0  0
   10.9123  -19.0615   25.5572 O   0  0  0  0  0  0  0  0  0  0  0  0
   12.2033  -17.7825   26.8827 O   0  0  0  0  0  0  0  0  0  0  0  0
  2  1  1  6
  2  4  1  0
  2  3  1  0
  4  5  1  6
  4  6  1  0
  6  7  2  0
  9  8  1  0
 10  9  2  0
 12 11  1  6
 11  9  1  0
 13  6  1  0
 13 12  1  0
 14 12  1  0
 14 15  2  0
 16 14  1  0
 17 23  1  0
 17 16  1  0
 17 18  1  1
 19 18  1  0
 20 19  1  0
 21 20  1  0
 21 22  1  0
 23 24  1  0
 25 23  2  0
M  END
$$$$
