VNK.pdb
     RDKit          3D

 25 24  0  0  1  0  0  0  0  0999 V2000
    7.4083  -12.6861   21.0706 C   0  0  0  0  0  0  0  0  0  0  0  0
    7.8758  -13.5967   19.9705 C   0  0  1  0  0  0  0  0  0  0  0  0
    8.0476  -12.8302   18.6956 C   0  0  0  0  0  0  0  0  0  0  0  0
    9.1497  -14.2759   20.4230 C   0  0  2  0  0  0  0  0  0  0  0  0
    9.6023  -15.1019   19.3193 N   0  0  0  0  0  0  0  0  0  0  0  0
    8.9137  -15.1351   21.6019 C   0  0  0  0  0  0  0  0  0  0  0  0
    7.9533  -14.9087   22.3577 O   0  0  0  0  0  0  0  0  0  0  0  0
    9.4933  -20.3356   22.2708 N   0  0  0  0  0  0  0  0  0  0  0  0
   10.2736  -19.1649   22.0184 C   0  0  0  0  0  0  0  0  0  0  0  0
   10.6653  -19.0071   20.8370 O   0  0  0  0  0  0  0  0  0  0  0  0
   10.5853  -18.2188   23.0922 C   0  0  0  0  0  0  0  0  0  0  0  0
    9.6884  -17.0243   23.0730 C   0  0  2  0  0  0  0  0  0  0  0  0
    9.7805  -16.2287   21.8851 N   0  0  0  0  0  0  0  0  0  0  0  0
   10.0871  -16.1565   24.2374 C   0  0  0  0  0  0  0  0  0  0  0  0
   11.2529  -15.6602   24.3162 O   0  0  0  0  0  0  0  0  0  0  0  0
    9.1885  -15.8543   25.2925 N   0  0  0  0  0  0  0  0  0  0  0  0
    9.6262  -15.0747   26.4645 C   0  0  1  0  0  0  0  0  0  0  0  0
    8.4103  -14.3492   26.9577 C   0  0  0  0  0  0  0  0  0  0  0  0
    8.0039  -13.1726   26.1344 C   0  0  0  0  0  0  0  0  0  0  0  0
    6.7486  -12.5697   26.7189 C   0  0  0  0  0  0  0  0  0  0  0  0
    6.3949  -11.3836   25.8410 C   0  0  0  0  0  0  0  0  0  0  0  0
    5.2213  -10.7257   26.3821 N   0  0  0  0  0  0  0  0  0  0  0  0
   10.0362  -16.0682   27.4897 C   0  0  0  0  0  0  0  0  0  0  0  0
   10.8661  -15.7418   28.5740 O   0  0  0  0  0  0  0  0  0  0  0  0
    9.6642  -17.2787   27.4546 O   0  0  0  0  0  0  0  0  0  0  0  0
  2  1  1  1
  2  4  1  0
  2  3  1  0
  4  5  1  6
  4  6  1  0
  6  7  2  0
  9  8  1  0
 10  9  2  0
 12 11  1  6
 11  9  1  0
 13  6  1  0
 13 12  1  0
 14 12  1  0
 14 15  2  0
 16 14  1  0
 17 23  1  0
 17 16  1  0
 17 18  1  1
 19 18  1  0
 20 19  1  0
 21 20  1  0
 21 22  1  0
 23 24  1  0
 25 23  2  0
M  END
$$$$
