VNK.pdb
     RDKit          3D

 25 24  0  0  1  0  0  0  0  0999 V2000
    7.1799  -19.9247   17.4817 C   0  0  0  0  0  0  0  0  0  0  0  0
    8.0466  -18.7368   17.7906 C   0  0  1  0  0  0  0  0  0  0  0  0
    7.4490  -17.4902   17.2149 C   0  0  0  0  0  0  0  0  0  0  0  0
    8.2329  -18.6598   19.2901 C   0  0  2  0  0  0  0  0  0  0  0  0
    6.9071  -18.6181   19.8783 N   0  0  0  0  0  0  0  0  0  0  0  0
    8.9711  -17.4404   19.6801 C   0  0  0  0  0  0  0  0  0  0  0  0
   10.1817  -17.3331   19.4201 O   0  0  0  0  0  0  0  0  0  0  0  0
    6.5629  -12.6969   19.3690 N   0  0  0  0  0  0  0  0  0  0  0  0
    7.7469  -13.4728   19.5667 C   0  0  0  0  0  0  0  0  0  0  0  0
    8.4460  -13.6825   18.5463 O   0  0  0  0  0  0  0  0  0  0  0  0
    8.1031  -13.9829   20.8928 C   0  0  0  0  0  0  0  0  0  0  0  0
    8.9714  -15.1962   20.8188 C   0  0  2  0  0  0  0  0  0  0  0  0
    8.3065  -16.3778   20.3560 N   0  0  0  0  0  0  0  0  0  0  0  0
    9.4681  -15.4670   22.2144 C   0  0  0  0  0  0  0  0  0  0  0  0
    8.7711  -15.1587   23.2296 O   0  0  0  0  0  0  0  0  0  0  0  0
   10.7264  -16.0739   22.4603 N   0  0  0  0  0  0  0  0  0  0  0  0
   11.2020  -16.3082   23.8358 C   0  0  1  0  0  0  0  0  0  0  0  0
   11.0356  -17.7768   24.0876 C   0  0  0  0  0  0  0  0  0  0  0  0
   11.5481  -18.2499   25.4070 C   0  0  0  0  0  0  0  0  0  0  0  0
   11.2767  -19.7295   25.5414 C   0  0  0  0  0  0  0  0  0  0  0  0
   11.7784  -20.1333   26.9155 C   0  0  0  0  0  0  0  0  0  0  0  0
   11.5674  -21.5562   27.0986 N   0  0  0  0  0  0  0  0  0  0  0  0
   12.6523  -15.9874   23.8299 C   0  0  0  0  0  0  0  0  0  0  0  0
   13.3730  -15.7524   22.6483 O   0  0  0  0  0  0  0  0  0  0  0  0
   13.3374  -15.9043   24.8922 O   0  0  0  0  0  0  0  0  0  0  0  0
  2  1  1  1
  2  4  1  0
  2  3  1  0
  4  5  1  1
  4  6  1  0
  6  7  2  0
  9  8  1  0
 10  9  2  0
 12 11  1  1
 11  9  1  0
 13  6  1  0
 13 12  1  0
 14 12  1  0
 14 15  2  0
 16 14  1  0
 17 23  1  0
 17 16  1  0
 17 18  1  6
 19 18  1  0
 20 19  1  0
 21 20  1  0
 21 22  1  0
 23 24  1  0
 25 23  2  0
M  END
$$$$
