VNK.pdb
     RDKit          3D

 25 24  0  0  1  0  0  0  0  0999 V2000
    8.3632  -12.2975   17.8683 C   0  0  0  0  0  0  0  0  0  0  0  0
    8.0551  -13.4681   18.7585 C   0  0  1  0  0  0  0  0  0  0  0  0
    7.7862  -14.6916   17.9381 C   0  0  0  0  0  0  0  0  0  0  0  0
    9.2066  -13.6497   19.7228 C   0  0  2  0  0  0  0  0  0  0  0  0
   10.3649  -14.0207   18.9316 N   0  0  0  0  0  0  0  0  0  0  0  0
    8.9278  -14.7225   20.7002 C   0  0  0  0  0  0  0  0  0  0  0  0
    7.8652  -14.7193   21.3451 O   0  0  0  0  0  0  0  0  0  0  0  0
    9.6807  -19.9510   20.8636 N   0  0  0  0  0  0  0  0  0  0  0  0
   10.4521  -18.7569   20.7153 C   0  0  0  0  0  0  0  0  0  0  0  0
   10.8802  -18.5164   19.5609 O   0  0  0  0  0  0  0  0  0  0  0  0
   10.7145  -17.8802   21.8591 C   0  0  0  0  0  0  0  0  0  0  0  0
    9.7371  -16.7539   21.9458 C   0  0  2  0  0  0  0  0  0  0  0  0
    9.8697  -15.7688   20.9142 N   0  0  0  0  0  0  0  0  0  0  0  0
    9.9719  -16.0689   23.2662 C   0  0  0  0  0  0  0  0  0  0  0  0
   11.1043  -15.5734   23.5554 O   0  0  0  0  0  0  0  0  0  0  0  0
    8.9494  -15.9449   24.2415 N   0  0  0  0  0  0  0  0  0  0  0  0
    9.1476  -15.1267   25.4515 C   0  0  1  0  0  0  0  0  0  0  0  0
    7.9164  -14.2818   25.5871 C   0  0  0  0  0  0  0  0  0  0  0  0
    7.8758  -13.4220   26.8063 C   0  0  0  0  0  0  0  0  0  0  0  0
    6.5921  -12.6264   26.8079 C   0  0  0  0  0  0  0  0  0  0  0  0
    6.6265  -11.7616   28.0544 C   0  0  0  0  0  0  0  0  0  0  0  0
    5.3817  -11.0245   28.1553 N   0  0  0  0  0  0  0  0  0  0  0  0
    9.1983  -16.0803   26.5892 C   0  0  0  0  0  0  0  0  0  0  0  0
    9.7235  -15.7365   27.8449 O   0  0  0  0  0  0  0  0  0  0  0  0
    8.7705  -17.2695   26.5028 O   0  0  0  0  0  0  0  0  0  0  0  0
  2  1  1  6
  2  4  1  0
  2  3  1  0
  4  5  1  6
  4  6  1  0
  6  7  2  0
  9  8  1  0
 10  9  2  0
 12 11  1  6
 11  9  1  0
 13  6  1  0
 13 12  1  0
 14 12  1  0
 14 15  2  0
 16 14  1  0
 17 23  1  0
 17 16  1  0
 17 18  1  1
 19 18  1  0
 20 19  1  0
 21 20  1  0
 21 22  1  0
 23 24  1  0
 25 23  2  0
M  END
$$$$
