VNK.pdb
     RDKit          3D

 25 24  0  0  1  0  0  0  0  0999 V2000
    7.6862  -12.6979   18.7612 C   0  0  0  0  0  0  0  0  0  0  0  0
    8.1307  -13.4989   19.9522 C   0  0  1  0  0  0  0  0  0  0  0  0
    7.3292  -13.1261   21.1610 C   0  0  0  0  0  0  0  0  0  0  0  0
    8.0221  -14.9677   19.6063 C   0  0  2  0  0  0  0  0  0  0  0  0
    6.6189  -15.2398   19.3569 N   0  0  0  0  0  0  0  0  0  0  0  0
    8.4870  -15.8202   20.7203 C   0  0  0  0  0  0  0  0  0  0  0  0
    7.6895  -16.1898   21.5990 O   0  0  0  0  0  0  0  0  0  0  0  0
   11.1927  -19.2328   19.0844 N   0  0  0  0  0  0  0  0  0  0  0  0
   10.7669  -19.1035   20.4427 C   0  0  0  0  0  0  0  0  0  0  0  0
    9.8678  -19.8945   20.8168 O   0  0  0  0  0  0  0  0  0  0  0  0
   11.3602  -18.0986   21.3279 C   0  0  0  0  0  0  0  0  0  0  0  0
   10.3548  -17.1057   21.8123 C   0  0  2  0  0  0  0  0  0  0  0  0
    9.8494  -16.2268   20.8001 N   0  0  0  0  0  0  0  0  0  0  0  0
   11.0388  -16.2597   22.8536 C   0  0  0  0  0  0  0  0  0  0  0  0
   11.8796  -15.3674   22.5244 O   0  0  0  0  0  0  0  0  0  0  0  0
   10.7796  -16.4170   24.2393 N   0  0  0  0  0  0  0  0  0  0  0  0
   11.5407  -15.6561   25.2466 C   0  0  1  0  0  0  0  0  0  0  0  0
   10.7442  -15.7343   26.5145 C   0  0  0  0  0  0  0  0  0  0  0  0
   11.4558  -15.2514   27.7342 C   0  0  0  0  0  0  0  0  0  0  0  0
   10.5355  -15.3748   28.9252 C   0  0  0  0  0  0  0  0  0  0  0  0
   11.3498  -14.9664   30.1390 C   0  0  0  0  0  0  0  0  0  0  0  0
   10.5485  -15.1537   31.3330 N   0  0  0  0  0  0  0  0  0  0  0  0
   12.8167  -16.3912   25.4398 C   0  0  0  0  0  0  0  0  0  0  0  0
   12.9191  -17.7843   25.2993 O   0  0  0  0  0  0  0  0  0  0  0  0
   13.9001  -15.8098   25.7449 O   0  0  0  0  0  0  0  0  0  0  0  0
  2  1  1  6
  2  4  1  0
  2  3  1  0
  4  5  1  1
  4  6  1  0
  6  7  2  0
  9  8  1  0
 10  9  2  0
 12 11  1  6
 11  9  1  0
 13  6  1  0
 13 12  1  0
 14 12  1  0
 14 15  2  0
 16 14  1  0
 17 23  1  0
 17 16  1  0
 17 18  1  1
 19 18  1  0
 20 19  1  0
 21 20  1  0
 21 22  1  0
 23 24  1  0
 25 23  2  0
M  END
$$$$
