MYA.pdb
     RDKit          3D

 26 26  0  0  1  0  0  0  0  0999 V2000
    6.8779  -10.9954   26.8924 C   0  0  0  0  0  0  0  0  0  0  0  0
    6.7622  -12.6424   27.5983 S   0  0  0  0  0  0  0  0  0  0  0  0
    5.6361  -13.7110   26.6740 C   0  0  0  0  0  0  0  0  0  0  0  0
    6.2249  -14.1543   25.3523 C   0  0  0  0  0  0  0  0  0  0  0  0
    7.0021  -15.4244   25.6154 C   0  0  2  0  0  0  0  0  0  0  0  0
    8.0203  -15.1070   26.5911 N   0  0  0  0  0  0  0  0  0  0  0  0
    7.6568  -15.9444   24.4001 C   0  0  0  0  0  0  0  0  0  0  0  0
    7.0826  -16.5915   23.4980 O   0  0  0  0  0  0  0  0  0  0  0  0
    6.4925  -13.3227   18.6276 O   0  0  0  0  0  0  0  0  0  0  0  0
    7.4488  -13.7645   19.5323 C   0  0  0  0  0  0  0  0  0  0  0  0
    7.8521  -15.0787   19.5053 C   0  0  0  0  0  0  0  0  0  0  0  0
    8.8150  -15.5175   20.4179 C   0  0  0  0  0  0  0  0  0  0  0  0
    9.3555  -14.6507   21.3335 C   0  0  0  0  0  0  0  0  0  0  0  0
   10.3625  -15.1240   22.2832 C   0  0  0  0  0  0  0  0  0  0  0  0
    9.8385  -16.2319   23.2010 C   0  0  2  0  0  0  0  0  0  0  0  0
    9.0646  -15.6719   24.2680 N   0  0  0  0  0  0  0  0  0  0  0  0
   11.0356  -16.8888   23.7669 C   0  0  0  0  0  0  0  0  0  0  0  0
   12.1092  -16.2645   23.8856 O   0  0  0  0  0  0  0  0  0  0  0  0
    8.9440  -13.3366   21.3516 C   0  0  0  0  0  0  0  0  0  0  0  0
    7.9821  -12.8739   20.4484 C   0  0  0  0  0  0  0  0  0  0  0  0
   11.9936  -19.4498   26.0095 C   0  0  0  0  0  0  0  0  0  0  0  0
   12.1900  -18.8918   24.6123 C   0  0  2  0  0  0  0  0  0  0  0  0
   10.9763  -18.2380   24.1815 N   0  0  0  0  0  0  0  0  0  0  0  0
   12.5698  -19.9644   23.6612 C   0  0  0  0  0  0  0  0  0  0  0  0
   11.7858  -20.3414   22.7573 O   0  0  0  0  0  0  0  0  0  0  0  0
   13.8084  -20.5807   23.7480 O   0  0  0  0  0  0  0  0  0  0  0  0
  2  1  1  0
  3  2  1  0
  4  5  1  0
  4  3  1  0
  5  6  1  1
  5  7  1  0
  7  8  2  0
  9 10  1  0
 10 20  2  0
 10 11  1  0
 11 12  2  0
 12 13  1  0
 13 14  1  0
 15 14  1  6
 15 17  1  0
 16  7  1  0
 16 15  1  0
 17 18  2  0
 19 13  2  0
 20 19  1  0
 22 21  1  1
 22 24  1  0
 23 22  1  0
 23 17  1  0
 24 26  1  0
 25 24  2  0
M  END
$$$$
