MYA.pdb
     RDKit          3D

 26 26  0  0  1  0  0  0  0  0999 V2000
    8.4597  -11.4416   19.6730 C   0  0  0  0  0  0  0  0  0  0  0  0
    7.2981  -12.6740   19.0759 S   0  0  0  0  0  0  0  0  0  0  0  0
    7.7096  -14.3399   19.6411 C   0  0  0  0  0  0  0  0  0  0  0  0
    8.5029  -14.3265   20.9297 C   0  0  0  0  0  0  0  0  0  0  0  0
    8.7551  -15.7677   21.3117 C   0  0  2  0  0  0  0  0  0  0  0  0
    7.4650  -16.4080   21.4354 N   0  0  0  0  0  0  0  0  0  0  0  0
    9.4702  -15.8917   22.5958 C   0  0  0  0  0  0  0  0  0  0  0  0
   10.6729  -15.6036   22.7769 O   0  0  0  0  0  0  0  0  0  0  0  0
    6.1273  -10.9210   26.2203 O   0  0  0  0  0  0  0  0  0  0  0  0
    6.6076  -12.2232   26.1776 C   0  0  0  0  0  0  0  0  0  0  0  0
    7.8336  -12.5124   26.7292 C   0  0  0  0  0  0  0  0  0  0  0  0
    8.3117  -13.8245   26.6835 C   0  0  0  0  0  0  0  0  0  0  0  0
    7.5702  -14.8177   26.0958 C   0  0  0  0  0  0  0  0  0  0  0  0
    8.0834  -16.1871   26.0550 C   0  0  0  0  0  0  0  0  0  0  0  0
    9.2194  -16.3653   25.0439 C   0  0  2  0  0  0  0  0  0  0  0  0
    8.7012  -16.3847   23.7090 N   0  0  0  0  0  0  0  0  0  0  0  0
    9.8265  -17.6790   25.3445 C   0  0  0  0  0  0  0  0  0  0  0  0
    9.2854  -18.7347   24.9585 O   0  0  0  0  0  0  0  0  0  0  0  0
    6.3438  -14.5168   25.5464 C   0  0  0  0  0  0  0  0  0  0  0  0
    5.8440  -13.2113   25.5799 C   0  0  0  0  0  0  0  0  0  0  0  0
   13.1007  -18.9947   25.9125 C   0  0  0  0  0  0  0  0  0  0  0  0
   11.6354  -19.0463   26.3026 C   0  0  2  0  0  0  0  0  0  0  0  0
   11.0326  -17.7533   26.0763 N   0  0  0  0  0  0  0  0  0  0  0  0
   11.4776  -19.4538   27.7197 C   0  0  0  0  0  0  0  0  0  0  0  0
   10.9867  -18.6741   28.5712 O   0  0  0  0  0  0  0  0  0  0  0  0
   11.8712  -20.7144   28.1412 O   0  0  0  0  0  0  0  0  0  0  0  0
  2  1  1  0
  3  2  1  0
  4  5  1  0
  4  3  1  0
  5  6  1  1
  5  7  1  0
  7  8  2  0
  9 10  1  0
 10 20  2  0
 10 11  1  0
 11 12  2  0
 12 13  1  0
 13 14  1  0
 15 14  1  1
 15 17  1  0
 16  7  1  0
 16 15  1  0
 17 18  2  0
 19 13  2  0
 20 19  1  0
 22 21  1  1
 22 24  1  0
 23 22  1  0
 23 17  1  0
 24 26  1  0
 25 24  2  0
M  END
$$$$
