MYA.pdb
     RDKit          3D

 26 26  0  0  1  0  0  0  0  0999 V2000
    8.0267  -12.1038   27.7132 C   0  0  0  0  0  0  0  0  0  0  0  0
    6.2900  -12.5596   27.7339 S   0  0  0  0  0  0  0  0  0  0  0  0
    5.8545  -13.6765   26.3822 C   0  0  0  0  0  0  0  0  0  0  0  0
    7.0560  -14.4293   25.8533 C   0  0  0  0  0  0  0  0  0  0  0  0
    6.5637  -15.3274   24.7409 C   0  0  2  0  0  0  0  0  0  0  0  0
    5.7067  -16.3230   25.3443 N   0  0  0  0  0  0  0  0  0  0  0  0
    7.6671  -16.0134   24.0426 C   0  0  0  0  0  0  0  0  0  0  0  0
    7.8591  -17.2485   24.0457 O   0  0  0  0  0  0  0  0  0  0  0  0
    6.4412  -13.6612   17.4481 O   0  0  0  0  0  0  0  0  0  0  0  0
    7.3618  -13.9228   18.4543 C   0  0  0  0  0  0  0  0  0  0  0  0
    7.7473  -12.9102   19.3009 C   0  0  0  0  0  0  0  0  0  0  0  0
    8.6738  -13.1793   20.3117 C   0  0  0  0  0  0  0  0  0  0  0  0
    9.1966  -14.4386   20.4623 C   0  0  0  0  0  0  0  0  0  0  0  0
   10.1660  -14.7060   21.5248 C   0  0  0  0  0  0  0  0  0  0  0  0
    9.6584  -15.7251   22.5486 C   0  0  2  0  0  0  0  0  0  0  0  0
    8.5779  -15.1730   23.3093 N   0  0  0  0  0  0  0  0  0  0  0  0
   10.7971  -15.9926   23.4524 C   0  0  0  0  0  0  0  0  0  0  0  0
   11.8792  -15.3883   23.3105 O   0  0  0  0  0  0  0  0  0  0  0  0
    8.8035  -15.4452   19.6085 C   0  0  0  0  0  0  0  0  0  0  0  0
    7.8777  -15.2003   18.5897 C   0  0  0  0  0  0  0  0  0  0  0  0
   11.4723  -17.4803   26.7084 C   0  0  0  0  0  0  0  0  0  0  0  0
   11.8453  -17.3110   25.2475 C   0  0  2  0  0  0  0  0  0  0  0  0
   10.6712  -16.9407   24.4920 N   0  0  0  0  0  0  0  0  0  0  0  0
   12.4430  -18.5550   24.7050 C   0  0  0  0  0  0  0  0  0  0  0  0
   11.8358  -19.2545   23.8588 O   0  0  0  0  0  0  0  0  0  0  0  0
   13.6954  -18.9783   25.1220 O   0  0  0  0  0  0  0  0  0  0  0  0
  2  1  1  0
  3  2  1  0
  4  5  1  0
  4  3  1  0
  5  6  1  1
  5  7  1  0
  7  8  2  0
  9 10  1  0
 10 20  2  0
 10 11  1  0
 11 12  2  0
 12 13  1  0
 13 14  1  0
 15 14  1  6
 15 17  1  0
 16  7  1  0
 16 15  1  0
 17 18  2  0
 19 13  2  0
 20 19  1  0
 22 21  1  1
 22 24  1  0
 23 22  1  0
 23 17  1  0
 24 26  1  0
 25 24  2  0
M  END
$$$$
