MYA.pdb
     RDKit          3D

 26 26  0  0  1  0  0  0  0  0999 V2000
    6.1468  -19.8757   17.4391 C   0  0  0  0  0  0  0  0  0  0  0  0
    6.9667  -18.9967   18.7731 S   0  0  0  0  0  0  0  0  0  0  0  0
    8.5873  -19.6932   19.1637 C   0  0  0  0  0  0  0  0  0  0  0  0
    9.2182  -19.0314   20.3696 C   0  0  0  0  0  0  0  0  0  0  0  0
    9.3598  -17.5609   20.0465 C   0  0  2  0  0  0  0  0  0  0  0  0
   10.5222  -17.4206   19.1988 N   0  0  0  0  0  0  0  0  0  0  0  0
    9.5524  -16.7363   21.2543 C   0  0  0  0  0  0  0  0  0  0  0  0
   10.6577  -16.4830   21.7801 O   0  0  0  0  0  0  0  0  0  0  0  0
    7.0474  -11.7229   28.0606 O   0  0  0  0  0  0  0  0  0  0  0  0
    7.0536  -12.4650   26.8870 C   0  0  0  0  0  0  0  0  0  0  0  0
    7.7834  -12.0229   25.8087 C   0  0  0  0  0  0  0  0  0  0  0  0
    7.7861  -12.7739   24.6304 C   0  0  0  0  0  0  0  0  0  0  0  0
    7.0699  -13.9407   24.5446 C   0  0  0  0  0  0  0  0  0  0  0  0
    7.0816  -14.7168   23.3045 C   0  0  0  0  0  0  0  0  0  0  0  0
    8.4100  -15.4415   23.0705 C   0  0  2  0  0  0  0  0  0  0  0  0
    8.3603  -16.1944   21.8533 N   0  0  0  0  0  0  0  0  0  0  0  0
    8.5689  -16.3727   24.2073 C   0  0  0  0  0  0  0  0  0  0  0  0
    7.7020  -17.2363   24.4499 O   0  0  0  0  0  0  0  0  0  0  0  0
    6.3424  -14.3740   25.6306 C   0  0  0  0  0  0  0  0  0  0  0  0
    6.3242  -13.6398   26.8205 C   0  0  0  0  0  0  0  0  0  0  0  0
   11.2442  -17.9471   25.9074 C   0  0  0  0  0  0  0  0  0  0  0  0
    9.8910  -17.2814   26.0743 C   0  0  2  0  0  0  0  0  0  0  0  0
    9.7104  -16.2939   25.0358 N   0  0  0  0  0  0  0  0  0  0  0  0
    9.7685  -16.6570   27.4139 C   0  0  0  0  0  0  0  0  0  0  0  0
    9.8016  -17.3481   28.4604 O   0  0  0  0  0  0  0  0  0  0  0  0
    9.6135  -15.2856   27.5435 O   0  0  0  0  0  0  0  0  0  0  0  0
  2  1  1  0
  3  2  1  0
  4  5  1  0
  4  3  1  0
  5  6  1  6
  5  7  1  0
  7  8  2  0
  9 10  1  0
 10 20  2  0
 10 11  1  0
 11 12  2  0
 12 13  1  0
 13 14  1  0
 15 14  1  1
 15 17  1  0
 16  7  1  0
 16 15  1  0
 17 18  2  0
 19 13  2  0
 20 19  1  0
 22 21  1  1
 22 24  1  0
 23 22  1  0
 23 17  1  0
 24 26  1  0
 25 24  2  0
M  END
$$$$
