MYA.pdb
     RDKit          3D

 26 26  0  0  1  0  0  0  0  0999 V2000
    7.1818  -11.4105   20.5426 C   0  0  0  0  0  0  0  0  0  0  0  0
    8.3987  -12.5930   19.9550 S   0  0  0  0  0  0  0  0  0  0  0  0
    8.2645  -14.1911   20.7872 C   0  0  0  0  0  0  0  0  0  0  0  0
    9.2275  -15.2124   20.2218 C   0  0  0  0  0  0  0  0  0  0  0  0
    9.0974  -16.4608   21.0650 C   0  0  2  0  0  0  0  0  0  0  0  0
    7.6875  -16.7650   21.1617 N   0  0  0  0  0  0  0  0  0  0  0  0
    9.6366  -16.2784   22.4259 C   0  0  0  0  0  0  0  0  0  0  0  0
   10.7766  -15.8404   22.6921 O   0  0  0  0  0  0  0  0  0  0  0  0
    6.6365  -10.9081   26.5390 O   0  0  0  0  0  0  0  0  0  0  0  0
    6.9587  -12.2458   26.3516 C   0  0  0  0  0  0  0  0  0  0  0  0
    8.2439  -12.6734   26.5878 C   0  0  0  0  0  0  0  0  0  0  0  0
    8.5623  -14.0206   26.3978 C   0  0  0  0  0  0  0  0  0  0  0  0
    7.6066  -14.9117   25.9800 C   0  0  0  0  0  0  0  0  0  0  0  0
    7.9541  -16.3193   25.7849 C   0  0  0  0  0  0  0  0  0  0  0  0
    9.1728  -16.5095   24.8777 C   0  0  2  0  0  0  0  0  0  0  0  0
    8.7629  -16.6403   23.5118 N   0  0  0  0  0  0  0  0  0  0  0  0
    9.8086  -17.7709   25.3132 C   0  0  0  0  0  0  0  0  0  0  0  0
    9.2140  -18.8605   25.1889 O   0  0  0  0  0  0  0  0  0  0  0  0
    6.3225  -14.4723   25.7463 C   0  0  0  0  0  0  0  0  0  0  0  0
    5.9798  -13.1291   25.9295 C   0  0  0  0  0  0  0  0  0  0  0  0
   13.1943  -18.9550   26.0641 C   0  0  0  0  0  0  0  0  0  0  0  0
   11.6966  -19.0023   26.3022 C   0  0  2  0  0  0  0  0  0  0  0  0
   11.1034  -17.7556   25.8778 N   0  0  0  0  0  0  0  0  0  0  0  0
   11.3945  -19.2635   27.7304 C   0  0  0  0  0  0  0  0  0  0  0  0
   11.7805  -20.3145   28.2965 O   0  0  0  0  0  0  0  0  0  0  0  0
   10.6734  -18.3470   28.4799 O   0  0  0  0  0  0  0  0  0  0  0  0
  2  1  1  0
  3  2  1  0
  4  5  1  0
  4  3  1  0
  5  6  1  1
  5  7  1  0
  7  8  2  0
  9 10  1  0
 10 20  2  0
 10 11  1  0
 11 12  2  0
 12 13  1  0
 13 14  1  0
 15 14  1  1
 15 17  1  0
 16  7  1  0
 16 15  1  0
 17 18  2  0
 19 13  2  0
 20 19  1  0
 22 21  1  1
 22 24  1  0
 23 22  1  0
 23 17  1  0
 24 26  1  0
 25 24  2  0
M  END
$$$$
