MYA.pdb
     RDKit          3D

 26 26  0  0  1  0  0  0  0  0999 V2000
    7.6240  -11.1169   27.2543 C   0  0  0  0  0  0  0  0  0  0  0  0
    6.0794  -11.9826   27.5534 S   0  0  0  0  0  0  0  0  0  0  0  0
    5.6940  -13.1745   26.2514 C   0  0  0  0  0  0  0  0  0  0  0  0
    6.8675  -14.0768   25.9370 C   0  0  0  0  0  0  0  0  0  0  0  0
    6.4237  -15.0172   24.8392 C   0  0  2  0  0  0  0  0  0  0  0  0
    5.4719  -15.9353   25.4231 N   0  0  0  0  0  0  0  0  0  0  0  0
    7.5452  -15.7926   24.2762 C   0  0  0  0  0  0  0  0  0  0  0  0
    7.7487  -17.0090   24.4798 O   0  0  0  0  0  0  0  0  0  0  0  0
    6.6551  -13.7638   17.3612 O   0  0  0  0  0  0  0  0  0  0  0  0
    7.5105  -14.0233   18.4238 C   0  0  0  0  0  0  0  0  0  0  0  0
    7.7442  -13.0447   19.3611 C   0  0  0  0  0  0  0  0  0  0  0  0
    8.6058  -13.3116   20.4283 C   0  0  0  0  0  0  0  0  0  0  0  0
    9.2149  -14.5352   20.5446 C   0  0  0  0  0  0  0  0  0  0  0  0
   10.1148  -14.8006   21.6670 C   0  0  0  0  0  0  0  0  0  0  0  0
    9.5013  -15.7380   22.7108 C   0  0  2  0  0  0  0  0  0  0  0  0
    8.4601  -15.0693   23.4317 N   0  0  0  0  0  0  0  0  0  0  0  0
   10.5957  -16.0745   23.6457 C   0  0  0  0  0  0  0  0  0  0  0  0
   11.1313  -15.1909   24.3447 O   0  0  0  0  0  0  0  0  0  0  0  0
    8.9738  -15.5078   19.6000 C   0  0  0  0  0  0  0  0  0  0  0  0
    8.1155  -15.2645   18.5233 C   0  0  0  0  0  0  0  0  0  0  0  0
   11.8806  -19.0302   25.3459 C   0  0  0  0  0  0  0  0  0  0  0  0
   12.1394  -17.7027   24.6583 C   0  0  2  0  0  0  0  0  0  0  0  0
   11.0490  -17.4077   23.7581 N   0  0  0  0  0  0  0  0  0  0  0  0
   13.4282  -17.7273   23.9252 C   0  0  0  0  0  0  0  0  0  0  0  0
   14.5172  -17.8885   24.5269 O   0  0  0  0  0  0  0  0  0  0  0  0
   13.4617  -17.5718   22.5481 O   0  0  0  0  0  0  0  0  0  0  0  0
  2  1  1  0
  3  2  1  0
  4  5  1  0
  4  3  1  0
  5  6  1  1
  5  7  1  0
  7  8  2  0
  9 10  1  0
 10 20  2  0
 10 11  1  0
 11 12  2  0
 12 13  1  0
 13 14  1  0
 15 14  1  6
 15 17  1  0
 16  7  1  0
 16 15  1  0
 17 18  2  0
 19 13  2  0
 20 19  1  0
 22 21  1  6
 22 24  1  0
 23 22  1  0
 23 17  1  0
 24 26  1  0
 25 24  2  0
M  END
$$$$
