MYA.pdb
     RDKit          3D

 26 26  0  0  1  0  0  0  0  0999 V2000
    7.6054  -21.1479   16.2691 C   0  0  0  0  0  0  0  0  0  0  0  0
    8.0393  -20.4810   17.8789 S   0  0  0  0  0  0  0  0  0  0  0  0
    8.8399  -18.8656   17.7626 C   0  0  0  0  0  0  0  0  0  0  0  0
    9.1694  -18.2919   19.1236 C   0  0  0  0  0  0  0  0  0  0  0  0
    8.8641  -16.8119   19.0682 C   0  0  2  0  0  0  0  0  0  0  0  0
    9.6770  -16.2480   18.0143 N   0  0  0  0  0  0  0  0  0  0  0  0
    9.1851  -16.1242   20.3330 C   0  0  0  0  0  0  0  0  0  0  0  0
   10.3403  -15.8697   20.7370 O   0  0  0  0  0  0  0  0  0  0  0  0
    7.3317  -12.1161   27.9765 O   0  0  0  0  0  0  0  0  0  0  0  0
    7.2324  -12.6950   26.7181 C   0  0  0  0  0  0  0  0  0  0  0  0
    6.6449  -13.9309   26.5845 C   0  0  0  0  0  0  0  0  0  0  0  0
    6.5476  -14.5084   25.3158 C   0  0  0  0  0  0  0  0  0  0  0  0
    7.0316  -13.8536   24.2118 C   0  0  0  0  0  0  0  0  0  0  0  0
    6.9231  -14.4703   22.8896 C   0  0  0  0  0  0  0  0  0  0  0  0
    8.2478  -15.0621   22.4003 C   0  0  2  0  0  0  0  0  0  0  0  0
    8.0644  -15.7268   21.1451 N   0  0  0  0  0  0  0  0  0  0  0  0
    8.6476  -16.0563   23.4184 C   0  0  0  0  0  0  0  0  0  0  0  0
    7.9686  -17.0861   23.6050 O   0  0  0  0  0  0  0  0  0  0  0  0
    7.6182  -12.6162   24.3573 C   0  0  0  0  0  0  0  0  0  0  0  0
    7.7270  -12.0180   25.6164 C   0  0  0  0  0  0  0  0  0  0  0  0
   11.7552  -17.0331   25.0063 C   0  0  0  0  0  0  0  0  0  0  0  0
   10.2468  -16.8942   25.0917 C   0  0  2  0  0  0  0  0  0  0  0  0
    9.8093  -15.8496   24.1953 N   0  0  0  0  0  0  0  0  0  0  0  0
    9.8188  -16.6015   26.4811 C   0  0  0  0  0  0  0  0  0  0  0  0
    9.2141  -15.5400   26.7667 O   0  0  0  0  0  0  0  0  0  0  0  0
   10.0779  -17.4993   27.5051 O   0  0  0  0  0  0  0  0  0  0  0  0
  2  1  1  0
  3  2  1  0
  4  5  1  0
  4  3  1  0
  5  6  1  6
  5  7  1  0
  7  8  2  0
  9 10  1  0
 10 20  2  0
 10 11  1  0
 11 12  2  0
 12 13  1  0
 13 14  1  0
 15 14  1  1
 15 17  1  0
 16  7  1  0
 16 15  1  0
 17 18  2  0
 19 13  2  0
 20 19  1  0
 22 21  1  1
 22 24  1  0
 23 22  1  0
 23 17  1  0
 24 26  1  0
 25 24  2  0
M  END
$$$$
