MYA.pdb
     RDKit          3D

 26 26  0  0  1  0  0  0  0  0999 V2000
    7.5591  -20.8859   20.8441 C   0  0  0  0  0  0  0  0  0  0  0  0
    9.0793  -20.6582   19.9157 S   0  0  0  0  0  0  0  0  0  0  0  0
    9.5896  -18.9266   19.8429 C   0  0  0  0  0  0  0  0  0  0  0  0
    8.4470  -18.0096   19.4639 C   0  0  0  0  0  0  0  0  0  0  0  0
    9.0008  -16.6031   19.4219 C   0  0  2  0  0  0  0  0  0  0  0  0
   10.2460  -16.6568   18.6896 N   0  0  0  0  0  0  0  0  0  0  0  0
    9.2666  -16.0635   20.7687 C   0  0  0  0  0  0  0  0  0  0  0  0
   10.3779  -16.0800   21.3407 O   0  0  0  0  0  0  0  0  0  0  0  0
    7.2973  -11.8801   28.2819 O   0  0  0  0  0  0  0  0  0  0  0  0
    7.2220  -12.4537   27.0195 C   0  0  0  0  0  0  0  0  0  0  0  0
    6.3968  -13.5341   26.8135 C   0  0  0  0  0  0  0  0  0  0  0  0
    6.3249  -14.1070   25.5411 C   0  0  0  0  0  0  0  0  0  0  0  0
    7.0676  -13.6010   24.5047 C   0  0  0  0  0  0  0  0  0  0  0  0
    6.9826  -14.2110   23.1777 C   0  0  0  0  0  0  0  0  0  0  0  0
    8.2758  -14.9204   22.7666 C   0  0  2  0  0  0  0  0  0  0  0  0
    8.1435  -15.4792   21.4547 N   0  0  0  0  0  0  0  0  0  0  0  0
    8.4636  -16.0162   23.7407 C   0  0  0  0  0  0  0  0  0  0  0  0
    7.6371  -16.9473   23.8200 O   0  0  0  0  0  0  0  0  0  0  0  0
    7.8908  -12.5187   24.7224 C   0  0  0  0  0  0  0  0  0  0  0  0
    7.9796  -11.9282   25.9868 C   0  0  0  0  0  0  0  0  0  0  0  0
   11.1318  -17.7405   25.3047 C   0  0  0  0  0  0  0  0  0  0  0  0
    9.7628  -17.1214   25.5155 C   0  0  2  0  0  0  0  0  0  0  0  0
    9.5872  -16.0206   24.5970 N   0  0  0  0  0  0  0  0  0  0  0  0
    9.5981  -16.6626   26.9161 C   0  0  0  0  0  0  0  0  0  0  0  0
    9.4070  -15.4526   27.1873 O   0  0  0  0  0  0  0  0  0  0  0  0
    9.6514  -17.5651   27.9670 O   0  0  0  0  0  0  0  0  0  0  0  0
  2  1  1  0
  3  2  1  0
  4  5  1  0
  4  3  1  0
  5  6  1  6
  5  7  1  0
  7  8  2  0
  9 10  1  0
 10 20  2  0
 10 11  1  0
 11 12  2  0
 12 13  1  0
 13 14  1  0
 15 14  1  1
 15 17  1  0
 16  7  1  0
 16 15  1  0
 17 18  2  0
 19 13  2  0
 20 19  1  0
 22 21  1  1
 22 24  1  0
 23 22  1  0
 23 17  1  0
 24 26  1  0
 25 24  2  0
M  END
$$$$
