MYA.pdb
     RDKit          3D

 26 26  0  0  1  0  0  0  0  0999 V2000
   10.0902  -22.3656   20.4883 C   0  0  0  0  0  0  0  0  0  0  0  0
    8.3596  -22.8071   20.3029 S   0  0  0  0  0  0  0  0  0  0  0  0
    7.2658  -21.3743   20.4257 C   0  0  0  0  0  0  0  0  0  0  0  0
    8.0315  -20.0883   20.6491 C   0  0  0  0  0  0  0  0  0  0  0  0
    7.0104  -18.9968   20.8784 C   0  0  2  0  0  0  0  0  0  0  0  0
    6.5483  -18.5652   19.5785 N   0  0  0  0  0  0  0  0  0  0  0  0
    7.5792  -17.8355   21.5882 C   0  0  0  0  0  0  0  0  0  0  0  0
    8.4452  -17.0644   21.1216 O   0  0  0  0  0  0  0  0  0  0  0  0
    7.8183  -11.3172   27.4201 O   0  0  0  0  0  0  0  0  0  0  0  0
    7.4736  -12.4711   26.7286 C   0  0  0  0  0  0  0  0  0  0  0  0
    6.6251  -12.3874   25.6499 C   0  0  0  0  0  0  0  0  0  0  0  0
    6.2820  -13.5517   24.9577 C   0  0  0  0  0  0  0  0  0  0  0  0
    6.7833  -14.7682   25.3460 C   0  0  0  0  0  0  0  0  0  0  0  0
    6.4154  -15.9790   24.6122 C   0  0  0  0  0  0  0  0  0  0  0  0
    7.5350  -16.4812   23.6963 C   0  0  2  0  0  0  0  0  0  0  0  0
    7.0817  -17.5945   22.9178 N   0  0  0  0  0  0  0  0  0  0  0  0
    8.6208  -16.9302   24.5931 C   0  0  0  0  0  0  0  0  0  0  0  0
    8.4639  -17.9174   25.3395 O   0  0  0  0  0  0  0  0  0  0  0  0
    7.6323  -14.8402   26.4279 C   0  0  0  0  0  0  0  0  0  0  0  0
    7.9903  -13.6890   27.1363 C   0  0  0  0  0  0  0  0  0  0  0  0
   12.2702  -16.3361   24.6429 C   0  0  0  0  0  0  0  0  0  0  0  0
   10.9881  -16.8582   25.2639 C   0  0  2  0  0  0  0  0  0  0  0  0
    9.8545  -16.2423   24.6145 N   0  0  0  0  0  0  0  0  0  0  0  0
   10.9595  -16.5941   26.7230 C   0  0  0  0  0  0  0  0  0  0  0  0
   10.0960  -15.8395   27.2318 O   0  0  0  0  0  0  0  0  0  0  0  0
   11.8921  -17.1784   27.5659 O   0  0  0  0  0  0  0  0  0  0  0  0
  2  1  1  0
  3  2  1  0
  4  5  1  0
  4  3  1  0
  5  6  1  6
  5  7  1  0
  7  8  2  0
  9 10  1  0
 10 20  2  0
 10 11  1  0
 11 12  2  0
 12 13  1  0
 13 14  1  0
 15 14  1  1
 15 17  1  0
 16  7  1  0
 16 15  1  0
 17 18  2  0
 19 13  2  0
 20 19  1  0
 22 21  1  6
 22 24  1  0
 23 22  1  0
 23 17  1  0
 24 26  1  0
 25 24  2  0
M  END
$$$$
