MYA.pdb
     RDKit          3D

 26 26  0  0  1  0  0  0  0  0999 V2000
    7.0950  -20.1185   19.6521 C   0  0  0  0  0  0  0  0  0  0  0  0
    6.8237  -18.9653   18.3027 S   0  0  0  0  0  0  0  0  0  0  0  0
    7.1270  -17.2519   18.7889 C   0  0  0  0  0  0  0  0  0  0  0  0
    8.0797  -17.1504   19.9603 C   0  0  0  0  0  0  0  0  0  0  0  0
    8.2390  -15.6806   20.2778 C   0  0  2  0  0  0  0  0  0  0  0  0
    8.8639  -15.0617   19.1305 N   0  0  0  0  0  0  0  0  0  0  0  0
    9.0890  -15.4503   21.4612 C   0  0  0  0  0  0  0  0  0  0  0  0
   10.3360  -15.3675   21.4425 O   0  0  0  0  0  0  0  0  0  0  0  0
   10.7098  -14.5721   30.0940 O   0  0  0  0  0  0  0  0  0  0  0  0
   10.0879  -14.6091   28.8530 C   0  0  0  0  0  0  0  0  0  0  0  0
   10.0657  -13.4780   28.0714 C   0  0  0  0  0  0  0  0  0  0  0  0
    9.4386  -13.5212   26.8235 C   0  0  0  0  0  0  0  0  0  0  0  0
    8.8497  -14.6772   26.3777 C   0  0  0  0  0  0  0  0  0  0  0  0
    8.1965  -14.7080   25.0690 C   0  0  0  0  0  0  0  0  0  0  0  0
    9.1234  -15.2014   23.9546 C   0  0  2  0  0  0  0  0  0  0  0  0
    8.4048  -15.3143   22.7210 N   0  0  0  0  0  0  0  0  0  0  0  0
    9.5790  -16.5442   24.3719 C   0  0  0  0  0  0  0  0  0  0  0  0
    8.7623  -17.4737   24.5307 O   0  0  0  0  0  0  0  0  0  0  0  0
    8.8778  -15.8041   27.1689 C   0  0  0  0  0  0  0  0  0  0  0  0
    9.4993  -15.7855   28.4213 C   0  0  0  0  0  0  0  0  0  0  0  0
   12.6281  -18.4756   24.1545 C   0  0  0  0  0  0  0  0  0  0  0  0
   11.3762  -18.1282   24.9381 C   0  0  2  0  0  0  0  0  0  0  0  0
   10.9518  -16.7904   24.5965 N   0  0  0  0  0  0  0  0  0  0  0  0
   11.6149  -18.2424   26.3973 C   0  0  0  0  0  0  0  0  0  0  0  0
   12.2561  -17.3644   27.0234 O   0  0  0  0  0  0  0  0  0  0  0  0
   11.1323  -19.3290   27.1100 O   0  0  0  0  0  0  0  0  0  0  0  0
  2  1  1  0
  3  2  1  0
  4  5  1  0
  4  3  1  0
  5  6  1  6
  5  7  1  0
  7  8  2  0
  9 10  1  0
 10 20  2  0
 10 11  1  0
 11 12  2  0
 12 13  1  0
 13 14  1  0
 15 14  1  1
 15 17  1  0
 16  7  1  0
 16 15  1  0
 17 18  2  0
 19 13  2  0
 20 19  1  0
 22 21  1  6
 22 24  1  0
 23 22  1  0
 23 17  1  0
 24 26  1  0
 25 24  2  0
M  END
$$$$
