MYA.pdb
     RDKit          3D

 26 26  0  0  1  0  0  0  0  0999 V2000
    7.6714  -11.1461   20.4466 C   0  0  0  0  0  0  0  0  0  0  0  0
    7.6765  -12.0576   18.8995 S   0  0  0  0  0  0  0  0  0  0  0  0
    8.4098  -13.7000   19.0696 C   0  0  0  0  0  0  0  0  0  0  0  0
    7.9887  -14.3838   20.3522 C   0  0  0  0  0  0  0  0  0  0  0  0
    8.6898  -15.7229   20.3931 C   0  0  2  0  0  0  0  0  0  0  0  0
    8.0284  -16.5801   19.4353 N   0  0  0  0  0  0  0  0  0  0  0  0
    8.6164  -16.3552   21.7239 C   0  0  0  0  0  0  0  0  0  0  0  0
    7.6894  -17.0970   22.1144 O   0  0  0  0  0  0  0  0  0  0  0  0
   10.4440  -22.5601   22.0015 O   0  0  0  0  0  0  0  0  0  0  0  0
   10.5612  -21.2935   22.5585 C   0  0  0  0  0  0  0  0  0  0  0  0
   11.0485  -20.2591   21.7948 C   0  0  0  0  0  0  0  0  0  0  0  0
   11.1640  -18.9867   22.3605 C   0  0  0  0  0  0  0  0  0  0  0  0
   10.7969  -18.7661   23.6637 C   0  0  0  0  0  0  0  0  0  0  0  0
   10.9234  -17.4287   24.2430 C   0  0  0  0  0  0  0  0  0  0  0  0
    9.7001  -16.5477   23.9752 C   0  0  2  0  0  0  0  0  0  0  0  0
    9.7082  -16.0802   22.6216 N   0  0  0  0  0  0  0  0  0  0  0  0
    9.8277  -15.3903   24.8857 C   0  0  0  0  0  0  0  0  0  0  0  0
   10.8128  -14.6283   24.8140 O   0  0  0  0  0  0  0  0  0  0  0  0
   10.3103  -19.8094   24.4194 C   0  0  0  0  0  0  0  0  0  0  0  0
   10.1853  -21.0915   23.8755 C   0  0  0  0  0  0  0  0  0  0  0  0
    7.6535  -13.4863   27.1744 C   0  0  0  0  0  0  0  0  0  0  0  0
    9.0099  -14.0315   26.7684 C   0  0  2  0  0  0  0  0  0  0  0  0
    8.8298  -15.1335   25.8522 N   0  0  0  0  0  0  0  0  0  0  0  0
    9.7854  -14.4633   27.9565 C   0  0  0  0  0  0  0  0  0  0  0  0
    9.9745  -15.6784   28.2049 O   0  0  0  0  0  0  0  0  0  0  0  0
   10.3238  -13.5289   28.8275 O   0  0  0  0  0  0  0  0  0  0  0  0
  2  1  1  0
  3  2  1  0
  4  5  1  0
  4  3  1  0
  5  6  1  6
  5  7  1  0
  7  8  2  0
  9 10  1  0
 10 20  2  0
 10 11  1  0
 11 12  2  0
 12 13  1  0
 13 14  1  0
 15 14  1  6
 15 17  1  0
 16  7  1  0
 16 15  1  0
 17 18  2  0
 19 13  2  0
 20 19  1  0
 22 21  1  1
 22 24  1  0
 23 22  1  0
 23 17  1  0
 24 26  1  0
 25 24  2  0
M  END
$$$$
