MYA.pdb
     RDKit          3D

 26 26  0  0  1  0  0  0  0  0999 V2000
    7.2439  -11.4618   20.0036 C   0  0  0  0  0  0  0  0  0  0  0  0
    6.9484  -12.7411   18.7786 S   0  0  0  0  0  0  0  0  0  0  0  0
    7.6782  -14.3260   19.2474 C   0  0  0  0  0  0  0  0  0  0  0  0
    8.6993  -14.1797   20.3547 C   0  0  0  0  0  0  0  0  0  0  0  0
    9.1374  -15.5740   20.7428 C   0  0  2  0  0  0  0  0  0  0  0  0
    7.9399  -16.3670   20.9067 N   0  0  0  0  0  0  0  0  0  0  0  0
    9.8947  -15.5932   22.0085 C   0  0  0  0  0  0  0  0  0  0  0  0
   11.1395  -15.5266   22.0996 O   0  0  0  0  0  0  0  0  0  0  0  0
   11.0035  -15.1775   30.7267 O   0  0  0  0  0  0  0  0  0  0  0  0
   10.4384  -15.2297   29.4594 C   0  0  0  0  0  0  0  0  0  0  0  0
   10.4135  -14.0967   28.6806 C   0  0  0  0  0  0  0  0  0  0  0  0
    9.8438  -14.1552   27.4061 C   0  0  0  0  0  0  0  0  0  0  0  0
    9.3133  -15.3280   26.9316 C   0  0  0  0  0  0  0  0  0  0  0  0
    8.7198  -15.3746   25.5953 C   0  0  0  0  0  0  0  0  0  0  0  0
    9.7371  -15.7253   24.5060 C   0  0  2  0  0  0  0  0  0  0  0  0
    9.1166  -15.6973   23.2156 N   0  0  0  0  0  0  0  0  0  0  0  0
   10.1825  -17.1044   24.7970 C   0  0  0  0  0  0  0  0  0  0  0  0
    9.3661  -18.0476   24.8150 O   0  0  0  0  0  0  0  0  0  0  0  0
    9.3435  -16.4566   27.7202 C   0  0  0  0  0  0  0  0  0  0  0  0
    9.9083  -16.4229   28.9989 C   0  0  0  0  0  0  0  0  0  0  0  0
   13.0094  -19.0906   24.1980 C   0  0  0  0  0  0  0  0  0  0  0  0
   11.9679  -18.7391   25.2439 C   0  0  2  0  0  0  0  0  0  0  0  0
   11.5449  -17.3704   25.0592 N   0  0  0  0  0  0  0  0  0  0  0  0
   12.5022  -18.9390   26.6128 C   0  0  0  0  0  0  0  0  0  0  0  0
   12.9001  -20.0644   26.9991 O   0  0  0  0  0  0  0  0  0  0  0  0
   12.5758  -17.8806   27.5049 O   0  0  0  0  0  0  0  0  0  0  0  0
  2  1  1  0
  3  2  1  0
  4  5  1  0
  4  3  1  0
  5  6  1  1
  5  7  1  0
  7  8  2  0
  9 10  1  0
 10 20  2  0
 10 11  1  0
 11 12  2  0
 12 13  1  0
 13 14  1  0
 15 14  1  1
 15 17  1  0
 16  7  1  0
 16 15  1  0
 17 18  2  0
 19 13  2  0
 20 19  1  0
 22 21  1  6
 22 24  1  0
 23 22  1  0
 23 17  1  0
 24 26  1  0
 25 24  2  0
M  END
$$$$
