MYA.pdb
     RDKit          3D

 26 26  0  0  1  0  0  0  0  0999 V2000
   13.9195  -20.3763   23.2834 C   0  0  0  0  0  0  0  0  0  0  0  0
   13.3700  -20.7796   21.6221 S   0  0  0  0  0  0  0  0  0  0  0  0
   12.3295  -19.4869   20.9075 C   0  0  0  0  0  0  0  0  0  0  0  0
   12.1748  -18.3005   21.8342 C   0  0  0  0  0  0  0  0  0  0  0  0
   11.1648  -17.3702   21.2009 C   0  0  2  0  0  0  0  0  0  0  0  0
   11.7644  -16.8481   19.9936 N   0  0  0  0  0  0  0  0  0  0  0  0
   10.8123  -16.2403   22.0812 C   0  0  0  0  0  0  0  0  0  0  0  0
   11.4074  -15.1415   22.1096 O   0  0  0  0  0  0  0  0  0  0  0  0
    5.7703  -11.2609   27.2074 O   0  0  0  0  0  0  0  0  0  0  0  0
    6.2546  -12.2702   26.3859 C   0  0  0  0  0  0  0  0  0  0  0  0
    6.0035  -13.5838   26.7052 C   0  0  0  0  0  0  0  0  0  0  0  0
    6.4932  -14.5952   25.8747 C   0  0  0  0  0  0  0  0  0  0  0  0
    7.2176  -14.2867   24.7515 C   0  0  0  0  0  0  0  0  0  0  0  0
    7.7244  -15.3559   23.8912 C   0  0  0  0  0  0  0  0  0  0  0  0
    9.2539  -15.4219   23.8649 C   0  0  2  0  0  0  0  0  0  0  0  0
    9.6942  -16.4453   22.9651 N   0  0  0  0  0  0  0  0  0  0  0  0
    9.6674  -15.7773   25.2388 C   0  0  0  0  0  0  0  0  0  0  0  0
    9.7854  -16.9713   25.5802 O   0  0  0  0  0  0  0  0  0  0  0  0
    7.4633  -12.9676   24.4413 C   0  0  0  0  0  0  0  0  0  0  0  0
    6.9837  -11.9380   25.2568 C   0  0  0  0  0  0  0  0  0  0  0  0
   10.5127  -13.9121   28.3729 C   0  0  0  0  0  0  0  0  0  0  0  0
   10.4826  -15.1308   27.4697 C   0  0  2  0  0  0  0  0  0  0  0  0
    9.9348  -14.7628   26.1849 N   0  0  0  0  0  0  0  0  0  0  0  0
    9.6889  -16.2245   28.0806 C   0  0  0  0  0  0  0  0  0  0  0  0
    8.5048  -16.4448   27.7294 O   0  0  0  0  0  0  0  0  0  0  0  0
   10.2393  -17.0355   29.0609 O   0  0  0  0  0  0  0  0  0  0  0  0
  2  1  1  0
  3  2  1  0
  4  5  1  0
  4  3  1  0
  5  6  1  6
  5  7  1  0
  7  8  2  0
  9 10  1  0
 10 20  2  0
 10 11  1  0
 11 12  2  0
 12 13  1  0
 13 14  1  0
 15 14  1  1
 15 17  1  0
 16  7  1  0
 16 15  1  0
 17 18  2  0
 19 13  2  0
 20 19  1  0
 22 21  1  1
 22 24  1  0
 23 22  1  0
 23 17  1  0
 24 26  1  0
 25 24  2  0
M  END
$$$$
