YWQ.pdb
     RDKit          3D

 36 38  0  0  1  0  0  0  0  0999 V2000
   30.2288  -17.1051  -18.7524 O   0  0  0  0  0  0  0  0  0  0  0  0
   29.3992  -17.6421  -17.7533 C   0  0  0  0  0  0  0  0  0  0  0  0
   28.2198  -18.2681  -18.1001 C   0  0  0  0  0  0  0  0  0  0  0  0
   27.4327  -18.7817  -17.1035 C   0  0  0  0  0  0  0  0  0  0  0  0
   27.7866  -18.6897  -15.7720 C   0  0  0  0  0  0  0  0  0  0  0  0
   26.9361  -19.2483  -14.6792 C   0  0  0  0  0  0  0  0  0  0  0  0
   27.6764  -20.4591  -14.1344 C   0  0  2  0  0  0  0  0  0  0  0  0
   27.6622  -21.5395  -15.0960 N   0  0  0  0  0  0  0  0  0  0  0  0
   27.0149  -20.9226  -12.8968 C   0  0  0  0  0  0  0  0  0  0  0  0
   26.0156  -21.6695  -12.9782 O   0  0  0  0  0  0  0  0  0  0  0  0
   28.9691  -18.0600  -15.4503 C   0  0  0  0  0  0  0  0  0  0  0  0
   29.7845  -17.5306  -16.4479 C   0  0  0  0  0  0  0  0  0  0  0  0
   27.5237  -20.5130  -11.6492 N   0  0  0  0  0  0  0  0  0  0  0  0
   26.7958  -20.8337  -10.4373 C   0  0  1  0  0  0  0  0  0  0  0  0
   27.6703  -20.4831   -9.2931 C   0  0  0  0  0  0  0  0  0  0  0  0
   27.0315  -20.5403   -7.9833 C   0  0  0  0  0  0  0  0  0  0  0  0
   25.7251  -20.9565   -7.6985 C   0  0  0  0  0  0  0  0  0  0  0  0
   25.5502  -20.8154   -6.3844 N   0  0  0  0  0  0  0  0  0  0  0  0
   26.6777  -20.3323   -5.8210 C   0  0  0  0  0  0  0  0  0  0  0  0
   27.0257  -20.0244   -4.5120 C   0  0  0  0  0  0  0  0  0  0  0  0
   28.2822  -19.5510   -4.1986 C   0  0  0  0  0  0  0  0  0  0  0  0
   29.2318  -19.3683   -5.1703 C   0  0  0  0  0  0  0  0  0  0  0  0
   28.8977  -19.6692   -6.4696 C   0  0  0  0  0  0  0  0  0  0  0  0
   27.6267  -20.1481   -6.7918 C   0  0  0  0  0  0  0  0  0  0  0  0
   25.4287  -20.3339  -10.4466 C   0  0  0  0  0  0  0  0  0  0  0  0
   25.2110  -19.1037  -10.3985 O   0  0  0  0  0  0  0  0  0  0  0  0
   21.5434  -23.4864  -13.9687 N   0  0  0  0  0  0  0  0  0  0  0  0
   20.6651  -22.4664  -13.5358 C   0  0  0  0  0  0  0  0  0  0  0  0
   19.4963  -22.4440  -14.0148 O   0  0  0  0  0  0  0  0  0  0  0  0
   21.1366  -21.4786  -12.5458 C   0  0  0  0  0  0  0  0  0  0  0  0
   22.5100  -21.7044  -12.0260 C   0  0  0  0  0  0  0  0  0  0  0  0
   22.9686  -20.7627  -10.9782 C   0  0  2  0  0  0  0  0  0  0  0  0
   24.3137  -21.2044  -10.5087 N   0  0  0  0  0  0  0  0  0  0  0  0
   22.1345  -20.5142   -9.8214 C   0  0  0  0  0  0  0  0  0  0  0  0
   22.3158  -21.0200   -8.6911 O   0  0  0  0  0  0  0  0  0  0  0  0
   21.0366  -19.6558   -9.9232 O   0  0  0  0  0  0  0  0  0  0  0  0
  2  1  1  0
  3  2  2  0
  4  3  1  0
  5  4  2  0
  5 11  1  0
  6  5  1  0
  7  8  1  6
  7  6  1  0
  9 13  1  0
  9  7  1  0
 10  9  2  0
 11 12  2  0
 12  2  1  0
 14 15  1  1
 14 25  1  0
 14 13  1  0
 16 17  2  0
 16 15  1  0
 18 17  1  0
 19 24  2  0
 19 18  1  0
 20 19  1  0
 21 22  1  0
 21 20  2  0
 22 23  2  0
 23 24  1  0
 24 16  1  0
 25 33  1  0
 26 25  2  0
 27 28  1  0
 28 29  2  0
 30 31  1  0
 30 28  1  0
 32 33  1  0
 32 34  1  0
 32 31  1  6
 34 35  2  0
 34 36  1  0
M  END
$$$$
