YWQ.pdb
     RDKit          3D

 36 38  0  0  1  0  0  0  0  0999 V2000
   35.0749  -32.9526  -19.0038 O   0  0  0  0  0  0  0  0  0  0  0  0
   33.8829  -32.8405  -18.2681 C   0  0  0  0  0  0  0  0  0  0  0  0
   32.9083  -33.8100  -18.3836 C   0  0  0  0  0  0  0  0  0  0  0  0
   31.7575  -33.6728  -17.6534 C   0  0  0  0  0  0  0  0  0  0  0  0
   31.5497  -32.5981  -16.8117 C   0  0  0  0  0  0  0  0  0  0  0  0
   30.2995  -32.4413  -16.0105 C   0  0  0  0  0  0  0  0  0  0  0  0
   29.2237  -31.9767  -16.9787 C   0  0  2  0  0  0  0  0  0  0  0  0
   29.4130  -30.5838  -17.3196 N   0  0  0  0  0  0  0  0  0  0  0  0
   27.8963  -32.1299  -16.3474 C   0  0  0  0  0  0  0  0  0  0  0  0
   27.3334  -31.1293  -15.8522 O   0  0  0  0  0  0  0  0  0  0  0  0
   32.5374  -31.6426  -16.7130 C   0  0  0  0  0  0  0  0  0  0  0  0
   33.7154  -31.7625  -17.4466 C   0  0  0  0  0  0  0  0  0  0  0  0
   27.2914  -33.4013  -16.3159 N   0  0  0  0  0  0  0  0  0  0  0  0
   25.9856  -33.5595  -15.7066 C   0  0  1  0  0  0  0  0  0  0  0  0
   25.1134  -34.2260  -16.7026 C   0  0  0  0  0  0  0  0  0  0  0  0
   23.7187  -34.3769  -16.3039 C   0  0  0  0  0  0  0  0  0  0  0  0
   22.8154  -33.3544  -15.9884 C   0  0  0  0  0  0  0  0  0  0  0  0
   21.6679  -33.9414  -15.6475 N   0  0  0  0  0  0  0  0  0  0  0  0
   21.7961  -35.2825  -15.7311 C   0  0  0  0  0  0  0  0  0  0  0  0
   20.9172  -36.3341  -15.5054 C   0  0  0  0  0  0  0  0  0  0  0  0
   21.3077  -37.6439  -15.6865 C   0  0  0  0  0  0  0  0  0  0  0  0
   22.5790  -37.9526  -16.0965 C   0  0  0  0  0  0  0  0  0  0  0  0
   23.4575  -36.9194  -16.3221 C   0  0  0  0  0  0  0  0  0  0  0  0
   23.0669  -35.5918  -16.1394 C   0  0  0  0  0  0  0  0  0  0  0  0
   26.0497  -34.1087  -14.3601 C   0  0  0  0  0  0  0  0  0  0  0  0
   26.7601  -35.1102  -14.1250 O   0  0  0  0  0  0  0  0  0  0  0  0
   25.0867  -30.8050   -9.1461 N   0  0  0  0  0  0  0  0  0  0  0  0
   25.0328  -32.1116   -8.6083 C   0  0  0  0  0  0  0  0  0  0  0  0
   25.0008  -32.2376   -7.3517 O   0  0  0  0  0  0  0  0  0  0  0  0
   25.0092  -33.2694   -9.5233 C   0  0  0  0  0  0  0  0  0  0  0  0
   25.0298  -32.9367  -10.9712 C   0  0  0  0  0  0  0  0  0  0  0  0
   25.4453  -34.0298  -11.8808 C   0  0  2  0  0  0  0  0  0  0  0  0
   25.3235  -33.5416  -13.2849 N   0  0  0  0  0  0  0  0  0  0  0  0
   24.8061  -35.3251  -11.7853 C   0  0  0  0  0  0  0  0  0  0  0  0
   23.6141  -35.5550  -12.0898 O   0  0  0  0  0  0  0  0  0  0  0  0
   25.5295  -36.4290  -11.3263 O   0  0  0  0  0  0  0  0  0  0  0  0
  2  1  1  0
  3  2  2  0
  4  3  1  0
  5  4  2  0
  5 11  1  0
  6  5  1  0
  7  8  1  1
  7  6  1  0
  9 13  1  0
  9  7  1  0
 10  9  2  0
 11 12  2  0
 12  2  1  0
 14 15  1  6
 14 25  1  0
 14 13  1  0
 16 17  2  0
 16 15  1  0
 18 17  1  0
 19 24  2  0
 19 18  1  0
 20 19  1  0
 21 22  1  0
 21 20  2  0
 22 23  2  0
 23 24  1  0
 24 16  1  0
 25 33  1  0
 26 25  2  0
 27 28  1  0
 28 29  2  0
 30 31  1  0
 30 28  1  0
 32 33  1  0
 32 34  1  0
 32 31  1  1
 34 35  2  0
 34 36  1  0
M  END
$$$$
