YWQ.pdb
     RDKit          3D

 36 38  0  0  1  0  0  0  0  0999 V2000
   30.0803  -17.0602  -18.9955 O   0  0  0  0  0  0  0  0  0  0  0  0
   29.2630  -17.5802  -17.9774 C   0  0  0  0  0  0  0  0  0  0  0  0
   28.1120  -18.2681  -18.3019 C   0  0  0  0  0  0  0  0  0  0  0  0
   27.3363  -18.7632  -17.2873 C   0  0  0  0  0  0  0  0  0  0  0  0
   27.6739  -18.5928  -15.9593 C   0  0  0  0  0  0  0  0  0  0  0  0
   26.8356  -19.1306  -14.8468 C   0  0  0  0  0  0  0  0  0  0  0  0
   27.5240  -20.3966  -14.3630 C   0  0  2  0  0  0  0  0  0  0  0  0
   27.4542  -21.4311  -15.3715 N   0  0  0  0  0  0  0  0  0  0  0  0
   26.8506  -20.8849  -13.1415 C   0  0  0  0  0  0  0  0  0  0  0  0
   25.7817  -21.5252  -13.2445 O   0  0  0  0  0  0  0  0  0  0  0  0
   28.8279  -17.9022  -15.6600 C   0  0  0  0  0  0  0  0  0  0  0  0
   29.6314  -17.3903  -16.6763 C   0  0  0  0  0  0  0  0  0  0  0  0
   27.4268  -20.6187  -11.8843 N   0  0  0  0  0  0  0  0  0  0  0  0
   26.6720  -20.8910  -10.6770 C   0  0  1  0  0  0  0  0  0  0  0  0
   27.5963  -20.7162   -9.5316 C   0  0  0  0  0  0  0  0  0  0  0  0
   26.9622  -20.7061   -8.2183 C   0  0  0  0  0  0  0  0  0  0  0  0
   25.6514  -21.0910   -7.9107 C   0  0  0  0  0  0  0  0  0  0  0  0
   25.4839  -20.8890   -6.6035 N   0  0  0  0  0  0  0  0  0  0  0  0
   26.6201  -20.3969   -6.0662 C   0  0  0  0  0  0  0  0  0  0  0  0
   26.9778  -20.0357   -4.7735 C   0  0  0  0  0  0  0  0  0  0  0  0
   28.2419  -19.5663   -4.4860 C   0  0  0  0  0  0  0  0  0  0  0  0
   29.1899  -19.4403   -5.4682 C   0  0  0  0  0  0  0  0  0  0  0  0
   28.8463  -19.7942   -6.7516 C   0  0  0  0  0  0  0  0  0  0  0  0
   27.5676  -20.2693   -7.0476 C   0  0  0  0  0  0  0  0  0  0  0  0
   25.3869  -20.2083  -10.6443 C   0  0  0  0  0  0  0  0  0  0  0  0
   25.3406  -18.9590  -10.6556 O   0  0  0  0  0  0  0  0  0  0  0  0
   22.6042  -17.9948  -14.3117 N   0  0  0  0  0  0  0  0  0  0  0  0
   22.6916  -19.4024  -14.4140 C   0  0  0  0  0  0  0  0  0  0  0  0
   22.7004  -19.9163  -15.5680 O   0  0  0  0  0  0  0  0  0  0  0  0
   22.7752  -20.2127  -13.1832 C   0  0  0  0  0  0  0  0  0  0  0  0
   22.7858  -19.4416  -11.9133 C   0  0  0  0  0  0  0  0  0  0  0  0
   22.8341  -20.2443  -10.6690 C   0  0  2  0  0  0  0  0  0  0  0  0
   24.1628  -20.9185  -10.5986 N   0  0  0  0  0  0  0  0  0  0  0  0
   21.8035  -21.2269  -10.4081 C   0  0  0  0  0  0  0  0  0  0  0  0
   21.2596  -21.9376  -11.2829 O   0  0  0  0  0  0  0  0  0  0  0  0
   21.3498  -21.4337   -9.1027 O   0  0  0  0  0  0  0  0  0  0  0  0
  2  1  1  0
  3  2  2  0
  4  3  1  0
  5  4  2  0
  5 11  1  0
  6  5  1  0
  7  8  1  6
  7  6  1  0
  9 13  1  0
  9  7  1  0
 10  9  2  0
 11 12  2  0
 12  2  1  0
 14 15  1  1
 14 25  1  0
 14 13  1  0
 16 17  2  0
 16 15  1  0
 18 17  1  0
 19 24  2  0
 19 18  1  0
 20 19  1  0
 21 22  1  0
 21 20  2  0
 22 23  2  0
 23 24  1  0
 24 16  1  0
 25 33  1  0
 26 25  2  0
 27 28  1  0
 28 29  2  0
 30 31  1  0
 30 28  1  0
 32 33  1  0
 32 34  1  0
 32 31  1  6
 34 35  2  0
 34 36  1  0
M  END
$$$$
