YWQ.pdb
     RDKit          3D

 36 38  0  0  1  0  0  0  0  0999 V2000
   30.4547  -16.9895  -19.3345 O   0  0  0  0  0  0  0  0  0  0  0  0
   29.6892  -17.5178  -18.2811 C   0  0  0  0  0  0  0  0  0  0  0  0
   30.2569  -17.6891  -17.0355 C   0  0  0  0  0  0  0  0  0  0  0  0
   29.4851  -18.2059  -16.0288 C   0  0  0  0  0  0  0  0  0  0  0  0
   28.1644  -18.5569  -16.2272 C   0  0  0  0  0  0  0  0  0  0  0  0
   27.3149  -19.1191  -15.1354 C   0  0  0  0  0  0  0  0  0  0  0  0
   27.9230  -20.4624  -14.7658 C   0  0  2  0  0  0  0  0  0  0  0  0
   27.7701  -21.4062  -15.8512 N   0  0  0  0  0  0  0  0  0  0  0  0
   27.2348  -21.0012  -13.5741 C   0  0  0  0  0  0  0  0  0  0  0  0
   26.1159  -21.5435  -13.7047 O   0  0  0  0  0  0  0  0  0  0  0  0
   27.6195  -18.3768  -17.4797 C   0  0  0  0  0  0  0  0  0  0  0  0
   28.3866  -17.8527  -18.5176 C   0  0  0  0  0  0  0  0  0  0  0  0
   27.8537  -20.8926  -12.3137 N   0  0  0  0  0  0  0  0  0  0  0  0
   27.0907  -21.1725  -11.1134 C   0  0  1  0  0  0  0  0  0  0  0  0
   28.0393  -21.1532   -9.9747 C   0  0  0  0  0  0  0  0  0  0  0  0
   27.4332  -20.9403   -8.6654 C   0  0  0  0  0  0  0  0  0  0  0  0
   26.0827  -21.0887   -8.3260 C   0  0  0  0  0  0  0  0  0  0  0  0
   25.9674  -20.7607   -7.0389 N   0  0  0  0  0  0  0  0  0  0  0  0
   27.1742  -20.4129   -6.5443 C   0  0  0  0  0  0  0  0  0  0  0  0
   27.6021  -20.0121   -5.2852 C   0  0  0  0  0  0  0  0  0  0  0  0
   28.9281  -19.7264   -5.0380 C   0  0  0  0  0  0  0  0  0  0  0  0
   29.8702  -19.8287   -6.0286 C   0  0  0  0  0  0  0  0  0  0  0  0
   29.4574  -20.2239   -7.2791 C   0  0  0  0  0  0  0  0  0  0  0  0
   28.1160  -20.5136   -7.5343 C   0  0  0  0  0  0  0  0  0  0  0  0
   25.8724  -20.3817  -11.0173 C   0  0  0  0  0  0  0  0  0  0  0  0
   25.9150  -19.1429  -11.1804 O   0  0  0  0  0  0  0  0  0  0  0  0
   23.2890  -21.0591  -15.4433 N   0  0  0  0  0  0  0  0  0  0  0  0
   22.2538  -20.2512  -14.9188 C   0  0  0  0  0  0  0  0  0  0  0  0
   21.2850  -19.9592  -15.6751 O   0  0  0  0  0  0  0  0  0  0  0  0
   22.3369  -19.7880  -13.5200 C   0  0  0  0  0  0  0  0  0  0  0  0
   23.5309  -20.2504  -12.7664 C   0  0  0  0  0  0  0  0  0  0  0  0
   23.3376  -20.4603  -11.3126 C   0  0  2  0  0  0  0  0  0  0  0  0
   24.6160  -20.9729  -10.7400 N   0  0  0  0  0  0  0  0  0  0  0  0
   22.2538  -21.2991  -10.8462 C   0  0  0  0  0  0  0  0  0  0  0  0
   22.3717  -22.5043  -10.5299 O   0  0  0  0  0  0  0  0  0  0  0  0
   20.9656  -20.7719  -10.7233 O   0  0  0  0  0  0  0  0  0  0  0  0
  2  1  1  0
  3  2  2  0
  4  3  1  0
  5  4  2  0
  5 11  1  0
  6  5  1  0
  7  8  1  6
  7  6  1  0
  9 13  1  0
  9  7  1  0
 10  9  2  0
 11 12  2  0
 12  2  1  0
 14 15  1  1
 14 25  1  0
 14 13  1  0
 16 17  2  0
 16 15  1  0
 18 17  1  0
 19 24  2  0
 19 18  1  0
 20 19  1  0
 21 22  1  0
 21 20  2  0
 22 23  2  0
 23 24  1  0
 24 16  1  0
 25 33  1  0
 26 25  2  0
 27 28  1  0
 28 29  2  0
 30 31  1  0
 30 28  1  0
 32 33  1  0
 32 34  1  0
 32 31  1  6
 34 35  2  0
 34 36  1  0
M  END
$$$$
