YWQ.pdb
     RDKit          3D

 36 38  0  0  1  0  0  0  0  0999 V2000
   30.6400  -15.8072  -18.4421 O   0  0  0  0  0  0  0  0  0  0  0  0
   29.8030  -16.4514  -17.5153 C   0  0  0  0  0  0  0  0  0  0  0  0
   30.2950  -17.4843  -16.7444 C   0  0  0  0  0  0  0  0  0  0  0  0
   29.4547  -18.0922  -15.8496 C   0  0  0  0  0  0  0  0  0  0  0  0
   28.1389  -17.7010  -15.7007 C   0  0  0  0  0  0  0  0  0  0  0  0
   27.2162  -18.3564  -14.7266 C   0  0  0  0  0  0  0  0  0  0  0  0
   27.2612  -19.8459  -15.0271 C   0  0  2  0  0  0  0  0  0  0  0  0
   27.0203  -20.0890  -16.4325 N   0  0  0  0  0  0  0  0  0  0  0  0
   26.2145  -20.5359  -14.2446 C   0  0  0  0  0  0  0  0  0  0  0  0
   25.1013  -20.7563  -14.7693 O   0  0  0  0  0  0  0  0  0  0  0  0
   27.6702  -16.6672  -16.4817 C   0  0  0  0  0  0  0  0  0  0  0  0
   28.5077  -16.0351  -17.3979 C   0  0  0  0  0  0  0  0  0  0  0  0
   26.4921  -20.9316  -12.9218 N   0  0  0  0  0  0  0  0  0  0  0  0
   25.4642  -21.5888  -12.1389 C   0  0  1  0  0  0  0  0  0  0  0  0
   26.1354  -22.2366  -10.9871 C   0  0  0  0  0  0  0  0  0  0  0  0
   27.2329  -21.4763  -10.4002 C   0  0  0  0  0  0  0  0  0  0  0  0
   28.5081  -21.2780  -10.9438 C   0  0  0  0  0  0  0  0  0  0  0  0
   29.1984  -20.5553  -10.0614 N   0  0  0  0  0  0  0  0  0  0  0  0
   28.4273  -20.2843   -8.9871 C   0  0  0  0  0  0  0  0  0  0  0  0
   28.6501  -19.5697   -7.8171 C   0  0  0  0  0  0  0  0  0  0  0  0
   27.6614  -19.4274   -6.8668 C   0  0  0  0  0  0  0  0  0  0  0  0
   26.4229  -19.9874   -7.0454 C   0  0  0  0  0  0  0  0  0  0  0  0
   26.1917  -20.6976   -8.1997 C   0  0  0  0  0  0  0  0  0  0  0  0
   27.1898  -20.8450   -9.1643 C   0  0  0  0  0  0  0  0  0  0  0  0
   24.3125  -20.7361  -11.8833 C   0  0  0  0  0  0  0  0  0  0  0  0
   24.4765  -19.5285  -11.6045 O   0  0  0  0  0  0  0  0  0  0  0  0
   23.4073  -18.6431  -15.5138 N   0  0  0  0  0  0  0  0  0  0  0  0
   22.0129  -18.7804  -15.3244 C   0  0  0  0  0  0  0  0  0  0  0  0
   21.2415  -18.1380  -16.0913 O   0  0  0  0  0  0  0  0  0  0  0  0
   21.5125  -19.6645  -14.2538 C   0  0  0  0  0  0  0  0  0  0  0  0
   21.9173  -19.2864  -12.8751 C   0  0  0  0  0  0  0  0  0  0  0  0
   21.7894  -20.3473  -11.8489 C   0  0  2  0  0  0  0  0  0  0  0  0
   22.9872  -21.2316  -11.9386 N   0  0  0  0  0  0  0  0  0  0  0  0
   20.6039  -21.1776  -11.8186 C   0  0  0  0  0  0  0  0  0  0  0  0
   20.5930  -22.4110  -12.0301 O   0  0  0  0  0  0  0  0  0  0  0  0
   19.3591  -20.6081  -11.5378 O   0  0  0  0  0  0  0  0  0  0  0  0
  2  1  1  0
  3  2  2  0
  4  3  1  0
  5  4  2  0
  5 11  1  0
  6  5  1  0
  7  8  1  6
  7  6  1  0
  9 13  1  0
  9  7  1  0
 10  9  2  0
 11 12  2  0
 12  2  1  0
 14 15  1  1
 14 25  1  0
 14 13  1  0
 16 17  2  0
 16 15  1  0
 18 17  1  0
 19 24  2  0
 19 18  1  0
 20 19  1  0
 21 22  1  0
 21 20  2  0
 22 23  2  0
 23 24  1  0
 24 16  1  0
 25 33  1  0
 26 25  2  0
 27 28  1  0
 28 29  2  0
 30 31  1  0
 30 28  1  0
 32 33  1  0
 32 34  1  0
 32 31  1  6
 34 35  2  0
 34 36  1  0
M  END
$$$$
