YWQ.pdb
     RDKit          3D

 36 38  0  0  1  0  0  0  0  0999 V2000
   30.0600  -17.0604  -18.7701 O   0  0  0  0  0  0  0  0  0  0  0  0
   29.2486  -17.6362  -17.7777 C   0  0  0  0  0  0  0  0  0  0  0  0
   28.2843  -18.5592  -18.1262 C   0  0  0  0  0  0  0  0  0  0  0  0
   27.5094  -19.1029  -17.1362 C   0  0  0  0  0  0  0  0  0  0  0  0
   27.6673  -18.7539  -15.8096 C   0  0  0  0  0  0  0  0  0  0  0  0
   26.8287  -19.3429  -14.7236 C   0  0  0  0  0  0  0  0  0  0  0  0
   27.5692  -20.5747  -14.2285 C   0  0  2  0  0  0  0  0  0  0  0  0
   27.5476  -21.6182  -15.2300 N   0  0  0  0  0  0  0  0  0  0  0  0
   26.9131  -21.0832  -13.0058 C   0  0  0  0  0  0  0  0  0  0  0  0
   25.8894  -21.7935  -13.1091 O   0  0  0  0  0  0  0  0  0  0  0  0
   28.6369  -17.8301  -15.4860 C   0  0  0  0  0  0  0  0  0  0  0  0
   29.4360  -17.2646  -16.4770 C   0  0  0  0  0  0  0  0  0  0  0  0
   27.4545  -20.7568  -11.7474 N   0  0  0  0  0  0  0  0  0  0  0  0
   26.6519  -20.9341  -10.5533 C   0  0  1  0  0  0  0  0  0  0  0  0
   27.5288  -20.6628   -9.3896 C   0  0  0  0  0  0  0  0  0  0  0  0
   26.8445  -20.5695   -8.1051 C   0  0  0  0  0  0  0  0  0  0  0  0
   25.4975  -20.8495   -7.8438 C   0  0  0  0  0  0  0  0  0  0  0  0
   25.2925  -20.5989   -6.5505 N   0  0  0  0  0  0  0  0  0  0  0  0
   26.4392  -20.1754   -5.9780 C   0  0  0  0  0  0  0  0  0  0  0  0
   26.7697  -19.8046   -4.6808 C   0  0  0  0  0  0  0  0  0  0  0  0
   28.0523  -19.4202   -4.3518 C   0  0  0  0  0  0  0  0  0  0  0  0
   29.0460  -19.3912   -5.2958 C   0  0  0  0  0  0  0  0  0  0  0  0
   28.7296  -19.7554   -6.5832 C   0  0  0  0  0  0  0  0  0  0  0  0
   27.4325  -20.1448   -6.9212 C   0  0  0  0  0  0  0  0  0  0  0  0
   25.3655  -20.2570  -10.6277 C   0  0  0  0  0  0  0  0  0  0  0  0
   25.3180  -19.0144  -10.7571 O   0  0  0  0  0  0  0  0  0  0  0  0
   23.4184  -18.2270  -14.4774 N   0  0  0  0  0  0  0  0  0  0  0  0
   22.7800  -19.4874  -14.5344 C   0  0  0  0  0  0  0  0  0  0  0  0
   22.5185  -19.9717  -15.6715 O   0  0  0  0  0  0  0  0  0  0  0  0
   22.4512  -20.1885  -13.2780 C   0  0  0  0  0  0  0  0  0  0  0  0
   22.9090  -19.5154  -12.0351 C   0  0  0  0  0  0  0  0  0  0  0  0
   22.8185  -20.3182  -10.7932 C   0  0  2  0  0  0  0  0  0  0  0  0
   24.1415  -20.9653  -10.5572 N   0  0  0  0  0  0  0  0  0  0  0  0
   21.7836  -21.3218  -10.6609 C   0  0  0  0  0  0  0  0  0  0  0  0
   21.9818  -22.5571  -10.6911 O   0  0  0  0  0  0  0  0  0  0  0  0
   20.4527  -20.9339  -10.4850 O   0  0  0  0  0  0  0  0  0  0  0  0
  2  1  1  0
  3  2  2  0
  4  3  1  0
  5  4  2  0
  5 11  1  0
  6  5  1  0
  7  8  1  6
  7  6  1  0
  9 13  1  0
  9  7  1  0
 10  9  2  0
 11 12  2  0
 12  2  1  0
 14 15  1  1
 14 25  1  0
 14 13  1  0
 16 17  2  0
 16 15  1  0
 18 17  1  0
 19 24  2  0
 19 18  1  0
 20 19  1  0
 21 22  1  0
 21 20  2  0
 22 23  2  0
 23 24  1  0
 24 16  1  0
 25 33  1  0
 26 25  2  0
 27 28  1  0
 28 29  2  0
 30 31  1  0
 30 28  1  0
 32 33  1  0
 32 34  1  0
 32 31  1  6
 34 35  2  0
 34 36  1  0
M  END
$$$$
