YWQ.pdb
     RDKit          3D

 36 38  0  0  1  0  0  0  0  0999 V2000
   28.4543  -29.6082  -18.4558 O   0  0  0  0  0  0  0  0  0  0  0  0
   28.0268  -28.4406  -17.8009 C   0  0  0  0  0  0  0  0  0  0  0  0
   28.7599  -27.9337  -16.7479 C   0  0  0  0  0  0  0  0  0  0  0  0
   28.3177  -26.7940  -16.1299 C   0  0  0  0  0  0  0  0  0  0  0  0
   27.1667  -26.1450  -16.5306 C   0  0  0  0  0  0  0  0  0  0  0  0
   26.6782  -24.9011  -15.8644 C   0  0  0  0  0  0  0  0  0  0  0  0
   27.0965  -23.7431  -16.7559 C   0  0  2  0  0  0  0  0  0  0  0  0
   28.5133  -23.4842  -16.6226 N   0  0  0  0  0  0  0  0  0  0  0  0
   26.3571  -22.5266  -16.3592 C   0  0  0  0  0  0  0  0  0  0  0  0
   26.7230  -21.8888  -15.3480 O   0  0  0  0  0  0  0  0  0  0  0  0
   26.4513  -26.6701  -17.5845 C   0  0  0  0  0  0  0  0  0  0  0  0
   26.8830  -27.8282  -18.2271 C   0  0  0  0  0  0  0  0  0  0  0  0
   25.2537  -22.1098  -17.1287 N   0  0  0  0  0  0  0  0  0  0  0  0
   24.5299  -20.9108  -16.7544 C   0  0  1  0  0  0  0  0  0  0  0  0
   24.6928  -19.9359  -17.8588 C   0  0  0  0  0  0  0  0  0  0  0  0
   25.9638  -19.2208  -17.8731 C   0  0  0  0  0  0  0  0  0  0  0  0
   27.0496  -19.4459  -18.7284 C   0  0  0  0  0  0  0  0  0  0  0  0
   28.0096  -18.5931  -18.3700 N   0  0  0  0  0  0  0  0  0  0  0  0
   27.5891  -17.8385  -17.3328 C   0  0  0  0  0  0  0  0  0  0  0  0
   28.1804  -16.8130  -16.6062 C   0  0  0  0  0  0  0  0  0  0  0  0
   27.5074  -16.1824  -15.5814 C   0  0  0  0  0  0  0  0  0  0  0  0
   26.2295  -16.5472  -15.2447 C   0  0  0  0  0  0  0  0  0  0  0  0
   25.6348  -17.5618  -15.9569 C   0  0  0  0  0  0  0  0  0  0  0  0
   26.3125  -18.2035  -16.9949 C   0  0  0  0  0  0  0  0  0  0  0  0
   23.1880  -21.1875  -16.2630 C   0  0  0  0  0  0  0  0  0  0  0  0
   22.4243  -21.9343  -16.9127 O   0  0  0  0  0  0  0  0  0  0  0  0
   21.3130  -20.0352  -10.3393 N   0  0  0  0  0  0  0  0  0  0  0  0
   20.7126  -19.0898  -11.2024 C   0  0  0  0  0  0  0  0  0  0  0  0
   20.2070  -18.0519  -10.6896 O   0  0  0  0  0  0  0  0  0  0  0  0
   20.7035  -19.3422  -12.6566 C   0  0  0  0  0  0  0  0  0  0  0  0
   21.3175  -20.6261  -13.0834 C   0  0  0  0  0  0  0  0  0  0  0  0
   21.3264  -20.8861  -14.5419 C   0  0  2  0  0  0  0  0  0  0  0  0
   22.7040  -20.6317  -15.0539 N   0  0  0  0  0  0  0  0  0  0  0  0
   20.3817  -20.2014  -15.3990 C   0  0  0  0  0  0  0  0  0  0  0  0
   19.2263  -20.6094  -15.6539 O   0  0  0  0  0  0  0  0  0  0  0  0
   20.7380  -18.9955  -16.0083 O   0  0  0  0  0  0  0  0  0  0  0  0
  2  1  1  0
  3  2  2  0
  4  3  1  0
  5  4  2  0
  5 11  1  0
  6  5  1  0
  7  8  1  1
  7  6  1  0
  9 13  1  0
  9  7  1  0
 10  9  2  0
 11 12  2  0
 12  2  1  0
 14 15  1  6
 14 25  1  0
 14 13  1  0
 16 17  2  0
 16 15  1  0
 18 17  1  0
 19 24  2  0
 19 18  1  0
 20 19  1  0
 21 22  1  0
 21 20  2  0
 22 23  2  0
 23 24  1  0
 24 16  1  0
 25 33  1  0
 26 25  2  0
 27 28  1  0
 28 29  2  0
 30 31  1  0
 30 28  1  0
 32 33  1  0
 32 34  1  0
 32 31  1  1
 34 35  2  0
 34 36  1  0
M  END
$$$$
