YWQ.pdb
     RDKit          3D

 36 38  0  0  1  0  0  0  0  0999 V2000
   30.2686  -15.0225  -18.2374 O   0  0  0  0  0  0  0  0  0  0  0  0
   29.4192  -15.9049  -17.5485 C   0  0  0  0  0  0  0  0  0  0  0  0
   28.9253  -17.0242  -18.1860 C   0  0  0  0  0  0  0  0  0  0  0  0
   28.0999  -17.8654  -17.4878 C   0  0  0  0  0  0  0  0  0  0  0  0
   27.7525  -17.6238  -16.1734 C   0  0  0  0  0  0  0  0  0  0  0  0
   26.8552  -18.5362  -15.4039 C   0  0  0  0  0  0  0  0  0  0  0  0
   27.7602  -19.4119  -14.5525 C   0  0  2  0  0  0  0  0  0  0  0  0
   28.5998  -20.2410  -15.3891 N   0  0  0  0  0  0  0  0  0  0  0  0
   26.9322  -20.2905  -13.7002 C   0  0  0  0  0  0  0  0  0  0  0  0
   25.9248  -20.8469  -14.1888 O   0  0  0  0  0  0  0  0  0  0  0  0
   28.2582  -16.4996  -15.5581 C   0  0  0  0  0  0  0  0  0  0  0  0
   29.0992  -15.6307  -16.2495 C   0  0  0  0  0  0  0  0  0  0  0  0
   27.2946  -20.4834  -12.3530 N   0  0  0  0  0  0  0  0  0  0  0  0
   26.4041  -21.2070  -11.4671 C   0  0  1  0  0  0  0  0  0  0  0  0
   27.1486  -21.4683  -10.2125 C   0  0  0  0  0  0  0  0  0  0  0  0
   26.5806  -20.8590   -9.0153 C   0  0  0  0  0  0  0  0  0  0  0  0
   25.2399  -20.5196   -8.7956 C   0  0  0  0  0  0  0  0  0  0  0  0
   25.1739  -19.9595   -7.5876 N   0  0  0  0  0  0  0  0  0  0  0  0
   26.4025  -19.9268   -7.0295 C   0  0  0  0  0  0  0  0  0  0  0  0
   26.8749  -19.4727   -5.8047 C   0  0  0  0  0  0  0  0  0  0  0  0
   28.2081  -19.5770   -5.4692 C   0  0  0  0  0  0  0  0  0  0  0  0
   29.1138  -20.1337   -6.3349 C   0  0  0  0  0  0  0  0  0  0  0  0
   28.6571  -20.5859   -7.5503 C   0  0  0  0  0  0  0  0  0  0  0  0
   27.3084  -20.4818   -7.8947 C   0  0  0  0  0  0  0  0  0  0  0  0
   25.0805  -20.6079  -11.3786 C   0  0  0  0  0  0  0  0  0  0  0  0
   24.9598  -19.3887  -11.1295 O   0  0  0  0  0  0  0  0  0  0  0  0
   22.4446  -17.4910  -14.3443 N   0  0  0  0  0  0  0  0  0  0  0  0
   22.3591  -18.8010  -14.8697 C   0  0  0  0  0  0  0  0  0  0  0  0
   22.2761  -18.9358  -16.1231 O   0  0  0  0  0  0  0  0  0  0  0  0
   22.3762  -19.9525  -13.9467 C   0  0  0  0  0  0  0  0  0  0  0  0
   22.5443  -19.6138  -12.5099 C   0  0  0  0  0  0  0  0  0  0  0  0
   22.5390  -20.7590  -11.5699 C   0  0  2  0  0  0  0  0  0  0  0  0
   23.9006  -21.3678  -11.5668 N   0  0  0  0  0  0  0  0  0  0  0  0
   21.5616  -21.8148  -11.7302 C   0  0  0  0  0  0  0  0  0  0  0  0
   21.8125  -22.9546  -12.1819 O   0  0  0  0  0  0  0  0  0  0  0  0
   20.2297  -21.5945  -11.3691 O   0  0  0  0  0  0  0  0  0  0  0  0
  2  1  1  0
  3  2  2  0
  4  3  1  0
  5  4  2  0
  5 11  1  0
  6  5  1  0
  7  8  1  6
  7  6  1  0
  9 13  1  0
  9  7  1  0
 10  9  2  0
 11 12  2  0
 12  2  1  0
 14 15  1  1
 14 25  1  0
 14 13  1  0
 16 17  2  0
 16 15  1  0
 18 17  1  0
 19 24  2  0
 19 18  1  0
 20 19  1  0
 21 22  1  0
 21 20  2  0
 22 23  2  0
 23 24  1  0
 24 16  1  0
 25 33  1  0
 26 25  2  0
 27 28  1  0
 28 29  2  0
 30 31  1  0
 30 28  1  0
 32 33  1  0
 32 34  1  0
 32 31  1  6
 34 35  2  0
 34 36  1  0
M  END
$$$$
