YWQ.pdb
     RDKit          3D

 36 38  0  0  1  0  0  0  0  0999 V2000
   25.0380  -17.2714  -18.8329 O   0  0  0  0  0  0  0  0  0  0  0  0
   24.9811  -18.0172  -17.6432 C   0  0  0  0  0  0  0  0  0  0  0  0
   25.4035  -17.4544  -16.4565 C   0  0  0  0  0  0  0  0  0  0  0  0
   25.3355  -18.2064  -15.3137 C   0  0  0  0  0  0  0  0  0  0  0  0
   24.8591  -19.5024  -15.3189 C   0  0  0  0  0  0  0  0  0  0  0  0
   24.7794  -20.3290  -14.0779 C   0  0  0  0  0  0  0  0  0  0  0  0
   26.2125  -20.6151  -13.6591 C   0  0  2  0  0  0  0  0  0  0  0  0
   26.7955  -21.6347  -14.5034 N   0  0  0  0  0  0  0  0  0  0  0  0
   26.2284  -21.0963  -12.2618 C   0  0  0  0  0  0  0  0  0  0  0  0
   25.6872  -22.1883  -11.9829 O   0  0  0  0  0  0  0  0  0  0  0  0
   24.4431  -20.0429  -16.5160 C   0  0  0  0  0  0  0  0  0  0  0  0
   24.5036  -19.2957  -17.6901 C   0  0  0  0  0  0  0  0  0  0  0  0
   26.8533  -20.3142  -11.2713 N   0  0  0  0  0  0  0  0  0  0  0  0
   26.5974  -20.5906   -9.8715 C   0  0  1  0  0  0  0  0  0  0  0  0
   27.3169  -19.5635   -9.0816 C   0  0  0  0  0  0  0  0  0  0  0  0
   28.1687  -20.0828   -8.0177 C   0  0  0  0  0  0  0  0  0  0  0  0
   29.1122  -21.1126   -8.1183 C   0  0  0  0  0  0  0  0  0  0  0  0
   29.6333  -21.2822   -6.9029 N   0  0  0  0  0  0  0  0  0  0  0  0
   29.0701  -20.4132   -6.0371 C   0  0  0  0  0  0  0  0  0  0  0  0
   29.2608  -20.1668   -4.6835 C   0  0  0  0  0  0  0  0  0  0  0  0
   28.5494  -19.1841   -4.0284 C   0  0  0  0  0  0  0  0  0  0  0  0
   27.6285  -18.4158   -4.6925 C   0  0  0  0  0  0  0  0  0  0  0  0
   27.4311  -18.6517   -6.0325 C   0  0  0  0  0  0  0  0  0  0  0  0
   28.1485  -19.6459   -6.6999 C   0  0  0  0  0  0  0  0  0  0  0  0
   25.1894  -20.8266   -9.5873 C   0  0  0  0  0  0  0  0  0  0  0  0
   24.8318  -21.8873   -9.0304 O   0  0  0  0  0  0  0  0  0  0  0  0
   20.9904  -18.7157  -13.4756 N   0  0  0  0  0  0  0  0  0  0  0  0
   20.3318  -18.6930  -12.2246 C   0  0  0  0  0  0  0  0  0  0  0  0
   19.3518  -17.9088  -12.0815 O   0  0  0  0  0  0  0  0  0  0  0  0
   20.8024  -19.5811  -11.1438 C   0  0  0  0  0  0  0  0  0  0  0  0
   21.9619  -19.0756  -10.3645 C   0  0  0  0  0  0  0  0  0  0  0  0
   22.7429  -20.0977   -9.6293 C   0  0  2  0  0  0  0  0  0  0  0  0
   24.1891  -19.8828   -9.9244 N   0  0  0  0  0  0  0  0  0  0  0  0
   22.4384  -21.5013   -9.8105 C   0  0  0  0  0  0  0  0  0  0  0  0
   22.8119  -22.1907  -10.7859 O   0  0  0  0  0  0  0  0  0  0  0  0
   21.6761  -22.1797   -8.8558 O   0  0  0  0  0  0  0  0  0  0  0  0
  2  1  1  0
  3  2  2  0
  4  3  1  0
  5  4  2  0
  5 11  1  0
  6  5  1  0
  7  8  1  6
  7  6  1  0
  9 13  1  0
  9  7  1  0
 10  9  2  0
 11 12  2  0
 12  2  1  0
 14 15  1  1
 14 25  1  0
 14 13  1  0
 16 17  2  0
 16 15  1  0
 18 17  1  0
 19 24  2  0
 19 18  1  0
 20 19  1  0
 21 22  1  0
 21 20  2  0
 22 23  2  0
 23 24  1  0
 24 16  1  0
 25 33  1  0
 26 25  2  0
 27 28  1  0
 28 29  2  0
 30 31  1  0
 30 28  1  0
 32 33  1  0
 32 34  1  0
 32 31  1  6
 34 35  2  0
 34 36  1  0
M  END
$$$$
