YWQ.pdb
     RDKit          3D

 36 38  0  0  1  0  0  0  0  0999 V2000
   32.2281  -27.8532  -21.3721 O   0  0  0  0  0  0  0  0  0  0  0  0
   31.2540  -27.1453  -20.6477 C   0  0  0  0  0  0  0  0  0  0  0  0
   31.3767  -25.7816  -20.4792 C   0  0  0  0  0  0  0  0  0  0  0  0
   30.4108  -25.1195  -19.7685 C   0  0  0  0  0  0  0  0  0  0  0  0
   29.3267  -25.7765  -19.2211 C   0  0  0  0  0  0  0  0  0  0  0  0
   28.2680  -25.0629  -18.4467 C   0  0  0  0  0  0  0  0  0  0  0  0
   28.8246  -24.8559  -17.0474 C   0  0  2  0  0  0  0  0  0  0  0  0
   28.7423  -26.0797  -16.2807 N   0  0  0  0  0  0  0  0  0  0  0  0
   28.0374  -23.8140  -16.3555 C   0  0  0  0  0  0  0  0  0  0  0  0
   27.0544  -24.1489  -15.6593 O   0  0  0  0  0  0  0  0  0  0  0  0
   29.2259  -27.1386  -19.4027 C   0  0  0  0  0  0  0  0  0  0  0  0
   30.1968  -27.8315  -20.1220 C   0  0  0  0  0  0  0  0  0  0  0  0
   28.4103  -22.4631  -16.4947 N   0  0  0  0  0  0  0  0  0  0  0  0
   27.6746  -21.4385  -15.7805 C   0  0  1  0  0  0  0  0  0  0  0  0
   28.5697  -20.2644  -15.6499 C   0  0  0  0  0  0  0  0  0  0  0  0
   27.9387  -19.0578  -15.1273 C   0  0  0  0  0  0  0  0  0  0  0  0
   27.2974  -18.9080  -13.8915 C   0  0  0  0  0  0  0  0  0  0  0  0
   26.8389  -17.6571  -13.8410 N   0  0  0  0  0  0  0  0  0  0  0  0
   27.1566  -17.0058  -14.9798 C   0  0  0  0  0  0  0  0  0  0  0  0
   26.9349  -15.7080  -15.4222 C   0  0  0  0  0  0  0  0  0  0  0  0
   27.3926  -15.2835  -16.6515 C   0  0  0  0  0  0  0  0  0  0  0  0
   28.0834  -16.1299  -17.4797 C   0  0  0  0  0  0  0  0  0  0  0  0
   28.3079  -17.4171  -17.0520 C   0  0  0  0  0  0  0  0  0  0  0  0
   27.8458  -17.8515  -15.8086 C   0  0  0  0  0  0  0  0  0  0  0  0
   26.3316  -21.2345  -16.3035 C   0  0  0  0  0  0  0  0  0  0  0  0
   26.1273  -21.2692  -17.5364 O   0  0  0  0  0  0  0  0  0  0  0  0
   21.1829  -23.3987  -14.1494 N   0  0  0  0  0  0  0  0  0  0  0  0
   22.1790  -23.9128  -15.0114 C   0  0  0  0  0  0  0  0  0  0  0  0
   22.2643  -25.1664  -15.1422 O   0  0  0  0  0  0  0  0  0  0  0  0
   23.0699  -22.9775  -15.7253 C   0  0  0  0  0  0  0  0  0  0  0  0
   22.8800  -21.5412  -15.3961 C   0  0  0  0  0  0  0  0  0  0  0  0
   23.8793  -20.6084  -15.9674 C   0  0  2  0  0  0  0  0  0  0  0  0
   25.2256  -20.9928  -15.4530 N   0  0  0  0  0  0  0  0  0  0  0  0
   23.7097  -19.1811  -15.7953 C   0  0  0  0  0  0  0  0  0  0  0  0
   24.4425  -18.4576  -15.0840 O   0  0  0  0  0  0  0  0  0  0  0  0
   22.6682  -18.5175  -16.4492 O   0  0  0  0  0  0  0  0  0  0  0  0
  2  1  1  0
  3  2  2  0
  4  3  1  0
  5  4  2  0
  5 11  1  0
  6  5  1  0
  7  8  1  1
  7  6  1  0
  9 13  1  0
  9  7  1  0
 10  9  2  0
 11 12  2  0
 12  2  1  0
 14 15  1  6
 14 25  1  0
 14 13  1  0
 16 17  2  0
 16 15  1  0
 18 17  1  0
 19 24  2  0
 19 18  1  0
 20 19  1  0
 21 22  1  0
 21 20  2  0
 22 23  2  0
 23 24  1  0
 24 16  1  0
 25 33  1  0
 26 25  2  0
 27 28  1  0
 28 29  2  0
 30 31  1  0
 30 28  1  0
 32 33  1  0
 32 34  1  0
 32 31  1  1
 34 35  2  0
 34 36  1  0
M  END
$$$$
