YWQ.pdb
     RDKit          3D

 36 38  0  0  1  0  0  0  0  0999 V2000
   30.5270  -17.1164  -18.4139 O   0  0  0  0  0  0  0  0  0  0  0  0
   29.6942  -17.6044  -17.3926 C   0  0  0  0  0  0  0  0  0  0  0  0
   30.2348  -17.9617  -16.1746 C   0  0  0  0  0  0  0  0  0  0  0  0
   29.3972  -18.4337  -15.1990 C   0  0  0  0  0  0  0  0  0  0  0  0
   28.0371  -18.5599  -15.4015 C   0  0  0  0  0  0  0  0  0  0  0  0
   27.1162  -19.0714  -14.3432 C   0  0  0  0  0  0  0  0  0  0  0  0
   27.5170  -20.5149  -14.0855 C   0  0  2  0  0  0  0  0  0  0  0  0
   27.1983  -21.3432  -15.2277 N   0  0  0  0  0  0  0  0  0  0  0  0
   26.7781  -21.0272  -12.9126 C   0  0  0  0  0  0  0  0  0  0  0  0
   25.6911  -21.6208  -13.0837 O   0  0  0  0  0  0  0  0  0  0  0  0
   27.5205  -18.1967  -16.6260 C   0  0  0  0  0  0  0  0  0  0  0  0
   28.3543  -17.7144  -17.6322 C   0  0  0  0  0  0  0  0  0  0  0  0
   27.3136  -20.8362  -11.6242 N   0  0  0  0  0  0  0  0  0  0  0  0
   26.4756  -21.0473  -10.4604 C   0  0  1  0  0  0  0  0  0  0  0  0
   27.3704  -21.1182   -9.2810 C   0  0  0  0  0  0  0  0  0  0  0  0
   26.7549  -20.7478   -8.0117 C   0  0  0  0  0  0  0  0  0  0  0  0
   25.3859  -20.6533   -7.7331 C   0  0  0  0  0  0  0  0  0  0  0  0
   25.2741  -20.2525   -6.4665 N   0  0  0  0  0  0  0  0  0  0  0  0
   26.5006  -20.0888   -5.9272 C   0  0  0  0  0  0  0  0  0  0  0  0
   26.9373  -19.7083   -4.6648 C   0  0  0  0  0  0  0  0  0  0  0  0
   28.2810  -19.6369   -4.3643 C   0  0  0  0  0  0  0  0  0  0  0  0
   29.2328  -19.9400   -5.3033 C   0  0  0  0  0  0  0  0  0  0  0  0
   28.8116  -20.3171   -6.5566 C   0  0  0  0  0  0  0  0  0  0  0  0
   27.4523  -20.3902   -6.8656 C   0  0  0  0  0  0  0  0  0  0  0  0
   25.3322  -20.1478  -10.4129 C   0  0  0  0  0  0  0  0  0  0  0  0
   25.4929  -18.9203  -10.5882 O   0  0  0  0  0  0  0  0  0  0  0  0
   22.9683  -21.6300  -15.0266 N   0  0  0  0  0  0  0  0  0  0  0  0
   22.4556  -20.3292  -14.8163 C   0  0  0  0  0  0  0  0  0  0  0  0
   21.8949  -19.7459  -15.7865 O   0  0  0  0  0  0  0  0  0  0  0  0
   22.5857  -19.7077  -13.4840 C   0  0  0  0  0  0  0  0  0  0  0  0
   23.2550  -20.5439  -12.4544 C   0  0  0  0  0  0  0  0  0  0  0  0
   22.8633  -20.2789  -11.0503 C   0  0  2  0  0  0  0  0  0  0  0  0
   24.0189  -20.6183  -10.1704 N   0  0  0  0  0  0  0  0  0  0  0  0
   21.6726  -20.8983  -10.5080 C   0  0  0  0  0  0  0  0  0  0  0  0
   20.6587  -20.2748  -10.1213 O   0  0  0  0  0  0  0  0  0  0  0  0
   21.6015  -22.2887  -10.3874 O   0  0  0  0  0  0  0  0  0  0  0  0
  2  1  1  0
  3  2  2  0
  4  3  1  0
  5  4  2  0
  5 11  1  0
  6  5  1  0
  7  8  1  6
  7  6  1  0
  9 13  1  0
  9  7  1  0
 10  9  2  0
 11 12  2  0
 12  2  1  0
 14 15  1  1
 14 25  1  0
 14 13  1  0
 16 17  2  0
 16 15  1  0
 18 17  1  0
 19 24  2  0
 19 18  1  0
 20 19  1  0
 21 22  1  0
 21 20  2  0
 22 23  2  0
 23 24  1  0
 24 16  1  0
 25 33  1  0
 26 25  2  0
 27 28  1  0
 28 29  2  0
 30 31  1  0
 30 28  1  0
 32 33  1  0
 32 34  1  0
 32 31  1  6
 34 35  2  0
 34 36  1  0
M  END
$$$$
