YWQ.pdb
     RDKit          3D

 36 38  0  0  1  0  0  0  0  0999 V2000
   27.5080  -31.4161  -19.2984 O   0  0  0  0  0  0  0  0  0  0  0  0
   27.3378  -30.2451  -18.5405 C   0  0  0  0  0  0  0  0  0  0  0  0
   26.4315  -29.2874  -18.9464 C   0  0  0  0  0  0  0  0  0  0  0  0
   26.2880  -28.1569  -18.1863 C   0  0  0  0  0  0  0  0  0  0  0  0
   27.0209  -27.9530  -17.0340 C   0  0  0  0  0  0  0  0  0  0  0  0
   26.8697  -26.7250  -16.1981 C   0  0  0  0  0  0  0  0  0  0  0  0
   27.5618  -25.6024  -16.9542 C   0  0  2  0  0  0  0  0  0  0  0  0
   28.9840  -25.6126  -16.6906 N   0  0  0  0  0  0  0  0  0  0  0  0
   27.0117  -24.3030  -16.5147 C   0  0  0  0  0  0  0  0  0  0  0  0
   27.5836  -23.6729  -15.5988 O   0  0  0  0  0  0  0  0  0  0  0  0
   27.9198  -28.9235  -16.6488 C   0  0  0  0  0  0  0  0  0  0  0  0
   28.0817  -30.0808  -17.4071 C   0  0  0  0  0  0  0  0  0  0  0  0
   25.8527  -23.8001  -17.1370 N   0  0  0  0  0  0  0  0  0  0  0  0
   25.3299  -22.5071  -16.7418 C   0  0  1  0  0  0  0  0  0  0  0  0
   24.7020  -21.9017  -17.9401 C   0  0  0  0  0  0  0  0  0  0  0  0
   24.0650  -20.6082  -17.7206 C   0  0  0  0  0  0  0  0  0  0  0  0
   24.6991  -19.3669  -17.5860 C   0  0  0  0  0  0  0  0  0  0  0  0
   23.7430  -18.4642  -17.3660 N   0  0  0  0  0  0  0  0  0  0  0  0
   22.5358  -19.0680  -17.3549 C   0  0  0  0  0  0  0  0  0  0  0  0
   21.2410  -18.5941  -17.1868 C   0  0  0  0  0  0  0  0  0  0  0  0
   20.1562  -19.4434  -17.2394 C   0  0  0  0  0  0  0  0  0  0  0  0
   20.3197  -20.7866  -17.4601 C   0  0  0  0  0  0  0  0  0  0  0  0
   21.5972  -21.2666  -17.6270 C   0  0  0  0  0  0  0  0  0  0  0  0
   22.6985  -20.4107  -17.5739 C   0  0  0  0  0  0  0  0  0  0  0  0
   24.5632  -22.5580  -15.5055 C   0  0  0  0  0  0  0  0  0  0  0  0
   23.9226  -23.5894  -15.2074 O   0  0  0  0  0  0  0  0  0  0  0  0
   26.3387  -20.2628  -10.1257 N   0  0  0  0  0  0  0  0  0  0  0  0
   25.0377  -20.7028   -9.7893 C   0  0  0  0  0  0  0  0  0  0  0  0
   24.7204  -20.7443   -8.5672 O   0  0  0  0  0  0  0  0  0  0  0  0
   24.1040  -21.0876  -10.8656 C   0  0  0  0  0  0  0  0  0  0  0  0
   24.6722  -21.0675  -12.2382 C   0  0  0  0  0  0  0  0  0  0  0  0
   23.7617  -21.5048  -13.3222 C   0  0  2  0  0  0  0  0  0  0  0  0
   24.5134  -21.4624  -14.6098 N   0  0  0  0  0  0  0  0  0  0  0  0
   22.4917  -20.8350  -13.5068 C   0  0  0  0  0  0  0  0  0  0  0  0
   21.3859  -21.2918  -13.1396 O   0  0  0  0  0  0  0  0  0  0  0  0
   22.4446  -19.5874  -14.1344 O   0  0  0  0  0  0  0  0  0  0  0  0
  2  1  1  0
  3  2  2  0
  4  3  1  0
  5  4  2  0
  5 11  1  0
  6  5  1  0
  7  8  1  1
  7  6  1  0
  9 13  1  0
  9  7  1  0
 10  9  2  0
 11 12  2  0
 12  2  1  0
 14 15  1  6
 14 25  1  0
 14 13  1  0
 16 17  2  0
 16 15  1  0
 18 17  1  0
 19 24  2  0
 19 18  1  0
 20 19  1  0
 21 22  1  0
 21 20  2  0
 22 23  2  0
 23 24  1  0
 24 16  1  0
 25 33  1  0
 26 25  2  0
 27 28  1  0
 28 29  2  0
 30 31  1  0
 30 28  1  0
 32 33  1  0
 32 34  1  0
 32 31  1  1
 34 35  2  0
 34 36  1  0
M  END
$$$$
