YWQ.pdb
     RDKit          3D

 36 38  0  0  1  0  0  0  0  0999 V2000
   31.8668  -16.4009  -18.1570 O   0  0  0  0  0  0  0  0  0  0  0  0
   30.8157  -16.9908  -17.4345 C   0  0  0  0  0  0  0  0  0  0  0  0
   31.0747  -17.6297  -16.2395 C   0  0  0  0  0  0  0  0  0  0  0  0
   30.0292  -18.1948  -15.5584 C   0  0  0  0  0  0  0  0  0  0  0  0
   28.7336  -18.1416  -16.0331 C   0  0  0  0  0  0  0  0  0  0  0  0
   27.5875  -18.7528  -15.2965 C   0  0  0  0  0  0  0  0  0  0  0  0
   27.9038  -20.2335  -15.1614 C   0  0  2  0  0  0  0  0  0  0  0  0
   28.1840  -20.8143  -16.4561 N   0  0  0  0  0  0  0  0  0  0  0  0
   26.7410  -20.9320  -14.5747 C   0  0  0  0  0  0  0  0  0  0  0  0
   25.8689  -21.4130  -15.3305 O   0  0  0  0  0  0  0  0  0  0  0  0
   28.4997  -17.4982  -17.2287 C   0  0  0  0  0  0  0  0  0  0  0  0
   29.5483  -16.9167  -17.9377 C   0  0  0  0  0  0  0  0  0  0  0  0
   26.6383  -21.0415  -13.1744 N   0  0  0  0  0  0  0  0  0  0  0  0
   25.5015  -21.7252  -12.5898 C   0  0  1  0  0  0  0  0  0  0  0  0
   25.9232  -22.2201  -11.2579 C   0  0  0  0  0  0  0  0  0  0  0  0
   26.1594  -21.1855  -10.2575 C   0  0  0  0  0  0  0  0  0  0  0  0
   25.2468  -20.2245   -9.8051 C   0  0  0  0  0  0  0  0  0  0  0  0
   25.8910  -19.4635   -8.9200 N   0  0  0  0  0  0  0  0  0  0  0  0
   27.1640  -19.8922   -8.7871 C   0  0  0  0  0  0  0  0  0  0  0  0
   28.2289  -19.4693   -8.0018 C   0  0  0  0  0  0  0  0  0  0  0  0
   29.4487  -20.1104   -8.0459 C   0  0  0  0  0  0  0  0  0  0  0  0
   29.6517  -21.1888   -8.8677 C   0  0  0  0  0  0  0  0  0  0  0  0
   28.6046  -21.6153   -9.6500 C   0  0  0  0  0  0  0  0  0  0  0  0
   27.3680  -20.9690   -9.6092 C   0  0  0  0  0  0  0  0  0  0  0  0
   24.2665  -20.9612  -12.6890 C   0  0  0  0  0  0  0  0  0  0  0  0
   24.2653  -19.7367  -12.4369 O   0  0  0  0  0  0  0  0  0  0  0  0
   19.1720  -22.8367  -15.9285 N   0  0  0  0  0  0  0  0  0  0  0  0
   18.6924  -21.6483  -15.3309 C   0  0  0  0  0  0  0  0  0  0  0  0
   17.5104  -21.2860  -15.5908 O   0  0  0  0  0  0  0  0  0  0  0  0
   19.5768  -20.8848  -14.4292 C   0  0  0  0  0  0  0  0  0  0  0  0
   20.9253  -21.4703  -14.2145 C   0  0  0  0  0  0  0  0  0  0  0  0
   21.7713  -20.7941  -13.2036 C   0  0  2  0  0  0  0  0  0  0  0  0
   23.0419  -21.5634  -13.0668 N   0  0  0  0  0  0  0  0  0  0  0  0
   21.2424  -20.5375  -11.8806 C   0  0  0  0  0  0  0  0  0  0  0  0
   21.1948  -21.3806  -10.9570 O   0  0  0  0  0  0  0  0  0  0  0  0
   20.7375  -19.2738  -11.5632 O   0  0  0  0  0  0  0  0  0  0  0  0
  2  1  1  0
  3  2  2  0
  4  3  1  0
  5  4  2  0
  5 11  1  0
  6  5  1  0
  7  8  1  6
  7  6  1  0
  9 13  1  0
  9  7  1  0
 10  9  2  0
 11 12  2  0
 12  2  1  0
 14 15  1  1
 14 25  1  0
 14 13  1  0
 16 17  2  0
 16 15  1  0
 18 17  1  0
 19 24  2  0
 19 18  1  0
 20 19  1  0
 21 22  1  0
 21 20  2  0
 22 23  2  0
 23 24  1  0
 24 16  1  0
 25 33  1  0
 26 25  2  0
 27 28  1  0
 28 29  2  0
 30 31  1  0
 30 28  1  0
 32 33  1  0
 32 34  1  0
 32 31  1  6
 34 35  2  0
 34 36  1  0
M  END
$$$$
