YWQ.pdb
     RDKit          3D

 36 38  0  0  1  0  0  0  0  0999 V2000
   30.0904  -17.4114  -19.7686 O   0  0  0  0  0  0  0  0  0  0  0  0
   29.3406  -18.0743  -18.7822 C   0  0  0  0  0  0  0  0  0  0  0  0
   28.8418  -17.3695  -17.7062 C   0  0  0  0  0  0  0  0  0  0  0  0
   28.1145  -18.0437  -16.7614 C   0  0  0  0  0  0  0  0  0  0  0  0
   27.8696  -19.3992  -16.8576 C   0  0  0  0  0  0  0  0  0  0  0  0
   27.0761  -20.1420  -15.8337 C   0  0  0  0  0  0  0  0  0  0  0  0
   27.9596  -20.2517  -14.6015 C   0  0  2  0  0  0  0  0  0  0  0  0
   29.0908  -21.1149  -14.8617 N   0  0  0  0  0  0  0  0  0  0  0  0
   27.1774  -20.8252  -13.4865 C   0  0  0  0  0  0  0  0  0  0  0  0
   25.9930  -21.1738  -13.6836 O   0  0  0  0  0  0  0  0  0  0  0  0
   28.3780  -20.0817  -17.9411 C   0  0  0  0  0  0  0  0  0  0  0  0
   29.1204  -19.4157  -18.9135 C   0  0  0  0  0  0  0  0  0  0  0  0
   27.7823  -20.9674  -12.2227 N   0  0  0  0  0  0  0  0  0  0  0  0
   26.9581  -21.2199  -11.0572 C   0  0  1  0  0  0  0  0  0  0  0  0
   27.8375  -21.1258   -9.8679 C   0  0  0  0  0  0  0  0  0  0  0  0
   27.1630  -20.7746   -8.6234 C   0  0  0  0  0  0  0  0  0  0  0  0
   25.7820  -20.7112   -8.4004 C   0  0  0  0  0  0  0  0  0  0  0  0
   25.6101  -20.3186   -7.1379 N   0  0  0  0  0  0  0  0  0  0  0  0
   26.8098  -20.1306   -6.5487 C   0  0  0  0  0  0  0  0  0  0  0  0
   27.1864  -19.7462   -5.2681 C   0  0  0  0  0  0  0  0  0  0  0  0
   28.5149  -19.6468   -4.9130 C   0  0  0  0  0  0  0  0  0  0  0  0
   29.5104  -19.9248   -5.8136 C   0  0  0  0  0  0  0  0  0  0  0  0
   29.1489  -20.3055   -7.0843 C   0  0  0  0  0  0  0  0  0  0  0  0
   27.8053  -20.4068   -7.4486 C   0  0  0  0  0  0  0  0  0  0  0  0
   25.7155  -20.4619  -11.0652 C   0  0  0  0  0  0  0  0  0  0  0  0
   25.7341  -19.2303  -11.2796 O   0  0  0  0  0  0  0  0  0  0  0  0
   21.6939  -22.5955  -14.2696 N   0  0  0  0  0  0  0  0  0  0  0  0
   21.1004  -21.3174  -14.1528 C   0  0  0  0  0  0  0  0  0  0  0  0
   19.9777  -21.1298  -14.7008 O   0  0  0  0  0  0  0  0  0  0  0  0
   21.8019  -20.2610  -13.3977 C   0  0  0  0  0  0  0  0  0  0  0  0
   23.0836  -20.6726  -12.7689 C   0  0  0  0  0  0  0  0  0  0  0  0
   23.1734  -20.4882  -11.3017 C   0  0  2  0  0  0  0  0  0  0  0  0
   24.4615  -21.0776  -10.8342 N   0  0  0  0  0  0  0  0  0  0  0  0
   22.1078  -20.9738  -10.4505 C   0  0  0  0  0  0  0  0  0  0  0  0
   20.9414  -20.5203  -10.4412 O   0  0  0  0  0  0  0  0  0  0  0  0
   22.3489  -22.0222   -9.5587 O   0  0  0  0  0  0  0  0  0  0  0  0
  2  1  1  0
  3  2  2  0
  4  3  1  0
  5  4  2  0
  5 11  1  0
  6  5  1  0
  7  8  1  6
  7  6  1  0
  9 13  1  0
  9  7  1  0
 10  9  2  0
 11 12  2  0
 12  2  1  0
 14 15  1  1
 14 25  1  0
 14 13  1  0
 16 17  2  0
 16 15  1  0
 18 17  1  0
 19 24  2  0
 19 18  1  0
 20 19  1  0
 21 22  1  0
 21 20  2  0
 22 23  2  0
 23 24  1  0
 24 16  1  0
 25 33  1  0
 26 25  2  0
 27 28  1  0
 28 29  2  0
 30 31  1  0
 30 28  1  0
 32 33  1  0
 32 34  1  0
 32 31  1  6
 34 35  2  0
 34 36  1  0
M  END
$$$$
