YWQ.pdb
     RDKit          3D

 36 38  0  0  1  0  0  0  0  0999 V2000
   22.3396  -22.1962  -13.4879 O   0  0  0  0  0  0  0  0  0  0  0  0
   22.9751  -23.1175  -14.3377 C   0  0  0  0  0  0  0  0  0  0  0  0
   23.4772  -24.2955  -13.8243 C   0  0  0  0  0  0  0  0  0  0  0  0
   24.0910  -25.1734  -14.6779 C   0  0  0  0  0  0  0  0  0  0  0  0
   24.2190  -24.9119  -16.0277 C   0  0  0  0  0  0  0  0  0  0  0  0
   24.8847  -25.8639  -16.9659 C   0  0  0  0  0  0  0  0  0  0  0  0
   26.3803  -25.7207  -16.7345 C   0  0  2  0  0  0  0  0  0  0  0  0
   26.8521  -24.4459  -17.2292 N   0  0  0  0  0  0  0  0  0  0  0  0
   27.0932  -26.7970  -17.4537 C   0  0  0  0  0  0  0  0  0  0  0  0
   27.4024  -26.6324  -18.6539 O   0  0  0  0  0  0  0  0  0  0  0  0
   23.7098  -23.7290  -16.5171 C   0  0  0  0  0  0  0  0  0  0  0  0
   23.0818  -22.8219  -15.6667 C   0  0  0  0  0  0  0  0  0  0  0  0
   27.4102  -27.9879  -16.7722 N   0  0  0  0  0  0  0  0  0  0  0  0
   28.1860  -29.0131  -17.4420 C   0  0  1  0  0  0  0  0  0  0  0  0
   29.4656  -29.1473  -16.7064 C   0  0  0  0  0  0  0  0  0  0  0  0
   30.6334  -28.6000  -17.3874 C   0  0  0  0  0  0  0  0  0  0  0  0
   30.8685  -27.2589  -17.7144 C   0  0  0  0  0  0  0  0  0  0  0  0
   32.0357  -27.2147  -18.3572 N   0  0  0  0  0  0  0  0  0  0  0  0
   32.5533  -28.4575  -18.4541 C   0  0  0  0  0  0  0  0  0  0  0  0
   33.7285  -28.9541  -19.0033 C   0  0  0  0  0  0  0  0  0  0  0  0
   34.0307  -30.2983  -18.9499 C   0  0  0  0  0  0  0  0  0  0  0  0
   33.1797  -31.1912  -18.3516 C   0  0  0  0  0  0  0  0  0  0  0  0
   32.0131  -30.7106  -17.8054 C   0  0  0  0  0  0  0  0  0  0  0  0
   31.7026  -29.3507  -17.8576 C   0  0  0  0  0  0  0  0  0  0  0  0
   27.4156  -30.2158  -17.7229 C   0  0  0  0  0  0  0  0  0  0  0  0
   26.5769  -30.6306  -16.8937 O   0  0  0  0  0  0  0  0  0  0  0  0
   25.9191  -31.9672  -23.4441 N   0  0  0  0  0  0  0  0  0  0  0  0
   26.6942  -33.0557  -22.9820 C   0  0  0  0  0  0  0  0  0  0  0  0
   27.1248  -33.8840  -23.8332 O   0  0  0  0  0  0  0  0  0  0  0  0
   26.9758  -33.1815  -21.5387 C   0  0  0  0  0  0  0  0  0  0  0  0
   26.4136  -32.1037  -20.6845 C   0  0  0  0  0  0  0  0  0  0  0  0
   26.7759  -32.1601  -19.2490 C   0  0  2  0  0  0  0  0  0  0  0  0
   27.5832  -30.9490  -18.9225 N   0  0  0  0  0  0  0  0  0  0  0  0
   27.4586  -33.3247  -18.7261 C   0  0  0  0  0  0  0  0  0  0  0  0
   28.6631  -33.3515  -18.3873 O   0  0  0  0  0  0  0  0  0  0  0  0
   26.7665  -34.5285  -18.5697 O   0  0  0  0  0  0  0  0  0  0  0  0
  2  1  1  0
  3  2  2  0
  4  3  1  0
  5  4  2  0
  5 11  1  0
  6  5  1  0
  7  8  1  6
  7  6  1  0
  9 13  1  0
  9  7  1  0
 10  9  2  0
 11 12  2  0
 12  2  1  0
 14 15  1  1
 14 25  1  0
 14 13  1  0
 16 17  2  0
 16 15  1  0
 18 17  1  0
 19 24  2  0
 19 18  1  0
 20 19  1  0
 21 22  1  0
 21 20  2  0
 22 23  2  0
 23 24  1  0
 24 16  1  0
 25 33  1  0
 26 25  2  0
 27 28  1  0
 28 29  2  0
 30 31  1  0
 30 28  1  0
 32 33  1  0
 32 34  1  0
 32 31  1  6
 34 35  2  0
 34 36  1  0
M  END
$$$$
