YWQ.pdb
     RDKit          3D

 36 38  0  0  1  0  0  0  0  0999 V2000
   19.9450  -10.5663    6.6596 O   0  0  0  0  0  0  0  0  0  0  0  0
   19.2381  -11.7791    6.5948 C   0  0  0  0  0  0  0  0  0  0  0  0
   17.8880  -11.8054    6.8771 C   0  0  0  0  0  0  0  0  0  0  0  0
   17.2265  -13.0028    6.8050 C   0  0  0  0  0  0  0  0  0  0  0  0
   17.8711  -14.1741    6.4598 C   0  0  0  0  0  0  0  0  0  0  0  0
   17.1579  -15.4834    6.3767 C   0  0  0  0  0  0  0  0  0  0  0  0
   16.6198  -15.5907    4.9590 C   0  0  2  0  0  0  0  0  0  0  0  0
   15.1782  -15.4722    4.9516 N   0  0  0  0  0  0  0  0  0  0  0  0
   16.9862  -16.9060    4.3935 C   0  0  0  0  0  0  0  0  0  0  0  0
   16.1708  -17.8513    4.4608 O   0  0  0  0  0  0  0  0  0  0  0  0
   19.2196  -14.1228    6.1823 C   0  0  0  0  0  0  0  0  0  0  0  0
   19.9116  -12.9158    6.2497 C   0  0  0  0  0  0  0  0  0  0  0  0
   18.2480  -17.0685    3.7896 N   0  0  0  0  0  0  0  0  0  0  0  0
   18.7995  -18.3992    3.6271 C   0  0  1  0  0  0  0  0  0  0  0  0
   20.1126  -18.2521    2.9556 C   0  0  0  0  0  0  0  0  0  0  0  0
   20.1217  -18.5727    1.5329 C   0  0  0  0  0  0  0  0  0  0  0  0
   19.0646  -19.0970    0.7789 C   0  0  0  0  0  0  0  0  0  0  0  0
   19.5194  -19.2655   -0.4630 N   0  0  0  0  0  0  0  0  0  0  0  0
   20.8093  -18.8746   -0.5360 C   0  0  0  0  0  0  0  0  0  0  0  0
   21.7279  -18.8290   -1.5768 C   0  0  0  0  0  0  0  0  0  0  0  0
   23.0083  -18.3567   -1.3805 C   0  0  0  0  0  0  0  0  0  0  0  0
   23.4181  -17.9152   -0.1490 C   0  0  0  0  0  0  0  0  0  0  0  0
   22.5171  -17.9567    0.8887 C   0  0  0  0  0  0  0  0  0  0  0  0
   21.2201  -18.4346    0.6948 C   0  0  0  0  0  0  0  0  0  0  0  0
   18.7250  -19.1973    4.8421 C   0  0  0  0  0  0  0  0  0  0  0  0
   19.0406  -18.6946    5.9424 O   0  0  0  0  0  0  0  0  0  0  0  0
   15.3438  -19.4549    8.6668 N   0  0  0  0  0  0  0  0  0  0  0  0
   15.9573  -20.6431    9.1263 C   0  0  0  0  0  0  0  0  0  0  0  0
   15.6565  -21.0611   10.2798 O   0  0  0  0  0  0  0  0  0  0  0  0
   16.9119  -21.3493    8.2497 C   0  0  0  0  0  0  0  0  0  0  0  0
   17.3098  -20.6157    7.0206 C   0  0  0  0  0  0  0  0  0  0  0  0
   18.1580  -21.3656    6.0650 C   0  0  2  0  0  0  0  0  0  0  0  0
   18.3013  -20.5483    4.8256 N   0  0  0  0  0  0  0  0  0  0  0  0
   17.7944  -22.7153    5.6885 C   0  0  0  0  0  0  0  0  0  0  0  0
   17.3056  -23.0388    4.5827 O   0  0  0  0  0  0  0  0  0  0  0  0
   17.9834  -23.7668    6.5892 O   0  0  0  0  0  0  0  0  0  0  0  0
  2  1  1  0
  3  2  2  0
  4  3  1  0
  5  4  2  0
  5 11  1  0
  6  5  1  0
  7  8  1  1
  7  6  1  0
  9 13  1  0
  9  7  1  0
 10  9  2  0
 11 12  2  0
 12  2  1  0
 14 15  1  1
 14 25  1  0
 14 13  1  0
 16 17  2  0
 16 15  1  0
 18 17  1  0
 19 24  2  0
 19 18  1  0
 20 19  1  0
 21 22  1  0
 21 20  2  0
 22 23  2  0
 23 24  1  0
 24 16  1  0
 25 33  1  0
 26 25  2  0
 27 28  1  0
 28 29  2  0
 30 31  1  0
 30 28  1  0
 32 33  1  0
 32 34  1  0
 32 31  1  1
 34 35  2  0
 34 36  1  0
M  END
$$$$
