YWQ.pdb
     RDKit          3D

 36 38  0  0  1  0  0  0  0  0999 V2000
   14.4785  -19.2681  -17.9426 O   0  0  0  0  0  0  0  0  0  0  0  0
   15.3309  -18.1659  -17.7598 C   0  0  0  0  0  0  0  0  0  0  0  0
   15.7617  -17.4398  -18.8509 C   0  0  0  0  0  0  0  0  0  0  0  0
   16.5918  -16.3707  -18.6404 C   0  0  0  0  0  0  0  0  0  0  0  0
   17.0049  -16.0042  -17.3748 C   0  0  0  0  0  0  0  0  0  0  0  0
   17.9079  -14.8393  -17.1356 C   0  0  0  0  0  0  0  0  0  0  0  0
   19.2696  -15.2305  -17.6865 C   0  0  2  0  0  0  0  0  0  0  0  0
   19.8974  -16.2188  -16.8371 N   0  0  0  0  0  0  0  0  0  0  0  0
   20.1387  -14.0364  -17.7399 C   0  0  0  0  0  0  0  0  0  0  0  0
   20.5992  -13.5649  -16.6774 O   0  0  0  0  0  0  0  0  0  0  0  0
   16.5616  -16.7446  -16.3008 C   0  0  0  0  0  0  0  0  0  0  0  0
   15.7170  -17.8356  -16.4922 C   0  0  0  0  0  0  0  0  0  0  0  0
   20.4308  -13.4527  -18.9877 N   0  0  0  0  0  0  0  0  0  0  0  0
   21.1550  -12.1980  -19.0409 C   0  0  1  0  0  0  0  0  0  0  0  0
   21.6808  -12.0517  -20.4189 C   0  0  0  0  0  0  0  0  0  0  0  0
   22.4406  -10.8318  -20.6670 C   0  0  0  0  0  0  0  0  0  0  0  0
   23.5167  -10.3402  -19.9177 C   0  0  0  0  0  0  0  0  0  0  0  0
   23.8850   -9.1874  -20.4770 N   0  0  0  0  0  0  0  0  0  0  0  0
   23.0994   -8.9228  -21.5423 C   0  0  0  0  0  0  0  0  0  0  0  0
   23.0696   -7.8827  -22.4624 C   0  0  0  0  0  0  0  0  0  0  0  0
   22.1522   -7.8642  -23.4914 C   0  0  0  0  0  0  0  0  0  0  0  0
   21.2371   -8.8740  -23.6413 C   0  0  0  0  0  0  0  0  0  0  0  0
   21.2571   -9.9082  -22.7356 C   0  0  0  0  0  0  0  0  0  0  0  0
   22.1836   -9.9309  -21.6918 C   0  0  0  0  0  0  0  0  0  0  0  0
   20.4138  -11.0892  -18.4579 C   0  0  0  0  0  0  0  0  0  0  0  0
   19.1990  -10.9433  -18.7150 O   0  0  0  0  0  0  0  0  0  0  0  0
   20.8012   -8.6272  -12.8445 N   0  0  0  0  0  0  0  0  0  0  0  0
   20.2794   -7.5039  -13.5268 C   0  0  0  0  0  0  0  0  0  0  0  0
   19.9643   -6.4873  -12.8463 O   0  0  0  0  0  0  0  0  0  0  0  0
   20.1291   -7.5551  -14.9941 C   0  0  0  0  0  0  0  0  0  0  0  0
   20.6167   -8.8008  -15.6406 C   0  0  0  0  0  0  0  0  0  0  0  0
   20.3230   -8.9376  -17.0862 C   0  0  2  0  0  0  0  0  0  0  0  0
   21.0278  -10.1501  -17.5940 N   0  0  0  0  0  0  0  0  0  0  0  0
   20.5984   -7.8345  -17.9823 C   0  0  0  0  0  0  0  0  0  0  0  0
   19.7356   -7.0408  -18.4205 O   0  0  0  0  0  0  0  0  0  0  0  0
   21.9049   -7.5974  -18.4176 O   0  0  0  0  0  0  0  0  0  0  0  0
  2  1  1  0
  3  2  2  0
  4  3  1  0
  5  4  2  0
  5 11  1  0
  6  5  1  0
  7  8  1  1
  7  6  1  0
  9 13  1  0
  9  7  1  0
 10  9  2  0
 11 12  2  0
 12  2  1  0
 14 15  1  6
 14 25  1  0
 14 13  1  0
 16 17  2  0
 16 15  1  0
 18 17  1  0
 19 24  2  0
 19 18  1  0
 20 19  1  0
 21 22  1  0
 21 20  2  0
 22 23  2  0
 23 24  1  0
 24 16  1  0
 25 33  1  0
 26 25  2  0
 27 28  1  0
 28 29  2  0
 30 31  1  0
 30 28  1  0
 32 33  1  0
 32 34  1  0
 32 31  1  1
 34 35  2  0
 34 36  1  0
M  END
$$$$
