LQE.pdb
     RDKit          3D

 27 26  0  0  1  0  0  0  0  0999 V2000
    7.1001  -11.7148   27.6064 C   0  0  0  0  0  0  0  0  0  0  0  0
    6.3348  -12.6911   26.7577 C   0  0  1  0  0  0  0  0  0  0  0  0
    5.3992  -11.9275   25.8537 C   0  0  0  0  0  0  0  0  0  0  0  0
    7.2272  -13.6221   25.9843 C   0  0  0  0  0  0  0  0  0  0  0  0
    6.4865  -14.5489   25.0846 C   0  0  2  0  0  0  0  0  0  0  0  0
    5.7031  -15.5014   25.8447 N   0  0  0  0  0  0  0  0  0  0  0  0
    7.4526  -15.2552   24.2096 C   0  0  0  0  0  0  0  0  0  0  0  0
    7.9061  -16.3761   24.6009 O   0  0  0  0  0  0  0  0  0  0  0  0
    9.3970  -13.1511   18.5451 N   0  0  0  0  0  0  0  0  0  0  0  0
    8.0876  -13.5989   18.8242 C   0  0  0  0  0  0  0  0  0  0  0  0
    7.1758  -13.3347   18.0092 O   0  0  0  0  0  0  0  0  0  0  0  0
    7.7635  -14.3828   20.0727 C   0  0  0  0  0  0  0  0  0  0  0  0
    8.9890  -14.6716   20.8560 C   0  0  0  0  0  0  0  0  0  0  0  0
    8.7686  -15.3972   22.1372 C   0  0  2  0  0  0  0  0  0  0  0  0
    7.8346  -14.6676   22.9831 N   0  0  0  0  0  0  0  0  0  0  0  0
   10.0435  -15.6399   22.8514 C   0  0  0  0  0  0  0  0  0  0  0  0
   10.6940  -14.6346   23.2246 O   0  0  0  0  0  0  0  0  0  0  0  0
   10.5257  -16.9554   23.1118 N   0  0  0  0  0  0  0  0  0  0  0  0
   11.7127  -17.1031   23.9243 C   0  0  1  0  0  0  0  0  0  0  0  0
   11.5514  -18.0976   25.0085 C   0  0  0  0  0  0  0  0  0  0  0  0
   12.7131  -18.4926   25.8173 C   0  0  0  0  0  0  0  0  0  0  0  0
   12.5692  -19.4671   26.8761 C   0  0  0  0  0  0  0  0  0  0  0  0
   12.1206  -19.2225   28.0005 O   0  0  0  0  0  0  0  0  0  0  0  0
   12.8926  -17.2424   23.0846 C   0  0  0  0  0  0  0  0  0  0  0  0
   14.0108  -16.8224   23.5302 O   0  0  0  0  0  0  0  0  0  0  0  0
   12.9486  -20.8215   26.6859 O   0  0  0  0  0  0  0  0  0  0  0  0
   12.8791  -17.8053   21.8228 O   0  0  0  0  0  0  0  0  0  0  0  0
  2  4  1  0
  2  1  1  6
  3  2  1  0
  5  4  1  0
  5  6  1  1
  7  5  1  0
  8  7  2  0
 10  9  1  0
 10 12  1  0
 11 10  2  0
 14 13  1  6
 13 12  1  0
 14 15  1  0
 15  7  1  0
 16 18  1  0
 16 14  1  0
 17 16  2  0
 19 24  1  0
 19 18  1  0
 19 20  1  6
 21 20  1  0
 22 26  1  0
 22 21  1  0
 23 22  2  0
 24 27  1  0
 25 24  2  0
M  END
$$$$
