LQE.pdb
     RDKit          3D

 27 26  0  0  1  0  0  0  0  0999 V2000
    5.3249  -11.0776   26.8299 C   0  0  0  0  0  0  0  0  0  0  0  0
    6.5241  -11.9778   26.7261 C   0  0  1  0  0  0  0  0  0  0  0  0
    7.1945  -12.0597   28.0750 C   0  0  0  0  0  0  0  0  0  0  0  0
    6.1909  -13.3392   26.1814 C   0  0  0  0  0  0  0  0  0  0  0  0
    7.3562  -14.2649   26.1342 C   0  0  2  0  0  0  0  0  0  0  0  0
    8.5980  -13.5355   25.9773 N   0  0  0  0  0  0  0  0  0  0  0  0
    7.1739  -15.2220   25.0168 C   0  0  0  0  0  0  0  0  0  0  0  0
    6.1576  -15.9847   25.0419 O   0  0  0  0  0  0  0  0  0  0  0  0
    6.9143  -14.0335   19.5934 N   0  0  0  0  0  0  0  0  0  0  0  0
    8.1548  -13.7399   20.2000 C   0  0  0  0  0  0  0  0  0  0  0  0
    8.7775  -12.7195   19.8308 O   0  0  0  0  0  0  0  0  0  0  0  0
    8.7435  -14.6207   21.2752 C   0  0  0  0  0  0  0  0  0  0  0  0
    7.8246  -15.7328   21.6181 C   0  0  0  0  0  0  0  0  0  0  0  0
    8.0075  -16.3130   22.9769 C   0  0  2  0  0  0  0  0  0  0  0  0
    8.1237  -15.2563   23.9719 N   0  0  0  0  0  0  0  0  0  0  0  0
    9.1816  -17.2148   23.0300 C   0  0  0  0  0  0  0  0  0  0  0  0
    9.2308  -18.1449   22.1900 O   0  0  0  0  0  0  0  0  0  0  0  0
   10.2214  -17.0464   23.9898 N   0  0  0  0  0  0  0  0  0  0  0  0
   11.2146  -18.0898   24.1161 C   0  0  1  0  0  0  0  0  0  0  0  0
   12.5934  -17.6076   23.8783 C   0  0  0  0  0  0  0  0  0  0  0  0
   12.8427  -16.5789   22.8587 C   0  0  0  0  0  0  0  0  0  0  0  0
   14.1804  -16.0744   22.6412 C   0  0  0  0  0  0  0  0  0  0  0  0
   15.0834  -16.0901   23.4836 O   0  0  0  0  0  0  0  0  0  0  0  0
   10.9953  -18.8594   25.3311 C   0  0  0  0  0  0  0  0  0  0  0  0
   11.7261  -19.8821   25.5449 O   0  0  0  0  0  0  0  0  0  0  0  0
   14.5589  -15.5060   21.3970 O   0  0  0  0  0  0  0  0  0  0  0  0
   10.0367  -18.5509   26.2771 O   0  0  0  0  0  0  0  0  0  0  0  0
  2  4  1  0
  2  1  1  1
  3  2  1  0
  5  4  1  0
  5  6  1  6
  7  5  1  0
  8  7  2  0
 10  9  1  0
 10 12  1  0
 11 10  2  0
 14 13  1  6
 13 12  1  0
 14 15  1  0
 15  7  1  0
 16 18  1  0
 16 14  1  0
 17 16  2  0
 19 24  1  0
 19 18  1  0
 19 20  1  1
 21 20  1  0
 22 26  1  0
 22 21  1  0
 23 22  2  0
 24 27  1  0
 25 24  2  0
M  END
$$$$
