LQE.pdb
     RDKit          3D

 27 26  0  0  1  0  0  0  0  0999 V2000
    6.0970  -12.4990   19.6345 C   0  0  0  0  0  0  0  0  0  0  0  0
    7.3778  -13.1980   19.2737 C   0  0  1  0  0  0  0  0  0  0  0  0
    8.3525  -12.1849   18.7265 C   0  0  0  0  0  0  0  0  0  0  0  0
    7.9630  -13.9787   20.4180 C   0  0  0  0  0  0  0  0  0  0  0  0
    9.2541  -14.6432   20.0887 C   0  0  2  0  0  0  0  0  0  0  0  0
    9.1933  -15.2933   18.7954 N   0  0  0  0  0  0  0  0  0  0  0  0
    9.5796  -15.6283   21.1478 C   0  0  0  0  0  0  0  0  0  0  0  0
    9.5338  -15.2430   22.3580 O   0  0  0  0  0  0  0  0  0  0  0  0
    9.7901  -21.9247   20.6715 N   0  0  0  0  0  0  0  0  0  0  0  0
   10.3725  -21.6745   21.9330 C   0  0  0  0  0  0  0  0  0  0  0  0
   10.7058  -22.6481   22.6446 O   0  0  0  0  0  0  0  0  0  0  0  0
   10.6009  -20.2713   22.4401 C   0  0  0  0  0  0  0  0  0  0  0  0
   10.2040  -19.2649   21.4261 C   0  0  0  0  0  0  0  0  0  0  0  0
   10.3969  -17.8449   21.8298 C   0  0  2  0  0  0  0  0  0  0  0  0
    9.9266  -16.9482   20.7834 N   0  0  0  0  0  0  0  0  0  0  0  0
   11.8117  -17.5622   22.1660 C   0  0  0  0  0  0  0  0  0  0  0  0
   12.4168  -18.4088   22.8660 O   0  0  0  0  0  0  0  0  0  0  0  0
   12.4732  -16.3813   21.7202 N   0  0  0  0  0  0  0  0  0  0  0  0
   13.9164  -16.3326   21.7966 C   0  0  1  0  0  0  0  0  0  0  0  0
   14.5240  -15.5009   20.7338 C   0  0  0  0  0  0  0  0  0  0  0  0
   15.9828  -15.3292   20.6837 C   0  0  0  0  0  0  0  0  0  0  0  0
   16.5858  -14.4908   19.6714 C   0  0  0  0  0  0  0  0  0  0  0  0
   17.7430  -14.0613   19.7120 O   0  0  0  0  0  0  0  0  0  0  0  0
   14.3471  -16.0623   23.1597 C   0  0  0  0  0  0  0  0  0  0  0  0
   15.5910  -16.1313   23.4309 O   0  0  0  0  0  0  0  0  0  0  0  0
   15.8595  -14.0906   18.5195 O   0  0  0  0  0  0  0  0  0  0  0  0
   13.4867  -15.7331   24.1895 O   0  0  0  0  0  0  0  0  0  0  0  0
  2  4  1  0
  2  1  1  1
  3  2  1  0
  5  4  1  0
  5  6  1  6
  7  5  1  0
  8  7  2  0
 10  9  1  0
 10 12  1  0
 11 10  2  0
 14 13  1  6
 13 12  1  0
 14 15  1  0
 15  7  1  0
 16 18  1  0
 16 14  1  0
 17 16  2  0
 19 24  1  0
 19 18  1  0
 19 20  1  6
 21 20  1  0
 22 26  1  0
 22 21  1  0
 23 22  2  0
 24 27  1  0
 25 24  2  0
M  END
$$$$
