LQE.pdb
     RDKit          3D

 27 26  0  0  1  0  0  0  0  0999 V2000
    5.4111  -11.2548   26.1381 C   0  0  0  0  0  0  0  0  0  0  0  0
    6.5898  -12.1734   26.2991 C   0  0  1  0  0  0  0  0  0  0  0  0
    7.2102  -11.9428   27.6547 C   0  0  0  0  0  0  0  0  0  0  0  0
    6.2413  -13.6197   26.0801 C   0  0  0  0  0  0  0  0  0  0  0  0
    7.4235  -14.4851   25.8150 C   0  0  2  0  0  0  0  0  0  0  0  0
    8.6589  -13.7887   26.1111 N   0  0  0  0  0  0  0  0  0  0  0  0
    7.4018  -14.9198   24.3978 C   0  0  0  0  0  0  0  0  0  0  0  0
    6.4744  -15.7056   24.0269 O   0  0  0  0  0  0  0  0  0  0  0  0
    8.1147  -12.2604   19.0511 N   0  0  0  0  0  0  0  0  0  0  0  0
    8.2007  -13.6271   18.7083 C   0  0  0  0  0  0  0  0  0  0  0  0
    8.0872  -13.9531   17.5056 O   0  0  0  0  0  0  0  0  0  0  0  0
    8.4245  -14.6966   19.7496 C   0  0  0  0  0  0  0  0  0  0  0  0
    8.4103  -14.1230   21.1169 C   0  0  0  0  0  0  0  0  0  0  0  0
    8.5330  -15.1121   22.2229 C   0  0  2  0  0  0  0  0  0  0  0  0
    8.4003  -14.4529   23.5144 N   0  0  0  0  0  0  0  0  0  0  0  0
    9.8090  -15.8604   22.1446 C   0  0  0  0  0  0  0  0  0  0  0  0
   10.8501  -15.2615   22.5057 O   0  0  0  0  0  0  0  0  0  0  0  0
    9.8689  -17.2063   21.6802 N   0  0  0  0  0  0  0  0  0  0  0  0
   11.1617  -17.8497   21.6047 C   0  0  1  0  0  0  0  0  0  0  0  0
   11.3615  -18.8715   22.6565 C   0  0  0  0  0  0  0  0  0  0  0  0
   11.0727  -18.5429   24.0596 C   0  0  0  0  0  0  0  0  0  0  0  0
   11.2856  -19.5254   25.0991 C   0  0  0  0  0  0  0  0  0  0  0  0
   11.6444  -20.6907   24.9025 O   0  0  0  0  0  0  0  0  0  0  0  0
   11.4502  -18.2579   20.2384 C   0  0  0  0  0  0  0  0  0  0  0  0
   10.5322  -18.1426   19.3612 O   0  0  0  0  0  0  0  0  0  0  0  0
   11.0887  -19.2031   26.4673 O   0  0  0  0  0  0  0  0  0  0  0  0
   12.6663  -18.7681   19.8263 O   0  0  0  0  0  0  0  0  0  0  0  0
  2  4  1  0
  2  1  1  1
  3  2  1  0
  5  4  1  0
  5  6  1  6
  7  5  1  0
  8  7  2  0
 10  9  1  0
 10 12  1  0
 11 10  2  0
 14 13  1  6
 13 12  1  0
 14 15  1  0
 15  7  1  0
 16 18  1  0
 16 14  1  0
 17 16  2  0
 19 24  1  0
 19 18  1  0
 19 20  1  1
 21 20  1  0
 22 26  1  0
 22 21  1  0
 23 22  2  0
 24 27  1  0
 25 24  2  0
M  END
$$$$
