LQE.pdb
     RDKit          3D

 27 26  0  0  1  0  0  0  0  0999 V2000
    7.0613  -11.6049   25.7529 C   0  0  0  0  0  0  0  0  0  0  0  0
    6.6423  -12.6328   26.7664 C   0  0  1  0  0  0  0  0  0  0  0  0
    5.5255  -12.0661   27.6073 C   0  0  0  0  0  0  0  0  0  0  0  0
    6.2649  -13.9495   26.1457 C   0  0  0  0  0  0  0  0  0  0  0  0
    7.4334  -14.7495   25.6859 C   0  0  2  0  0  0  0  0  0  0  0  0
    8.6782  -14.0567   25.9495 N   0  0  0  0  0  0  0  0  0  0  0  0
    7.2937  -15.0285   24.2367 C   0  0  0  0  0  0  0  0  0  0  0  0
    6.3816  -15.8328   23.8672 O   0  0  0  0  0  0  0  0  0  0  0  0
    8.6012  -11.7378   19.1369 N   0  0  0  0  0  0  0  0  0  0  0  0
    8.4974  -13.0547   18.6389 C   0  0  0  0  0  0  0  0  0  0  0  0
    8.5193  -13.2321   17.4006 O   0  0  0  0  0  0  0  0  0  0  0  0
    8.3616  -14.2448   19.5574 C   0  0  0  0  0  0  0  0  0  0  0  0
    8.3662  -13.8259   20.9798 C   0  0  0  0  0  0  0  0  0  0  0  0
    8.2393  -14.9314   21.9688 C   0  0  2  0  0  0  0  0  0  0  0  0
    8.1679  -14.3997   23.3225 N   0  0  0  0  0  0  0  0  0  0  0  0
    9.3508  -15.9027   21.8447 C   0  0  0  0  0  0  0  0  0  0  0  0
    9.3081  -16.7058   20.8823 O   0  0  0  0  0  0  0  0  0  0  0  0
   10.4321  -15.9368   22.7723 N   0  0  0  0  0  0  0  0  0  0  0  0
   11.6404  -16.6348   22.3928 C   0  0  1  0  0  0  0  0  0  0  0  0
   12.5253  -15.8280   21.5231 C   0  0  0  0  0  0  0  0  0  0  0  0
   13.8003  -16.3896   21.0552 C   0  0  0  0  0  0  0  0  0  0  0  0
   14.6376  -15.6417   20.1436 C   0  0  0  0  0  0  0  0  0  0  0  0
   14.4191  -14.4823   19.7786 O   0  0  0  0  0  0  0  0  0  0  0  0
   12.2593  -17.2537   23.5550 C   0  0  0  0  0  0  0  0  0  0  0  0
   11.7882  -16.9889   24.7098 O   0  0  0  0  0  0  0  0  0  0  0  0
   15.8116  -16.2127   19.5867 O   0  0  0  0  0  0  0  0  0  0  0  0
   13.3354  -18.1176   23.4874 O   0  0  0  0  0  0  0  0  0  0  0  0
  2  4  1  0
  2  1  1  6
  3  2  1  0
  5  4  1  0
  5  6  1  6
  7  5  1  0
  8  7  2  0
 10  9  1  0
 10 12  1  0
 11 10  2  0
 14 13  1  6
 13 12  1  0
 14 15  1  0
 15  7  1  0
 16 18  1  0
 16 14  1  0
 17 16  2  0
 19 24  1  0
 19 18  1  0
 19 20  1  1
 21 20  1  0
 22 26  1  0
 22 21  1  0
 23 22  2  0
 24 27  1  0
 25 24  2  0
M  END
$$$$
