LQE.pdb
     RDKit          3D

 27 26  0  0  1  0  0  0  0  0999 V2000
    6.4531  -11.1027   25.9170 C   0  0  0  0  0  0  0  0  0  0  0  0
    7.0763  -12.4665   26.0223 C   0  0  1  0  0  0  0  0  0  0  0  0
    7.7201  -12.6084   27.3791 C   0  0  0  0  0  0  0  0  0  0  0  0
    6.1041  -13.5793   25.7432 C   0  0  0  0  0  0  0  0  0  0  0  0
    6.7434  -14.9208   25.6493 C   0  0  2  0  0  0  0  0  0  0  0  0
    7.9021  -15.0101   26.5143 N   0  0  0  0  0  0  0  0  0  0  0  0
    7.1279  -15.1803   24.2412 C   0  0  0  0  0  0  0  0  0  0  0  0
    6.2012  -15.3801   23.3948 O   0  0  0  0  0  0  0  0  0  0  0  0
    6.9572  -12.4769   20.0092 N   0  0  0  0  0  0  0  0  0  0  0  0
    7.7205  -13.4843   19.3801 C   0  0  0  0  0  0  0  0  0  0  0  0
    7.7831  -13.4985   18.1306 O   0  0  0  0  0  0  0  0  0  0  0  0
    8.4573  -14.5366   20.1727 C   0  0  0  0  0  0  0  0  0  0  0  0
    8.1564  -14.4241   21.6203 C   0  0  0  0  0  0  0  0  0  0  0  0
    8.8382  -15.4209   22.4909 C   0  0  2  0  0  0  0  0  0  0  0  0
    8.4956  -15.1973   23.8883 N   0  0  0  0  0  0  0  0  0  0  0  0
   10.3071  -15.3952   22.3004 C   0  0  0  0  0  0  0  0  0  0  0  0
   10.8736  -14.2773   22.3474 O   0  0  0  0  0  0  0  0  0  0  0  0
   11.0607  -16.5830   22.0722 N   0  0  0  0  0  0  0  0  0  0  0  0
   11.8408  -17.1215   23.1642 C   0  0  1  0  0  0  0  0  0  0  0  0
   11.0060  -17.6854   24.2483 C   0  0  0  0  0  0  0  0  0  0  0  0
   11.6455  -18.3320   25.4028 C   0  0  0  0  0  0  0  0  0  0  0  0
   10.8431  -18.9975   26.4051 C   0  0  0  0  0  0  0  0  0  0  0  0
   10.2683  -18.4275   27.3378 O   0  0  0  0  0  0  0  0  0  0  0  0
   12.9100  -17.9690   22.6590 C   0  0  0  0  0  0  0  0  0  0  0  0
   12.6370  -18.8142   21.7443 O   0  0  0  0  0  0  0  0  0  0  0  0
   10.6558  -20.4043   26.3823 O   0  0  0  0  0  0  0  0  0  0  0  0
   14.2145  -17.9171   23.1113 O   0  0  0  0  0  0  0  0  0  0  0  0
  2  4  1  0
  2  1  1  1
  3  2  1  0
  5  4  1  0
  5  6  1  1
  7  5  1  0
  8  7  2  0
 10  9  1  0
 10 12  1  0
 11 10  2  0
 14 13  1  6
 13 12  1  0
 14 15  1  0
 15  7  1  0
 16 18  1  0
 16 14  1  0
 17 16  2  0
 19 24  1  0
 19 18  1  0
 19 20  1  1
 21 20  1  0
 22 26  1  0
 22 21  1  0
 23 22  2  0
 24 27  1  0
 25 24  2  0
M  END
$$$$
