LQE.pdb
     RDKit          3D

 27 26  0  0  1  0  0  0  0  0999 V2000
    7.9362  -12.2021   19.5298 C   0  0  0  0  0  0  0  0  0  0  0  0
    7.3578  -13.5306   19.9298 C   0  0  1  0  0  0  0  0  0  0  0  0
    7.6729  -14.5454   18.8591 C   0  0  0  0  0  0  0  0  0  0  0  0
    7.8171  -13.9861   21.2873 C   0  0  0  0  0  0  0  0  0  0  0  0
    7.1461  -15.2289   21.7586 C   0  0  2  0  0  0  0  0  0  0  0  0
    5.7054  -15.0765   21.7628 N   0  0  0  0  0  0  0  0  0  0  0  0
    7.6349  -15.5617   23.1180 C   0  0  0  0  0  0  0  0  0  0  0  0
    8.0404  -14.6110   23.8576 O   0  0  0  0  0  0  0  0  0  0  0  0
    6.1628  -20.4616   26.6990 N   0  0  0  0  0  0  0  0  0  0  0  0
    7.1919  -19.8301   27.4305 C   0  0  0  0  0  0  0  0  0  0  0  0
    7.4593  -20.2518   28.5777 O   0  0  0  0  0  0  0  0  0  0  0  0
    7.9715  -18.6672   26.8664 C   0  0  0  0  0  0  0  0  0  0  0  0
    7.4461  -18.2646   25.5395 C   0  0  0  0  0  0  0  0  0  0  0  0
    8.2350  -17.2174   24.8342 C   0  0  2  0  0  0  0  0  0  0  0  0
    7.6350  -16.9085   23.5439 N   0  0  0  0  0  0  0  0  0  0  0  0
    9.6511  -17.6205   24.6710 C   0  0  0  0  0  0  0  0  0  0  0  0
    9.9548  -18.2444   23.6263 O   0  0  0  0  0  0  0  0  0  0  0  0
   10.6406  -17.3197   25.6515 N   0  0  0  0  0  0  0  0  0  0  0  0
   11.9925  -17.7811   25.4266 C   0  0  1  0  0  0  0  0  0  0  0  0
   12.7755  -16.8751   24.5568 C   0  0  0  0  0  0  0  0  0  0  0  0
   14.1858  -17.1738   24.2711 C   0  0  0  0  0  0  0  0  0  0  0  0
   14.9622  -16.2951   23.4247 C   0  0  0  0  0  0  0  0  0  0  0  0
   14.4883  -15.3995   22.7185 O   0  0  0  0  0  0  0  0  0  0  0  0
   12.6134  -18.1748   26.6820 C   0  0  0  0  0  0  0  0  0  0  0  0
   12.0417  -17.8476   27.7736 O   0  0  0  0  0  0  0  0  0  0  0  0
   16.3748  -16.4079   23.3465 O   0  0  0  0  0  0  0  0  0  0  0  0
   13.7945  -18.8865   26.7684 O   0  0  0  0  0  0  0  0  0  0  0  0
  2  4  1  0
  2  1  1  6
  3  2  1  0
  5  4  1  0
  5  6  1  1
  7  5  1  0
  8  7  2  0
 10  9  1  0
 10 12  1  0
 11 10  2  0
 14 13  1  6
 13 12  1  0
 14 15  1  0
 15  7  1  0
 16 18  1  0
 16 14  1  0
 17 16  2  0
 19 24  1  0
 19 18  1  0
 19 20  1  1
 21 20  1  0
 22 26  1  0
 22 21  1  0
 23 22  2  0
 24 27  1  0
 25 24  2  0
M  END
$$$$
