LQE.pdb
     RDKit          3D

 27 26  0  0  1  0  0  0  0  0999 V2000
    7.3088  -12.2680   28.1308 C   0  0  0  0  0  0  0  0  0  0  0  0
    6.4615  -13.1709   27.2787 C   0  0  1  0  0  0  0  0  0  0  0  0
    5.4394  -12.3376   26.5462 C   0  0  0  0  0  0  0  0  0  0  0  0
    7.2710  -14.0205   26.3384 C   0  0  0  0  0  0  0  0  0  0  0  0
    6.4433  -14.8800   25.4478 C   0  0  2  0  0  0  0  0  0  0  0  0
    5.8995  -16.0118   26.1704 N   0  0  0  0  0  0  0  0  0  0  0  0
    7.2720  -15.3431   24.3092 C   0  0  0  0  0  0  0  0  0  0  0  0
    7.7859  -16.5036   24.3759 O   0  0  0  0  0  0  0  0  0  0  0  0
    7.4294  -13.2529   18.1545 N   0  0  0  0  0  0  0  0  0  0  0  0
    8.7437  -13.5235   18.5933 C   0  0  0  0  0  0  0  0  0  0  0  0
    9.7004  -12.9871   17.9913 O   0  0  0  0  0  0  0  0  0  0  0  0
    9.0204  -14.4372   19.7624 C   0  0  0  0  0  0  0  0  0  0  0  0
    8.2533  -14.0197   20.9607 C   0  0  0  0  0  0  0  0  0  0  0  0
    8.3054  -14.9644   22.1102 C   0  0  2  0  0  0  0  0  0  0  0  0
    7.4627  -14.4906   23.1990 N   0  0  0  0  0  0  0  0  0  0  0  0
    9.6951  -15.1773   22.5770 C   0  0  0  0  0  0  0  0  0  0  0  0
   10.1736  -14.3272   23.3653 O   0  0  0  0  0  0  0  0  0  0  0  0
   10.4704  -16.2969   22.1573 N   0  0  0  0  0  0  0  0  0  0  0  0
   11.6982  -16.5855   22.8646 C   0  0  1  0  0  0  0  0  0  0  0  0
   11.5150  -17.5511   23.9711 C   0  0  0  0  0  0  0  0  0  0  0  0
   12.6842  -18.0449   24.7120 C   0  0  0  0  0  0  0  0  0  0  0  0
   12.5222  -19.0193   25.7683 C   0  0  0  0  0  0  0  0  0  0  0  0
   11.4757  -19.6300   26.0070 O   0  0  0  0  0  0  0  0  0  0  0  0
   12.7739  -16.8680   21.9266 C   0  0  0  0  0  0  0  0  0  0  0  0
   13.9607  -16.9852   22.3776 O   0  0  0  0  0  0  0  0  0  0  0  0
   13.5969  -19.3511   26.6340 O   0  0  0  0  0  0  0  0  0  0  0  0
   12.5906  -17.0180   20.5654 O   0  0  0  0  0  0  0  0  0  0  0  0
  2  4  1  0
  2  1  1  6
  3  2  1  0
  5  4  1  0
  5  6  1  1
  7  5  1  0
  8  7  2  0
 10  9  1  0
 10 12  1  0
 11 10  2  0
 14 13  1  6
 13 12  1  0
 14 15  1  0
 15  7  1  0
 16 18  1  0
 16 14  1  0
 17 16  2  0
 19 24  1  0
 19 18  1  0
 19 20  1  1
 21 20  1  0
 22 26  1  0
 22 21  1  0
 23 22  2  0
 24 27  1  0
 25 24  2  0
M  END
$$$$
