LQE.pdb
     RDKit          3D

 27 26  0  0  1  0  0  0  0  0999 V2000
    8.1651  -11.8919   18.8613 C   0  0  0  0  0  0  0  0  0  0  0  0
    8.4559  -12.8563   19.9770 C   0  0  1  0  0  0  0  0  0  0  0  0
    7.3967  -12.7097   21.0410 C   0  0  0  0  0  0  0  0  0  0  0  0
    8.5844  -14.2784   19.5052 C   0  0  0  0  0  0  0  0  0  0  0  0
    8.9230  -15.2392   20.5910 C   0  0  2  0  0  0  0  0  0  0  0  0
    8.7239  -14.6446   21.8970 N   0  0  0  0  0  0  0  0  0  0  0  0
   10.3298  -15.6790   20.4321 C   0  0  0  0  0  0  0  0  0  0  0  0
   10.5957  -16.5133   19.5109 O   0  0  0  0  0  0  0  0  0  0  0  0
   15.8615  -14.2187   18.9526 N   0  0  0  0  0  0  0  0  0  0  0  0
   14.6846  -14.4628   18.2122 C   0  0  0  0  0  0  0  0  0  0  0  0
   14.7593  -14.5120   16.9642 O   0  0  0  0  0  0  0  0  0  0  0  0
   13.3484  -14.6644   18.8847 C   0  0  0  0  0  0  0  0  0  0  0  0
   13.4769  -14.5976   20.3604 C   0  0  0  0  0  0  0  0  0  0  0  0
   12.6915  -15.6134   21.1139 C   0  0  2  0  0  0  0  0  0  0  0  0
   11.3191  -15.1635   21.2987 N   0  0  0  0  0  0  0  0  0  0  0  0
   13.3198  -15.9298   22.4175 C   0  0  0  0  0  0  0  0  0  0  0  0
   13.6343  -14.9643   23.1538 O   0  0  0  0  0  0  0  0  0  0  0  0
   13.5641  -17.2707   22.8335 N   0  0  0  0  0  0  0  0  0  0  0  0
   14.0329  -17.4963   24.1827 C   0  0  1  0  0  0  0  0  0  0  0  0
   13.0676  -18.2523   25.0115 C   0  0  0  0  0  0  0  0  0  0  0  0
   13.4287  -18.6432   26.3814 C   0  0  0  0  0  0  0  0  0  0  0  0
   12.5306  -19.4572   27.1701 C   0  0  0  0  0  0  0  0  0  0  0  0
   11.4352  -19.8747   26.7811 O   0  0  0  0  0  0  0  0  0  0  0  0
   15.4034  -17.9847   24.1724 C   0  0  0  0  0  0  0  0  0  0  0  0
   15.8642  -18.4842   23.0937 O   0  0  0  0  0  0  0  0  0  0  0  0
   12.8612  -19.8454   28.4947 O   0  0  0  0  0  0  0  0  0  0  0  0
   16.2455  -17.9424   25.2669 O   0  0  0  0  0  0  0  0  0  0  0  0
  2  4  1  0
  2  1  1  6
  3  2  1  0
  5  4  1  0
  5  6  1  1
  7  5  1  0
  8  7  2  0
 10  9  1  0
 10 12  1  0
 11 10  2  0
 14 13  1  1
 13 12  1  0
 14 15  1  0
 15  7  1  0
 16 18  1  0
 16 14  1  0
 17 16  2  0
 19 24  1  0
 19 18  1  0
 19 20  1  6
 21 20  1  0
 22 26  1  0
 22 21  1  0
 23 22  2  0
 24 27  1  0
 25 24  2  0
M  END
$$$$
