LQE.pdb
     RDKit          3D

 27 26  0  0  1  0  0  0  0  0999 V2000
    7.4500  -12.1684   18.3610 C   0  0  0  0  0  0  0  0  0  0  0  0
    7.7305  -13.5697   18.8268 C   0  0  1  0  0  0  0  0  0  0  0  0
    8.3007  -14.3638   17.6779 C   0  0  0  0  0  0  0  0  0  0  0  0
    8.6193  -13.6187   20.0388 C   0  0  0  0  0  0  0  0  0  0  0  0
    8.8183  -14.9923   20.5779 C   0  0  2  0  0  0  0  0  0  0  0  0
    7.6022  -15.7737   20.4814 N   0  0  0  0  0  0  0  0  0  0  0  0
    9.2649  -14.9026   21.9887 C   0  0  0  0  0  0  0  0  0  0  0  0
   10.3533  -14.2942   22.2344 O   0  0  0  0  0  0  0  0  0  0  0  0
    5.6059  -13.9210   26.8710 N   0  0  0  0  0  0  0  0  0  0  0  0
    6.4553  -12.9347   26.3245 C   0  0  0  0  0  0  0  0  0  0  0  0
    6.2380  -11.7341   26.6015 O   0  0  0  0  0  0  0  0  0  0  0  0
    7.6107  -13.2910   25.4208 C   0  0  0  0  0  0  0  0  0  0  0  0
    7.6520  -14.7492   25.1552 C   0  0  0  0  0  0  0  0  0  0  0  0
    8.8373  -15.2228   24.3889 C   0  0  2  0  0  0  0  0  0  0  0  0
    8.4766  -15.4890   23.0036 N   0  0  0  0  0  0  0  0  0  0  0  0
    9.4448  -16.4215   25.0123 C   0  0  0  0  0  0  0  0  0  0  0  0
    8.8089  -17.4991   24.9268 O   0  0  0  0  0  0  0  0  0  0  0  0
   10.6997  -16.3695   25.6856 N   0  0  0  0  0  0  0  0  0  0  0  0
   11.3342  -17.6162   26.0521 C   0  0  1  0  0  0  0  0  0  0  0  0
   12.7815  -17.6411   25.7437 C   0  0  0  0  0  0  0  0  0  0  0  0
   13.2567  -17.1901   24.4282 C   0  0  0  0  0  0  0  0  0  0  0  0
   14.5159  -16.4893   24.3067 C   0  0  0  0  0  0  0  0  0  0  0  0
   15.2385  -16.1721   25.2567 O   0  0  0  0  0  0  0  0  0  0  0  0
   10.9496  -18.0085   27.3992 C   0  0  0  0  0  0  0  0  0  0  0  0
   10.3327  -17.1631   28.1274 O   0  0  0  0  0  0  0  0  0  0  0  0
   15.0244  -16.1048   23.0386 O   0  0  0  0  0  0  0  0  0  0  0  0
   11.2130  -19.2498   27.9460 O   0  0  0  0  0  0  0  0  0  0  0  0
  2  4  1  0
  2  1  1  6
  3  2  1  0
  5  4  1  0
  5  6  1  1
  7  5  1  0
  8  7  2  0
 10  9  1  0
 10 12  1  0
 11 10  2  0
 14 13  1  1
 13 12  1  0
 14 15  1  0
 15  7  1  0
 16 18  1  0
 16 14  1  0
 17 16  2  0
 19 24  1  0
 19 18  1  0
 19 20  1  1
 21 20  1  0
 22 26  1  0
 22 21  1  0
 23 22  2  0
 24 27  1  0
 25 24  2  0
M  END
$$$$
