LQE.pdb
     RDKit          3D

 27 26  0  0  1  0  0  0  0  0999 V2000
    6.9909  -11.8865   19.7346 C   0  0  0  0  0  0  0  0  0  0  0  0
    7.3707  -13.3408   19.7295 C   0  0  1  0  0  0  0  0  0  0  0  0
    8.0999  -13.6532   18.4465 C   0  0  0  0  0  0  0  0  0  0  0  0
    8.1667  -13.7439   20.9400 C   0  0  0  0  0  0  0  0  0  0  0  0
    8.4895  -15.1967   20.9854 C   0  0  2  0  0  0  0  0  0  0  0  0
    7.2942  -16.0031   20.8443 N   0  0  0  0  0  0  0  0  0  0  0  0
    9.1730  -15.5047   22.2644 C   0  0  0  0  0  0  0  0  0  0  0  0
   10.2615  -14.9012   22.5217 O   0  0  0  0  0  0  0  0  0  0  0  0
    6.6664  -18.6509   27.1752 N   0  0  0  0  0  0  0  0  0  0  0  0
    8.0341  -18.5593   27.5128 C   0  0  0  0  0  0  0  0  0  0  0  0
    8.4128  -19.0155   28.6146 O   0  0  0  0  0  0  0  0  0  0  0  0
    9.0430  -17.9291   26.5837 C   0  0  0  0  0  0  0  0  0  0  0  0
    8.3915  -17.4196   25.3530 C   0  0  0  0  0  0  0  0  0  0  0  0
    9.2958  -16.7258   24.3953 C   0  0  2  0  0  0  0  0  0  0  0  0
    8.6005  -16.4479   23.1464 N   0  0  0  0  0  0  0  0  0  0  0  0
   10.5285  -17.5086   24.1462 C   0  0  0  0  0  0  0  0  0  0  0  0
   10.3951  -18.6410   23.6239 O   0  0  0  0  0  0  0  0  0  0  0  0
   11.8210  -17.0101   24.4805 N   0  0  0  0  0  0  0  0  0  0  0  0
   12.9580  -17.8896   24.3225 C   0  0  1  0  0  0  0  0  0  0  0  0
   13.9229  -17.4106   23.3077 C   0  0  0  0  0  0  0  0  0  0  0  0
   14.7835  -16.2568   23.6041 C   0  0  0  0  0  0  0  0  0  0  0  0
   15.9724  -16.0106   22.8184 C   0  0  0  0  0  0  0  0  0  0  0  0
   16.3710  -16.7346   21.9006 O   0  0  0  0  0  0  0  0  0  0  0  0
   13.5061  -18.2542   25.6199 C   0  0  0  0  0  0  0  0  0  0  0  0
   13.0933  -17.6309   26.6527 O   0  0  0  0  0  0  0  0  0  0  0  0
   16.7915  -14.8768   23.0593 O   0  0  0  0  0  0  0  0  0  0  0  0
   14.4547  -19.2412   25.8067 O   0  0  0  0  0  0  0  0  0  0  0  0
  2  4  1  0
  2  1  1  1
  3  2  1  0
  5  4  1  0
  5  6  1  1
  7  5  1  0
  8  7  2  0
 10  9  1  0
 10 12  1  0
 11 10  2  0
 14 13  1  1
 13 12  1  0
 14 15  1  0
 15  7  1  0
 16 18  1  0
 16 14  1  0
 17 16  2  0
 19 24  1  0
 19 18  1  0
 19 20  1  6
 21 20  1  0
 22 26  1  0
 22 21  1  0
 23 22  2  0
 24 27  1  0
 25 24  2  0
M  END
$$$$
