LQE.pdb
     RDKit          3D

 27 26  0  0  1  0  0  0  0  0999 V2000
    6.9754  -11.6854   26.2315 C   0  0  0  0  0  0  0  0  0  0  0  0
    7.5951  -12.6186   25.2294 C   0  0  1  0  0  0  0  0  0  0  0  0
    8.4738  -13.6061   25.9564 C   0  0  0  0  0  0  0  0  0  0  0  0
    6.5786  -13.3058   24.3601 C   0  0  0  0  0  0  0  0  0  0  0  0
    7.1797  -14.1169   23.2657 C   0  0  2  0  0  0  0  0  0  0  0  0
    6.1557  -14.7589   22.4670 N   0  0  0  0  0  0  0  0  0  0  0  0
    8.0890  -15.1301   23.8525 C   0  0  0  0  0  0  0  0  0  0  0  0
    7.5927  -15.9945   24.6410 O   0  0  0  0  0  0  0  0  0  0  0  0
   12.8938  -18.4482   19.9528 N   0  0  0  0  0  0  0  0  0  0  0  0
   12.8896  -17.5163   21.0132 C   0  0  0  0  0  0  0  0  0  0  0  0
   13.7150  -16.5763   20.9902 O   0  0  0  0  0  0  0  0  0  0  0  0
   11.9207  -17.6257   22.1654 C   0  0  0  0  0  0  0  0  0  0  0  0
   11.1539  -16.3687   22.3406 C   0  0  0  0  0  0  0  0  0  0  0  0
   10.1755  -16.3716   23.4627 C   0  0  2  0  0  0  0  0  0  0  0  0
    9.4619  -15.1037   23.5213 N   0  0  0  0  0  0  0  0  0  0  0  0
   10.8333  -16.6636   24.7575 C   0  0  0  0  0  0  0  0  0  0  0  0
   11.3859  -15.7065   25.3505 O   0  0  0  0  0  0  0  0  0  0  0  0
   10.8470  -17.9727   25.3203 N   0  0  0  0  0  0  0  0  0  0  0  0
   11.4787  -18.1600   26.6075 C   0  0  1  0  0  0  0  0  0  0  0  0
   10.7351  -19.0895   27.4869 C   0  0  0  0  0  0  0  0  0  0  0  0
   11.1412  -19.2513   28.8901 C   0  0  0  0  0  0  0  0  0  0  0  0
   10.5391  -20.2778   29.7116 C   0  0  0  0  0  0  0  0  0  0  0  0
   10.8717  -20.5338   30.8732 O   0  0  0  0  0  0  0  0  0  0  0  0
   12.9017  -18.4161   26.4458 C   0  0  0  0  0  0  0  0  0  0  0  0
   13.6994  -18.0223   27.3591 O   0  0  0  0  0  0  0  0  0  0  0  0
    9.4852  -21.0906   29.2184 O   0  0  0  0  0  0  0  0  0  0  0  0
   13.4498  -19.0640   25.3555 O   0  0  0  0  0  0  0  0  0  0  0  0
  2  4  1  0
  2  1  1  1
  3  2  1  0
  5  4  1  0
  5  6  1  1
  7  5  1  0
  8  7  2  0
 10  9  1  0
 10 12  1  0
 11 10  2  0
 14 13  1  6
 13 12  1  0
 14 15  1  0
 15  7  1  0
 16 18  1  0
 16 14  1  0
 17 16  2  0
 19 24  1  0
 19 18  1  0
 19 20  1  6
 21 20  1  0
 22 26  1  0
 22 21  1  0
 23 22  2  0
 24 27  1  0
 25 24  2  0
M  END
$$$$
