LQE.pdb
     RDKit          3D

 27 26  0  0  1  0  0  0  0  0999 V2000
    6.3022  -12.0099   26.6562 C   0  0  0  0  0  0  0  0  0  0  0  0
    6.7195  -12.4048   25.2673 C   0  0  1  0  0  0  0  0  0  0  0  0
    7.6959  -11.3834   24.7391 C   0  0  0  0  0  0  0  0  0  0  0  0
    7.2739  -13.8008   25.1955 C   0  0  0  0  0  0  0  0  0  0  0  0
    7.8716  -14.1385   23.8742 C   0  0  2  0  0  0  0  0  0  0  0  0
    6.8791  -14.0796   22.8205 N   0  0  0  0  0  0  0  0  0  0  0  0
    8.4734  -15.4916   23.9427 C   0  0  0  0  0  0  0  0  0  0  0  0
    8.1386  -16.2475   24.9080 O   0  0  0  0  0  0  0  0  0  0  0  0
   11.4828  -17.0186   19.1599 N   0  0  0  0  0  0  0  0  0  0  0  0
   10.1120  -17.3293   19.2906 C   0  0  0  0  0  0  0  0  0  0  0  0
    9.3739  -17.2255   18.2857 O   0  0  0  0  0  0  0  0  0  0  0  0
    9.5196  -17.7803   20.6037 C   0  0  0  0  0  0  0  0  0  0  0  0
   10.5021  -17.6500   21.7065 C   0  0  0  0  0  0  0  0  0  0  0  0
    9.9330  -17.2426   23.0205 C   0  0  2  0  0  0  0  0  0  0  0  0
    9.3893  -15.8939   22.9453 N   0  0  0  0  0  0  0  0  0  0  0  0
   10.9386  -17.3430   24.1036 C   0  0  0  0  0  0  0  0  0  0  0  0
   11.6796  -16.3493   24.2944 O   0  0  0  0  0  0  0  0  0  0  0  0
   11.0718  -18.5136   24.9054 N   0  0  0  0  0  0  0  0  0  0  0  0
   12.0551  -18.5112   25.9657 C   0  0  1  0  0  0  0  0  0  0  0  0
   11.5627  -19.1387   27.2124 C   0  0  0  0  0  0  0  0  0  0  0  0
   12.4638  -19.2813   28.3646 C   0  0  0  0  0  0  0  0  0  0  0  0
   12.0341  -19.9993   29.5441 C   0  0  0  0  0  0  0  0  0  0  0  0
   11.6615  -19.4670   30.5944 O   0  0  0  0  0  0  0  0  0  0  0  0
   13.3424  -18.9730   25.4697 C   0  0  0  0  0  0  0  0  0  0  0  0
   14.4023  -18.5458   26.0352 O   0  0  0  0  0  0  0  0  0  0  0  0
   12.0110  -21.4181   29.5739 O   0  0  0  0  0  0  0  0  0  0  0  0
   13.4921  -19.8527   24.4148 O   0  0  0  0  0  0  0  0  0  0  0  0
  2  4  1  0
  2  1  1  1
  3  2  1  0
  5  4  1  0
  5  6  1  6
  7  5  1  0
  8  7  2  0
 10  9  1  0
 10 12  1  0
 11 10  2  0
 14 13  1  6
 13 12  1  0
 14 15  1  0
 15  7  1  0
 16 18  1  0
 16 14  1  0
 17 16  2  0
 19 24  1  0
 19 18  1  0
 19 20  1  1
 21 20  1  0
 22 26  1  0
 22 21  1  0
 23 22  2  0
 24 27  1  0
 25 24  2  0
M  END
$$$$
