IER.pdb
     RDKit          3D

 29 28  0  0  1  0  0  0  0  0999 V2000
    6.4087  -12.1299   19.8052 C   0  0  0  0  0  0  0  0  0  0  0  0
    7.3171  -13.0821   19.1074 C   0  0  0  0  0  0  0  0  0  0  0  0
    8.0155  -14.0731   19.9734 C   0  0  2  0  0  0  0  0  0  0  0  0
    8.7512  -13.4327   21.1290 C   0  0  0  0  0  0  0  0  0  0  0  0
    8.9218  -15.0272   19.2351 C   0  0  2  0  0  0  0  0  0  0  0  0
    8.2265  -15.7165   18.2196 N   0  0  0  0  0  0  0  0  0  0  0  0
    9.5721  -15.8930   20.2399 C   0  0  0  0  0  0  0  0  0  0  0  0
    8.9176  -16.8688   20.6849 O   0  0  0  0  0  0  0  0  0  0  0  0
   10.8694  -15.6672   20.7052 N   0  0  0  0  0  0  0  0  0  0  0  0
   11.5578  -16.5012   21.6721 C   0  0  1  0  0  0  0  0  0  0  0  0
   12.9943  -15.9988   21.6722 C   0  0  0  0  0  0  0  0  0  0  0  0
   13.8448  -16.5874   22.7409 C   0  0  0  0  0  0  0  0  0  0  0  0
   15.2097  -15.9771   22.5897 C   0  0  0  0  0  0  0  0  0  0  0  0
   15.6094  -15.0165   23.2950 O   0  0  0  0  0  0  0  0  0  0  0  0
   10.8986  -16.2962   22.9706 C   0  0  0  0  0  0  0  0  0  0  0  0
   10.8052  -15.1415   23.4269 O   0  0  0  0  0  0  0  0  0  0  0  0
   16.0967  -16.4739   21.6347 O   0  0  0  0  0  0  0  0  0  0  0  0
    6.5068  -21.9632   26.0301 N   0  0  0  0  0  0  0  0  0  0  0  0
    6.5684  -21.1918   27.2207 C   0  0  0  0  0  0  0  0  0  0  0  0
    6.8971  -21.7750   28.3173 N   0  0  0  0  0  0  0  0  0  0  0  0
    6.2754  -19.8032   27.2198 N   0  0  0  0  0  0  0  0  0  0  0  0
    6.6186  -19.0122   26.0712 C   0  0  0  0  0  0  0  0  0  0  0  0
    8.0611  -18.4840   26.1871 C   0  0  0  0  0  0  0  0  0  0  0  0
    8.3334  -17.6503   24.9873 C   0  0  0  0  0  0  0  0  0  0  0  0
    9.7237  -17.1148   24.9717 C   0  0  2  0  0  0  0  0  0  0  0  0
   10.3817  -17.3797   23.6886 N   0  0  0  0  0  0  0  0  0  0  0  0
   10.6201  -17.6417   26.0038 C   0  0  0  0  0  0  0  0  0  0  0  0
   11.3108  -18.6512   25.8010 O   0  0  0  0  0  0  0  0  0  0  0  0
   10.7646  -17.0564   27.2785 O   0  0  0  0  0  0  0  0  0  0  0  0
  2  1  1  0
  3  2  1  0
  3  4  1  1
  5  3  1  0
  5  6  1  6
  7  8  2  0
  7  5  1  0
  9  7  1  0
 10  9  1  0
 11 12  1  0
 10 11  1  1
 12 13  1  0
 13 14  2  0
 15 16  2  0
 15 10  1  0
 17 13  1  0
 18 19  1  0
 19 20  2  0
 21 19  1  0
 21 22  1  0
 22 23  1  0
 23 24  1  0
 25 24  1  6
 25 27  1  0
 25 26  1  0
 26 15  1  0
 27 29  1  0
 28 27  2  0
M  END
$$$$
