IER.pdb
     RDKit          3D

 29 28  0  0  1  0  0  0  0  0999 V2000
    6.7333  -12.7865   17.4647 C   0  0  0  0  0  0  0  0  0  0  0  0
    8.0682  -12.7752   18.1255 C   0  0  0  0  0  0  0  0  0  0  0  0
    8.2145  -13.6551   19.3188 C   0  0  2  0  0  0  0  0  0  0  0  0
    7.1028  -13.4718   20.3275 C   0  0  0  0  0  0  0  0  0  0  0  0
    9.5601  -13.5786   19.9973 C   0  0  2  0  0  0  0  0  0  0  0  0
   10.5771  -13.2252   19.0860 N   0  0  0  0  0  0  0  0  0  0  0  0
    9.7769  -14.8575   20.7042 C   0  0  0  0  0  0  0  0  0  0  0  0
    8.8105  -15.3468   21.3409 O   0  0  0  0  0  0  0  0  0  0  0  0
   11.0003  -15.5307   20.6895 N   0  0  0  0  0  0  0  0  0  0  0  0
   11.2464  -16.8126   21.3222 C   0  0  1  0  0  0  0  0  0  0  0  0
   12.6116  -17.2483   20.8100 C   0  0  0  0  0  0  0  0  0  0  0  0
   12.6489  -17.5445   19.3531 C   0  0  0  0  0  0  0  0  0  0  0  0
   14.0608  -17.9465   19.0317 C   0  0  0  0  0  0  0  0  0  0  0  0
   14.8608  -17.1961   18.4179 O   0  0  0  0  0  0  0  0  0  0  0  0
   11.2455  -16.5875   22.7755 C   0  0  0  0  0  0  0  0  0  0  0  0
   10.5848  -15.6406   23.2414 O   0  0  0  0  0  0  0  0  0  0  0  0
   14.5365  -19.1999   19.4167 O   0  0  0  0  0  0  0  0  0  0  0  0
    5.7283  -20.8157   26.1434 N   0  0  0  0  0  0  0  0  0  0  0  0
    6.5179  -20.6457   27.3113 C   0  0  0  0  0  0  0  0  0  0  0  0
    6.0283  -21.0022   28.4444 N   0  0  0  0  0  0  0  0  0  0  0  0
    7.8239  -20.0938   27.2488 N   0  0  0  0  0  0  0  0  0  0  0  0
    8.2585  -19.4493   26.0411 C   0  0  0  0  0  0  0  0  0  0  0  0
    9.6560  -18.8290   26.2294 C   0  0  0  0  0  0  0  0  0  0  0  0
   10.0928  -18.2947   24.9132 C   0  0  0  0  0  0  0  0  0  0  0  0
   11.4477  -17.6776   24.9723 C   0  0  2  0  0  0  0  0  0  0  0  0
   11.9753  -17.4222   23.6284 N   0  0  0  0  0  0  0  0  0  0  0  0
   12.4728  -18.4587   25.6690 C   0  0  0  0  0  0  0  0  0  0  0  0
   12.4011  -18.6712   26.8884 O   0  0  0  0  0  0  0  0  0  0  0  0
   13.5951  -19.0170   25.0232 O   0  0  0  0  0  0  0  0  0  0  0  0
  2  1  1  0
  3  2  1  0
  3  4  1  1
  5  3  1  0
  5  6  1  6
  7  8  2  0
  7  5  1  0
  9  7  1  0
 10  9  1  0
 11 12  1  0
 10 11  1  6
 12 13  1  0
 13 14  2  0
 15 16  2  0
 15 10  1  0
 17 13  1  0
 18 19  1  0
 19 20  2  0
 21 19  1  0
 21 22  1  0
 22 23  1  0
 23 24  1  0
 25 24  1  6
 25 27  1  0
 25 26  1  0
 26 15  1  0
 27 29  1  0
 28 27  2  0
M  END
$$$$
