IER.pdb
     RDKit          3D

 29 28  0  0  1  0  0  0  0  0999 V2000
    6.8554  -12.1923   20.0345 C   0  0  0  0  0  0  0  0  0  0  0  0
    7.4334  -13.4003   19.3823 C   0  0  0  0  0  0  0  0  0  0  0  0
    8.1728  -14.3352   20.2761 C   0  0  2  0  0  0  0  0  0  0  0  0
    9.2378  -13.6466   21.0997 C   0  0  0  0  0  0  0  0  0  0  0  0
    8.7434  -15.5492   19.5850 C   0  0  2  0  0  0  0  0  0  0  0  0
    7.7545  -16.2358   18.8500 N   0  0  0  0  0  0  0  0  0  0  0  0
    9.4332  -16.3620   20.6076 C   0  0  0  0  0  0  0  0  0  0  0  0
    8.7579  -17.2216   21.2270 O   0  0  0  0  0  0  0  0  0  0  0  0
   10.7891  -16.2097   20.9050 N   0  0  0  0  0  0  0  0  0  0  0  0
   11.5340  -17.0511   21.8224 C   0  0  1  0  0  0  0  0  0  0  0  0
   12.7330  -17.5395   21.0226 C   0  0  0  0  0  0  0  0  0  0  0  0
   13.6389  -18.4466   21.7764 C   0  0  0  0  0  0  0  0  0  0  0  0
   14.7622  -18.8047   20.8445 C   0  0  0  0  0  0  0  0  0  0  0  0
   14.5738  -19.3411   19.7236 O   0  0  0  0  0  0  0  0  0  0  0  0
   11.9323  -16.2081   22.9597 C   0  0  0  0  0  0  0  0  0  0  0  0
   12.7962  -15.3281   22.7881 O   0  0  0  0  0  0  0  0  0  0  0  0
   16.0833  -18.5441   21.2083 O   0  0  0  0  0  0  0  0  0  0  0  0
   13.1454  -18.8989   30.2176 N   0  0  0  0  0  0  0  0  0  0  0  0
   12.4409  -20.0508   29.7781 C   0  0  0  0  0  0  0  0  0  0  0  0
   12.0093  -20.8826   30.6570 N   0  0  0  0  0  0  0  0  0  0  0  0
   12.2092  -20.2965   28.3997 N   0  0  0  0  0  0  0  0  0  0  0  0
   12.8675  -19.4796   27.4188 C   0  0  0  0  0  0  0  0  0  0  0  0
   11.8411  -18.8577   26.4530 C   0  0  0  0  0  0  0  0  0  0  0  0
   12.5962  -18.1195   25.4072 C   0  0  0  0  0  0  0  0  0  0  0  0
   12.2324  -16.6756   25.3569 C   0  0  2  0  0  0  0  0  0  0  0  0
   11.3525  -16.3878   24.2200 N   0  0  0  0  0  0  0  0  0  0  0  0
   13.3545  -15.7400   25.2484 C   0  0  0  0  0  0  0  0  0  0  0  0
   13.4419  -14.7519   25.9923 O   0  0  0  0  0  0  0  0  0  0  0  0
   14.3985  -15.8857   24.3119 O   0  0  0  0  0  0  0  0  0  0  0  0
  2  1  1  0
  3  2  1  0
  3  4  1  6
  5  3  1  0
  5  6  1  1
  7  8  2  0
  7  5  1  0
  9  7  1  0
 10  9  1  0
 11 12  1  0
 10 11  1  6
 12 13  1  0
 13 14  2  0
 15 16  2  0
 15 10  1  0
 17 13  1  0
 18 19  1  0
 19 20  2  0
 21 19  1  0
 21 22  1  0
 22 23  1  0
 23 24  1  0
 25 24  1  6
 25 27  1  0
 25 26  1  0
 26 15  1  0
 27 29  1  0
 28 27  2  0
M  END
$$$$
