IER.pdb
     RDKit          3D

 29 28  0  0  1  0  0  0  0  0999 V2000
    6.3615  -12.7373   19.1911 C   0  0  0  0  0  0  0  0  0  0  0  0
    7.4338  -13.6513   18.7078 C   0  0  0  0  0  0  0  0  0  0  0  0
    8.1997  -14.3751   19.7610 C   0  0  2  0  0  0  0  0  0  0  0  0
    8.8292  -13.4476   20.7761 C   0  0  0  0  0  0  0  0  0  0  0  0
    9.2209  -15.3545   19.2370 C   0  0  2  0  0  0  0  0  0  0  0  0
    8.6596  -16.2174   18.2727 N   0  0  0  0  0  0  0  0  0  0  0  0
    9.8261  -16.0339   20.4008 C   0  0  0  0  0  0  0  0  0  0  0  0
    9.1803  -16.9703   20.9344 O   0  0  0  0  0  0  0  0  0  0  0  0
   11.0722  -15.6764   20.9202 N   0  0  0  0  0  0  0  0  0  0  0  0
   11.7246  -16.3384   22.0340 C   0  0  1  0  0  0  0  0  0  0  0  0
   13.1305  -15.7570   22.0680 C   0  0  0  0  0  0  0  0  0  0  0  0
   13.9727  -16.1322   20.9011 C   0  0  0  0  0  0  0  0  0  0  0  0
   15.1311  -15.1750   20.8810 C   0  0  0  0  0  0  0  0  0  0  0  0
   15.0666  -14.0371   20.3511 O   0  0  0  0  0  0  0  0  0  0  0  0
   10.9586  -16.0083   23.2452 C   0  0  0  0  0  0  0  0  0  0  0  0
   10.7985  -14.8127   23.5536 O   0  0  0  0  0  0  0  0  0  0  0  0
   16.3452  -15.5332   21.4668 O   0  0  0  0  0  0  0  0  0  0  0  0
    5.8630  -20.7059   22.4444 N   0  0  0  0  0  0  0  0  0  0  0  0
    5.8464  -19.3024   22.6589 C   0  0  0  0  0  0  0  0  0  0  0  0
    5.4250  -18.5390   21.7152 N   0  0  0  0  0  0  0  0  0  0  0  0
    6.2836  -18.7349   23.8840 N   0  0  0  0  0  0  0  0  0  0  0  0
    6.1727  -17.3166   24.0819 C   0  0  0  0  0  0  0  0  0  0  0  0
    7.5633  -16.6543   24.0546 C   0  0  0  0  0  0  0  0  0  0  0  0
    8.3017  -17.1071   25.2622 C   0  0  0  0  0  0  0  0  0  0  0  0
    9.7147  -16.6345   25.2740 C   0  0  2  0  0  0  0  0  0  0  0  0
   10.4148  -17.0194   24.0445 N   0  0  0  0  0  0  0  0  0  0  0  0
   10.5402  -17.1239   26.3810 C   0  0  0  0  0  0  0  0  0  0  0  0
   11.5375  -17.8314   26.1754 O   0  0  0  0  0  0  0  0  0  0  0  0
   10.2721  -16.8360   27.7350 O   0  0  0  0  0  0  0  0  0  0  0  0
  2  1  1  0
  3  2  1  0
  3  4  1  6
  5  3  1  0
  5  6  1  6
  7  8  2  0
  7  5  1  0
  9  7  1  0
 10  9  1  0
 11 12  1  0
 10 11  1  1
 12 13  1  0
 13 14  2  0
 15 16  2  0
 15 10  1  0
 17 13  1  0
 18 19  1  0
 19 20  2  0
 21 19  1  0
 21 22  1  0
 22 23  1  0
 23 24  1  0
 25 24  1  6
 25 27  1  0
 25 26  1  0
 26 15  1  0
 27 29  1  0
 28 27  2  0
M  END
$$$$
