IER.pdb
     RDKit          3D

 29 28  0  0  1  0  0  0  0  0999 V2000
    7.2830  -11.4793   19.5285 C   0  0  0  0  0  0  0  0  0  0  0  0
    7.0740  -12.9087   19.1653 C   0  0  0  0  0  0  0  0  0  0  0  0
    8.0264  -13.8826   19.7688 C   0  0  2  0  0  0  0  0  0  0  0  0
    9.4741  -13.5324   19.5074 C   0  0  0  0  0  0  0  0  0  0  0  0
    7.7608  -15.3254   19.4159 C   0  0  2  0  0  0  0  0  0  0  0  0
    6.4254  -15.6859   19.6920 N   0  0  0  0  0  0  0  0  0  0  0  0
    8.7800  -16.1472   20.1001 C   0  0  0  0  0  0  0  0  0  0  0  0
    8.5189  -16.5617   21.2572 O   0  0  0  0  0  0  0  0  0  0  0  0
   10.0047  -16.4740   19.5142 N   0  0  0  0  0  0  0  0  0  0  0  0
   10.9870  -17.3691   20.0958 C   0  0  1  0  0  0  0  0  0  0  0  0
   11.9301  -17.7141   18.9524 C   0  0  0  0  0  0  0  0  0  0  0  0
   13.0722  -18.5816   19.3461 C   0  0  0  0  0  0  0  0  0  0  0  0
   13.8683  -18.8380   18.0976 C   0  0  0  0  0  0  0  0  0  0  0  0
   14.9479  -18.2466   17.8435 O   0  0  0  0  0  0  0  0  0  0  0  0
   11.6660  -16.6302   21.1708 C   0  0  0  0  0  0  0  0  0  0  0  0
   11.8621  -15.4082   21.0357 O   0  0  0  0  0  0  0  0  0  0  0  0
   13.4182  -19.7662   17.1587 O   0  0  0  0  0  0  0  0  0  0  0  0
    9.7968  -16.6194   29.5623 N   0  0  0  0  0  0  0  0  0  0  0  0
   10.5366  -15.4433   29.2693 C   0  0  0  0  0  0  0  0  0  0  0  0
   10.4486  -14.4433   30.0711 N   0  0  0  0  0  0  0  0  0  0  0  0
   11.3617  -15.3546   28.1180 N   0  0  0  0  0  0  0  0  0  0  0  0
   10.9820  -16.0572   26.9243 C   0  0  0  0  0  0  0  0  0  0  0  0
   12.0461  -15.8751   25.8254 C   0  0  0  0  0  0  0  0  0  0  0  0
   11.5726  -16.5969   24.6156 C   0  0  0  0  0  0  0  0  0  0  0  0
   12.5206  -16.4726   23.4730 C   0  0  2  0  0  0  0  0  0  0  0  0
   12.0886  -17.2858   22.3321 N   0  0  0  0  0  0  0  0  0  0  0  0
   13.9051  -16.8643   23.7492 C   0  0  0  0  0  0  0  0  0  0  0  0
   14.3488  -17.9614   23.3794 O   0  0  0  0  0  0  0  0  0  0  0  0
   14.8202  -16.0443   24.4410 O   0  0  0  0  0  0  0  0  0  0  0  0
  2  1  1  0
  3  2  1  0
  3  4  1  6
  5  3  1  0
  5  6  1  1
  7  8  2  0
  7  5  1  0
  9  7  1  0
 10  9  1  0
 11 12  1  0
 10 11  1  6
 12 13  1  0
 13 14  2  0
 15 16  2  0
 15 10  1  0
 17 13  1  0
 18 19  1  0
 19 20  2  0
 21 19  1  0
 21 22  1  0
 22 23  1  0
 23 24  1  0
 25 24  1  1
 25 27  1  0
 25 26  1  0
 26 15  1  0
 27 29  1  0
 28 27  2  0
M  END
$$$$
