IER.pdb
     RDKit          3D

 29 28  0  0  1  0  0  0  0  0999 V2000
    7.3053  -11.6501   19.7882 C   0  0  0  0  0  0  0  0  0  0  0  0
    7.6583  -12.9196   19.0935 C   0  0  0  0  0  0  0  0  0  0  0  0
    8.1308  -14.0319   19.9648 C   0  0  2  0  0  0  0  0  0  0  0  0
    9.2576  -13.6225   20.8864 C   0  0  0  0  0  0  0  0  0  0  0  0
    8.4854  -15.3012   19.2298 C   0  0  2  0  0  0  0  0  0  0  0  0
    7.4120  -15.7525   18.4338 N   0  0  0  0  0  0  0  0  0  0  0  0
    8.9697  -16.2753   20.2292 C   0  0  0  0  0  0  0  0  0  0  0  0
    8.1130  -16.8865   20.9155 O   0  0  0  0  0  0  0  0  0  0  0  0
   10.3263  -16.5358   20.4343 N   0  0  0  0  0  0  0  0  0  0  0  0
   10.8495  -17.4848   21.3986 C   0  0  1  0  0  0  0  0  0  0  0  0
   12.3106  -17.6695   21.0155 C   0  0  0  0  0  0  0  0  0  0  0  0
   13.0865  -18.5129   21.9634 C   0  0  0  0  0  0  0  0  0  0  0  0
   14.4690  -18.6453   21.3892 C   0  0  0  0  0  0  0  0  0  0  0  0
   15.3452  -17.7519   21.5077 O   0  0  0  0  0  0  0  0  0  0  0  0
   10.6978  -16.8797   22.7304 C   0  0  0  0  0  0  0  0  0  0  0  0
   11.1311  -15.7290   22.9259 O   0  0  0  0  0  0  0  0  0  0  0  0
   14.8286  -19.7965   20.6886 O   0  0  0  0  0  0  0  0  0  0  0  0
    7.1015  -12.8043   27.2308 N   0  0  0  0  0  0  0  0  0  0  0  0
    6.4756  -12.5709   25.9777 C   0  0  0  0  0  0  0  0  0  0  0  0
    6.0760  -11.3819   25.6997 N   0  0  0  0  0  0  0  0  0  0  0  0
    6.2853  -13.6175   25.0382 N   0  0  0  0  0  0  0  0  0  0  0  0
    6.6901  -14.9524   25.3802 C   0  0  0  0  0  0  0  0  0  0  0  0
    8.1671  -15.1838   25.0088 C   0  0  0  0  0  0  0  0  0  0  0  0
    8.5016  -16.5918   25.3472 C   0  0  0  0  0  0  0  0  0  0  0  0
    9.9278  -16.9195   25.0673 C   0  0  2  0  0  0  0  0  0  0  0  0
   10.0763  -17.5826   23.7680 N   0  0  0  0  0  0  0  0  0  0  0  0
   10.5843  -17.7911   26.0449 C   0  0  0  0  0  0  0  0  0  0  0  0
   10.7563  -18.9977   25.8171 O   0  0  0  0  0  0  0  0  0  0  0  0
   11.0607  -17.3375   27.2921 O   0  0  0  0  0  0  0  0  0  0  0  0
  2  1  1  0
  3  2  1  0
  3  4  1  6
  5  3  1  0
  5  6  1  1
  7  8  2  0
  7  5  1  0
  9  7  1  0
 10  9  1  0
 11 12  1  0
 10 11  1  6
 12 13  1  0
 13 14  2  0
 15 16  2  0
 15 10  1  0
 17 13  1  0
 18 19  1  0
 19 20  2  0
 21 19  1  0
 21 22  1  0
 22 23  1  0
 23 24  1  0
 25 24  1  1
 25 27  1  0
 25 26  1  0
 26 15  1  0
 27 29  1  0
 28 27  2  0
M  END
$$$$
