IER.pdb
     RDKit          3D

 29 28  0  0  1  0  0  0  0  0999 V2000
    7.0173  -11.7098   19.2349 C   0  0  0  0  0  0  0  0  0  0  0  0
    7.4038  -13.1187   18.9443 C   0  0  0  0  0  0  0  0  0  0  0  0
    7.7532  -13.9575   20.1250 C   0  0  2  0  0  0  0  0  0  0  0  0
    8.7799  -13.3098   21.0267 C   0  0  0  0  0  0  0  0  0  0  0  0
    8.1594  -15.3727   19.7947 C   0  0  2  0  0  0  0  0  0  0  0  0
    7.1869  -16.0158   19.0008 N   0  0  0  0  0  0  0  0  0  0  0  0
    8.4730  -16.0555   21.0666 C   0  0  0  0  0  0  0  0  0  0  0  0
    7.5234  -16.2934   21.8541 O   0  0  0  0  0  0  0  0  0  0  0  0
    9.7688  -16.4393   21.4182 N   0  0  0  0  0  0  0  0  0  0  0  0
   10.1392  -17.0332   22.6888 C   0  0  1  0  0  0  0  0  0  0  0  0
   11.4198  -17.8043   22.4039 C   0  0  0  0  0  0  0  0  0  0  0  0
   12.0107  -18.4653   23.5980 C   0  0  0  0  0  0  0  0  0  0  0  0
   13.2433  -19.1840   23.1261 C   0  0  0  0  0  0  0  0  0  0  0  0
   13.4978  -20.3759   23.4337 O   0  0  0  0  0  0  0  0  0  0  0  0
   10.3555  -15.9305   23.6376 C   0  0  0  0  0  0  0  0  0  0  0  0
   11.4990  -15.4543   23.7625 O   0  0  0  0  0  0  0  0  0  0  0  0
   14.1659  -18.5294   22.3101 O   0  0  0  0  0  0  0  0  0  0  0  0
    7.3127  -22.2968   25.9939 N   0  0  0  0  0  0  0  0  0  0  0  0
    6.6789  -21.5522   27.0235 C   0  0  0  0  0  0  0  0  0  0  0  0
    6.2154  -22.1809   28.0436 N   0  0  0  0  0  0  0  0  0  0  0  0
    6.5492  -20.1411   26.9450 N   0  0  0  0  0  0  0  0  0  0  0  0
    7.0446  -19.4522   25.7861 C   0  0  0  0  0  0  0  0  0  0  0  0
    8.1017  -18.4059   26.1870 C   0  0  0  0  0  0  0  0  0  0  0  0
    7.9287  -17.2273   25.2984 C   0  0  0  0  0  0  0  0  0  0  0  0
    8.8954  -16.1365   25.6076 C   0  0  2  0  0  0  0  0  0  0  0  0
    9.2947  -15.4192   24.3928 N   0  0  0  0  0  0  0  0  0  0  0  0
   10.1391  -16.5542   26.2595 C   0  0  0  0  0  0  0  0  0  0  0  0
   11.1060  -16.9614   25.5986 O   0  0  0  0  0  0  0  0  0  0  0  0
   10.3301  -16.5270   27.6562 O   0  0  0  0  0  0  0  0  0  0  0  0
  2  1  1  0
  3  2  1  0
  3  4  1  6
  5  3  1  0
  5  6  1  1
  7  8  2  0
  7  5  1  0
  9  7  1  0
 10  9  1  0
 11 12  1  0
 10 11  1  6
 12 13  1  0
 13 14  2  0
 15 16  2  0
 15 10  1  0
 17 13  1  0
 18 19  1  0
 19 20  2  0
 21 19  1  0
 21 22  1  0
 22 23  1  0
 23 24  1  0
 25 24  1  6
 25 27  1  0
 25 26  1  0
 26 15  1  0
 27 29  1  0
 28 27  2  0
M  END
$$$$
