IER.pdb
     RDKit          3D

 29 28  0  0  1  0  0  0  0  0999 V2000
    7.2855  -11.9760   19.4600 C   0  0  0  0  0  0  0  0  0  0  0  0
    7.7972  -13.2447   18.8706 C   0  0  0  0  0  0  0  0  0  0  0  0
    8.2681  -14.2729   19.8405 C   0  0  2  0  0  0  0  0  0  0  0  0
    9.3271  -13.7519   20.7860 C   0  0  0  0  0  0  0  0  0  0  0  0
    8.7124  -15.5724   19.2154 C   0  0  2  0  0  0  0  0  0  0  0  0
    7.6981  -16.1294   18.4089 N   0  0  0  0  0  0  0  0  0  0  0  0
    9.1928  -16.4495   20.3027 C   0  0  0  0  0  0  0  0  0  0  0  0
    8.3329  -17.0419   21.0015 O   0  0  0  0  0  0  0  0  0  0  0  0
   10.5490  -16.6395   20.5764 N   0  0  0  0  0  0  0  0  0  0  0  0
   11.0684  -17.4800   21.6386 C   0  0  1  0  0  0  0  0  0  0  0  0
   12.5543  -17.6171   21.3404 C   0  0  0  0  0  0  0  0  0  0  0  0
   13.3205  -18.3448   22.3870 C   0  0  0  0  0  0  0  0  0  0  0  0
   14.7544  -18.3607   21.9376 C   0  0  0  0  0  0  0  0  0  0  0  0
   15.1418  -18.9797   20.9145 O   0  0  0  0  0  0  0  0  0  0  0  0
   10.8198  -16.7799   22.9078 C   0  0  0  0  0  0  0  0  0  0  0  0
   10.9276  -15.5401   22.9470 O   0  0  0  0  0  0  0  0  0  0  0  0
   15.7234  -17.6690   22.6643 O   0  0  0  0  0  0  0  0  0  0  0  0
    7.8772  -12.1683   25.7411 N   0  0  0  0  0  0  0  0  0  0  0  0
    6.7443  -12.5786   26.4925 C   0  0  0  0  0  0  0  0  0  0  0  0
    6.3289  -11.8229   27.4447 N   0  0  0  0  0  0  0  0  0  0  0  0
    6.0715  -13.7965   26.2130 N   0  0  0  0  0  0  0  0  0  0  0  0
    6.6480  -14.7202   25.2762 C   0  0  0  0  0  0  0  0  0  0  0  0
    7.9968  -15.2511   25.7975 C   0  0  0  0  0  0  0  0  0  0  0  0
    8.5251  -16.2064   24.7889 C   0  0  0  0  0  0  0  0  0  0  0  0
    9.8553  -16.7579   25.1715 C   0  0  2  0  0  0  0  0  0  0  0  0
   10.4671  -17.4916   24.0593 N   0  0  0  0  0  0  0  0  0  0  0  0
    9.8592  -17.6754   26.3137 C   0  0  0  0  0  0  0  0  0  0  0  0
    9.1369  -17.4755   27.3014 O   0  0  0  0  0  0  0  0  0  0  0  0
   10.6655  -18.8304   26.3784 O   0  0  0  0  0  0  0  0  0  0  0  0
  2  1  1  0
  3  2  1  0
  3  4  1  6
  5  3  1  0
  5  6  1  1
  7  8  2  0
  7  5  1  0
  9  7  1  0
 10  9  1  0
 11 12  1  0
 10 11  1  6
 12 13  1  0
 13 14  2  0
 15 16  2  0
 15 10  1  0
 17 13  1  0
 18 19  1  0
 19 20  2  0
 21 19  1  0
 21 22  1  0
 22 23  1  0
 23 24  1  0
 25 24  1  6
 25 27  1  0
 25 26  1  0
 26 15  1  0
 27 29  1  0
 28 27  2  0
M  END
$$$$
