IER.pdb
     RDKit          3D

 29 28  0  0  1  0  0  0  0  0999 V2000
    6.9591  -14.9874   17.3242 C   0  0  0  0  0  0  0  0  0  0  0  0
    8.1244  -14.4439   18.0763 C   0  0  0  0  0  0  0  0  0  0  0  0
    7.8110  -13.7599   19.3623 C   0  0  2  0  0  0  0  0  0  0  0  0
    6.9057  -12.5611   19.1883 C   0  0  0  0  0  0  0  0  0  0  0  0
    9.0171  -13.3940   20.1918 C   0  0  2  0  0  0  0  0  0  0  0  0
    9.9075  -12.5710   19.4711 N   0  0  0  0  0  0  0  0  0  0  0  0
    9.6062  -14.6494   20.7011 C   0  0  0  0  0  0  0  0  0  0  0  0
    8.8230  -15.5313   21.1341 O   0  0  0  0  0  0  0  0  0  0  0  0
   10.9824  -14.8857   20.7176 N   0  0  0  0  0  0  0  0  0  0  0  0
   11.6153  -16.0444   21.3185 C   0  0  1  0  0  0  0  0  0  0  0  0
   13.0718  -15.9661   20.8847 C   0  0  0  0  0  0  0  0  0  0  0  0
   13.2640  -15.5492   19.4702 C   0  0  0  0  0  0  0  0  0  0  0  0
   14.7461  -15.5411   19.2215 C   0  0  0  0  0  0  0  0  0  0  0  0
   15.3056  -14.7113   18.4612 O   0  0  0  0  0  0  0  0  0  0  0  0
   11.4630  -15.9162   22.7757 C   0  0  0  0  0  0  0  0  0  0  0  0
   11.8404  -14.8695   23.3344 O   0  0  0  0  0  0  0  0  0  0  0  0
   15.5656  -16.4816   19.8456 O   0  0  0  0  0  0  0  0  0  0  0  0
    6.5018  -19.7442   23.4426 N   0  0  0  0  0  0  0  0  0  0  0  0
    5.8838  -18.5661   22.9462 C   0  0  0  0  0  0  0  0  0  0  0  0
    5.1749  -18.6447   21.8776 N   0  0  0  0  0  0  0  0  0  0  0  0
    6.0352  -17.3171   23.6027 N   0  0  0  0  0  0  0  0  0  0  0  0
    6.9614  -17.2037   24.6947 C   0  0  0  0  0  0  0  0  0  0  0  0
    8.3942  -16.9892   24.1712 C   0  0  0  0  0  0  0  0  0  0  0  0
    9.2830  -16.8149   25.3496 C   0  0  0  0  0  0  0  0  0  0  0  0
   10.7222  -16.7475   24.9700 C   0  0  2  0  0  0  0  0  0  0  0  0
   10.9029  -16.9529   23.5296 N   0  0  0  0  0  0  0  0  0  0  0  0
   11.6006  -17.7158   25.6312 C   0  0  0  0  0  0  0  0  0  0  0  0
   12.2236  -18.5677   24.9804 O   0  0  0  0  0  0  0  0  0  0  0  0
   11.8019  -17.7546   27.0262 O   0  0  0  0  0  0  0  0  0  0  0  0
  2  1  1  0
  3  2  1  0
  3  4  1  6
  5  3  1  0
  5  6  1  6
  7  8  2  0
  7  5  1  0
  9  7  1  0
 10  9  1  0
 11 12  1  0
 10 11  1  1
 12 13  1  0
 13 14  2  0
 15 16  2  0
 15 10  1  0
 17 13  1  0
 18 19  1  0
 19 20  2  0
 21 19  1  0
 21 22  1  0
 22 23  1  0
 23 24  1  0
 25 24  1  1
 25 27  1  0
 25 26  1  0
 26 15  1  0
 27 29  1  0
 28 27  2  0
M  END
$$$$
