IER.pdb
     RDKit          3D

 29 28  0  0  1  0  0  0  0  0999 V2000
    7.3416  -11.6925   19.4506 C   0  0  0  0  0  0  0  0  0  0  0  0
    7.4927  -12.9954   18.7446 C   0  0  0  0  0  0  0  0  0  0  0  0
    8.2038  -14.0675   19.4960 C   0  0  2  0  0  0  0  0  0  0  0  0
    9.5781  -13.6470   19.9665 C   0  0  0  0  0  0  0  0  0  0  0  0
    8.2738  -15.3960   18.7839 C   0  0  2  0  0  0  0  0  0  0  0  0
    6.9932  -15.8382   18.3914 N   0  0  0  0  0  0  0  0  0  0  0  0
    9.0134  -16.3314   19.6559 C   0  0  0  0  0  0  0  0  0  0  0  0
    8.3800  -16.8923   20.5848 O   0  0  0  0  0  0  0  0  0  0  0  0
   10.3714  -16.6091   19.4858 N   0  0  0  0  0  0  0  0  0  0  0  0
   11.1296  -17.5507   20.2875 C   0  0  1  0  0  0  0  0  0  0  0  0
   12.3912  -17.8261   19.4823 C   0  0  0  0  0  0  0  0  0  0  0  0
   13.4283  -18.5953   20.2202 C   0  0  0  0  0  0  0  0  0  0  0  0
   14.5883  -18.7651   19.2799 C   0  0  0  0  0  0  0  0  0  0  0  0
   15.2896  -19.8075   19.2432 O   0  0  0  0  0  0  0  0  0  0  0  0
   11.4227  -16.8929   21.5698 C   0  0  0  0  0  0  0  0  0  0  0  0
   11.7763  -15.6991   21.5712 O   0  0  0  0  0  0  0  0  0  0  0  0
   14.9286  -17.7411   18.3961 O   0  0  0  0  0  0  0  0  0  0  0  0
   10.7810  -15.8405   29.3342 N   0  0  0  0  0  0  0  0  0  0  0  0
    9.9750  -14.8355   28.7370 C   0  0  0  0  0  0  0  0  0  0  0  0
   10.1768  -13.6089   29.0619 N   0  0  0  0  0  0  0  0  0  0  0  0
    8.9608  -15.1596   27.7987 N   0  0  0  0  0  0  0  0  0  0  0  0
    9.1304  -16.3029   26.9460 C   0  0  0  0  0  0  0  0  0  0  0  0
   10.4626  -16.2142   26.1776 C   0  0  0  0  0  0  0  0  0  0  0  0
   10.2594  -16.8482   24.8488 C   0  0  0  0  0  0  0  0  0  0  0  0
   11.5034  -16.8592   24.0290 C   0  0  2  0  0  0  0  0  0  0  0  0
   11.3079  -17.5936   22.7751 N   0  0  0  0  0  0  0  0  0  0  0  0
   12.6810  -17.4527   24.6672 C   0  0  0  0  0  0  0  0  0  0  0  0
   12.9955  -18.6346   24.4636 O   0  0  0  0  0  0  0  0  0  0  0  0
   13.5292  -16.7437   25.5426 O   0  0  0  0  0  0  0  0  0  0  0  0
  2  1  1  0
  3  2  1  0
  3  4  1  6
  5  3  1  0
  5  6  1  1
  7  8  2  0
  7  5  1  0
  9  7  1  0
 10  9  1  0
 11 12  1  0
 10 11  1  6
 12 13  1  0
 13 14  2  0
 15 16  2  0
 15 10  1  0
 17 13  1  0
 18 19  1  0
 19 20  2  0
 21 19  1  0
 21 22  1  0
 22 23  1  0
 23 24  1  0
 25 24  1  1
 25 27  1  0
 25 26  1  0
 26 15  1  0
 27 29  1  0
 28 27  2  0
M  END
$$$$
