IER.pdb
     RDKit          3D

 29 28  0  0  1  0  0  0  0  0999 V2000
    6.8311  -11.2453   26.5511 C   0  0  0  0  0  0  0  0  0  0  0  0
    6.3099  -12.4519   25.8502 C   0  0  0  0  0  0  0  0  0  0  0  0
    7.2329  -13.6196   25.7847 C   0  0  2  0  0  0  0  0  0  0  0  0
    8.5738  -13.2790   25.1740 C   0  0  0  0  0  0  0  0  0  0  0  0
    6.6508  -14.8471   25.1281 C   0  0  2  0  0  0  0  0  0  0  0  0
    5.4131  -15.2016   25.7043 N   0  0  0  0  0  0  0  0  0  0  0  0
    7.6804  -15.9057   25.1685 C   0  0  0  0  0  0  0  0  0  0  0  0
    7.6927  -16.6741   26.1625 O   0  0  0  0  0  0  0  0  0  0  0  0
    8.6260  -16.0787   24.1556 N   0  0  0  0  0  0  0  0  0  0  0  0
    9.5438  -17.1982   24.0636 C   0  0  1  0  0  0  0  0  0  0  0  0
   10.2609  -17.0106   22.7346 C   0  0  0  0  0  0  0  0  0  0  0  0
   11.3794  -17.9639   22.5065 C   0  0  0  0  0  0  0  0  0  0  0  0
   11.9524  -17.6398   21.1556 C   0  0  0  0  0  0  0  0  0  0  0  0
   11.5508  -18.1836   20.0960 O   0  0  0  0  0  0  0  0  0  0  0  0
   10.4628  -17.1022   25.2078 C   0  0  0  0  0  0  0  0  0  0  0  0
   10.6490  -15.9940   25.7438 O   0  0  0  0  0  0  0  0  0  0  0  0
   12.9755  -16.6992   21.0366 O   0  0  0  0  0  0  0  0  0  0  0  0
   13.3471  -21.7609   29.8100 N   0  0  0  0  0  0  0  0  0  0  0  0
   12.8410  -21.2287   31.0253 C   0  0  0  0  0  0  0  0  0  0  0  0
   13.5719  -21.2956   32.0797 N   0  0  0  0  0  0  0  0  0  0  0  0
   11.5553  -20.6318   31.0941 N   0  0  0  0  0  0  0  0  0  0  0  0
   10.8941  -20.2426   29.8799 C   0  0  0  0  0  0  0  0  0  0  0  0
   11.4420  -18.8958   29.3710 C   0  0  0  0  0  0  0  0  0  0  0  0
   10.7697  -18.5947   28.0802 C   0  0  0  0  0  0  0  0  0  0  0  0
   11.7320  -18.1729   27.0238 C   0  0  2  0  0  0  0  0  0  0  0  0
   11.1220  -18.2370   25.6921 N   0  0  0  0  0  0  0  0  0  0  0  0
   12.9690  -18.9535   26.9414 C   0  0  0  0  0  0  0  0  0  0  0  0
   14.0272  -18.5352   27.4339 O   0  0  0  0  0  0  0  0  0  0  0  0
   13.0518  -20.2119   26.3105 O   0  0  0  0  0  0  0  0  0  0  0  0
  2  1  1  0
  3  2  1  0
  3  4  1  6
  5  3  1  0
  5  6  1  1
  7  8  2  0
  7  5  1  0
  9  7  1  0
 10  9  1  0
 11 12  1  0
 10 11  1  6
 12 13  1  0
 13 14  2  0
 15 16  2  0
 15 10  1  0
 17 13  1  0
 18 19  1  0
 19 20  2  0
 21 19  1  0
 21 22  1  0
 22 23  1  0
 23 24  1  0
 25 24  1  1
 25 27  1  0
 25 26  1  0
 26 15  1  0
 27 29  1  0
 28 27  2  0
M  END
$$$$
