IER.pdb
     RDKit          3D

 29 28  0  0  1  0  0  0  0  0999 V2000
    7.0535  -13.4185   18.4130 C   0  0  0  0  0  0  0  0  0  0  0  0
    7.4473  -12.9629   19.7754 C   0  0  0  0  0  0  0  0  0  0  0  0
    7.8873  -14.0284   20.7193 C   0  0  2  0  0  0  0  0  0  0  0  0
    8.4457  -13.4781   22.0124 C   0  0  0  0  0  0  0  0  0  0  0  0
    8.8324  -15.0444   20.1267 C   0  0  2  0  0  0  0  0  0  0  0  0
    8.2648  -15.6830   19.0044 N   0  0  0  0  0  0  0  0  0  0  0  0
    9.2490  -15.9539   21.2138 C   0  0  0  0  0  0  0  0  0  0  0  0
    8.4316  -16.8307   21.5903 O   0  0  0  0  0  0  0  0  0  0  0  0
   10.5006  -15.8734   21.8279 N   0  0  0  0  0  0  0  0  0  0  0  0
   11.0018  -16.8159   22.8102 C   0  0  1  0  0  0  0  0  0  0  0  0
   12.5016  -16.5649   22.8663 C   0  0  0  0  0  0  0  0  0  0  0  0
   13.2218  -16.8972   21.6082 C   0  0  0  0  0  0  0  0  0  0  0  0
   14.6614  -16.5243   21.8251 C   0  0  0  0  0  0  0  0  0  0  0  0
   15.1029  -15.3644   21.6261 O   0  0  0  0  0  0  0  0  0  0  0  0
   10.3398  -16.5069   24.0866 C   0  0  0  0  0  0  0  0  0  0  0  0
   10.0747  -15.3215   24.3601 O   0  0  0  0  0  0  0  0  0  0  0  0
   15.5739  -17.4826   22.2659 O   0  0  0  0  0  0  0  0  0  0  0  0
    6.3408  -21.7925   24.2258 N   0  0  0  0  0  0  0  0  0  0  0  0
    6.0277  -20.5548   23.6042 C   0  0  0  0  0  0  0  0  0  0  0  0
    5.8199  -20.5363   22.3364 N   0  0  0  0  0  0  0  0  0  0  0  0
    5.9424  -19.3512   24.3512 N   0  0  0  0  0  0  0  0  0  0  0  0
    6.1994  -19.3800   25.7640 C   0  0  0  0  0  0  0  0  0  0  0  0
    7.6808  -19.0712   26.0527 C   0  0  0  0  0  0  0  0  0  0  0  0
    7.8342  -17.5934   26.0888 C   0  0  0  0  0  0  0  0  0  0  0  0
    9.2597  -17.1731   26.1948 C   0  0  2  0  0  0  0  0  0  0  0  0
   10.0101  -17.5265   24.9858 N   0  0  0  0  0  0  0  0  0  0  0  0
   10.0090  -17.7418   27.3180 C   0  0  0  0  0  0  0  0  0  0  0  0
   10.6500  -18.7960   27.1951 O   0  0  0  0  0  0  0  0  0  0  0  0
   10.0590  -17.1496   28.5966 O   0  0  0  0  0  0  0  0  0  0  0  0
  2  1  1  0
  3  2  1  0
  3  4  1  1
  5  3  1  0
  5  6  1  6
  7  8  2  0
  7  5  1  0
  9  7  1  0
 10  9  1  0
 11 12  1  0
 10 11  1  1
 12 13  1  0
 13 14  2  0
 15 16  2  0
 15 10  1  0
 17 13  1  0
 18 19  1  0
 19 20  2  0
 21 19  1  0
 21 22  1  0
 22 23  1  0
 23 24  1  0
 25 24  1  6
 25 27  1  0
 25 26  1  0
 26 15  1  0
 27 29  1  0
 28 27  2  0
M  END
$$$$
