IER.pdb
     RDKit          3D

 29 28  0  0  1  0  0  0  0  0999 V2000
    7.3483  -11.5806   19.8324 C   0  0  0  0  0  0  0  0  0  0  0  0
    7.9461  -12.8042   19.2287 C   0  0  0  0  0  0  0  0  0  0  0  0
    7.8871  -14.0391   20.0601 C   0  0  2  0  0  0  0  0  0  0  0  0
    8.3939  -13.8273   21.4690 C   0  0  0  0  0  0  0  0  0  0  0  0
    8.5429  -15.2483   19.4399 C   0  0  2  0  0  0  0  0  0  0  0  0
    7.8945  -15.6310   18.2472 N   0  0  0  0  0  0  0  0  0  0  0  0
    8.6097  -16.3000   20.4752 C   0  0  0  0  0  0  0  0  0  0  0  0
    7.6411  -17.0950   20.5670 O   0  0  0  0  0  0  0  0  0  0  0  0
    9.6958  -16.4385   21.3421 N   0  0  0  0  0  0  0  0  0  0  0  0
    9.9556  -17.6066   22.1621 C   0  0  1  0  0  0  0  0  0  0  0  0
   11.4703  -17.7528   22.1693 C   0  0  0  0  0  0  0  0  0  0  0  0
   11.9792  -18.7680   23.1297 C   0  0  0  0  0  0  0  0  0  0  0  0
   13.4768  -18.7660   23.0046 C   0  0  0  0  0  0  0  0  0  0  0  0
   14.1778  -17.7450   23.2191 O   0  0  0  0  0  0  0  0  0  0  0  0
    9.4193  -17.3252   23.5022 C   0  0  0  0  0  0  0  0  0  0  0  0
    9.6797  -16.2338   24.0420 O   0  0  0  0  0  0  0  0  0  0  0  0
   14.1499  -19.9309   22.6364 O   0  0  0  0  0  0  0  0  0  0  0  0
    4.1179  -23.0123   26.8609 N   0  0  0  0  0  0  0  0  0  0  0  0
    5.4520  -23.4302   26.6123 C   0  0  0  0  0  0  0  0  0  0  0  0
    5.6993  -24.6883   26.5307 N   0  0  0  0  0  0  0  0  0  0  0  0
    6.5052  -22.4920   26.4552 N   0  0  0  0  0  0  0  0  0  0  0  0
    6.1908  -21.0970   26.3208 C   0  0  0  0  0  0  0  0  0  0  0  0
    7.4738  -20.2680   26.1218 C   0  0  0  0  0  0  0  0  0  0  0  0
    7.0710  -18.8472   25.9554 C   0  0  0  0  0  0  0  0  0  0  0  0
    8.2094  -17.9790   25.5428 C   0  0  2  0  0  0  0  0  0  0  0  0
    8.6268  -18.2669   24.1671 N   0  0  0  0  0  0  0  0  0  0  0  0
    9.4185  -18.0821   26.3636 C   0  0  0  0  0  0  0  0  0  0  0  0
   10.4220  -18.6863   25.9570 O   0  0  0  0  0  0  0  0  0  0  0  0
    9.5336  -17.5161   27.6500 O   0  0  0  0  0  0  0  0  0  0  0  0
  2  1  1  0
  3  2  1  0
  3  4  1  1
  5  3  1  0
  5  6  1  6
  7  8  2  0
  7  5  1  0
  9  7  1  0
 10  9  1  0
 11 12  1  0
 10 11  1  1
 12 13  1  0
 13 14  2  0
 15 16  2  0
 15 10  1  0
 17 13  1  0
 18 19  1  0
 19 20  2  0
 21 19  1  0
 21 22  1  0
 22 23  1  0
 23 24  1  0
 25 24  1  1
 25 27  1  0
 25 26  1  0
 26 15  1  0
 27 29  1  0
 28 27  2  0
M  END
$$$$
