IPN.pdb
     RDKit          3D

 24 24  0  0  1  0  0  0  0  0999 V2000
   16.2347  -10.2693  -18.0207 C   0  0  0  0  0  0  0  0  0  0  0  0
   17.5662  -10.3073  -17.3327 C   0  0  0  0  0  0  0  0  0  0  0  0
   17.5182   -9.7517  -15.9319 C   0  0  2  0  0  0  0  0  0  0  0  0
   17.1961   -8.2733  -16.0167 C   0  0  0  0  0  0  0  0  0  0  0  0
   18.7869   -9.9954  -15.1425 C   0  0  2  0  0  0  0  0  0  0  0  0
   19.0698  -11.3900  -15.2116 N   0  0  0  0  0  0  0  0  0  0  0  0
   18.7913   -9.3960  -13.8118 C   0  0  0  0  0  0  0  0  0  0  0  0
   18.1554  -10.0474  -12.9136 O   0  0  0  0  0  0  0  0  0  0  0  0
   19.4247   -8.1770  -13.4265 N   0  0  0  0  0  0  0  0  0  0  0  0
   20.1914   -7.2143  -14.1552 C   0  0  0  0  0  0  0  0  0  0  0  0
   21.3453   -6.8960  -13.2190 C   0  0  0  0  0  0  0  0  0  0  0  0
   20.6545   -6.8968  -11.8693 C   0  0  0  0  0  0  0  0  0  0  0  0
   19.3761   -7.6721  -12.0574 C   0  0  1  0  0  0  0  0  0  0  0  0
   18.2422   -6.7483  -11.8232 C   0  0  0  0  0  0  0  0  0  0  0  0
   17.5558   -6.4473  -12.8247 O   0  0  0  0  0  0  0  0  0  0  0  0
   14.2600   -8.0556   -8.0123 N   0  0  0  0  0  0  0  0  0  0  0  0
   14.6011   -7.4142   -9.2400 C   0  0  0  0  0  0  0  0  0  0  0  0
   13.6919   -6.7740   -9.8258 O   0  0  0  0  0  0  0  0  0  0  0  0
   15.9897   -7.5360   -9.7509 C   0  0  0  0  0  0  0  0  0  0  0  0
   16.6397   -6.2045   -9.9112 C   0  0  2  0  0  0  0  0  0  0  0  0
   17.9121   -6.2113  -10.5700 N   0  0  0  0  0  0  0  0  0  0  0  0
   16.6322   -5.4369   -8.6454 C   0  0  0  0  0  0  0  0  0  0  0  0
   17.5190   -5.7353   -7.7805 O   0  0  0  0  0  0  0  0  0  0  0  0
   15.7420   -4.4430   -8.3492 O   0  0  0  0  0  0  0  0  0  0  0  0
  1  2  1  0
  2  3  1  0
  3  4  1  6
  3  5  1  0
  5  7  1  0
  5  6  1  1
  7  8  2  0
  7  9  1  0
  9 13  1  0
  9 10  1  0
 10 11  1  0
 12 11  1  0
 13 12  1  0
 13 14  1  6
 15 14  2  0
 16 17  1  0
 17 19  1  0
 17 18  2  0
 20 19  1  1
 20 22  1  0
 20 21  1  0
 21 14  1  0
 22 24  1  0
 23 22  2  0
M  END
$$$$
