IPN.pdb
     RDKit          3D

 24 24  0  0  1  0  0  0  0  0999 V2000
   17.1069  -13.9800  -14.1474 C   0  0  0  0  0  0  0  0  0  0  0  0
   16.5705  -13.2072  -15.3149 C   0  0  0  0  0  0  0  0  0  0  0  0
   17.1458  -11.8169  -15.4116 C   0  0  2  0  0  0  0  0  0  0  0  0
   16.6721  -11.0210  -14.2121 C   0  0  0  0  0  0  0  0  0  0  0  0
   16.8081  -11.1132  -16.7089 C   0  0  2  0  0  0  0  0  0  0  0  0
   17.1503  -11.9960  -17.7735 N   0  0  0  0  0  0  0  0  0  0  0  0
   17.3204   -9.7500  -16.8042 C   0  0  0  0  0  0  0  0  0  0  0  0
   18.5153   -9.6416  -17.2468 O   0  0  0  0  0  0  0  0  0  0  0  0
   16.6283   -8.5515  -16.4572 N   0  0  0  0  0  0  0  0  0  0  0  0
   15.3148   -8.3078  -15.9464 C   0  0  0  0  0  0  0  0  0  0  0  0
   14.8331   -7.1164  -16.7575 C   0  0  0  0  0  0  0  0  0  0  0  0
   16.0977   -6.2869  -16.8651 C   0  0  0  0  0  0  0  0  0  0  0  0
   17.2390   -7.2321  -16.5910 C   0  0  1  0  0  0  0  0  0  0  0  0
   17.9181   -6.7826  -15.3539 C   0  0  0  0  0  0  0  0  0  0  0  0
   17.8776   -7.5686  -14.3817 O   0  0  0  0  0  0  0  0  0  0  0  0
   22.0074   -6.2927  -12.2099 N   0  0  0  0  0  0  0  0  0  0  0  0
   21.9503   -5.7896  -13.5436 C   0  0  0  0  0  0  0  0  0  0  0  0
   22.8661   -5.0069  -13.9022 O   0  0  0  0  0  0  0  0  0  0  0  0
   20.8299   -6.2113  -14.4215 C   0  0  0  0  0  0  0  0  0  0  0  0
   19.7061   -5.2329  -14.3940 C   0  0  2  0  0  0  0  0  0  0  0  0
   18.5839   -5.5545  -15.2249 N   0  0  0  0  0  0  0  0  0  0  0  0
   20.1875   -3.8430  -14.5608 C   0  0  0  0  0  0  0  0  0  0  0  0
   20.7025   -3.2807  -13.5400 O   0  0  0  0  0  0  0  0  0  0  0  0
   20.1115   -3.1331  -15.7264 O   0  0  0  0  0  0  0  0  0  0  0  0
  1  2  1  0
  2  3  1  0
  3  4  1  1
  3  5  1  0
  5  7  1  0
  5  6  1  6
  7  8  2  0
  7  9  1  0
  9 13  1  0
  9 10  1  0
 10 11  1  0
 12 11  1  0
 13 12  1  0
 13 14  1  1
 15 14  2  0
 16 17  1  0
 17 19  1  0
 17 18  2  0
 20 19  1  6
 20 22  1  0
 20 21  1  0
 21 14  1  0
 22 24  1  0
 23 22  2  0
M  END
$$$$
