IPN.pdb
     RDKit          3D

 24 24  0  0  1  0  0  0  0  0999 V2000
   27.7377  -16.6158  -16.9849 C   0  0  0  0  0  0  0  0  0  0  0  0
   28.1431  -17.9146  -16.3549 C   0  0  0  0  0  0  0  0  0  0  0  0
   27.0234  -18.5667  -15.5840 C   0  0  2  0  0  0  0  0  0  0  0  0
   26.6974  -17.6945  -14.3883 C   0  0  0  0  0  0  0  0  0  0  0  0
   27.3290  -19.9884  -15.1628 C   0  0  2  0  0  0  0  0  0  0  0  0
   27.8046  -20.6803  -16.3139 N   0  0  0  0  0  0  0  0  0  0  0  0
   26.2589  -20.6357  -14.4107 C   0  0  0  0  0  0  0  0  0  0  0  0
   25.4076  -21.2826  -15.1124 O   0  0  0  0  0  0  0  0  0  0  0  0
   26.0764  -20.6152  -12.9958 N   0  0  0  0  0  0  0  0  0  0  0  0
   26.7970  -19.9771  -11.9379 C   0  0  0  0  0  0  0  0  0  0  0  0
   26.8801  -21.0509  -10.8658 C   0  0  0  0  0  0  0  0  0  0  0  0
   25.5141  -21.6998  -10.9750 C   0  0  0  0  0  0  0  0  0  0  0  0
   24.9889  -21.3353  -12.3396 C   0  0  1  0  0  0  0  0  0  0  0  0
   23.7758  -20.5055  -12.1561 C   0  0  0  0  0  0  0  0  0  0  0  0
   23.9584  -19.3401  -11.7399 O   0  0  0  0  0  0  0  0  0  0  0  0
   20.5100  -17.6045  -14.9308 N   0  0  0  0  0  0  0  0  0  0  0  0
   20.7642  -18.9911  -15.1494 C   0  0  0  0  0  0  0  0  0  0  0  0
   20.0056  -19.5953  -15.9489 O   0  0  0  0  0  0  0  0  0  0  0  0
   21.8934  -19.6348  -14.4320 C   0  0  0  0  0  0  0  0  0  0  0  0
   21.4443  -20.3015  -13.1771 C   0  0  2  0  0  0  0  0  0  0  0  0
   22.4718  -20.9512  -12.4186 N   0  0  0  0  0  0  0  0  0  0  0  0
   20.2513  -21.1478  -13.4048 C   0  0  0  0  0  0  0  0  0  0  0  0
   20.4138  -22.2063  -14.0953 O   0  0  0  0  0  0  0  0  0  0  0  0
   19.0012  -20.8659  -12.9294 O   0  0  0  0  0  0  0  0  0  0  0  0
  1  2  1  0
  2  3  1  0
  3  4  1  1
  3  5  1  0
  5  7  1  0
  5  6  1  6
  7  8  2  0
  7  9  1  0
  9 13  1  0
  9 10  1  0
 10 11  1  0
 12 11  1  0
 13 12  1  0
 13 14  1  1
 15 14  2  0
 16 17  1  0
 17 19  1  0
 17 18  2  0
 20 19  1  6
 20 22  1  0
 20 21  1  0
 21 14  1  0
 22 24  1  0
 23 22  2  0
M  END
$$$$
