IPN.pdb
     RDKit          3D

 24 24  0  0  1  0  0  0  0  0999 V2000
   21.7050  -18.7241  -14.2616 C   0  0  0  0  0  0  0  0  0  0  0  0
   21.6858  -19.9139  -15.1737 C   0  0  0  0  0  0  0  0  0  0  0  0
   20.9875  -21.1052  -14.5684 C   0  0  2  0  0  0  0  0  0  0  0  0
   21.7063  -21.4784  -13.2874 C   0  0  0  0  0  0  0  0  0  0  0  0
   20.8866  -22.2874  -15.5088 C   0  0  2  0  0  0  0  0  0  0  0  0
   20.3674  -21.8048  -16.7447 N   0  0  0  0  0  0  0  0  0  0  0  0
   20.2246  -23.4556  -14.9369 C   0  0  0  0  0  0  0  0  0  0  0  0
   18.9538  -23.3667  -14.8242 O   0  0  0  0  0  0  0  0  0  0  0  0
   20.8484  -24.6622  -14.5005 N   0  0  0  0  0  0  0  0  0  0  0  0
   22.2149  -25.0818  -14.4557 C   0  0  0  0  0  0  0  0  0  0  0  0
   22.1633  -26.5158  -14.9562 C   0  0  0  0  0  0  0  0  0  0  0  0
   20.8810  -27.0166  -14.3208 C   0  0  0  0  0  0  0  0  0  0  0  0
   20.0839  -25.7870  -13.9691 C   0  0  1  0  0  0  0  0  0  0  0  0
   19.9395  -25.7415  -12.4957 C   0  0  0  0  0  0  0  0  0  0  0  0
   20.5486  -24.8213  -11.9066 O   0  0  0  0  0  0  0  0  0  0  0  0
   19.2949  -24.8767   -8.5053 N   0  0  0  0  0  0  0  0  0  0  0  0
   18.3397  -24.2638   -9.3697 C   0  0  0  0  0  0  0  0  0  0  0  0
   18.0318  -23.0689   -9.1306 O   0  0  0  0  0  0  0  0  0  0  0  0
   17.7704  -25.0583  -10.4871 C   0  0  0  0  0  0  0  0  0  0  0  0
   18.3913  -26.4100  -10.5784 C   0  0  2  0  0  0  0  0  0  0  0  0
   19.1756  -26.6537  -11.7526 N   0  0  0  0  0  0  0  0  0  0  0  0
   17.4125  -27.4817  -10.2870 C   0  0  0  0  0  0  0  0  0  0  0  0
   16.6336  -27.8293  -11.2335 O   0  0  0  0  0  0  0  0  0  0  0  0
   17.2917  -28.1110   -9.0797 O   0  0  0  0  0  0  0  0  0  0  0  0
  1  2  1  0
  2  3  1  0
  3  4  1  1
  3  5  1  0
  5  7  1  0
  5  6  1  6
  7  8  2  0
  7  9  1  0
  9 13  1  0
  9 10  1  0
 10 11  1  0
 12 11  1  0
 13 12  1  0
 13 14  1  1
 15 14  2  0
 16 17  1  0
 17 19  1  0
 17 18  2  0
 20 19  1  6
 20 22  1  0
 20 21  1  0
 21 14  1  0
 22 24  1  0
 23 22  2  0
M  END
$$$$
