IPN.pdb
     RDKit          3D

 24 24  0  0  1  0  0  0  0  0999 V2000
   19.2889  -12.0145    4.5937 C   0  0  0  0  0  0  0  0  0  0  0  0
   18.2290  -12.7218    3.8036 C   0  0  0  0  0  0  0  0  0  0  0  0
   17.8697  -14.0683    4.3788 C   0  0  2  0  0  0  0  0  0  0  0  0
   19.0787  -14.9745    4.2610 C   0  0  0  0  0  0  0  0  0  0  0  0
   16.6483  -14.6919    3.7372 C   0  0  2  0  0  0  0  0  0  0  0  0
   15.5514  -13.8120    3.9658 N   0  0  0  0  0  0  0  0  0  0  0  0
   16.4393  -16.0949    4.0805 C   0  0  0  0  0  0  0  0  0  0  0  0
   15.7225  -16.3057    5.1184 O   0  0  0  0  0  0  0  0  0  0  0  0
   16.9487  -17.2300    3.3821 N   0  0  0  0  0  0  0  0  0  0  0  0
   17.7331  -17.3608    2.1934 C   0  0  0  0  0  0  0  0  0  0  0  0
   17.0663  -18.5073    1.4515 C   0  0  0  0  0  0  0  0  0  0  0  0
   16.7062  -19.4414    2.5901 C   0  0  0  0  0  0  0  0  0  0  0  0
   16.7120  -18.5967    3.8381 C   0  0  1  0  0  0  0  0  0  0  0  0
   17.7833  -19.1018    4.7274 C   0  0  0  0  0  0  0  0  0  0  0  0
   18.9385  -18.6793    4.4998 O   0  0  0  0  0  0  0  0  0  0  0  0
   20.0723  -19.6874    9.6542 N   0  0  0  0  0  0  0  0  0  0  0  0
   19.1276  -20.6330    9.1556 C   0  0  0  0  0  0  0  0  0  0  0  0
   19.2266  -21.8162    9.5680 O   0  0  0  0  0  0  0  0  0  0  0  0
   18.0954  -20.1751    8.1919 C   0  0  0  0  0  0  0  0  0  0  0  0
   18.4982  -20.4392    6.7817 C   0  0  2  0  0  0  0  0  0  0  0  0
   17.5703  -20.0041    5.7802 N   0  0  0  0  0  0  0  0  0  0  0  0
   18.9581  -21.8341    6.5968 C   0  0  0  0  0  0  0  0  0  0  0  0
   18.1004  -22.6769    6.1753 O   0  0  0  0  0  0  0  0  0  0  0  0
   20.2287  -22.2693    6.8505 O   0  0  0  0  0  0  0  0  0  0  0  0
  1  2  1  0
  2  3  1  0
  3  4  1  6
  3  5  1  0
  5  7  1  0
  5  6  1  1
  7  8  2  0
  7  9  1  0
  9 13  1  0
  9 10  1  0
 10 11  1  0
 12 11  1  0
 13 12  1  0
 13 14  1  1
 15 14  2  0
 16 17  1  0
 17 19  1  0
 17 18  2  0
 20 19  1  1
 20 22  1  0
 20 21  1  0
 21 14  1  0
 22 24  1  0
 23 22  2  0
M  END
$$$$
