IPN.pdb
     RDKit          3D

 24 24  0  0  1  0  0  0  0  0999 V2000
   27.1989  -17.1863  -18.7665 C   0  0  0  0  0  0  0  0  0  0  0  0
   28.2145  -17.7024  -17.7918 C   0  0  0  0  0  0  0  0  0  0  0  0
   27.5985  -18.5020  -16.6718 C   0  0  2  0  0  0  0  0  0  0  0  0
   27.4538  -17.5975  -15.4645 C   0  0  0  0  0  0  0  0  0  0  0  0
   28.3722  -19.7578  -16.3307 C   0  0  2  0  0  0  0  0  0  0  0  0
   28.5289  -20.5016  -17.5356 N   0  0  0  0  0  0  0  0  0  0  0  0
   27.8547  -20.4881  -15.1779 C   0  0  0  0  0  0  0  0  0  0  0  0
   26.9343  -21.3382  -15.4341 O   0  0  0  0  0  0  0  0  0  0  0  0
   28.2699  -20.3460  -13.8204 N   0  0  0  0  0  0  0  0  0  0  0  0
   29.2371  -19.5024  -13.1892 C   0  0  0  0  0  0  0  0  0  0  0  0
   29.9416  -20.4342  -12.2172 C   0  0  0  0  0  0  0  0  0  0  0  0
   28.7895  -21.2827  -11.7159 C   0  0  0  0  0  0  0  0  0  0  0  0
   27.6942  -21.1438  -12.7415 C   0  0  1  0  0  0  0  0  0  0  0  0
   26.5386  -20.4847  -12.0902 C   0  0  0  0  0  0  0  0  0  0  0  0
   26.5906  -19.2384  -11.9972 O   0  0  0  0  0  0  0  0  0  0  0  0
   20.6879  -21.2311  -10.9079 N   0  0  0  0  0  0  0  0  0  0  0  0
   21.7340  -20.4117  -11.4270 C   0  0  0  0  0  0  0  0  0  0  0  0
   21.5410  -19.1697  -11.4347 O   0  0  0  0  0  0  0  0  0  0  0  0
   22.9741  -21.0605  -11.9221 C   0  0  0  0  0  0  0  0  0  0  0  0
   24.1714  -20.6327  -11.1447 C   0  0  2  0  0  0  0  0  0  0  0  0
   25.4230  -21.1712  -11.5880 N   0  0  0  0  0  0  0  0  0  0  0  0
   23.9524  -20.7661   -9.6867 C   0  0  0  0  0  0  0  0  0  0  0  0
   24.3925  -21.8234   -9.1281 O   0  0  0  0  0  0  0  0  0  0  0  0
   23.3122  -19.8389   -8.9130 O   0  0  0  0  0  0  0  0  0  0  0  0
  1  2  1  0
  2  3  1  0
  3  4  1  1
  3  5  1  0
  5  7  1  0
  5  6  1  6
  7  8  2  0
  7  9  1  0
  9 13  1  0
  9 10  1  0
 10 11  1  0
 12 11  1  0
 13 12  1  0
 13 14  1  1
 15 14  2  0
 16 17  1  0
 17 19  1  0
 17 18  2  0
 20 19  1  6
 20 22  1  0
 20 21  1  0
 21 14  1  0
 22 24  1  0
 23 22  2  0
M  END
$$$$
