IPN.pdb
     RDKit          3D

 24 24  0  0  1  0  0  0  0  0999 V2000
   18.3249  -12.4765  -20.5876 C   0  0  0  0  0  0  0  0  0  0  0  0
   19.2235  -13.0219  -19.5185 C   0  0  0  0  0  0  0  0  0  0  0  0
   19.4727  -12.0376  -18.4039 C   0  0  2  0  0  0  0  0  0  0  0  0
   20.3064  -10.8974  -18.9530 C   0  0  0  0  0  0  0  0  0  0  0  0
   20.1215  -12.6582  -17.1849 C   0  0  2  0  0  0  0  0  0  0  0  0
   19.3117  -13.7605  -16.7865 N   0  0  0  0  0  0  0  0  0  0  0  0
   20.4779  -11.7021  -16.1414 C   0  0  0  0  0  0  0  0  0  0  0  0
   19.5031  -11.2715  -15.4345 O   0  0  0  0  0  0  0  0  0  0  0  0
   21.7841  -11.2126  -15.8418 N   0  0  0  0  0  0  0  0  0  0  0  0
   23.0664  -11.4616  -16.4245 C   0  0  0  0  0  0  0  0  0  0  0  0
   23.9806  -11.6153  -15.2203 C   0  0  0  0  0  0  0  0  0  0  0  0
   23.4317  -10.5587  -14.2816 C   0  0  0  0  0  0  0  0  0  0  0  0
   22.0323  -10.2661  -14.7581 C   0  0  1  0  0  0  0  0  0  0  0  0
   21.9866   -8.8543  -15.2035 C   0  0  0  0  0  0  0  0  0  0  0  0
   22.2572   -8.6429  -16.4064 O   0  0  0  0  0  0  0  0  0  0  0  0
   21.2005   -3.8146  -15.5590 N   0  0  0  0  0  0  0  0  0  0  0  0
   19.9924   -4.5460  -15.3576 C   0  0  0  0  0  0  0  0  0  0  0  0
   18.9113   -3.9306  -15.5373 O   0  0  0  0  0  0  0  0  0  0  0  0
   20.0765   -5.9719  -14.9530 C   0  0  0  0  0  0  0  0  0  0  0  0
   21.4847   -6.3985  -14.7167 C   0  0  2  0  0  0  0  0  0  0  0  0
   21.6645   -7.7761  -14.3659 N   0  0  0  0  0  0  0  0  0  0  0  0
   22.1963   -5.4610  -13.8188 C   0  0  0  0  0  0  0  0  0  0  0  0
   22.3487   -5.8216  -12.6063 O   0  0  0  0  0  0  0  0  0  0  0  0
   22.6905   -4.2462  -14.2040 O   0  0  0  0  0  0  0  0  0  0  0  0
  1  2  1  0
  2  3  1  0
  3  4  1  6
  3  5  1  0
  5  7  1  0
  5  6  1  1
  7  8  2  0
  7  9  1  0
  9 13  1  0
  9 10  1  0
 10 11  1  0
 12 11  1  0
 13 12  1  0
 13 14  1  6
 15 14  2  0
 16 17  1  0
 17 19  1  0
 17 18  2  0
 20 19  1  1
 20 22  1  0
 20 21  1  0
 21 14  1  0
 22 24  1  0
 23 22  2  0
M  END
$$$$
