IPN.pdb
     RDKit          3D

 24 24  0  0  1  0  0  0  0  0999 V2000
   23.3586  -18.7888  -17.7289 C   0  0  0  0  0  0  0  0  0  0  0  0
   24.4776  -19.3403  -16.8974 C   0  0  0  0  0  0  0  0  0  0  0  0
   23.9906  -20.1148  -15.6990 C   0  0  2  0  0  0  0  0  0  0  0  0
   23.0253  -19.2388  -14.9260 C   0  0  0  0  0  0  0  0  0  0  0  0
   25.1087  -20.6197  -14.8120 C   0  0  2  0  0  0  0  0  0  0  0  0
   26.0498  -21.2841  -15.6502 N   0  0  0  0  0  0  0  0  0  0  0  0
   24.6568  -21.3521  -13.6332 C   0  0  0  0  0  0  0  0  0  0  0  0
   24.2470  -22.5438  -13.8505 O   0  0  0  0  0  0  0  0  0  0  0  0
   24.6294  -20.8739  -12.2893 N   0  0  0  0  0  0  0  0  0  0  0  0
   24.9210  -19.5984  -11.7116 C   0  0  0  0  0  0  0  0  0  0  0  0
   25.7263  -19.9457  -10.4706 C   0  0  0  0  0  0  0  0  0  0  0  0
   25.0140  -21.1914   -9.9811 C   0  0  0  0  0  0  0  0  0  0  0  0
   24.2520  -21.7267  -11.1659 C   0  0  1  0  0  0  0  0  0  0  0  0
   22.8067  -21.6578  -10.8494 C   0  0  0  0  0  0  0  0  0  0  0  0
   22.2270  -20.5862  -11.1332 O   0  0  0  0  0  0  0  0  0  0  0  0
   18.5961  -23.5152   -7.1513 N   0  0  0  0  0  0  0  0  0  0  0  0
   18.9145  -22.6335   -8.2267 C   0  0  0  0  0  0  0  0  0  0  0  0
   17.9531  -22.1271   -8.8584 O   0  0  0  0  0  0  0  0  0  0  0  0
   20.3416  -22.3663   -8.5361 C   0  0  0  0  0  0  0  0  0  0  0  0
   20.6856  -22.7465   -9.9354 C   0  0  2  0  0  0  0  0  0  0  0  0
   22.0796  -22.7050  -10.2641 N   0  0  0  0  0  0  0  0  0  0  0  0
   19.8245  -22.0505  -10.9181 C   0  0  0  0  0  0  0  0  0  0  0  0
   19.3423  -22.7517  -11.8664 O   0  0  0  0  0  0  0  0  0  0  0  0
   19.5214  -20.7184  -10.8738 O   0  0  0  0  0  0  0  0  0  0  0  0
  1  2  1  0
  2  3  1  0
  3  4  1  1
  3  5  1  0
  5  7  1  0
  5  6  1  6
  7  8  2  0
  7  9  1  0
  9 13  1  0
  9 10  1  0
 10 11  1  0
 12 11  1  0
 13 12  1  0
 13 14  1  1
 15 14  2  0
 16 17  1  0
 17 19  1  0
 17 18  2  0
 20 19  1  1
 20 22  1  0
 20 21  1  0
 21 14  1  0
 22 24  1  0
 23 22  2  0
M  END
$$$$
