IPN.pdb
     RDKit          3D

 24 24  0  0  1  0  0  0  0  0999 V2000
   25.9186  -13.3985  -15.3324 C   0  0  0  0  0  0  0  0  0  0  0  0
   24.5332  -13.5888  -15.8732 C   0  0  0  0  0  0  0  0  0  0  0  0
   23.7563  -12.2997  -15.9611 C   0  0  2  0  0  0  0  0  0  0  0  0
   23.5958  -11.7438  -14.5604 C   0  0  0  0  0  0  0  0  0  0  0  0
   22.4176  -12.4482  -16.6524 C   0  0  2  0  0  0  0  0  0  0  0  0
   22.6414  -13.1630  -17.8643 N   0  0  0  0  0  0  0  0  0  0  0  0
   21.6558  -11.2079  -16.7599 C   0  0  0  0  0  0  0  0  0  0  0  0
   22.1562  -10.3210  -17.5334 O   0  0  0  0  0  0  0  0  0  0  0  0
   20.4309  -10.8980  -16.0971 N   0  0  0  0  0  0  0  0  0  0  0  0
   19.6090  -11.6380  -15.1903 C   0  0  0  0  0  0  0  0  0  0  0  0
   18.1987  -11.3706  -15.6892 C   0  0  0  0  0  0  0  0  0  0  0  0
   18.2860   -9.9103  -16.0877 C   0  0  0  0  0  0  0  0  0  0  0  0
   19.7526   -9.6169  -16.2718 C   0  0  1  0  0  0  0  0  0  0  0  0
   20.1486   -8.6117  -15.2586 C   0  0  0  0  0  0  0  0  0  0  0  0
   20.8835   -9.0181  -14.3315 O   0  0  0  0  0  0  0  0  0  0  0  0
   22.5126   -4.8155  -12.7244 N   0  0  0  0  0  0  0  0  0  0  0  0
   22.3927   -4.8324  -14.1458 C   0  0  0  0  0  0  0  0  0  0  0  0
   22.7618   -3.8033  -14.7659 O   0  0  0  0  0  0  0  0  0  0  0  0
   21.8472   -6.0456  -14.8049 C   0  0  0  0  0  0  0  0  0  0  0  0
   20.3678   -6.1410  -14.6525 C   0  0  2  0  0  0  0  0  0  0  0  0
   19.7505   -7.2668  -15.2885 N   0  0  0  0  0  0  0  0  0  0  0  0
   19.7033   -4.8528  -14.9537 C   0  0  0  0  0  0  0  0  0  0  0  0
   19.3377   -4.6562  -16.1584 O   0  0  0  0  0  0  0  0  0  0  0  0
   19.4639   -3.8722  -14.0321 O   0  0  0  0  0  0  0  0  0  0  0  0
  1  2  1  0
  2  3  1  0
  3  4  1  1
  3  5  1  0
  5  7  1  0
  5  6  1  6
  7  8  2  0
  7  9  1  0
  9 13  1  0
  9 10  1  0
 10 11  1  0
 12 11  1  0
 13 12  1  0
 13 14  1  1
 15 14  2  0
 16 17  1  0
 17 19  1  0
 17 18  2  0
 20 19  1  6
 20 22  1  0
 20 21  1  0
 21 14  1  0
 22 24  1  0
 23 22  2  0
M  END
$$$$
