IPN.pdb
     RDKit          3D

 24 24  0  0  1  0  0  0  0  0999 V2000
   25.0791  -21.1915   -8.6153 C   0  0  0  0  0  0  0  0  0  0  0  0
   25.7715  -20.2530   -9.5574 C   0  0  0  0  0  0  0  0  0  0  0  0
   25.4497  -20.5312  -11.0039 C   0  0  2  0  0  0  0  0  0  0  0  0
   26.6866  -21.1051  -11.6652 C   0  0  0  0  0  0  0  0  0  0  0  0
   24.9365  -19.3190  -11.7517 C   0  0  2  0  0  0  0  0  0  0  0  0
   23.6857  -18.9595  -11.1721 N   0  0  0  0  0  0  0  0  0  0  0  0
   24.9659  -19.4522  -13.2047 C   0  0  0  0  0  0  0  0  0  0  0  0
   23.8227  -19.5313  -13.7724 O   0  0  0  0  0  0  0  0  0  0  0  0
   26.1255  -19.5018  -14.0344 N   0  0  0  0  0  0  0  0  0  0  0  0
   27.5175  -19.6503  -13.7413 C   0  0  0  0  0  0  0  0  0  0  0  0
   28.1837  -18.6345  -14.6543 C   0  0  0  0  0  0  0  0  0  0  0  0
   27.3480  -18.7589  -15.9132 C   0  0  0  0  0  0  0  0  0  0  0  0
   26.0489  -19.3937  -15.4885 C   0  0  1  0  0  0  0  0  0  0  0  0
   25.9417  -20.7095  -16.1599 C   0  0  0  0  0  0  0  0  0  0  0  0
   26.9331  -21.4657  -16.0603 O   0  0  0  0  0  0  0  0  0  0  0  0
   21.5414  -21.7100  -16.0942 N   0  0  0  0  0  0  0  0  0  0  0  0
   22.3044  -22.3707  -15.0861 C   0  0  0  0  0  0  0  0  0  0  0  0
   21.7387  -22.5829  -13.9839 O   0  0  0  0  0  0  0  0  0  0  0  0
   23.7031  -22.7655  -15.3889 C   0  0  0  0  0  0  0  0  0  0  0  0
   24.1029  -22.3728  -16.7698 C   0  0  2  0  0  0  0  0  0  0  0  0
   24.8155  -21.1346  -16.8803 N   0  0  0  0  0  0  0  0  0  0  0  0
   22.9745  -22.4935  -17.7205 C   0  0  0  0  0  0  0  0  0  0  0  0
   22.4677  -21.4103  -18.1602 O   0  0  0  0  0  0  0  0  0  0  0  0
   22.4469  -23.6799  -18.1476 O   0  0  0  0  0  0  0  0  0  0  0  0
  1  2  1  0
  2  3  1  0
  3  4  1  6
  3  5  1  0
  5  7  1  0
  5  6  1  1
  7  8  2  0
  7  9  1  0
  9 13  1  0
  9 10  1  0
 10 11  1  0
 12 11  1  0
 13 12  1  0
 13 14  1  6
 15 14  2  0
 16 17  1  0
 17 19  1  0
 17 18  2  0
 20 19  1  1
 20 22  1  0
 20 21  1  0
 21 14  1  0
 22 24  1  0
 23 22  2  0
M  END
$$$$
