IPN.pdb
     RDKit          3D

 24 24  0  0  1  0  0  0  0  0999 V2000
   10.2858  -12.8540  -10.8433 C   0  0  0  0  0  0  0  0  0  0  0  0
   11.6733  -13.1212  -11.3446 C   0  0  0  0  0  0  0  0  0  0  0  0
   12.6810  -12.1182  -10.8430 C   0  0  2  0  0  0  0  0  0  0  0  0
   12.2328  -10.7362  -11.2744 C   0  0  0  0  0  0  0  0  0  0  0  0
   14.0962  -12.4059  -11.2974 C   0  0  2  0  0  0  0  0  0  0  0  0
   14.4226  -13.7234  -10.8645 N   0  0  0  0  0  0  0  0  0  0  0  0
   15.0572  -11.3571  -10.9711 C   0  0  0  0  0  0  0  0  0  0  0  0
   15.5117  -11.3808   -9.7760 O   0  0  0  0  0  0  0  0  0  0  0  0
   15.5276  -10.3291  -11.8414 N   0  0  0  0  0  0  0  0  0  0  0  0
   15.2618  -10.0290  -13.2144 C   0  0  0  0  0  0  0  0  0  0  0  0
   16.6330   -9.6935  -13.7771 C   0  0  0  0  0  0  0  0  0  0  0  0
   17.2572   -8.9267  -12.6277 C   0  0  0  0  0  0  0  0  0  0  0  0
   16.4692   -9.3042  -11.3999 C   0  0  1  0  0  0  0  0  0  0  0  0
   15.7986   -8.0844  -10.8938 C   0  0  0  0  0  0  0  0  0  0  0  0
   14.8165   -7.6772  -11.5528 O   0  0  0  0  0  0  0  0  0  0  0  0
   14.3149   -4.0865   -8.0477 N   0  0  0  0  0  0  0  0  0  0  0  0
   15.0399   -4.9189   -7.1439 C   0  0  0  0  0  0  0  0  0  0  0  0
   15.0030   -4.6128   -5.9254 O   0  0  0  0  0  0  0  0  0  0  0  0
   15.7867   -6.0829   -7.6834 C   0  0  0  0  0  0  0  0  0  0  0  0
   15.6044   -6.2239   -9.1558 C   0  0  2  0  0  0  0  0  0  0  0  0
   16.2006   -7.3857   -9.7457 N   0  0  0  0  0  0  0  0  0  0  0  0
   15.9249   -4.9669   -9.8689 C   0  0  0  0  0  0  0  0  0  0  0  0
   15.1423   -3.9787   -9.6833 O   0  0  0  0  0  0  0  0  0  0  0  0
   16.9927   -4.8037  -10.7064 O   0  0  0  0  0  0  0  0  0  0  0  0
  1  2  1  0
  2  3  1  0
  3  4  1  6
  3  5  1  0
  5  7  1  0
  5  6  1  1
  7  8  2  0
  7  9  1  0
  9 13  1  0
  9 10  1  0
 10 11  1  0
 12 11  1  0
 13 12  1  0
 13 14  1  6
 15 14  2  0
 16 17  1  0
 17 19  1  0
 17 18  2  0
 20 19  1  1
 20 22  1  0
 20 21  1  0
 21 14  1  0
 22 24  1  0
 23 22  2  0
M  END
$$$$
