IPN.pdb
     RDKit          3D

 24 24  0  0  1  0  0  0  0  0999 V2000
   24.9484  -20.5708   -8.8429 C   0  0  0  0  0  0  0  0  0  0  0  0
   24.4273  -19.8839  -10.0695 C   0  0  0  0  0  0  0  0  0  0  0  0
   24.9315  -20.5045  -11.3477 C   0  0  2  0  0  0  0  0  0  0  0  0
   26.4459  -20.4482  -11.3394 C   0  0  0  0  0  0  0  0  0  0  0  0
   24.3625  -19.8630  -12.5953 C   0  0  2  0  0  0  0  0  0  0  0  0
   22.9448  -19.9880  -12.5294 N   0  0  0  0  0  0  0  0  0  0  0  0
   24.9967  -20.2958  -13.8365 C   0  0  0  0  0  0  0  0  0  0  0  0
   24.2993  -21.0825  -14.5646 O   0  0  0  0  0  0  0  0  0  0  0  0
   26.2944  -19.9317  -14.3044 N   0  0  0  0  0  0  0  0  0  0  0  0
   27.3986  -19.2746  -13.6765 C   0  0  0  0  0  0  0  0  0  0  0  0
   27.8830  -18.3003  -14.7374 C   0  0  0  0  0  0  0  0  0  0  0  0
   27.7190  -19.1186  -16.0032 C   0  0  0  0  0  0  0  0  0  0  0  0
   26.7392  -20.2130  -15.6664 C   0  0  1  0  0  0  0  0  0  0  0  0
   27.4435  -21.5104  -15.7868 C   0  0  0  0  0  0  0  0  0  0  0  0
   28.3423  -21.7340  -14.9461 O   0  0  0  0  0  0  0  0  0  0  0  0
   24.0275  -25.7698  -16.1930 N   0  0  0  0  0  0  0  0  0  0  0  0
   25.0954  -25.2988  -15.3726 C   0  0  0  0  0  0  0  0  0  0  0  0
   25.5881  -26.1102  -14.5488 O   0  0  0  0  0  0  0  0  0  0  0  0
   25.5593  -23.8979  -15.5341 C   0  0  0  0  0  0  0  0  0  0  0  0
   26.5928  -23.7761  -16.6009 C   0  0  2  0  0  0  0  0  0  0  0  0
   27.1590  -22.4706  -16.7692 N   0  0  0  0  0  0  0  0  0  0  0  0
   26.1450  -24.3953  -17.8687 C   0  0  0  0  0  0  0  0  0  0  0  0
   25.2312  -23.7905  -18.5190 O   0  0  0  0  0  0  0  0  0  0  0  0
   26.6420  -25.5628  -18.3769 O   0  0  0  0  0  0  0  0  0  0  0  0
  1  2  1  0
  2  3  1  0
  3  4  1  6
  3  5  1  0
  5  7  1  0
  5  6  1  6
  7  8  2  0
  7  9  1  0
  9 13  1  0
  9 10  1  0
 10 11  1  0
 12 11  1  0
 13 12  1  0
 13 14  1  1
 15 14  2  0
 16 17  1  0
 17 19  1  0
 17 18  2  0
 20 19  1  1
 20 22  1  0
 20 21  1  0
 21 14  1  0
 22 24  1  0
 23 22  2  0
M  END
$$$$
