EAL.pdb
     RDKit          3D

 23 22  0  0  1  0  0  0  0  0999 V2000
   25.2216  -18.6051  -18.0616 N   0  0  0  0  0  0  0  0  0  0  0  0
   25.1254  -17.5434  -18.9945 C   0  0  1  0  0  0  0  0  0  0  0  0
   23.7666  -16.8914  -19.0500 C   0  0  0  0  0  0  0  0  0  0  0  0
   22.6928  -17.8980  -19.3986 C   0  0  0  0  0  0  0  0  0  0  0  0
   21.4274  -17.1559  -19.6127 C   0  0  0  0  0  0  0  0  0  0  0  0
   21.4151  -15.9299  -19.3710 O   0  0  0  0  0  0  0  0  0  0  0  0
   26.1615  -16.5075  -18.8729 C   0  0  0  0  0  0  0  0  0  0  0  0
   26.2943  -15.9387  -17.7558 O   0  0  0  0  0  0  0  0  0  0  0  0
   20.3010  -17.7995  -20.0642 O   0  0  0  0  0  0  0  0  0  0  0  0
   29.2175  -15.2693  -20.6547 C   0  0  0  0  0  0  0  0  0  0  0  0
   27.9996  -15.0512  -19.8202 C   0  0  2  0  0  0  0  0  0  0  0  0
   27.0230  -16.0970  -19.9124 N   0  0  0  0  0  0  0  0  0  0  0  0
   27.3897  -13.6959  -20.0291 C   0  0  0  0  0  0  0  0  0  0  0  0
   28.0732  -12.6649  -19.8001 O   0  0  0  0  0  0  0  0  0  0  0  0
   26.3369  -11.1301  -23.4820 C   0  0  0  0  0  0  0  0  0  0  0  0
   25.4199  -12.2728  -23.2137 C   0  0  2  0  0  0  0  0  0  0  0  0
   24.5537  -12.5321  -24.4012 C   0  0  0  0  0  0  0  0  0  0  0  0
   24.7072  -12.2646  -21.9365 C   0  0  0  0  0  0  0  0  0  0  0  0
   25.4140  -12.2188  -20.6521 C   0  0  2  0  0  0  0  0  0  0  0  0
   26.0654  -13.5335  -20.4772 N   0  0  0  0  0  0  0  0  0  0  0  0
   24.7138  -11.8050  -19.4541 C   0  0  0  0  0  0  0  0  0  0  0  0
   24.2169  -10.4750  -19.4076 O   0  0  0  0  0  0  0  0  0  0  0  0
   24.4731  -12.4633  -18.4218 O   0  0  0  0  0  0  0  0  0  0  0  0
  2  1  1  1
  2  3  1  0
  3  4  1  0
  4  5  1  0
  5  9  1  0
  6  5  2  0
  7 12  1  0
  7  2  1  0
  8  7  2  0
 11 10  1  6
 11 12  1  0
 11 13  1  0
 13 20  1  0
 14 13  2  0
 16 15  1  6
 17 16  1  0
 19 18  1  6
 18 16  1  0
 20 19  1  0
 21 19  1  0
 21 22  1  0
 23 21  2  0
M  END
$$$$
