EAL.pdb
     RDKit          3D

 23 22  0  0  1  0  0  0  0  0999 V2000
   20.9607   -9.2507  -17.3581 N   0  0  0  0  0  0  0  0  0  0  0  0
   21.7318   -8.1343  -16.9509 C   0  0  1  0  0  0  0  0  0  0  0  0
   22.3931   -7.3935  -18.0861 C   0  0  0  0  0  0  0  0  0  0  0  0
   22.1929   -8.1170  -19.3992 C   0  0  0  0  0  0  0  0  0  0  0  0
   22.8671   -7.3293  -20.4588 C   0  0  0  0  0  0  0  0  0  0  0  0
   23.4818   -6.2945  -20.1227 O   0  0  0  0  0  0  0  0  0  0  0  0
   21.0349   -7.1762  -16.0804 C   0  0  0  0  0  0  0  0  0  0  0  0
   19.7759   -7.1430  -16.1339 O   0  0  0  0  0  0  0  0  0  0  0  0
   22.8166   -7.7273  -21.7725 O   0  0  0  0  0  0  0  0  0  0  0  0
   21.8645   -4.6993  -13.3165 C   0  0  0  0  0  0  0  0  0  0  0  0
   20.9989   -5.3223  -14.3604 C   0  0  2  0  0  0  0  0  0  0  0  0
   21.6664   -6.2862  -15.1857 N   0  0  0  0  0  0  0  0  0  0  0  0
   20.2542   -4.3066  -15.1766 C   0  0  0  0  0  0  0  0  0  0  0  0
   20.7037   -3.9613  -16.2998 O   0  0  0  0  0  0  0  0  0  0  0  0
   15.6377   -1.3786  -16.6159 C   0  0  0  0  0  0  0  0  0  0  0  0
   16.4265   -2.5307  -17.1348 C   0  0  2  0  0  0  0  0  0  0  0  0
   15.5739   -3.3918  -18.0063 C   0  0  0  0  0  0  0  0  0  0  0  0
   17.2386   -3.2673  -16.1669 C   0  0  0  0  0  0  0  0  0  0  0  0
   18.3520   -2.6389  -15.4480 C   0  0  2  0  0  0  0  0  0  0  0  0
   19.0571   -3.7187  -14.7269 N   0  0  0  0  0  0  0  0  0  0  0  0
   18.1094   -1.4949  -14.5941 C   0  0  0  0  0  0  0  0  0  0  0  0
   18.1620   -0.2059  -15.1889 O   0  0  0  0  0  0  0  0  0  0  0  0
   17.8525   -1.4703  -13.3734 O   0  0  0  0  0  0  0  0  0  0  0  0
  2  1  1  6
  2  3  1  0
  3  4  1  0
  4  5  1  0
  5  9  1  0
  6  5  2  0
  7 12  1  0
  7  2  1  0
  8  7  2  0
 11 10  1  6
 11 12  1  0
 11 13  1  0
 13 20  1  0
 14 13  2  0
 16 15  1  1
 17 16  1  0
 19 18  1  1
 18 16  1  0
 20 19  1  0
 21 19  1  0
 21 22  1  0
 23 21  2  0
M  END
$$$$
