EAL.pdb
     RDKit          3D

 23 22  0  0  1  0  0  0  0  0999 V2000
   26.7583  -34.2697   -7.1906 N   0  0  0  0  0  0  0  0  0  0  0  0
   26.6393  -35.0932   -6.0442 C   0  0  1  0  0  0  0  0  0  0  0  0
   26.7233  -36.5710   -6.3340 C   0  0  0  0  0  0  0  0  0  0  0  0
   25.5438  -37.0322   -7.1608 C   0  0  0  0  0  0  0  0  0  0  0  0
   25.6777  -38.4943   -7.3663 C   0  0  0  0  0  0  0  0  0  0  0  0
   24.9092  -39.0476   -8.1817 O   0  0  0  0  0  0  0  0  0  0  0  0
   27.5462  -34.7587   -4.9364 C   0  0  0  0  0  0  0  0  0  0  0  0
   28.6791  -34.2885   -5.2270 O   0  0  0  0  0  0  0  0  0  0  0  0
   26.6207  -39.2188   -6.6788 O   0  0  0  0  0  0  0  0  0  0  0  0
   27.4015  -34.4945   -1.1495 C   0  0  0  0  0  0  0  0  0  0  0  0
   28.0824  -34.5081   -2.4775 C   0  0  2  0  0  0  0  0  0  0  0  0
   27.2478  -34.9232   -3.5670 N   0  0  0  0  0  0  0  0  0  0  0  0
   29.3838  -35.2552   -2.4532 C   0  0  0  0  0  0  0  0  0  0  0  0
   29.4450  -36.4130   -2.9416 O   0  0  0  0  0  0  0  0  0  0  0  0
   35.2530  -34.2313   -2.8301 C   0  0  0  0  0  0  0  0  0  0  0  0
   34.1194  -35.1851   -2.9853 C   0  0  2  0  0  0  0  0  0  0  0  0
   34.2258  -35.9091   -4.2862 C   0  0  0  0  0  0  0  0  0  0  0  0
   32.7810  -34.6782   -2.6839 C   0  0  0  0  0  0  0  0  0  0  0  0
   31.8450  -35.4151   -1.8282 C   0  0  2  0  0  0  0  0  0  0  0  0
   30.5527  -34.7021   -1.8975 N   0  0  0  0  0  0  0  0  0  0  0  0
   32.2080  -35.7333   -0.4631 C   0  0  0  0  0  0  0  0  0  0  0  0
   33.2080  -36.7218   -0.2606 O   0  0  0  0  0  0  0  0  0  0  0  0
   31.7595  -35.2536    0.5978 O   0  0  0  0  0  0  0  0  0  0  0  0
  2  1  1  6
  2  3  1  0
  3  4  1  0
  4  5  1  0
  5  9  1  0
  6  5  2  0
  7 12  1  0
  7  2  1  0
  8  7  2  0
 11 10  1  1
 11 12  1  0
 11 13  1  0
 13 20  1  0
 14 13  2  0
 16 15  1  6
 17 16  1  0
 19 18  1  1
 18 16  1  0
 20 19  1  0
 21 19  1  0
 21 22  1  0
 23 21  2  0
M  END
$$$$
