EAL.pdb
     RDKit          3D

 23 22  0  0  1  0  0  0  0  0999 V2000
   19.5741  -14.6636  -18.5798 N   0  0  0  0  0  0  0  0  0  0  0  0
   18.8404  -13.5110  -18.2060 C   0  0  1  0  0  0  0  0  0  0  0  0
   18.0770  -13.6572  -16.9135 C   0  0  0  0  0  0  0  0  0  0  0  0
   17.0305  -14.7442  -17.0185 C   0  0  0  0  0  0  0  0  0  0  0  0
   16.3404  -14.8377  -15.7097 C   0  0  0  0  0  0  0  0  0  0  0  0
   16.5119  -15.8692  -15.0256 O   0  0  0  0  0  0  0  0  0  0  0  0
   19.6111  -12.2592  -18.1811 C   0  0  0  0  0  0  0  0  0  0  0  0
   20.7781  -12.2980  -17.7062 O   0  0  0  0  0  0  0  0  0  0  0  0
   15.5357  -13.8180  -15.2633 O   0  0  0  0  0  0  0  0  0  0  0  0
   19.3099   -8.7145  -19.5133 C   0  0  0  0  0  0  0  0  0  0  0  0
   19.9071   -9.7969  -18.6773 C   0  0  2  0  0  0  0  0  0  0  0  0
   19.1458  -11.0117  -18.6486 N   0  0  0  0  0  0  0  0  0  0  0  0
   20.2683   -9.3301  -17.2975 C   0  0  0  0  0  0  0  0  0  0  0  0
   19.4272   -9.4307  -16.3673 O   0  0  0  0  0  0  0  0  0  0  0  0
   22.8229  -10.4684  -13.5857 C   0  0  0  0  0  0  0  0  0  0  0  0
   23.5066  -10.1217  -14.8628 C   0  0  2  0  0  0  0  0  0  0  0  0
   24.9458  -10.5129  -14.8029 C   0  0  0  0  0  0  0  0  0  0  0  0
   23.2665   -8.7830  -15.4007 C   0  0  0  0  0  0  0  0  0  0  0  0
   21.9133   -8.2820  -15.6638 C   0  0  2  0  0  0  0  0  0  0  0  0
   21.5284   -8.7771  -17.0016 N   0  0  0  0  0  0  0  0  0  0  0  0
   21.6199   -6.8724  -15.5101 C   0  0  0  0  0  0  0  0  0  0  0  0
   21.4032   -6.1120  -16.6902 O   0  0  0  0  0  0  0  0  0  0  0  0
   21.5257   -6.2028  -14.4614 O   0  0  0  0  0  0  0  0  0  0  0  0
  2  1  1  1
  2  3  1  0
  3  4  1  0
  4  5  1  0
  5  9  1  0
  6  5  2  0
  7 12  1  0
  7  2  1  0
  8  7  2  0
 11 10  1  1
 11 12  1  0
 11 13  1  0
 13 20  1  0
 14 13  2  0
 16 15  1  1
 17 16  1  0
 19 18  1  6
 18 16  1  0
 20 19  1  0
 21 19  1  0
 21 22  1  0
 23 21  2  0
M  END
$$$$
