EAL.pdb
     RDKit          3D

 23 22  0  0  1  0  0  0  0  0999 V2000
   16.0845  -11.5778  -16.5386 N   0  0  0  0  0  0  0  0  0  0  0  0
   16.2948  -10.2520  -16.9913 C   0  0  1  0  0  0  0  0  0  0  0  0
   15.3296   -9.8041  -18.0601 C   0  0  0  0  0  0  0  0  0  0  0  0
   15.2043  -10.8435  -19.1518 C   0  0  0  0  0  0  0  0  0  0  0  0
   16.4523  -10.8145  -19.9515 C   0  0  0  0  0  0  0  0  0  0  0  0
   16.9840  -11.9042  -20.2537 O   0  0  0  0  0  0  0  0  0  0  0  0
   16.3626   -9.2329  -15.9339 C   0  0  0  0  0  0  0  0  0  0  0  0
   16.5550   -8.0370  -16.2830 O   0  0  0  0  0  0  0  0  0  0  0  0
   17.0071   -9.6222  -20.3483 O   0  0  0  0  0  0  0  0  0  0  0  0
   15.6481   -8.8626  -12.2454 C   0  0  0  0  0  0  0  0  0  0  0  0
   16.3608   -8.5134  -13.5092 C   0  0  2  0  0  0  0  0  0  0  0  0
   16.2291   -9.4882  -14.5525 N   0  0  0  0  0  0  0  0  0  0  0  0
   17.7934   -8.1301  -13.2790 C   0  0  0  0  0  0  0  0  0  0  0  0
   18.0715   -7.2491  -12.4251 O   0  0  0  0  0  0  0  0  0  0  0  0
   23.1929  -10.7448  -14.5563 C   0  0  0  0  0  0  0  0  0  0  0  0
   22.5143   -9.5765  -13.9292 C   0  0  2  0  0  0  0  0  0  0  0  0
   23.1328   -9.2666  -12.6066 C   0  0  0  0  0  0  0  0  0  0  0  0
   21.0517   -9.5834  -13.9253 C   0  0  0  0  0  0  0  0  0  0  0  0
   20.2687   -8.3471  -13.8261 C   0  0  2  0  0  0  0  0  0  0  0  0
   18.8504   -8.7267  -13.9917 N   0  0  0  0  0  0  0  0  0  0  0  0
   20.6152   -7.2026  -14.6425 C   0  0  0  0  0  0  0  0  0  0  0  0
   20.1203   -7.1689  -15.9737 O   0  0  0  0  0  0  0  0  0  0  0  0
   21.3062   -6.2080  -14.3425 O   0  0  0  0  0  0  0  0  0  0  0  0
  2  1  1  1
  2  3  1  0
  3  4  1  0
  4  5  1  0
  5  9  1  0
  6  5  2  0
  7 12  1  0
  7  2  1  0
  8  7  2  0
 11 10  1  1
 11 12  1  0
 11 13  1  0
 13 20  1  0
 14 13  2  0
 16 15  1  1
 17 16  1  0
 19 18  1  6
 18 16  1  0
 20 19  1  0
 21 19  1  0
 21 22  1  0
 23 21  2  0
M  END
$$$$
