EAL.pdb
     RDKit          3D

 23 22  0  0  1  0  0  0  0  0999 V2000
   18.7892  -13.3535  -16.8290 N   0  0  0  0  0  0  0  0  0  0  0  0
   18.8268  -11.9859  -17.1963 C   0  0  1  0  0  0  0  0  0  0  0  0
   17.8285  -11.1228  -16.4661 C   0  0  0  0  0  0  0  0  0  0  0  0
   16.4216  -11.6499  -16.6404 C   0  0  0  0  0  0  0  0  0  0  0  0
   15.4919  -10.6757  -16.0204 C   0  0  0  0  0  0  0  0  0  0  0  0
   15.5016   -9.5001  -16.4441 O   0  0  0  0  0  0  0  0  0  0  0  0
   20.1546  -11.3578  -17.1358 C   0  0  0  0  0  0  0  0  0  0  0  0
   20.8499  -11.5538  -16.1027 O   0  0  0  0  0  0  0  0  0  0  0  0
   14.6443  -11.0564  -15.0088 O   0  0  0  0  0  0  0  0  0  0  0  0
   22.6115   -9.7157  -19.4744 C   0  0  0  0  0  0  0  0  0  0  0  0
   22.0322   -9.9820  -18.1251 C   0  0  2  0  0  0  0  0  0  0  0  0
   20.7153  -10.5488  -18.1470 N   0  0  0  0  0  0  0  0  0  0  0  0
   22.1140   -8.7916  -17.2147 C   0  0  0  0  0  0  0  0  0  0  0  0
   23.2322   -8.2663  -16.9776 O   0  0  0  0  0  0  0  0  0  0  0  0
   21.0155   -4.5657  -17.6170 C   0  0  0  0  0  0  0  0  0  0  0  0
   19.8553   -5.4580  -17.3406 C   0  0  2  0  0  0  0  0  0  0  0  0
   18.5742   -4.7395  -17.6059 C   0  0  0  0  0  0  0  0  0  0  0  0
   19.8793   -6.2060  -16.0840 C   0  0  0  0  0  0  0  0  0  0  0  0
   21.0101   -7.0621  -15.7102 C   0  0  2  0  0  0  0  0  0  0  0  0
   20.9723   -8.2342  -16.6090 N   0  0  0  0  0  0  0  0  0  0  0  0
   21.1974   -7.4529  -14.3287 C   0  0  0  0  0  0  0  0  0  0  0  0
   21.7866   -6.5051  -13.4498 O   0  0  0  0  0  0  0  0  0  0  0  0
   20.9092   -8.5336  -13.7754 O   0  0  0  0  0  0  0  0  0  0  0  0
  2  1  1  1
  2  3  1  0
  3  4  1  0
  4  5  1  0
  5  9  1  0
  6  5  2  0
  7 12  1  0
  7  2  1  0
  8  7  2  0
 11 10  1  6
 11 12  1  0
 11 13  1  0
 13 20  1  0
 14 13  2  0
 16 15  1  1
 17 16  1  0
 19 18  1  1
 18 16  1  0
 20 19  1  0
 21 19  1  0
 21 22  1  0
 23 21  2  0
M  END
$$$$
