EAL.pdb
     RDKit          3D

 23 22  0  0  1  0  0  0  0  0999 V2000
   16.0288  -10.0513  -18.2049 N   0  0  0  0  0  0  0  0  0  0  0  0
   16.2197   -9.5820  -16.8821 C   0  0  1  0  0  0  0  0  0  0  0  0
   16.5600  -10.6626  -15.8865 C   0  0  0  0  0  0  0  0  0  0  0  0
   15.4346  -11.6657  -15.7648 C   0  0  0  0  0  0  0  0  0  0  0  0
   15.8745  -12.7303  -14.8315 C   0  0  0  0  0  0  0  0  0  0  0  0
   15.0420  -13.5990  -14.4940 O   0  0  0  0  0  0  0  0  0  0  0  0
   17.1719   -8.4704  -16.7435 C   0  0  0  0  0  0  0  0  0  0  0  0
   18.3519   -8.6550  -17.1467 O   0  0  0  0  0  0  0  0  0  0  0  0
   17.1615  -12.7594  -14.3523 O   0  0  0  0  0  0  0  0  0  0  0  0
   17.1748   -4.8117  -15.7248 C   0  0  0  0  0  0  0  0  0  0  0  0
   17.8032   -6.1373  -15.9989 C   0  0  2  0  0  0  0  0  0  0  0  0
   16.8686   -7.2074  -16.1922 N   0  0  0  0  0  0  0  0  0  0  0  0
   18.8628   -6.4937  -14.9975 C   0  0  0  0  0  0  0  0  0  0  0  0
   18.5305   -6.9970  -13.8935 O   0  0  0  0  0  0  0  0  0  0  0  0
   23.6136   -9.7537  -14.8433 C   0  0  0  0  0  0  0  0  0  0  0  0
   22.8383   -8.7240  -14.0969 C   0  0  2  0  0  0  0  0  0  0  0  0
   22.2412   -9.3174  -12.8643 C   0  0  0  0  0  0  0  0  0  0  0  0
   21.9183   -7.8945  -14.8745 C   0  0  0  0  0  0  0  0  0  0  0  0
   21.3083   -6.6810  -14.3207 C   0  0  2  0  0  0  0  0  0  0  0  0
   20.2313   -6.2831  -15.2507 N   0  0  0  0  0  0  0  0  0  0  0  0
   22.1406   -5.5548  -13.9526 C   0  0  0  0  0  0  0  0  0  0  0  0
   22.6007   -5.4864  -12.6104 O   0  0  0  0  0  0  0  0  0  0  0  0
   22.5274   -4.6033  -14.6611 O   0  0  0  0  0  0  0  0  0  0  0  0
  2  1  1  6
  2  3  1  0
  3  4  1  0
  4  5  1  0
  5  9  1  0
  6  5  2  0
  7 12  1  0
  7  2  1  0
  8  7  2  0
 11 10  1  1
 11 12  1  0
 11 13  1  0
 13 20  1  0
 14 13  2  0
 16 15  1  6
 17 16  1  0
 19 18  1  6
 18 16  1  0
 20 19  1  0
 21 19  1  0
 21 22  1  0
 23 21  2  0
M  END
$$$$
