EAL.pdb
     RDKit          3D

 23 22  0  0  1  0  0  0  0  0999 V2000
   24.9167  -17.3457  -15.8162 N   0  0  0  0  0  0  0  0  0  0  0  0
   24.8318  -18.6295  -16.4090 C   0  0  1  0  0  0  0  0  0  0  0  0
   25.1901  -18.6581  -17.8737 C   0  0  0  0  0  0  0  0  0  0  0  0
   23.9516  -18.5899  -18.7393 C   0  0  0  0  0  0  0  0  0  0  0  0
   23.5199  -19.9792  -19.0241 C   0  0  0  0  0  0  0  0  0  0  0  0
   22.6528  -20.4903  -18.2836 O   0  0  0  0  0  0  0  0  0  0  0  0
   25.5620  -19.6936  -15.7049 C   0  0  0  0  0  0  0  0  0  0  0  0
   25.1955  -20.8840  -15.8987 O   0  0  0  0  0  0  0  0  0  0  0  0
   24.0589  -20.6834  -20.0731 O   0  0  0  0  0  0  0  0  0  0  0  0
   28.7699  -20.1787  -13.7947 C   0  0  0  0  0  0  0  0  0  0  0  0
   27.3530  -20.5161  -14.1198 C   0  0  2  0  0  0  0  0  0  0  0  0
   26.6457  -19.4873  -14.8249 N   0  0  0  0  0  0  0  0  0  0  0  0
   26.5859  -21.0054  -12.9261 C   0  0  0  0  0  0  0  0  0  0  0  0
   26.9923  -22.0168  -12.2981 O   0  0  0  0  0  0  0  0  0  0  0  0
   26.0779  -21.3780   -8.4807 C   0  0  0  0  0  0  0  0  0  0  0  0
   26.2283  -20.1205   -9.2647 C   0  0  2  0  0  0  0  0  0  0  0  0
   26.6319  -18.9967   -8.3691 C   0  0  0  0  0  0  0  0  0  0  0  0
   25.1540  -19.7908  -10.2008 C   0  0  0  0  0  0  0  0  0  0  0  0
   24.7064  -20.7317  -11.2332 C   0  0  2  0  0  0  0  0  0  0  0  0
   25.4143  -20.3670  -12.4778 N   0  0  0  0  0  0  0  0  0  0  0  0
   23.2915  -20.9363  -11.4627 C   0  0  0  0  0  0  0  0  0  0  0  0
   22.5350  -21.5365  -10.4208 O   0  0  0  0  0  0  0  0  0  0  0  0
   22.6140  -20.6551  -12.4720 O   0  0  0  0  0  0  0  0  0  0  0  0
  2  1  1  1
  2  3  1  0
  3  4  1  0
  4  5  1  0
  5  9  1  0
  6  5  2  0
  7 12  1  0
  7  2  1  0
  8  7  2  0
 11 10  1  1
 11 12  1  0
 11 13  1  0
 13 20  1  0
 14 13  2  0
 16 15  1  1
 17 16  1  0
 19 18  1  1
 18 16  1  0
 20 19  1  0
 21 19  1  0
 21 22  1  0
 23 21  2  0
M  END
$$$$
