EAL.pdb
     RDKit          3D

 23 22  0  0  1  0  0  0  0  0999 V2000
   13.1684   -8.6445   -9.1913 N   0  0  0  0  0  0  0  0  0  0  0  0
   14.5225   -8.7531   -9.5927 C   0  0  1  0  0  0  0  0  0  0  0  0
   14.7720   -9.8033  -10.6461 C   0  0  0  0  0  0  0  0  0  0  0  0
   14.4468  -11.1856  -10.1254 C   0  0  0  0  0  0  0  0  0  0  0  0
   14.5385  -12.1321  -11.2628 C   0  0  0  0  0  0  0  0  0  0  0  0
   15.5125  -12.9140  -11.3016 O   0  0  0  0  0  0  0  0  0  0  0  0
   15.1582   -7.4911   -9.9986 C   0  0  0  0  0  0  0  0  0  0  0  0
   14.7042   -6.9072  -11.0195 O   0  0  0  0  0  0  0  0  0  0  0  0
   13.5787  -12.1478  -12.2453 O   0  0  0  0  0  0  0  0  0  0  0  0
   17.0186   -4.5934   -8.8582 C   0  0  0  0  0  0  0  0  0  0  0  0
   16.9759   -5.7428   -9.8092 C   0  0  2  0  0  0  0  0  0  0  0  0
   16.2414   -6.8786   -9.3334 N   0  0  0  0  0  0  0  0  0  0  0  0
   18.3360   -6.1273  -10.3140 C   0  0  0  0  0  0  0  0  0  0  0  0
   18.8965   -7.1602   -9.8650 O   0  0  0  0  0  0  0  0  0  0  0  0
   20.5097   -9.1553  -13.9251 C   0  0  0  0  0  0  0  0  0  0  0  0
   20.9683   -7.9014  -13.2648 C   0  0  2  0  0  0  0  0  0  0  0  0
   22.2487   -8.1383  -12.5351 C   0  0  0  0  0  0  0  0  0  0  0  0
   19.9702   -7.1495  -12.5047 C   0  0  0  0  0  0  0  0  0  0  0  0
   20.2487   -5.8154  -11.9626 C   0  0  2  0  0  0  0  0  0  0  0  0
   19.0161   -5.3659  -11.2830 N   0  0  0  0  0  0  0  0  0  0  0  0
   20.7933   -4.7839  -12.8204 C   0  0  0  0  0  0  0  0  0  0  0  0
   19.8892   -4.0799  -13.6600 O   0  0  0  0  0  0  0  0  0  0  0  0
   21.9773   -4.4078  -12.9369 O   0  0  0  0  0  0  0  0  0  0  0  0
  2  1  1  6
  2  3  1  0
  3  4  1  0
  4  5  1  0
  5  9  1  0
  6  5  2  0
  7 12  1  0
  7  2  1  0
  8  7  2  0
 11 10  1  1
 11 12  1  0
 11 13  1  0
 13 20  1  0
 14 13  2  0
 16 15  1  1
 17 16  1  0
 19 18  1  6
 18 16  1  0
 20 19  1  0
 21 19  1  0
 21 22  1  0
 23 21  2  0
M  END
$$$$
