EAL.pdb
     RDKit          3D

 23 22  0  0  1  0  0  0  0  0999 V2000
   20.8486  -13.1844  -20.6532 N   0  0  0  0  0  0  0  0  0  0  0  0
   19.7264  -12.4253  -20.2397 C   0  0  1  0  0  0  0  0  0  0  0  0
   18.7635  -13.1780  -19.3560 C   0  0  0  0  0  0  0  0  0  0  0  0
   19.4357  -13.6312  -18.0791 C   0  0  0  0  0  0  0  0  0  0  0  0
   18.4655  -14.4606  -17.3251 C   0  0  0  0  0  0  0  0  0  0  0  0
   17.3289  -14.6306  -17.8160 O   0  0  0  0  0  0  0  0  0  0  0  0
   20.0407  -11.1263  -19.6271 C   0  0  0  0  0  0  0  0  0  0  0  0
   21.0562  -11.0586  -18.8833 O   0  0  0  0  0  0  0  0  0  0  0  0
   18.8080  -15.0257  -16.1209 O   0  0  0  0  0  0  0  0  0  0  0  0
   18.6540   -7.5763  -19.6045 C   0  0  0  0  0  0  0  0  0  0  0  0
   19.6126   -8.6628  -19.2468 C   0  0  2  0  0  0  0  0  0  0  0  0
   19.2922   -9.9435  -19.8063 N   0  0  0  0  0  0  0  0  0  0  0  0
   19.8693   -8.7455  -17.7704 C   0  0  0  0  0  0  0  0  0  0  0  0
   19.4286   -9.7259  -17.1169 O   0  0  0  0  0  0  0  0  0  0  0  0
   23.1730  -10.7559  -14.2790 C   0  0  0  0  0  0  0  0  0  0  0  0
   22.2082   -9.6218  -14.2397 C   0  0  2  0  0  0  0  0  0  0  0  0
   21.1785   -9.8537  -13.1843 C   0  0  0  0  0  0  0  0  0  0  0  0
   21.6684   -9.1665  -15.5205 C   0  0  0  0  0  0  0  0  0  0  0  0
   20.9977   -7.8700  -15.6648 C   0  0  2  0  0  0  0  0  0  0  0  0
   20.5937   -7.7547  -17.0813 N   0  0  0  0  0  0  0  0  0  0  0  0
   21.6442   -6.6634  -15.1929 C   0  0  0  0  0  0  0  0  0  0  0  0
   21.4289   -6.2864  -13.8403 O   0  0  0  0  0  0  0  0  0  0  0  0
   22.3871   -5.8786  -15.8167 O   0  0  0  0  0  0  0  0  0  0  0  0
  2  1  1  1
  2  3  1  0
  3  4  1  0
  4  5  1  0
  5  9  1  0
  6  5  2  0
  7 12  1  0
  7  2  1  0
  8  7  2  0
 11 10  1  1
 11 12  1  0
 11 13  1  0
 13 20  1  0
 14 13  2  0
 16 15  1  6
 17 16  1  0
 19 18  1  6
 18 16  1  0
 20 19  1  0
 21 19  1  0
 21 22  1  0
 23 21  2  0
M  END
$$$$
