EAL.pdb
     RDKit          3D

 23 22  0  0  1  0  0  0  0  0999 V2000
   24.3239  -22.6194  -14.3663 N   0  0  0  0  0  0  0  0  0  0  0  0
   24.4822  -22.9428  -15.7364 C   0  0  1  0  0  0  0  0  0  0  0  0
   25.9170  -22.9834  -16.1994 C   0  0  0  0  0  0  0  0  0  0  0  0
   26.6119  -21.6657  -15.9375 C   0  0  0  0  0  0  0  0  0  0  0  0
   27.9819  -21.7561  -16.4966 C   0  0  0  0  0  0  0  0  0  0  0  0
   28.3523  -22.8496  -16.9747 O   0  0  0  0  0  0  0  0  0  0  0  0
   23.7908  -24.1637  -16.1754 C   0  0  0  0  0  0  0  0  0  0  0  0
   23.7185  -25.1224  -15.3601 O   0  0  0  0  0  0  0  0  0  0  0  0
   28.8193  -20.6673  -16.4887 O   0  0  0  0  0  0  0  0  0  0  0  0
   21.6998  -25.3939  -19.0896 C   0  0  0  0  0  0  0  0  0  0  0  0
   22.6032  -25.5648  -17.9141 C   0  0  2  0  0  0  0  0  0  0  0  0
   23.1991  -24.3487  -17.4430 N   0  0  0  0  0  0  0  0  0  0  0  0
   23.6245  -26.6449  -18.1211 C   0  0  0  0  0  0  0  0  0  0  0  0
   24.7915  -26.3370  -18.4760 O   0  0  0  0  0  0  0  0  0  0  0  0
   27.3770  -29.7961  -18.1209 C   0  0  0  0  0  0  0  0  0  0  0  0
   26.7623  -28.6721  -17.3609 C   0  0  2  0  0  0  0  0  0  0  0  0
   27.6428  -28.2729  -16.2237 C   0  0  0  0  0  0  0  0  0  0  0  0
   25.3479  -28.8031  -17.0125 C   0  0  0  0  0  0  0  0  0  0  0  0
   24.3221  -29.0896  -18.0210 C   0  0  2  0  0  0  0  0  0  0  0  0
   23.3216  -28.0061  -17.9306 N   0  0  0  0  0  0  0  0  0  0  0  0
   23.6955  -30.3941  -18.0667 C   0  0  0  0  0  0  0  0  0  0  0  0
   24.1497  -31.3090  -19.0540 O   0  0  0  0  0  0  0  0  0  0  0  0
   22.7860  -30.8509  -17.3449 O   0  0  0  0  0  0  0  0  0  0  0  0
  2  1  1  1
  2  3  1  0
  3  4  1  0
  4  5  1  0
  5  9  1  0
  6  5  2  0
  7 12  1  0
  7  2  1  0
  8  7  2  0
 11 10  1  6
 11 12  1  0
 11 13  1  0
 13 20  1  0
 14 13  2  0
 16 15  1  1
 17 16  1  0
 19 18  1  1
 18 16  1  0
 20 19  1  0
 21 19  1  0
 21 22  1  0
 23 21  2  0
M  END
$$$$
