EAL.pdb
     RDKit          3D

 23 22  0  0  1  0  0  0  0  0999 V2000
   18.9717  -12.5965  -18.7796 N   0  0  0  0  0  0  0  0  0  0  0  0
   18.5024  -11.4461  -18.0990 C   0  0  1  0  0  0  0  0  0  0  0  0
   17.9218  -11.7289  -16.7361 C   0  0  0  0  0  0  0  0  0  0  0  0
   16.7249  -12.6484  -16.8336 C   0  0  0  0  0  0  0  0  0  0  0  0
   16.2895  -12.9743  -15.4544 C   0  0  0  0  0  0  0  0  0  0  0  0
   16.8585  -13.9175  -14.8642 O   0  0  0  0  0  0  0  0  0  0  0  0
   19.4660  -10.3400  -18.0014 C   0  0  0  0  0  0  0  0  0  0  0  0
   20.6618  -10.6263  -17.7238 O   0  0  0  0  0  0  0  0  0  0  0  0
   15.2886  -12.2585  -14.8440 O   0  0  0  0  0  0  0  0  0  0  0  0
   19.6139   -6.6211  -18.7366 C   0  0  0  0  0  0  0  0  0  0  0  0
   20.0921   -7.8924  -18.1183 C   0  0  2  0  0  0  0  0  0  0  0  0
   19.1571   -8.9767  -18.1943 N   0  0  0  0  0  0  0  0  0  0  0  0
   20.6118   -7.6983  -16.7238 C   0  0  0  0  0  0  0  0  0  0  0  0
   19.8088   -7.7008  -15.7554 O   0  0  0  0  0  0  0  0  0  0  0  0
   23.1507  -10.2182  -14.1327 C   0  0  0  0  0  0  0  0  0  0  0  0
   23.9489   -9.4384  -15.1193 C   0  0  2  0  0  0  0  0  0  0  0  0
   25.3533   -9.9421  -15.1637 C   0  0  0  0  0  0  0  0  0  0  0  0
   23.8313   -7.9816  -15.0634 C   0  0  0  0  0  0  0  0  0  0  0  0
   22.5306   -7.3047  -15.0999 C   0  0  2  0  0  0  0  0  0  0  0  0
   21.9808   -7.5111  -16.4558 N   0  0  0  0  0  0  0  0  0  0  0  0
   22.4212   -5.9224  -14.6829 C   0  0  0  0  0  0  0  0  0  0  0  0
   22.4411   -5.6513  -13.2886 O   0  0  0  0  0  0  0  0  0  0  0  0
   22.3084   -4.8992  -15.3880 O   0  0  0  0  0  0  0  0  0  0  0  0
  2  1  1  1
  2  3  1  0
  3  4  1  0
  4  5  1  0
  5  9  1  0
  6  5  2  0
  7 12  1  0
  7  2  1  0
  8  7  2  0
 11 10  1  1
 11 12  1  0
 11 13  1  0
 13 20  1  0
 14 13  2  0
 16 15  1  1
 17 16  1  0
 19 18  1  6
 18 16  1  0
 20 19  1  0
 21 19  1  0
 21 22  1  0
 23 21  2  0
M  END
$$$$
