EAL.pdb
     RDKit          3D

 23 22  0  0  1  0  0  0  0  0999 V2000
   32.8642  -32.4930  -15.9517 N   0  0  0  0  0  0  0  0  0  0  0  0
   31.6592  -32.8663  -16.5961 C   0  0  1  0  0  0  0  0  0  0  0  0
   31.5913  -34.3225  -16.9829 C   0  0  0  0  0  0  0  0  0  0  0  0
   31.5037  -35.2079  -15.7597 C   0  0  0  0  0  0  0  0  0  0  0  0
   31.9720  -36.5609  -16.1443 C   0  0  0  0  0  0  0  0  0  0  0  0
   32.3155  -36.7504  -17.3308 O   0  0  0  0  0  0  0  0  0  0  0  0
   30.4275  -32.4895  -15.8873 C   0  0  0  0  0  0  0  0  0  0  0  0
   30.5197  -32.2002  -14.6639 O   0  0  0  0  0  0  0  0  0  0  0  0
   32.0261  -37.5764  -15.2210 O   0  0  0  0  0  0  0  0  0  0  0  0
   27.0279  -31.2171  -16.8053 C   0  0  0  0  0  0  0  0  0  0  0  0
   27.9764  -31.8671  -15.8539 C   0  0  2  0  0  0  0  0  0  0  0  0
   29.1441  -32.4260  -16.4704 N   0  0  0  0  0  0  0  0  0  0  0  0
   27.3001  -32.8493  -14.9426 C   0  0  0  0  0  0  0  0  0  0  0  0
   27.4878  -34.0821  -15.1086 O   0  0  0  0  0  0  0  0  0  0  0  0
   24.3332  -34.2920  -10.3966 C   0  0  0  0  0  0  0  0  0  0  0  0
   25.5515  -33.4351  -10.3912 C   0  0  2  0  0  0  0  0  0  0  0  0
   25.5867  -32.5921   -9.1599 C   0  0  0  0  0  0  0  0  0  0  0  0
   25.8600  -32.7141  -11.6258 C   0  0  0  0  0  0  0  0  0  0  0  0
   25.8211  -33.3677  -12.9383 C   0  0  2  0  0  0  0  0  0  0  0  0
   26.4534  -32.4375  -13.8964 N   0  0  0  0  0  0  0  0  0  0  0  0
   24.5728  -33.8947  -13.4486 C   0  0  0  0  0  0  0  0  0  0  0  0
   24.2859  -35.2640  -13.2023 O   0  0  0  0  0  0  0  0  0  0  0  0
   23.6810  -33.3069  -14.0937 O   0  0  0  0  0  0  0  0  0  0  0  0
  2  1  1  1
  2  3  1  0
  3  4  1  0
  4  5  1  0
  5  9  1  0
  6  5  2  0
  7 12  1  0
  7  2  1  0
  8  7  2  0
 11 10  1  6
 11 12  1  0
 11 13  1  0
 13 20  1  0
 14 13  2  0
 16 15  1  6
 17 16  1  0
 19 18  1  1
 18 16  1  0
 20 19  1  0
 21 19  1  0
 21 22  1  0
 23 21  2  0
M  END
$$$$
