EAL.pdb
     RDKit          3D

 23 22  0  0  1  0  0  0  0  0999 V2000
   16.9943  -13.6314  -19.1443 N   0  0  0  0  0  0  0  0  0  0  0  0
   17.6047  -13.1272  -17.9696 C   0  0  1  0  0  0  0  0  0  0  0  0
   18.0403  -14.1921  -16.9943 C   0  0  0  0  0  0  0  0  0  0  0  0
   16.8492  -14.9321  -16.4273 C   0  0  0  0  0  0  0  0  0  0  0  0
   17.3608  -15.9935  -15.5275 C   0  0  0  0  0  0  0  0  0  0  0  0
   17.0278  -17.1751  -15.7611 O   0  0  0  0  0  0  0  0  0  0  0  0
   18.7113  -12.1857  -18.1938 C   0  0  0  0  0  0  0  0  0  0  0  0
   19.5971  -12.5097  -19.0301 O   0  0  0  0  0  0  0  0  0  0  0  0
   18.1778  -15.6848  -14.4673 O   0  0  0  0  0  0  0  0  0  0  0  0
   19.4203   -8.8615  -18.7313 C   0  0  0  0  0  0  0  0  0  0  0  0
   19.8713   -9.9669  -17.8359 C   0  0  2  0  0  0  0  0  0  0  0  0
   18.8617  -10.9422  -17.5438 N   0  0  0  0  0  0  0  0  0  0  0  0
   20.5424   -9.4659  -16.5905 C   0  0  0  0  0  0  0  0  0  0  0  0
   19.8707   -9.3258  -15.5360 O   0  0  0  0  0  0  0  0  0  0  0  0
   24.2159  -10.6779  -13.8899 C   0  0  0  0  0  0  0  0  0  0  0  0
   24.5217  -10.1030  -15.2296 C   0  0  2  0  0  0  0  0  0  0  0  0
   25.9688  -10.2782  -15.5506 C   0  0  0  0  0  0  0  0  0  0  0  0
   23.9977   -8.7671  -15.5126 C   0  0  0  0  0  0  0  0  0  0  0  0
   22.5666   -8.4585  -15.4237 C   0  0  2  0  0  0  0  0  0  0  0  0
   21.9119   -9.1428  -16.5579 N   0  0  0  0  0  0  0  0  0  0  0  0
   22.1280   -7.0838  -15.3030 C   0  0  0  0  0  0  0  0  0  0  0  0
   22.1406   -6.4995  -14.0082 O   0  0  0  0  0  0  0  0  0  0  0  0
   21.7272   -6.3093  -16.1953 O   0  0  0  0  0  0  0  0  0  0  0  0
  2  1  1  6
  2  3  1  0
  3  4  1  0
  4  5  1  0
  5  9  1  0
  6  5  2  0
  7 12  1  0
  7  2  1  0
  8  7  2  0
 11 10  1  1
 11 12  1  0
 11 13  1  0
 13 20  1  0
 14 13  2  0
 16 15  1  1
 17 16  1  0
 19 18  1  6
 18 16  1  0
 20 19  1  0
 21 19  1  0
 21 22  1  0
 23 21  2  0
M  END
$$$$
