EAL.pdb
     RDKit          3D

 23 22  0  0  1  0  0  0  0  0999 V2000
   17.7604  -11.9836  -15.8414 N   0  0  0  0  0  0  0  0  0  0  0  0
   18.7068  -11.1726  -16.5148 C   0  0  1  0  0  0  0  0  0  0  0  0
   18.0996  -10.1948  -17.4895 C   0  0  0  0  0  0  0  0  0  0  0  0
   17.3169  -10.9132  -18.5661 C   0  0  0  0  0  0  0  0  0  0  0  0
   16.7327   -9.8877  -19.4632 C   0  0  0  0  0  0  0  0  0  0  0  0
   17.0347   -9.9241  -20.6753 O   0  0  0  0  0  0  0  0  0  0  0  0
   19.6601  -10.4690  -15.6445 C   0  0  0  0  0  0  0  0  0  0  0  0
   19.1938   -9.8006  -14.6828 O   0  0  0  0  0  0  0  0  0  0  0  0
   15.8833   -8.9253  -18.9742 O   0  0  0  0  0  0  0  0  0  0  0  0
   23.4042  -10.1889  -15.1067 C   0  0  0  0  0  0  0  0  0  0  0  0
   21.9932   -9.7084  -15.0323 C   0  0  2  0  0  0  0  0  0  0  0  0
   21.0625  -10.4822  -15.8010 N   0  0  0  0  0  0  0  0  0  0  0  0
   21.8663   -8.2396  -15.3133 C   0  0  0  0  0  0  0  0  0  0  0  0
   21.5661   -7.8522  -16.4719 O   0  0  0  0  0  0  0  0  0  0  0  0
   20.2163   -3.2001  -14.4503 C   0  0  0  0  0  0  0  0  0  0  0  0
   20.1021   -4.2769  -15.4731 C   0  0  2  0  0  0  0  0  0  0  0  0
   18.7407   -4.2681  -16.0849 C   0  0  0  0  0  0  0  0  0  0  0  0
   20.5856   -5.6043  -15.0945 C   0  0  0  0  0  0  0  0  0  0  0  0
   21.9292   -5.8149  -14.5451 C   0  0  2  0  0  0  0  0  0  0  0  0
   22.0732   -7.2675  -14.3167 N   0  0  0  0  0  0  0  0  0  0  0  0
   22.3726   -5.0467  -13.4007 C   0  0  0  0  0  0  0  0  0  0  0  0
   22.8686   -3.7369  -13.6383 O   0  0  0  0  0  0  0  0  0  0  0  0
   22.3848   -5.3732  -12.1965 O   0  0  0  0  0  0  0  0  0  0  0  0
  2  1  1  1
  2  3  1  0
  3  4  1  0
  4  5  1  0
  5  9  1  0
  6  5  2  0
  7 12  1  0
  7  2  1  0
  8  7  2  0
 11 10  1  6
 11 12  1  0
 11 13  1  0
 13 20  1  0
 14 13  2  0
 16 15  1  1
 17 16  1  0
 19 18  1  1
 18 16  1  0
 20 19  1  0
 21 19  1  0
 21 22  1  0
 23 21  2  0
M  END
$$$$
