MGQ.pdb
     RDKit          3D

 22 21  0  0  1  0  0  0  0  0999 V2000
   27.2859  -18.7615   -7.1783 C   0  0  0  0  0  0  0  0  0  0  0  0
   27.3252  -20.5107   -7.6127 S   0  0  0  0  0  0  0  0  0  0  0  0
   28.5103  -20.8379   -8.9352 C   0  0  0  0  0  0  0  0  0  0  0  0
   27.9925  -20.3239  -10.2758 C   0  0  0  0  0  0  0  0  0  0  0  0
   26.7736  -21.1163  -10.6468 C   0  0  2  0  0  0  0  0  0  0  0  0
   27.1499  -22.5121  -10.8045 N   0  0  0  0  0  0  0  0  0  0  0  0
   26.1944  -20.6160  -11.9042 C   0  0  0  0  0  0  0  0  0  0  0  0
   25.6032  -19.4970  -11.9249 O   0  0  0  0  0  0  0  0  0  0  0  0
   26.2656  -21.3418  -13.1271 N   0  0  0  0  0  0  0  0  0  0  0  0
   25.6693  -20.7838  -14.3185 C   0  0  0  0  0  0  0  0  0  0  0  0
   24.2345  -21.1353  -14.4012 C   0  0  0  0  0  0  0  0  0  0  0  0
   23.9272  -22.2400  -14.9354 O   0  0  0  0  0  0  0  0  0  0  0  0
   19.3122  -23.1488  -13.2180 N   0  0  0  0  0  0  0  0  0  0  0  0
   19.5050  -22.1875  -12.1896 C   0  0  0  0  0  0  0  0  0  0  0  0
   19.4578  -22.5862  -11.0049 O   0  0  0  0  0  0  0  0  0  0  0  0
   19.7515  -20.7712  -12.4777 C   0  0  0  0  0  0  0  0  0  0  0  0
   21.1748  -20.3729  -12.6211 C   0  0  0  0  0  0  0  0  0  0  0  0
   21.8396  -20.7535  -13.9057 C   0  0  2  0  0  0  0  0  0  0  0  0
   23.2156  -20.2817  -13.9064 N   0  0  0  0  0  0  0  0  0  0  0  0
   21.1198  -20.2576  -15.1148 C   0  0  0  0  0  0  0  0  0  0  0  0
   20.3930  -21.0255  -15.7883 O   0  0  0  0  0  0  0  0  0  0  0  0
   21.2217  -18.9348  -15.5447 O   0  0  0  0  0  0  0  0  0  0  0  0
  2  1  1  0
  3  2  1  0
  3  4  1  0
  4  5  1  0
  5  7  1  0
  5  6  1  6
  7  8  2  0
  9 10  1  0
  9  7  1  0
 10 11  1  0
 11 12  2  0
 11 19  1  0
 14 13  1  0
 14 15  2  0
 16 17  1  0
 16 14  1  0
 18 20  1  0
 18 17  1  1
 19 18  1  0
 20 22  1  0
 21 20  2  0
M  END
$$$$
