MGQ.pdb
     RDKit          3D

 22 21  0  0  1  0  0  0  0  0999 V2000
   29.1334  -19.7831   -5.3042 C   0  0  0  0  0  0  0  0  0  0  0  0
   28.0677  -18.9037   -6.4622 S   0  0  0  0  0  0  0  0  0  0  0  0
   26.6297  -19.8945   -6.9218 C   0  0  0  0  0  0  0  0  0  0  0  0
   26.9707  -20.8678   -8.0470 C   0  0  0  0  0  0  0  0  0  0  0  0
   26.3106  -20.3855   -9.3051 C   0  0  2  0  0  0  0  0  0  0  0  0
   24.8698  -20.5206   -9.1621 N   0  0  0  0  0  0  0  0  0  0  0  0
   26.7675  -21.1713  -10.4629 C   0  0  0  0  0  0  0  0  0  0  0  0
   26.3139  -22.3377  -10.6522 O   0  0  0  0  0  0  0  0  0  0  0  0
   27.7154  -20.6767  -11.4034 N   0  0  0  0  0  0  0  0  0  0  0  0
   27.2525  -19.9359  -12.5537 C   0  0  0  0  0  0  0  0  0  0  0  0
   26.4457  -20.7993  -13.4441 C   0  0  0  0  0  0  0  0  0  0  0  0
   26.0298  -21.9004  -12.9804 O   0  0  0  0  0  0  0  0  0  0  0  0
   21.0183  -19.2776  -14.2440 N   0  0  0  0  0  0  0  0  0  0  0  0
   21.6352  -20.1491  -13.3064 C   0  0  0  0  0  0  0  0  0  0  0  0
   20.9127  -20.6523  -12.4178 O   0  0  0  0  0  0  0  0  0  0  0  0
   23.0662  -20.4645  -13.3543 C   0  0  0  0  0  0  0  0  0  0  0  0
   23.8653  -19.7184  -14.3591 C   0  0  0  0  0  0  0  0  0  0  0  0
   24.7566  -20.5405  -15.2348 C   0  0  2  0  0  0  0  0  0  0  0  0
   26.1331  -20.4306  -14.7775 N   0  0  0  0  0  0  0  0  0  0  0  0
   24.6594  -20.1839  -16.6803 C   0  0  0  0  0  0  0  0  0  0  0  0
   25.3198  -19.2277  -17.1506 O   0  0  0  0  0  0  0  0  0  0  0  0
   23.8403  -20.8890  -17.5618 O   0  0  0  0  0  0  0  0  0  0  0  0
  2  1  1  0
  3  2  1  0
  3  4  1  0
  4  5  1  0
  5  7  1  0
  5  6  1  1
  7  8  2  0
  9 10  1  0
  9  7  1  0
 10 11  1  0
 11 12  2  0
 11 19  1  0
 14 13  1  0
 14 15  2  0
 16 17  1  0
 16 14  1  0
 18 20  1  0
 18 17  1  1
 19 18  1  0
 20 22  1  0
 21 20  2  0
M  END
$$$$
