MGQ.pdb
     RDKit          3D

 22 21  0  0  1  0  0  0  0  0999 V2000
   27.8439  -18.6627   -7.3534 C   0  0  0  0  0  0  0  0  0  0  0  0
   27.2229  -20.2662   -7.8952 S   0  0  0  0  0  0  0  0  0  0  0  0
   28.4131  -21.1124   -8.9572 C   0  0  0  0  0  0  0  0  0  0  0  0
   28.4305  -20.5032  -10.3566 C   0  0  0  0  0  0  0  0  0  0  0  0
   27.1539  -20.8773  -11.0506 C   0  0  2  0  0  0  0  0  0  0  0  0
   27.0681  -22.3268  -11.1287 N   0  0  0  0  0  0  0  0  0  0  0  0
   27.1161  -20.3067  -12.4070 C   0  0  0  0  0  0  0  0  0  0  0  0
   26.8111  -19.0892  -12.5708 O   0  0  0  0  0  0  0  0  0  0  0  0
   27.4115  -21.0703  -13.5720 N   0  0  0  0  0  0  0  0  0  0  0  0
   27.1901  -20.4890  -14.8756 C   0  0  0  0  0  0  0  0  0  0  0  0
   25.7706  -20.6166  -15.2729 C   0  0  0  0  0  0  0  0  0  0  0  0
   25.4589  -21.5618  -16.0538 O   0  0  0  0  0  0  0  0  0  0  0  0
   22.9419  -20.9222  -10.2139 N   0  0  0  0  0  0  0  0  0  0  0  0
   21.8681  -21.1613  -11.1132 C   0  0  0  0  0  0  0  0  0  0  0  0
   20.7839  -21.5580  -10.6316 O   0  0  0  0  0  0  0  0  0  0  0  0
   21.9982  -20.9594  -12.5595 C   0  0  0  0  0  0  0  0  0  0  0  0
   23.3234  -20.4883  -13.0358 C   0  0  0  0  0  0  0  0  0  0  0  0
   23.4468  -20.2441  -14.5063 C   0  0  2  0  0  0  0  0  0  0  0  0
   24.7709  -19.7237  -14.8093 N   0  0  0  0  0  0  0  0  0  0  0  0
   22.3949  -19.3341  -15.0459 C   0  0  0  0  0  0  0  0  0  0  0  0
   21.2098  -19.7246  -15.1672 O   0  0  0  0  0  0  0  0  0  0  0  0
   22.6788  -18.0251  -15.4347 O   0  0  0  0  0  0  0  0  0  0  0  0
  2  1  1  0
  3  2  1  0
  3  4  1  0
  4  5  1  0
  5  7  1  0
  5  6  1  6
  7  8  2  0
  9 10  1  0
  9  7  1  0
 10 11  1  0
 11 12  2  0
 11 19  1  0
 14 13  1  0
 14 15  2  0
 16 17  1  0
 16 14  1  0
 18 20  1  0
 18 17  1  1
 19 18  1  0
 20 22  1  0
 21 20  2  0
M  END
$$$$
