MGQ.pdb
     RDKit          3D

 22 21  0  0  1  0  0  0  0  0999 V2000
   21.4845  -16.8106    0.8845 C   0  0  0  0  0  0  0  0  0  0  0  0
   21.0019  -18.5279    0.6233 S   0  0  0  0  0  0  0  0  0  0  0  0
   19.2177  -18.6867    0.3949 C   0  0  0  0  0  0  0  0  0  0  0  0
   18.4588  -17.7569    1.3380 C   0  0  0  0  0  0  0  0  0  0  0  0
   18.0528  -18.5423    2.5502 C   0  0  2  0  0  0  0  0  0  0  0  0
   17.1462  -19.6033    2.1417 N   0  0  0  0  0  0  0  0  0  0  0  0
   17.3837  -17.6715    3.5305 C   0  0  0  0  0  0  0  0  0  0  0  0
   16.1196  -17.6219    3.5707 O   0  0  0  0  0  0  0  0  0  0  0  0
   18.1007  -16.8630    4.4577 N   0  0  0  0  0  0  0  0  0  0  0  0
   17.7897  -16.9530    5.8654 C   0  0  0  0  0  0  0  0  0  0  0  0
   18.7893  -16.2181    6.6717 C   0  0  0  0  0  0  0  0  0  0  0  0
   19.9484  -16.7150    6.7707 O   0  0  0  0  0  0  0  0  0  0  0  0
   19.7073  -11.1439    5.4427 N   0  0  0  0  0  0  0  0  0  0  0  0
   20.9029  -11.4991    6.1235 C   0  0  0  0  0  0  0  0  0  0  0  0
   21.9811  -11.0466    5.6791 O   0  0  0  0  0  0  0  0  0  0  0  0
   20.9026  -12.3645    7.3069 C   0  0  0  0  0  0  0  0  0  0  0  0
   19.5789  -12.8829    7.7357 C   0  0  0  0  0  0  0  0  0  0  0  0
   19.5246  -14.3332    8.0975 C   0  0  2  0  0  0  0  0  0  0  0  0
   18.4864  -14.9951    7.3229 N   0  0  0  0  0  0  0  0  0  0  0  0
   19.3173  -14.5726    9.5554 C   0  0  0  0  0  0  0  0  0  0  0  0
   18.2407  -15.0552    9.9793 O   0  0  0  0  0  0  0  0  0  0  0  0
   20.2989  -14.2741   10.5001 O   0  0  0  0  0  0  0  0  0  0  0  0
  2  1  1  0
  3  2  1  0
  3  4  1  0
  4  5  1  0
  5  7  1  0
  5  6  1  6
  7  8  2  0
  9 10  1  0
  9  7  1  0
 10 11  1  0
 11 12  2  0
 11 19  1  0
 14 13  1  0
 14 15  2  0
 16 17  1  0
 16 14  1  0
 18 20  1  0
 18 17  1  1
 19 18  1  0
 20 22  1  0
 21 20  2  0
M  END
$$$$
