MGQ.pdb
     RDKit          3D

 22 21  0  0  1  0  0  0  0  0999 V2000
   30.6416  -23.0095   -9.2625 C   0  0  0  0  0  0  0  0  0  0  0  0
   31.8562  -21.8649   -9.9440 S   0  0  0  0  0  0  0  0  0  0  0  0
   31.2589  -21.0931  -11.4633 C   0  0  0  0  0  0  0  0  0  0  0  0
   29.8214  -20.6058  -11.3030 C   0  0  0  0  0  0  0  0  0  0  0  0
   28.9493  -21.3909  -12.2381 C   0  0  2  0  0  0  0  0  0  0  0  0
   29.3720  -21.1316  -13.6050 N   0  0  0  0  0  0  0  0  0  0  0  0
   27.5381  -21.0049  -12.0760 C   0  0  0  0  0  0  0  0  0  0  0  0
   26.8591  -20.6579  -13.0863 O   0  0  0  0  0  0  0  0  0  0  0  0
   26.8811  -21.0012  -10.8128 N   0  0  0  0  0  0  0  0  0  0  0  0
   25.4936  -21.3949  -10.7341 C   0  0  0  0  0  0  0  0  0  0  0  0
   24.6193  -20.3571  -11.3238 C   0  0  0  0  0  0  0  0  0  0  0  0
   25.0918  -19.1907  -11.4523 O   0  0  0  0  0  0  0  0  0  0  0  0
   24.5572  -18.1347  -14.1890 N   0  0  0  0  0  0  0  0  0  0  0  0
   24.3157  -18.8442  -15.3962 C   0  0  0  0  0  0  0  0  0  0  0  0
   24.4725  -18.2284  -16.4737 O   0  0  0  0  0  0  0  0  0  0  0  0
   23.8957  -20.2488  -15.4083 C   0  0  0  0  0  0  0  0  0  0  0  0
   23.7983  -20.9120  -14.0833 C   0  0  0  0  0  0  0  0  0  0  0  0
   22.8862  -20.2670  -13.0887 C   0  0  2  0  0  0  0  0  0  0  0  0
   23.2916  -20.6319  -11.7402 N   0  0  0  0  0  0  0  0  0  0  0  0
   21.4470  -20.5949  -13.3051 C   0  0  0  0  0  0  0  0  0  0  0  0
   21.0584  -21.7864  -13.3359 O   0  0  0  0  0  0  0  0  0  0  0  0
   20.4816  -19.6037  -13.4805 O   0  0  0  0  0  0  0  0  0  0  0  0
  2  1  1  0
  3  2  1  0
  3  4  1  0
  4  5  1  0
  5  7  1  0
  5  6  1  6
  7  8  2  0
  9 10  1  0
  9  7  1  0
 10 11  1  0
 11 12  2  0
 11 19  1  0
 14 13  1  0
 14 15  2  0
 16 17  1  0
 16 14  1  0
 18 20  1  0
 18 17  1  6
 19 18  1  0
 20 22  1  0
 21 20  2  0
M  END
$$$$
