MGQ.pdb
     RDKit          3D

 22 21  0  0  1  0  0  0  0  0999 V2000
   27.1076  -19.8785   -3.1693 C   0  0  0  0  0  0  0  0  0  0  0  0
   28.4438  -19.9718   -4.3761 S   0  0  0  0  0  0  0  0  0  0  0  0
   28.0480  -19.0456   -5.8748 C   0  0  0  0  0  0  0  0  0  0  0  0
   27.0170  -19.7866   -6.7218 C   0  0  0  0  0  0  0  0  0  0  0  0
   27.7472  -20.6854   -7.6759 C   0  0  2  0  0  0  0  0  0  0  0  0
   28.9144  -19.9829   -8.1843 N   0  0  0  0  0  0  0  0  0  0  0  0
   26.8739  -21.0680   -8.7973 C   0  0  0  0  0  0  0  0  0  0  0  0
   25.8649  -21.8032   -8.5886 O   0  0  0  0  0  0  0  0  0  0  0  0
   27.1100  -20.6447  -10.1362 N   0  0  0  0  0  0  0  0  0  0  0  0
   26.3706  -21.2583  -11.2146 C   0  0  0  0  0  0  0  0  0  0  0  0
   25.0054  -20.6945  -11.3022 C   0  0  0  0  0  0  0  0  0  0  0  0
   24.6703  -19.8241  -10.4476 O   0  0  0  0  0  0  0  0  0  0  0  0
   22.3098  -19.0042  -16.5905 N   0  0  0  0  0  0  0  0  0  0  0  0
   21.3206  -18.7322  -15.6073 C   0  0  0  0  0  0  0  0  0  0  0  0
   20.2775  -18.1496  -15.9778 O   0  0  0  0  0  0  0  0  0  0  0  0
   21.4903  -19.1090  -14.2006 C   0  0  0  0  0  0  0  0  0  0  0  0
   22.7169  -19.8800  -13.8752 C   0  0  0  0  0  0  0  0  0  0  0  0
   22.8455  -20.3480  -12.4604 C   0  0  2  0  0  0  0  0  0  0  0  0
   24.0819  -21.0975  -12.3004 N   0  0  0  0  0  0  0  0  0  0  0  0
   21.6824  -21.1594  -11.9969 C   0  0  0  0  0  0  0  0  0  0  0  0
   21.6710  -22.4046  -12.1415 O   0  0  0  0  0  0  0  0  0  0  0  0
   20.5702  -20.5768  -11.3898 O   0  0  0  0  0  0  0  0  0  0  0  0
  2  1  1  0
  3  2  1  0
  3  4  1  0
  4  5  1  0
  5  7  1  0
  5  6  1  6
  7  8  2  0
  9 10  1  0
  9  7  1  0
 10 11  1  0
 11 12  2  0
 11 19  1  0
 14 13  1  0
 14 15  2  0
 16 17  1  0
 16 14  1  0
 18 20  1  0
 18 17  1  6
 19 18  1  0
 20 22  1  0
 21 20  2  0
M  END
$$$$
