MGQ.pdb
     RDKit          3D

 22 21  0  0  1  0  0  0  0  0999 V2000
   26.8950  -18.8268   -7.8754 C   0  0  0  0  0  0  0  0  0  0  0  0
   27.4724  -20.4939   -7.5045 S   0  0  0  0  0  0  0  0  0  0  0  0
   27.6954  -21.4672   -9.0090 C   0  0  0  0  0  0  0  0  0  0  0  0
   27.6610  -20.5773  -10.2485 C   0  0  0  0  0  0  0  0  0  0  0  0
   26.4163  -20.8950  -11.0238 C   0  0  2  0  0  0  0  0  0  0  0  0
   26.4668  -22.2856  -11.4458 N   0  0  0  0  0  0  0  0  0  0  0  0
   26.3066  -20.0241  -12.2055 C   0  0  0  0  0  0  0  0  0  0  0  0
   25.7656  -18.8845  -12.1011 O   0  0  0  0  0  0  0  0  0  0  0  0
   26.7882  -20.4052  -13.4901 N   0  0  0  0  0  0  0  0  0  0  0  0
   26.5614  -19.5337  -14.6196 C   0  0  0  0  0  0  0  0  0  0  0  0
   25.2026  -19.7318  -15.1706 C   0  0  0  0  0  0  0  0  0  0  0  0
   25.0889  -20.4136  -16.2301 O   0  0  0  0  0  0  0  0  0  0  0  0
   20.1608  -20.8298  -11.7057 N   0  0  0  0  0  0  0  0  0  0  0  0
   20.6363  -21.7866  -12.6424 C   0  0  0  0  0  0  0  0  0  0  0  0
   20.2716  -22.9742  -12.4963 O   0  0  0  0  0  0  0  0  0  0  0  0
   21.5249  -21.4231  -13.7505 C   0  0  0  0  0  0  0  0  0  0  0  0
   21.8783  -19.9849  -13.8584 C   0  0  0  0  0  0  0  0  0  0  0  0
   22.7352  -19.6022  -15.0231 C   0  0  2  0  0  0  0  0  0  0  0  0
   24.0478  -19.1873  -14.5530 N   0  0  0  0  0  0  0  0  0  0  0  0
   22.1308  -18.5408  -15.8797 C   0  0  0  0  0  0  0  0  0  0  0  0
   21.4863  -18.8400  -16.9125 O   0  0  0  0  0  0  0  0  0  0  0  0
   22.2539  -17.1855  -15.5742 O   0  0  0  0  0  0  0  0  0  0  0  0
  2  1  1  0
  3  2  1  0
  3  4  1  0
  4  5  1  0
  5  7  1  0
  5  6  1  6
  7  8  2  0
  9 10  1  0
  9  7  1  0
 10 11  1  0
 11 12  2  0
 11 19  1  0
 14 13  1  0
 14 15  2  0
 16 17  1  0
 16 14  1  0
 18 20  1  0
 18 17  1  1
 19 18  1  0
 20 22  1  0
 21 20  2  0
M  END
$$$$
