MGQ.pdb
     RDKit          3D

 22 21  0  0  1  0  0  0  0  0999 V2000
   25.3953  -19.8003   -9.2377 C   0  0  0  0  0  0  0  0  0  0  0  0
   25.4510  -21.0436  -10.5421 S   0  0  0  0  0  0  0  0  0  0  0  0
   27.1419  -21.3396  -11.1026 C   0  0  0  0  0  0  0  0  0  0  0  0
   27.5694  -20.2969  -12.1320 C   0  0  0  0  0  0  0  0  0  0  0  0
   26.6225  -20.3642  -13.2939 C   0  0  2  0  0  0  0  0  0  0  0  0
   26.7552  -21.6628  -13.9345 N   0  0  0  0  0  0  0  0  0  0  0  0
   26.9213  -19.3009  -14.2670 C   0  0  0  0  0  0  0  0  0  0  0  0
   28.0966  -19.1718  -14.7190 O   0  0  0  0  0  0  0  0  0  0  0  0
   25.9348  -18.3884  -14.7376 N   0  0  0  0  0  0  0  0  0  0  0  0
   24.8648  -18.8725  -15.5785 C   0  0  0  0  0  0  0  0  0  0  0  0
   23.6815  -19.2331  -14.7667 C   0  0  0  0  0  0  0  0  0  0  0  0
   23.3472  -18.4507  -13.8306 O   0  0  0  0  0  0  0  0  0  0  0  0
   19.3611  -18.4425  -17.2800 N   0  0  0  0  0  0  0  0  0  0  0  0
   18.7711  -18.4559  -15.9875 C   0  0  0  0  0  0  0  0  0  0  0  0
   17.5468  -18.2132  -15.9048 O   0  0  0  0  0  0  0  0  0  0  0  0
   19.5461  -18.7402  -14.7758 C   0  0  0  0  0  0  0  0  0  0  0  0
   21.0027  -18.9550  -14.9686 C   0  0  0  0  0  0  0  0  0  0  0  0
   21.4826  -20.3665  -14.8481 C   0  0  2  0  0  0  0  0  0  0  0  0
   22.9278  -20.4103  -15.0073 N   0  0  0  0  0  0  0  0  0  0  0  0
   20.8256  -21.2995  -15.8092 C   0  0  0  0  0  0  0  0  0  0  0  0
   21.3530  -21.5545  -16.9175 O   0  0  0  0  0  0  0  0  0  0  0  0
   19.6111  -21.9220  -15.5217 O   0  0  0  0  0  0  0  0  0  0  0  0
  2  1  1  0
  3  2  1  0
  3  4  1  0
  4  5  1  0
  5  7  1  0
  5  6  1  6
  7  8  2  0
  9 10  1  0
  9  7  1  0
 10 11  1  0
 11 12  2  0
 11 19  1  0
 14 13  1  0
 14 15  2  0
 16 17  1  0
 16 14  1  0
 18 20  1  0
 18 17  1  6
 19 18  1  0
 20 22  1  0
 21 20  2  0
M  END
$$$$
