MGQ.pdb
     RDKit          3D

 22 21  0  0  1  0  0  0  0  0999 V2000
   30.0025  -19.3142   -4.3839 C   0  0  0  0  0  0  0  0  0  0  0  0
   28.5572  -19.5342   -5.4389 S   0  0  0  0  0  0  0  0  0  0  0  0
   28.9758  -20.4115   -6.9606 C   0  0  0  0  0  0  0  0  0  0  0  0
   27.7625  -21.1488   -7.5207 C   0  0  0  0  0  0  0  0  0  0  0  0
   26.7756  -20.1304   -8.0109 C   0  0  2  0  0  0  0  0  0  0  0  0
   26.5332  -19.1627   -6.9528 N   0  0  0  0  0  0  0  0  0  0  0  0
   25.5083  -20.7777   -8.3876 C   0  0  0  0  0  0  0  0  0  0  0  0
   24.7687  -21.2841   -7.4940 O   0  0  0  0  0  0  0  0  0  0  0  0
   25.0603  -20.8663   -9.7363 N   0  0  0  0  0  0  0  0  0  0  0  0
   23.7394  -20.3915  -10.0772 C   0  0  0  0  0  0  0  0  0  0  0  0
   23.5338  -20.4189  -11.5422 C   0  0  0  0  0  0  0  0  0  0  0  0
   24.3480  -19.7745  -12.2647 O   0  0  0  0  0  0  0  0  0  0  0  0
   22.1473  -22.0369  -17.5496 N   0  0  0  0  0  0  0  0  0  0  0  0
   21.4873  -22.6102  -16.4295 C   0  0  0  0  0  0  0  0  0  0  0  0
   21.5418  -23.8528  -16.2961 O   0  0  0  0  0  0  0  0  0  0  0  0
   20.7597  -21.7983  -15.4492 C   0  0  0  0  0  0  0  0  0  0  0  0
   21.1995  -21.9312  -14.0372 C   0  0  0  0  0  0  0  0  0  0  0  0
   22.1623  -20.8971  -13.5464 C   0  0  2  0  0  0  0  0  0  0  0  0
   22.4681  -21.1354  -12.1444 N   0  0  0  0  0  0  0  0  0  0  0  0
   21.6806  -19.4988  -13.7427 C   0  0  0  0  0  0  0  0  0  0  0  0
   21.0515  -18.9041  -12.8360 O   0  0  0  0  0  0  0  0  0  0  0  0
   21.9057  -18.7994  -14.9282 O   0  0  0  0  0  0  0  0  0  0  0  0
  2  1  1  0
  3  2  1  0
  3  4  1  0
  4  5  1  0
  5  7  1  0
  5  6  1  1
  7  8  2  0
  9 10  1  0
  9  7  1  0
 10 11  1  0
 11 12  2  0
 11 19  1  0
 14 13  1  0
 14 15  2  0
 16 17  1  0
 16 14  1  0
 18 20  1  0
 18 17  1  1
 19 18  1  0
 20 22  1  0
 21 20  2  0
M  END
$$$$
