MGQ.pdb
     RDKit          3D

 22 21  0  0  1  0  0  0  0  0999 V2000
   20.7384  -15.9777  -23.7105 C   0  0  0  0  0  0  0  0  0  0  0  0
   19.5209  -14.9534  -22.8627 S   0  0  0  0  0  0  0  0  0  0  0  0
   20.2958  -13.8935  -21.6230 C   0  0  0  0  0  0  0  0  0  0  0  0
   19.2705  -12.9671  -20.9747 C   0  0  0  0  0  0  0  0  0  0  0  0
   19.9913  -12.0542  -20.0268 C   0  0  2  0  0  0  0  0  0  0  0  0
   20.6194  -12.8551  -18.9883 N   0  0  0  0  0  0  0  0  0  0  0  0
   19.0532  -11.0993  -19.4144 C   0  0  0  0  0  0  0  0  0  0  0  0
   18.3773  -10.3205  -20.1483 O   0  0  0  0  0  0  0  0  0  0  0  0
   18.8618  -11.0033  -18.0068 N   0  0  0  0  0  0  0  0  0  0  0  0
   17.9366  -10.0260  -17.4820 C   0  0  0  0  0  0  0  0  0  0  0  0
   18.6628   -8.8974  -16.8591 C   0  0  0  0  0  0  0  0  0  0  0  0
   17.9830   -8.0252  -16.2447 O   0  0  0  0  0  0  0  0  0  0  0  0
   23.2838   -9.2640  -13.0853 N   0  0  0  0  0  0  0  0  0  0  0  0
   21.9068   -9.0130  -12.8407 C   0  0  0  0  0  0  0  0  0  0  0  0
   21.4700   -9.2395  -11.6906 O   0  0  0  0  0  0  0  0  0  0  0  0
   21.0061   -8.5071  -13.8810 C   0  0  0  0  0  0  0  0  0  0  0  0
   21.6344   -8.1841  -15.1872 C   0  0  0  0  0  0  0  0  0  0  0  0
   20.7185   -7.6616  -16.2480 C   0  0  2  0  0  0  0  0  0  0  0  0
   20.0737   -8.7717  -16.9319 N   0  0  0  0  0  0  0  0  0  0  0  0
   21.3993   -6.7702  -17.2318 C   0  0  0  0  0  0  0  0  0  0  0  0
   21.4435   -7.0727  -18.4476 O   0  0  0  0  0  0  0  0  0  0  0  0
   22.0091   -5.5760  -16.8483 O   0  0  0  0  0  0  0  0  0  0  0  0
  2  1  1  0
  3  2  1  0
  3  4  1  0
  4  5  1  0
  5  7  1  0
  5  6  1  1
  7  8  2  0
  9 10  1  0
  9  7  1  0
 10 11  1  0
 11 12  2  0
 11 19  1  0
 14 13  1  0
 14 15  2  0
 16 17  1  0
 16 14  1  0
 18 20  1  0
 18 17  1  1
 19 18  1  0
 20 22  1  0
 21 20  2  0
M  END
$$$$
