MGQ.pdb
     RDKit          3D

 22 21  0  0  1  0  0  0  0  0999 V2000
   23.7529  -20.0439  -10.3548 C   0  0  0  0  0  0  0  0  0  0  0  0
   25.2484  -20.2779   -9.3755 S   0  0  0  0  0  0  0  0  0  0  0  0
   26.3639  -21.4710  -10.1455 C   0  0  0  0  0  0  0  0  0  0  0  0
   27.3248  -20.7808  -11.1098 C   0  0  0  0  0  0  0  0  0  0  0  0
   26.5400  -20.2974  -12.2938 C   0  0  2  0  0  0  0  0  0  0  0  0
   25.9731  -21.4455  -12.9830 N   0  0  0  0  0  0  0  0  0  0  0  0
   27.4062  -19.5458  -13.2166 C   0  0  0  0  0  0  0  0  0  0  0  0
   28.4917  -19.0473  -12.7978 O   0  0  0  0  0  0  0  0  0  0  0  0
   27.0795  -19.3452  -14.5879 N   0  0  0  0  0  0  0  0  0  0  0  0
   26.5761  -18.0609  -15.0163 C   0  0  0  0  0  0  0  0  0  0  0  0
   25.2953  -18.2145  -15.7410 C   0  0  0  0  0  0  0  0  0  0  0  0
   24.8833  -19.3886  -15.9691 O   0  0  0  0  0  0  0  0  0  0  0  0
   20.0837  -16.9566  -19.1545 N   0  0  0  0  0  0  0  0  0  0  0  0
   21.4495  -17.2490  -19.4153 C   0  0  0  0  0  0  0  0  0  0  0  0
   22.0659  -16.4947  -20.2001 O   0  0  0  0  0  0  0  0  0  0  0  0
   22.1375  -18.3886  -18.8009 C   0  0  0  0  0  0  0  0  0  0  0  0
   23.3891  -18.0757  -18.0656 C   0  0  0  0  0  0  0  0  0  0  0  0
   23.2288  -17.3311  -16.7783 C   0  0  2  0  0  0  0  0  0  0  0  0
   24.5333  -17.1007  -16.1774 N   0  0  0  0  0  0  0  0  0  0  0  0
   22.3232  -18.0131  -15.8084 C   0  0  0  0  0  0  0  0  0  0  0  0
   22.4979  -19.2169  -15.5054 O   0  0  0  0  0  0  0  0  0  0  0  0
   21.2556  -17.3507  -15.2029 O   0  0  0  0  0  0  0  0  0  0  0  0
  2  1  1  0
  3  2  1  0
  3  4  1  0
  4  5  1  0
  5  7  1  0
  5  6  1  6
  7  8  2  0
  9 10  1  0
  9  7  1  0
 10 11  1  0
 11 12  2  0
 11 19  1  0
 14 13  1  0
 14 15  2  0
 16 17  1  0
 16 14  1  0
 18 20  1  0
 18 17  1  6
 19 18  1  0
 20 22  1  0
 21 20  2  0
M  END
$$$$
