MGQ.pdb
     RDKit          3D

 22 21  0  0  1  0  0  0  0  0999 V2000
   30.2457  -11.2761  -19.2215 C   0  0  0  0  0  0  0  0  0  0  0  0
   29.3814  -12.4082  -18.1164 S   0  0  0  0  0  0  0  0  0  0  0  0
   27.6158  -12.4778  -18.4887 C   0  0  0  0  0  0  0  0  0  0  0  0
   26.9075  -11.2061  -18.0298 C   0  0  0  0  0  0  0  0  0  0  0  0
   26.8867  -11.1919  -16.5296 C   0  0  2  0  0  0  0  0  0  0  0  0
   26.1638  -12.3621  -16.0580 N   0  0  0  0  0  0  0  0  0  0  0  0
   26.2293   -9.9721  -16.0329 C   0  0  0  0  0  0  0  0  0  0  0  0
   26.8284   -8.8593  -16.1037 O   0  0  0  0  0  0  0  0  0  0  0  0
   24.9242   -9.9782  -15.4635 N   0  0  0  0  0  0  0  0  0  0  0  0
   24.2731   -8.7229  -15.1694 C   0  0  0  0  0  0  0  0  0  0  0  0
   23.1270   -8.5005  -16.0784 C   0  0  0  0  0  0  0  0  0  0  0  0
   23.0037   -9.2729  -17.0726 O   0  0  0  0  0  0  0  0  0  0  0  0
   18.3729  -10.9087  -16.1540 N   0  0  0  0  0  0  0  0  0  0  0  0
   18.6799  -10.0655  -15.0523 C   0  0  0  0  0  0  0  0  0  0  0  0
   18.2081  -10.3733  -13.9354 O   0  0  0  0  0  0  0  0  0  0  0  0
   19.5171   -8.8699  -15.1908 C   0  0  0  0  0  0  0  0  0  0  0  0
   20.2102   -8.7062  -16.4937 C   0  0  0  0  0  0  0  0  0  0  0  0
   20.9753   -7.4343  -16.6782 C   0  0  2  0  0  0  0  0  0  0  0  0
   22.1823   -7.4639  -15.8670 N   0  0  0  0  0  0  0  0  0  0  0  0
   20.1751   -6.2123  -16.3744 C   0  0  0  0  0  0  0  0  0  0  0  0
   20.4594   -5.4876  -15.3918 O   0  0  0  0  0  0  0  0  0  0  0  0
   19.0889   -5.8263  -17.1595 O   0  0  0  0  0  0  0  0  0  0  0  0
  2  1  1  0
  3  2  1  0
  3  4  1  0
  4  5  1  0
  5  7  1  0
  5  6  1  6
  7  8  2  0
  9 10  1  0
  9  7  1  0
 10 11  1  0
 11 12  2  0
 11 19  1  0
 14 13  1  0
 14 15  2  0
 16 17  1  0
 16 14  1  0
 18 20  1  0
 18 17  1  1
 19 18  1  0
 20 22  1  0
 21 20  2  0
M  END
$$$$
