MGQ.pdb
     RDKit          3D

 22 21  0  0  1  0  0  0  0  0999 V2000
   23.4200  -14.2008  -17.2163 C   0  0  0  0  0  0  0  0  0  0  0  0
   22.8502  -15.8132  -17.7870 S   0  0  0  0  0  0  0  0  0  0  0  0
   24.1478  -16.6957  -18.6804 C   0  0  0  0  0  0  0  0  0  0  0  0
   25.4098  -16.8227  -17.8314 C   0  0  0  0  0  0  0  0  0  0  0  0
   25.1518  -17.8296  -16.7492 C   0  0  2  0  0  0  0  0  0  0  0  0
   24.4106  -17.1871  -15.6757 N   0  0  0  0  0  0  0  0  0  0  0  0
   26.4202  -18.3610  -16.2242 C   0  0  0  0  0  0  0  0  0  0  0  0
   27.1317  -19.1210  -16.9441 O   0  0  0  0  0  0  0  0  0  0  0  0
   26.9000  -18.0581  -14.9183 N   0  0  0  0  0  0  0  0  0  0  0  0
   28.1488  -18.6302  -14.4714 C   0  0  0  0  0  0  0  0  0  0  0  0
   27.9418  -19.9985  -13.9481 C   0  0  0  0  0  0  0  0  0  0  0  0
   28.9535  -20.6267  -13.5216 O   0  0  0  0  0  0  0  0  0  0  0  0
   24.0411  -19.9671   -9.9037 N   0  0  0  0  0  0  0  0  0  0  0  0
   25.0695  -20.8127   -9.4073 C   0  0  0  0  0  0  0  0  0  0  0  0
   24.9463  -21.2565   -8.2442 O   0  0  0  0  0  0  0  0  0  0  0  0
   26.2452  -21.1686  -10.2075 C   0  0  0  0  0  0  0  0  0  0  0  0
   26.3713  -20.4867  -11.5206 C   0  0  0  0  0  0  0  0  0  0  0  0
   26.2730  -21.3616  -12.7298 C   0  0  2  0  0  0  0  0  0  0  0  0
   26.6629  -20.6109  -13.9133 N   0  0  0  0  0  0  0  0  0  0  0  0
   24.9204  -21.9623  -12.9180 C   0  0  0  0  0  0  0  0  0  0  0  0
   24.7896  -23.1871  -13.1513 O   0  0  0  0  0  0  0  0  0  0  0  0
   23.7559  -21.1985  -12.8437 O   0  0  0  0  0  0  0  0  0  0  0  0
  2  1  1  0
  3  2  1  0
  3  4  1  0
  4  5  1  0
  5  7  1  0
  5  6  1  1
  7  8  2  0
  9 10  1  0
  9  7  1  0
 10 11  1  0
 11 12  2  0
 11 19  1  0
 14 13  1  0
 14 15  2  0
 16 17  1  0
 16 14  1  0
 18 20  1  0
 18 17  1  1
 19 18  1  0
 20 22  1  0
 21 20  2  0
M  END
$$$$
