MGQ.pdb
     RDKit          3D

 22 21  0  0  1  0  0  0  0  0999 V2000
   29.9243  -19.4898   -3.7719 C   0  0  0  0  0  0  0  0  0  0  0  0
   28.7108  -19.9963   -5.0052 S   0  0  0  0  0  0  0  0  0  0  0  0
   28.4435  -18.7060   -6.2398 C   0  0  0  0  0  0  0  0  0  0  0  0
   27.2987  -19.0742   -7.1797 C   0  0  0  0  0  0  0  0  0  0  0  0
   27.6709  -20.3326   -7.9072 C   0  0  2  0  0  0  0  0  0  0  0  0
   28.8420  -20.0721   -8.7290 N   0  0  0  0  0  0  0  0  0  0  0  0
   26.5598  -20.7847   -8.7604 C   0  0  0  0  0  0  0  0  0  0  0  0
   25.4293  -21.0295   -8.2464 O   0  0  0  0  0  0  0  0  0  0  0  0
   26.6930  -20.9656  -10.1664 N   0  0  0  0  0  0  0  0  0  0  0  0
   25.7003  -21.7354  -10.8794 C   0  0  0  0  0  0  0  0  0  0  0  0
   24.6759  -20.8485  -11.4737 C   0  0  0  0  0  0  0  0  0  0  0  0
   24.7278  -19.6160  -11.1935 O   0  0  0  0  0  0  0  0  0  0  0  0
   22.4533  -21.4625  -17.1936 N   0  0  0  0  0  0  0  0  0  0  0  0
   23.6781  -20.9820  -16.6571 C   0  0  0  0  0  0  0  0  0  0  0  0
   24.6537  -20.8826  -17.4338 O   0  0  0  0  0  0  0  0  0  0  0  0
   23.8225  -20.6094  -15.2465 C   0  0  0  0  0  0  0  0  0  0  0  0
   22.5988  -20.7235  -14.4131 C   0  0  0  0  0  0  0  0  0  0  0  0
   22.7543  -20.3868  -12.9641 C   0  0  2  0  0  0  0  0  0  0  0  0
   23.6578  -21.3360  -12.3326 N   0  0  0  0  0  0  0  0  0  0  0  0
   21.4588  -20.3330  -12.2261 C   0  0  0  0  0  0  0  0  0  0  0  0
   21.0872  -21.2939  -11.5118 O   0  0  0  0  0  0  0  0  0  0  0  0
   20.6137  -19.2257  -12.2968 O   0  0  0  0  0  0  0  0  0  0  0  0
  2  1  1  0
  3  2  1  0
  3  4  1  0
  4  5  1  0
  5  7  1  0
  5  6  1  6
  7  8  2  0
  9 10  1  0
  9  7  1  0
 10 11  1  0
 11 12  2  0
 11 19  1  0
 14 13  1  0
 14 15  2  0
 16 17  1  0
 16 14  1  0
 18 20  1  0
 18 17  1  6
 19 18  1  0
 20 22  1  0
 21 20  2  0
M  END
$$$$
