VSK.pdb
     RDKit          3D

 23 22  0  0  1  0  0  0  0  0999 V2000
   20.1002  -10.5747  -18.1773 C   0  0  0  0  0  0  0  0  0  0  0  0
   19.6821   -9.3330  -17.4173 C   0  0  2  0  0  0  0  0  0  0  0  0
   20.0412   -8.1257  -18.2466 C   0  0  0  0  0  0  0  0  0  0  0  0
   20.3802   -9.3601  -16.0843 C   0  0  2  0  0  0  0  0  0  0  0  0
   20.0525  -10.6143  -15.4442 N   0  0  0  0  0  0  0  0  0  0  0  0
   20.0591   -8.1939  -15.2415 C   0  0  0  0  0  0  0  0  0  0  0  0
   18.8700   -8.0594  -14.8608 O   0  0  0  0  0  0  0  0  0  0  0  0
   22.9702   -5.5819  -13.6297 O   0  0  0  0  0  0  0  0  0  0  0  0
   21.6946   -5.6322  -13.0851 C   0  0  0  0  0  0  0  0  0  0  0  0
   20.6552   -6.0091  -14.1186 C   0  0  2  0  0  0  0  0  0  0  0  0
   21.0086   -7.2181  -14.8360 N   0  0  0  0  0  0  0  0  0  0  0  0
   20.4758   -4.9185  -15.1104 C   0  0  0  0  0  0  0  0  0  0  0  0
   21.1769   -4.8545  -16.1559 O   0  0  0  0  0  0  0  0  0  0  0  0
   19.5047   -3.8890  -14.9339 N   0  0  0  0  0  0  0  0  0  0  0  0
   19.3062   -2.8286  -15.8937 C   0  0  1  0  0  0  0  0  0  0  0  0
   17.9416   -2.2361  -15.7803 C   0  0  0  0  0  0  0  0  0  0  0  0
   17.5531   -1.2161  -16.7735 C   0  0  0  0  0  0  0  0  0  0  0  0
   16.1465   -0.7626  -16.6287 C   0  0  0  0  0  0  0  0  0  0  0  0
   15.7540    0.1693  -17.8019 C   0  0  0  0  0  0  0  0  0  0  0  0
   14.3499    0.4782  -17.5849 N   0  0  0  0  0  0  0  0  0  0  0  0
   20.3909   -1.8486  -15.8265 C   0  0  0  0  0  0  0  0  0  0  0  0
   20.9232   -1.2631  -16.9868 O   0  0  0  0  0  0  0  0  0  0  0  0
   20.8869   -1.4894  -14.7325 O   0  0  0  0  0  0  0  0  0  0  0  0
  2  1  1  6
  2  4  1  0
  2  3  1  0
  4  6  1  0
  4  5  1  1
  6  7  2  0
  9  8  1  0
 10  9  1  1
 10 12  1  0
 11 10  1  0
 11  6  1  0
 12 13  2  0
 12 14  1  0
 14 15  1  0
 15 21  1  0
 15 16  1  1
 17 16  1  0
 18 17  1  0
 19 18  1  0
 20 19  1  0
 21 23  2  0
 21 22  1  0
M  END
$$$$
