VSK.pdb
     RDKit          3D

 23 22  0  0  1  0  0  0  0  0999 V2000
   20.0840  -12.9731  -19.1345 C   0  0  0  0  0  0  0  0  0  0  0  0
   19.4241  -11.8875  -18.3098 C   0  0  2  0  0  0  0  0  0  0  0  0
   19.3339  -10.6401  -19.1525 C   0  0  0  0  0  0  0  0  0  0  0  0
   20.2486  -11.6985  -17.0651 C   0  0  2  0  0  0  0  0  0  0  0  0
   20.3307  -12.9777  -16.3962 N   0  0  0  0  0  0  0  0  0  0  0  0
   19.7312  -10.6332  -16.1870 C   0  0  0  0  0  0  0  0  0  0  0  0
   18.5575  -10.7513  -15.7563 O   0  0  0  0  0  0  0  0  0  0  0  0
   22.1852   -7.6972  -14.4565 O   0  0  0  0  0  0  0  0  0  0  0  0
   20.9560   -8.0098  -13.8930 C   0  0  0  0  0  0  0  0  0  0  0  0
   19.9520   -8.4468  -14.9378 C   0  0  2  0  0  0  0  0  0  0  0  0
   20.4762   -9.4870  -15.8006 N   0  0  0  0  0  0  0  0  0  0  0  0
   19.5430   -7.3015  -15.7900 C   0  0  0  0  0  0  0  0  0  0  0  0
   20.1565   -7.0176  -16.8539 O   0  0  0  0  0  0  0  0  0  0  0  0
   18.4388   -6.4646  -15.4520 N   0  0  0  0  0  0  0  0  0  0  0  0
   18.0460   -5.3278  -16.2509 C   0  0  1  0  0  0  0  0  0  0  0  0
   16.5635   -5.2503  -16.4009 C   0  0  0  0  0  0  0  0  0  0  0  0
   15.9140   -6.2258  -17.2977 C   0  0  0  0  0  0  0  0  0  0  0  0
   14.4319   -6.1342  -17.2886 C   0  0  0  0  0  0  0  0  0  0  0  0
   13.8203   -7.1437  -18.2913 C   0  0  0  0  0  0  0  0  0  0  0  0
   12.3817   -7.0210  -18.1203 N   0  0  0  0  0  0  0  0  0  0  0  0
   18.6616   -4.0972  -15.7530 C   0  0  0  0  0  0  0  0  0  0  0  0
   18.9337   -3.0157  -16.6067 O   0  0  0  0  0  0  0  0  0  0  0  0
   18.9682   -3.9561  -14.5455 O   0  0  0  0  0  0  0  0  0  0  0  0
  2  1  1  6
  2  4  1  0
  2  3  1  0
  4  6  1  0
  4  5  1  1
  6  7  2  0
  9  8  1  0
 10  9  1  1
 10 12  1  0
 11 10  1  0
 11  6  1  0
 12 13  2  0
 12 14  1  0
 14 15  1  0
 15 21  1  0
 15 16  1  1
 17 16  1  0
 18 17  1  0
 19 18  1  0
 20 19  1  0
 21 23  2  0
 21 22  1  0
M  END
$$$$
