VSK.pdb
     RDKit          3D

 23 22  0  0  1  0  0  0  0  0999 V2000
   21.1691  -10.4624  -17.9397 C   0  0  0  0  0  0  0  0  0  0  0  0
   20.5062   -9.3354  -17.1752 C   0  0  2  0  0  0  0  0  0  0  0  0
   20.2541   -8.1972  -18.1318 C   0  0  0  0  0  0  0  0  0  0  0  0
   21.4191   -8.9586  -16.0396 C   0  0  2  0  0  0  0  0  0  0  0  0
   21.6153  -10.1377  -15.2262 N   0  0  0  0  0  0  0  0  0  0  0  0
   20.9251   -7.8091  -15.2598 C   0  0  0  0  0  0  0  0  0  0  0  0
   19.8451   -7.9496  -14.6346 O   0  0  0  0  0  0  0  0  0  0  0  0
   22.4795   -5.3865  -12.4924 O   0  0  0  0  0  0  0  0  0  0  0  0
   22.1464   -4.7043  -13.6543 C   0  0  0  0  0  0  0  0  0  0  0  0
   21.0708   -5.4223  -14.4406 C   0  0  2  0  0  0  0  0  0  0  0  0
   21.5934   -6.5585  -15.1733 N   0  0  0  0  0  0  0  0  0  0  0  0
   20.4234   -4.5038  -15.4115 C   0  0  0  0  0  0  0  0  0  0  0  0
   20.9414   -4.2571  -16.5338 O   0  0  0  0  0  0  0  0  0  0  0  0
   19.1859   -3.8543  -15.1274 N   0  0  0  0  0  0  0  0  0  0  0  0
   18.5266   -2.9816  -16.0702 C   0  0  1  0  0  0  0  0  0  0  0  0
   17.0887   -3.3431  -16.2375 C   0  0  0  0  0  0  0  0  0  0  0  0
   16.2747   -2.5118  -17.1454 C   0  0  0  0  0  0  0  0  0  0  0  0
   14.8814   -3.0022  -17.2981 C   0  0  0  0  0  0  0  0  0  0  0  0
   14.0926   -2.0973  -18.2766 C   0  0  0  0  0  0  0  0  0  0  0  0
   12.8462   -2.8045  -18.5230 N   0  0  0  0  0  0  0  0  0  0  0  0
   18.7544   -1.5758  -15.7336 C   0  0  0  0  0  0  0  0  0  0  0  0
   18.7731   -0.5787  -16.7224 O   0  0  0  0  0  0  0  0  0  0  0  0
   18.9386   -1.2035  -14.5507 O   0  0  0  0  0  0  0  0  0  0  0  0
  2  1  1  6
  2  4  1  0
  2  3  1  0
  4  6  1  0
  4  5  1  1
  6  7  2  0
  9  8  1  0
 10  9  1  6
 10 12  1  0
 11 10  1  0
 11  6  1  0
 12 13  2  0
 12 14  1  0
 14 15  1  0
 15 21  1  0
 15 16  1  1
 17 16  1  0
 18 17  1  0
 19 18  1  0
 20 19  1  0
 21 23  2  0
 21 22  1  0
M  END
$$$$
