VSK.pdb
     RDKit          3D

 23 22  0  0  1  0  0  0  0  0999 V2000
   21.6446  -11.2487  -16.1873 C   0  0  0  0  0  0  0  0  0  0  0  0
   22.7414  -10.4513  -16.8622 C   0  0  2  0  0  0  0  0  0  0  0  0
   23.6386  -11.4109  -17.6027 C   0  0  0  0  0  0  0  0  0  0  0  0
   23.4632   -9.6768  -15.7927 C   0  0  2  0  0  0  0  0  0  0  0  0
   24.0182  -10.6318  -14.8599 N   0  0  0  0  0  0  0  0  0  0  0  0
   22.6094   -8.6721  -15.1328 C   0  0  0  0  0  0  0  0  0  0  0  0
   21.6528   -9.0884  -14.4340 O   0  0  0  0  0  0  0  0  0  0  0  0
   21.9780   -4.1340  -13.4913 O   0  0  0  0  0  0  0  0  0  0  0  0
   22.7535   -5.0377  -14.2042 C   0  0  0  0  0  0  0  0  0  0  0  0
   21.9828   -6.2945  -14.5464 C   0  0  2  0  0  0  0  0  0  0  0  0
   22.8026   -7.2687  -15.2393 N   0  0  0  0  0  0  0  0  0  0  0  0
   20.8127   -5.9801  -15.4051 C   0  0  0  0  0  0  0  0  0  0  0  0
   20.9309   -5.8196  -16.6497 O   0  0  0  0  0  0  0  0  0  0  0  0
   19.4978   -5.8434  -14.8700 N   0  0  0  0  0  0  0  0  0  0  0  0
   18.3452   -5.5580  -15.6916 C   0  0  1  0  0  0  0  0  0  0  0  0
   17.1478   -6.3251  -15.2399 C   0  0  0  0  0  0  0  0  0  0  0  0
   15.8787   -6.0991  -15.9583 C   0  0  0  0  0  0  0  0  0  0  0  0
   14.7480   -6.8938  -15.4151 C   0  0  0  0  0  0  0  0  0  0  0  0
   13.4685   -6.6608  -16.2561 C   0  0  0  0  0  0  0  0  0  0  0  0
   12.4641   -7.5291  -15.6633 N   0  0  0  0  0  0  0  0  0  0  0  0
   18.1238   -4.1159  -15.8043 C   0  0  0  0  0  0  0  0  0  0  0  0
   18.4746   -3.2367  -14.7668 O   0  0  0  0  0  0  0  0  0  0  0  0
   17.6157   -3.6060  -16.8308 O   0  0  0  0  0  0  0  0  0  0  0  0
  2  1  1  1
  2  4  1  0
  2  3  1  0
  4  6  1  0
  4  5  1  1
  6  7  2  0
  9  8  1  0
 10  9  1  6
 10 12  1  0
 11 10  1  0
 11  6  1  0
 12 13  2  0
 12 14  1  0
 14 15  1  0
 15 21  1  0
 15 16  1  1
 17 16  1  0
 18 17  1  0
 19 18  1  0
 20 19  1  0
 21 23  2  0
 21 22  1  0
M  END
$$$$
