VSK.pdb
     RDKit          3D

 23 22  0  0  1  0  0  0  0  0999 V2000
   26.4575   -9.8567  -17.2329 C   0  0  0  0  0  0  0  0  0  0  0  0
   26.4659  -10.3473  -15.7999 C   0  0  2  0  0  0  0  0  0  0  0  0
   27.8343  -10.9039  -15.4971 C   0  0  0  0  0  0  0  0  0  0  0  0
   25.3709  -11.3706  -15.6640 C   0  0  2  0  0  0  0  0  0  0  0  0
   25.7627  -12.5346  -16.4268 N   0  0  0  0  0  0  0  0  0  0  0  0
   24.0474  -10.8547  -16.0588 C   0  0  0  0  0  0  0  0  0  0  0  0
   23.7169  -10.9599  -17.2657 O   0  0  0  0  0  0  0  0  0  0  0  0
   21.1474   -9.6288  -13.2638 O   0  0  0  0  0  0  0  0  0  0  0  0
   20.7593  -10.0251  -14.5361 C   0  0  0  0  0  0  0  0  0  0  0  0
   21.8318   -9.7423  -15.5660 C   0  0  2  0  0  0  0  0  0  0  0  0
   23.1281  -10.2490  -15.1610 N   0  0  0  0  0  0  0  0  0  0  0  0
   21.9607   -8.2828  -15.8081 C   0  0  0  0  0  0  0  0  0  0  0  0
   22.7795   -7.5757  -15.1613 O   0  0  0  0  0  0  0  0  0  0  0  0
   21.1682   -7.6055  -16.7814 N   0  0  0  0  0  0  0  0  0  0  0  0
   21.2447   -6.1798  -16.9971 C   0  0  1  0  0  0  0  0  0  0  0  0
   20.5034   -5.7717  -18.2259 C   0  0  0  0  0  0  0  0  0  0  0  0
   20.5079   -4.3403  -18.5849 C   0  0  0  0  0  0  0  0  0  0  0  0
   19.7966   -4.0523  -19.8562 C   0  0  0  0  0  0  0  0  0  0  0  0
   19.9016   -2.5476  -20.2072 C   0  0  0  0  0  0  0  0  0  0  0  0
   19.1016   -2.3840  -21.4102 N   0  0  0  0  0  0  0  0  0  0  0  0
   20.8569   -5.4442  -15.7930 C   0  0  0  0  0  0  0  0  0  0  0  0
   21.5855   -4.3290  -15.3483 O   0  0  0  0  0  0  0  0  0  0  0  0
   19.8583   -5.7763  -15.1115 O   0  0  0  0  0  0  0  0  0  0  0  0
  2  1  1  6
  2  4  1  0
  2  3  1  0
  4  6  1  0
  4  5  1  6
  6  7  2  0
  9  8  1  0
 10  9  1  1
 10 12  1  0
 11 10  1  0
 11  6  1  0
 12 13  2  0
 12 14  1  0
 14 15  1  0
 15 21  1  0
 15 16  1  6
 17 16  1  0
 18 17  1  0
 19 18  1  0
 20 19  1  0
 21 23  2  0
 21 22  1  0
M  END
$$$$
