VSK.pdb
     RDKit          3D

 23 22  0  0  1  0  0  0  0  0999 V2000
   16.8905  -13.1787  -17.5549 C   0  0  0  0  0  0  0  0  0  0  0  0
   17.1569  -11.6895  -17.4808 C   0  0  2  0  0  0  0  0  0  0  0  0
   17.5573  -11.2103  -18.8535 C   0  0  0  0  0  0  0  0  0  0  0  0
   18.2271  -11.4707  -16.4457 C   0  0  2  0  0  0  0  0  0  0  0  0
   17.9971  -12.4121  -15.3728 N   0  0  0  0  0  0  0  0  0  0  0  0
   18.2932  -10.0766  -15.9705 C   0  0  0  0  0  0  0  0  0  0  0  0
   18.5897   -9.1888  -16.8077 O   0  0  0  0  0  0  0  0  0  0  0  0
   18.4271   -9.0257  -11.8965 O   0  0  0  0  0  0  0  0  0  0  0  0
   17.7287   -8.1567  -12.7232 C   0  0  0  0  0  0  0  0  0  0  0  0
   18.1380   -8.3067  -14.1726 C   0  0  2  0  0  0  0  0  0  0  0  0
   18.0430   -9.6789  -14.6299 N   0  0  0  0  0  0  0  0  0  0  0  0
   19.5348   -7.8463  -14.3781 C   0  0  0  0  0  0  0  0  0  0  0  0
   20.4329   -8.6264  -14.7948 O   0  0  0  0  0  0  0  0  0  0  0  0
   19.9336   -6.5023  -14.1160 N   0  0  0  0  0  0  0  0  0  0  0  0
   21.2482   -5.9998  -14.4389 C   0  0  1  0  0  0  0  0  0  0  0  0
   21.5885   -6.2383  -15.8719 C   0  0  0  0  0  0  0  0  0  0  0  0
   22.8725   -5.7067  -16.3686 C   0  0  0  0  0  0  0  0  0  0  0  0
   23.0695   -5.9161  -17.8254 C   0  0  0  0  0  0  0  0  0  0  0  0
   24.4562   -5.3858  -18.2666 C   0  0  0  0  0  0  0  0  0  0  0  0
   24.6090   -5.8285  -19.6431 N   0  0  0  0  0  0  0  0  0  0  0  0
   21.3987   -4.6082  -14.0124 C   0  0  0  0  0  0  0  0  0  0  0  0
   22.6390   -4.0994  -13.5938 O   0  0  0  0  0  0  0  0  0  0  0  0
   20.4295   -3.8130  -14.0059 O   0  0  0  0  0  0  0  0  0  0  0  0
  2  1  1  6
  2  4  1  0
  2  3  1  0
  4  6  1  0
  4  5  1  1
  6  7  2  0
  9  8  1  0
 10  9  1  1
 10 12  1  0
 11 10  1  0
 11  6  1  0
 12 13  2  0
 12 14  1  0
 14 15  1  0
 15 21  1  0
 15 16  1  6
 17 16  1  0
 18 17  1  0
 19 18  1  0
 20 19  1  0
 21 23  2  0
 21 22  1  0
M  END
$$$$
