VSK.pdb
     RDKit          3D

 23 22  0  0  1  0  0  0  0  0999 V2000
   13.5479   -8.5982   -9.1384 C   0  0  0  0  0  0  0  0  0  0  0  0
   13.4924   -9.4287  -10.4039 C   0  0  2  0  0  0  0  0  0  0  0  0
   12.8815  -10.7658  -10.0675 C   0  0  0  0  0  0  0  0  0  0  0  0
   14.8958   -9.5400  -10.9357 C   0  0  2  0  0  0  0  0  0  0  0  0
   15.6567  -10.3365   -9.9993 N   0  0  0  0  0  0  0  0  0  0  0  0
   15.5178   -8.2297  -11.2001 C   0  0  0  0  0  0  0  0  0  0  0  0
   15.2044   -7.6394  -12.2632 O   0  0  0  0  0  0  0  0  0  0  0  0
   17.7207   -6.0365   -8.3361 O   0  0  0  0  0  0  0  0  0  0  0  0
   17.1670   -5.4174   -9.4480 C   0  0  0  0  0  0  0  0  0  0  0  0
   17.1096   -6.3475  -10.6406 C   0  0  2  0  0  0  0  0  0  0  0  0
   16.4455   -7.5978  -10.3293 N   0  0  0  0  0  0  0  0  0  0  0  0
   18.4750   -6.6594  -11.1342 C   0  0  0  0  0  0  0  0  0  0  0  0
   19.1111   -7.6678  -10.7249 O   0  0  0  0  0  0  0  0  0  0  0  0
   19.1374   -5.8383  -12.0939 N   0  0  0  0  0  0  0  0  0  0  0  0
   20.4059   -6.1943  -12.6848 C   0  0  1  0  0  0  0  0  0  0  0  0
   20.2340   -7.1585  -13.8103 C   0  0  0  0  0  0  0  0  0  0  0  0
   21.4481   -7.6080  -14.5186 C   0  0  0  0  0  0  0  0  0  0  0  0
   21.1577   -8.4817  -15.6836 C   0  0  0  0  0  0  0  0  0  0  0  0
   22.4710   -9.0510  -16.2749 C   0  0  0  0  0  0  0  0  0  0  0  0
   22.0481   -9.9543  -17.3329 N   0  0  0  0  0  0  0  0  0  0  0  0
   21.1774   -5.0005  -13.0328 C   0  0  0  0  0  0  0  0  0  0  0  0
   20.5645   -3.7437  -13.1645 O   0  0  0  0  0  0  0  0  0  0  0  0
   22.4155   -5.0493  -13.2241 O   0  0  0  0  0  0  0  0  0  0  0  0
  2  1  1  1
  2  4  1  0
  2  3  1  0
  4  6  1  0
  4  5  1  1
  6  7  2  0
  9  8  1  0
 10  9  1  1
 10 12  1  0
 11 10  1  0
 11  6  1  0
 12 13  2  0
 12 14  1  0
 14 15  1  0
 15 21  1  0
 15 16  1  6
 17 16  1  0
 18 17  1  0
 19 18  1  0
 20 19  1  0
 21 23  2  0
 21 22  1  0
M  END
$$$$
