VSK.pdb
     RDKit          3D

 23 22  0  0  1  0  0  0  0  0999 V2000
   14.2158  -12.4274  -15.0065 C   0  0  0  0  0  0  0  0  0  0  0  0
   15.0498  -12.4672  -16.2703 C   0  0  2  0  0  0  0  0  0  0  0  0
   14.3360  -13.3269  -17.2829 C   0  0  0  0  0  0  0  0  0  0  0  0
   16.4086  -12.9981  -15.9008 C   0  0  2  0  0  0  0  0  0  0  0  0
   16.2368  -14.3578  -15.4404 N   0  0  0  0  0  0  0  0  0  0  0  0
   17.1104  -12.1524  -14.9180 C   0  0  0  0  0  0  0  0  0  0  0  0
   17.0834  -12.5117  -13.7150 O   0  0  0  0  0  0  0  0  0  0  0  0
   20.8041  -10.4758  -14.8165 O   0  0  0  0  0  0  0  0  0  0  0  0
   19.7740   -9.5458  -14.8058 C   0  0  0  0  0  0  0  0  0  0  0  0
   18.4881  -10.1354  -14.2678 C   0  0  2  0  0  0  0  0  0  0  0  0
   17.8116  -10.9618  -15.2478 N   0  0  0  0  0  0  0  0  0  0  0  0
   17.5525   -9.0637  -13.8416 C   0  0  0  0  0  0  0  0  0  0  0  0
   16.8043   -8.4735  -14.6666 O   0  0  0  0  0  0  0  0  0  0  0  0
   17.4508   -8.6463  -12.4817 N   0  0  0  0  0  0  0  0  0  0  0  0
   16.5326   -7.6210  -12.0452 C   0  0  1  0  0  0  0  0  0  0  0  0
   16.3610   -7.6349  -10.5631 C   0  0  0  0  0  0  0  0  0  0  0  0
   15.5165   -6.5847   -9.9616 C   0  0  0  0  0  0  0  0  0  0  0  0
   15.5686   -6.5689   -8.4776 C   0  0  0  0  0  0  0  0  0  0  0  0
   14.6442   -5.4612   -7.9146 C   0  0  0  0  0  0  0  0  0  0  0  0
   14.6054   -5.6952   -6.4801 N   0  0  0  0  0  0  0  0  0  0  0  0
   16.9036   -6.3153  -12.5919 C   0  0  0  0  0  0  0  0  0  0  0  0
   15.9313   -5.3903  -13.0058 O   0  0  0  0  0  0  0  0  0  0  0  0
   18.1024   -5.9675  -12.7101 O   0  0  0  0  0  0  0  0  0  0  0  0
  2  1  1  1
  2  4  1  0
  2  3  1  0
  4  6  1  0
  4  5  1  1
  6  7  2  0
  9  8  1  0
 10  9  1  6
 10 12  1  0
 11 10  1  0
 11  6  1  0
 12 13  2  0
 12 14  1  0
 14 15  1  0
 15 21  1  0
 15 16  1  1
 17 16  1  0
 18 17  1  0
 19 18  1  0
 20 19  1  0
 21 23  2  0
 21 22  1  0
M  END
$$$$
