VSK.pdb
     RDKit          3D

 23 22  0  0  1  0  0  0  0  0999 V2000
   20.2317  -14.2692  -19.6916 C   0  0  0  0  0  0  0  0  0  0  0  0
   19.9404  -13.0961  -18.7789 C   0  0  2  0  0  0  0  0  0  0  0  0
   20.4340  -11.8390  -19.4499 C   0  0  0  0  0  0  0  0  0  0  0  0
   20.6184  -13.3657  -17.4627 C   0  0  2  0  0  0  0  0  0  0  0  0
   20.0874  -14.6058  -16.9429 N   0  0  0  0  0  0  0  0  0  0  0  0
   20.4879  -12.2500  -16.5077 C   0  0  0  0  0  0  0  0  0  0  0  0
   19.3367  -11.9709  -16.0910 O   0  0  0  0  0  0  0  0  0  0  0  0
   22.4453   -9.0392  -13.4111 O   0  0  0  0  0  0  0  0  0  0  0  0
   22.6328  -10.0999  -14.2863 C   0  0  0  0  0  0  0  0  0  0  0  0
   21.4255  -10.3195  -15.1723 C   0  0  2  0  0  0  0  0  0  0  0  0
   21.5801  -11.4756  -16.0330 N   0  0  0  0  0  0  0  0  0  0  0  0
   21.1770   -9.1336  -16.0309 C   0  0  0  0  0  0  0  0  0  0  0  0
   21.8078   -8.9535  -17.1073 O   0  0  0  0  0  0  0  0  0  0  0  0
   20.2153   -8.1388  -15.6854 N   0  0  0  0  0  0  0  0  0  0  0  0
   19.9567   -6.9817  -16.5095 C   0  0  1  0  0  0  0  0  0  0  0  0
   18.4931   -6.7505  -16.6844 C   0  0  0  0  0  0  0  0  0  0  0  0
   18.0752   -5.5981  -17.5061 C   0  0  0  0  0  0  0  0  0  0  0  0
   16.6008   -5.4652  -17.6228 C   0  0  0  0  0  0  0  0  0  0  0  0
   16.2337   -4.2090  -18.4509 C   0  0  0  0  0  0  0  0  0  0  0  0
   14.7910   -4.2763  -18.6192 N   0  0  0  0  0  0  0  0  0  0  0  0
   20.6924   -5.8142  -16.0227 C   0  0  0  0  0  0  0  0  0  0  0  0
   21.0412   -4.7574  -16.8795 O   0  0  0  0  0  0  0  0  0  0  0  0
   21.0384   -5.7075  -14.8224 O   0  0  0  0  0  0  0  0  0  0  0  0
  2  1  1  6
  2  4  1  0
  2  3  1  0
  4  6  1  0
  4  5  1  1
  6  7  2  0
  9  8  1  0
 10  9  1  6
 10 12  1  0
 11 10  1  0
 11  6  1  0
 12 13  2  0
 12 14  1  0
 14 15  1  0
 15 21  1  0
 15 16  1  1
 17 16  1  0
 18 17  1  0
 19 18  1  0
 20 19  1  0
 21 23  2  0
 21 22  1  0
M  END
$$$$
