VSK.pdb
     RDKit          3D

 23 22  0  0  1  0  0  0  0  0999 V2000
   36.1904  -10.0970  -17.5272 C   0  0  0  0  0  0  0  0  0  0  0  0
   36.8582   -9.4068  -16.3559 C   0  0  2  0  0  0  0  0  0  0  0  0
   38.3425   -9.6597  -16.4396 C   0  0  0  0  0  0  0  0  0  0  0  0
   36.2389   -9.9493  -15.0961 C   0  0  2  0  0  0  0  0  0  0  0  0
   34.8233   -9.6597  -15.1446 N   0  0  0  0  0  0  0  0  0  0  0  0
   36.8797   -9.4362  -13.8715 C   0  0  0  0  0  0  0  0  0  0  0  0
   36.5649   -8.2826  -13.4882 O   0  0  0  0  0  0  0  0  0  0  0  0
   37.9466  -11.4730  -10.3726 O   0  0  0  0  0  0  0  0  0  0  0  0
   38.9624  -10.7714  -11.0067 C   0  0  0  0  0  0  0  0  0  0  0  0
   38.4200   -9.6605  -11.8798 C   0  0  2  0  0  0  0  0  0  0  0  0
   37.8269  -10.1643  -13.1027 N   0  0  0  0  0  0  0  0  0  0  0  0
   39.4947   -8.7037  -12.2469 C   0  0  0  0  0  0  0  0  0  0  0  0
   40.2075   -8.8727  -13.2727 O   0  0  0  0  0  0  0  0  0  0  0  0
   39.7771   -7.5469  -11.4619 N   0  0  0  0  0  0  0  0  0  0  0  0
   40.8753   -6.6550  -11.7508 C   0  0  1  0  0  0  0  0  0  0  0  0
   40.9212   -5.5144  -10.7901 C   0  0  0  0  0  0  0  0  0  0  0  0
   42.0239   -4.5439  -10.9314 C   0  0  0  0  0  0  0  0  0  0  0  0
   42.0113   -3.4863   -9.8891 C   0  0  0  0  0  0  0  0  0  0  0  0
   43.2311   -2.5467  -10.0556 C   0  0  0  0  0  0  0  0  0  0  0  0
   43.0534   -1.5151   -9.0465 N   0  0  0  0  0  0  0  0  0  0  0  0
   42.1347   -7.3914  -11.8651 C   0  0  0  0  0  0  0  0  0  0  0  0
   42.5039   -8.3639  -10.9216 O   0  0  0  0  0  0  0  0  0  0  0  0
   42.9332   -7.1874  -12.8099 O   0  0  0  0  0  0  0  0  0  0  0  0
  2  1  1  6
  2  4  1  0
  2  3  1  0
  4  6  1  0
  4  5  1  1
  6  7  2  0
  9  8  1  0
 10  9  1  6
 10 12  1  0
 11 10  1  0
 11  6  1  0
 12 13  2  0
 12 14  1  0
 14 15  1  0
 15 21  1  0
 15 16  1  1
 17 16  1  0
 18 17  1  0
 19 18  1  0
 20 19  1  0
 21 23  2  0
 21 22  1  0
M  END
$$$$
