VSK.pdb
     RDKit          3D

 23 22  0  0  1  0  0  0  0  0999 V2000
   28.5079  -24.5062  -18.9524 C   0  0  0  0  0  0  0  0  0  0  0  0
   27.4858  -23.6630  -18.2184 C   0  0  2  0  0  0  0  0  0  0  0  0
   26.9917  -22.5919  -19.1580 C   0  0  0  0  0  0  0  0  0  0  0  0
   28.1543  -23.1061  -16.9905 C   0  0  2  0  0  0  0  0  0  0  0  0
   28.5732  -24.2242  -16.1752 N   0  0  0  0  0  0  0  0  0  0  0  0
   27.3036  -22.1549  -16.2522 C   0  0  0  0  0  0  0  0  0  0  0  0
   26.3154  -22.6176  -15.6305 O   0  0  0  0  0  0  0  0  0  0  0  0
   28.0129  -17.9646  -16.1965 O   0  0  0  0  0  0  0  0  0  0  0  0
   27.4838  -18.5721  -15.0664 C   0  0  0  0  0  0  0  0  0  0  0  0
   26.7336  -19.8415  -15.4081 C   0  0  2  0  0  0  0  0  0  0  0  0
   27.5329  -20.7538  -16.2018 N   0  0  0  0  0  0  0  0  0  0  0  0
   25.4930  -19.5352  -16.1646 C   0  0  0  0  0  0  0  0  0  0  0  0
   25.4821  -19.4881  -17.4242 O   0  0  0  0  0  0  0  0  0  0  0  0
   24.2523  -19.2790  -15.5095 N   0  0  0  0  0  0  0  0  0  0  0  0
   23.0313  -19.0012  -16.2285 C   0  0  1  0  0  0  0  0  0  0  0  0
   21.8335  -19.1524  -15.3519 C   0  0  0  0  0  0  0  0  0  0  0  0
   20.5050  -19.0975  -15.9920 C   0  0  0  0  0  0  0  0  0  0  0  0
   19.3927  -19.4216  -15.0631 C   0  0  0  0  0  0  0  0  0  0  0  0
   18.0642  -19.5808  -15.8430 C   0  0  0  0  0  0  0  0  0  0  0  0
   17.0938  -20.0143  -14.8508 N   0  0  0  0  0  0  0  0  0  0  0  0
   23.1087  -17.7129  -16.9182 C   0  0  0  0  0  0  0  0  0  0  0  0
   22.4998  -17.5123  -18.1678 O   0  0  0  0  0  0  0  0  0  0  0  0
   23.7176  -16.7359  -16.4219 O   0  0  0  0  0  0  0  0  0  0  0  0
  2  1  1  6
  2  4  1  0
  2  3  1  0
  4  6  1  0
  4  5  1  1
  6  7  2  0
  9  8  1  0
 10  9  1  6
 10 12  1  0
 11 10  1  0
 11  6  1  0
 12 13  2  0
 12 14  1  0
 14 15  1  0
 15 21  1  0
 15 16  1  1
 17 16  1  0
 18 17  1  0
 19 18  1  0
 20 19  1  0
 21 23  2  0
 21 22  1  0
M  END
$$$$
