VSK.pdb
     RDKit          3D

 23 22  0  0  1  0  0  0  0  0999 V2000
   12.4874  -12.3863  -10.3962 C   0  0  0  0  0  0  0  0  0  0  0  0
   12.9601  -11.7110  -11.6668 C   0  0  2  0  0  0  0  0  0  0  0  0
   12.3363  -12.4210  -12.8419 C   0  0  0  0  0  0  0  0  0  0  0  0
   14.4641  -11.7652  -11.6772 C   0  0  2  0  0  0  0  0  0  0  0  0
   14.8551  -13.1222  -11.3675 N   0  0  0  0  0  0  0  0  0  0  0  0
   15.0828  -10.7780  -10.7737 C   0  0  0  0  0  0  0  0  0  0  0  0
   14.6374  -10.7003   -9.6021 O   0  0  0  0  0  0  0  0  0  0  0  0
   18.2709   -8.1534  -11.9274 O   0  0  0  0  0  0  0  0  0  0  0  0
   18.1129   -8.5386  -10.6034 C   0  0  0  0  0  0  0  0  0  0  0  0
   16.6726   -8.8752  -10.2826 C   0  0  2  0  0  0  0  0  0  0  0  0
   16.1468   -9.9136  -11.1465 N   0  0  0  0  0  0  0  0  0  0  0  0
   15.8063   -7.6769  -10.4196 C   0  0  0  0  0  0  0  0  0  0  0  0
   15.1774   -7.4348  -11.4848 O   0  0  0  0  0  0  0  0  0  0  0  0
   15.6400   -6.7393   -9.3578 N   0  0  0  0  0  0  0  0  0  0  0  0
   14.8804   -5.5200   -9.5032 C   0  0  1  0  0  0  0  0  0  0  0  0
   14.3849   -5.0235   -8.1863 C   0  0  0  0  0  0  0  0  0  0  0  0
   13.5487   -3.8076   -8.1834 C   0  0  0  0  0  0  0  0  0  0  0  0
   13.1509   -3.3729   -6.8204 C   0  0  0  0  0  0  0  0  0  0  0  0
   14.3988   -2.9834   -5.9900 C   0  0  0  0  0  0  0  0  0  0  0  0
   13.8780   -2.5736   -4.6958 N   0  0  0  0  0  0  0  0  0  0  0  0
   15.6256   -4.5251  -10.2753 C   0  0  0  0  0  0  0  0  0  0  0  0
   14.9685   -3.5584  -11.0538 O   0  0  0  0  0  0  0  0  0  0  0  0
   16.8789   -4.4923  -10.2714 O   0  0  0  0  0  0  0  0  0  0  0  0
  2  1  1  1
  2  4  1  0
  2  3  1  0
  4  6  1  0
  4  5  1  1
  6  7  2  0
  9  8  1  0
 10  9  1  6
 10 12  1  0
 11 10  1  0
 11  6  1  0
 12 13  2  0
 12 14  1  0
 14 15  1  0
 15 21  1  0
 15 16  1  1
 17 16  1  0
 18 17  1  0
 19 18  1  0
 20 19  1  0
 21 23  2  0
 21 22  1  0
M  END
$$$$
