VSK.pdb
     RDKit          3D

 23 22  0  0  1  0  0  0  0  0999 V2000
   21.9689  -12.3395  -16.4130 C   0  0  0  0  0  0  0  0  0  0  0  0
   20.6791  -13.0804  -16.6991 C   0  0  2  0  0  0  0  0  0  0  0  0
   20.8968  -13.9656  -17.9004 C   0  0  0  0  0  0  0  0  0  0  0  0
   19.6024  -12.0511  -16.9139 C   0  0  2  0  0  0  0  0  0  0  0  0
   19.9049  -11.3512  -18.1423 N   0  0  0  0  0  0  0  0  0  0  0  0
   19.4408  -11.1380  -15.7676 C   0  0  0  0  0  0  0  0  0  0  0  0
   19.0466  -11.6298  -14.6815 O   0  0  0  0  0  0  0  0  0  0  0  0
   19.9193   -6.6717  -13.7955 O   0  0  0  0  0  0  0  0  0  0  0  0
   20.1755   -7.5275  -14.8576 C   0  0  0  0  0  0  0  0  0  0  0  0
   19.4349   -8.8397  -14.7154 C   0  0  2  0  0  0  0  0  0  0  0  0
   19.7027   -9.7426  -15.8173 N   0  0  0  0  0  0  0  0  0  0  0  0
   17.9686   -8.6147  -14.6476 C   0  0  0  0  0  0  0  0  0  0  0  0
   17.2653   -8.5245  -15.6898 O   0  0  0  0  0  0  0  0  0  0  0  0
   17.2801   -8.4890  -13.4049 N   0  0  0  0  0  0  0  0  0  0  0  0
   15.8503   -8.3072  -13.3182 C   0  0  1  0  0  0  0  0  0  0  0  0
   15.2534   -9.1637  -12.2523 C   0  0  0  0  0  0  0  0  0  0  0  0
   13.7823   -9.1892  -12.1380 C   0  0  0  0  0  0  0  0  0  0  0  0
   13.2938  -10.0779  -11.0533 C   0  0  0  0  0  0  0  0  0  0  0  0
   11.7465  -10.0571  -10.9910 C   0  0  0  0  0  0  0  0  0  0  0  0
   11.3947  -11.0688  -10.0077 N   0  0  0  0  0  0  0  0  0  0  0  0
   15.5062   -6.8891  -13.2083 C   0  0  0  0  0  0  0  0  0  0  0  0
   14.2444   -6.4085  -13.5947 O   0  0  0  0  0  0  0  0  0  0  0  0
   16.3206   -6.0466  -12.7625 O   0  0  0  0  0  0  0  0  0  0  0  0
  2  1  1  6
  2  4  1  0
  2  3  1  0
  4  6  1  0
  4  5  1  6
  6  7  2  0
  9  8  1  0
 10  9  1  6
 10 12  1  0
 11 10  1  0
 11  6  1  0
 12 13  2  0
 12 14  1  0
 14 15  1  0
 15 21  1  0
 15 16  1  1
 17 16  1  0
 18 17  1  0
 19 18  1  0
 20 19  1  0
 21 23  2  0
 21 22  1  0
M  END
$$$$
