YWP.pdb
     RDKit          3D

 34 37  0  0  1  0  0  0  0  0999 V2000
    8.8461  -11.1367   18.5728 O   0  0  0  0  0  0  0  0  0  0  0  0
    8.6233  -12.4752   18.7983 C   0  0  0  0  0  0  0  0  0  0  0  0
    7.4848  -12.9394   19.4332 C   0  0  0  0  0  0  0  0  0  0  0  0
    7.3280  -14.2854   19.6246 C   0  0  0  0  0  0  0  0  0  0  0  0
    8.2561  -15.2324   19.2146 C   0  0  0  0  0  0  0  0  0  0  0  0
    8.0518  -16.6868   19.4421 C   0  0  0  0  0  0  0  0  0  0  0  0
    9.0114  -17.1277   20.5439 C   0  0  2  0  0  0  0  0  0  0  0  0
    8.7892  -18.5668   20.6786 N   0  0  0  0  0  0  0  0  0  0  0  0
    8.7191  -16.4237   21.8161 C   0  0  0  0  0  0  0  0  0  0  0  0
    7.6953  -15.7045   21.8925 O   0  0  0  0  0  0  0  0  0  0  0  0
    9.3840  -14.7419   18.5832 C   0  0  0  0  0  0  0  0  0  0  0  0
    9.5769  -13.3923   18.3726 C   0  0  0  0  0  0  0  0  0  0  0  0
    9.5533  -16.5352   22.9429 N   0  0  0  0  0  0  0  0  0  0  0  0
    9.2073  -15.7416   24.1559 C   0  0  1  0  0  0  0  0  0  0  0  0
    7.7876  -16.1760   24.4276 C   0  0  0  0  0  0  0  0  0  0  0  0
    6.9735  -15.3516   25.2824 C   0  0  0  0  0  0  0  0  0  0  0  0
    5.9793  -15.6575   26.1943 C   0  0  0  0  0  0  0  0  0  0  0  0
    5.4946  -14.5261   26.7357 N   0  0  0  0  0  0  0  0  0  0  0  0
    6.1425  -13.4731   26.2062 C   0  0  0  0  0  0  0  0  0  0  0  0
    6.0205  -12.1156   26.4237 C   0  0  0  0  0  0  0  0  0  0  0  0
    6.8295  -11.2224   25.7306 C   0  0  0  0  0  0  0  0  0  0  0  0
    7.7497  -11.6874   24.8301 C   0  0  0  0  0  0  0  0  0  0  0  0
    7.8464  -13.0483   24.6359 C   0  0  0  0  0  0  0  0  0  0  0  0
    7.0503  -13.9539   25.3161 C   0  0  0  0  0  0  0  0  0  0  0  0
   10.1697  -16.0793   25.2032 C   0  0  0  0  0  0  0  0  0  0  0  0
   11.2067  -16.7480   24.8312 O   0  0  0  0  0  0  0  0  0  0  0  0
   10.0654  -15.7390   26.5568 N   0  0  0  0  0  0  0  0  0  0  0  0
    9.0068  -15.0721   27.2587 C   0  0  0  0  0  0  0  0  0  0  0  0
    9.7115  -14.2451   28.3368 C   0  0  0  0  0  0  0  0  0  0  0  0
   11.1709  -14.6251   28.2099 C   0  0  0  0  0  0  0  0  0  0  0  0
   11.0732  -16.0041   27.5648 C   0  0  1  0  0  0  0  0  0  0  0  0
   10.6122  -16.9360   28.6039 C   0  0  0  0  0  0  0  0  0  0  0  0
   11.3970  -17.4382   29.6244 O   0  0  0  0  0  0  0  0  0  0  0  0
    9.4104  -17.3077   28.5645 O   0  0  0  0  0  0  0  0  0  0  0  0
  2  1  1  0
  3  2  2  0
  4  3  1  0
  5  4  2  0
  5 11  1  0
  6  7  1  0
  6  5  1  0
  7  9  1  0
  7  8  1  1
  9 10  2  0
 11 12  2  0
 12  2  1  0
 13  9  1  0
 13 14  1  0
 14 25  1  0
 14 15  1  1
 16 15  1  0
 17 16  2  0
 18 17  1  0
 19 18  1  0
 19 24  2  0
 20 21  2  0
 20 19  1  0
 21 22  1  0
 22 23  2  0
 24 23  1  0
 24 16  1  0
 25 27  1  0
 26 25  2  0
 27 28  1  0
 27 31  1  0
 28 29  1  0
 29 30  1  0
 31 30  1  0
 31 32  1  1
 32 34  2  0
 32 33  1  0
M  END
$$$$
