YWP.pdb
     RDKit          3D

 34 37  0  0  1  0  0  0  0  0999 V2000
    8.3277  -15.2070   15.1525 O   0  0  0  0  0  0  0  0  0  0  0  0
    8.5424  -14.9149   16.4795 C   0  0  0  0  0  0  0  0  0  0  0  0
    7.7565  -14.0136   17.1755 C   0  0  0  0  0  0  0  0  0  0  0  0
    8.0269  -13.7707   18.4949 C   0  0  0  0  0  0  0  0  0  0  0  0
    9.0590  -14.3826   19.1924 C   0  0  0  0  0  0  0  0  0  0  0  0
    9.3235  -14.0915   20.6256 C   0  0  0  0  0  0  0  0  0  0  0  0
    8.8533  -15.2924   21.4417 C   0  0  2  0  0  0  0  0  0  0  0  0
    7.4783  -15.5269   21.0025 N   0  0  0  0  0  0  0  0  0  0  0  0
    8.9043  -15.0002   22.8948 C   0  0  0  0  0  0  0  0  0  0  0  0
    8.5985  -13.8526   23.2960 O   0  0  0  0  0  0  0  0  0  0  0  0
    9.8287  -15.2783   18.4735 C   0  0  0  0  0  0  0  0  0  0  0  0
    9.5865  -15.5488   17.1427 C   0  0  0  0  0  0  0  0  0  0  0  0
    9.2852  -15.9685   23.8409 N   0  0  0  0  0  0  0  0  0  0  0  0
    9.3356  -15.5689   25.2758 C   0  0  1  0  0  0  0  0  0  0  0  0
    8.0383  -16.1271   25.8084 C   0  0  0  0  0  0  0  0  0  0  0  0
    6.8703  -15.2857   25.7789 C   0  0  0  0  0  0  0  0  0  0  0  0
    5.5526  -15.5381   25.4417 C   0  0  0  0  0  0  0  0  0  0  0  0
    4.8303  -14.4093   25.5530 N   0  0  0  0  0  0  0  0  0  0  0  0
    5.6356  -13.4105   25.9565 C   0  0  0  0  0  0  0  0  0  0  0  0
    5.3867  -12.0778   26.2155 C   0  0  0  0  0  0  0  0  0  0  0  0
    6.4185  -11.2428   26.6286 C   0  0  0  0  0  0  0  0  0  0  0  0
    7.6847  -11.7405   26.7797 C   0  0  0  0  0  0  0  0  0  0  0  0
    7.9000  -13.0753   26.5130 C   0  0  0  0  0  0  0  0  0  0  0  0
    6.8861  -13.9231   26.1008 C   0  0  0  0  0  0  0  0  0  0  0  0
   10.5448  -16.1460   25.8605 C   0  0  0  0  0  0  0  0  0  0  0  0
   11.3980  -16.6431   25.0324 O   0  0  0  0  0  0  0  0  0  0  0  0
   10.8537  -16.1997   27.2246 N   0  0  0  0  0  0  0  0  0  0  0  0
   10.1258  -15.6953   28.3532 C   0  0  0  0  0  0  0  0  0  0  0  0
   11.2019  -15.2560   29.3491 C   0  0  0  0  0  0  0  0  0  0  0  0
   12.5057  -15.6751   28.7049 C   0  0  0  0  0  0  0  0  0  0  0  0
   12.0451  -16.8041   27.7880 C   0  0  1  0  0  0  0  0  0  0  0  0
   11.7495  -17.9626   28.6432 C   0  0  0  0  0  0  0  0  0  0  0  0
   10.4896  -18.4858   28.8630 O   0  0  0  0  0  0  0  0  0  0  0  0
   12.7160  -18.5240   29.2217 O   0  0  0  0  0  0  0  0  0  0  0  0
  2  1  1  0
  3  2  2  0
  4  3  1  0
  5  4  2  0
  5 11  1  0
  6  7  1  0
  6  5  1  0
  7  9  1  0
  7  8  1  6
  9 10  2  0
 11 12  2  0
 12  2  1  0
 13  9  1  0
 13 14  1  0
 14 25  1  0
 14 15  1  1
 16 15  1  0
 17 16  2  0
 18 17  1  0
 19 18  1  0
 19 24  2  0
 20 21  2  0
 20 19  1  0
 21 22  1  0
 22 23  2  0
 24 23  1  0
 24 16  1  0
 25 27  1  0
 26 25  2  0
 27 28  1  0
 27 31  1  0
 28 29  1  0
 29 30  1  0
 31 30  1  0
 31 32  1  1
 32 34  2  0
 32 33  1  0
M  END
$$$$
