YWP.pdb
     RDKit          3D

 34 37  0  0  1  0  0  0  0  0999 V2000
    8.2992  -20.4988   16.0488 O   0  0  0  0  0  0  0  0  0  0  0  0
    8.5856  -19.9472   17.2760 C   0  0  0  0  0  0  0  0  0  0  0  0
    8.4804  -18.5892   17.5199 C   0  0  0  0  0  0  0  0  0  0  0  0
    8.7813  -18.1086   18.7654 C   0  0  0  0  0  0  0  0  0  0  0  0
    9.1931  -18.9120   19.8195 C   0  0  0  0  0  0  0  0  0  0  0  0
    9.5133  -18.3529   21.1588 C   0  0  0  0  0  0  0  0  0  0  0  0
   10.0430  -16.9355   20.9600 C   0  0  2  0  0  0  0  0  0  0  0  0
   11.1272  -17.0750   19.9885 N   0  0  0  0  0  0  0  0  0  0  0  0
   10.5432  -16.3712   22.2369 C   0  0  0  0  0  0  0  0  0  0  0  0
   11.7451  -16.5429   22.5489 O   0  0  0  0  0  0  0  0  0  0  0  0
    9.2899  -20.2643   19.5490 C   0  0  0  0  0  0  0  0  0  0  0  0
    8.9950  -20.7855   18.3062 C   0  0  0  0  0  0  0  0  0  0  0  0
    9.7136  -15.6481   23.1126 N   0  0  0  0  0  0  0  0  0  0  0  0
   10.3161  -15.0986   24.3600 C   0  0  1  0  0  0  0  0  0  0  0  0
    9.4947  -13.8533   24.5896 C   0  0  0  0  0  0  0  0  0  0  0  0
    8.1549  -14.0033   25.0950 C   0  0  0  0  0  0  0  0  0  0  0  0
    7.3226  -15.1026   25.2072 C   0  0  0  0  0  0  0  0  0  0  0  0
    6.1414  -14.7277   25.7290 N   0  0  0  0  0  0  0  0  0  0  0  0
    6.1668  -13.4042   25.9674 C   0  0  0  0  0  0  0  0  0  0  0  0
    5.2198  -12.5469   26.4901 C   0  0  0  0  0  0  0  0  0  0  0  0
    5.5067  -11.1943   26.6339 C   0  0  0  0  0  0  0  0  0  0  0  0
    6.7300  -10.7090   26.2572 C   0  0  0  0  0  0  0  0  0  0  0  0
    7.6532  -11.5910   25.7388 C   0  0  0  0  0  0  0  0  0  0  0  0
    7.3869  -12.9412   25.5877 C   0  0  0  0  0  0  0  0  0  0  0  0
   10.2004  -16.1178   25.4016 C   0  0  0  0  0  0  0  0  0  0  0  0
    9.9216  -17.3115   25.0035 O   0  0  0  0  0  0  0  0  0  0  0  0
   10.3691  -15.9123   26.7757 N   0  0  0  0  0  0  0  0  0  0  0  0
   10.0144  -14.7839   27.5875 C   0  0  0  0  0  0  0  0  0  0  0  0
   11.1084  -14.7100   28.6555 C   0  0  0  0  0  0  0  0  0  0  0  0
   11.9650  -15.9318   28.4030 C   0  0  0  0  0  0  0  0  0  0  0  0
   10.9800  -16.8550   27.6924 C   0  0  1  0  0  0  0  0  0  0  0  0
   10.0431  -17.3531   28.7097 C   0  0  0  0  0  0  0  0  0  0  0  0
   10.3825  -18.1779   29.7652 O   0  0  0  0  0  0  0  0  0  0  0  0
    8.8377  -17.0037   28.6155 O   0  0  0  0  0  0  0  0  0  0  0  0
  2  1  1  0
  3  2  2  0
  4  3  1  0
  5  4  2  0
  5 11  1  0
  6  7  1  0
  6  5  1  0
  7  9  1  0
  7  8  1  6
  9 10  2  0
 11 12  2  0
 12  2  1  0
 13  9  1  0
 13 14  1  0
 14 25  1  0
 14 15  1  1
 16 15  1  0
 17 16  2  0
 18 17  1  0
 19 18  1  0
 19 24  2  0
 20 21  2  0
 20 19  1  0
 21 22  1  0
 22 23  2  0
 24 23  1  0
 24 16  1  0
 25 27  1  0
 26 25  2  0
 27 28  1  0
 27 31  1  0
 28 29  1  0
 29 30  1  0
 31 30  1  0
 31 32  1  1
 32 34  2  0
 32 33  1  0
M  END
$$$$
