YWP.pdb
     RDKit          3D

 34 37  0  0  1  0  0  0  0  0999 V2000
    8.5658  -15.7274   13.9851 O   0  0  0  0  0  0  0  0  0  0  0  0
    8.6648  -15.2700   15.2786 C   0  0  0  0  0  0  0  0  0  0  0  0
    9.5274  -15.8369   16.2002 C   0  0  0  0  0  0  0  0  0  0  0  0
    9.5744  -15.3309   17.4709 C   0  0  0  0  0  0  0  0  0  0  0  0
    8.7972  -14.2649   17.9021 C   0  0  0  0  0  0  0  0  0  0  0  0
    8.8745  -13.7440   19.2918 C   0  0  0  0  0  0  0  0  0  0  0  0
    9.3592  -14.8781   20.1907 C   0  0  2  0  0  0  0  0  0  0  0  0
    8.3365  -15.9161   20.0663 N   0  0  0  0  0  0  0  0  0  0  0  0
    9.4871  -14.4242   21.5967 C   0  0  0  0  0  0  0  0  0  0  0  0
    9.2573  -13.2229   21.8718 O   0  0  0  0  0  0  0  0  0  0  0  0
    7.9443  -13.7174   16.9618 C   0  0  0  0  0  0  0  0  0  0  0  0
    7.8693  -14.2003   15.6718 C   0  0  0  0  0  0  0  0  0  0  0  0
    9.8584  -15.2970   22.6351 N   0  0  0  0  0  0  0  0  0  0  0  0
    9.4597  -14.9446   24.0272 C   0  0  1  0  0  0  0  0  0  0  0  0
    7.9534  -15.0036   23.9525 C   0  0  0  0  0  0  0  0  0  0  0  0
    7.1983  -14.6760   25.1339 C   0  0  0  0  0  0  0  0  0  0  0  0
    6.5208  -15.4606   26.0499 C   0  0  0  0  0  0  0  0  0  0  0  0
    5.9447  -14.6792   26.9804 N   0  0  0  0  0  0  0  0  0  0  0  0
    6.2225  -13.3921   26.7061 C   0  0  0  0  0  0  0  0  0  0  0  0
    5.8716  -12.2204   27.3457 C   0  0  0  0  0  0  0  0  0  0  0  0
    6.2993  -10.9965   26.8440 C   0  0  0  0  0  0  0  0  0  0  0  0
    7.0700  -10.9503   25.7136 C   0  0  0  0  0  0  0  0  0  0  0  0
    7.4027  -12.1379   25.0988 C   0  0  0  0  0  0  0  0  0  0  0  0
    6.9870  -13.3666   25.5826 C   0  0  0  0  0  0  0  0  0  0  0  0
   10.0738  -15.9166   24.9300 C   0  0  0  0  0  0  0  0  0  0  0  0
   10.4288  -17.0386   24.4047 O   0  0  0  0  0  0  0  0  0  0  0  0
   10.3110  -15.7337   26.2972 N   0  0  0  0  0  0  0  0  0  0  0  0
    9.7323  -14.7936   27.2135 C   0  0  0  0  0  0  0  0  0  0  0  0
   10.8595  -14.4558   28.1924 C   0  0  0  0  0  0  0  0  0  0  0  0
   11.9982  -15.3658   27.7850 C   0  0  0  0  0  0  0  0  0  0  0  0
   11.2503  -16.5006   27.0920 C   0  0  1  0  0  0  0  0  0  0  0  0
   10.5969  -17.2935   28.1433 C   0  0  0  0  0  0  0  0  0  0  0  0
    9.2724  -17.6875   28.1326 O   0  0  0  0  0  0  0  0  0  0  0  0
   11.2943  -17.6423   29.1311 O   0  0  0  0  0  0  0  0  0  0  0  0
  2  1  1  0
  3  2  2  0
  4  3  1  0
  5  4  2  0
  5 11  1  0
  6  7  1  0
  6  5  1  0
  7  9  1  0
  7  8  1  1
  9 10  2  0
 11 12  2  0
 12  2  1  0
 13  9  1  0
 13 14  1  0
 14 25  1  0
 14 15  1  6
 16 15  1  0
 17 16  2  0
 18 17  1  0
 19 18  1  0
 19 24  2  0
 20 21  2  0
 20 19  1  0
 21 22  1  0
 22 23  2  0
 24 23  1  0
 24 16  1  0
 25 27  1  0
 26 25  2  0
 27 28  1  0
 27 31  1  0
 28 29  1  0
 29 30  1  0
 31 30  1  0
 31 32  1  1
 32 34  2  0
 32 33  1  0
M  END
$$$$
