YWP.pdb
     RDKit          3D

 34 37  0  0  1  0  0  0  0  0999 V2000
   16.6748  -13.1250   19.8151 O   0  0  0  0  0  0  0  0  0  0  0  0
   15.5882  -13.9586   19.9443 C   0  0  0  0  0  0  0  0  0  0  0  0
   15.2666  -14.5754   21.1405 C   0  0  0  0  0  0  0  0  0  0  0  0
   14.1705  -15.3928   21.1974 C   0  0  0  0  0  0  0  0  0  0  0  0
   13.3453  -15.6472   20.1109 C   0  0  0  0  0  0  0  0  0  0  0  0
   12.1638  -16.5433   20.2108 C   0  0  0  0  0  0  0  0  0  0  0  0
   10.9123  -15.6698   20.2099 C   0  0  2  0  0  0  0  0  0  0  0  0
   11.2274  -14.5671   19.3024 N   0  0  0  0  0  0  0  0  0  0  0  0
   10.6141  -15.1673   21.5730 C   0  0  0  0  0  0  0  0  0  0  0  0
   11.0419  -14.0391   21.9130 O   0  0  0  0  0  0  0  0  0  0  0  0
   13.6891  -15.0188   18.9284 C   0  0  0  0  0  0  0  0  0  0  0  0
   14.7863  -14.1881   18.8327 C   0  0  0  0  0  0  0  0  0  0  0  0
    9.8660  -15.9148   22.5001 N   0  0  0  0  0  0  0  0  0  0  0  0
    9.4621  -15.2549   23.7739 C   0  0  1  0  0  0  0  0  0  0  0  0
    7.9561  -15.3329   23.7103 C   0  0  0  0  0  0  0  0  0  0  0  0
    7.2039  -14.9679   24.8826 C   0  0  0  0  0  0  0  0  0  0  0  0
    6.5233  -15.7226   25.8211 C   0  0  0  0  0  0  0  0  0  0  0  0
    5.9521  -14.9121   26.7294 N   0  0  0  0  0  0  0  0  0  0  0  0
    6.2362  -13.6347   26.4184 C   0  0  0  0  0  0  0  0  0  0  0  0
    5.8920  -12.4436   27.0247 C   0  0  0  0  0  0  0  0  0  0  0  0
    6.3256  -11.2366   26.4880 C   0  0  0  0  0  0  0  0  0  0  0  0
    7.0953  -11.2266   25.3561 C   0  0  0  0  0  0  0  0  0  0  0  0
    7.4213  -12.4329   24.7750 C   0  0  0  0  0  0  0  0  0  0  0  0
    6.9997  -13.6452   25.2940 C   0  0  0  0  0  0  0  0  0  0  0  0
   10.0747  -15.9939   24.8765 C   0  0  0  0  0  0  0  0  0  0  0  0
   10.7507  -17.0428   24.5546 O   0  0  0  0  0  0  0  0  0  0  0  0
    9.9954  -15.6614   26.2337 N   0  0  0  0  0  0  0  0  0  0  0  0
    9.2313  -14.6379   26.8870 C   0  0  0  0  0  0  0  0  0  0  0  0
   10.1085  -14.1788   28.0542 C   0  0  0  0  0  0  0  0  0  0  0  0
   11.3020  -15.1086   28.0177 C   0  0  0  0  0  0  0  0  0  0  0  0
   10.7219  -16.3233   27.2996 C   0  0  1  0  0  0  0  0  0  0  0  0
    9.8390  -17.0091   28.2541 C   0  0  0  0  0  0  0  0  0  0  0  0
    8.4932  -17.2527   28.0564 O   0  0  0  0  0  0  0  0  0  0  0  0
   10.3441  -17.4067   29.3361 O   0  0  0  0  0  0  0  0  0  0  0  0
  2  1  1  0
  3  2  2  0
  4  3  1  0
  5  4  2  0
  5 11  1  0
  6  7  1  0
  6  5  1  0
  7  9  1  0
  7  8  1  6
  9 10  2  0
 11 12  2  0
 12  2  1  0
 13  9  1  0
 13 14  1  0
 14 25  1  0
 14 15  1  1
 16 15  1  0
 17 16  2  0
 18 17  1  0
 19 18  1  0
 19 24  2  0
 20 21  2  0
 20 19  1  0
 21 22  1  0
 22 23  2  0
 24 23  1  0
 24 16  1  0
 25 27  1  0
 26 25  2  0
 27 28  1  0
 27 31  1  0
 28 29  1  0
 29 30  1  0
 31 30  1  0
 31 32  1  1
 32 34  2  0
 32 33  1  0
M  END
$$$$
