YWP.pdb
     RDKit          3D

 34 37  0  0  1  0  0  0  0  0999 V2000
    9.9629  -19.7187   19.3521 O   0  0  0  0  0  0  0  0  0  0  0  0
    8.6539  -19.7890   19.7690 C   0  0  0  0  0  0  0  0  0  0  0  0
    7.6934  -18.8866   19.3472 C   0  0  0  0  0  0  0  0  0  0  0  0
    6.4092  -19.0161   19.8022 C   0  0  0  0  0  0  0  0  0  0  0  0
    6.0013  -20.0139   20.6765 C   0  0  0  0  0  0  0  0  0  0  0  0
    4.5969  -20.1212   21.1507 C   0  0  0  0  0  0  0  0  0  0  0  0
    4.5900  -19.8657   22.6553 C   0  0  2  0  0  0  0  0  0  0  0  0
    3.2026  -20.0816   23.0642 N   0  0  0  0  0  0  0  0  0  0  0  0
    5.0248  -18.4813   22.9613 C   0  0  0  0  0  0  0  0  0  0  0  0
    4.4289  -17.5219   22.4174 O   0  0  0  0  0  0  0  0  0  0  0  0
    6.9805  -20.9016   21.0822 C   0  0  0  0  0  0  0  0  0  0  0  0
    8.2851  -20.8030   20.6449 C   0  0  0  0  0  0  0  0  0  0  0  0
    6.0856  -18.2066   23.8429 N   0  0  0  0  0  0  0  0  0  0  0  0
    6.5487  -16.7957   23.9688 C   0  0  1  0  0  0  0  0  0  0  0  0
    6.8503  -16.6891   25.4439 C   0  0  0  0  0  0  0  0  0  0  0  0
    7.6196  -15.5620   25.9033 C   0  0  0  0  0  0  0  0  0  0  0  0
    8.9824  -15.3364   25.9775 C   0  0  0  0  0  0  0  0  0  0  0  0
    9.2145  -14.1221   26.5063 N   0  0  0  0  0  0  0  0  0  0  0  0
    8.0383  -13.5328   26.7861 C   0  0  0  0  0  0  0  0  0  0  0  0
    7.7347  -12.3019   27.3318 C   0  0  0  0  0  0  0  0  0  0  0  0
    6.4083  -11.9297   27.5191 C   0  0  0  0  0  0  0  0  0  0  0  0
    5.3996  -12.7837   27.1626 C   0  0  0  0  0  0  0  0  0  0  0  0
    5.7363  -14.0051   26.6206 C   0  0  0  0  0  0  0  0  0  0  0  0
    7.0506  -14.3942   26.4260 C   0  0  0  0  0  0  0  0  0  0  0  0
    7.7011  -16.6208   23.0866 C   0  0  0  0  0  0  0  0  0  0  0  0
    8.2502  -17.6995   22.6442 O   0  0  0  0  0  0  0  0  0  0  0  0
    8.2492  -15.3980   22.6822 N   0  0  0  0  0  0  0  0  0  0  0  0
    8.0309  -14.0769   23.1972 C   0  0  0  0  0  0  0  0  0  0  0  0
    8.1253  -13.1596   21.9755 C   0  0  0  0  0  0  0  0  0  0  0  0
    8.5175  -14.0813   20.8411 C   0  0  0  0  0  0  0  0  0  0  0  0
    9.1915  -15.2241   21.5942 C   0  0  1  0  0  0  0  0  0  0  0  0
   10.5014  -14.7321   22.0447 C   0  0  0  0  0  0  0  0  0  0  0  0
   10.8563  -14.5118   23.3619 O   0  0  0  0  0  0  0  0  0  0  0  0
   11.3695  -14.4916   21.1657 O   0  0  0  0  0  0  0  0  0  0  0  0
  2  1  1  0
  3  2  2  0
  4  3  1  0
  5  4  2  0
  5 11  1  0
  6  7  1  0
  6  5  1  0
  7  9  1  0
  7  8  1  6
  9 10  2  0
 11 12  2  0
 12  2  1  0
 13  9  1  0
 13 14  1  0
 14 25  1  0
 14 15  1  1
 16 15  1  0
 17 16  2  0
 18 17  1  0
 19 18  1  0
 19 24  2  0
 20 21  2  0
 20 19  1  0
 21 22  1  0
 22 23  2  0
 24 23  1  0
 24 16  1  0
 25 27  1  0
 26 25  2  0
 27 28  1  0
 27 31  1  0
 28 29  1  0
 29 30  1  0
 31 30  1  0
 31 32  1  1
 32 34  2  0
 32 33  1  0
M  END
$$$$
