YWP.pdb
     RDKit          3D

 34 37  0  0  1  0  0  0  0  0999 V2000
   13.1103  -22.8060   18.8921 O   0  0  0  0  0  0  0  0  0  0  0  0
   13.1374  -21.6806   19.6828 C   0  0  0  0  0  0  0  0  0  0  0  0
   13.9093  -21.5994   20.8284 C   0  0  0  0  0  0  0  0  0  0  0  0
   13.8883  -20.4482   21.5681 C   0  0  0  0  0  0  0  0  0  0  0  0
   13.1275  -19.3359   21.2360 C   0  0  0  0  0  0  0  0  0  0  0  0
   13.1290  -18.1031   22.0660 C   0  0  0  0  0  0  0  0  0  0  0  0
   12.1391  -17.1205   21.4465 C   0  0  2  0  0  0  0  0  0  0  0  0
   12.9383  -16.3199   20.5197 N   0  0  0  0  0  0  0  0  0  0  0  0
   11.5172  -16.2658   22.4868 C   0  0  0  0  0  0  0  0  0  0  0  0
   12.2228  -15.4138   23.0764 O   0  0  0  0  0  0  0  0  0  0  0  0
   12.3658  -19.4437   20.0873 C   0  0  0  0  0  0  0  0  0  0  0  0
   12.3612  -20.5876   19.3162 C   0  0  0  0  0  0  0  0  0  0  0  0
   10.1595  -16.3784   22.8359 N   0  0  0  0  0  0  0  0  0  0  0  0
    9.6536  -15.5537   23.9695 C   0  0  1  0  0  0  0  0  0  0  0  0
    8.1683  -15.5218   23.7030 C   0  0  0  0  0  0  0  0  0  0  0  0
    7.2994  -15.0304   24.7407 C   0  0  0  0  0  0  0  0  0  0  0  0
    6.5426  -15.6770   25.7014 C   0  0  0  0  0  0  0  0  0  0  0  0
    5.8724  -14.7729   26.4373 N   0  0  0  0  0  0  0  0  0  0  0  0
    6.1647  -13.5387   25.9897 C   0  0  0  0  0  0  0  0  0  0  0  0
    5.7436  -12.2897   26.3991 C   0  0  0  0  0  0  0  0  0  0  0  0
    6.2078  -11.1501   25.7521 C   0  0  0  0  0  0  0  0  0  0  0  0
    7.0842  -11.2640   24.7067 C   0  0  0  0  0  0  0  0  0  0  0  0
    7.4850  -12.5253   24.3225 C   0  0  0  0  0  0  0  0  0  0  0  0
    7.0345  -13.6721   24.9538 C   0  0  0  0  0  0  0  0  0  0  0  0
   10.0457  -16.2124   25.2142 C   0  0  0  0  0  0  0  0  0  0  0  0
   10.5903  -17.3746   25.0979 O   0  0  0  0  0  0  0  0  0  0  0  0
    9.8870  -15.6937   26.5045 N   0  0  0  0  0  0  0  0  0  0  0  0
    9.0931  -14.5893   26.9608 C   0  0  0  0  0  0  0  0  0  0  0  0
    9.9017  -13.9713   28.1041 C   0  0  0  0  0  0  0  0  0  0  0  0
   11.0876  -14.8967   28.2705 C   0  0  0  0  0  0  0  0  0  0  0  0
   10.5422  -16.2000   27.6946 C   0  0  1  0  0  0  0  0  0  0  0  0
    9.5976  -16.7462   28.6796 C   0  0  0  0  0  0  0  0  0  0  0  0
    8.2354  -16.8744   28.4864 O   0  0  0  0  0  0  0  0  0  0  0  0
   10.0616  -17.1277   29.7856 O   0  0  0  0  0  0  0  0  0  0  0  0
  2  1  1  0
  3  2  2  0
  4  3  1  0
  5  4  2  0
  5 11  1  0
  6  7  1  0
  6  5  1  0
  7  9  1  0
  7  8  1  6
  9 10  2  0
 11 12  2  0
 12  2  1  0
 13  9  1  0
 13 14  1  0
 14 25  1  0
 14 15  1  6
 16 15  1  0
 17 16  2  0
 18 17  1  0
 19 18  1  0
 19 24  2  0
 20 21  2  0
 20 19  1  0
 21 22  1  0
 22 23  2  0
 24 23  1  0
 24 16  1  0
 25 27  1  0
 26 25  2  0
 27 28  1  0
 27 31  1  0
 28 29  1  0
 29 30  1  0
 31 30  1  0
 31 32  1  1
 32 34  2  0
 32 33  1  0
M  END
$$$$
