YWP.pdb
     RDKit          3D

 34 37  0  0  1  0  0  0  0  0999 V2000
    8.4159  -14.9134   15.4375 O   0  0  0  0  0  0  0  0  0  0  0  0
    8.3808  -14.6742   16.7917 C   0  0  0  0  0  0  0  0  0  0  0  0
    7.6246  -13.6554   17.3440 C   0  0  0  0  0  0  0  0  0  0  0  0
    7.6365  -13.4743   18.7005 C   0  0  0  0  0  0  0  0  0  0  0  0
    8.3729  -14.2624   19.5739 C   0  0  0  0  0  0  0  0  0  0  0  0
    8.3623  -14.0337   21.0423 C   0  0  0  0  0  0  0  0  0  0  0  0
    9.1179  -15.1845   21.7009 C   0  0  2  0  0  0  0  0  0  0  0  0
    8.2716  -16.3578   21.4867 N   0  0  0  0  0  0  0  0  0  0  0  0
    9.3171  -14.9302   23.1483 C   0  0  0  0  0  0  0  0  0  0  0  0
    9.5247  -13.7567   23.5372 O   0  0  0  0  0  0  0  0  0  0  0  0
    9.1194  -15.2725   18.9961 C   0  0  0  0  0  0  0  0  0  0  0  0
    9.1325  -15.4857   17.6332 C   0  0  0  0  0  0  0  0  0  0  0  0
    9.2810  -15.9628   24.1024 N   0  0  0  0  0  0  0  0  0  0  0  0
    9.3888  -15.5945   25.5425 C   0  0  1  0  0  0  0  0  0  0  0  0
    8.0570  -16.0484   26.0887 C   0  0  0  0  0  0  0  0  0  0  0  0
    6.9243  -15.1720   25.9404 C   0  0  0  0  0  0  0  0  0  0  0  0
    5.6332  -15.3910   25.4943 C   0  0  0  0  0  0  0  0  0  0  0  0
    4.9414  -14.2382   25.5194 N   0  0  0  0  0  0  0  0  0  0  0  0
    5.7411  -13.2559   25.9718 C   0  0  0  0  0  0  0  0  0  0  0  0
    5.5146  -11.9106   26.1813 C   0  0  0  0  0  0  0  0  0  0  0  0
    6.5335  -11.0987   26.6663 C   0  0  0  0  0  0  0  0  0  0  0  0
    7.7649  -11.6319   26.9374 C   0  0  0  0  0  0  0  0  0  0  0  0
    7.9584  -12.9784   26.7173 C   0  0  0  0  0  0  0  0  0  0  0  0
    6.9568  -13.8035   26.2351 C   0  0  0  0  0  0  0  0  0  0  0  0
   10.5530  -16.2836   26.0964 C   0  0  0  0  0  0  0  0  0  0  0  0
   11.3369  -16.8531   25.2467 O   0  0  0  0  0  0  0  0  0  0  0  0
   10.8877  -16.3727   27.4525 N   0  0  0  0  0  0  0  0  0  0  0  0
   10.1892  -15.8841   28.6064 C   0  0  0  0  0  0  0  0  0  0  0  0
   11.2908  -15.4826   29.5904 C   0  0  0  0  0  0  0  0  0  0  0  0
   12.5756  -15.9048   28.9112 C   0  0  0  0  0  0  0  0  0  0  0  0
   12.0811  -17.0062   27.9784 C   0  0  1  0  0  0  0  0  0  0  0  0
   11.7858  -18.1796   28.8130 C   0  0  0  0  0  0  0  0  0  0  0  0
   12.7339  -18.9751   29.4278 O   0  0  0  0  0  0  0  0  0  0  0  0
   10.5773  -18.4869   28.9832 O   0  0  0  0  0  0  0  0  0  0  0  0
  2  1  1  0
  3  2  2  0
  4  3  1  0
  5  4  2  0
  5 11  1  0
  6  7  1  0
  6  5  1  0
  7  9  1  0
  7  8  1  1
  9 10  2  0
 11 12  2  0
 12  2  1  0
 13  9  1  0
 13 14  1  0
 14 25  1  0
 14 15  1  1
 16 15  1  0
 17 16  2  0
 18 17  1  0
 19 18  1  0
 19 24  2  0
 20 21  2  0
 20 19  1  0
 21 22  1  0
 22 23  2  0
 24 23  1  0
 24 16  1  0
 25 27  1  0
 26 25  2  0
 27 28  1  0
 27 31  1  0
 28 29  1  0
 29 30  1  0
 31 30  1  0
 31 32  1  1
 32 34  2  0
 32 33  1  0
M  END
$$$$
