YWP.pdb
     RDKit          3D

 34 37  0  0  1  0  0  0  0  0999 V2000
    4.8827  -24.8745   30.0583 O   0  0  0  0  0  0  0  0  0  0  0  0
    5.4929  -24.0447   29.1464 C   0  0  0  0  0  0  0  0  0  0  0  0
    5.0692  -22.7456   28.9284 C   0  0  0  0  0  0  0  0  0  0  0  0
    5.7231  -21.9755   28.0053 C   0  0  0  0  0  0  0  0  0  0  0  0
    6.8047  -22.4232   27.2597 C   0  0  0  0  0  0  0  0  0  0  0  0
    7.4885  -21.5574   26.2639 C   0  0  0  0  0  0  0  0  0  0  0  0
    6.4317  -21.0319   25.2963 C   0  0  2  0  0  0  0  0  0  0  0  0
    6.2037  -22.1315   24.3595 N   0  0  0  0  0  0  0  0  0  0  0  0
    6.9147  -19.8219   24.5878 C   0  0  0  0  0  0  0  0  0  0  0  0
    7.7078  -19.9554   23.6263 O   0  0  0  0  0  0  0  0  0  0  0  0
    7.2073  -23.7243   27.4969 C   0  0  0  0  0  0  0  0  0  0  0  0
    6.5730  -24.5306   28.4192 C   0  0  0  0  0  0  0  0  0  0  0  0
    6.5128  -18.5261   24.9584 N   0  0  0  0  0  0  0  0  0  0  0  0
    7.2318  -17.3673   24.3573 C   0  0  1  0  0  0  0  0  0  0  0  0
    6.3829  -16.2004   24.8000 C   0  0  0  0  0  0  0  0  0  0  0  0
    6.8142  -14.8718   24.4510 C   0  0  0  0  0  0  0  0  0  0  0  0
    7.2732  -14.3260   23.2656 C   0  0  0  0  0  0  0  0  0  0  0  0
    7.5771  -13.0291   23.4493 N   0  0  0  0  0  0  0  0  0  0  0  0
    7.3313  -12.6975   24.7294 C   0  0  0  0  0  0  0  0  0  0  0  0
    7.4749  -11.5073   25.4135 C   0  0  0  0  0  0  0  0  0  0  0  0
    7.1417  -11.4326   26.7611 C   0  0  0  0  0  0  0  0  0  0  0  0
    6.6701  -12.5400   27.4133 C   0  0  0  0  0  0  0  0  0  0  0  0
    6.5385  -13.7127   26.7017 C   0  0  0  0  0  0  0  0  0  0  0  0
    6.8647  -13.8076   25.3596 C   0  0  0  0  0  0  0  0  0  0  0  0
    8.5992  -17.3699   24.8742 C   0  0  0  0  0  0  0  0  0  0  0  0
    8.7848  -17.9797   25.9943 O   0  0  0  0  0  0  0  0  0  0  0  0
    9.7108  -16.7790   24.2624 N   0  0  0  0  0  0  0  0  0  0  0  0
    9.7728  -15.8132   23.2034 C   0  0  0  0  0  0  0  0  0  0  0  0
   11.0320  -16.1781   22.4135 C   0  0  0  0  0  0  0  0  0  0  0  0
   11.6588  -17.3069   23.2031 C   0  0  0  0  0  0  0  0  0  0  0  0
   11.0940  -17.0553   24.5978 C   0  0  1  0  0  0  0  0  0  0  0  0
   11.7954  -15.8845   25.1438 C   0  0  0  0  0  0  0  0  0  0  0  0
   12.9874  -15.9277   25.8415 O   0  0  0  0  0  0  0  0  0  0  0  0
   11.2730  -14.7537   24.9642 O   0  0  0  0  0  0  0  0  0  0  0  0
  2  1  1  0
  3  2  2  0
  4  3  1  0
  5  4  2  0
  5 11  1  0
  6  7  1  0
  6  5  1  0
  7  9  1  0
  7  8  1  6
  9 10  2  0
 11 12  2  0
 12  2  1  0
 13  9  1  0
 13 14  1  0
 14 25  1  0
 14 15  1  1
 16 15  1  0
 17 16  2  0
 18 17  1  0
 19 18  1  0
 19 24  2  0
 20 21  2  0
 20 19  1  0
 21 22  1  0
 22 23  2  0
 24 23  1  0
 24 16  1  0
 25 27  1  0
 26 25  2  0
 27 28  1  0
 27 31  1  0
 28 29  1  0
 29 30  1  0
 31 30  1  0
 31 32  1  6
 32 34  2  0
 32 33  1  0
M  END
$$$$
