HSN.pdb
     RDKit          3D

 25 25  0  0  1  0  0  0  0  0999 V2000
   19.5676  -12.4884  -18.9160 N   0  0  0  0  0  0  0  0  0  0  0  0
   19.9828  -12.1080  -17.5915 C   0  0  1  0  0  0  0  0  0  0  0  0
   21.4505  -12.4424  -17.4642 C   0  0  0  0  0  0  0  0  0  0  0  0
   21.6787  -13.9058  -17.5851 C   0  0  0  0  0  0  0  0  0  0  0  0
   21.3937  -14.9101  -16.7028 C   0  0  0  0  0  0  0  0  0  0  0  0
   21.7893  -16.0708  -17.2688 N   0  0  0  0  0  0  0  0  0  0  0  0
   22.3157  -15.8240  -18.4835 C   0  0  0  0  0  0  0  0  0  0  0  0
   22.2446  -14.4964  -18.6707 N   0  0  0  0  0  0  0  0  0  0  0  0
   19.7494  -10.6472  -17.3807 C   0  0  0  0  0  0  0  0  0  0  0  0
   20.2688   -9.7841  -18.1528 O   0  0  0  0  0  0  0  0  0  0  0  0
   17.8042   -9.0533  -13.9770 O   0  0  0  0  0  0  0  0  0  0  0  0
   17.5212   -8.4684  -15.2045 C   0  0  0  0  0  0  0  0  0  0  0  0
   18.7021   -8.7436  -16.1096 C   0  0  2  0  0  0  0  0  0  0  0  0
   18.9493  -10.1322  -16.3265 N   0  0  0  0  0  0  0  0  0  0  0  0
   19.9135   -7.9951  -15.6868 C   0  0  0  0  0  0  0  0  0  0  0  0
   20.9367   -8.6476  -15.3307 O   0  0  0  0  0  0  0  0  0  0  0  0
   23.6606   -4.6649  -14.6725 N   0  0  0  0  0  0  0  0  0  0  0  0
   23.5985   -5.5855  -15.7453 C   0  0  0  0  0  0  0  0  0  0  0  0
   24.6390   -5.7618  -16.4485 O   0  0  0  0  0  0  0  0  0  0  0  0
   22.3557   -6.3219  -16.0349 C   0  0  0  0  0  0  0  0  0  0  0  0
   21.1874   -5.8603  -15.1945 C   0  0  2  0  0  0  0  0  0  0  0  0
   19.9933   -6.5922  -15.6584 N   0  0  0  0  0  0  0  0  0  0  0  0
   20.9449   -4.4066  -15.3033 C   0  0  0  0  0  0  0  0  0  0  0  0
   20.2896   -3.9490  -16.2527 O   0  0  0  0  0  0  0  0  0  0  0  0
   21.4380   -3.5219  -14.3575 O   0  0  0  0  0  0  0  0  0  0  0  0
  2  3  1  0
  2  1  1  6
  4  3  1  0
  5  4  2  0
  6  5  1  0
  6  7  1  0
  7  8  2  0
  8  4  1  0
  9  2  1  0
 10  9  2  0
 11 12  1  0
 13 12  1  1
 13 14  1  0
 14  9  1  0
 15 13  1  0
 15 22  1  0
 16 15  2  0
 17 18  1  0
 18 19  2  0
 21 20  1  6
 20 18  1  0
 21 22  1  0
 21 23  1  0
 23 25  1  0
 24 23  2  0
M  END
$$$$
