HSN.pdb
     RDKit          3D

 25 25  0  0  1  0  0  0  0  0999 V2000
   28.9305  -27.5952  -16.5715 N   0  0  0  0  0  0  0  0  0  0  0  0
   27.8906  -26.8613  -17.2434 C   0  0  1  0  0  0  0  0  0  0  0  0
   26.7053  -27.7868  -17.3882 C   0  0  0  0  0  0  0  0  0  0  0  0
   26.9839  -28.8634  -18.3737 C   0  0  0  0  0  0  0  0  0  0  0  0
   27.1085  -30.2112  -18.1833 C   0  0  0  0  0  0  0  0  0  0  0  0
   27.3616  -30.7686  -19.3871 N   0  0  0  0  0  0  0  0  0  0  0  0
   27.3998  -29.8080  -20.3302 C   0  0  0  0  0  0  0  0  0  0  0  0
   27.1676  -28.6440  -19.7026 N   0  0  0  0  0  0  0  0  0  0  0  0
   27.5252  -25.6482  -16.4512 C   0  0  0  0  0  0  0  0  0  0  0  0
   27.5429  -25.6663  -15.1823 O   0  0  0  0  0  0  0  0  0  0  0  0
   27.9097  -21.9521  -17.9761 O   0  0  0  0  0  0  0  0  0  0  0  0
   27.8441  -22.1006  -16.5967 C   0  0  0  0  0  0  0  0  0  0  0  0
   26.8676  -23.2221  -16.3174 C   0  0  2  0  0  0  0  0  0  0  0  0
   27.1408  -24.4178  -17.0469 N   0  0  0  0  0  0  0  0  0  0  0  0
   25.4564  -22.7745  -16.4396 C   0  0  0  0  0  0  0  0  0  0  0  0
   24.8187  -23.0580  -17.4944 O   0  0  0  0  0  0  0  0  0  0  0  0
   20.7161  -20.8068  -15.7176 N   0  0  0  0  0  0  0  0  0  0  0  0
   21.0752  -21.9117  -14.9099 C   0  0  0  0  0  0  0  0  0  0  0  0
   20.1677  -22.4827  -14.2325 O   0  0  0  0  0  0  0  0  0  0  0  0
   22.4687  -22.3873  -14.8604 C   0  0  0  0  0  0  0  0  0  0  0  0
   23.4221  -21.5001  -15.6275 C   0  0  2  0  0  0  0  0  0  0  0  0
   24.7795  -22.0483  -15.4447 N   0  0  0  0  0  0  0  0  0  0  0  0
   23.3933  -20.0967  -15.1650 C   0  0  0  0  0  0  0  0  0  0  0  0
   24.2792  -19.6667  -14.4097 O   0  0  0  0  0  0  0  0  0  0  0  0
   22.3859  -19.2301  -15.5576 O   0  0  0  0  0  0  0  0  0  0  0  0
  2  3  1  0
  2  1  1  1
  4  3  1  0
  5  4  2  0
  6  5  1  0
  6  7  1  0
  7  8  2  0
  8  4  1  0
  9  2  1  0
 10  9  2  0
 11 12  1  0
 13 12  1  6
 13 14  1  0
 14  9  1  0
 15 13  1  0
 15 22  1  0
 16 15  2  0
 17 18  1  0
 18 19  2  0
 21 20  1  1
 20 18  1  0
 21 22  1  0
 21 23  1  0
 23 25  1  0
 24 23  2  0
M  END
$$$$
