HSN.pdb
     RDKit          3D

 25 25  0  0  1  0  0  0  0  0999 V2000
   25.0509  -17.3472  -16.3389 N   0  0  0  0  0  0  0  0  0  0  0  0
   24.0461  -18.1791  -16.9470 C   0  0  1  0  0  0  0  0  0  0  0  0
   24.7476  -19.0968  -17.9207 C   0  0  0  0  0  0  0  0  0  0  0  0
   25.5175  -18.3213  -18.9277 C   0  0  0  0  0  0  0  0  0  0  0  0
   25.6630  -16.9691  -19.0642 C   0  0  0  0  0  0  0  0  0  0  0  0
   26.4603  -16.7534  -20.1327 N   0  0  0  0  0  0  0  0  0  0  0  0
   26.8205  -17.9333  -20.6724 C   0  0  0  0  0  0  0  0  0  0  0  0
   26.2398  -18.8891  -19.9295 N   0  0  0  0  0  0  0  0  0  0  0  0
   23.3273  -18.9645  -15.8986 C   0  0  0  0  0  0  0  0  0  0  0  0
   23.9527  -19.4693  -14.9163 O   0  0  0  0  0  0  0  0  0  0  0  0
   20.5145  -18.1031  -12.7696 O   0  0  0  0  0  0  0  0  0  0  0  0
   21.3206  -17.9496  -13.8901 C   0  0  0  0  0  0  0  0  0  0  0  0
   21.0821  -19.1527  -14.7761 C   0  0  2  0  0  0  0  0  0  0  0  0
   21.9267  -19.1971  -15.9255 N   0  0  0  0  0  0  0  0  0  0  0  0
   19.6436  -19.3266  -15.1030 C   0  0  0  0  0  0  0  0  0  0  0  0
   19.1353  -18.6051  -16.0089 O   0  0  0  0  0  0  0  0  0  0  0  0
   17.6015  -22.3161  -16.7369 N   0  0  0  0  0  0  0  0  0  0  0  0
   17.1317  -22.7403  -15.4714 C   0  0  0  0  0  0  0  0  0  0  0  0
   16.8833  -23.9726  -15.3033 O   0  0  0  0  0  0  0  0  0  0  0  0
   16.9393  -21.7734  -14.3765 C   0  0  0  0  0  0  0  0  0  0  0  0
   17.3618  -20.3705  -14.7479 C   0  0  2  0  0  0  0  0  0  0  0  0
   18.8042  -20.2533  -14.4610 N   0  0  0  0  0  0  0  0  0  0  0  0
   16.6258  -19.3342  -13.9939 C   0  0  0  0  0  0  0  0  0  0  0  0
   17.0274  -18.9650  -12.8792 O   0  0  0  0  0  0  0  0  0  0  0  0
   15.4773  -18.7515  -14.5053 O   0  0  0  0  0  0  0  0  0  0  0  0
  2  3  1  0
  2  1  1  1
  4  3  1  0
  5  4  2  0
  6  5  1  0
  6  7  1  0
  7  8  2  0
  8  4  1  0
  9  2  1  0
 10  9  2  0
 11 12  1  0
 13 12  1  6
 13 14  1  0
 14  9  1  0
 15 13  1  0
 15 22  1  0
 16 15  2  0
 17 18  1  0
 18 19  2  0
 21 20  1  1
 20 18  1  0
 21 22  1  0
 21 23  1  0
 23 25  1  0
 24 23  2  0
M  END
$$$$
