HSN.pdb
     RDKit          3D

 25 25  0  0  1  0  0  0  0  0999 V2000
   27.8390  -20.8371  -11.9463 N   0  0  0  0  0  0  0  0  0  0  0  0
   26.6593  -20.5121  -12.7040 C   0  0  1  0  0  0  0  0  0  0  0  0
   25.8318  -19.5644  -11.8677 C   0  0  0  0  0  0  0  0  0  0  0  0
   25.3711  -20.2183  -10.6154 C   0  0  0  0  0  0  0  0  0  0  0  0
   25.8743  -20.1301   -9.3476 C   0  0  0  0  0  0  0  0  0  0  0  0
   25.1097  -20.9099   -8.5532 N   0  0  0  0  0  0  0  0  0  0  0  0
   24.1387  -21.4866   -9.2868 C   0  0  0  0  0  0  0  0  0  0  0  0
   24.3047  -21.0585  -10.5485 N   0  0  0  0  0  0  0  0  0  0  0  0
   27.0420  -19.8803  -14.0029 C   0  0  0  0  0  0  0  0  0  0  0  0
   27.9319  -18.9767  -14.0533 O   0  0  0  0  0  0  0  0  0  0  0  0
   27.4678  -21.3072  -17.7081 O   0  0  0  0  0  0  0  0  0  0  0  0
   27.7955  -20.0217  -17.2971 C   0  0  0  0  0  0  0  0  0  0  0  0
   26.6404  -19.5155  -16.4609 C   0  0  2  0  0  0  0  0  0  0  0  0
   26.4515  -20.2368  -15.2442 N   0  0  0  0  0  0  0  0  0  0  0  0
   25.3941  -19.3803  -17.2577 C   0  0  0  0  0  0  0  0  0  0  0  0
   24.5212  -20.2920  -17.1789 O   0  0  0  0  0  0  0  0  0  0  0  0
   21.1686  -16.7822  -18.5425 N   0  0  0  0  0  0  0  0  0  0  0  0
   21.7564  -16.8798  -17.2591 C   0  0  0  0  0  0  0  0  0  0  0  0
   21.0766  -16.5073  -16.2554 O   0  0  0  0  0  0  0  0  0  0  0  0
   23.1234  -17.4041  -17.0946 C   0  0  0  0  0  0  0  0  0  0  0  0
   23.7560  -17.8217  -18.4023 C   0  0  2  0  0  0  0  0  0  0  0  0
   25.1225  -18.2899  -18.1020 N   0  0  0  0  0  0  0  0  0  0  0  0
   23.8200  -16.7184  -19.3835 C   0  0  0  0  0  0  0  0  0  0  0  0
   24.5925  -15.7637  -19.2049 O   0  0  0  0  0  0  0  0  0  0  0  0
   23.0264  -16.7187  -20.5195 O   0  0  0  0  0  0  0  0  0  0  0  0
  2  3  1  0
  2  1  1  1
  4  3  1  0
  5  4  2  0
  6  5  1  0
  6  7  1  0
  7  8  2  0
  8  4  1  0
  9  2  1  0
 10  9  2  0
 11 12  1  0
 13 12  1  6
 13 14  1  0
 14  9  1  0
 15 13  1  0
 15 22  1  0
 16 15  2  0
 17 18  1  0
 18 19  2  0
 21 20  1  1
 20 18  1  0
 21 22  1  0
 21 23  1  0
 23 25  1  0
 24 23  2  0
M  END
$$$$
