HSN.pdb
     RDKit          3D

 25 25  0  0  1  0  0  0  0  0999 V2000
   28.6819  -27.1783  -16.9756 N   0  0  0  0  0  0  0  0  0  0  0  0
   27.3030  -26.7662  -16.9854 C   0  0  1  0  0  0  0  0  0  0  0  0
   26.5132  -27.8121  -16.2340 C   0  0  0  0  0  0  0  0  0  0  0  0
   25.4920  -28.4434  -17.1097 C   0  0  0  0  0  0  0  0  0  0  0  0
   25.2974  -29.7614  -17.4150 C   0  0  0  0  0  0  0  0  0  0  0  0
   24.2408  -29.8313  -18.2532 N   0  0  0  0  0  0  0  0  0  0  0  0
   23.7651  -28.5927  -18.4838 C   0  0  0  0  0  0  0  0  0  0  0  0
   24.5359  -27.7479  -17.7803 N   0  0  0  0  0  0  0  0  0  0  0  0
   27.1635  -25.4267  -16.3379 C   0  0  0  0  0  0  0  0  0  0  0  0
   27.8211  -25.1343  -15.2926 O   0  0  0  0  0  0  0  0  0  0  0  0
   26.2111  -21.9215  -18.2582 O   0  0  0  0  0  0  0  0  0  0  0  0
   26.8648  -22.0194  -17.0367 C   0  0  0  0  0  0  0  0  0  0  0  0
   26.1751  -23.1134  -16.2512 C   0  0  2  0  0  0  0  0  0  0  0  0
   26.3054  -24.4096  -16.8336 N   0  0  0  0  0  0  0  0  0  0  0  0
   24.7700  -22.7609  -15.9223 C   0  0  0  0  0  0  0  0  0  0  0  0
   23.8540  -23.1067  -16.7228 O   0  0  0  0  0  0  0  0  0  0  0  0
   20.7030  -21.4848  -12.2240 N   0  0  0  0  0  0  0  0  0  0  0  0
   21.6483  -20.5503  -12.7092 C   0  0  0  0  0  0  0  0  0  0  0  0
   21.3102  -19.3297  -12.7736 O   0  0  0  0  0  0  0  0  0  0  0  0
   22.9926  -20.9861  -13.1258 C   0  0  0  0  0  0  0  0  0  0  0  0
   22.9966  -21.6862  -14.4653 C   0  0  2  0  0  0  0  0  0  0  0  0
   24.3923  -22.0600  -14.7640 N   0  0  0  0  0  0  0  0  0  0  0  0
   22.4722  -20.8368  -15.5551 C   0  0  0  0  0  0  0  0  0  0  0  0
   23.1905  -19.9684  -16.0749 O   0  0  0  0  0  0  0  0  0  0  0  0
   21.1761  -20.9843  -16.0224 O   0  0  0  0  0  0  0  0  0  0  0  0
  2  3  1  0
  2  1  1  1
  4  3  1  0
  5  4  2  0
  6  5  1  0
  6  7  1  0
  7  8  2  0
  8  4  1  0
  9  2  1  0
 10  9  2  0
 11 12  1  0
 13 12  1  6
 13 14  1  0
 14  9  1  0
 15 13  1  0
 15 22  1  0
 16 15  2  0
 17 18  1  0
 18 19  2  0
 21 20  1  1
 20 18  1  0
 21 22  1  0
 21 23  1  0
 23 25  1  0
 24 23  2  0
M  END
$$$$
