HSN.pdb
     RDKit          3D

 25 25  0  0  1  0  0  0  0  0999 V2000
   16.8155  -12.0839  -16.6778 N   0  0  0  0  0  0  0  0  0  0  0  0
   18.1446  -11.7018  -16.2793 C   0  0  1  0  0  0  0  0  0  0  0  0
   19.1127  -12.5943  -17.0200 C   0  0  0  0  0  0  0  0  0  0  0  0
   18.9569  -14.0129  -16.6063 C   0  0  0  0  0  0  0  0  0  0  0  0
   18.2080  -15.0092  -17.1673 C   0  0  0  0  0  0  0  0  0  0  0  0
   18.3973  -16.1235  -16.4280 N   0  0  0  0  0  0  0  0  0  0  0  0
   19.2452  -15.8553  -15.4167 C   0  0  0  0  0  0  0  0  0  0  0  0
   19.5839  -14.5612  -15.5322 N   0  0  0  0  0  0  0  0  0  0  0  0
   18.3858  -10.2646  -16.6098 C   0  0  0  0  0  0  0  0  0  0  0  0
   17.7893   -9.7084  -17.5822 O   0  0  0  0  0  0  0  0  0  0  0  0
   17.6764   -7.3086  -14.7822 O   0  0  0  0  0  0  0  0  0  0  0  0
   18.1616   -7.2524  -16.0823 C   0  0  0  0  0  0  0  0  0  0  0  0
   19.4529   -8.0407  -16.1082 C   0  0  2  0  0  0  0  0  0  0  0  0
   19.2785   -9.4381  -15.8773 N   0  0  0  0  0  0  0  0  0  0  0  0
   20.4938   -7.4322  -15.2405 C   0  0  0  0  0  0  0  0  0  0  0  0
   20.5583   -7.7884  -14.0287 O   0  0  0  0  0  0  0  0  0  0  0  0
   24.0749   -8.0288  -15.6096 N   0  0  0  0  0  0  0  0  0  0  0  0
   24.4155   -6.7461  -16.1004 C   0  0  0  0  0  0  0  0  0  0  0  0
   25.3971   -6.6473  -16.8974 O   0  0  0  0  0  0  0  0  0  0  0  0
   23.6460   -5.5564  -15.6966 C   0  0  0  0  0  0  0  0  0  0  0  0
   22.4607   -5.8903  -14.8204 C   0  0  2  0  0  0  0  0  0  0  0  0
   21.4208   -6.4754  -15.6883 N   0  0  0  0  0  0  0  0  0  0  0  0
   21.9118   -4.7063  -14.1269 C   0  0  0  0  0  0  0  0  0  0  0  0
   21.0459   -4.0046  -14.6728 O   0  0  0  0  0  0  0  0  0  0  0  0
   22.3446   -4.3495  -12.8598 O   0  0  0  0  0  0  0  0  0  0  0  0
  2  3  1  0
  2  1  1  6
  4  3  1  0
  5  4  2  0
  6  5  1  0
  6  7  1  0
  7  8  2  0
  8  4  1  0
  9  2  1  0
 10  9  2  0
 11 12  1  0
 13 12  1  1
 13 14  1  0
 14  9  1  0
 15 13  1  0
 15 22  1  0
 16 15  2  0
 17 18  1  0
 18 19  2  0
 21 20  1  6
 20 18  1  0
 21 22  1  0
 21 23  1  0
 23 25  1  0
 24 23  2  0
M  END
$$$$
