HSN.pdb
     RDKit          3D

 25 25  0  0  1  0  0  0  0  0999 V2000
   18.6230  -21.3781    8.8742 N   0  0  0  0  0  0  0  0  0  0  0  0
   19.1118  -22.7317    8.8686 C   0  0  1  0  0  0  0  0  0  0  0  0
   19.6837  -23.0002    7.4962 C   0  0  0  0  0  0  0  0  0  0  0  0
   18.6185  -22.9863    6.4603 C   0  0  0  0  0  0  0  0  0  0  0  0
   18.2713  -22.0022    5.5775 C   0  0  0  0  0  0  0  0  0  0  0  0
   17.2398  -22.4658    4.8392 N   0  0  0  0  0  0  0  0  0  0  0  0
   16.9283  -23.7152    5.2336 C   0  0  0  0  0  0  0  0  0  0  0  0
   17.7766  -24.0275    6.2264 N   0  0  0  0  0  0  0  0  0  0  0  0
   20.1560  -22.9043    9.9235 C   0  0  0  0  0  0  0  0  0  0  0  0
   21.0625  -22.0327   10.0948 O   0  0  0  0  0  0  0  0  0  0  0  0
   20.3311  -26.2958   12.4233 O   0  0  0  0  0  0  0  0  0  0  0  0
   20.6989  -25.0714   12.9659 C   0  0  0  0  0  0  0  0  0  0  0  0
   21.1772  -24.2049   11.8213 C   0  0  2  0  0  0  0  0  0  0  0  0
   20.2078  -24.0290   10.7889 N   0  0  0  0  0  0  0  0  0  0  0  0
   22.5015  -24.6411   11.3089 C   0  0  0  0  0  0  0  0  0  0  0  0
   22.5709  -25.1309   10.1450 O   0  0  0  0  0  0  0  0  0  0  0  0
   27.4241  -25.5514   10.2637 N   0  0  0  0  0  0  0  0  0  0  0  0
   26.6979  -24.4244    9.8112 C   0  0  0  0  0  0  0  0  0  0  0  0
   27.1716  -23.7503    8.8470 O   0  0  0  0  0  0  0  0  0  0  0  0
   25.4221  -24.0467   10.4438 C   0  0  0  0  0  0  0  0  0  0  0  0
   24.9996  -25.0026   11.5356 C   0  0  2  0  0  0  0  0  0  0  0  0
   23.6943  -24.5413   12.0457 N   0  0  0  0  0  0  0  0  0  0  0  0
   25.9688  -25.0611   12.6497 C   0  0  0  0  0  0  0  0  0  0  0  0
   25.6653  -24.6202   13.7693 O   0  0  0  0  0  0  0  0  0  0  0  0
   27.2318  -25.6045   12.4770 O   0  0  0  0  0  0  0  0  0  0  0  0
  2  3  1  0
  2  1  1  6
  4  3  1  0
  5  4  2  0
  6  5  1  0
  6  7  1  0
  7  8  2  0
  8  4  1  0
  9  2  1  0
 10  9  2  0
 11 12  1  0
 13 12  1  1
 13 14  1  0
 14  9  1  0
 15 13  1  0
 15 22  1  0
 16 15  2  0
 17 18  1  0
 18 19  2  0
 21 20  1  6
 20 18  1  0
 21 22  1  0
 21 23  1  0
 23 25  1  0
 24 23  2  0
M  END
$$$$
