HSN.pdb
     RDKit          3D

 25 25  0  0  1  0  0  0  0  0999 V2000
   19.8530  -13.4155  -17.1701 N   0  0  0  0  0  0  0  0  0  0  0  0
   19.1761  -12.3648  -16.4565 C   0  0  1  0  0  0  0  0  0  0  0  0
   18.6859  -12.9475  -15.1517 C   0  0  0  0  0  0  0  0  0  0  0  0
   17.5929  -13.9278  -15.3802 C   0  0  0  0  0  0  0  0  0  0  0  0
   17.0260  -14.3469  -16.5512 C   0  0  0  0  0  0  0  0  0  0  0  0
   16.0700  -15.2482  -16.2387 N   0  0  0  0  0  0  0  0  0  0  0  0
   16.0199  -15.4077  -14.9024 C   0  0  0  0  0  0  0  0  0  0  0  0
   16.9551  -14.5962  -14.3832 N   0  0  0  0  0  0  0  0  0  0  0  0
   20.1116  -11.2254  -16.2127 C   0  0  0  0  0  0  0  0  0  0  0  0
   21.3649  -11.4122  -16.1419 O   0  0  0  0  0  0  0  0  0  0  0  0
   19.6965   -7.4694  -17.5714 O   0  0  0  0  0  0  0  0  0  0  0  0
   20.8836   -8.0124  -17.0974 C   0  0  0  0  0  0  0  0  0  0  0  0
   20.5490   -8.7755  -15.8344 C   0  0  2  0  0  0  0  0  0  0  0  0
   19.6758   -9.8841  -16.0463 N   0  0  0  0  0  0  0  0  0  0  0  0
   20.0935   -7.8750  -14.7444 C   0  0  0  0  0  0  0  0  0  0  0  0
   18.8551   -7.6500  -14.6204 O   0  0  0  0  0  0  0  0  0  0  0  0
   19.5471   -4.6488  -10.7783 N   0  0  0  0  0  0  0  0  0  0  0  0
   19.8112   -6.0092  -10.4923 C   0  0  0  0  0  0  0  0  0  0  0  0
   19.6366   -6.4199   -9.3052 O   0  0  0  0  0  0  0  0  0  0  0  0
   20.2747   -6.9249  -11.5493 C   0  0  0  0  0  0  0  0  0  0  0  0
   20.5219   -6.2273  -12.8671 C   0  0  2  0  0  0  0  0  0  0  0  0
   20.9631   -7.2516  -13.8330 N   0  0  0  0  0  0  0  0  0  0  0  0
   21.5498   -5.1700  -12.7693 C   0  0  0  0  0  0  0  0  0  0  0  0
   22.7294   -5.4119  -13.0697 O   0  0  0  0  0  0  0  0  0  0  0  0
   21.2285   -3.8912  -12.3432 O   0  0  0  0  0  0  0  0  0  0  0  0
  2  3  1  0
  2  1  1  1
  4  3  1  0
  5  4  2  0
  6  5  1  0
  6  7  1  0
  7  8  2  0
  8  4  1  0
  9  2  1  0
 10  9  2  0
 11 12  1  0
 13 12  1  6
 13 14  1  0
 14  9  1  0
 15 13  1  0
 15 22  1  0
 16 15  2  0
 17 18  1  0
 18 19  2  0
 21 20  1  1
 20 18  1  0
 21 22  1  0
 21 23  1  0
 23 25  1  0
 24 23  2  0
M  END
$$$$
