HSN.pdb
     RDKit          3D

 25 25  0  0  1  0  0  0  0  0999 V2000
   12.6920   -9.2936  -10.5243 N   0  0  0  0  0  0  0  0  0  0  0  0
   14.0811   -9.3385  -10.1502 C   0  0  1  0  0  0  0  0  0  0  0  0
   14.7032  -10.5166  -10.8626 C   0  0  0  0  0  0  0  0  0  0  0  0
   14.0052  -11.7817  -10.5156 C   0  0  0  0  0  0  0  0  0  0  0  0
   13.6441  -12.2729   -9.2922 C   0  0  0  0  0  0  0  0  0  0  0  0
   13.0328  -13.4597   -9.4967 N   0  0  0  0  0  0  0  0  0  0  0  0
   12.9995  -13.7287  -10.8158 C   0  0  0  0  0  0  0  0  0  0  0  0
   13.5965  -12.6970  -11.4336 N   0  0  0  0  0  0  0  0  0  0  0  0
   14.7580   -8.0640  -10.5377 C   0  0  0  0  0  0  0  0  0  0  0  0
   14.4797   -7.4821  -11.6308 O   0  0  0  0  0  0  0  0  0  0  0  0
   16.7951   -5.6338   -7.8455 O   0  0  0  0  0  0  0  0  0  0  0  0
   16.2567   -5.1269   -9.0211 C   0  0  0  0  0  0  0  0  0  0  0  0
   16.3920   -6.2067  -10.0724 C   0  0  2  0  0  0  0  0  0  0  0  0
   15.7379   -7.4279   -9.7303 N   0  0  0  0  0  0  0  0  0  0  0  0
   17.8035   -6.3997  -10.4933 C   0  0  0  0  0  0  0  0  0  0  0  0
   18.5119   -7.2440   -9.8731 O   0  0  0  0  0  0  0  0  0  0  0  0
   22.1857   -6.6676  -13.2224 N   0  0  0  0  0  0  0  0  0  0  0  0
   21.1868   -7.6617  -13.0959 C   0  0  0  0  0  0  0  0  0  0  0  0
   21.4337   -8.8236  -13.5403 O   0  0  0  0  0  0  0  0  0  0  0  0
   19.8937   -7.3536  -12.4607 C   0  0  0  0  0  0  0  0  0  0  0  0
   19.7976   -5.9229  -11.9829 C   0  0  2  0  0  0  0  0  0  0  0  0
   18.4059   -5.6946  -11.5495 N   0  0  0  0  0  0  0  0  0  0  0  0
   20.1509   -4.9452  -13.0333 C   0  0  0  0  0  0  0  0  0  0  0  0
   21.2710   -4.4109  -13.0421 O   0  0  0  0  0  0  0  0  0  0  0  0
   19.2500   -4.6007  -14.0282 O   0  0  0  0  0  0  0  0  0  0  0  0
  2  3  1  0
  2  1  1  6
  4  3  1  0
  5  4  2  0
  6  5  1  0
  6  7  1  0
  7  8  2  0
  8  4  1  0
  9  2  1  0
 10  9  2  0
 11 12  1  0
 13 12  1  1
 13 14  1  0
 14  9  1  0
 15 13  1  0
 15 22  1  0
 16 15  2  0
 17 18  1  0
 18 19  2  0
 21 20  1  6
 20 18  1  0
 21 22  1  0
 21 23  1  0
 23 25  1  0
 24 23  2  0
M  END
$$$$
