HSN.pdb
     RDKit          3D

 25 25  0  0  1  0  0  0  0  0999 V2000
   33.2984  -37.8651   -7.6209 N   0  0  0  0  0  0  0  0  0  0  0  0
   33.4173  -36.6473   -6.8632 C   0  0  1  0  0  0  0  0  0  0  0  0
   32.9972  -35.5106   -7.7653 C   0  0  0  0  0  0  0  0  0  0  0  0
   33.9674  -35.3211   -8.8748 C   0  0  0  0  0  0  0  0  0  0  0  0
   33.8349  -35.5948  -10.2074 C   0  0  0  0  0  0  0  0  0  0  0  0
   34.9930  -35.2476  -10.8092 N   0  0  0  0  0  0  0  0  0  0  0  0
   35.8509  -34.7628   -9.8914 C   0  0  0  0  0  0  0  0  0  0  0  0
   35.2162  -34.8106   -8.7091 N   0  0  0  0  0  0  0  0  0  0  0  0
   32.5487  -36.7121   -5.6489 C   0  0  0  0  0  0  0  0  0  0  0  0
   31.3538  -37.1335   -5.7217 O   0  0  0  0  0  0  0  0  0  0  0  0
   31.9552  -36.1053   -0.8889 O   0  0  0  0  0  0  0  0  0  0  0  0
   32.8889  -36.0245   -1.9139 C   0  0  0  0  0  0  0  0  0  0  0  0
   32.1400  -36.2273   -3.2130 C   0  0  2  0  0  0  0  0  0  0  0  0
   32.9874  -36.3160   -4.3577 N   0  0  0  0  0  0  0  0  0  0  0  0
   31.0376  -35.2455   -3.3787 C   0  0  0  0  0  0  0  0  0  0  0  0
   31.2220  -34.2472   -4.1329 O   0  0  0  0  0  0  0  0  0  0  0  0
   26.6998  -33.2480   -5.9259 N   0  0  0  0  0  0  0  0  0  0  0  0
   27.2615  -33.3411   -4.6305 C   0  0  0  0  0  0  0  0  0  0  0  0
   26.7886  -32.6024   -3.7145 O   0  0  0  0  0  0  0  0  0  0  0  0
   28.3664  -34.2757   -4.3540 C   0  0  0  0  0  0  0  0  0  0  0  0
   28.7157  -34.3578   -2.8858 C   0  0  2  0  0  0  0  0  0  0  0  0
   29.7895  -35.3595   -2.7427 N   0  0  0  0  0  0  0  0  0  0  0  0
   27.5643  -34.7495   -2.0461 C   0  0  0  0  0  0  0  0  0  0  0  0
   27.0650  -33.9402   -1.2488 O   0  0  0  0  0  0  0  0  0  0  0  0
   27.0154  -36.0195   -2.1245 O   0  0  0  0  0  0  0  0  0  0  0  0
  2  3  1  0
  2  1  1  6
  4  3  1  0
  5  4  2  0
  6  5  1  0
  6  7  1  0
  7  8  2  0
  8  4  1  0
  9  2  1  0
 10  9  2  0
 11 12  1  0
 13 12  1  1
 13 14  1  0
 14  9  1  0
 15 13  1  0
 15 22  1  0
 16 15  2  0
 17 18  1  0
 18 19  2  0
 21 20  1  6
 20 18  1  0
 21 22  1  0
 21 23  1  0
 23 25  1  0
 24 23  2  0
M  END
$$$$
