HSN.pdb
     RDKit          3D

 25 25  0  0  1  0  0  0  0  0999 V2000
   25.5744  -11.6756  -17.9339 N   0  0  0  0  0  0  0  0  0  0  0  0
   25.4720  -10.9595  -16.6897 C   0  0  1  0  0  0  0  0  0  0  0  0
   26.8531  -10.4540  -16.3440 C   0  0  0  0  0  0  0  0  0  0  0  0
   27.8205  -11.5760  -16.2287 C   0  0  0  0  0  0  0  0  0  0  0  0
   27.7148  -12.7536  -15.5428 C   0  0  0  0  0  0  0  0  0  0  0  0
   28.8567  -13.4452  -15.7470 N   0  0  0  0  0  0  0  0  0  0  0  0
   29.6784  -12.7346  -16.5430 C   0  0  0  0  0  0  0  0  0  0  0  0
   29.0374  -11.5913  -16.8341 N   0  0  0  0  0  0  0  0  0  0  0  0
   24.5093   -9.8251  -16.8286 C   0  0  0  0  0  0  0  0  0  0  0  0
   24.5400   -9.0620  -17.8423 O   0  0  0  0  0  0  0  0  0  0  0  0
   21.9888   -8.5482  -13.7130 O   0  0  0  0  0  0  0  0  0  0  0  0
   21.4355   -8.5365  -14.9868 C   0  0  0  0  0  0  0  0  0  0  0  0
   22.5839   -8.4508  -15.9683 C   0  0  2  0  0  0  0  0  0  0  0  0
   23.5152   -9.5265  -15.8595 N   0  0  0  0  0  0  0  0  0  0  0  0
   23.2325   -7.1145  -15.9505 C   0  0  0  0  0  0  0  0  0  0  0  0
   24.4758   -7.0401  -16.1702 O   0  0  0  0  0  0  0  0  0  0  0  0
   24.3388   -2.1407  -16.4911 N   0  0  0  0  0  0  0  0  0  0  0  0
   24.2617   -3.1216  -17.5081 C   0  0  0  0  0  0  0  0  0  0  0  0
   24.7072   -2.8316  -18.6595 O   0  0  0  0  0  0  0  0  0  0  0  0
   23.6807   -4.4473  -17.2334 C   0  0  0  0  0  0  0  0  0  0  0  0
   23.1680   -4.5845  -15.8182 C   0  0  2  0  0  0  0  0  0  0  0  0
   22.5422   -5.9156  -15.7024 N   0  0  0  0  0  0  0  0  0  0  0  0
   22.1783   -3.5449  -15.4662 C   0  0  0  0  0  0  0  0  0  0  0  0
   21.0120   -3.6218  -15.8833 O   0  0  0  0  0  0  0  0  0  0  0  0
   22.5217   -2.4651  -14.6685 O   0  0  0  0  0  0  0  0  0  0  0  0
  2  3  1  0
  2  1  1  6
  4  3  1  0
  5  4  2  0
  6  5  1  0
  6  7  1  0
  7  8  2  0
  8  4  1  0
  9  2  1  0
 10  9  2  0
 11 12  1  0
 13 12  1  1
 13 14  1  0
 14  9  1  0
 15 13  1  0
 15 22  1  0
 16 15  2  0
 17 18  1  0
 18 19  2  0
 21 20  1  6
 20 18  1  0
 21 22  1  0
 21 23  1  0
 23 25  1  0
 24 23  2  0
M  END
$$$$
