HSN.pdb
     RDKit          3D

 25 25  0  0  1  0  0  0  0  0999 V2000
   19.6905  -12.1519  -18.4190 N   0  0  0  0  0  0  0  0  0  0  0  0
   20.6538  -11.0919  -18.5605 C   0  0  1  0  0  0  0  0  0  0  0  0
   20.0595  -10.0625  -19.4930 C   0  0  0  0  0  0  0  0  0  0  0  0
   19.8374  -10.6319  -20.8474 C   0  0  0  0  0  0  0  0  0  0  0  0
   18.6678  -10.9356  -21.4863 C   0  0  0  0  0  0  0  0  0  0  0  0
   18.9868  -11.4294  -22.7021 N   0  0  0  0  0  0  0  0  0  0  0  0
   20.3257  -11.4448  -22.8458 C   0  0  0  0  0  0  0  0  0  0  0  0
   20.8401  -10.9550  -21.7063 N   0  0  0  0  0  0  0  0  0  0  0  0
   20.9544  -10.4907  -17.2259 C   0  0  0  0  0  0  0  0  0  0  0  0
   20.0268  -10.2483  -16.3942 O   0  0  0  0  0  0  0  0  0  0  0  0
   24.8836   -9.8299  -15.8057 O   0  0  0  0  0  0  0  0  0  0  0  0
   23.8499  -10.0922  -14.9160 C   0  0  0  0  0  0  0  0  0  0  0  0
   22.5795   -9.5611  -15.5433 C   0  0  2  0  0  0  0  0  0  0  0  0
   22.2678  -10.1552  -16.8028 N   0  0  0  0  0  0  0  0  0  0  0  0
   22.5543   -8.0762  -15.5773 C   0  0  0  0  0  0  0  0  0  0  0  0
   22.7036   -7.4917  -16.6889 O   0  0  0  0  0  0  0  0  0  0  0  0
   22.0108   -3.0443  -14.7237 N   0  0  0  0  0  0  0  0  0  0  0  0
   21.1476   -3.8860  -15.4643 C   0  0  0  0  0  0  0  0  0  0  0  0
   20.2547   -3.3476  -16.1863 O   0  0  0  0  0  0  0  0  0  0  0  0
   21.2860   -5.3514  -15.3993 C   0  0  0  0  0  0  0  0  0  0  0  0
   22.3976   -5.7983  -14.4778 C   0  0  2  0  0  0  0  0  0  0  0  0
   22.3725   -7.2729  -14.4384 N   0  0  0  0  0  0  0  0  0  0  0  0
   22.2499   -5.2682  -13.1062 C   0  0  0  0  0  0  0  0  0  0  0  0
   22.3714   -4.0528  -12.8866 O   0  0  0  0  0  0  0  0  0  0  0  0
   21.9747   -6.1055  -12.0369 O   0  0  0  0  0  0  0  0  0  0  0  0
  2  3  1  0
  2  1  1  1
  4  3  1  0
  5  4  2  0
  6  5  1  0
  6  7  1  0
  7  8  2  0
  8  4  1  0
  9  2  1  0
 10  9  2  0
 11 12  1  0
 13 12  1  6
 13 14  1  0
 14  9  1  0
 15 13  1  0
 15 22  1  0
 16 15  2  0
 17 18  1  0
 18 19  2  0
 21 20  1  6
 20 18  1  0
 21 22  1  0
 21 23  1  0
 23 25  1  0
 24 23  2  0
M  END
$$$$
