ACT.pdb
     RDKit          3D

 19 18  0  0  1  0  0  0  0  0999 V2000
    7.3943  -16.7646   17.5687 C   0  0  0  0  0  0  0  0  0  0  0  0
    7.5811  -17.5797   18.8233 C   0  0  2  0  0  0  0  0  0  0  0  0
    6.3382  -18.1509   19.2578 N   0  0  0  0  0  0  0  0  0  0  0  0
    8.2227  -16.8132   19.9098 C   0  0  0  0  0  0  0  0  0  0  0  0
    9.4651  -16.6355   19.8524 O   0  0  0  0  0  0  0  0  0  0  0  0
    7.5265  -16.2732   20.9998 N   0  0  0  0  0  0  0  0  0  0  0  0
    8.0920  -15.5521   22.0928 C   0  0  1  0  0  0  0  0  0  0  0  0
    7.0967  -14.7312   22.8658 C   0  0  0  0  0  0  0  0  0  0  0  0
    7.9170  -14.0482   24.3327 S   0  0  0  0  0  0  0  0  0  0  0  0
    8.8470  -16.4567   23.0190 C   0  0  0  0  0  0  0  0  0  0  0  0
    8.2617  -17.3012   23.7113 O   0  0  0  0  0  0  0  0  0  0  0  0
   11.5094  -18.7887   22.0431 C   0  0  0  0  0  0  0  0  0  0  0  0
   12.1344  -17.9924   23.1657 C   0  0  1  0  0  0  0  0  0  0  0  0
   12.9156  -16.9864   22.5795 O   0  0  0  0  0  0  0  0  0  0  0  0
   11.0290  -17.3098   23.9212 C   0  0  2  0  0  0  0  0  0  0  0  0
   10.2734  -16.3822   23.1415 N   0  0  0  0  0  0  0  0  0  0  0  0
   11.6430  -16.5930   25.0741 C   0  0  0  0  0  0  0  0  0  0  0  0
   12.1688  -17.2316   26.0233 O   0  0  0  0  0  0  0  0  0  0  0  0
   11.6671  -15.2035   25.1611 O   0  0  0  0  0  0  0  0  0  0  0  0
  2  1  1  6
  2  3  1  0
  4  5  2  0
  4  2  1  0
  6  4  1  0
  7  6  1  0
  7  8  1  1
  9  8  1  0
 10 11  2  0
 10  7  1  0
 13 12  1  6
 13 14  1  0
 15 13  1  0
 15 16  1  6
 16 10  1  0
 17 15  1  0
 18 17  2  0
 19 17  1  0
M  END
$$$$
