ACT.pdb
     RDKit          3D

 19 18  0  0  1  0  0  0  0  0999 V2000
    6.5157  -14.1471   20.4218 C   0  0  0  0  0  0  0  0  0  0  0  0
    7.2570  -13.0154   21.0875 C   0  0  2  0  0  0  0  0  0  0  0  0
    8.2796  -12.4916   20.2276 N   0  0  0  0  0  0  0  0  0  0  0  0
    7.8105  -13.3936   22.4030 C   0  0  0  0  0  0  0  0  0  0  0  0
    9.0131  -13.7532   22.4557 O   0  0  0  0  0  0  0  0  0  0  0  0
    7.0725  -13.3744   23.5944 N   0  0  0  0  0  0  0  0  0  0  0  0
    7.5436  -13.7459   24.8884 C   0  0  1  0  0  0  0  0  0  0  0  0
    6.6543  -13.2985   26.0159 C   0  0  0  0  0  0  0  0  0  0  0  0
    6.7490  -11.4919   26.1524 S   0  0  0  0  0  0  0  0  0  0  0  0
    7.7951  -15.2205   24.9818 C   0  0  0  0  0  0  0  0  0  0  0  0
    6.8788  -16.0398   24.8265 O   0  0  0  0  0  0  0  0  0  0  0  0
    9.3841  -17.4855   22.9483 C   0  0  0  0  0  0  0  0  0  0  0  0
   10.1666  -17.7068   24.2226 C   0  0  1  0  0  0  0  0  0  0  0  0
   11.3421  -16.9485   24.1277 O   0  0  0  0  0  0  0  0  0  0  0  0
    9.3665  -17.1410   25.3620 C   0  0  2  0  0  0  0  0  0  0  0  0
    9.1024  -15.7418   25.2538 N   0  0  0  0  0  0  0  0  0  0  0  0
   10.1226  -17.3999   26.6196 C   0  0  0  0  0  0  0  0  0  0  0  0
   10.3272  -18.5768   27.0172 O   0  0  0  0  0  0  0  0  0  0  0  0
   10.6337  -16.3718   27.4074 O   0  0  0  0  0  0  0  0  0  0  0  0
  2  1  1  6
  2  3  1  0
  4  5  2  0
  4  2  1  0
  6  4  1  0
  7  6  1  0
  7  8  1  1
  9  8  1  0
 10 11  2  0
 10  7  1  0
 13 12  1  6
 13 14  1  0
 15 13  1  0
 15 16  1  6
 16 10  1  0
 17 15  1  0
 18 17  2  0
 19 17  1  0
M  END
$$$$
