ACT.pdb
     RDKit          3D

 19 18  0  0  1  0  0  0  0  0999 V2000
    6.4785  -17.5681   19.3450 C   0  0  0  0  0  0  0  0  0  0  0  0
    7.0845  -16.1900   19.2612 C   0  0  2  0  0  0  0  0  0  0  0  0
    7.9067  -16.0576   18.0924 N   0  0  0  0  0  0  0  0  0  0  0  0
    7.8306  -15.8213   20.4808 C   0  0  0  0  0  0  0  0  0  0  0  0
    9.0720  -16.0138   20.4937 O   0  0  0  0  0  0  0  0  0  0  0  0
    7.2344  -15.2698   21.6231 N   0  0  0  0  0  0  0  0  0  0  0  0
    7.8985  -14.8978   22.8293 C   0  0  1  0  0  0  0  0  0  0  0  0
    7.0978  -13.9799   23.7116 C   0  0  0  0  0  0  0  0  0  0  0  0
    8.0405  -13.6584   25.2279 S   0  0  0  0  0  0  0  0  0  0  0  0
    8.3481  -16.0989   23.6048 C   0  0  0  0  0  0  0  0  0  0  0  0
    7.5417  -16.9636   23.9749 O   0  0  0  0  0  0  0  0  0  0  0  0
   10.7873  -18.5927   22.4623 C   0  0  0  0  0  0  0  0  0  0  0  0
   11.3204  -18.1653   23.8106 C   0  0  1  0  0  0  0  0  0  0  0  0
   12.3042  -17.1929   23.5815 O   0  0  0  0  0  0  0  0  0  0  0  0
   10.2030  -17.4953   24.5597 C   0  0  2  0  0  0  0  0  0  0  0  0
    9.7256  -16.2959   23.9491 N   0  0  0  0  0  0  0  0  0  0  0  0
   10.6988  -17.1826   25.9295 C   0  0  0  0  0  0  0  0  0  0  0  0
   10.8618  -15.9899   26.2986 O   0  0  0  0  0  0  0  0  0  0  0  0
   11.0027  -18.1754   26.8573 O   0  0  0  0  0  0  0  0  0  0  0  0
  2  1  1  1
  2  3  1  0
  4  5  2  0
  4  2  1  0
  6  4  1  0
  7  6  1  0
  7  8  1  1
  9  8  1  0
 10 11  2  0
 10  7  1  0
 13 12  1  6
 13 14  1  0
 15 13  1  0
 15 16  1  6
 16 10  1  0
 17 15  1  0
 18 17  2  0
 19 17  1  0
M  END
$$$$
