ACT.pdb
     RDKit          3D

 19 18  0  0  1  0  0  0  0  0999 V2000
    6.5956  -14.4818   20.1282 C   0  0  0  0  0  0  0  0  0  0  0  0
    7.2601  -13.2861   20.7623 C   0  0  2  0  0  0  0  0  0  0  0  0
    8.2296  -12.7049   19.8780 N   0  0  0  0  0  0  0  0  0  0  0  0
    7.8577  -13.5972   22.0761 C   0  0  0  0  0  0  0  0  0  0  0  0
    9.0541  -13.9794   22.1044 O   0  0  0  0  0  0  0  0  0  0  0  0
    7.1678  -13.4907   23.2915 N   0  0  0  0  0  0  0  0  0  0  0  0
    7.6367  -13.9118   24.5711 C   0  0  1  0  0  0  0  0  0  0  0  0
    6.7625  -13.4804   25.7164 C   0  0  0  0  0  0  0  0  0  0  0  0
    6.7907  -11.6696   25.8225 S   0  0  0  0  0  0  0  0  0  0  0  0
    7.8569  -15.3936   24.6179 C   0  0  0  0  0  0  0  0  0  0  0  0
    7.0099  -16.1834   24.1776 O   0  0  0  0  0  0  0  0  0  0  0  0
    9.0294  -17.4295   22.6954 C   0  0  0  0  0  0  0  0  0  0  0  0
    9.9734  -17.7938   23.8184 C   0  0  1  0  0  0  0  0  0  0  0  0
   11.1405  -17.0362   23.6451 O   0  0  0  0  0  0  0  0  0  0  0  0
    9.3478  -17.3522   25.1115 C   0  0  2  0  0  0  0  0  0  0  0  0
    9.0532  -15.9562   25.1724 N   0  0  0  0  0  0  0  0  0  0  0  0
   10.2885  -17.7016   26.2130 C   0  0  0  0  0  0  0  0  0  0  0  0
   10.5292  -18.9043   26.4969 O   0  0  0  0  0  0  0  0  0  0  0  0
   10.9394  -16.7333   26.9730 O   0  0  0  0  0  0  0  0  0  0  0  0
  2  1  1  6
  2  3  1  0
  4  5  2  0
  4  2  1  0
  6  4  1  0
  7  6  1  0
  7  8  1  1
  9  8  1  0
 10 11  2  0
 10  7  1  0
 13 12  1  6
 13 14  1  0
 15 13  1  0
 15 16  1  6
 16 10  1  0
 17 15  1  0
 18 17  2  0
 19 17  1  0
M  END
$$$$
