ACT.pdb
     RDKit          3D

 19 18  0  0  1  0  0  0  0  0999 V2000
   -0.4802  -26.1147   27.5068 C   0  0  0  0  0  0  0  0  0  0  0  0
   -1.9776  -26.0426   27.3453 C   0  0  2  0  0  0  0  0  0  0  0  0
   -2.3428  -25.9265   25.9623 N   0  0  0  0  0  0  0  0  0  0  0  0
   -2.5852  -24.9628   28.1483 C   0  0  0  0  0  0  0  0  0  0  0  0
   -2.4402  -25.0021   29.3956 O   0  0  0  0  0  0  0  0  0  0  0  0
   -3.3134  -23.8983   27.5998 N   0  0  0  0  0  0  0  0  0  0  0  0
   -3.9200  -22.8270   28.3201 C   0  0  1  0  0  0  0  0  0  0  0  0
   -3.6494  -21.4667   27.7383 C   0  0  0  0  0  0  0  0  0  0  0  0
   -4.1488  -21.4679   25.9942 S   0  0  0  0  0  0  0  0  0  0  0  0
   -5.3952  -23.0365   28.4819 C   0  0  0  0  0  0  0  0  0  0  0  0
   -6.0670  -23.5862   27.5979 O   0  0  0  0  0  0  0  0  0  0  0  0
   -9.1867  -23.9944   31.2482 C   0  0  0  0  0  0  0  0  0  0  0  0
   -7.6961  -23.7863   31.1073 C   0  0  1  0  0  0  0  0  0  0  0  0
   -7.1241  -25.0364   30.8319 O   0  0  0  0  0  0  0  0  0  0  0  0
   -7.4610  -22.9178   29.9035 C   0  0  2  0  0  0  0  0  0  0  0  0
   -6.0874  -22.6105   29.6628 N   0  0  0  0  0  0  0  0  0  0  0  0
   -8.2176  -21.6500   30.1043 C   0  0  0  0  0  0  0  0  0  0  0  0
   -7.6927  -20.6749   30.7033 O   0  0  0  0  0  0  0  0  0  0  0  0
   -9.5221  -21.4799   29.6480 O   0  0  0  0  0  0  0  0  0  0  0  0
  2  1  1  6
  2  3  1  0
  4  5  2  0
  4  2  1  0
  6  4  1  0
  7  6  1  0
  7  8  1  6
  9  8  1  0
 10 11  2  0
 10  7  1  0
 13 12  1  6
 13 14  1  0
 15 13  1  0
 15 16  1  1
 16 10  1  0
 17 15  1  0
 18 17  2  0
 19 17  1  0
M  END
$$$$
