ACT.pdb
     RDKit          3D

 19 18  0  0  1  0  0  0  0  0999 V2000
    6.9463  -18.7914   18.0294 C   0  0  0  0  0  0  0  0  0  0  0  0
    7.4580  -17.4311   17.6276 C   0  0  2  0  0  0  0  0  0  0  0  0
    8.3171  -17.5205   16.4815 N   0  0  0  0  0  0  0  0  0  0  0  0
    8.1250  -16.7231   18.7383 C   0  0  0  0  0  0  0  0  0  0  0  0
    9.3757  -16.8048   18.8235 O   0  0  0  0  0  0  0  0  0  0  0  0
    7.4439  -15.9662   19.7015 N   0  0  0  0  0  0  0  0  0  0  0  0
    8.0295  -15.2649   20.7968 C   0  0  1  0  0  0  0  0  0  0  0  0
    7.1058  -14.2785   21.4570 C   0  0  0  0  0  0  0  0  0  0  0  0
    7.9762  -13.5038   22.8475 S   0  0  0  0  0  0  0  0  0  0  0  0
    8.5946  -16.2070   21.8164 C   0  0  0  0  0  0  0  0  0  0  0  0
    7.8796  -17.0454   22.3827 O   0  0  0  0  0  0  0  0  0  0  0  0
   10.7976  -18.9505   21.7379 C   0  0  0  0  0  0  0  0  0  0  0  0
   11.5206  -18.0269   22.6916 C   0  0  1  0  0  0  0  0  0  0  0  0
   12.4831  -17.3293   21.9481 O   0  0  0  0  0  0  0  0  0  0  0  0
   10.5314  -17.0137   23.1951 C   0  0  2  0  0  0  0  0  0  0  0  0
    9.9817  -16.1765   22.1771 N   0  0  0  0  0  0  0  0  0  0  0  0
   11.2253  -16.1650   24.2041 C   0  0  0  0  0  0  0  0  0  0  0  0
   11.5821  -16.6440   25.3124 O   0  0  0  0  0  0  0  0  0  0  0  0
   11.5107  -14.8209   23.9784 O   0  0  0  0  0  0  0  0  0  0  0  0
  2  1  1  1
  2  3  1  0
  4  5  2  0
  4  2  1  0
  6  4  1  0
  7  6  1  0
  7  8  1  1
  9  8  1  0
 10 11  2  0
 10  7  1  0
 13 12  1  6
 13 14  1  0
 15 13  1  0
 15 16  1  6
 16 10  1  0
 17 15  1  0
 18 17  2  0
 19 17  1  0
M  END
$$$$
