ACT.pdb
     RDKit          3D

 19 18  0  0  1  0  0  0  0  0999 V2000
    7.0192  -16.6097   21.0999 C   0  0  0  0  0  0  0  0  0  0  0  0
    7.9112  -15.3959   21.1667 C   0  0  2  0  0  0  0  0  0  0  0  0
    8.8902  -15.4162   20.1176 N   0  0  0  0  0  0  0  0  0  0  0  0
    8.5504  -15.2313   22.4874 C   0  0  0  0  0  0  0  0  0  0  0  0
    9.7212  -15.6625   22.6340 O   0  0  0  0  0  0  0  0  0  0  0  0
    7.9269  -14.6226   23.5852 N   0  0  0  0  0  0  0  0  0  0  0  0
    8.4871  -14.4421   24.8845 C   0  0  1  0  0  0  0  0  0  0  0  0
    7.7482  -13.4478   25.7375 C   0  0  0  0  0  0  0  0  0  0  0  0
    8.6622  -13.2151   27.2873 S   0  0  0  0  0  0  0  0  0  0  0  0
    8.6261  -15.7453   25.6115 C   0  0  0  0  0  0  0  0  0  0  0  0
    7.6681  -16.5225   25.7262 O   0  0  0  0  0  0  0  0  0  0  0  0
   11.3093  -19.5323   26.8944 C   0  0  0  0  0  0  0  0  0  0  0  0
   11.2866  -18.1558   26.2699 C   0  0  1  0  0  0  0  0  0  0  0  0
   11.1178  -18.3268   24.8885 O   0  0  0  0  0  0  0  0  0  0  0  0
   10.0690  -17.4362   26.7782 C   0  0  2  0  0  0  0  0  0  0  0  0
    9.8696  -16.1447   26.2024 N   0  0  0  0  0  0  0  0  0  0  0  0
   10.2083  -17.2967   28.2550 C   0  0  0  0  0  0  0  0  0  0  0  0
   10.4319  -16.1732   28.7774 O   0  0  0  0  0  0  0  0  0  0  0  0
   10.1004  -18.3825   29.1201 O   0  0  0  0  0  0  0  0  0  0  0  0
  2  1  1  1
  2  3  1  0
  4  5  2  0
  4  2  1  0
  6  4  1  0
  7  6  1  0
  7  8  1  1
  9  8  1  0
 10 11  2  0
 10  7  1  0
 13 12  1  1
 13 14  1  0
 15 13  1  0
 15 16  1  6
 16 10  1  0
 17 15  1  0
 18 17  2  0
 19 17  1  0
M  END
$$$$
