ACT.pdb
     RDKit          3D

 19 18  0  0  1  0  0  0  0  0999 V2000
    7.4884  -18.0475   15.8375 C   0  0  0  0  0  0  0  0  0  0  0  0
    7.8657  -16.6029   15.6275 C   0  0  2  0  0  0  0  0  0  0  0  0
    8.7504  -16.4580   14.5068 N   0  0  0  0  0  0  0  0  0  0  0  0
    8.4364  -15.9818   16.8394 C   0  0  0  0  0  0  0  0  0  0  0  0
    9.6623  -16.1414   17.0626 O   0  0  0  0  0  0  0  0  0  0  0  0
    7.6900  -15.2256   17.7534 N   0  0  0  0  0  0  0  0  0  0  0  0
    8.1693  -14.6508   18.9677 C   0  0  1  0  0  0  0  0  0  0  0  0
    7.1832  -13.7392   19.6451 C   0  0  0  0  0  0  0  0  0  0  0  0
    7.9732  -13.0057   21.1043 S   0  0  0  0  0  0  0  0  0  0  0  0
    8.6453  -15.7010   19.9252 C   0  0  0  0  0  0  0  0  0  0  0  0
    8.0610  -16.7886   20.0287 O   0  0  0  0  0  0  0  0  0  0  0  0
   12.0641  -17.9365   22.4576 C   0  0  0  0  0  0  0  0  0  0  0  0
   11.6641  -16.9687   21.3674 C   0  0  1  0  0  0  0  0  0  0  0  0
   11.5948  -17.6943   20.1697 O   0  0  0  0  0  0  0  0  0  0  0  0
   10.2754  -16.4794   21.6686 C   0  0  2  0  0  0  0  0  0  0  0  0
    9.7930  -15.4907   20.7581 N   0  0  0  0  0  0  0  0  0  0  0  0
   10.2832  -15.9125   23.0465 C   0  0  0  0  0  0  0  0  0  0  0  0
   10.1709  -14.6725   23.2333 O   0  0  0  0  0  0  0  0  0  0  0  0
   10.4129  -16.7103   24.1804 O   0  0  0  0  0  0  0  0  0  0  0  0
  2  1  1  1
  2  3  1  0
  4  5  2  0
  4  2  1  0
  6  4  1  0
  7  6  1  0
  7  8  1  1
  9  8  1  0
 10 11  2  0
 10  7  1  0
 13 12  1  1
 13 14  1  0
 15 13  1  0
 15 16  1  6
 16 10  1  0
 17 15  1  0
 18 17  2  0
 19 17  1  0
M  END
$$$$
