ACT.pdb
     RDKit          3D

 19 18  0  0  1  0  0  0  0  0999 V2000
    1.2775  -27.2680   27.1426 C   0  0  0  0  0  0  0  0  0  0  0  0
    0.6458  -26.3461   28.1548 C   0  0  2  0  0  0  0  0  0  0  0  0
    0.9581  -26.7577   29.4937 N   0  0  0  0  0  0  0  0  0  0  0  0
   -0.8122  -26.2082   27.9672 C   0  0  0  0  0  0  0  0  0  0  0  0
   -1.2207  -25.6008   26.9462 O   0  0  0  0  0  0  0  0  0  0  0  0
   -1.7649  -26.7154   28.8613 N   0  0  0  0  0  0  0  0  0  0  0  0
   -3.1821  -26.6130   28.7366 C   0  0  1  0  0  0  0  0  0  0  0  0
   -3.9391  -27.7131   29.4287 C   0  0  0  0  0  0  0  0  0  0  0  0
   -5.7169  -27.3915   29.2642 S   0  0  0  0  0  0  0  0  0  0  0  0
   -3.6811  -25.2754   29.1928 C   0  0  0  0  0  0  0  0  0  0  0  0
   -3.3335  -24.7969   30.2815 O   0  0  0  0  0  0  0  0  0  0  0  0
   -3.1025  -21.9576   27.8726 C   0  0  0  0  0  0  0  0  0  0  0  0
   -4.6051  -22.1073   27.8023 C   0  0  1  0  0  0  0  0  0  0  0  0
   -4.9194  -22.5643   26.5146 O   0  0  0  0  0  0  0  0  0  0  0  0
   -5.0088  -23.1880   28.7655 C   0  0  2  0  0  0  0  0  0  0  0  0
   -4.5784  -24.4970   28.3904 N   0  0  0  0  0  0  0  0  0  0  0  0
   -6.4952  -23.1727   28.8673 C   0  0  0  0  0  0  0  0  0  0  0  0
   -7.0994  -22.1646   29.3188 O   0  0  0  0  0  0  0  0  0  0  0  0
   -7.2807  -24.2536   28.4753 O   0  0  0  0  0  0  0  0  0  0  0  0
  2  1  1  6
  2  3  1  0
  4  5  2  0
  4  2  1  0
  6  4  1  0
  7  6  1  0
  7  8  1  1
  9  8  1  0
 10 11  2  0
 10  7  1  0
 13 12  1  6
 13 14  1  0
 15 13  1  0
 15 16  1  6
 16 10  1  0
 17 15  1  0
 18 17  2  0
 19 17  1  0
M  END
$$$$
