ACT.pdb
     RDKit          3D

 19 18  0  0  1  0  0  0  0  0999 V2000
    6.0851  -16.8655   19.9131 C   0  0  0  0  0  0  0  0  0  0  0  0
    7.0152  -15.6788   19.9271 C   0  0  2  0  0  0  0  0  0  0  0  0
    7.9885  -15.7732   18.8766 N   0  0  0  0  0  0  0  0  0  0  0  0
    7.6650  -15.4805   21.2379 C   0  0  0  0  0  0  0  0  0  0  0  0
    8.7786  -16.0283   21.4332 O   0  0  0  0  0  0  0  0  0  0  0  0
    7.1117  -14.7174   22.2752 N   0  0  0  0  0  0  0  0  0  0  0  0
    7.6866  -14.4932   23.5612 C   0  0  1  0  0  0  0  0  0  0  0  0
    6.9318  -13.5036   24.4057 C   0  0  0  0  0  0  0  0  0  0  0  0
    7.7903  -13.3158   25.9928 S   0  0  0  0  0  0  0  0  0  0  0  0
    7.8756  -15.7763   24.3124 C   0  0  0  0  0  0  0  0  0  0  0  0
    6.9087  -16.4797   24.6367 O   0  0  0  0  0  0  0  0  0  0  0  0
    9.1746  -18.9038   23.4626 C   0  0  0  0  0  0  0  0  0  0  0  0
   10.0712  -18.5339   24.6221 C   0  0  1  0  0  0  0  0  0  0  0  0
   11.2394  -17.9750   24.0848 O   0  0  0  0  0  0  0  0  0  0  0  0
    9.3867  -17.4533   25.4110 C   0  0  2  0  0  0  0  0  0  0  0  0
    9.1795  -16.2409   24.6855 N   0  0  0  0  0  0  0  0  0  0  0  0
   10.2234  -17.1683   26.6105 C   0  0  0  0  0  0  0  0  0  0  0  0
   10.7421  -16.0334   26.7787 O   0  0  0  0  0  0  0  0  0  0  0  0
   10.4715  -18.1251   27.5912 O   0  0  0  0  0  0  0  0  0  0  0  0
  2  1  1  1
  2  3  1  0
  4  5  2  0
  4  2  1  0
  6  4  1  0
  7  6  1  0
  7  8  1  1
  9  8  1  0
 10 11  2  0
 10  7  1  0
 13 12  1  6
 13 14  1  0
 15 13  1  0
 15 16  1  6
 16 10  1  0
 17 15  1  0
 18 17  2  0
 19 17  1  0
M  END
$$$$
