ACT.pdb
     RDKit          3D

 19 18  0  0  1  0  0  0  0  0999 V2000
    4.0292  -17.8533   22.1312 C   0  0  0  0  0  0  0  0  0  0  0  0
    4.4997  -17.4766   20.7491 C   0  0  2  0  0  0  0  0  0  0  0  0
    4.3575  -18.5760   19.8377 N   0  0  0  0  0  0  0  0  0  0  0  0
    5.8806  -16.9541   20.7407 C   0  0  0  0  0  0  0  0  0  0  0  0
    6.8249  -17.7823   20.7687 O   0  0  0  0  0  0  0  0  0  0  0  0
    6.1979  -15.5895   20.7034 N   0  0  0  0  0  0  0  0  0  0  0  0
    7.5027  -15.0206   20.7958 C   0  0  1  0  0  0  0  0  0  0  0  0
    7.5818  -13.5910   20.3350 C   0  0  0  0  0  0  0  0  0  0  0  0
    7.1025  -13.5138   18.5870 S   0  0  0  0  0  0  0  0  0  0  0  0
    8.0644  -15.1500   22.1793 C   0  0  0  0  0  0  0  0  0  0  0  0
    7.3414  -15.0399   23.1794 O   0  0  0  0  0  0  0  0  0  0  0  0
    7.9765  -17.0236   24.2764 C   0  0  0  0  0  0  0  0  0  0  0  0
    9.4846  -17.0895   24.1963 C   0  0  1  0  0  0  0  0  0  0  0  0
    9.8098  -18.0557   23.2337 O   0  0  0  0  0  0  0  0  0  0  0  0
    9.9796  -15.7676   23.6804 C   0  0  2  0  0  0  0  0  0  0  0  0
    9.4573  -15.4059   22.4014 N   0  0  0  0  0  0  0  0  0  0  0  0
   11.4655  -15.8403   23.5988 C   0  0  0  0  0  0  0  0  0  0  0  0
   12.0439  -15.9676   22.4877 O   0  0  0  0  0  0  0  0  0  0  0  0
   12.2786  -15.7725   24.7272 O   0  0  0  0  0  0  0  0  0  0  0  0
  2  1  1  1
  2  3  1  0
  4  5  2  0
  4  2  1  0
  6  4  1  0
  7  6  1  0
  7  8  1  1
  9  8  1  0
 10 11  2  0
 10  7  1  0
 13 12  1  6
 13 14  1  0
 15 13  1  0
 15 16  1  6
 16 10  1  0
 17 15  1  0
 18 17  2  0
 19 17  1  0
M  END
$$$$
