KQC.pdb
     RDKit          3D

 25 24  0  0  1  0  0  0  0  0999 V2000
    8.2475  -15.1822   19.2080 N   0  0  0  0  0  0  0  0  0  0  0  0
    7.3517  -15.4262   20.3110 C   0  0  1  0  0  0  0  0  0  0  0  0
    6.7606  -16.8038   20.3473 C   0  0  0  0  0  0  0  0  0  0  0  0
    7.4736  -17.8066   19.5124 C   0  0  0  0  0  0  0  0  0  0  0  0
    6.7139  -18.3929   18.3739 C   0  0  0  0  0  0  0  0  0  0  0  0
    7.5898  -19.3905   17.5934 C   0  0  0  0  0  0  0  0  0  0  0  0
    6.7619  -19.8829   16.5138 N   0  0  0  0  0  0  0  0  0  0  0  0
    8.1051  -15.1333   21.5746 C   0  0  0  0  0  0  0  0  0  0  0  0
    9.3409  -15.3026   21.5804 O   0  0  0  0  0  0  0  0  0  0  0  0
    5.5581  -11.9471   26.2086 N   0  0  0  0  0  0  0  0  0  0  0  0
    6.7699  -12.3036   26.8601 C   0  0  0  0  0  0  0  0  0  0  0  0
    7.0077  -11.8584   28.0159 O   0  0  0  0  0  0  0  0  0  0  0  0
    7.7610  -13.2073   26.1715 C   0  0  0  0  0  0  0  0  0  0  0  0
    7.2648  -13.5286   24.7932 C   0  0  0  0  0  0  0  0  0  0  0  0
    8.2054  -14.3754   23.9753 C   0  0  2  0  0  0  0  0  0  0  0  0
    7.4673  -14.6791   22.7383 N   0  0  0  0  0  0  0  0  0  0  0  0
    8.5763  -15.6477   24.5897 C   0  0  0  0  0  0  0  0  0  0  0  0
    7.7303  -16.5719   24.6782 O   0  0  0  0  0  0  0  0  0  0  0  0
    9.8645  -15.9021   25.1021 N   0  0  0  0  0  0  0  0  0  0  0  0
   10.2204  -17.2044   25.6681 C   0  0  1  0  0  0  0  0  0  0  0  0
   11.5486  -17.6104   25.0830 C   0  0  0  0  0  0  0  0  0  0  0  0
   12.7696  -16.3004   25.2825 S   0  0  0  0  0  0  0  0  0  0  0  0
   10.2988  -17.0698   27.1455 C   0  0  0  0  0  0  0  0  0  0  0  0
   10.5690  -18.1550   27.9623 O   0  0  0  0  0  0  0  0  0  0  0  0
   10.1220  -15.9647   27.7001 O   0  0  0  0  0  0  0  0  0  0  0  0
  2  1  1  6
  3  2  1  0
  4  3  1  0
  5  4  1  0
  6  7  1  0
  6  5  1  0
  8  9  2  0
  8  2  1  0
 10 11  1  0
 11 12  2  0
 13 11  1  0
 13 14  1  0
 15 14  1  1
 15 16  1  0
 16  8  1  0
 17 15  1  0
 18 17  2  0
 19 17  1  0
 20 19  1  0
 21 22  1  0
 20 21  1  6
 23 20  1  0
 23 24  1  0
 25 23  2  0
M  END
$$$$
