KQC.pdb
     RDKit          3D

 25 24  0  0  1  0  0  0  0  0999 V2000
    8.0678  -15.9340   20.4352 N   0  0  0  0  0  0  0  0  0  0  0  0
    8.6259  -14.6722   20.8538 C   0  0  1  0  0  0  0  0  0  0  0  0
    7.9141  -13.4638   20.3234 C   0  0  0  0  0  0  0  0  0  0  0  0
    7.4045  -13.6045   18.9336 C   0  0  0  0  0  0  0  0  0  0  0  0
    8.4226  -13.7734   17.8603 C   0  0  0  0  0  0  0  0  0  0  0  0
    7.7494  -13.8157   16.4758 C   0  0  0  0  0  0  0  0  0  0  0  0
    8.7957  -14.1615   15.5380 N   0  0  0  0  0  0  0  0  0  0  0  0
    8.6470  -14.6661   22.3536 C   0  0  0  0  0  0  0  0  0  0  0  0
    8.9265  -13.6002   22.9380 O   0  0  0  0  0  0  0  0  0  0  0  0
   11.4627  -18.6618   20.8926 N   0  0  0  0  0  0  0  0  0  0  0  0
   12.0375  -18.7307   22.1906 C   0  0  0  0  0  0  0  0  0  0  0  0
   13.0150  -19.5003   22.3968 O   0  0  0  0  0  0  0  0  0  0  0  0
   11.4799  -17.8885   23.3099 C   0  0  0  0  0  0  0  0  0  0  0  0
   10.3507  -17.0520   22.7861 C   0  0  0  0  0  0  0  0  0  0  0  0
    9.4058  -16.5485   23.8465 C   0  0  2  0  0  0  0  0  0  0  0  0
    8.3645  -15.8124   23.1110 N   0  0  0  0  0  0  0  0  0  0  0  0
   10.0006  -15.6248   24.8091 C   0  0  0  0  0  0  0  0  0  0  0  0
   11.0796  -15.0426   24.5358 O   0  0  0  0  0  0  0  0  0  0  0  0
    9.4156  -15.3433   26.0602 N   0  0  0  0  0  0  0  0  0  0  0  0
   10.0782  -14.4794   27.0388 C   0  0  1  0  0  0  0  0  0  0  0  0
    9.2561  -13.2232   27.1713 C   0  0  0  0  0  0  0  0  0  0  0  0
    7.5000  -13.6098   27.2852 S   0  0  0  0  0  0  0  0  0  0  0  0
   10.1625  -15.2092   28.3300 C   0  0  0  0  0  0  0  0  0  0  0  0
   10.8073  -14.6700   29.4306 O   0  0  0  0  0  0  0  0  0  0  0  0
    9.6500  -16.3405   28.4629 O   0  0  0  0  0  0  0  0  0  0  0  0
  2  1  1  1
  3  2  1  0
  4  3  1  0
  5  4  1  0
  6  7  1  0
  6  5  1  0
  8  9  2  0
  8  2  1  0
 10 11  1  0
 11 12  2  0
 13 11  1  0
 13 14  1  0
 15 14  1  6
 15 16  1  0
 16  8  1  0
 17 15  1  0
 18 17  2  0
 19 17  1  0
 20 19  1  0
 21 22  1  0
 20 21  1  1
 23 20  1  0
 23 24  1  0
 25 23  2  0
M  END
$$$$
