KQC.pdb
     RDKit          3D

 25 24  0  0  1  0  0  0  0  0999 V2000
    8.4328  -16.5506   20.5370 N   0  0  0  0  0  0  0  0  0  0  0  0
    8.7514  -15.3396   21.2516 C   0  0  1  0  0  0  0  0  0  0  0  0
    8.2074  -14.0854   20.6358 C   0  0  0  0  0  0  0  0  0  0  0  0
    7.8883  -14.1935   19.1875 C   0  0  0  0  0  0  0  0  0  0  0  0
    7.2968  -12.9904   18.5397 C   0  0  0  0  0  0  0  0  0  0  0  0
    6.9400  -13.2852   17.0709 C   0  0  0  0  0  0  0  0  0  0  0  0
    8.1730  -13.7058   16.4414 N   0  0  0  0  0  0  0  0  0  0  0  0
    8.2559  -15.5044   22.6578 C   0  0  0  0  0  0  0  0  0  0  0  0
    7.8112  -14.5013   23.2508 O   0  0  0  0  0  0  0  0  0  0  0  0
    6.9544  -21.0139   25.0471 N   0  0  0  0  0  0  0  0  0  0  0  0
    6.0114  -20.2316   24.3269 C   0  0  0  0  0  0  0  0  0  0  0  0
    4.9890  -20.7855   23.8386 O   0  0  0  0  0  0  0  0  0  0  0  0
    6.2352  -18.7512   24.1502 C   0  0  0  0  0  0  0  0  0  0  0  0
    7.4935  -18.3514   24.8616 C   0  0  0  0  0  0  0  0  0  0  0  0
    7.8519  -16.8946   24.7199 C   0  0  2  0  0  0  0  0  0  0  0  0
    8.2777  -16.7412   23.3191 N   0  0  0  0  0  0  0  0  0  0  0  0
    8.9560  -16.4498   25.5664 C   0  0  0  0  0  0  0  0  0  0  0  0
    9.9374  -15.8543   25.0562 O   0  0  0  0  0  0  0  0  0  0  0  0
    8.9820  -16.6574   26.9603 N   0  0  0  0  0  0  0  0  0  0  0  0
    9.9060  -15.9238   27.8270 C   0  0  1  0  0  0  0  0  0  0  0  0
    9.3727  -14.5229   27.9833 C   0  0  0  0  0  0  0  0  0  0  0  0
   10.4220  -13.5510   29.0792 S   0  0  0  0  0  0  0  0  0  0  0  0
    9.9796  -16.6235   29.1355 C   0  0  0  0  0  0  0  0  0  0  0  0
   11.0366  -16.4264   30.0083 O   0  0  0  0  0  0  0  0  0  0  0  0
    9.0829  -17.4171   29.4907 O   0  0  0  0  0  0  0  0  0  0  0  0
  2  1  1  6
  3  2  1  0
  4  3  1  0
  5  4  1  0
  6  7  1  0
  6  5  1  0
  8  9  2  0
  8  2  1  0
 10 11  1  0
 11 12  2  0
 13 11  1  0
 13 14  1  0
 15 14  1  1
 15 16  1  0
 16  8  1  0
 17 15  1  0
 18 17  2  0
 19 17  1  0
 20 19  1  0
 21 22  1  0
 20 21  1  1
 23 20  1  0
 23 24  1  0
 25 23  2  0
M  END
$$$$
