KQC.pdb
     RDKit          3D

 25 24  0  0  1  0  0  0  0  0999 V2000
   10.2821  -18.0632   15.6273 N   0  0  0  0  0  0  0  0  0  0  0  0
    9.3717  -18.1316   16.7431 C   0  0  1  0  0  0  0  0  0  0  0  0
    8.9587  -19.5194   17.1326 C   0  0  0  0  0  0  0  0  0  0  0  0
    9.9317  -20.5821   16.7651 C   0  0  0  0  0  0  0  0  0  0  0  0
    9.5288  -21.9871   17.0488 C   0  0  0  0  0  0  0  0  0  0  0  0
   10.5949  -22.9718   16.5336 C   0  0  0  0  0  0  0  0  0  0  0  0
   10.1140  -24.2918   16.8801 N   0  0  0  0  0  0  0  0  0  0  0  0
   10.0196  -17.4225   17.8953 C   0  0  0  0  0  0  0  0  0  0  0  0
   11.2639  -17.3369   17.9145 O   0  0  0  0  0  0  0  0  0  0  0  0
    7.4395  -11.7853   20.2225 N   0  0  0  0  0  0  0  0  0  0  0  0
    7.4093  -13.2032   20.3153 C   0  0  0  0  0  0  0  0  0  0  0  0
    6.4626  -13.7652   20.9304 O   0  0  0  0  0  0  0  0  0  0  0  0
    8.5024  -14.0257   19.6817 C   0  0  0  0  0  0  0  0  0  0  0  0
    8.8126  -15.2001   20.5613 C   0  0  0  0  0  0  0  0  0  0  0  0
    9.9017  -16.0998   20.0364 C   0  0  2  0  0  0  0  0  0  0  0  0
    9.2749  -16.8583   18.9415 N   0  0  0  0  0  0  0  0  0  0  0  0
   10.4170  -17.0666   21.0025 C   0  0  0  0  0  0  0  0  0  0  0  0
    9.7864  -18.1303   21.2230 O   0  0  0  0  0  0  0  0  0  0  0  0
   11.6136  -16.8665   21.7199 N   0  0  0  0  0  0  0  0  0  0  0  0
   12.0855  -17.8374   22.7088 C   0  0  1  0  0  0  0  0  0  0  0  0
   13.3090  -18.5105   22.1419 C   0  0  0  0  0  0  0  0  0  0  0  0
   14.0405  -19.6377   23.3424 S   0  0  0  0  0  0  0  0  0  0  0  0
   12.4010  -17.1124   23.9666 C   0  0  0  0  0  0  0  0  0  0  0  0
   12.5141  -17.7725   25.1788 O   0  0  0  0  0  0  0  0  0  0  0  0
   12.5752  -15.8756   23.9686 O   0  0  0  0  0  0  0  0  0  0  0  0
  2  1  1  6
  3  2  1  0
  4  3  1  0
  5  4  1  0
  6  7  1  0
  6  5  1  0
  8  9  2  0
  8  2  1  0
 10 11  1  0
 11 12  2  0
 13 11  1  0
 13 14  1  0
 15 14  1  1
 15 16  1  0
 16  8  1  0
 17 15  1  0
 18 17  2  0
 19 17  1  0
 20 19  1  0
 21 22  1  0
 20 21  1  6
 23 20  1  0
 23 24  1  0
 25 23  2  0
M  END
$$$$
