KQC.pdb
     RDKit          3D

 25 24  0  0  1  0  0  0  0  0999 V2000
    5.8784  -16.3299   20.2883 N   0  0  0  0  0  0  0  0  0  0  0  0
    6.7921  -15.5701   21.1048 C   0  0  1  0  0  0  0  0  0  0  0  0
    6.7379  -14.0866   20.8941 C   0  0  0  0  0  0  0  0  0  0  0  0
    7.3004  -13.6235   19.5978 C   0  0  0  0  0  0  0  0  0  0  0  0
    8.7688  -13.7823   19.4093 C   0  0  0  0  0  0  0  0  0  0  0  0
    9.1893  -13.3129   18.0041 C   0  0  0  0  0  0  0  0  0  0  0  0
   10.6178  -13.5299   17.9260 N   0  0  0  0  0  0  0  0  0  0  0  0
    6.5107  -15.9183   22.5364 C   0  0  0  0  0  0  0  0  0  0  0  0
    5.3441  -15.7908   22.9591 O   0  0  0  0  0  0  0  0  0  0  0  0
    8.6087  -20.4952   25.6335 N   0  0  0  0  0  0  0  0  0  0  0  0
    8.0523  -19.7990   26.7407 C   0  0  0  0  0  0  0  0  0  0  0  0
    7.9895  -20.3684   27.8642 O   0  0  0  0  0  0  0  0  0  0  0  0
    7.5422  -18.3907   26.5692 C   0  0  0  0  0  0  0  0  0  0  0  0
    7.6940  -17.9794   25.1349 C   0  0  0  0  0  0  0  0  0  0  0  0
    7.2809  -16.5588   24.8483 C   0  0  2  0  0  0  0  0  0  0  0  0
    7.5109  -16.3786   23.4055 N   0  0  0  0  0  0  0  0  0  0  0  0
    8.0600  -15.5407   25.5484 C   0  0  0  0  0  0  0  0  0  0  0  0
    9.2030  -15.2285   25.1315 O   0  0  0  0  0  0  0  0  0  0  0  0
    7.5878  -14.8720   26.6958 N   0  0  0  0  0  0  0  0  0  0  0  0
    8.3487  -13.7868   27.3176 C   0  0  1  0  0  0  0  0  0  0  0  0
    7.3953  -12.9886   28.1692 C   0  0  0  0  0  0  0  0  0  0  0  0
    5.9685  -12.4499   27.2096 S   0  0  0  0  0  0  0  0  0  0  0  0
    9.4355  -14.3832   28.1364 C   0  0  0  0  0  0  0  0  0  0  0  0
   10.3711  -13.5973   28.7882 O   0  0  0  0  0  0  0  0  0  0  0  0
    9.5389  -15.6215   28.2626 O   0  0  0  0  0  0  0  0  0  0  0  0
  2  1  1  6
  3  2  1  0
  4  3  1  0
  5  4  1  0
  6  7  1  0
  6  5  1  0
  8  9  2  0
  8  2  1  0
 10 11  1  0
 11 12  2  0
 13 11  1  0
 13 14  1  0
 15 14  1  1
 15 16  1  0
 16  8  1  0
 17 15  1  0
 18 17  2  0
 19 17  1  0
 20 19  1  0
 21 22  1  0
 20 21  1  1
 23 20  1  0
 23 24  1  0
 25 23  2  0
M  END
$$$$
