KQC.pdb
     RDKit          3D

 25 24  0  0  1  0  0  0  0  0999 V2000
    6.2707  -16.2921   19.5891 N   0  0  0  0  0  0  0  0  0  0  0  0
    7.2749  -15.4347   20.1678 C   0  0  1  0  0  0  0  0  0  0  0  0
    7.0941  -13.9739   19.8820 C   0  0  0  0  0  0  0  0  0  0  0  0
    7.3973  -13.5738   18.4824 C   0  0  0  0  0  0  0  0  0  0  0  0
    8.6933  -14.0409   17.9173 C   0  0  0  0  0  0  0  0  0  0  0  0
    8.8908  -13.4963   16.4904 C   0  0  0  0  0  0  0  0  0  0  0  0
   10.2487  -13.8347   16.1227 N   0  0  0  0  0  0  0  0  0  0  0  0
    7.2890  -15.6936   21.6453 C   0  0  0  0  0  0  0  0  0  0  0  0
    6.1976  -15.7658   22.2447 O   0  0  0  0  0  0  0  0  0  0  0  0
   12.2231  -18.0739   24.4507 N   0  0  0  0  0  0  0  0  0  0  0  0
   11.3258  -18.0584   25.5528 C   0  0  0  0  0  0  0  0  0  0  0  0
   11.6232  -18.6874   26.6046 O   0  0  0  0  0  0  0  0  0  0  0  0
   10.0291  -17.2946   25.4612 C   0  0  0  0  0  0  0  0  0  0  0  0
    9.7530  -16.9565   24.0264 C   0  0  0  0  0  0  0  0  0  0  0  0
    8.4986  -16.1505   23.8077 C   0  0  2  0  0  0  0  0  0  0  0  0
    8.4817  -15.8552   22.3656 N   0  0  0  0  0  0  0  0  0  0  0  0
    8.4578  -14.8750   24.5183 C   0  0  0  0  0  0  0  0  0  0  0  0
    9.2149  -13.9364   24.1668 O   0  0  0  0  0  0  0  0  0  0  0  0
    7.5935  -14.6330   25.6051 N   0  0  0  0  0  0  0  0  0  0  0  0
    7.5909  -13.3506   26.3111 C   0  0  1  0  0  0  0  0  0  0  0  0
    6.1543  -12.9556   26.5379 C   0  0  0  0  0  0  0  0  0  0  0  0
    6.0412  -11.5403   27.6473 S   0  0  0  0  0  0  0  0  0  0  0  0
    8.3146  -13.5202   27.5975 C   0  0  0  0  0  0  0  0  0  0  0  0
    8.7963  -12.4352   28.3106 O   0  0  0  0  0  0  0  0  0  0  0  0
    8.5119  -14.6558   28.0785 O   0  0  0  0  0  0  0  0  0  0  0  0
  2  1  1  6
  3  2  1  0
  4  3  1  0
  5  4  1  0
  6  7  1  0
  6  5  1  0
  8  9  2  0
  8  2  1  0
 10 11  1  0
 11 12  2  0
 13 11  1  0
 13 14  1  0
 15 14  1  6
 15 16  1  0
 16  8  1  0
 17 15  1  0
 18 17  2  0
 19 17  1  0
 20 19  1  0
 21 22  1  0
 20 21  1  1
 23 20  1  0
 23 24  1  0
 25 23  2  0
M  END
$$$$
