KQC.pdb
     RDKit          3D

 25 24  0  0  1  0  0  0  0  0999 V2000
   12.4028  -17.5885   19.5841 N   0  0  0  0  0  0  0  0  0  0  0  0
   11.6941  -18.0716   20.7431 C   0  0  1  0  0  0  0  0  0  0  0  0
   12.4693  -19.0267   21.6004 C   0  0  0  0  0  0  0  0  0  0  0  0
   13.6102  -19.6895   20.9149 C   0  0  0  0  0  0  0  0  0  0  0  0
   14.3401  -20.7339   21.6853 C   0  0  0  0  0  0  0  0  0  0  0  0
   15.5034  -21.3071   20.8549 C   0  0  0  0  0  0  0  0  0  0  0  0
   16.1977  -22.2271   21.7296 N   0  0  0  0  0  0  0  0  0  0  0  0
   11.2584  -16.8741   21.5343 C   0  0  0  0  0  0  0  0  0  0  0  0
   12.0627  -15.9308   21.6730 O   0  0  0  0  0  0  0  0  0  0  0  0
    7.9643  -13.2588   21.0386 N   0  0  0  0  0  0  0  0  0  0  0  0
    7.3685  -13.1655   22.3257 C   0  0  0  0  0  0  0  0  0  0  0  0
    6.8565  -12.0738   22.6952 O   0  0  0  0  0  0  0  0  0  0  0  0
    7.3509  -14.3647   23.2392 C   0  0  0  0  0  0  0  0  0  0  0  0
    8.0459  -15.5109   22.5666 C   0  0  0  0  0  0  0  0  0  0  0  0
    9.5278  -15.5812   22.8310 C   0  0  2  0  0  0  0  0  0  0  0  0
    9.9858  -16.7845   22.1173 N   0  0  0  0  0  0  0  0  0  0  0  0
    9.8929  -15.7380   24.2366 C   0  0  0  0  0  0  0  0  0  0  0  0
   10.2087  -16.8699   24.6804 O   0  0  0  0  0  0  0  0  0  0  0  0
    9.9107  -14.6614   25.1463 N   0  0  0  0  0  0  0  0  0  0  0  0
   10.2876  -14.8492   26.5483 C   0  0  1  0  0  0  0  0  0  0  0  0
   10.0067  -13.5589   27.2747 C   0  0  0  0  0  0  0  0  0  0  0  0
   10.5515  -13.6517   28.9897 S   0  0  0  0  0  0  0  0  0  0  0  0
    9.4856  -15.9689   27.1052 C   0  0  0  0  0  0  0  0  0  0  0  0
    8.1616  -16.1640   26.7490 O   0  0  0  0  0  0  0  0  0  0  0  0
    9.9853  -16.7747   27.9182 O   0  0  0  0  0  0  0  0  0  0  0  0
  2  1  1  6
  3  2  1  0
  4  3  1  0
  5  4  1  0
  6  7  1  0
  6  5  1  0
  8  9  2  0
  8  2  1  0
 10 11  1  0
 11 12  2  0
 13 11  1  0
 13 14  1  0
 15 14  1  1
 15 16  1  0
 16  8  1  0
 17 15  1  0
 18 17  2  0
 19 17  1  0
 20 19  1  0
 21 22  1  0
 20 21  1  1
 23 20  1  0
 23 24  1  0
 25 23  2  0
M  END
$$$$
