KQC.pdb
     RDKit          3D

 25 24  0  0  1  0  0  0  0  0999 V2000
    6.4878  -16.2162   19.4974 N   0  0  0  0  0  0  0  0  0  0  0  0
    7.5426  -15.4211   20.0752 C   0  0  1  0  0  0  0  0  0  0  0  0
    7.5062  -13.9676   19.7089 C   0  0  0  0  0  0  0  0  0  0  0  0
    7.5317  -13.6956   18.2473 C   0  0  0  0  0  0  0  0  0  0  0  0
    8.7521  -14.1205   17.5075 C   0  0  0  0  0  0  0  0  0  0  0  0
    8.5979  -13.8418   16.0008 C   0  0  0  0  0  0  0  0  0  0  0  0
    9.7418  -14.4594   15.3655 N   0  0  0  0  0  0  0  0  0  0  0  0
    7.4763  -15.6003   21.5630 C   0  0  0  0  0  0  0  0  0  0  0  0
    6.3544  -15.6246   22.1075 O   0  0  0  0  0  0  0  0  0  0  0  0
   12.0557  -18.2681   24.5844 N   0  0  0  0  0  0  0  0  0  0  0  0
   11.2431  -17.9730   25.7125 C   0  0  0  0  0  0  0  0  0  0  0  0
   11.5765  -18.4073   26.8486 O   0  0  0  0  0  0  0  0  0  0  0  0
    9.9929  -17.1466   25.5482 C   0  0  0  0  0  0  0  0  0  0  0  0
    9.8242  -16.7845   24.1026 C   0  0  0  0  0  0  0  0  0  0  0  0
    8.5648  -16.0155   23.7970 C   0  0  2  0  0  0  0  0  0  0  0  0
    8.6274  -15.7399   22.3523 N   0  0  0  0  0  0  0  0  0  0  0  0
    8.4480  -14.7322   24.4848 C   0  0  0  0  0  0  0  0  0  0  0  0
    9.2105  -13.7830   24.1758 O   0  0  0  0  0  0  0  0  0  0  0  0
    7.5026  -14.4939   25.5027 N   0  0  0  0  0  0  0  0  0  0  0  0
    7.4536  -13.2184   26.2195 C   0  0  1  0  0  0  0  0  0  0  0  0
    6.0039  -12.8405   26.3831 C   0  0  0  0  0  0  0  0  0  0  0  0
    5.8227  -11.4505   27.5152 S   0  0  0  0  0  0  0  0  0  0  0  0
    8.1188  -13.3929   27.5364 C   0  0  0  0  0  0  0  0  0  0  0  0
    8.7769  -12.3484   28.1640 O   0  0  0  0  0  0  0  0  0  0  0  0
    8.1045  -14.4960   28.1220 O   0  0  0  0  0  0  0  0  0  0  0  0
  2  1  1  6
  3  2  1  0
  4  3  1  0
  5  4  1  0
  6  7  1  0
  6  5  1  0
  8  9  2  0
  8  2  1  0
 10 11  1  0
 11 12  2  0
 13 11  1  0
 13 14  1  0
 15 14  1  1
 15 16  1  0
 16  8  1  0
 17 15  1  0
 18 17  2  0
 19 17  1  0
 20 19  1  0
 21 22  1  0
 20 21  1  1
 23 20  1  0
 23 24  1  0
 25 23  2  0
M  END
$$$$
