KQC.pdb
     RDKit          3D

 25 24  0  0  1  0  0  0  0  0999 V2000
    7.6602  -19.1057   16.8910 N   0  0  0  0  0  0  0  0  0  0  0  0
    6.9863  -18.6707   18.0891 C   0  0  1  0  0  0  0  0  0  0  0  0
    6.5999  -19.7739   19.0281 C   0  0  0  0  0  0  0  0  0  0  0  0
    6.2726  -21.0649   18.3669 C   0  0  0  0  0  0  0  0  0  0  0  0
    5.9294  -22.2068   19.2587 C   0  0  0  0  0  0  0  0  0  0  0  0
    5.6663  -23.4800   18.4331 C   0  0  0  0  0  0  0  0  0  0  0  0
    5.4256  -24.5327   19.3961 N   0  0  0  0  0  0  0  0  0  0  0  0
    7.8787  -17.6757   18.7700 C   0  0  0  0  0  0  0  0  0  0  0  0
    9.0908  -17.9472   18.8836 O   0  0  0  0  0  0  0  0  0  0  0  0
    9.0581  -12.6827   18.1898 N   0  0  0  0  0  0  0  0  0  0  0  0
    9.2366  -12.4942   19.5871 C   0  0  0  0  0  0  0  0  0  0  0  0
   10.2510  -11.8723   20.0052 O   0  0  0  0  0  0  0  0  0  0  0  0
    8.2188  -13.0349   20.5590 C   0  0  0  0  0  0  0  0  0  0  0  0
    7.4997  -14.1919   19.9316 C   0  0  0  0  0  0  0  0  0  0  0  0
    8.2645  -15.4900   19.9623 C   0  0  2  0  0  0  0  0  0  0  0  0
    7.3951  -16.4610   19.2779 N   0  0  0  0  0  0  0  0  0  0  0  0
    8.5365  -16.0097   21.3001 C   0  0  0  0  0  0  0  0  0  0  0  0
    7.6338  -16.6082   21.9362 O   0  0  0  0  0  0  0  0  0  0  0  0
    9.7884  -15.8729   21.9331 N   0  0  0  0  0  0  0  0  0  0  0  0
   10.0227  -16.3823   23.2854 C   0  0  1  0  0  0  0  0  0  0  0  0
    9.8535  -17.8793   23.2466 C   0  0  0  0  0  0  0  0  0  0  0  0
   10.3547  -18.6265   24.8077 S   0  0  0  0  0  0  0  0  0  0  0  0
   11.3987  -16.0042   23.6987 C   0  0  0  0  0  0  0  0  0  0  0  0
   11.8754  -16.2690   24.9717 O   0  0  0  0  0  0  0  0  0  0  0  0
   12.1735  -15.4315   22.9039 O   0  0  0  0  0  0  0  0  0  0  0  0
  2  1  1  6
  3  2  1  0
  4  3  1  0
  5  4  1  0
  6  7  1  0
  6  5  1  0
  8  9  2  0
  8  2  1  0
 10 11  1  0
 11 12  2  0
 13 11  1  0
 13 14  1  0
 15 14  1  1
 15 16  1  0
 16  8  1  0
 17 15  1  0
 18 17  2  0
 19 17  1  0
 20 19  1  0
 21 22  1  0
 20 21  1  6
 23 20  1  0
 23 24  1  0
 25 23  2  0
M  END
$$$$
