KQC.pdb
     RDKit          3D

 25 24  0  0  1  0  0  0  0  0999 V2000
    7.7071  -19.0816   20.3406 N   0  0  0  0  0  0  0  0  0  0  0  0
    9.1309  -19.2973   20.2702 C   0  0  1  0  0  0  0  0  0  0  0  0
    9.6129  -19.8941   18.9819 C   0  0  0  0  0  0  0  0  0  0  0  0
    8.5537  -20.5434   18.1648 C   0  0  0  0  0  0  0  0  0  0  0  0
    8.8366  -21.9196   17.6718 C   0  0  0  0  0  0  0  0  0  0  0  0
    7.6435  -22.4623   16.8633 C   0  0  0  0  0  0  0  0  0  0  0  0
    7.9505  -23.8493   16.5883 N   0  0  0  0  0  0  0  0  0  0  0  0
    9.7981  -17.9798   20.5328 C   0  0  0  0  0  0  0  0  0  0  0  0
   11.0419  -17.9204   20.4594 O   0  0  0  0  0  0  0  0  0  0  0  0
    7.3125  -12.6244   19.2177 N   0  0  0  0  0  0  0  0  0  0  0  0
    7.8809  -13.6104   18.3663 C   0  0  0  0  0  0  0  0  0  0  0  0
    7.6307  -13.5826   17.1306 O   0  0  0  0  0  0  0  0  0  0  0  0
    8.7756  -14.6796   18.9400 C   0  0  0  0  0  0  0  0  0  0  0  0
    8.8618  -14.5088   20.4275 C   0  0  0  0  0  0  0  0  0  0  0  0
    9.7238  -15.5313   21.1220 C   0  0  2  0  0  0  0  0  0  0  0  0
    9.0719  -16.8240   20.8552 N   0  0  0  0  0  0  0  0  0  0  0  0
    9.8133  -15.3747   22.5715 C   0  0  0  0  0  0  0  0  0  0  0  0
   10.8689  -14.9348   23.0911 O   0  0  0  0  0  0  0  0  0  0  0  0
    8.7531  -15.6986   23.4420 N   0  0  0  0  0  0  0  0  0  0  0  0
    8.8537  -15.4803   24.8861 C   0  0  1  0  0  0  0  0  0  0  0  0
    7.4572  -15.5104   25.4521 C   0  0  0  0  0  0  0  0  0  0  0  0
    6.6805  -13.8884   25.3412 S   0  0  0  0  0  0  0  0  0  0  0  0
    9.6960  -16.5573   25.4672 C   0  0  0  0  0  0  0  0  0  0  0  0
    9.9489  -16.6305   26.8269 O   0  0  0  0  0  0  0  0  0  0  0  0
   10.2056  -17.4366   24.7411 O   0  0  0  0  0  0  0  0  0  0  0  0
  2  1  1  6
  3  2  1  0
  4  3  1  0
  5  4  1  0
  6  7  1  0
  6  5  1  0
  8  9  2  0
  8  2  1  0
 10 11  1  0
 11 12  2  0
 13 11  1  0
 13 14  1  0
 15 14  1  1
 15 16  1  0
 16  8  1  0
 17 15  1  0
 18 17  2  0
 19 17  1  0
 20 19  1  0
 21 22  1  0
 20 21  1  1
 23 20  1  0
 23 24  1  0
 25 23  2  0
M  END
$$$$
