KQC.pdb
     RDKit          3D

 25 24  0  0  1  0  0  0  0  0999 V2000
    5.5364  -17.4765   21.1228 N   0  0  0  0  0  0  0  0  0  0  0  0
    6.7420  -16.8236   21.5687 C   0  0  1  0  0  0  0  0  0  0  0  0
    6.9040  -15.4109   21.0929 C   0  0  0  0  0  0  0  0  0  0  0  0
    7.6679  -15.2672   19.8253 C   0  0  0  0  0  0  0  0  0  0  0  0
    7.7810  -13.8932   19.2629 C   0  0  0  0  0  0  0  0  0  0  0  0
    8.4941  -13.9225   17.8982 C   0  0  0  0  0  0  0  0  0  0  0  0
    8.3810  -12.5824   17.3643 N   0  0  0  0  0  0  0  0  0  0  0  0
    6.7605  -16.8895   23.0671 C   0  0  0  0  0  0  0  0  0  0  0  0
    5.6858  -16.7326   23.6805 O   0  0  0  0  0  0  0  0  0  0  0  0
    6.8974  -19.9336   26.9037 N   0  0  0  0  0  0  0  0  0  0  0  0
    7.8909  -19.3390   27.7279 C   0  0  0  0  0  0  0  0  0  0  0  0
    7.8461  -19.5107   28.9765 O   0  0  0  0  0  0  0  0  0  0  0  0
    8.9883  -18.5099   27.1104 C   0  0  0  0  0  0  0  0  0  0  0  0
    8.7311  -18.3624   25.6403 C   0  0  0  0  0  0  0  0  0  0  0  0
    7.9740  -17.1150   25.2636 C   0  0  2  0  0  0  0  0  0  0  0  0
    7.9390  -17.1201   23.7919 N   0  0  0  0  0  0  0  0  0  0  0  0
    8.6031  -15.8656   25.6842 C   0  0  0  0  0  0  0  0  0  0  0  0
    9.6958  -15.5112   25.1761 O   0  0  0  0  0  0  0  0  0  0  0  0
    8.0371  -15.0137   26.6540 N   0  0  0  0  0  0  0  0  0  0  0  0
    8.6984  -13.7738   27.0642 C   0  0  1  0  0  0  0  0  0  0  0  0
    7.6347  -12.8326   27.5684 C   0  0  0  0  0  0  0  0  0  0  0  0
    6.3744  -12.5501   26.3120 S   0  0  0  0  0  0  0  0  0  0  0  0
    9.6838  -14.0959   28.1283 C   0  0  0  0  0  0  0  0  0  0  0  0
   10.4953  -13.1232   28.6880 O   0  0  0  0  0  0  0  0  0  0  0  0
    9.8111  -15.2633   28.5537 O   0  0  0  0  0  0  0  0  0  0  0  0
  2  1  1  1
  3  2  1  0
  4  3  1  0
  5  4  1  0
  6  7  1  0
  6  5  1  0
  8  9  2  0
  8  2  1  0
 10 11  1  0
 11 12  2  0
 13 11  1  0
 13 14  1  0
 15 14  1  6
 15 16  1  0
 16  8  1  0
 17 15  1  0
 18 17  2  0
 19 17  1  0
 20 19  1  0
 21 22  1  0
 20 21  1  1
 23 20  1  0
 23 24  1  0
 25 23  2  0
M  END
$$$$
