YAC.pdb
     RDKit          3D

 24 24  0  0  1  0  0  0  0  0999 V2000
    6.8828  -11.5856   26.9396 O   0  0  0  0  0  0  0  0  0  0  0  0
    6.9270  -12.9567   26.6960 C   0  0  0  0  0  0  0  0  0  0  0  0
    8.1225  -13.6513   26.6135 C   0  0  0  0  0  0  0  0  0  0  0  0
    8.0951  -15.0077   26.3700 C   0  0  0  0  0  0  0  0  0  0  0  0
    6.9331  -15.7233   26.2015 C   0  0  0  0  0  0  0  0  0  0  0  0
    6.9270  -17.1946   25.9384 C   0  0  0  0  0  0  0  0  0  0  0  0
    6.2635  -17.4187   24.6060 C   0  0  2  0  0  0  0  0  0  0  0  0
    5.8440  -18.7989   24.4555 N   0  0  0  0  0  0  0  0  0  0  0  0
    7.0821  -17.0081   23.4637 C   0  0  0  0  0  0  0  0  0  0  0  0
    7.9329  -17.8128   22.9796 O   0  0  0  0  0  0  0  0  0  0  0  0
    5.7478  -15.0261   26.2847 C   0  0  0  0  0  0  0  0  0  0  0  0
    5.7556  -13.6679   26.5279 C   0  0  0  0  0  0  0  0  0  0  0  0
    7.3078  -14.0532   21.0576 C   0  0  0  0  0  0  0  0  0  0  0  0
    7.7541  -15.3552   21.6796 C   0  0  2  0  0  0  0  0  0  0  0  0
    6.9936  -15.7252   22.8294 N   0  0  0  0  0  0  0  0  0  0  0  0
    9.2276  -15.3443   21.9536 C   0  0  0  0  0  0  0  0  0  0  0  0
   10.0475  -15.0113   21.0588 O   0  0  0  0  0  0  0  0  0  0  0  0
    9.7563  -15.7048   23.2191 N   0  0  0  0  0  0  0  0  0  0  0  0
   11.1642  -15.7625   23.5123 C   0  0  1  0  0  0  0  0  0  0  0  0
   11.4432  -15.7946   24.9980 C   0  0  0  0  0  0  0  0  0  0  0  0
   10.5937  -14.3490   25.7200 S   0  0  0  0  0  0  0  0  0  0  0  0
   11.7594  -16.9697   22.8903 C   0  0  0  0  0  0  0  0  0  0  0  0
   13.1169  -17.2443   22.9726 O   0  0  0  0  0  0  0  0  0  0  0  0
   11.0148  -17.7680   22.2705 O   0  0  0  0  0  0  0  0  0  0  0  0
  1  2  1  0
  2 12  2  0
  3  4  2  0
  3  2  1  0
  4  5  1  0
  5  6  1  0
  5 11  2  0
  6  7  1  0
  7  9  1  0
  7  8  1  6
  9 10  2  0
  9 15  1  0
 12 11  1  0
 14 16  1  0
 14 13  1  1
 15 14  1  0
 16 17  2  0
 18 16  1  0
 18 19  1  0
 19 20  1  1
 20 21  1  0
 22 23  1  0
 22 19  1  0
 24 22  2  0
M  END
$$$$
