YAC.pdb
     RDKit          3D

 24 24  0  0  1  0  0  0  0  0999 V2000
    7.9027  -13.1364   17.6201 O   0  0  0  0  0  0  0  0  0  0  0  0
    8.0488  -13.4716   18.9645 C   0  0  0  0  0  0  0  0  0  0  0  0
    7.0424  -14.0990   19.6801 C   0  0  0  0  0  0  0  0  0  0  0  0
    7.2525  -14.4028   21.0081 C   0  0  0  0  0  0  0  0  0  0  0  0
    8.4202  -14.1154   21.6750 C   0  0  0  0  0  0  0  0  0  0  0  0
    8.6263  -14.4544   23.1160 C   0  0  0  0  0  0  0  0  0  0  0  0
    9.8212  -15.3654   23.2057 C   0  0  2  0  0  0  0  0  0  0  0  0
    9.6025  -16.5905   22.4610 N   0  0  0  0  0  0  0  0  0  0  0  0
   10.2281  -15.6699   24.5787 C   0  0  0  0  0  0  0  0  0  0  0  0
   10.1228  -16.8544   25.0165 O   0  0  0  0  0  0  0  0  0  0  0  0
    9.4168  -13.4914   20.9571 C   0  0  0  0  0  0  0  0  0  0  0  0
    9.2245  -13.1795   19.6269 C   0  0  0  0  0  0  0  0  0  0  0  0
   11.2708  -13.6570   27.6586 C   0  0  0  0  0  0  0  0  0  0  0  0
   10.6308  -14.8052   26.9147 C   0  0  2  0  0  0  0  0  0  0  0  0
   10.7535  -14.7015   25.4965 N   0  0  0  0  0  0  0  0  0  0  0  0
    9.2095  -15.0026   27.3481 C   0  0  0  0  0  0  0  0  0  0  0  0
    8.9411  -15.5520   28.4480 O   0  0  0  0  0  0  0  0  0  0  0  0
    8.1175  -14.5836   26.5464 N   0  0  0  0  0  0  0  0  0  0  0  0
    6.7420  -14.8830   26.8463 C   0  0  1  0  0  0  0  0  0  0  0  0
    5.7957  -13.8197   26.3364 C   0  0  0  0  0  0  0  0  0  0  0  0
    6.1387  -12.3091   27.3024 S   0  0  0  0  0  0  0  0  0  0  0  0
    6.3661  -16.1838   26.2419 C   0  0  0  0  0  0  0  0  0  0  0  0
    5.1142  -16.7491   26.4366 O   0  0  0  0  0  0  0  0  0  0  0  0
    7.2040  -16.7930   25.5328 O   0  0  0  0  0  0  0  0  0  0  0  0
  1  2  1  0
  2 12  2  0
  3  4  2  0
  3  2  1  0
  4  5  1  0
  5  6  1  0
  5 11  2  0
  6  7  1  0
  7  9  1  0
  7  8  1  1
  9 10  2  0
  9 15  1  0
 12 11  1  0
 14 16  1  0
 14 13  1  1
 15 14  1  0
 16 17  2  0
 18 16  1  0
 18 19  1  0
 19 20  1  6
 20 21  1  0
 22 23  1  0
 22 19  1  0
 24 22  2  0
M  END
$$$$
