YAC.pdb
     RDKit          3D

 24 24  0  0  1  0  0  0  0  0999 V2000
    4.2801  -20.6349   13.5933 O   0  0  0  0  0  0  0  0  0  0  0  0
    5.0462  -20.1151   14.6344 C   0  0  0  0  0  0  0  0  0  0  0  0
    6.2652  -20.6642   14.9964 C   0  0  0  0  0  0  0  0  0  0  0  0
    6.9728  -20.1006   16.0365 C   0  0  0  0  0  0  0  0  0  0  0  0
    6.5332  -19.0085   16.7471 C   0  0  0  0  0  0  0  0  0  0  0  0
    7.3175  -18.4135   17.8718 C   0  0  0  0  0  0  0  0  0  0  0  0
    7.8932  -17.1093   17.3888 C   0  0  2  0  0  0  0  0  0  0  0  0
    8.8658  -17.3247   16.3347 N   0  0  0  0  0  0  0  0  0  0  0  0
    8.4714  -16.2896   18.4553 C   0  0  0  0  0  0  0  0  0  0  0  0
    9.5801  -16.6219   18.9712 O   0  0  0  0  0  0  0  0  0  0  0  0
    5.3200  -18.4675   16.3817 C   0  0  0  0  0  0  0  0  0  0  0  0
    4.5977  -19.0182   15.3430 C   0  0  0  0  0  0  0  0  0  0  0  0
    7.5224  -13.1852   20.4767 C   0  0  0  0  0  0  0  0  0  0  0  0
    8.3611  -14.3860   20.1078 C   0  0  2  0  0  0  0  0  0  0  0  0
    7.8616  -15.1020   18.9785 N   0  0  0  0  0  0  0  0  0  0  0  0
    8.5778  -15.2768   21.2936 C   0  0  0  0  0  0  0  0  0  0  0  0
    7.6427  -15.9873   21.7458 O   0  0  0  0  0  0  0  0  0  0  0  0
    9.8321  -15.3568   21.9503 N   0  0  0  0  0  0  0  0  0  0  0  0
   10.0926  -16.2117   23.0785 C   0  0  1  0  0  0  0  0  0  0  0  0
   10.3658  -17.6412   22.6682 C   0  0  0  0  0  0  0  0  0  0  0  0
   12.1801  -17.8438   22.6586 S   0  0  0  0  0  0  0  0  0  0  0  0
   11.2607  -15.7031   23.8371 C   0  0  0  0  0  0  0  0  0  0  0  0
   11.5619  -16.1578   25.1127 O   0  0  0  0  0  0  0  0  0  0  0  0
   12.0000  -14.8354   23.3112 O   0  0  0  0  0  0  0  0  0  0  0  0
  1  2  1  0
  2 12  2  0
  3  4  2  0
  3  2  1  0
  4  5  1  0
  5  6  1  0
  5 11  2  0
  6  7  1  0
  7  9  1  0
  7  8  1  6
  9 10  2  0
  9 15  1  0
 12 11  1  0
 14 16  1  0
 14 13  1  1
 15 14  1  0
 16 17  2  0
 18 16  1  0
 18 19  1  0
 19 20  1  6
 20 21  1  0
 22 23  1  0
 22 19  1  0
 24 22  2  0
M  END
$$$$
