YAC.pdb
     RDKit          3D

 24 24  0  0  1  0  0  0  0  0999 V2000
    6.9106  -11.0604   26.5754 O   0  0  0  0  0  0  0  0  0  0  0  0
    6.9003  -12.4454   26.4247 C   0  0  0  0  0  0  0  0  0  0  0  0
    5.7326  -13.1860   26.5061 C   0  0  0  0  0  0  0  0  0  0  0  0
    5.7930  -14.5539   26.3474 C   0  0  0  0  0  0  0  0  0  0  0  0
    6.9621  -15.2375   26.1094 C   0  0  0  0  0  0  0  0  0  0  0  0
    7.0041  -16.7220   25.9402 C   0  0  0  0  0  0  0  0  0  0  0  0
    6.3803  -17.0490   24.6099 C   0  0  2  0  0  0  0  0  0  0  0  0
    5.9951  -18.4456   24.5414 N   0  0  0  0  0  0  0  0  0  0  0  0
    7.2190  -16.6954   23.4631 C   0  0  0  0  0  0  0  0  0  0  0  0
    8.1165  -17.4992   23.0704 O   0  0  0  0  0  0  0  0  0  0  0  0
    8.1196  -14.4947   26.0296 C   0  0  0  0  0  0  0  0  0  0  0  0
    8.0786  -13.1244   26.1859 C   0  0  0  0  0  0  0  0  0  0  0  0
    7.4701  -13.8623   20.9071 C   0  0  0  0  0  0  0  0  0  0  0  0
    7.7997  -15.2074   21.5099 C   0  0  2  0  0  0  0  0  0  0  0  0
    7.1005  -15.4713   22.7259 N   0  0  0  0  0  0  0  0  0  0  0  0
    9.2808  -15.3834   21.6576 C   0  0  0  0  0  0  0  0  0  0  0  0
   10.0487  -15.2413   20.6707 O   0  0  0  0  0  0  0  0  0  0  0  0
    9.8749  -15.7140   22.9021 N   0  0  0  0  0  0  0  0  0  0  0  0
   11.2888  -15.9077   23.0886 C   0  0  1  0  0  0  0  0  0  0  0  0
   11.6820  -15.9177   24.5486 C   0  0  0  0  0  0  0  0  0  0  0  0
   13.4592  -16.3308   24.6076 S   0  0  0  0  0  0  0  0  0  0  0  0
   11.7070  -17.1909   22.4745 C   0  0  0  0  0  0  0  0  0  0  0  0
   13.0115  -17.4149   22.0589 O   0  0  0  0  0  0  0  0  0  0  0  0
   10.8570  -18.1026   22.3255 O   0  0  0  0  0  0  0  0  0  0  0  0
  1  2  1  0
  2 12  2  0
  3  4  2  0
  3  2  1  0
  4  5  1  0
  5  6  1  0
  5 11  2  0
  6  7  1  0
  7  9  1  0
  7  8  1  1
  9 10  2  0
  9 15  1  0
 12 11  1  0
 14 16  1  0
 14 13  1  1
 15 14  1  0
 16 17  2  0
 18 16  1  0
 18 19  1  0
 19 20  1  1
 20 21  1  0
 22 23  1  0
 22 19  1  0
 24 22  2  0
M  END
$$$$
