YAC.pdb
     RDKit          3D

 24 24  0  0  1  0  0  0  0  0999 V2000
   16.0541  -15.1117   19.1511 O   0  0  0  0  0  0  0  0  0  0  0  0
   14.7104  -14.7604   19.2627 C   0  0  0  0  0  0  0  0  0  0  0  0
   13.8687  -15.3549   20.1882 C   0  0  0  0  0  0  0  0  0  0  0  0
   12.5492  -14.9605   20.2458 C   0  0  0  0  0  0  0  0  0  0  0  0
   12.0106  -13.9968   19.4261 C   0  0  0  0  0  0  0  0  0  0  0  0
   10.5762  -13.5844   19.5063 C   0  0  0  0  0  0  0  0  0  0  0  0
    9.7340  -14.7997   19.2238 C   0  0  2  0  0  0  0  0  0  0  0  0
    8.9037  -14.6003   18.0515 N   0  0  0  0  0  0  0  0  0  0  0  0
    8.9160  -15.2267   20.3604 C   0  0  0  0  0  0  0  0  0  0  0  0
    7.8883  -14.5579   20.6805 O   0  0  0  0  0  0  0  0  0  0  0  0
   12.8535  -13.4098   18.5080 C   0  0  0  0  0  0  0  0  0  0  0  0
   14.1773  -13.7917   18.4357 C   0  0  0  0  0  0  0  0  0  0  0  0
    8.3971  -18.2881   22.4901 C   0  0  0  0  0  0  0  0  0  0  0  0
    8.3847  -16.7946   22.2646 C   0  0  2  0  0  0  0  0  0  0  0  0
    9.1956  -16.3797   21.1657 N   0  0  0  0  0  0  0  0  0  0  0  0
    8.7179  -16.0565   23.5259 C   0  0  0  0  0  0  0  0  0  0  0  0
    9.9104  -15.7729   23.8113 O   0  0  0  0  0  0  0  0  0  0  0  0
    7.7151  -15.6499   24.4424 N   0  0  0  0  0  0  0  0  0  0  0  0
    7.9925  -15.0136   25.7032 C   0  0  1  0  0  0  0  0  0  0  0  0
    6.7713  -14.3449   26.2929 C   0  0  0  0  0  0  0  0  0  0  0  0
    6.3547  -12.9519   25.1889 S   0  0  0  0  0  0  0  0  0  0  0  0
    8.5009  -16.0146   26.6718 C   0  0  0  0  0  0  0  0  0  0  0  0
    9.0909  -15.6420   27.8709 O   0  0  0  0  0  0  0  0  0  0  0  0
    8.3954  -17.2358   26.4005 O   0  0  0  0  0  0  0  0  0  0  0  0
  1  2  1  0
  2 12  2  0
  3  4  2  0
  3  2  1  0
  4  5  1  0
  5  6  1  0
  5 11  2  0
  6  7  1  0
  7  9  1  0
  7  8  1  6
  9 10  2  0
  9 15  1  0
 12 11  1  0
 14 16  1  0
 14 13  1  1
 15 14  1  0
 16 17  2  0
 18 16  1  0
 18 19  1  0
 19 20  1  1
 20 21  1  0
 22 23  1  0
 22 19  1  0
 24 22  2  0
M  END
$$$$
