YAC.pdb
     RDKit          3D

 24 24  0  0  1  0  0  0  0  0999 V2000
   11.6568  -14.6594   28.8029 O   0  0  0  0  0  0  0  0  0  0  0  0
   10.4270  -14.8213   28.1686 C   0  0  0  0  0  0  0  0  0  0  0  0
    9.8803  -13.8376   27.3611 C   0  0  0  0  0  0  0  0  0  0  0  0
    8.6589  -14.0623   26.7631 C   0  0  0  0  0  0  0  0  0  0  0  0
    7.9398  -15.2235   26.9231 C   0  0  0  0  0  0  0  0  0  0  0  0
    6.6166  -15.4458   26.2644 C   0  0  0  0  0  0  0  0  0  0  0  0
    6.7020  -16.7329   25.4886 C   0  0  2  0  0  0  0  0  0  0  0  0
    7.4314  -17.7437   26.2299 N   0  0  0  0  0  0  0  0  0  0  0  0
    7.2693  -16.5761   24.1480 C   0  0  0  0  0  0  0  0  0  0  0  0
    7.8415  -17.5594   23.5897 O   0  0  0  0  0  0  0  0  0  0  0  0
    8.4895  -16.1975   27.7275 C   0  0  0  0  0  0  0  0  0  0  0  0
    9.7112  -15.9902   28.3345 C   0  0  0  0  0  0  0  0  0  0  0  0
    7.2627  -13.9419   21.3862 C   0  0  0  0  0  0  0  0  0  0  0  0
    7.6405  -15.2546   22.0309 C   0  0  2  0  0  0  0  0  0  0  0  0
    7.2268  -15.3579   23.3930 N   0  0  0  0  0  0  0  0  0  0  0  0
    9.1021  -15.5384   21.8589 C   0  0  0  0  0  0  0  0  0  0  0  0
    9.6392  -15.4895   20.7219 O   0  0  0  0  0  0  0  0  0  0  0  0
    9.9344  -15.8708   22.9579 N   0  0  0  0  0  0  0  0  0  0  0  0
   11.3570  -16.0641   22.8560 C   0  0  1  0  0  0  0  0  0  0  0  0
   12.1253  -15.2356   23.8608 C   0  0  0  0  0  0  0  0  0  0  0  0
   11.7284  -15.9137   25.5086 S   0  0  0  0  0  0  0  0  0  0  0  0
   11.6876  -17.4941   23.0665 C   0  0  0  0  0  0  0  0  0  0  0  0
   12.9541  -17.9999   22.8115 O   0  0  0  0  0  0  0  0  0  0  0  0
   10.7966  -18.2717   23.4878 O   0  0  0  0  0  0  0  0  0  0  0  0
  1  2  1  0
  2 12  2  0
  3  4  2  0
  3  2  1  0
  4  5  1  0
  5  6  1  0
  5 11  2  0
  6  7  1  0
  7  9  1  0
  7  8  1  1
  9 10  2  0
  9 15  1  0
 12 11  1  0
 14 16  1  0
 14 13  1  1
 15 14  1  0
 16 17  2  0
 18 16  1  0
 18 19  1  0
 19 20  1  1
 20 21  1  0
 22 23  1  0
 22 19  1  0
 24 22  2  0
M  END
$$$$
