YAC.pdb
     RDKit          3D

 24 24  0  0  1  0  0  0  0  0999 V2000
    7.2505  -11.6305   26.7917 O   0  0  0  0  0  0  0  0  0  0  0  0
    7.0650  -12.9219   26.3029 C   0  0  0  0  0  0  0  0  0  0  0  0
    6.9232  -14.0137   27.1434 C   0  0  0  0  0  0  0  0  0  0  0  0
    6.7425  -15.2648   26.5938 C   0  0  0  0  0  0  0  0  0  0  0  0
    6.6939  -15.4968   25.2393 C   0  0  0  0  0  0  0  0  0  0  0  0
    6.4967  -16.8627   24.6651 C   0  0  0  0  0  0  0  0  0  0  0  0
    7.3976  -16.9896   23.4659 C   0  0  2  0  0  0  0  0  0  0  0  0
    6.8956  -17.9836   22.5368 N   0  0  0  0  0  0  0  0  0  0  0  0
    8.7941  -17.2693   23.8052 C   0  0  0  0  0  0  0  0  0  0  0  0
    9.1013  -18.3788   24.3349 O   0  0  0  0  0  0  0  0  0  0  0  0
    6.8355  -14.4064   24.4092 C   0  0  0  0  0  0  0  0  0  0  0  0
    7.0173  -13.1464   24.9414 C   0  0  0  0  0  0  0  0  0  0  0  0
   12.2055  -16.0106   22.8784 C   0  0  0  0  0  0  0  0  0  0  0  0
   11.2444  -16.6679   23.8405 C   0  0  2  0  0  0  0  0  0  0  0  0
    9.8764  -16.3566   23.5778 N   0  0  0  0  0  0  0  0  0  0  0  0
   11.6274  -16.3858   25.2618 C   0  0  0  0  0  0  0  0  0  0  0  0
   12.7539  -16.7283   25.7063 O   0  0  0  0  0  0  0  0  0  0  0  0
   10.7470  -15.7278   26.1578 N   0  0  0  0  0  0  0  0  0  0  0  0
   11.0262  -15.5315   27.5561 C   0  0  1  0  0  0  0  0  0  0  0  0
   10.3063  -14.3296   28.1249 C   0  0  0  0  0  0  0  0  0  0  0  0
   10.0041  -13.1932   26.7285 S   0  0  0  0  0  0  0  0  0  0  0  0
   10.6238  -16.7344   28.3240 C   0  0  0  0  0  0  0  0  0  0  0  0
   10.9023  -16.8688   29.6765 O   0  0  0  0  0  0  0  0  0  0  0  0
   10.0130  -17.6594   27.7348 O   0  0  0  0  0  0  0  0  0  0  0  0
  1  2  1  0
  2 12  2  0
  3  4  2  0
  3  2  1  0
  4  5  1  0
  5  6  1  0
  5 11  2  0
  6  7  1  0
  7  9  1  0
  7  8  1  6
  9 10  2  0
  9 15  1  0
 12 11  1  0
 14 16  1  0
 14 13  1  6
 15 14  1  0
 16 17  2  0
 18 16  1  0
 18 19  1  0
 19 20  1  1
 20 21  1  0
 22 23  1  0
 22 19  1  0
 24 22  2  0
M  END
$$$$
