YAC.pdb
     RDKit          3D

 24 24  0  0  1  0  0  0  0  0999 V2000
   11.0903  -22.4566   32.4470 O   0  0  0  0  0  0  0  0  0  0  0  0
   11.1195  -22.0505   31.1145 C   0  0  0  0  0  0  0  0  0  0  0  0
   12.2752  -21.5791   30.5140 C   0  0  0  0  0  0  0  0  0  0  0  0
   12.2348  -21.1935   29.1913 C   0  0  0  0  0  0  0  0  0  0  0  0
   11.0974  -21.2499   28.4206 C   0  0  0  0  0  0  0  0  0  0  0  0
   11.0767  -20.8264   26.9873 C   0  0  0  0  0  0  0  0  0  0  0  0
   10.8973  -22.0625   26.1472 C   0  0  2  0  0  0  0  0  0  0  0  0
   11.9968  -22.9890   26.3375 N   0  0  0  0  0  0  0  0  0  0  0  0
   10.7070  -21.7840   24.7226 C   0  0  0  0  0  0  0  0  0  0  0  0
   11.6725  -21.9434   23.9174 O   0  0  0  0  0  0  0  0  0  0  0  0
    9.9517  -21.7197   29.0244 C   0  0  0  0  0  0  0  0  0  0  0  0
    9.9730  -22.1103   30.3475 C   0  0  0  0  0  0  0  0  0  0  0  0
    7.8405  -21.0242   22.3396 C   0  0  0  0  0  0  0  0  0  0  0  0
    9.2916  -21.0844   22.7544 C   0  0  2  0  0  0  0  0  0  0  0  0
    9.4738  -21.3305   24.1484 N   0  0  0  0  0  0  0  0  0  0  0  0
   10.0353  -19.8682   22.2912 C   0  0  0  0  0  0  0  0  0  0  0  0
    9.9434  -19.4705   21.1008 O   0  0  0  0  0  0  0  0  0  0  0  0
   10.8657  -19.1209   23.1647 N   0  0  0  0  0  0  0  0  0  0  0  0
   11.2344  -17.7479   22.9402 C   0  0  1  0  0  0  0  0  0  0  0  0
   10.0579  -16.8066   23.0663 C   0  0  0  0  0  0  0  0  0  0  0  0
   10.6904  -15.1306   22.7149 S   0  0  0  0  0  0  0  0  0  0  0  0
   12.2761  -17.3403   23.9135 C   0  0  0  0  0  0  0  0  0  0  0  0
   13.0964  -16.2431   23.6942 O   0  0  0  0  0  0  0  0  0  0  0  0
   12.4216  -18.0063   24.9676 O   0  0  0  0  0  0  0  0  0  0  0  0
  1  2  1  0
  2 12  2  0
  3  4  2  0
  3  2  1  0
  4  5  1  0
  5  6  1  0
  5 11  2  0
  6  7  1  0
  7  9  1  0
  7  8  1  6
  9 10  2  0
  9 15  1  0
 12 11  1  0
 14 16  1  0
 14 13  1  1
 15 14  1  0
 16 17  2  0
 18 16  1  0
 18 19  1  0
 19 20  1  1
 20 21  1  0
 22 23  1  0
 22 19  1  0
 24 22  2  0
M  END
$$$$
