YAC.pdb
     RDKit          3D

 24 24  0  0  1  0  0  0  0  0999 V2000
    8.2601  -13.7524   15.9404 O   0  0  0  0  0  0  0  0  0  0  0  0
    8.1378  -13.9179   17.3184 C   0  0  0  0  0  0  0  0  0  0  0  0
    8.9004  -14.8372   18.0198 C   0  0  0  0  0  0  0  0  0  0  0  0
    8.7295  -14.9502   19.3828 C   0  0  0  0  0  0  0  0  0  0  0  0
    7.8327  -14.1925   20.0988 C   0  0  0  0  0  0  0  0  0  0  0  0
    7.6641  -14.3318   21.5774 C   0  0  0  0  0  0  0  0  0  0  0  0
    7.3626  -15.7773   21.8696 C   0  0  2  0  0  0  0  0  0  0  0  0
    6.0640  -16.1571   21.3474 N   0  0  0  0  0  0  0  0  0  0  0  0
    7.4623  -16.1247   23.2884 C   0  0  0  0  0  0  0  0  0  0  0  0
    6.6671  -15.5960   24.1214 O   0  0  0  0  0  0  0  0  0  0  0  0
    7.0776  -13.2802   19.3948 C   0  0  0  0  0  0  0  0  0  0  0  0
    7.2350  -13.1531   18.0300 C   0  0  0  0  0  0  0  0  0  0  0  0
    9.2162  -18.5763   25.5753 C   0  0  0  0  0  0  0  0  0  0  0  0
    8.6566  -17.2182   25.2235 C   0  0  2  0  0  0  0  0  0  0  0  0
    8.4202  -17.0461   23.8264 N   0  0  0  0  0  0  0  0  0  0  0  0
    9.5041  -16.1217   25.7945 C   0  0  0  0  0  0  0  0  0  0  0  0
   10.5743  -15.7739   25.2310 O   0  0  0  0  0  0  0  0  0  0  0  0
    9.1411  -15.4361   26.9815 N   0  0  0  0  0  0  0  0  0  0  0  0
    9.9486  -14.4154   27.5961 C   0  0  1  0  0  0  0  0  0  0  0  0
    9.1561  -13.1683   27.9170 C   0  0  0  0  0  0  0  0  0  0  0  0
    8.3317  -12.6611   26.3692 S   0  0  0  0  0  0  0  0  0  0  0  0
   10.5481  -14.9337   28.8493 C   0  0  0  0  0  0  0  0  0  0  0  0
   11.4722  -14.2000   29.5790 O   0  0  0  0  0  0  0  0  0  0  0  0
   10.2108  -16.0696   29.2638 O   0  0  0  0  0  0  0  0  0  0  0  0
  1  2  1  0
  2 12  2  0
  3  4  2  0
  3  2  1  0
  4  5  1  0
  5  6  1  0
  5 11  2  0
  6  7  1  0
  7  9  1  0
  7  8  1  1
  9 10  2  0
  9 15  1  0
 12 11  1  0
 14 16  1  0
 14 13  1  6
 15 14  1  0
 16 17  2  0
 18 16  1  0
 18 19  1  0
 19 20  1  1
 20 21  1  0
 22 23  1  0
 22 19  1  0
 24 22  2  0
M  END
$$$$
