YAC.pdb
     RDKit          3D

 24 24  0  0  1  0  0  0  0  0999 V2000
    5.0423  -10.5098   27.4042 O   0  0  0  0  0  0  0  0  0  0  0  0
    5.8609  -11.4752   26.8219 C   0  0  0  0  0  0  0  0  0  0  0  0
    5.9915  -11.5980   25.4484 C   0  0  0  0  0  0  0  0  0  0  0  0
    6.8186  -12.5753   24.9378 C   0  0  0  0  0  0  0  0  0  0  0  0
    7.5328  -13.4491   25.7234 C   0  0  0  0  0  0  0  0  0  0  0  0
    8.4244  -14.5017   25.1477 C   0  0  0  0  0  0  0  0  0  0  0  0
    7.5465  -15.5740   24.5600 C   0  0  2  0  0  0  0  0  0  0  0  0
    6.8947  -16.3456   25.6007 N   0  0  0  0  0  0  0  0  0  0  0  0
    8.2448  -16.4624   23.6291 C   0  0  0  0  0  0  0  0  0  0  0  0
    8.8044  -17.5129   24.0642 O   0  0  0  0  0  0  0  0  0  0  0  0
    7.3981  -13.3212   27.0885 C   0  0  0  0  0  0  0  0  0  0  0  0
    6.5747  -12.3488   27.6178 C   0  0  0  0  0  0  0  0  0  0  0  0
    9.0835  -16.5751   19.8999 C   0  0  0  0  0  0  0  0  0  0  0  0
    9.1866  -16.9902   21.3485 C   0  0  2  0  0  0  0  0  0  0  0  0
    8.3484  -16.2295   22.2181 N   0  0  0  0  0  0  0  0  0  0  0  0
   10.6142  -17.0031   21.8050 C   0  0  0  0  0  0  0  0  0  0  0  0
   11.2392  -15.9281   21.9984 O   0  0  0  0  0  0  0  0  0  0  0  0
   11.3151  -18.2140   22.0363 N   0  0  0  0  0  0  0  0  0  0  0  0
   12.6535  -18.2771   22.5618 C   0  0  1  0  0  0  0  0  0  0  0  0
   12.7460  -19.1355   23.8032 C   0  0  0  0  0  0  0  0  0  0  0  0
   11.6869  -18.3464   25.0634 S   0  0  0  0  0  0  0  0  0  0  0  0
   13.5726  -18.8248   21.5352 C   0  0  0  0  0  0  0  0  0  0  0  0
   14.9386  -18.9298   21.7541 O   0  0  0  0  0  0  0  0  0  0  0  0
   13.1028  -19.2053   20.4350 O   0  0  0  0  0  0  0  0  0  0  0  0
  1  2  1  0
  2 12  2  0
  3  4  2  0
  3  2  1  0
  4  5  1  0
  5  6  1  0
  5 11  2  0
  6  7  1  0
  7  9  1  0
  7  8  1  1
  9 10  2  0
  9 15  1  0
 12 11  1  0
 14 16  1  0
 14 13  1  6
 15 14  1  0
 16 17  2  0
 18 16  1  0
 18 19  1  0
 19 20  1  1
 20 21  1  0
 22 23  1  0
 22 19  1  0
 24 22  2  0
M  END
$$$$
