YAC.pdb
     RDKit          3D

 24 24  0  0  1  0  0  0  0  0999 V2000
    7.8820  -22.2831   29.4523 O   0  0  0  0  0  0  0  0  0  0  0  0
    7.9733  -21.1312   28.6738 C   0  0  0  0  0  0  0  0  0  0  0  0
    9.0284  -20.2422   28.7959 C   0  0  0  0  0  0  0  0  0  0  0  0
    9.0576  -19.1212   27.9944 C   0  0  0  0  0  0  0  0  0  0  0  0
    8.0860  -18.8286   27.0663 C   0  0  0  0  0  0  0  0  0  0  0  0
    8.1381  -17.6066   26.2072 C   0  0  0  0  0  0  0  0  0  0  0  0
    8.1814  -18.0576   24.7718 C   0  0  2  0  0  0  0  0  0  0  0  0
    9.1947  -19.0760   24.5733 N   0  0  0  0  0  0  0  0  0  0  0  0
    8.3648  -16.9639   23.8159 C   0  0  0  0  0  0  0  0  0  0  0  0
    9.5350  -16.5755   23.5234 O   0  0  0  0  0  0  0  0  0  0  0  0
    7.0396  -19.7172   26.9502 C   0  0  0  0  0  0  0  0  0  0  0  0
    6.9936  -20.8447   27.7441 C   0  0  0  0  0  0  0  0  0  0  0  0
    6.2570  -14.6034   21.6900 C   0  0  0  0  0  0  0  0  0  0  0  0
    7.4140  -14.9761   22.5865 C   0  0  2  0  0  0  0  0  0  0  0  0
    7.2892  -16.2755   23.1638 N   0  0  0  0  0  0  0  0  0  0  0  0
    7.6583  -13.9177   23.6192 C   0  0  0  0  0  0  0  0  0  0  0  0
    7.9230  -12.7350   23.2804 O   0  0  0  0  0  0  0  0  0  0  0  0
    7.6023  -14.1998   25.0078 N   0  0  0  0  0  0  0  0  0  0  0  0
    7.9180  -13.2407   26.0335 C   0  0  1  0  0  0  0  0  0  0  0  0
    6.7431  -12.9614   26.9434 C   0  0  0  0  0  0  0  0  0  0  0  0
    5.4681  -12.1536   25.9165 S   0  0  0  0  0  0  0  0  0  0  0  0
    9.0488  -13.7354   26.8552 C   0  0  0  0  0  0  0  0  0  0  0  0
    9.5865  -12.9855   27.8911 O   0  0  0  0  0  0  0  0  0  0  0  0
    9.5354  -14.8658   26.6076 O   0  0  0  0  0  0  0  0  0  0  0  0
  1  2  1  0
  2 12  2  0
  3  4  2  0
  3  2  1  0
  4  5  1  0
  5  6  1  0
  5 11  2  0
  6  7  1  0
  7  9  1  0
  7  8  1  1
  9 10  2  0
  9 15  1  0
 12 11  1  0
 14 16  1  0
 14 13  1  1
 15 14  1  0
 16 17  2  0
 18 16  1  0
 18 19  1  0
 19 20  1  1
 20 21  1  0
 22 23  1  0
 22 19  1  0
 24 22  2  0
M  END
$$$$
