YAC.pdb
     RDKit          3D

 24 24  0  0  1  0  0  0  0  0999 V2000
    5.8797  -11.0088   26.6687 O   0  0  0  0  0  0  0  0  0  0  0  0
    6.5090  -12.1767   26.2429 C   0  0  0  0  0  0  0  0  0  0  0  0
    6.5302  -13.3253   27.0167 C   0  0  0  0  0  0  0  0  0  0  0  0
    7.1708  -14.4469   26.5354 C   0  0  0  0  0  0  0  0  0  0  0  0
    7.7997  -14.4937   25.3135 C   0  0  0  0  0  0  0  0  0  0  0  0
    8.4883  -15.7217   24.8114 C   0  0  0  0  0  0  0  0  0  0  0  0
    7.5013  -16.4899   23.9738 C   0  0  2  0  0  0  0  0  0  0  0  0
    6.5172  -17.1570   24.8044 N   0  0  0  0  0  0  0  0  0  0  0  0
    8.1251  -17.4454   23.0565 C   0  0  0  0  0  0  0  0  0  0  0  0
    8.3184  -18.6405   23.4310 O   0  0  0  0  0  0  0  0  0  0  0  0
    7.7746  -13.3478   24.5492 C   0  0  0  0  0  0  0  0  0  0  0  0
    7.1383  -12.2155   25.0146 C   0  0  0  0  0  0  0  0  0  0  0  0
    9.1189  -17.6907   19.4035 C   0  0  0  0  0  0  0  0  0  0  0  0
    9.2344  -18.0378   20.8690 C   0  0  2  0  0  0  0  0  0  0  0  0
    8.5480  -17.1245   21.7245 N   0  0  0  0  0  0  0  0  0  0  0  0
   10.6674  -18.2211   21.2681 C   0  0  0  0  0  0  0  0  0  0  0  0
   11.3921  -19.0757   20.6954 O   0  0  0  0  0  0  0  0  0  0  0  0
   11.2625  -17.4479   22.2972 N   0  0  0  0  0  0  0  0  0  0  0  0
   12.6173  -17.6240   22.7501 C   0  0  1  0  0  0  0  0  0  0  0  0
   13.3210  -16.3074   22.9905 C   0  0  0  0  0  0  0  0  0  0  0  0
   13.4739  -15.4927   21.3640 S   0  0  0  0  0  0  0  0  0  0  0  0
   12.6299  -18.4069   24.0092 C   0  0  0  0  0  0  0  0  0  0  0  0
   11.4592  -18.7809   24.6527 O   0  0  0  0  0  0  0  0  0  0  0  0
   13.7315  -18.7422   24.5091 O   0  0  0  0  0  0  0  0  0  0  0  0
  1  2  1  0
  2 12  2  0
  3  4  2  0
  3  2  1  0
  4  5  1  0
  5  6  1  0
  5 11  2  0
  6  7  1  0
  7  9  1  0
  7  8  1  1
  9 10  2  0
  9 15  1  0
 12 11  1  0
 14 16  1  0
 14 13  1  6
 15 14  1  0
 16 17  2  0
 18 16  1  0
 18 19  1  0
 19 20  1  1
 20 21  1  0
 22 23  1  0
 22 19  1  0
 24 22  2  0
M  END
$$$$
