YAC.pdb
     RDKit          3D

 24 24  0  0  1  0  0  0  0  0999 V2000
    9.9225  -14.5442   30.3684 O   0  0  0  0  0  0  0  0  0  0  0  0
   10.0886  -14.7788   29.0052 C   0  0  0  0  0  0  0  0  0  0  0  0
   11.2827  -14.5178   28.3536 C   0  0  0  0  0  0  0  0  0  0  0  0
   11.3797  -14.7730   27.0025 C   0  0  0  0  0  0  0  0  0  0  0  0
   10.3450  -15.2793   26.2515 C   0  0  0  0  0  0  0  0  0  0  0  0
   10.4727  -15.5486   24.7869 C   0  0  0  0  0  0  0  0  0  0  0  0
   10.2940  -17.0283   24.5762 C   0  0  2  0  0  0  0  0  0  0  0  0
   11.2517  -17.7878   25.3568 N   0  0  0  0  0  0  0  0  0  0  0  0
   10.3472  -17.4339   23.1704 C   0  0  0  0  0  0  0  0  0  0  0  0
   11.4169  -17.9222   22.6981 O   0  0  0  0  0  0  0  0  0  0  0  0
    9.1604  -15.5365   26.9060 C   0  0  0  0  0  0  0  0  0  0  0  0
    9.0447  -15.2873   28.2582 C   0  0  0  0  0  0  0  0  0  0  0  0
    7.8829  -18.1364   20.3860 C   0  0  0  0  0  0  0  0  0  0  0  0
    9.2613  -17.8445   20.9301 C   0  0  2  0  0  0  0  0  0  0  0  0
    9.2482  -17.3180   22.2567 N   0  0  0  0  0  0  0  0  0  0  0  0
   10.0421  -16.9819   19.9852 C   0  0  0  0  0  0  0  0  0  0  0  0
   11.2291  -17.2690   19.6810 O   0  0  0  0  0  0  0  0  0  0  0  0
    9.4836  -15.8176   19.3994 N   0  0  0  0  0  0  0  0  0  0  0  0
   10.2618  -14.6886   18.9620 C   0  0  1  0  0  0  0  0  0  0  0  0
    9.7195  -13.3772   19.4840 C   0  0  0  0  0  0  0  0  0  0  0  0
    7.9448  -13.3397   19.0579 S   0  0  0  0  0  0  0  0  0  0  0  0
   11.6653  -14.8375   19.4165 C   0  0  0  0  0  0  0  0  0  0  0  0
   12.7287  -14.3060   18.7014 O   0  0  0  0  0  0  0  0  0  0  0  0
   11.9003  -15.4626   20.4795 O   0  0  0  0  0  0  0  0  0  0  0  0
  1  2  1  0
  2 12  2  0
  3  4  2  0
  3  2  1  0
  4  5  1  0
  5  6  1  0
  5 11  2  0
  6  7  1  0
  7  9  1  0
  7  8  1  1
  9 10  2  0
  9 15  1  0
 12 11  1  0
 14 16  1  0
 14 13  1  6
 15 14  1  0
 16 17  2  0
 18 16  1  0
 18 19  1  0
 19 20  1  1
 20 21  1  0
 22 23  1  0
 22 19  1  0
 24 22  2  0
M  END
$$$$
