YAC.pdb
     RDKit          3D

 24 24  0  0  1  0  0  0  0  0999 V2000
   10.6751  -14.2972   30.5854 O   0  0  0  0  0  0  0  0  0  0  0  0
   10.2692  -14.5911   29.2854 C   0  0  0  0  0  0  0  0  0  0  0  0
    9.1397  -14.0221   28.7206 C   0  0  0  0  0  0  0  0  0  0  0  0
    8.7942  -14.3564   27.4288 C   0  0  0  0  0  0  0  0  0  0  0  0
    9.5157  -15.2351   26.6555 C   0  0  0  0  0  0  0  0  0  0  0  0
    9.1224  -15.5830   25.2560 C   0  0  0  0  0  0  0  0  0  0  0  0
    8.6588  -17.0151   25.2534 C   0  0  2  0  0  0  0  0  0  0  0  0
    9.7138  -17.9077   25.6937 N   0  0  0  0  0  0  0  0  0  0  0  0
    8.1216  -17.4581   23.9655 C   0  0  0  0  0  0  0  0  0  0  0  0
    8.9143  -17.7318   23.0155 O   0  0  0  0  0  0  0  0  0  0  0  0
   10.6379  -15.7973   27.2234 C   0  0  0  0  0  0  0  0  0  0  0  0
   10.9993  -15.4745   28.5154 C   0  0  0  0  0  0  0  0  0  0  0  0
    4.8410  -18.3992   22.3190 C   0  0  0  0  0  0  0  0  0  0  0  0
    6.1850  -17.7118   22.3680 C   0  0  2  0  0  0  0  0  0  0  0  0
    6.7236  -17.6114   23.6860 N   0  0  0  0  0  0  0  0  0  0  0  0
    6.1375  -16.3852   21.6721 C   0  0  0  0  0  0  0  0  0  0  0  0
    5.0557  -15.7512   21.5657 O   0  0  0  0  0  0  0  0  0  0  0  0
    7.2968  -15.7931   21.1096 N   0  0  0  0  0  0  0  0  0  0  0  0
    7.2864  -14.5618   20.3645 C   0  0  1  0  0  0  0  0  0  0  0  0
    7.7051  -13.3759   21.2040 C   0  0  0  0  0  0  0  0  0  0  0  0
    6.7081  -13.4401   22.7319 S   0  0  0  0  0  0  0  0  0  0  0  0
    8.2009  -14.6683   19.2022 C   0  0  0  0  0  0  0  0  0  0  0  0
    9.0337  -15.7631   19.0215 O   0  0  0  0  0  0  0  0  0  0  0  0
    8.2237  -13.7417   18.3556 O   0  0  0  0  0  0  0  0  0  0  0  0
  1  2  1  0
  2 12  2  0
  3  4  2  0
  3  2  1  0
  4  5  1  0
  5  6  1  0
  5 11  2  0
  6  7  1  0
  7  9  1  0
  7  8  1  6
  9 10  2  0
  9 15  1  0
 12 11  1  0
 14 16  1  0
 14 13  1  1
 15 14  1  0
 16 17  2  0
 18 16  1  0
 18 19  1  0
 19 20  1  1
 20 21  1  0
 22 23  1  0
 22 19  1  0
 24 22  2  0
M  END
$$$$
