RER.pdb
     RDKit          3D

 32 31  0  0  1  0  0  0  0  0999 V2000
    7.7614  -23.3799   16.8944 N   0  0  0  0  0  0  0  0  0  0  0  0
    8.1736  -22.0570   16.5374 C   0  0  0  0  0  0  0  0  0  0  0  0
    7.3237  -21.1321   16.3089 N   0  0  0  0  0  0  0  0  0  0  0  0
    9.5459  -21.7696   16.4461 N   0  0  0  0  0  0  0  0  0  0  0  0
   10.4903  -22.0711   17.4774 C   0  0  0  0  0  0  0  0  0  0  0  0
   10.8173  -23.5218   17.5093 C   0  0  0  0  0  0  0  0  0  0  0  0
   11.7209  -23.9899   18.5941 C   0  0  0  0  0  0  0  0  0  0  0  0
   13.0907  -23.3261   18.3718 C   0  0  2  0  0  0  0  0  0  0  0  0
   13.8528  -23.9892   17.3417 N   0  0  0  0  0  0  0  0  0  0  0  0
   13.8369  -23.1568   19.6407 C   0  0  0  0  0  0  0  0  0  0  0  0
   14.0365  -24.1805   20.3447 O   0  0  0  0  0  0  0  0  0  0  0  0
    7.6139  -20.1965   16.0169 N   0  0  0  0  0  0  0  0  0  0  0  0
   14.3235  -21.8965   20.0785 C   0  0  2  0  0  0  0  0  0  0  0  0
   15.0248  -21.7174   21.3105 C   0  0  0  0  0  0  0  0  0  0  0  0
   15.9637  -20.5686   21.3814 C   0  0  0  0  0  0  0  0  0  0  0  0
   16.7958  -20.5276   22.6355 C   0  0  0  0  0  0  0  0  0  0  0  0
   17.7036  -19.3591   22.5644 O   0  0  0  0  0  0  0  0  0  0  0  0
   17.4988  -18.4992   21.6732 C   0  0  0  0  0  0  0  0  0  0  0  0
   13.9847  -21.4711   22.3795 O   0  0  0  0  0  0  0  0  0  0  0  0
   13.1749  -20.5144   22.3010 O   0  0  0  0  0  0  0  0  0  0  0  0
   18.7459  -19.2133   23.4437 N   0  0  0  0  0  0  0  0  0  0  0  0
   10.2234  -27.0738   21.2431 C   0  0  0  0  0  0  0  0  0  0  0  0
   10.1789  -27.0162   22.6765 N   0  0  0  0  0  0  0  0  0  0  0  0
   10.3003  -28.0612   23.4039 N   0  0  0  0  0  0  0  0  0  0  0  0
    9.9979  -25.7640   23.3100 C   0  0  0  0  0  0  0  0  0  0  0  0
   10.8838  -25.3140   24.3714 C   0  0  0  0  0  0  0  0  0  0  0  0
   11.3045  -23.9059   23.9874 C   0  0  0  0  0  0  0  0  0  0  0  0
   12.2874  -23.3592   24.9732 C   0  0  2  0  0  0  0  0  0  0  0  0
   12.8935  -22.0356   24.5922 N   0  0  0  0  0  0  0  0  0  0  0  0
   13.8704  -22.2986   23.5180 C   0  0  0  0  0  0  0  0  0  0  0  0
   13.5674  -21.4218   25.7567 O   0  0  0  0  0  0  0  0  0  0  0  0
   14.9052  -21.0709   25.7311 O   0  0  0  0  0  0  0  0  0  0  0  0
  1  2  1  0
  2  3  2  0
  4  2  1  0
  4  5  1  0
  6  5  1  0
  7  8  1  0
  7  6  1  0
  8  9  1  6
 10  8  1  0
 11 10  2  0
 12 10  1  0
 13 18  1  0
 13 12  1  0
 13 14  1  6
 15 16  1  0
 15 14  1  0
 16 20  1  0
 17 16  2  0
 18 19  2  0
 21 22  1  0
 22 24  1  0
 22 23  2  0
 24 25  1  0
 26 25  1  0
 27 26  1  0
 28 27  1  6
 29 18  1  0
 29 28  1  0
 30 28  1  0
 30 31  1  0
 32 30  2  0
M  END
$$$$
