RER.pdb
     RDKit          3D

 32 31  0  0  1  0  0  0  0  0999 V2000
    8.4315  -12.4221   17.6725 N   0  0  0  0  0  0  0  0  0  0  0  0
    8.0236  -13.2496   18.7662 C   0  0  0  0  0  0  0  0  0  0  0  0
    7.4626  -12.7577   19.8021 N   0  0  0  0  0  0  0  0  0  0  0  0
    8.2381  -14.6363   18.6918 N   0  0  0  0  0  0  0  0  0  0  0  0
    7.1873  -15.5948   18.5392 C   0  0  0  0  0  0  0  0  0  0  0  0
    7.7175  -16.9843   18.5101 C   0  0  0  0  0  0  0  0  0  0  0  0
    8.3197  -17.5071   19.7657 C   0  0  0  0  0  0  0  0  0  0  0  0
    9.6737  -16.8023   19.9562 C   0  0  2  0  0  0  0  0  0  0  0  0
   10.5276  -16.9494   18.8025 N   0  0  0  0  0  0  0  0  0  0  0  0
   10.3276  -17.1925   21.2272 C   0  0  0  0  0  0  0  0  0  0  0  0
    9.6765  -17.9179   22.0231 O   0  0  0  0  0  0  0  0  0  0  0  0
    7.2396  -13.3337   20.6166 N   0  0  0  0  0  0  0  0  0  0  0  0
   11.6426  -16.7789   21.5684 C   0  0  2  0  0  0  0  0  0  0  0  0
   12.2775  -17.1361   22.7974 C   0  0  0  0  0  0  0  0  0  0  0  0
   13.4831  -16.3552   23.1759 C   0  0  0  0  0  0  0  0  0  0  0  0
   14.6374  -16.4994   22.2200 C   0  0  0  0  0  0  0  0  0  0  0  0
   15.3983  -15.2284   22.2001 O   0  0  0  0  0  0  0  0  0  0  0  0
   15.7682  -14.7386   23.2950 C   0  0  0  0  0  0  0  0  0  0  0  0
   11.2691  -16.9048   23.8996 O   0  0  0  0  0  0  0  0  0  0  0  0
   10.6172  -15.8344   23.9803 O   0  0  0  0  0  0  0  0  0  0  0  0
   15.6932  -14.5941   21.0205 N   0  0  0  0  0  0  0  0  0  0  0  0
    5.2845  -22.3992   26.4037 C   0  0  0  0  0  0  0  0  0  0  0  0
    5.9455  -21.9560   27.5981 N   0  0  0  0  0  0  0  0  0  0  0  0
    5.7967  -22.5522   28.7197 N   0  0  0  0  0  0  0  0  0  0  0  0
    6.7931  -20.8246   27.5365 C   0  0  0  0  0  0  0  0  0  0  0  0
    6.8847  -20.0080   26.3371 C   0  0  0  0  0  0  0  0  0  0  0  0
    7.8483  -18.8840   26.6768 C   0  0  0  0  0  0  0  0  0  0  0  0
    8.9015  -18.7524   25.6232 C   0  0  1  0  0  0  0  0  0  0  0  0
    9.9471  -17.7071   25.9031 N   0  0  0  0  0  0  0  0  0  0  0  0
   11.0095  -17.8744   24.8929 C   0  0  0  0  0  0  0  0  0  0  0  0
   10.5023  -17.8828   27.2625 O   0  0  0  0  0  0  0  0  0  0  0  0
    9.8493  -17.4167   28.3893 O   0  0  0  0  0  0  0  0  0  0  0  0
  1  2  1  0
  2  3  2  0
  4  2  1  0
  4  5  1  0
  6  5  1  0
  7  8  1  0
  7  6  1  0
  8  9  1  6
 10  8  1  0
 11 10  2  0
 12 10  1  0
 13 18  1  0
 13 12  1  0
 13 14  1  6
 15 16  1  0
 15 14  1  0
 16 20  1  0
 17 16  2  0
 18 19  2  0
 21 22  1  0
 22 24  1  0
 22 23  2  0
 24 25  1  0
 26 25  1  0
 27 26  1  0
 28 27  1  6
 29 18  1  0
 29 28  1  0
 30 28  1  0
 30 31  1  0
 32 30  2  0
M  END
$$$$
