RER.pdb
     RDKit          3D

 32 31  0  0  1  0  0  0  0  0999 V2000
    7.5962  -12.6308   18.8383 N   0  0  0  0  0  0  0  0  0  0  0  0
    8.0865  -12.5032   20.1764 C   0  0  0  0  0  0  0  0  0  0  0  0
    7.6039  -11.6407   20.9845 N   0  0  0  0  0  0  0  0  0  0  0  0
    9.1164  -13.3543   20.6115 N   0  0  0  0  0  0  0  0  0  0  0  0
    9.8589  -14.2117   19.7398 C   0  0  0  0  0  0  0  0  0  0  0  0
    9.4114  -15.6255   19.8553 C   0  0  0  0  0  0  0  0  0  0  0  0
   10.1117  -16.4795   20.8516 C   0  0  0  0  0  0  0  0  0  0  0  0
    9.6175  -17.9224   20.6508 C   0  0  2  0  0  0  0  0  0  0  0  0
    8.2031  -18.0505   20.9053 N   0  0  0  0  0  0  0  0  0  0  0  0
   10.4421  -18.8998   21.3991 C   0  0  0  0  0  0  0  0  0  0  0  0
    9.8471  -19.7171   22.1486 O   0  0  0  0  0  0  0  0  0  0  0  0
    7.9346  -11.5643   21.9487 N   0  0  0  0  0  0  0  0  0  0  0  0
   11.8581  -18.9402   21.2987 C   0  0  2  0  0  0  0  0  0  0  0  0
   12.6630  -19.8835   22.0086 C   0  0  0  0  0  0  0  0  0  0  0  0
   13.9894  -20.2027   21.4211 C   0  0  0  0  0  0  0  0  0  0  0  0
   14.8167  -21.1537   22.2445 C   0  0  0  0  0  0  0  0  0  0  0  0
   16.0977  -21.3985   21.5418 O   0  0  0  0  0  0  0  0  0  0  0  0
   17.0536  -20.6134   21.7554 C   0  0  0  0  0  0  0  0  0  0  0  0
   12.9431  -19.2895   23.3702 O   0  0  0  0  0  0  0  0  0  0  0  0
   13.6802  -18.2822   23.5091 O   0  0  0  0  0  0  0  0  0  0  0  0
   16.2442  -22.4517   20.6757 N   0  0  0  0  0  0  0  0  0  0  0  0
   11.8569  -23.3041   31.3289 C   0  0  0  0  0  0  0  0  0  0  0  0
   12.7565  -22.1985   31.4976 N   0  0  0  0  0  0  0  0  0  0  0  0
   13.2542  -21.8933   32.6356 N   0  0  0  0  0  0  0  0  0  0  0  0
   13.1094  -21.4199   30.3701 C   0  0  0  0  0  0  0  0  0  0  0  0
   12.3257  -21.4561   29.1460 C   0  0  0  0  0  0  0  0  0  0  0  0
   12.9106  -20.3774   28.2506 C   0  0  0  0  0  0  0  0  0  0  0  0
   12.4353  -20.5426   26.8422 C   0  0  1  0  0  0  0  0  0  0  0  0
   12.8826  -19.4629   25.8944 N   0  0  0  0  0  0  0  0  0  0  0  0
   12.3950  -19.8342   24.5521 C   0  0  0  0  0  0  0  0  0  0  0  0
   14.3576  -19.3570   25.8910 O   0  0  0  0  0  0  0  0  0  0  0  0
   15.0119  -18.1916   26.2478 O   0  0  0  0  0  0  0  0  0  0  0  0
  1  2  1  0
  2  3  2  0
  4  2  1  0
  4  5  1  0
  6  5  1  0
  7  8  1  0
  7  6  1  0
  8  9  1  1
 10  8  1  0
 11 10  2  0
 12 10  1  0
 13 18  1  0
 13 12  1  0
 13 14  1  6
 15 16  1  0
 15 14  1  0
 16 20  1  0
 17 16  2  0
 18 19  2  0
 21 22  1  0
 22 24  1  0
 22 23  2  0
 24 25  1  0
 26 25  1  0
 27 26  1  0
 28 27  1  1
 29 18  1  0
 29 28  1  0
 30 28  1  0
 30 31  1  0
 32 30  2  0
M  END
$$$$
