RER.pdb
     RDKit          3D

 32 31  0  0  1  0  0  0  0  0999 V2000
    8.9150  -19.0065   17.9278 N   0  0  0  0  0  0  0  0  0  0  0  0
    7.8097  -18.6530   17.0907 C   0  0  0  0  0  0  0  0  0  0  0  0
    6.6081  -18.9340   17.4180 N   0  0  0  0  0  0  0  0  0  0  0  0
    8.0544  -17.9727   15.8859 N   0  0  0  0  0  0  0  0  0  0  0  0
    8.6617  -16.6795   15.8139 C   0  0  0  0  0  0  0  0  0  0  0  0
    7.9646  -15.7007   16.6907 C   0  0  0  0  0  0  0  0  0  0  0  0
    8.7709  -15.0531   17.7597 C   0  0  0  0  0  0  0  0  0  0  0  0
    7.8364  -14.1071   18.5332 C   0  0  2  0  0  0  0  0  0  0  0  0
    7.6445  -12.8537   17.8449 N   0  0  0  0  0  0  0  0  0  0  0  0
    8.2557  -13.9463   19.9452 C   0  0  0  0  0  0  0  0  0  0  0  0
    9.4555  -13.6402   20.1694 O   0  0  0  0  0  0  0  0  0  0  0  0
    5.8207  -18.7258   16.8003 N   0  0  0  0  0  0  0  0  0  0  0  0
    7.3605  -14.1252   21.0331 C   0  0  2  0  0  0  0  0  0  0  0  0
    7.7548  -13.9790   22.3986 C   0  0  0  0  0  0  0  0  0  0  0  0
    6.6838  -13.6315   23.3675 C   0  0  0  0  0  0  0  0  0  0  0  0
    7.1654  -13.4538   24.7828 C   0  0  0  0  0  0  0  0  0  0  0  0
    6.0357  -12.9719   25.6112 O   0  0  0  0  0  0  0  0  0  0  0  0
    5.3961  -13.8106   26.2918 C   0  0  0  0  0  0  0  0  0  0  0  0
    8.3032  -15.3148   22.8460 O   0  0  0  0  0  0  0  0  0  0  0  0
    7.8210  -16.3966   22.4285 O   0  0  0  0  0  0  0  0  0  0  0  0
    5.6881  -11.6456   25.6380 N   0  0  0  0  0  0  0  0  0  0  0  0
   11.6834  -16.1447   30.9841 C   0  0  0  0  0  0  0  0  0  0  0  0
   10.9422  -15.1949   30.2041 N   0  0  0  0  0  0  0  0  0  0  0  0
   10.8162  -13.9727   30.5594 N   0  0  0  0  0  0  0  0  0  0  0  0
   10.3317  -15.6195   29.0003 C   0  0  0  0  0  0  0  0  0  0  0  0
   11.1149  -15.8940   27.8065 C   0  0  0  0  0  0  0  0  0  0  0  0
   10.1049  -16.1557   26.7025 C   0  0  0  0  0  0  0  0  0  0  0  0
   10.7969  -16.4246   25.4042 C   0  0  1  0  0  0  0  0  0  0  0  0
    9.8786  -16.7142   24.2478 N   0  0  0  0  0  0  0  0  0  0  0  0
    9.3801  -15.4162   23.7538 C   0  0  0  0  0  0  0  0  0  0  0  0
    8.7490  -17.5625   24.6851 O   0  0  0  0  0  0  0  0  0  0  0  0
    8.8584  -18.9378   24.7859 O   0  0  0  0  0  0  0  0  0  0  0  0
  1  2  1  0
  2  3  2  0
  4  2  1  0
  4  5  1  0
  6  5  1  0
  7  8  1  0
  7  6  1  0
  8  9  1  6
 10  8  1  0
 11 10  2  0
 12 10  1  0
 13 18  1  0
 13 12  1  0
 13 14  1  6
 15 16  1  0
 15 14  1  0
 16 20  1  0
 17 16  2  0
 18 19  2  0
 21 22  1  0
 22 24  1  0
 22 23  2  0
 24 25  1  0
 26 25  1  0
 27 26  1  0
 28 27  1  6
 29 18  1  0
 29 28  1  0
 30 28  1  0
 30 31  1  0
 32 30  2  0
M  END
$$$$
