RER.pdb
     RDKit          3D

 32 31  0  0  1  0  0  0  0  0999 V2000
    7.2554  -11.5371   19.0962 N   0  0  0  0  0  0  0  0  0  0  0  0
    6.9408  -12.4975   18.0833 C   0  0  0  0  0  0  0  0  0  0  0  0
    6.8596  -12.1673   16.8528 N   0  0  0  0  0  0  0  0  0  0  0  0
    6.7260  -13.8360   18.4530 N   0  0  0  0  0  0  0  0  0  0  0  0
    7.7705  -14.8078   18.5576 C   0  0  0  0  0  0  0  0  0  0  0  0
    8.4249  -14.7626   19.8926 C   0  0  0  0  0  0  0  0  0  0  0  0
    9.5577  -15.6982   20.1248 C   0  0  0  0  0  0  0  0  0  0  0  0
   10.1946  -15.9997   18.7574 C   0  0  2  0  0  0  0  0  0  0  0  0
    9.5202  -17.0750   18.0714 N   0  0  0  0  0  0  0  0  0  0  0  0
   11.6602  -16.1927   18.8592 C   0  0  0  0  0  0  0  0  0  0  0  0
   12.0799  -17.3310   19.1935 O   0  0  0  0  0  0  0  0  0  0  0  0
    6.7114  -12.8631   16.1187 N   0  0  0  0  0  0  0  0  0  0  0  0
   12.5881  -15.1503   18.5967 C   0  0  1  0  0  0  0  0  0  0  0  0
   13.9994  -15.3047   18.7574 C   0  0  0  0  0  0  0  0  0  0  0  0
   14.8523  -14.1983   18.2525 C   0  0  0  0  0  0  0  0  0  0  0  0
   16.3233  -14.3837   18.5143 C   0  0  0  0  0  0  0  0  0  0  0  0
   17.0665  -13.2968   17.8353 O   0  0  0  0  0  0  0  0  0  0  0  0
   16.4130  -12.4421   17.1888 C   0  0  0  0  0  0  0  0  0  0  0  0
   14.2683  -15.3929   20.2424 O   0  0  0  0  0  0  0  0  0  0  0  0
   13.5407  -14.8024   21.0786 O   0  0  0  0  0  0  0  0  0  0  0  0
   18.4341  -13.2199   17.9031 N   0  0  0  0  0  0  0  0  0  0  0  0
   12.6770  -22.3635   23.5968 C   0  0  0  0  0  0  0  0  0  0  0  0
   13.8966  -22.0379   24.2798 N   0  0  0  0  0  0  0  0  0  0  0  0
   14.4949  -22.8740   25.0405 N   0  0  0  0  0  0  0  0  0  0  0  0
   14.4607  -20.7519   24.1063 C   0  0  0  0  0  0  0  0  0  0  0  0
   13.6449  -19.6085   23.7310 C   0  0  0  0  0  0  0  0  0  0  0  0
   14.5967  -18.4263   23.6687 C   0  0  0  0  0  0  0  0  0  0  0  0
   14.5513  -17.7799   22.3208 C   0  0  1  0  0  0  0  0  0  0  0  0
   15.4109  -16.5530   22.1800 N   0  0  0  0  0  0  0  0  0  0  0  0
   15.3475  -16.1386   20.7652 C   0  0  0  0  0  0  0  0  0  0  0  0
   16.8075  -16.8540   22.5621 O   0  0  0  0  0  0  0  0  0  0  0  0
   17.8248  -16.9318   21.6280 O   0  0  0  0  0  0  0  0  0  0  0  0
  1  2  1  0
  2  3  2  0
  4  2  1  0
  4  5  1  0
  6  5  1  0
  7  8  1  0
  7  6  1  0
  8  9  1  1
 10  8  1  0
 11 10  2  0
 12 10  1  0
 13 18  1  0
 13 12  1  0
 13 14  1  6
 15 16  1  0
 15 14  1  0
 16 20  1  0
 17 16  2  0
 18 19  2  0
 21 22  1  0
 22 24  1  0
 22 23  2  0
 24 25  1  0
 26 25  1  0
 27 26  1  0
 28 27  1  1
 29 18  1  0
 29 28  1  0
 30 28  1  0
 30 31  1  0
 32 30  2  0
M  END
$$$$
