RER.pdb
     RDKit          3D

 32 31  0  0  1  0  0  0  0  0999 V2000
   19.7179  -21.8635   15.5973 N   0  0  0  0  0  0  0  0  0  0  0  0
   19.0704  -20.7641   16.2449 C   0  0  0  0  0  0  0  0  0  0  0  0
   19.7346  -19.8820   16.8856 N   0  0  0  0  0  0  0  0  0  0  0  0
   17.6723  -20.6500   16.1643 N   0  0  0  0  0  0  0  0  0  0  0  0
   16.8159  -21.6980   15.7013 C   0  0  0  0  0  0  0  0  0  0  0  0
   15.3856  -21.2917   15.7444 C   0  0  0  0  0  0  0  0  0  0  0  0
   14.3812  -22.2973   15.3059 C   0  0  0  0  0  0  0  0  0  0  0  0
   13.0200  -21.5851   15.2261 C   0  0  2  0  0  0  0  0  0  0  0  0
   12.9092  -20.7598   14.0478 N   0  0  0  0  0  0  0  0  0  0  0  0
   12.6955  -20.8676   16.4812 C   0  0  0  0  0  0  0  0  0  0  0  0
   13.0781  -19.6737   16.5899 O   0  0  0  0  0  0  0  0  0  0  0  0
   19.2714  -19.1311   17.4019 N   0  0  0  0  0  0  0  0  0  0  0  0
   11.9798  -21.4763   17.5461 C   0  0  2  0  0  0  0  0  0  0  0  0
   11.6394  -20.7869   18.7504 C   0  0  0  0  0  0  0  0  0  0  0  0
   10.2861  -21.0451   19.3058 C   0  0  0  0  0  0  0  0  0  0  0  0
    9.1611  -20.4851   18.4766 C   0  0  0  0  0  0  0  0  0  0  0  0
    7.8740  -20.8863   19.0908 O   0  0  0  0  0  0  0  0  0  0  0  0
    7.9038  -21.5576   20.1511 C   0  0  0  0  0  0  0  0  0  0  0  0
   12.6175  -21.2394   19.8104 O   0  0  0  0  0  0  0  0  0  0  0  0
   12.6615  -22.4332   20.1979 O   0  0  0  0  0  0  0  0  0  0  0  0
    6.6754  -20.5405   18.5211 N   0  0  0  0  0  0  0  0  0  0  0  0
   19.8274  -17.0808   23.1512 C   0  0  0  0  0  0  0  0  0  0  0  0
   19.8103  -18.4131   23.6848 N   0  0  0  0  0  0  0  0  0  0  0  0
   20.7913  -18.8922   24.3510 N   0  0  0  0  0  0  0  0  0  0  0  0
   18.6716  -19.2255   23.4717 C   0  0  0  0  0  0  0  0  0  0  0  0
   17.5640  -18.7793   22.6422 C   0  0  0  0  0  0  0  0  0  0  0  0
   16.6181  -19.9639   22.5464 C   0  0  0  0  0  0  0  0  0  0  0  0
   15.4654  -19.6500   21.6466 C   0  0  2  0  0  0  0  0  0  0  0  0
   14.4966  -20.7834   21.4434 N   0  0  0  0  0  0  0  0  0  0  0  0
   13.5277  -20.3478   20.4193 C   0  0  0  0  0  0  0  0  0  0  0  0
   13.7970  -21.0980   22.7077 O   0  0  0  0  0  0  0  0  0  0  0  0
   12.6360  -20.4485   23.0868 O   0  0  0  0  0  0  0  0  0  0  0  0
  1  2  1  0
  2  3  2  0
  4  2  1  0
  4  5  1  0
  6  5  1  0
  7  8  1  0
  7  6  1  0
  8  9  1  6
 10  8  1  0
 11 10  2  0
 12 10  1  0
 13 18  1  0
 13 12  1  0
 13 14  1  1
 15 16  1  0
 15 14  1  0
 16 20  1  0
 17 16  2  0
 18 19  2  0
 21 22  1  0
 22 24  1  0
 22 23  2  0
 24 25  1  0
 26 25  1  0
 27 26  1  0
 28 27  1  6
 29 18  1  0
 29 28  1  0
 30 28  1  0
 30 31  1  0
 32 30  2  0
M  END
$$$$
