RER.pdb
     RDKit          3D

 32 31  0  0  1  0  0  0  0  0999 V2000
    8.3662  -13.4058   20.6462 N   0  0  0  0  0  0  0  0  0  0  0  0
    8.0423  -12.2796   19.8251 C   0  0  0  0  0  0  0  0  0  0  0  0
    8.4000  -11.0964   20.1442 N   0  0  0  0  0  0  0  0  0  0  0  0
    7.3221  -12.4847   18.6362 N   0  0  0  0  0  0  0  0  0  0  0  0
    6.8280  -13.7602   18.2175 C   0  0  0  0  0  0  0  0  0  0  0  0
    7.8855  -14.5589   17.5420 C   0  0  0  0  0  0  0  0  0  0  0  0
    8.9568  -15.1305   18.4010 C   0  0  0  0  0  0  0  0  0  0  0  0
    9.9400  -15.8726   17.4796 C   0  0  2  0  0  0  0  0  0  0  0  0
    9.3378  -17.0318   16.8669 N   0  0  0  0  0  0  0  0  0  0  0  0
   11.2236  -16.1650   18.1595 C   0  0  0  0  0  0  0  0  0  0  0  0
   11.3557  -17.2920   18.7036 O   0  0  0  0  0  0  0  0  0  0  0  0
    8.2262  -10.2986   19.5290 N   0  0  0  0  0  0  0  0  0  0  0  0
   12.2892  -15.2279   18.2156 C   0  0  2  0  0  0  0  0  0  0  0  0
   13.3817  -15.3442   19.1290 C   0  0  0  0  0  0  0  0  0  0  0  0
   14.3955  -14.2589   19.0964 C   0  0  0  0  0  0  0  0  0  0  0  0
   15.4746  -14.3905   20.1381 C   0  0  0  0  0  0  0  0  0  0  0  0
   16.7883  -14.1667   19.4910 O   0  0  0  0  0  0  0  0  0  0  0  0
   17.5305  -15.1590   19.2913 C   0  0  0  0  0  0  0  0  0  0  0  0
   12.7967  -15.3253   20.5228 O   0  0  0  0  0  0  0  0  0  0  0  0
   11.7680  -14.6585   20.7951 O   0  0  0  0  0  0  0  0  0  0  0  0
   17.1932  -12.9104   19.1188 N   0  0  0  0  0  0  0  0  0  0  0  0
    6.8532  -19.7188   23.0843 C   0  0  0  0  0  0  0  0  0  0  0  0
    7.7086  -19.8367   24.2307 N   0  0  0  0  0  0  0  0  0  0  0  0
    7.4353  -20.6169   25.2067 N   0  0  0  0  0  0  0  0  0  0  0  0
    8.8957  -19.0688   24.2858 C   0  0  0  0  0  0  0  0  0  0  0  0
    9.3200  -18.2439   23.1663 C   0  0  0  0  0  0  0  0  0  0  0  0
   10.5659  -17.5156   23.6403 C   0  0  0  0  0  0  0  0  0  0  0  0
   11.4165  -17.1098   22.4790 C   0  0  1  0  0  0  0  0  0  0  0  0
   12.6488  -16.3266   22.8425 N   0  0  0  0  0  0  0  0  0  0  0  0
   13.3742  -16.0515   21.5873 C   0  0  0  0  0  0  0  0  0  0  0  0
   13.5022  -17.1053   23.7657 O   0  0  0  0  0  0  0  0  0  0  0  0
   14.4077  -16.4990   24.6177 O   0  0  0  0  0  0  0  0  0  0  0  0
  1  2  1  0
  2  3  2  0
  4  2  1  0
  4  5  1  0
  6  5  1  0
  7  8  1  0
  7  6  1  0
  8  9  1  1
 10  8  1  0
 11 10  2  0
 12 10  1  0
 13 18  1  0
 13 12  1  0
 13 14  1  6
 15 16  1  0
 15 14  1  0
 16 20  1  0
 17 16  2  0
 18 19  2  0
 21 22  1  0
 22 24  1  0
 22 23  2  0
 24 25  1  0
 26 25  1  0
 27 26  1  0
 28 27  1  6
 29 18  1  0
 29 28  1  0
 30 28  1  0
 30 31  1  0
 32 30  2  0
M  END
$$$$
