RER.pdb
     RDKit          3D

 32 31  0  0  1  0  0  0  0  0999 V2000
    8.3619  -11.4152   19.0732 N   0  0  0  0  0  0  0  0  0  0  0  0
    9.2546  -12.5213   18.9088 C   0  0  0  0  0  0  0  0  0  0  0  0
   10.5211  -12.3607   18.8988 N   0  0  0  0  0  0  0  0  0  0  0  0
    8.7229  -13.8138   18.7648 N   0  0  0  0  0  0  0  0  0  0  0  0
    7.4631  -14.0893   18.1456 C   0  0  0  0  0  0  0  0  0  0  0  0
    7.4761  -15.4011   17.4444 C   0  0  0  0  0  0  0  0  0  0  0  0
    8.2313  -16.5080   18.0899 C   0  0  0  0  0  0  0  0  0  0  0  0
    9.7269  -16.2586   17.8306 C   0  0  2  0  0  0  0  0  0  0  0  0
   10.1437  -16.7584   16.5428 N   0  0  0  0  0  0  0  0  0  0  0  0
   10.5709  -16.7375   18.9502 C   0  0  0  0  0  0  0  0  0  0  0  0
   10.2369  -16.4096   20.1184 O   0  0  0  0  0  0  0  0  0  0  0  0
   11.1616  -13.1503   18.7926 N   0  0  0  0  0  0  0  0  0  0  0  0
   11.7252  -17.5398   18.7481 C   0  0  2  0  0  0  0  0  0  0  0  0
   12.4488  -18.1479   19.8195 C   0  0  0  0  0  0  0  0  0  0  0  0
   13.7928  -18.6893   19.4927 C   0  0  0  0  0  0  0  0  0  0  0  0
   14.5117  -19.3056   20.6633 C   0  0  0  0  0  0  0  0  0  0  0  0
   15.8597  -19.7322   20.2209 O   0  0  0  0  0  0  0  0  0  0  0  0
   16.8586  -19.1476   20.7067 C   0  0  0  0  0  0  0  0  0  0  0  0
   12.6737  -17.0786   20.8641 O   0  0  0  0  0  0  0  0  0  0  0  0
   13.1107  -15.9418   20.5578 O   0  0  0  0  0  0  0  0  0  0  0  0
   16.0219  -20.7372   19.3020 N   0  0  0  0  0  0  0  0  0  0  0  0
   10.4292  -16.2242   29.8105 C   0  0  0  0  0  0  0  0  0  0  0  0
   10.4749  -15.0618   28.9699 N   0  0  0  0  0  0  0  0  0  0  0  0
    9.8270  -13.9948   29.2479 N   0  0  0  0  0  0  0  0  0  0  0  0
   11.2639  -15.0919   27.7957 C   0  0  0  0  0  0  0  0  0  0  0  0
   10.9388  -15.9706   26.6839 C   0  0  0  0  0  0  0  0  0  0  0  0
   11.9804  -15.6856   25.6156 C   0  0  0  0  0  0  0  0  0  0  0  0
   11.7581  -16.5493   24.4150 C   0  0  1  0  0  0  0  0  0  0  0  0
   12.6996  -16.2924   23.2697 N   0  0  0  0  0  0  0  0  0  0  0  0
   12.4075  -17.3010   22.2330 C   0  0  0  0  0  0  0  0  0  0  0  0
   14.1036  -16.4125   23.7182 O   0  0  0  0  0  0  0  0  0  0  0  0
   14.7903  -17.6124   23.6712 O   0  0  0  0  0  0  0  0  0  0  0  0
  1  2  1  0
  2  3  2  0
  4  2  1  0
  4  5  1  0
  6  5  1  0
  7  8  1  0
  7  6  1  0
  8  9  1  6
 10  8  1  0
 11 10  2  0
 12 10  1  0
 13 18  1  0
 13 12  1  0
 13 14  1  6
 15 16  1  0
 15 14  1  0
 16 20  1  0
 17 16  2  0
 18 19  2  0
 21 22  1  0
 22 24  1  0
 22 23  2  0
 24 25  1  0
 26 25  1  0
 27 26  1  0
 28 27  1  6
 29 18  1  0
 29 28  1  0
 30 28  1  0
 30 31  1  0
 32 30  2  0
M  END
$$$$
