RER.pdb
     RDKit          3D

 32 31  0  0  1  0  0  0  0  0999 V2000
    8.7814  -11.7853   18.8520 N   0  0  0  0  0  0  0  0  0  0  0  0
    7.9320  -12.9156   18.6321 C   0  0  0  0  0  0  0  0  0  0  0  0
    7.8786  -13.4996   17.4981 N   0  0  0  0  0  0  0  0  0  0  0  0
    7.1469  -13.3978   19.6930 N   0  0  0  0  0  0  0  0  0  0  0  0
    7.0854  -14.7756   20.0725 C   0  0  0  0  0  0  0  0  0  0  0  0
    8.3615  -15.2285   20.6883 C   0  0  0  0  0  0  0  0  0  0  0  0
    8.8104  -16.6124   20.3790 C   0  0  0  0  0  0  0  0  0  0  0  0
    9.4510  -17.1854   21.6548 C   0  0  2  0  0  0  0  0  0  0  0  0
   10.5168  -18.1111   21.3566 N   0  0  0  0  0  0  0  0  0  0  0  0
    8.4371  -17.7338   22.5858 C   0  0  0  0  0  0  0  0  0  0  0  0
    7.6495  -16.9230   23.1389 O   0  0  0  0  0  0  0  0  0  0  0  0
    7.2303  -14.2698   17.3208 N   0  0  0  0  0  0  0  0  0  0  0  0
    8.3306  -19.1214   22.8684 C   0  0  1  0  0  0  0  0  0  0  0  0
    7.3732  -19.6590   23.7827 C   0  0  0  0  0  0  0  0  0  0  0  0
    6.4759  -20.7209   23.2595 C   0  0  0  0  0  0  0  0  0  0  0  0
    5.5289  -21.2888   24.2831 C   0  0  0  0  0  0  0  0  0  0  0  0
    4.7877  -22.4154   23.6698 O   0  0  0  0  0  0  0  0  0  0  0  0
    3.6602  -22.1841   23.1690 C   0  0  0  0  0  0  0  0  0  0  0  0
    8.1498  -20.2913   24.9151 O   0  0  0  0  0  0  0  0  0  0  0  0
    8.8385  -21.3272   24.7421 O   0  0  0  0  0  0  0  0  0  0  0  0
    5.3106  -23.6831   23.6478 N   0  0  0  0  0  0  0  0  0  0  0  0
   13.3651  -20.0693   32.3382 C   0  0  0  0  0  0  0  0  0  0  0  0
   11.9739  -19.7853   32.1286 N   0  0  0  0  0  0  0  0  0  0  0  0
   11.3304  -18.9570   32.8605 N   0  0  0  0  0  0  0  0  0  0  0  0
   11.2887  -20.4384   31.0770 C   0  0  0  0  0  0  0  0  0  0  0  0
   10.8588  -19.7201   29.8882 C   0  0  0  0  0  0  0  0  0  0  0  0
    9.3624  -19.9581   29.7819 C   0  0  0  0  0  0  0  0  0  0  0  0
    8.8303  -19.4185   28.4925 C   0  0  1  0  0  0  0  0  0  0  0  0
    8.8621  -20.3875   27.3418 N   0  0  0  0  0  0  0  0  0  0  0  0
    8.1406  -19.7544   26.2211 C   0  0  0  0  0  0  0  0  0  0  0  0
    8.2066  -21.6585   27.7185 O   0  0  0  0  0  0  0  0  0  0  0  0
    6.8780  -21.9140   27.4305 O   0  0  0  0  0  0  0  0  0  0  0  0
  1  2  1  0
  2  3  2  0
  4  2  1  0
  4  5  1  0
  6  5  1  0
  7  8  1  0
  7  6  1  0
  8  9  1  6
 10  8  1  0
 11 10  2  0
 12 10  1  0
 13 18  1  0
 13 12  1  0
 13 14  1  1
 15 16  1  0
 15 14  1  0
 16 20  1  0
 17 16  2  0
 18 19  2  0
 21 22  1  0
 22 24  1  0
 22 23  2  0
 24 25  1  0
 26 25  1  0
 27 26  1  0
 28 27  1  6
 29 18  1  0
 29 28  1  0
 30 28  1  0
 30 31  1  0
 32 30  2  0
M  END
$$$$
