RER.pdb
     RDKit          3D

 32 31  0  0  1  0  0  0  0  0999 V2000
    7.8696  -14.0547   19.7223 N   0  0  0  0  0  0  0  0  0  0  0  0
    7.8664  -12.9473   18.8162 C   0  0  0  0  0  0  0  0  0  0  0  0
    7.0130  -12.0034   18.9191 N   0  0  0  0  0  0  0  0  0  0  0  0
    8.8318  -12.8951   17.7966 N   0  0  0  0  0  0  0  0  0  0  0  0
    9.6057  -14.0230   17.3779 C   0  0  0  0  0  0  0  0  0  0  0  0
   11.0556  -13.8151   17.6368 C   0  0  0  0  0  0  0  0  0  0  0  0
   11.4946  -13.7925   19.0578 C   0  0  0  0  0  0  0  0  0  0  0  0
   12.1901  -15.1338   19.3470 C   0  0  2  0  0  0  0  0  0  0  0  0
   12.3908  -15.9093   18.1471 N   0  0  0  0  0  0  0  0  0  0  0  0
   11.5139  -15.8865   20.4294 C   0  0  0  0  0  0  0  0  0  0  0  0
   11.3534  -15.3071   21.5349 O   0  0  0  0  0  0  0  0  0  0  0  0
    6.9717  -11.2405   18.2400 N   0  0  0  0  0  0  0  0  0  0  0  0
   11.0514  -17.2185   20.2600 C   0  0  1  0  0  0  0  0  0  0  0  0
   10.4613  -17.9786   21.3162 C   0  0  0  0  0  0  0  0  0  0  0  0
   10.3783  -19.4478   21.1135 C   0  0  0  0  0  0  0  0  0  0  0  0
   10.4237  -19.8755   19.6706 C   0  0  0  0  0  0  0  0  0  0  0  0
   11.1150  -21.1831   19.5851 O   0  0  0  0  0  0  0  0  0  0  0  0
   10.5896  -22.1726   20.1513 C   0  0  0  0  0  0  0  0  0  0  0  0
   11.3228  -17.7757   22.5417 O   0  0  0  0  0  0  0  0  0  0  0  0
   12.5733  -17.8803   22.4909 O   0  0  0  0  0  0  0  0  0  0  0  0
   12.3008  -21.3182   18.9095 N   0  0  0  0  0  0  0  0  0  0  0  0
    9.2495  -15.2579   31.2194 C   0  0  0  0  0  0  0  0  0  0  0  0
    9.8917  -14.7064   30.0604 N   0  0  0  0  0  0  0  0  0  0  0  0
    9.7035  -13.4973   29.6885 N   0  0  0  0  0  0  0  0  0  0  0  0
   10.7650  -15.5227   29.3034 C   0  0  0  0  0  0  0  0  0  0  0  0
   10.2822  -16.6918   28.5865 C   0  0  0  0  0  0  0  0  0  0  0  0
   11.3115  -16.9646   27.5032 C   0  0  0  0  0  0  0  0  0  0  0  0
   10.6603  -17.0314   26.1584 C   0  0  1  0  0  0  0  0  0  0  0  0
   11.5951  -17.3352   25.0191 N   0  0  0  0  0  0  0  0  0  0  0  0
   10.7698  -17.4613   23.8024 C   0  0  0  0  0  0  0  0  0  0  0  0
   12.3267  -18.5950   25.2730 O   0  0  0  0  0  0  0  0  0  0  0  0
   13.6454  -18.6079   25.6905 O   0  0  0  0  0  0  0  0  0  0  0  0
  1  2  1  0
  2  3  2  0
  4  2  1  0
  4  5  1  0
  6  5  1  0
  7  8  1  0
  7  6  1  0
  8  9  1  6
 10  8  1  0
 11 10  2  0
 12 10  1  0
 13 18  1  0
 13 12  1  0
 13 14  1  1
 15 16  1  0
 15 14  1  0
 16 20  1  0
 17 16  2  0
 18 19  2  0
 21 22  1  0
 22 24  1  0
 22 23  2  0
 24 25  1  0
 26 25  1  0
 27 26  1  0
 28 27  1  6
 29 18  1  0
 29 28  1  0
 30 28  1  0
 30 31  1  0
 32 30  2  0
M  END
$$$$
