RER.pdb
     RDKit          3D

 32 31  0  0  1  0  0  0  0  0999 V2000
    8.3743  -11.5883   17.8378 N   0  0  0  0  0  0  0  0  0  0  0  0
    7.9487  -12.9289   17.5755 C   0  0  0  0  0  0  0  0  0  0  0  0
    6.7301  -13.2821   17.7178 N   0  0  0  0  0  0  0  0  0  0  0  0
    8.8938  -13.8741   17.1422 N   0  0  0  0  0  0  0  0  0  0  0  0
    8.5689  -15.2274   16.8117 C   0  0  0  0  0  0  0  0  0  0  0  0
    8.7231  -16.1270   17.9862 C   0  0  0  0  0  0  0  0  0  0  0  0
   10.0785  -16.2275   18.5904 C   0  0  0  0  0  0  0  0  0  0  0  0
    9.9835  -17.2020   19.7769 C   0  0  2  0  0  0  0  0  0  0  0  0
    8.8488  -18.0857   19.6621 N   0  0  0  0  0  0  0  0  0  0  0  0
   10.0535  -16.4984   21.0790 C   0  0  0  0  0  0  0  0  0  0  0  0
   11.1081  -15.8670   21.3485 O   0  0  0  0  0  0  0  0  0  0  0  0
    6.4214  -14.2368   17.5222 N   0  0  0  0  0  0  0  0  0  0  0  0
    8.9859  -16.5161   22.0153 C   0  0  1  0  0  0  0  0  0  0  0  0
    9.0217  -15.8003   23.2514 C   0  0  0  0  0  0  0  0  0  0  0  0
    7.7122  -15.4963   23.8832 C   0  0  0  0  0  0  0  0  0  0  0  0
    7.8130  -14.7287   25.1745 C   0  0  0  0  0  0  0  0  0  0  0  0
    6.4455  -14.4877   25.6909 O   0  0  0  0  0  0  0  0  0  0  0  0
    5.9189  -15.3672   26.4152 C   0  0  0  0  0  0  0  0  0  0  0  0
    9.7705  -16.6639   24.2408 O   0  0  0  0  0  0  0  0  0  0  0  0
    9.8421  -17.9101   24.1035 O   0  0  0  0  0  0  0  0  0  0  0  0
    5.7632  -13.3372   25.3881 N   0  0  0  0  0  0  0  0  0  0  0  0
   11.5084  -14.6354   32.7299 C   0  0  0  0  0  0  0  0  0  0  0  0
   11.6720  -16.0519   32.5664 N   0  0  0  0  0  0  0  0  0  0  0  0
   11.9667  -16.8206   33.5452 N   0  0  0  0  0  0  0  0  0  0  0  0
   11.4996  -16.6212   31.2826 C   0  0  0  0  0  0  0  0  0  0  0  0
   11.6398  -15.8261   30.0735 C   0  0  0  0  0  0  0  0  0  0  0  0
   11.4846  -16.8011   28.9191 C   0  0  0  0  0  0  0  0  0  0  0  0
   11.1194  -16.0793   27.6612 C   0  0  1  0  0  0  0  0  0  0  0  0
   10.9709  -16.9587   26.4493 N   0  0  0  0  0  0  0  0  0  0  0  0
   10.4242  -16.1178   25.3671 C   0  0  0  0  0  0  0  0  0  0  0  0
   10.0536  -18.0827   26.7360 O   0  0  0  0  0  0  0  0  0  0  0  0
   10.5156  -19.3318   27.1098 O   0  0  0  0  0  0  0  0  0  0  0  0
  1  2  1  0
  2  3  2  0
  4  2  1  0
  4  5  1  0
  6  5  1  0
  7  8  1  0
  7  6  1  0
  8  9  1  1
 10  8  1  0
 11 10  2  0
 12 10  1  0
 13 18  1  0
 13 12  1  0
 13 14  1  1
 15 16  1  0
 15 14  1  0
 16 20  1  0
 17 16  2  0
 18 19  2  0
 21 22  1  0
 22 24  1  0
 22 23  2  0
 24 25  1  0
 26 25  1  0
 27 26  1  0
 28 27  1  6
 29 18  1  0
 29 28  1  0
 30 28  1  0
 30 31  1  0
 32 30  2  0
M  END
$$$$
