RER.pdb
     RDKit          3D

 32 31  0  0  1  0  0  0  0  0999 V2000
    8.3812  -14.5861   18.3208 N   0  0  0  0  0  0  0  0  0  0  0  0
    7.1788  -13.9523   18.7678 C   0  0  0  0  0  0  0  0  0  0  0  0
    6.3837  -13.3781   17.9505 N   0  0  0  0  0  0  0  0  0  0  0  0
    6.8636  -13.9718   20.1369 N   0  0  0  0  0  0  0  0  0  0  0  0
    7.8410  -14.0897   21.1748 C   0  0  0  0  0  0  0  0  0  0  0  0
    8.5149  -15.4153   21.1403 C   0  0  0  0  0  0  0  0  0  0  0  0
    9.6072  -15.5954   20.1470 C   0  0  0  0  0  0  0  0  0  0  0  0
   10.0924  -17.0513   20.2539 C   0  0  2  0  0  0  0  0  0  0  0  0
    9.0317  -17.9955   19.9989 N   0  0  0  0  0  0  0  0  0  0  0  0
   10.8135  -17.3033   21.5235 C   0  0  0  0  0  0  0  0  0  0  0  0
   10.2267  -17.9810   22.4067 O   0  0  0  0  0  0  0  0  0  0  0  0
    5.5403  -12.8970   18.2702 N   0  0  0  0  0  0  0  0  0  0  0  0
   12.1226  -16.8109   21.7694 C   0  0  2  0  0  0  0  0  0  0  0  0
   12.8616  -17.1192   22.9527 C   0  0  0  0  0  0  0  0  0  0  0  0
   14.1837  -16.4591   23.1033 C   0  0  0  0  0  0  0  0  0  0  0  0
   14.9176  -16.8274   24.3653 C   0  0  0  0  0  0  0  0  0  0  0  0
   16.2453  -16.1703   24.3508 O   0  0  0  0  0  0  0  0  0  0  0  0
   16.6532  -15.6285   25.4070 C   0  0  0  0  0  0  0  0  0  0  0  0
   12.0294  -16.6566   24.1269 O   0  0  0  0  0  0  0  0  0  0  0  0
   11.4199  -15.5587   24.1088 O   0  0  0  0  0  0  0  0  0  0  0  0
   17.0150  -16.1467   23.2160 N   0  0  0  0  0  0  0  0  0  0  0  0
    6.6618  -18.2164   22.3074 C   0  0  0  0  0  0  0  0  0  0  0  0
    6.5610  -16.9386   22.9533 N   0  0  0  0  0  0  0  0  0  0  0  0
    6.2802  -15.8703   22.3087 N   0  0  0  0  0  0  0  0  0  0  0  0
    6.7754  -16.8541   24.3493 C   0  0  0  0  0  0  0  0  0  0  0  0
    7.0651  -18.0348   25.1467 C   0  0  0  0  0  0  0  0  0  0  0  0
    8.2066  -17.6397   26.0678 C   0  0  0  0  0  0  0  0  0  0  0  0
    9.5198  -17.7473   25.3603 C   0  0  2  0  0  0  0  0  0  0  0  0
   10.7134  -17.3361   26.1792 N   0  0  0  0  0  0  0  0  0  0  0  0
   11.8954  -17.4297   25.3009 C   0  0  0  0  0  0  0  0  0  0  0  0
   10.8720  -18.2302   27.3464 O   0  0  0  0  0  0  0  0  0  0  0  0
   11.9508  -19.0864   27.4754 O   0  0  0  0  0  0  0  0  0  0  0  0
  1  2  1  0
  2  3  2  0
  4  2  1  0
  4  5  1  0
  6  5  1  0
  7  8  1  0
  7  6  1  0
  8  9  1  1
 10  8  1  0
 11 10  2  0
 12 10  1  0
 13 18  1  0
 13 12  1  0
 13 14  1  6
 15 16  1  0
 15 14  1  0
 16 20  1  0
 17 16  2  0
 18 19  2  0
 21 22  1  0
 22 24  1  0
 22 23  2  0
 24 25  1  0
 26 25  1  0
 27 26  1  0
 28 27  1  6
 29 18  1  0
 29 28  1  0
 30 28  1  0
 30 31  1  0
 32 30  2  0
M  END
$$$$
