RER.pdb
     RDKit          3D

 32 31  0  0  1  0  0  0  0  0999 V2000
    9.4746  -13.6923   19.8896 N   0  0  0  0  0  0  0  0  0  0  0  0
    8.5197  -12.7774   19.3434 C   0  0  0  0  0  0  0  0  0  0  0  0
    8.8633  -11.8719   18.5116 N   0  0  0  0  0  0  0  0  0  0  0  0
    7.1720  -12.8863   19.7255 N   0  0  0  0  0  0  0  0  0  0  0  0
    6.6672  -13.9271   20.5670 C   0  0  0  0  0  0  0  0  0  0  0  0
    7.2666  -15.2444   20.2233 C   0  0  0  0  0  0  0  0  0  0  0  0
    7.7575  -16.0813   21.3506 C   0  0  0  0  0  0  0  0  0  0  0  0
    8.2287  -17.4210   20.7594 C   0  0  2  0  0  0  0  0  0  0  0  0
    7.1791  -18.4109   20.7575 N   0  0  0  0  0  0  0  0  0  0  0  0
    9.4839  -17.8937   21.3890 C   0  0  0  0  0  0  0  0  0  0  0  0
    9.4054  -18.4236   22.5277 O   0  0  0  0  0  0  0  0  0  0  0  0
    8.2053  -11.1571   18.1938 N   0  0  0  0  0  0  0  0  0  0  0  0
   10.7498  -17.7677   20.7579 C   0  0  2  0  0  0  0  0  0  0  0  0
   11.9751  -18.1488   21.3863 C   0  0  0  0  0  0  0  0  0  0  0  0
   13.2130  -17.9963   20.5796 C   0  0  0  0  0  0  0  0  0  0  0  0
   14.4815  -18.3004   21.3315 C   0  0  0  0  0  0  0  0  0  0  0  0
   15.6343  -18.0663   20.4310 O   0  0  0  0  0  0  0  0  0  0  0  0
   16.2584  -16.9819   20.5322 C   0  0  0  0  0  0  0  0  0  0  0  0
   12.1510  -17.2533   22.5915 O   0  0  0  0  0  0  0  0  0  0  0  0
   12.1876  -16.0028   22.4818 O   0  0  0  0  0  0  0  0  0  0  0  0
   16.0156  -19.0033   19.5050 N   0  0  0  0  0  0  0  0  0  0  0  0
   12.5138  -20.3848   29.6944 C   0  0  0  0  0  0  0  0  0  0  0  0
   13.0748  -19.1804   30.2372 N   0  0  0  0  0  0  0  0  0  0  0  0
   13.9369  -19.1964   31.1817 N   0  0  0  0  0  0  0  0  0  0  0  0
   12.6658  -17.9323   29.7109 C   0  0  0  0  0  0  0  0  0  0  0  0
   11.6069  -17.8358   28.7192 C   0  0  0  0  0  0  0  0  0  0  0  0
   12.1781  -16.9996   27.5870 C   0  0  0  0  0  0  0  0  0  0  0  0
   11.9342  -17.6582   26.2666 C   0  0  1  0  0  0  0  0  0  0  0  0
   12.4713  -16.9077   25.0782 N   0  0  0  0  0  0  0  0  0  0  0  0
   12.2847  -17.7731   23.8977 C   0  0  0  0  0  0  0  0  0  0  0  0
   13.9059  -16.6018   25.2657 O   0  0  0  0  0  0  0  0  0  0  0  0
   14.3407  -15.3767   25.7386 O   0  0  0  0  0  0  0  0  0  0  0  0
  1  2  1  0
  2  3  2  0
  4  2  1  0
  4  5  1  0
  6  5  1  0
  7  8  1  0
  7  6  1  0
  8  9  1  1
 10  8  1  0
 11 10  2  0
 12 10  1  0
 13 18  1  0
 13 12  1  0
 13 14  1  6
 15 16  1  0
 15 14  1  0
 16 20  1  0
 17 16  2  0
 18 19  2  0
 21 22  1  0
 22 24  1  0
 22 23  2  0
 24 25  1  0
 26 25  1  0
 27 26  1  0
 28 27  1  6
 29 18  1  0
 29 28  1  0
 30 28  1  0
 30 31  1  0
 32 30  2  0
M  END
$$$$
