ISN.pdb
     RDKit          3D

 23 22  0  0  1  0  0  0  0  0999 V2000
   16.4886  -12.6197  -19.4105 C   0  0  0  0  0  0  0  0  0  0  0  0
   17.9314  -13.0015  -19.0547 C   0  0  0  0  0  0  0  0  0  0  0  0
   18.3630  -12.0188  -17.9957 C   0  0  2  0  0  0  0  0  0  0  0  0
   18.1301  -10.6179  -18.4191 C   0  0  0  0  0  0  0  0  0  0  0  0
   19.7407  -12.3147  -17.4565 C   0  0  2  0  0  0  0  0  0  0  0  0
   19.7221  -13.7106  -16.9728 N   0  0  0  0  0  0  0  0  0  0  0  0
   20.1840  -11.4667  -16.3562 C   0  0  0  0  0  0  0  0  0  0  0  0
   19.4510  -11.3352  -15.3404 O   0  0  0  0  0  0  0  0  0  0  0  0
   23.9564   -9.9201  -16.0856 O   0  0  0  0  0  0  0  0  0  0  0  0
   23.2211  -10.0898  -14.9154 C   0  0  0  0  0  0  0  0  0  0  0  0
   21.7319   -9.8426  -15.1990 C   0  0  2  0  0  0  0  0  0  0  0  0
   21.4079  -10.7429  -16.3043 N   0  0  0  0  0  0  0  0  0  0  0  0
   21.5186   -8.4267  -15.5957 C   0  0  0  0  0  0  0  0  0  0  0  0
   21.5660   -8.1175  -16.8130 O   0  0  0  0  0  0  0  0  0  0  0  0
   20.4357   -3.3216  -15.5427 N   0  0  0  0  0  0  0  0  0  0  0  0
   19.3670   -4.2270  -15.1971 C   0  0  0  0  0  0  0  0  0  0  0  0
   18.2036   -3.7493  -15.1902 O   0  0  0  0  0  0  0  0  0  0  0  0
   19.6583   -5.6332  -14.8734 C   0  0  0  0  0  0  0  0  0  0  0  0
   21.0917   -5.9899  -15.0707 C   0  0  2  0  0  0  0  0  0  0  0  0
   21.2611   -7.3970  -14.6576 N   0  0  0  0  0  0  0  0  0  0  0  0
   22.0659   -5.1929  -14.3111 C   0  0  0  0  0  0  0  0  0  0  0  0
   22.3367   -5.5209  -13.0980 O   0  0  0  0  0  0  0  0  0  0  0  0
   22.7263   -4.0969  -14.8135 O   0  0  0  0  0  0  0  0  0  0  0  0
  2  1  1  0
  3  2  1  0
  3  4  1  6
  5  6  1  1
  5  3  1  0
  7  5  1  0
  8  7  2  0
  9 10  1  0
 11 10  1  6
 11 13  1  0
 11 12  1  0
 12  7  1  0
 13 20  1  0
 14 13  2  0
 16 15  1  0
 16 17  2  0
 18 16  1  0
 19 18  1  1
 19 21  1  0
 20 19  1  0
 21 22  2  0
 21 23  1  0
M  END
$$$$
