ISN.pdb
     RDKit          3D

 23 22  0  0  1  0  0  0  0  0999 V2000
   18.7466  -12.8900  -20.0609 C   0  0  0  0  0  0  0  0  0  0  0  0
   19.5588  -12.7983  -18.7624 C   0  0  0  0  0  0  0  0  0  0  0  0
   19.3272  -11.4050  -18.2351 C   0  0  2  0  0  0  0  0  0  0  0  0
   19.6252  -10.3744  -19.2575 C   0  0  0  0  0  0  0  0  0  0  0  0
   19.9611  -11.1830  -16.8841 C   0  0  2  0  0  0  0  0  0  0  0  0
   19.4817  -12.2665  -16.0014 N   0  0  0  0  0  0  0  0  0  0  0  0
   19.6491   -9.9121  -16.2409 C   0  0  0  0  0  0  0  0  0  0  0  0
   18.5059   -9.4051  -16.3913 O   0  0  0  0  0  0  0  0  0  0  0  0
   21.5984   -8.5465  -13.0837 O   0  0  0  0  0  0  0  0  0  0  0  0
   20.3401   -8.0131  -13.3507 C   0  0  0  0  0  0  0  0  0  0  0  0
   20.1557   -7.8555  -14.8674 C   0  0  2  0  0  0  0  0  0  0  0  0
   20.5342   -9.1522  -15.4263 N   0  0  0  0  0  0  0  0  0  0  0  0
   21.0479   -6.7831  -15.3789 C   0  0  0  0  0  0  0  0  0  0  0  0
   21.9735   -7.0835  -16.1743 O   0  0  0  0  0  0  0  0  0  0  0  0
   22.9618   -2.2583  -16.9437 N   0  0  0  0  0  0  0  0  0  0  0  0
   22.2945   -3.2754  -17.7192 C   0  0  0  0  0  0  0  0  0  0  0  0
   22.3166   -3.1365  -18.9691 O   0  0  0  0  0  0  0  0  0  0  0  0
   21.6301   -4.4057  -17.0498 C   0  0  0  0  0  0  0  0  0  0  0  0
   21.7716   -4.3672  -15.5668 C   0  0  2  0  0  0  0  0  0  0  0  0
   20.9037   -5.4232  -15.0093 N   0  0  0  0  0  0  0  0  0  0  0  0
   21.3946   -3.1046  -14.9147 C   0  0  0  0  0  0  0  0  0  0  0  0
   20.1962   -2.9587  -14.4732 O   0  0  0  0  0  0  0  0  0  0  0  0
   22.2490   -2.0426  -14.7362 O   0  0  0  0  0  0  0  0  0  0  0  0
  2  1  1  0
  3  2  1  0
  3  4  1  6
  5  6  1  1
  5  3  1  0
  7  5  1  0
  8  7  2  0
  9 10  1  0
 11 10  1  1
 11 13  1  0
 11 12  1  0
 12  7  1  0
 13 20  1  0
 14 13  2  0
 16 15  1  0
 16 17  2  0
 18 16  1  0
 19 18  1  6
 19 21  1  0
 20 19  1  0
 21 22  2  0
 21 23  1  0
M  END
$$$$
