ISN.pdb
     RDKit          3D

 23 22  0  0  1  0  0  0  0  0999 V2000
   13.1483  -13.3905  -17.1173 C   0  0  0  0  0  0  0  0  0  0  0  0
   13.1251  -13.5203  -15.5886 C   0  0  0  0  0  0  0  0  0  0  0  0
   14.0203  -12.4220  -15.0733 C   0  0  2  0  0  0  0  0  0  0  0  0
   13.5829  -11.0885  -15.5493 C   0  0  0  0  0  0  0  0  0  0  0  0
   15.4850  -12.7312  -15.2609 C   0  0  2  0  0  0  0  0  0  0  0  0
   15.7561  -13.9864  -14.5302 N   0  0  0  0  0  0  0  0  0  0  0  0
   16.4124  -11.7191  -14.7691 C   0  0  0  0  0  0  0  0  0  0  0  0
   16.2666  -11.2569  -13.6065 O   0  0  0  0  0  0  0  0  0  0  0  0
   19.8369  -10.8350  -16.6685 O   0  0  0  0  0  0  0  0  0  0  0  0
   19.7755  -10.4770  -15.3242 C   0  0  0  0  0  0  0  0  0  0  0  0
   18.3346  -10.0933  -14.9558 C   0  0  2  0  0  0  0  0  0  0  0  0
   17.5113  -11.1761  -15.4916 N   0  0  0  0  0  0  0  0  0  0  0  0
   17.9758   -8.7983  -15.5898 C   0  0  0  0  0  0  0  0  0  0  0  0
   17.4507   -8.7998  -16.7317 O   0  0  0  0  0  0  0  0  0  0  0  0
   17.8687   -2.7732  -14.4692 N   0  0  0  0  0  0  0  0  0  0  0  0
   17.2647   -3.9372  -15.0706 C   0  0  0  0  0  0  0  0  0  0  0  0
   16.4955   -3.7335  -16.0446 O   0  0  0  0  0  0  0  0  0  0  0  0
   17.5548   -5.2815  -14.5457 C   0  0  0  0  0  0  0  0  0  0  0  0
   17.8510   -6.2726  -15.6184 C   0  0  2  0  0  0  0  0  0  0  0  0
   18.1991   -7.5483  -14.9621 N   0  0  0  0  0  0  0  0  0  0  0  0
   18.9582   -5.9326  -16.5239 C   0  0  0  0  0  0  0  0  0  0  0  0
   18.7239   -5.2053  -17.5576 O   0  0  0  0  0  0  0  0  0  0  0  0
   20.2575   -6.3433  -16.3430 O   0  0  0  0  0  0  0  0  0  0  0  0
  2  1  1  0
  3  2  1  0
  3  4  1  6
  5  6  1  1
  5  3  1  0
  7  5  1  0
  8  7  2  0
  9 10  1  0
 11 10  1  6
 11 13  1  0
 11 12  1  0
 12  7  1  0
 13 20  1  0
 14 13  2  0
 16 15  1  0
 16 17  2  0
 18 16  1  0
 19 18  1  1
 19 21  1  0
 20 19  1  0
 21 22  2  0
 21 23  1  0
M  END
$$$$
