ISN.pdb
     RDKit          3D

 23 22  0  0  1  0  0  0  0  0999 V2000
   27.6152  -15.7409  -16.0263 C   0  0  0  0  0  0  0  0  0  0  0  0
   26.1608  -16.1102  -15.7059 C   0  0  0  0  0  0  0  0  0  0  0  0
   25.3707  -14.8375  -15.8770 C   0  0  2  0  0  0  0  0  0  0  0  0
   25.9056  -13.7417  -15.0348 C   0  0  0  0  0  0  0  0  0  0  0  0
   23.8817  -15.0619  -15.7834 C   0  0  2  0  0  0  0  0  0  0  0  0
   23.5736  -16.2495  -16.6065 N   0  0  0  0  0  0  0  0  0  0  0  0
   23.0463  -13.9634  -16.2543 C   0  0  0  0  0  0  0  0  0  0  0  0
   23.0640  -13.6496  -17.4740 O   0  0  0  0  0  0  0  0  0  0  0  0
   19.0380  -11.5274  -16.1686 O   0  0  0  0  0  0  0  0  0  0  0  0
   19.9133  -12.4827  -15.6586 C   0  0  0  0  0  0  0  0  0  0  0  0
   21.3588  -12.1016  -16.0117 C   0  0  2  0  0  0  0  0  0  0  0  0
   22.1759  -13.1759  -15.4501 N   0  0  0  0  0  0  0  0  0  0  0  0
   21.7067  -10.7978  -15.3898 C   0  0  0  0  0  0  0  0  0  0  0  0
   22.0203  -10.7634  -14.1732 O   0  0  0  0  0  0  0  0  0  0  0  0
   22.6470   -5.6993  -14.6282 N   0  0  0  0  0  0  0  0  0  0  0  0
   22.5058   -5.9346  -16.0446 C   0  0  0  0  0  0  0  0  0  0  0  0
   22.7523   -4.9633  -16.8046 O   0  0  0  0  0  0  0  0  0  0  0  0
   22.0916   -7.2568  -16.5418 C   0  0  0  0  0  0  0  0  0  0  0  0
   22.0563   -8.2945  -15.4729 C   0  0  2  0  0  0  0  0  0  0  0  0
   21.7025   -9.5782  -16.1103 N   0  0  0  0  0  0  0  0  0  0  0  0
   21.0932   -8.0686  -14.3852 C   0  0  0  0  0  0  0  0  0  0  0  0
   19.8466   -8.3058  -14.5903 O   0  0  0  0  0  0  0  0  0  0  0  0
   21.4345   -7.6125  -13.1341 O   0  0  0  0  0  0  0  0  0  0  0  0
  2  1  1  0
  3  2  1  0
  3  4  1  1
  5  6  1  6
  5  3  1  0
  7  5  1  0
  8  7  2  0
  9 10  1  0
 11 10  1  1
 11 13  1  0
 11 12  1  0
 12  7  1  0
 13 20  1  0
 14 13  2  0
 16 15  1  0
 16 17  2  0
 18 16  1  0
 19 18  1  6
 19 21  1  0
 20 19  1  0
 21 22  2  0
 21 23  1  0
M  END
$$$$
