ISN.pdb
     RDKit          3D

 23 22  0  0  1  0  0  0  0  0999 V2000
   18.0997  -12.7744  -13.5699 C   0  0  0  0  0  0  0  0  0  0  0  0
   17.2971  -12.8540  -12.2647 C   0  0  0  0  0  0  0  0  0  0  0  0
   16.6611  -11.4976  -12.0946 C   0  0  2  0  0  0  0  0  0  0  0  0
   17.6573  -10.4062  -12.2070 C   0  0  0  0  0  0  0  0  0  0  0  0
   15.7542  -11.4287  -10.8910 C   0  0  2  0  0  0  0  0  0  0  0  0
   14.7174  -12.4653  -11.0744 N   0  0  0  0  0  0  0  0  0  0  0  0
   15.0785  -10.1537  -10.6811 C   0  0  0  0  0  0  0  0  0  0  0  0
   14.5224   -9.5789  -11.6543 O   0  0  0  0  0  0  0  0  0  0  0  0
   13.7047   -8.9809   -7.1951 O   0  0  0  0  0  0  0  0  0  0  0  0
   13.2250   -8.3125   -8.3185 C   0  0  0  0  0  0  0  0  0  0  0  0
   14.3580   -8.1393   -9.3410 C   0  0  2  0  0  0  0  0  0  0  0  0
   14.9744   -9.4609   -9.4427 N   0  0  0  0  0  0  0  0  0  0  0  0
   15.3395   -7.1390   -8.8472 C   0  0  0  0  0  0  0  0  0  0  0  0
   16.3224   -7.5287   -8.1678 O   0  0  0  0  0  0  0  0  0  0  0  0
   19.3448   -3.6356   -8.3642 N   0  0  0  0  0  0  0  0  0  0  0  0
   18.1226   -3.4193   -9.0995 C   0  0  0  0  0  0  0  0  0  0  0  0
   17.8485   -2.2290   -9.3995 O   0  0  0  0  0  0  0  0  0  0  0  0
   17.2619   -4.5565   -9.4639 C   0  0  0  0  0  0  0  0  0  0  0  0
   16.1369   -4.7631   -8.5086 C   0  0  2  0  0  0  0  0  0  0  0  0
   15.2196   -5.7519   -9.1084 N   0  0  0  0  0  0  0  0  0  0  0  0
   15.3398   -3.5717   -8.1823 C   0  0  0  0  0  0  0  0  0  0  0  0
   14.3009   -3.2980   -8.8882 O   0  0  0  0  0  0  0  0  0  0  0  0
   15.6284   -2.7077   -7.1528 O   0  0  0  0  0  0  0  0  0  0  0  0
  2  1  1  0
  3  2  1  0
  3  4  1  1
  5  6  1  6
  5  3  1  0
  7  5  1  0
  8  7  2  0
  9 10  1  0
 11 10  1  1
 11 13  1  0
 11 12  1  0
 12  7  1  0
 13 20  1  0
 14 13  2  0
 16 15  1  0
 16 17  2  0
 18 16  1  0
 19 18  1  6
 19 21  1  0
 20 19  1  0
 21 22  2  0
 21 23  1  0
M  END
$$$$
