ISN.pdb
     RDKit          3D

 23 22  0  0  1  0  0  0  0  0999 V2000
   15.0384  -10.5001  -18.4453 C   0  0  0  0  0  0  0  0  0  0  0  0
   16.3256  -11.2602  -18.0993 C   0  0  0  0  0  0  0  0  0  0  0  0
   17.1243  -10.3298  -17.2219 C   0  0  2  0  0  0  0  0  0  0  0  0
   17.2736   -8.9894  -17.8358 C   0  0  0  0  0  0  0  0  0  0  0  0
   18.3990  -10.9596  -16.7173 C   0  0  2  0  0  0  0  0  0  0  0  0
   18.0135  -12.1878  -15.9920 N   0  0  0  0  0  0  0  0  0  0  0  0
   19.1946  -10.1380  -15.8127 C   0  0  0  0  0  0  0  0  0  0  0  0
   18.6961   -9.7573  -14.7203 O   0  0  0  0  0  0  0  0  0  0  0  0
   22.9192  -10.3581  -14.2159 O   0  0  0  0  0  0  0  0  0  0  0  0
   22.7071   -9.3536  -15.1566 C   0  0  0  0  0  0  0  0  0  0  0  0
   21.2510   -8.8708  -15.0792 C   0  0  2  0  0  0  0  0  0  0  0  0
   20.5301   -9.7033  -16.0406 N   0  0  0  0  0  0  0  0  0  0  0  0
   21.1701   -7.4374  -15.4619 C   0  0  0  0  0  0  0  0  0  0  0  0
   21.2467   -7.1220  -16.6761 O   0  0  0  0  0  0  0  0  0  0  0  0
   20.7036   -2.2433  -15.3673 N   0  0  0  0  0  0  0  0  0  0  0  0
   19.8060   -2.8654  -14.4246 C   0  0  0  0  0  0  0  0  0  0  0  0
   18.9526   -2.1181  -13.8813 O   0  0  0  0  0  0  0  0  0  0  0  0
   19.9112   -4.3049  -14.1353 C   0  0  0  0  0  0  0  0  0  0  0  0
   20.9931   -4.9757  -14.9101 C   0  0  2  0  0  0  0  0  0  0  0  0
   21.0086   -6.3976  -14.5135 N   0  0  0  0  0  0  0  0  0  0  0  0
   22.3520   -4.4524  -14.7077 C   0  0  0  0  0  0  0  0  0  0  0  0
   23.0031   -4.7867  -13.6510 O   0  0  0  0  0  0  0  0  0  0  0  0
   22.9949   -3.6127  -15.5859 O   0  0  0  0  0  0  0  0  0  0  0  0
  2  1  1  0
  3  2  1  0
  3  4  1  6
  5  6  1  1
  5  3  1  0
  7  5  1  0
  8  7  2  0
  9 10  1  0
 11 10  1  6
 11 13  1  0
 11 12  1  0
 12  7  1  0
 13 20  1  0
 14 13  2  0
 16 15  1  0
 16 17  2  0
 18 16  1  0
 19 18  1  1
 19 21  1  0
 20 19  1  0
 21 22  2  0
 21 23  1  0
M  END
$$$$
