ISN.pdb
     RDKit          3D

 23 22  0  0  1  0  0  0  0  0999 V2000
   10.5923  -12.5144  -11.4571 C   0  0  0  0  0  0  0  0  0  0  0  0
   11.9206  -12.6951  -12.2036 C   0  0  0  0  0  0  0  0  0  0  0  0
   12.9094  -11.8030  -11.4968 C   0  0  2  0  0  0  0  0  0  0  0  0
   12.3505  -10.4534  -11.2472 C   0  0  0  0  0  0  0  0  0  0  0  0
   14.2766  -11.8330  -12.1339 C   0  0  2  0  0  0  0  0  0  0  0  0
   14.7700  -13.2216  -12.0271 N   0  0  0  0  0  0  0  0  0  0  0  0
   15.2742  -10.9572  -11.5305 C   0  0  0  0  0  0  0  0  0  0  0  0
   15.6868  -11.1975  -10.3650 O   0  0  0  0  0  0  0  0  0  0  0  0
   18.9089   -7.8927  -11.8734 O   0  0  0  0  0  0  0  0  0  0  0  0
   17.9085   -8.6594  -12.4652 C   0  0  0  0  0  0  0  0  0  0  0  0
   16.8040   -8.9511  -11.4385 C   0  0  2  0  0  0  0  0  0  0  0  0
   15.8569   -9.8130  -12.1437 N   0  0  0  0  0  0  0  0  0  0  0  0
   16.1501   -7.6836  -11.0217 C   0  0  0  0  0  0  0  0  0  0  0  0
   15.3237   -7.1373  -11.7952 O   0  0  0  0  0  0  0  0  0  0  0  0
   14.5421   -3.5536   -8.2595 N   0  0  0  0  0  0  0  0  0  0  0  0
   15.0334   -4.5707   -7.3621 C   0  0  0  0  0  0  0  0  0  0  0  0
   14.8695   -4.3643   -6.1323 O   0  0  0  0  0  0  0  0  0  0  0  0
   15.6896   -5.7772   -7.8920 C   0  0  0  0  0  0  0  0  0  0  0  0
   15.7437   -5.8025   -9.3810 C   0  0  2  0  0  0  0  0  0  0  0  0
   16.4161   -7.0545   -9.7808 N   0  0  0  0  0  0  0  0  0  0  0  0
   16.4700   -4.6953  -10.0197 C   0  0  0  0  0  0  0  0  0  0  0  0
   17.7094   -4.8493  -10.3240 O   0  0  0  0  0  0  0  0  0  0  0  0
   15.9089   -3.4779  -10.3247 O   0  0  0  0  0  0  0  0  0  0  0  0
  2  1  1  0
  3  2  1  0
  3  4  1  6
  5  6  1  1
  5  3  1  0
  7  5  1  0
  8  7  2  0
  9 10  1  0
 11 10  1  6
 11 13  1  0
 11 12  1  0
 12  7  1  0
 13 20  1  0
 14 13  2  0
 16 15  1  0
 16 17  2  0
 18 16  1  0
 19 18  1  1
 19 21  1  0
 20 19  1  0
 21 22  2  0
 21 23  1  0
M  END
$$$$
