ISN.pdb
     RDKit          3D

 23 22  0  0  1  0  0  0  0  0999 V2000
   19.2201  -15.3275  -20.7136 C   0  0  0  0  0  0  0  0  0  0  0  0
   20.5049  -15.3628  -19.8755 C   0  0  0  0  0  0  0  0  0  0  0  0
   20.3423  -14.2830  -18.8358 C   0  0  2  0  0  0  0  0  0  0  0  0
   19.9243  -12.9965  -19.4411 C   0  0  0  0  0  0  0  0  0  0  0  0
   21.5157  -14.2061  -17.8906 C   0  0  2  0  0  0  0  0  0  0  0  0
   21.6838  -15.5517  -17.3041 N   0  0  0  0  0  0  0  0  0  0  0  0
   21.3823  -13.2545  -16.7938 C   0  0  0  0  0  0  0  0  0  0  0  0
   20.3920  -13.3352  -16.0197 O   0  0  0  0  0  0  0  0  0  0  0  0
   24.3736  -10.8206  -15.5518 O   0  0  0  0  0  0  0  0  0  0  0  0
   23.3279  -11.0826  -14.6704 C   0  0  0  0  0  0  0  0  0  0  0  0
   22.0119  -11.2110  -15.4519 C   0  0  2  0  0  0  0  0  0  0  0  0
   22.2897  -12.2012  -16.4909 N   0  0  0  0  0  0  0  0  0  0  0  0
   21.6506   -9.9029  -16.0569 C   0  0  0  0  0  0  0  0  0  0  0  0
   22.1182   -9.5986  -17.1832 O   0  0  0  0  0  0  0  0  0  0  0  0
   19.3028   -5.3399  -17.0468 N   0  0  0  0  0  0  0  0  0  0  0  0
   18.4066   -6.2910  -16.4356 C   0  0  0  0  0  0  0  0  0  0  0  0
   17.1896   -5.9757  -16.3988 O   0  0  0  0  0  0  0  0  0  0  0  0
   18.9235   -7.5573  -15.8913 C   0  0  0  0  0  0  0  0  0  0  0  0
   20.3957   -7.7073  -16.0671 C   0  0  2  0  0  0  0  0  0  0  0  0
   20.7948   -8.9720  -15.4185 N   0  0  0  0  0  0  0  0  0  0  0  0
   21.2269   -6.6408  -15.4898 C   0  0  0  0  0  0  0  0  0  0  0  0
   22.0204   -6.9193  -14.5176 O   0  0  0  0  0  0  0  0  0  0  0  0
   21.2198   -5.3363  -15.9232 O   0  0  0  0  0  0  0  0  0  0  0  0
  2  1  1  0
  3  2  1  0
  3  4  1  6
  5  6  1  1
  5  3  1  0
  7  5  1  0
  8  7  2  0
  9 10  1  0
 11 10  1  1
 11 13  1  0
 11 12  1  0
 12  7  1  0
 13 20  1  0
 14 13  2  0
 16 15  1  0
 16 17  2  0
 18 16  1  0
 19 18  1  1
 19 21  1  0
 20 19  1  0
 21 22  2  0
 21 23  1  0
M  END
$$$$
