ISN.pdb
     RDKit          3D

 23 22  0  0  1  0  0  0  0  0999 V2000
   23.5210  -14.8968  -21.0143 C   0  0  0  0  0  0  0  0  0  0  0  0
   24.8317  -14.8329  -20.2191 C   0  0  0  0  0  0  0  0  0  0  0  0
   24.6689  -13.6826  -19.2581 C   0  0  2  0  0  0  0  0  0  0  0  0
   24.0130  -12.5192  -19.9004 C   0  0  0  0  0  0  0  0  0  0  0  0
   25.9363  -13.3771  -18.4987 C   0  0  2  0  0  0  0  0  0  0  0  0
   26.3087  -14.6081  -17.7716 N   0  0  0  0  0  0  0  0  0  0  0  0
   25.8447  -12.2945  -17.5262 C   0  0  0  0  0  0  0  0  0  0  0  0
   25.1077  -12.4309  -16.5139 O   0  0  0  0  0  0  0  0  0  0  0  0
   27.6860   -8.5695  -17.9817 O   0  0  0  0  0  0  0  0  0  0  0  0
   27.5798   -9.1159  -16.7054 C   0  0  0  0  0  0  0  0  0  0  0  0
   26.3177   -9.9869  -16.6184 C   0  0  2  0  0  0  0  0  0  0  0  0
   26.5285  -11.0489  -17.6006 N   0  0  0  0  0  0  0  0  0  0  0  0
   25.1191   -9.1806  -16.9664 C   0  0  0  0  0  0  0  0  0  0  0  0
   24.7970   -9.0515  -18.1744 O   0  0  0  0  0  0  0  0  0  0  0  0
   20.7323   -6.3684  -16.7147 N   0  0  0  0  0  0  0  0  0  0  0  0
   20.7539   -7.4454  -15.7551 C   0  0  0  0  0  0  0  0  0  0  0  0
   19.6781   -7.6807  -15.1475 O   0  0  0  0  0  0  0  0  0  0  0  0
   21.9900   -8.2102  -15.5223 C   0  0  0  0  0  0  0  0  0  0  0  0
   23.1296   -7.7418  -16.3605 C   0  0  2  0  0  0  0  0  0  0  0  0
   24.3128   -8.5436  -15.9913 N   0  0  0  0  0  0  0  0  0  0  0  0
   23.4999   -6.3265  -16.2140 C   0  0  0  0  0  0  0  0  0  0  0  0
   24.3163   -5.9838  -15.2822 O   0  0  0  0  0  0  0  0  0  0  0  0
   23.0280   -5.3175  -17.0195 O   0  0  0  0  0  0  0  0  0  0  0  0
  2  1  1  0
  3  2  1  0
  3  4  1  6
  5  6  1  1
  5  3  1  0
  7  5  1  0
  8  7  2  0
  9 10  1  0
 11 10  1  6
 11 13  1  0
 11 12  1  0
 12  7  1  0
 13 20  1  0
 14 13  2  0
 16 15  1  0
 16 17  2  0
 18 16  1  0
 19 18  1  1
 19 21  1  0
 20 19  1  0
 21 22  2  0
 21 23  1  0
M  END
$$$$
