ISN.pdb
     RDKit          3D

 23 22  0  0  1  0  0  0  0  0999 V2000
   20.9916  -14.0151  -18.8537 C   0  0  0  0  0  0  0  0  0  0  0  0
   20.0919  -13.8276  -17.6250 C   0  0  0  0  0  0  0  0  0  0  0  0
   19.9156  -12.3379  -17.4733 C   0  0  2  0  0  0  0  0  0  0  0  0
   21.2169  -11.6290  -17.4660 C   0  0  0  0  0  0  0  0  0  0  0  0
   18.9719  -11.9764  -16.3530 C   0  0  2  0  0  0  0  0  0  0  0  0
   17.6779  -12.6218  -16.6563 N   0  0  0  0  0  0  0  0  0  0  0  0
   18.7274  -10.5509  -16.1681 C   0  0  0  0  0  0  0  0  0  0  0  0
   18.5477   -9.8166  -17.1756 O   0  0  0  0  0  0  0  0  0  0  0  0
   18.3121   -8.8448  -12.4841 O   0  0  0  0  0  0  0  0  0  0  0  0
   17.7301   -8.1687  -13.5533 C   0  0  0  0  0  0  0  0  0  0  0  0
   18.5470   -8.4179  -14.8299 C   0  0  2  0  0  0  0  0  0  0  0  0
   18.6661   -9.8722  -14.9190 N   0  0  0  0  0  0  0  0  0  0  0  0
   19.8871   -7.7882  -14.7065 C   0  0  0  0  0  0  0  0  0  0  0  0
   20.8297   -8.4476  -14.2002 O   0  0  0  0  0  0  0  0  0  0  0  0
   23.3119   -3.3222  -17.2309 N   0  0  0  0  0  0  0  0  0  0  0  0
   22.9879   -4.2786  -16.2006 C   0  0  0  0  0  0  0  0  0  0  0  0
   23.8781   -4.5048  -15.3414 O   0  0  0  0  0  0  0  0  0  0  0  0
   21.6725   -4.9392  -16.1851 C   0  0  0  0  0  0  0  0  0  0  0  0
   21.5042   -5.8718  -15.0350 C   0  0  2  0  0  0  0  0  0  0  0  0
   20.1567   -6.4660  -15.1373 N   0  0  0  0  0  0  0  0  0  0  0  0
   21.6157   -5.2734  -13.6968 C   0  0  0  0  0  0  0  0  0  0  0  0
   20.5845   -4.7150  -13.1702 O   0  0  0  0  0  0  0  0  0  0  0  0
   22.7680   -5.2671  -12.9473 O   0  0  0  0  0  0  0  0  0  0  0  0
  2  1  1  0
  3  2  1  0
  3  4  1  1
  5  6  1  6
  5  3  1  0
  7  5  1  0
  8  7  2  0
  9 10  1  0
 11 10  1  1
 11 13  1  0
 11 12  1  0
 12  7  1  0
 13 20  1  0
 14 13  2  0
 16 15  1  0
 16 17  2  0
 18 16  1  0
 19 18  1  6
 19 21  1  0
 20 19  1  0
 21 22  2  0
 21 23  1  0
M  END
$$$$
