ISN.pdb
     RDKit          3D

 23 22  0  0  1  0  0  0  0  0999 V2000
   12.7824   -8.4346  -12.1176 C   0  0  0  0  0  0  0  0  0  0  0  0
   13.7814   -9.5861  -12.2913 C   0  0  0  0  0  0  0  0  0  0  0  0
   15.1480   -8.9526  -12.2255 C   0  0  2  0  0  0  0  0  0  0  0  0
   15.2334   -7.7416  -13.0753 C   0  0  0  0  0  0  0  0  0  0  0  0
   16.2613   -9.9545  -12.4073 C   0  0  2  0  0  0  0  0  0  0  0  0
   16.1574  -10.9193  -11.2932 N   0  0  0  0  0  0  0  0  0  0  0  0
   17.6125   -9.4061  -12.3985 C   0  0  0  0  0  0  0  0  0  0  0  0
   17.9543   -8.6142  -11.4806 O   0  0  0  0  0  0  0  0  0  0  0  0
   20.1798  -10.0280  -15.4828 O   0  0  0  0  0  0  0  0  0  0  0  0
   20.8196   -9.8322  -14.2617 C   0  0  0  0  0  0  0  0  0  0  0  0
   19.9216   -9.0000  -13.3342 C   0  0  2  0  0  0  0  0  0  0  0  0
   18.6291   -9.6826  -13.3548 N   0  0  0  0  0  0  0  0  0  0  0  0
   19.7927   -7.6161  -13.8595 C   0  0  0  0  0  0  0  0  0  0  0  0
   18.8808   -7.3563  -14.6845 O   0  0  0  0  0  0  0  0  0  0  0  0
   20.3426   -2.6010  -14.9853 N   0  0  0  0  0  0  0  0  0  0  0  0
   19.6583   -2.9819  -13.7737 C   0  0  0  0  0  0  0  0  0  0  0  0
   19.0341   -2.0726  -13.1692 O   0  0  0  0  0  0  0  0  0  0  0  0
   19.7091   -4.3734  -13.2962 C   0  0  0  0  0  0  0  0  0  0  0  0
   20.6082   -5.2358  -14.1138 C   0  0  2  0  0  0  0  0  0  0  0  0
   20.6574   -6.5636  -13.4706 N   0  0  0  0  0  0  0  0  0  0  0  0
   21.9953   -4.7698  -14.2569 C   0  0  0  0  0  0  0  0  0  0  0  0
   22.2275   -3.6696  -14.8798 O   0  0  0  0  0  0  0  0  0  0  0  0
   23.0894   -5.4382  -13.7612 O   0  0  0  0  0  0  0  0  0  0  0  0
  2  1  1  0
  3  2  1  0
  3  4  1  6
  5  6  1  1
  5  3  1  0
  7  5  1  0
  8  7  2  0
  9 10  1  0
 11 10  1  6
 11 13  1  0
 11 12  1  0
 12  7  1  0
 13 20  1  0
 14 13  2  0
 16 15  1  0
 16 17  2  0
 18 16  1  0
 19 18  1  1
 19 21  1  0
 20 19  1  0
 21 22  2  0
 21 23  1  0
M  END
$$$$
