ISN.pdb
     RDKit          3D

 23 22  0  0  1  0  0  0  0  0999 V2000
   14.9212  -10.9763  -18.5125 C   0  0  0  0  0  0  0  0  0  0  0  0
   16.2524  -11.6888  -18.2397 C   0  0  0  0  0  0  0  0  0  0  0  0
   16.9706  -10.8352  -17.2254 C   0  0  2  0  0  0  0  0  0  0  0  0
   16.9999   -9.4097  -17.6298 C   0  0  0  0  0  0  0  0  0  0  0  0
   18.2976  -11.4205  -16.8098 C   0  0  2  0  0  0  0  0  0  0  0  0
   18.0326  -12.7971  -16.3432 N   0  0  0  0  0  0  0  0  0  0  0  0
   18.9933  -10.7131  -15.7412 C   0  0  0  0  0  0  0  0  0  0  0  0
   18.4317  -10.5722  -14.6226 O   0  0  0  0  0  0  0  0  0  0  0  0
   22.9454   -9.9641  -15.8035 O   0  0  0  0  0  0  0  0  0  0  0  0
   22.2988   -9.9550  -14.5703 C   0  0  0  0  0  0  0  0  0  0  0  0
   20.8840   -9.3793  -14.7317 C   0  0  2  0  0  0  0  0  0  0  0  0
   20.2935  -10.1422  -15.8301 N   0  0  0  0  0  0  0  0  0  0  0  0
   20.9592   -7.9359  -15.0762 C   0  0  0  0  0  0  0  0  0  0  0  0
   20.8451   -7.5860  -16.2780 O   0  0  0  0  0  0  0  0  0  0  0  0
   21.1952   -2.7900  -15.1199 N   0  0  0  0  0  0  0  0  0  0  0  0
   19.9727   -3.4373  -14.7103 C   0  0  0  0  0  0  0  0  0  0  0  0
   18.9574   -2.7037  -14.5959 O   0  0  0  0  0  0  0  0  0  0  0  0
   19.9492   -4.8853  -14.4466 C   0  0  0  0  0  0  0  0  0  0  0  0
   21.3049   -5.5034  -14.4772 C   0  0  2  0  0  0  0  0  0  0  0  0
   21.1550   -6.9239  -14.1046 N   0  0  0  0  0  0  0  0  0  0  0  0
   22.3021   -4.9181  -13.5691 C   0  0  0  0  0  0  0  0  0  0  0  0
   22.3582   -5.3251  -12.3511 O   0  0  0  0  0  0  0  0  0  0  0  0
   23.2019   -3.9451  -13.9341 O   0  0  0  0  0  0  0  0  0  0  0  0
  2  1  1  0
  3  2  1  0
  3  4  1  6
  5  6  1  1
  5  3  1  0
  7  5  1  0
  8  7  2  0
  9 10  1  0
 11 10  1  6
 11 13  1  0
 11 12  1  0
 12  7  1  0
 13 20  1  0
 14 13  2  0
 16 15  1  0
 16 17  2  0
 18 16  1  0
 19 18  1  1
 19 21  1  0
 20 19  1  0
 21 22  2  0
 21 23  1  0
M  END
$$$$
