QFF.pdb
     RDKit          3D

 32 33  0  0  1  0  0  0  0  0999 V2000
    9.3979  -17.1080   15.3159 N   0  0  0  0  0  0  0  0  0  0  0  0
   10.3736  -17.7875   16.0962 C   0  0  0  0  0  0  0  0  0  0  0  0
   11.5512  -17.7466   15.5994 O   0  0  0  0  0  0  0  0  0  0  0  0
   10.0891  -18.4841   17.3663 C   0  0  0  0  0  0  0  0  0  0  0  0
   10.6526  -17.8358   18.5703 C   0  0  0  0  0  0  0  0  0  0  0  0
   10.3278  -18.4372   19.8940 C   0  0  2  0  0  0  0  0  0  0  0  0
    9.2013  -19.3372   19.8184 N   0  0  0  0  0  0  0  0  0  0  0  0
   10.0663  -17.4426   20.9502 C   0  0  0  0  0  0  0  0  0  0  0  0
   10.9503  -16.6021   21.2537 O   0  0  0  0  0  0  0  0  0  0  0  0
    8.8733  -17.3334   21.6828 N   0  0  0  0  0  0  0  0  0  0  0  0
    8.6315  -16.3963   22.7440 C   0  0  1  0  0  0  0  0  0  0  0  0
    7.2439  -15.9316   22.8913 C   0  0  0  0  0  0  0  0  0  0  0  0
    7.0955  -14.8575   23.8803 C   0  0  0  0  0  0  0  0  0  0  0  0
    6.4748  -15.1356   25.1013 C   0  0  0  0  0  0  0  0  0  0  0  0
    6.3204  -14.2035   26.0921 C   0  0  0  0  0  0  0  0  0  0  0  0
    6.7828  -12.9107   25.9250 C   0  0  0  0  0  0  0  0  0  0  0  0
    7.4002  -12.5985   24.7347 C   0  0  0  0  0  0  0  0  0  0  0  0
    7.5491  -13.5621   23.7372 C   0  0  0  0  0  0  0  0  0  0  0  0
    9.1477  -16.9850   23.9908 C   0  0  0  0  0  0  0  0  0  0  0  0
    8.9454  -18.2003   24.2185 O   0  0  0  0  0  0  0  0  0  0  0  0
    9.8718  -16.2430   24.9580 N   0  0  0  0  0  0  0  0  0  0  0  0
   10.7825  -16.9776   25.8289 C   0  0  1  0  0  0  0  0  0  0  0  0
   11.7602  -16.0151   26.4686 C   0  0  0  0  0  0  0  0  0  0  0  0
   11.0469  -15.1243   27.3998 C   0  0  0  0  0  0  0  0  0  0  0  0
   10.4159  -13.9648   26.9577 C   0  0  0  0  0  0  0  0  0  0  0  0
    9.7098  -13.1197   27.7868 C   0  0  0  0  0  0  0  0  0  0  0  0
    9.6174  -13.4256   29.1229 C   0  0  0  0  0  0  0  0  0  0  0  0
   10.2404  -14.5842   29.6087 C   0  0  0  0  0  0  0  0  0  0  0  0
   10.9353  -15.4055   28.7550 C   0  0  0  0  0  0  0  0  0  0  0  0
   10.0044  -17.6535   26.8597 C   0  0  0  0  0  0  0  0  0  0  0  0
   10.5104  -18.5778   27.7543 O   0  0  0  0  0  0  0  0  0  0  0  0
    8.7588  -17.3952   26.9671 O   0  0  0  0  0  0  0  0  0  0  0  0
  2  1  1  0
  3  2  2  0
  4  2  1  0
  5  4  1  0
  6  5  1  0
  6  7  1  6
  8  6  1  0
  8  9  2  0
 10  8  1  0
 11 10  1  0
 11 12  1  1
 12 13  1  0
 13 14  2  0
 13 18  1  0
 14 15  1  0
 15 16  2  0
 17 16  1  0
 18 17  2  0
 19 11  1  0
 20 19  2  0
 21 19  1  0
 22 21  1  0
 22 23  1  1
 23 24  1  0
 24 29  1  0
 25 24  2  0
 25 26  1  0
 26 27  2  0
 27 28  1  0
 29 28  2  0
 30 31  1  0
 30 22  1  0
 32 30  2  0
M  END
$$$$
