QFF.pdb
     RDKit          3D

 32 33  0  0  1  0  0  0  0  0999 V2000
   14.3240  -19.0653   20.2464 N   0  0  0  0  0  0  0  0  0  0  0  0
   13.9047  -18.5952   18.9714 C   0  0  0  0  0  0  0  0  0  0  0  0
   14.3440  -19.2933   17.9942 O   0  0  0  0  0  0  0  0  0  0  0  0
   13.0422  -17.4160   18.7591 C   0  0  0  0  0  0  0  0  0  0  0  0
   12.4444  -16.8538   19.9895 C   0  0  0  0  0  0  0  0  0  0  0  0
   11.0571  -17.2718   20.3362 C   0  0  2  0  0  0  0  0  0  0  0  0
   10.1387  -17.0616   19.2421 N   0  0  0  0  0  0  0  0  0  0  0  0
   10.5192  -16.6074   21.5373 C   0  0  0  0  0  0  0  0  0  0  0  0
   11.1723  -15.6872   22.0911 O   0  0  0  0  0  0  0  0  0  0  0  0
    9.2936  -16.9119   22.1511 N   0  0  0  0  0  0  0  0  0  0  0  0
    8.7874  -16.2989   23.3473 C   0  0  1  0  0  0  0  0  0  0  0  0
    7.3406  -16.0363   23.3757 C   0  0  0  0  0  0  0  0  0  0  0  0
    6.9547  -15.0302   24.3720 C   0  0  0  0  0  0  0  0  0  0  0  0
    6.1302  -15.4056   25.4364 C   0  0  0  0  0  0  0  0  0  0  0  0
    5.7453  -14.5416   26.4261 C   0  0  0  0  0  0  0  0  0  0  0  0
    6.1649  -13.2236   26.4168 C   0  0  0  0  0  0  0  0  0  0  0  0
    6.9787  -12.8162   25.3837 C   0  0  0  0  0  0  0  0  0  0  0  0
    7.3611  -13.7115   24.3847 C   0  0  0  0  0  0  0  0  0  0  0  0
    9.2179  -17.1200   24.4909 C   0  0  0  0  0  0  0  0  0  0  0  0
    9.3789  -18.3519   24.3284 O   0  0  0  0  0  0  0  0  0  0  0  0
    9.4655  -16.5857   25.7807 N   0  0  0  0  0  0  0  0  0  0  0  0
    9.9119  -17.5080   26.8189 C   0  0  1  0  0  0  0  0  0  0  0  0
   10.2084  -16.7384   28.0883 C   0  0  0  0  0  0  0  0  0  0  0  0
   10.9385  -15.5013   27.7630 C   0  0  0  0  0  0  0  0  0  0  0  0
   11.7406  -15.4068   26.6292 C   0  0  0  0  0  0  0  0  0  0  0  0
   12.4154  -14.2603   26.2682 C   0  0  0  0  0  0  0  0  0  0  0  0
   12.2999  -13.1448   27.0617 C   0  0  0  0  0  0  0  0  0  0  0  0
   11.5025  -13.1991   28.2139 C   0  0  0  0  0  0  0  0  0  0  0  0
   10.8425  -14.3573   28.5442 C   0  0  0  0  0  0  0  0  0  0  0  0
    8.8581  -18.4846   27.0648 C   0  0  0  0  0  0  0  0  0  0  0  0
    9.0569  -19.7475   27.5906 O   0  0  0  0  0  0  0  0  0  0  0  0
    7.6512  -18.1809   26.7806 O   0  0  0  0  0  0  0  0  0  0  0  0
  2  1  1  0
  3  2  2  0
  4  2  1  0
  5  4  1  0
  6  5  1  0
  6  7  1  6
  8  6  1  0
  8  9  2  0
 10  8  1  0
 11 10  1  0
 11 12  1  6
 12 13  1  0
 13 14  2  0
 13 18  1  0
 14 15  1  0
 15 16  2  0
 17 16  1  0
 18 17  2  0
 19 11  1  0
 20 19  2  0
 21 19  1  0
 22 21  1  0
 22 23  1  1
 23 24  1  0
 24 29  1  0
 25 24  2  0
 25 26  1  0
 26 27  2  0
 27 28  1  0
 29 28  2  0
 30 31  1  0
 30 22  1  0
 32 30  2  0
M  END
$$$$
