QFF.pdb
     RDKit          3D

 32 33  0  0  1  0  0  0  0  0999 V2000
   12.9859  -18.0908   17.0390 N   0  0  0  0  0  0  0  0  0  0  0  0
   11.6929  -18.6710   16.9212 C   0  0  0  0  0  0  0  0  0  0  0  0
   11.5575  -19.4257   15.8978 O   0  0  0  0  0  0  0  0  0  0  0  0
   10.5874  -18.4461   17.8734 C   0  0  0  0  0  0  0  0  0  0  0  0
   10.9268  -17.5857   19.0275 C   0  0  0  0  0  0  0  0  0  0  0  0
   10.3723  -17.9642   20.3574 C   0  0  2  0  0  0  0  0  0  0  0  0
    9.1813  -18.7717   20.2378 N   0  0  0  0  0  0  0  0  0  0  0  0
   10.0747  -16.8116   21.2269 C   0  0  0  0  0  0  0  0  0  0  0  0
   10.9504  -15.9316   21.4242 O   0  0  0  0  0  0  0  0  0  0  0  0
    8.8547  -16.5866   21.8847 N   0  0  0  0  0  0  0  0  0  0  0  0
    8.6043  -15.5428   22.8390 C   0  0  1  0  0  0  0  0  0  0  0  0
    7.2042  -15.3705   23.2548 C   0  0  0  0  0  0  0  0  0  0  0  0
    7.0120  -14.2581   24.1926 C   0  0  0  0  0  0  0  0  0  0  0  0
    7.5432  -13.0035   23.8807 C   0  0  0  0  0  0  0  0  0  0  0  0
    7.3871  -11.9042   24.6816 C   0  0  0  0  0  0  0  0  0  0  0  0
    6.6791  -11.9878   25.8669 C   0  0  0  0  0  0  0  0  0  0  0  0
    6.1404  -13.2079   26.2084 C   0  0  0  0  0  0  0  0  0  0  0  0
    6.3094  -14.3165   25.3789 C   0  0  0  0  0  0  0  0  0  0  0  0
    9.4949  -15.7625   23.9906 C   0  0  0  0  0  0  0  0  0  0  0  0
   10.0680  -14.7780   24.5123 O   0  0  0  0  0  0  0  0  0  0  0  0
    9.7403  -17.0424   24.5492 N   0  0  0  0  0  0  0  0  0  0  0  0
   10.3705  -17.0954   25.8636 C   0  0  1  0  0  0  0  0  0  0  0  0
    9.3131  -16.9666   26.9391 C   0  0  0  0  0  0  0  0  0  0  0  0
    9.5498  -15.7457   27.7283 C   0  0  0  0  0  0  0  0  0  0  0  0
    9.1561  -14.4930   27.2660 C   0  0  0  0  0  0  0  0  0  0  0  0
    9.3274  -13.3289   27.9841 C   0  0  0  0  0  0  0  0  0  0  0  0
    9.9183  -13.3942   29.2226 C   0  0  0  0  0  0  0  0  0  0  0  0
   10.3308  -14.6371   29.7240 C   0  0  0  0  0  0  0  0  0  0  0  0
   10.1439  -15.7783   28.9830 C   0  0  0  0  0  0  0  0  0  0  0  0
   11.0656  -18.3693   26.0005 C   0  0  0  0  0  0  0  0  0  0  0  0
   11.9551  -18.6806   27.0118 O   0  0  0  0  0  0  0  0  0  0  0  0
   10.8601  -19.2851   25.1351 O   0  0  0  0  0  0  0  0  0  0  0  0
  2  1  1  0
  3  2  2  0
  4  2  1  0
  5  4  1  0
  6  5  1  0
  6  7  1  6
  8  6  1  0
  8  9  2  0
 10  8  1  0
 11 10  1  0
 11 12  1  1
 12 13  1  0
 13 14  2  0
 13 18  1  0
 14 15  1  0
 15 16  2  0
 17 16  1  0
 18 17  2  0
 19 11  1  0
 20 19  2  0
 21 19  1  0
 22 21  1  0
 22 23  1  1
 23 24  1  0
 24 29  1  0
 25 24  2  0
 25 26  1  0
 26 27  2  0
 27 28  1  0
 29 28  2  0
 30 31  1  0
 30 22  1  0
 32 30  2  0
M  END
$$$$
