QFF.pdb
     RDKit          3D

 32 33  0  0  1  0  0  0  0  0999 V2000
    7.7745  -13.1163   16.4716 N   0  0  0  0  0  0  0  0  0  0  0  0
    8.1048  -14.3775   15.9034 C   0  0  0  0  0  0  0  0  0  0  0  0
    7.6104  -14.5639   14.7389 O   0  0  0  0  0  0  0  0  0  0  0  0
    8.9387  -15.3991   16.5670 C   0  0  0  0  0  0  0  0  0  0  0  0
    9.5036  -14.9889   17.8708 C   0  0  0  0  0  0  0  0  0  0  0  0
    9.7295  -16.0516   18.8902 C   0  0  2  0  0  0  0  0  0  0  0  0
    8.8021  -17.1486   18.7439 N   0  0  0  0  0  0  0  0  0  0  0  0
    9.6675  -15.5642   20.2801 C   0  0  0  0  0  0  0  0  0  0  0  0
   10.4954  -14.7082   20.6826 O   0  0  0  0  0  0  0  0  0  0  0  0
    8.7323  -15.9775   21.2426 N   0  0  0  0  0  0  0  0  0  0  0  0
    8.5812  -15.4098   22.5532 C   0  0  1  0  0  0  0  0  0  0  0  0
    7.2214  -14.9871   22.9209 C   0  0  0  0  0  0  0  0  0  0  0  0
    7.1752  -14.1994   24.1583 C   0  0  0  0  0  0  0  0  0  0  0  0
    6.7854  -14.8206   25.3482 C   0  0  0  0  0  0  0  0  0  0  0  0
    6.7423  -14.1711   26.5525 C   0  0  0  0  0  0  0  0  0  0  0  0
    7.0907  -12.8360   26.6488 C   0  0  0  0  0  0  0  0  0  0  0  0
    7.4804  -12.1895   25.4975 C   0  0  0  0  0  0  0  0  0  0  0  0
    7.5189  -12.8684   24.2795 C   0  0  0  0  0  0  0  0  0  0  0  0
    9.1398  -16.3647   23.5246 C   0  0  0  0  0  0  0  0  0  0  0  0
    8.9462  -17.5905   23.3523 O   0  0  0  0  0  0  0  0  0  0  0  0
    9.8960  -15.9679   24.6565 N   0  0  0  0  0  0  0  0  0  0  0  0
   10.6469  -17.0003   25.3621 C   0  0  1  0  0  0  0  0  0  0  0  0
   11.7617  -16.3602   26.1615 C   0  0  0  0  0  0  0  0  0  0  0  0
   11.1923  -15.5396   27.2440 C   0  0  0  0  0  0  0  0  0  0  0  0
   11.0755  -16.0279   28.5424 C   0  0  0  0  0  0  0  0  0  0  0  0
   10.5798  -15.2852   29.5926 C   0  0  0  0  0  0  0  0  0  0  0  0
   10.1746  -13.9935   29.3587 C   0  0  0  0  0  0  0  0  0  0  0  0
   10.2744  -13.4644   28.0640 C   0  0  0  0  0  0  0  0  0  0  0  0
   10.7742  -14.2312   27.0401 C   0  0  0  0  0  0  0  0  0  0  0  0
    9.7413  -17.7127   26.2549 C   0  0  0  0  0  0  0  0  0  0  0  0
   10.0858  -18.8123   27.0186 O   0  0  0  0  0  0  0  0  0  0  0  0
    8.5321  -17.3168   26.3584 O   0  0  0  0  0  0  0  0  0  0  0  0
  2  1  1  0
  3  2  2  0
  4  2  1  0
  5  4  1  0
  6  5  1  0
  6  7  1  1
  8  6  1  0
  8  9  2  0
 10  8  1  0
 11 10  1  0
 11 12  1  1
 12 13  1  0
 13 14  2  0
 13 18  1  0
 14 15  1  0
 15 16  2  0
 17 16  1  0
 18 17  2  0
 19 11  1  0
 20 19  2  0
 21 19  1  0
 22 21  1  0
 22 23  1  1
 23 24  1  0
 24 29  1  0
 25 24  2  0
 25 26  1  0
 26 27  2  0
 27 28  1  0
 29 28  2  0
 30 31  1  0
 30 22  1  0
 32 30  2  0
M  END
$$$$
