QFF.pdb
     RDKit          3D

 32 33  0  0  1  0  0  0  0  0999 V2000
    8.2773  -12.9019   18.1465 N   0  0  0  0  0  0  0  0  0  0  0  0
    8.5382  -13.9888   17.2673 C   0  0  0  0  0  0  0  0  0  0  0  0
    8.5182  -13.6673   16.0297 O   0  0  0  0  0  0  0  0  0  0  0  0
    8.8118  -15.3711   17.7074 C   0  0  0  0  0  0  0  0  0  0  0  0
   10.2003  -15.6179   18.1530 C   0  0  0  0  0  0  0  0  0  0  0  0
   10.3975  -16.4784   19.3531 C   0  0  2  0  0  0  0  0  0  0  0  0
    9.7023  -17.7385   19.2362 N   0  0  0  0  0  0  0  0  0  0  0  0
    9.9974  -15.8349   20.6176 C   0  0  0  0  0  0  0  0  0  0  0  0
   10.5229  -14.7461   20.9615 O   0  0  0  0  0  0  0  0  0  0  0  0
    9.0428  -16.3382   21.5161 N   0  0  0  0  0  0  0  0  0  0  0  0
    8.7117  -15.7598   22.7884 C   0  0  1  0  0  0  0  0  0  0  0  0
    7.2884  -15.4650   23.0128 C   0  0  0  0  0  0  0  0  0  0  0  0
    7.0611  -14.5026   24.0972 C   0  0  0  0  0  0  0  0  0  0  0  0
    6.2966  -14.8879   25.2020 C   0  0  0  0  0  0  0  0  0  0  0  0
    6.0587  -14.0664   26.2710 C   0  0  0  0  0  0  0  0  0  0  0  0
    6.5767  -12.7843   26.3067 C   0  0  0  0  0  0  0  0  0  0  0  0
    7.3354  -12.3684   25.2357 C   0  0  0  0  0  0  0  0  0  0  0  0
    7.5676  -13.2202   24.1558 C   0  0  0  0  0  0  0  0  0  0  0  0
    9.2624  -16.6338   23.8373 C   0  0  0  0  0  0  0  0  0  0  0  0
    9.9329  -17.6378   23.5019 O   0  0  0  0  0  0  0  0  0  0  0  0
    9.0751  -16.3970   25.2227 N   0  0  0  0  0  0  0  0  0  0  0  0
    9.6830  -17.3384   26.1564 C   0  0  1  0  0  0  0  0  0  0  0  0
    9.3595  -16.9252   27.5764 C   0  0  0  0  0  0  0  0  0  0  0  0
    9.8494  -15.5581   27.8224 C   0  0  0  0  0  0  0  0  0  0  0  0
   11.1804  -15.3096   28.1460 C   0  0  0  0  0  0  0  0  0  0  0  0
   11.6898  -14.0454   28.3521 C   0  0  0  0  0  0  0  0  0  0  0  0
   10.8496  -12.9646   28.2366 C   0  0  0  0  0  0  0  0  0  0  0  0
    9.5010  -13.1723   27.9135 C   0  0  0  0  0  0  0  0  0  0  0  0
    9.0260  -14.4453   27.7133 C   0  0  0  0  0  0  0  0  0  0  0  0
    9.1521  -18.6702   25.8936 C   0  0  0  0  0  0  0  0  0  0  0  0
    9.7882  -19.8537   26.2183 O   0  0  0  0  0  0  0  0  0  0  0  0
    8.0179  -18.7844   25.3189 O   0  0  0  0  0  0  0  0  0  0  0  0
  2  1  1  0
  3  2  2  0
  4  2  1  0
  5  4  1  0
  6  5  1  0
  6  7  1  6
  8  6  1  0
  8  9  2  0
 10  8  1  0
 11 10  1  0
 11 12  1  1
 12 13  1  0
 13 14  2  0
 13 18  1  0
 14 15  1  0
 15 16  2  0
 17 16  1  0
 18 17  2  0
 19 11  1  0
 20 19  2  0
 21 19  1  0
 22 21  1  0
 22 23  1  1
 23 24  1  0
 24 29  1  0
 25 24  2  0
 25 26  1  0
 26 27  2  0
 27 28  1  0
 29 28  2  0
 30 31  1  0
 30 22  1  0
 32 30  2  0
M  END
$$$$
