QFF.pdb
     RDKit          3D

 32 33  0  0  1  0  0  0  0  0999 V2000
   12.1593  -19.2491   16.6174 N   0  0  0  0  0  0  0  0  0  0  0  0
   11.0330  -18.3986   16.7917 C   0  0  0  0  0  0  0  0  0  0  0  0
   11.0475  -17.3630   16.0415 O   0  0  0  0  0  0  0  0  0  0  0  0
    9.9311  -18.6568   17.7397 C   0  0  0  0  0  0  0  0  0  0  0  0
    9.8092  -17.6697   18.8343 C   0  0  0  0  0  0  0  0  0  0  0  0
    9.5869  -18.1910   20.2121 C   0  0  2  0  0  0  0  0  0  0  0  0
    8.3890  -18.9923   20.3015 N   0  0  0  0  0  0  0  0  0  0  0  0
    9.5279  -17.1388   21.2430 C   0  0  0  0  0  0  0  0  0  0  0  0
   10.4559  -16.2957   21.3331 O   0  0  0  0  0  0  0  0  0  0  0  0
    8.4906  -16.9751   22.1751 N   0  0  0  0  0  0  0  0  0  0  0  0
    8.3767  -15.8918   23.1112 C   0  0  1  0  0  0  0  0  0  0  0  0
    7.0936  -15.7850   23.8221 C   0  0  0  0  0  0  0  0  0  0  0  0
    6.9517  -14.5330   24.5745 C   0  0  0  0  0  0  0  0  0  0  0  0
    7.2656  -13.3226   23.9501 C   0  0  0  0  0  0  0  0  0  0  0  0
    7.1348  -12.1067   24.5655 C   0  0  0  0  0  0  0  0  0  0  0  0
    6.6751  -12.0187   25.8670 C   0  0  0  0  0  0  0  0  0  0  0  0
    6.3554  -13.1903   26.5156 C   0  0  0  0  0  0  0  0  0  0  0  0
    6.4944  -14.4198   25.8716 C   0  0  0  0  0  0  0  0  0  0  0  0
    9.5135  -15.9801   24.0425 C   0  0  0  0  0  0  0  0  0  0  0  0
   10.4527  -15.1578   23.9350 O   0  0  0  0  0  0  0  0  0  0  0  0
    9.6031  -16.9552   25.0681 N   0  0  0  0  0  0  0  0  0  0  0  0
   10.9218  -17.2237   25.6305 C   0  0  1  0  0  0  0  0  0  0  0  0
   11.6316  -15.9156   25.9073 C   0  0  0  0  0  0  0  0  0  0  0  0
   11.0789  -15.2953   27.1235 C   0  0  0  0  0  0  0  0  0  0  0  0
   10.2991  -14.1438   27.0626 C   0  0  0  0  0  0  0  0  0  0  0  0
    9.7346  -13.5480   28.1702 C   0  0  0  0  0  0  0  0  0  0  0  0
    9.9464  -14.1096   29.4059 C   0  0  0  0  0  0  0  0  0  0  0  0
   10.7277  -15.2693   29.5104 C   0  0  0  0  0  0  0  0  0  0  0  0
   11.2745  -15.8384   28.3864 C   0  0  0  0  0  0  0  0  0  0  0  0
   10.7603  -17.9731   26.8703 C   0  0  0  0  0  0  0  0  0  0  0  0
   11.7991  -18.4565   27.6436 O   0  0  0  0  0  0  0  0  0  0  0  0
    9.5830  -18.2197   27.2981 O   0  0  0  0  0  0  0  0  0  0  0  0
  2  1  1  0
  3  2  2  0
  4  2  1  0
  5  4  1  0
  6  5  1  0
  6  7  1  6
  8  6  1  0
  8  9  2  0
 10  8  1  0
 11 10  1  0
 11 12  1  1
 12 13  1  0
 13 14  2  0
 13 18  1  0
 14 15  1  0
 15 16  2  0
 17 16  1  0
 18 17  2  0
 19 11  1  0
 20 19  2  0
 21 19  1  0
 22 21  1  0
 22 23  1  1
 23 24  1  0
 24 29  1  0
 25 24  2  0
 25 26  1  0
 26 27  2  0
 27 28  1  0
 29 28  2  0
 30 31  1  0
 30 22  1  0
 32 30  2  0
M  END
$$$$
