QFF.pdb
     RDKit          3D

 32 33  0  0  1  0  0  0  0  0999 V2000
    4.2124  -18.3432   16.5163 N   0  0  0  0  0  0  0  0  0  0  0  0
    5.5495  -18.7672   16.2822 C   0  0  0  0  0  0  0  0  0  0  0  0
    5.7270  -19.3041   15.1353 O   0  0  0  0  0  0  0  0  0  0  0  0
    6.6544  -18.6161   17.2496 C   0  0  0  0  0  0  0  0  0  0  0  0
    6.2826  -17.9545   18.5190 C   0  0  0  0  0  0  0  0  0  0  0  0
    7.0560  -18.3182   19.7393 C   0  0  2  0  0  0  0  0  0  0  0  0
    6.5189  -19.4887   20.3922 N   0  0  0  0  0  0  0  0  0  0  0  0
    7.1519  -17.2292   20.7283 C   0  0  0  0  0  0  0  0  0  0  0  0
    7.5143  -16.0817   20.3651 O   0  0  0  0  0  0  0  0  0  0  0  0
    6.8635  -17.3504   22.0972 N   0  0  0  0  0  0  0  0  0  0  0  0
    7.0932  -16.3368   23.0885 C   0  0  1  0  0  0  0  0  0  0  0  0
    6.2151  -16.3762   24.2677 C   0  0  0  0  0  0  0  0  0  0  0  0
    6.4829  -15.2964   25.2247 C   0  0  0  0  0  0  0  0  0  0  0  0
    5.8290  -14.0707   25.0706 C   0  0  0  0  0  0  0  0  0  0  0  0
    5.9957  -13.0197   25.9319 C   0  0  0  0  0  0  0  0  0  0  0  0
    6.8414  -13.1255   27.0212 C   0  0  0  0  0  0  0  0  0  0  0  0
    7.5037  -14.3182   27.2064 C   0  0  0  0  0  0  0  0  0  0  0  0
    7.3202  -15.3783   26.3185 C   0  0  0  0  0  0  0  0  0  0  0  0
    8.5162  -16.3876   23.4629 C   0  0  0  0  0  0  0  0  0  0  0  0
    9.0405  -17.4983   23.7101 O   0  0  0  0  0  0  0  0  0  0  0  0
    9.3356  -15.2343   23.5577 N   0  0  0  0  0  0  0  0  0  0  0  0
   10.7805  -15.4272   23.5083 C   0  0  1  0  0  0  0  0  0  0  0  0
   11.4159  -14.3033   22.7180 C   0  0  0  0  0  0  0  0  0  0  0  0
   10.5312  -13.9116   21.6075 C   0  0  0  0  0  0  0  0  0  0  0  0
   10.6870  -14.4442   20.3308 C   0  0  0  0  0  0  0  0  0  0  0  0
    9.8632  -14.1320   19.2706 C   0  0  0  0  0  0  0  0  0  0  0  0
    8.8304  -13.2483   19.4707 C   0  0  0  0  0  0  0  0  0  0  0  0
    8.6403  -12.6881   20.7421 C   0  0  0  0  0  0  0  0  0  0  0  0
    9.4788  -13.0217   21.7773 C   0  0  0  0  0  0  0  0  0  0  0  0
   11.3008  -15.4329   24.8699 C   0  0  0  0  0  0  0  0  0  0  0  0
   12.6061  -15.7273   25.2168 O   0  0  0  0  0  0  0  0  0  0  0  0
   10.5153  -15.1518   25.8361 O   0  0  0  0  0  0  0  0  0  0  0  0
  2  1  1  0
  3  2  2  0
  4  2  1  0
  5  4  1  0
  6  5  1  0
  6  7  1  1
  8  6  1  0
  8  9  2  0
 10  8  1  0
 11 10  1  0
 11 12  1  1
 12 13  1  0
 13 14  2  0
 13 18  1  0
 14 15  1  0
 15 16  2  0
 17 16  1  0
 18 17  2  0
 19 11  1  0
 20 19  2  0
 21 19  1  0
 22 21  1  0
 22 23  1  6
 23 24  1  0
 24 29  1  0
 25 24  2  0
 25 26  1  0
 26 27  2  0
 27 28  1  0
 29 28  2  0
 30 31  1  0
 30 22  1  0
 32 30  2  0
M  END
$$$$
