QFF.pdb
     RDKit          3D

 32 33  0  0  1  0  0  0  0  0999 V2000
    9.6003  -14.3618   15.9890 N   0  0  0  0  0  0  0  0  0  0  0  0
    8.9847  -15.6434   16.0196 C   0  0  0  0  0  0  0  0  0  0  0  0
    8.4615  -15.9911   14.9057 O   0  0  0  0  0  0  0  0  0  0  0  0
    8.9367  -16.5180   17.2080 C   0  0  0  0  0  0  0  0  0  0  0  0
   10.2062  -16.6137   17.9606 C   0  0  0  0  0  0  0  0  0  0  0  0
   10.1967  -17.3852   19.2351 C   0  0  2  0  0  0  0  0  0  0  0  0
    9.1724  -18.4029   19.2445 N   0  0  0  0  0  0  0  0  0  0  0  0
   10.0380  -16.5458   20.4365 C   0  0  0  0  0  0  0  0  0  0  0  0
   10.8677  -15.6330   20.6784 O   0  0  0  0  0  0  0  0  0  0  0  0
    9.0045  -16.6676   21.3792 N   0  0  0  0  0  0  0  0  0  0  0  0
    8.8089  -15.8101   22.5147 C   0  0  1  0  0  0  0  0  0  0  0  0
    7.4318  -15.3482   22.7453 C   0  0  0  0  0  0  0  0  0  0  0  0
    7.3223  -14.3813   23.8438 C   0  0  0  0  0  0  0  0  0  0  0  0
    7.8970  -13.1156   23.6983 C   0  0  0  0  0  0  0  0  0  0  0  0
    7.8180  -12.1426   24.6581 C   0  0  0  0  0  0  0  0  0  0  0  0
    7.1496  -12.3744   25.8467 C   0  0  0  0  0  0  0  0  0  0  0  0
    6.5700  -13.6102   26.0269 C   0  0  0  0  0  0  0  0  0  0  0  0
    6.6603  -14.5886   25.0368 C   0  0  0  0  0  0  0  0  0  0  0  0
    9.3629  -16.4931   23.6954 C   0  0  0  0  0  0  0  0  0  0  0  0
    8.8596  -17.5810   24.0602 O   0  0  0  0  0  0  0  0  0  0  0  0
   10.4493  -15.9817   24.4495 N   0  0  0  0  0  0  0  0  0  0  0  0
   10.9659  -16.8083   25.5346 C   0  0  1  0  0  0  0  0  0  0  0  0
    9.9285  -16.9117   26.6321 C   0  0  0  0  0  0  0  0  0  0  0  0
    9.8916  -15.6577   27.4039 C   0  0  0  0  0  0  0  0  0  0  0  0
   11.0594  -14.9924   27.7666 C   0  0  0  0  0  0  0  0  0  0  0  0
   11.0719  -13.8007   28.4595 C   0  0  0  0  0  0  0  0  0  0  0  0
    9.8752  -13.2294   28.8185 C   0  0  0  0  0  0  0  0  0  0  0  0
    8.6759  -13.8690   28.4734 C   0  0  0  0  0  0  0  0  0  0  0  0
    8.6990  -15.0551   27.7814 C   0  0  0  0  0  0  0  0  0  0  0  0
   11.2695  -18.1346   25.0115 C   0  0  0  0  0  0  0  0  0  0  0  0
   10.9603  -18.5723   23.7373 O   0  0  0  0  0  0  0  0  0  0  0  0
   11.8623  -18.9783   25.7640 O   0  0  0  0  0  0  0  0  0  0  0  0
  2  1  1  0
  3  2  2  0
  4  2  1  0
  5  4  1  0
  6  5  1  0
  6  7  1  6
  8  6  1  0
  8  9  2  0
 10  8  1  0
 11 10  1  0
 11 12  1  1
 12 13  1  0
 13 14  2  0
 13 18  1  0
 14 15  1  0
 15 16  2  0
 17 16  1  0
 18 17  2  0
 19 11  1  0
 20 19  2  0
 21 19  1  0
 22 21  1  0
 22 23  1  1
 23 24  1  0
 24 29  1  0
 25 24  2  0
 25 26  1  0
 26 27  2  0
 27 28  1  0
 29 28  2  0
 30 31  1  0
 30 22  1  0
 32 30  2  0
M  END
$$$$
