QFF.pdb
     RDKit          3D

 32 33  0  0  1  0  0  0  0  0999 V2000
    9.9295  -15.7670   16.2658 N   0  0  0  0  0  0  0  0  0  0  0  0
    9.5600  -17.1310   16.1058 C   0  0  0  0  0  0  0  0  0  0  0  0
    8.8907  -17.3626   15.0411 O   0  0  0  0  0  0  0  0  0  0  0  0
    9.9013  -18.2053   17.0591 C   0  0  0  0  0  0  0  0  0  0  0  0
   10.6083  -17.7537   18.2771 C   0  0  0  0  0  0  0  0  0  0  0  0
   10.0540  -18.1765   19.5938 C   0  0  2  0  0  0  0  0  0  0  0  0
    8.8468  -18.9551   19.4485 N   0  0  0  0  0  0  0  0  0  0  0  0
    9.7841  -17.0554   20.5122 C   0  0  0  0  0  0  0  0  0  0  0  0
   10.6864  -16.2163   20.7607 O   0  0  0  0  0  0  0  0  0  0  0  0
    8.5636  -16.8188   21.1651 N   0  0  0  0  0  0  0  0  0  0  0  0
    8.3505  -15.8520   22.2056 C   0  0  1  0  0  0  0  0  0  0  0  0
    7.1370  -15.0300   22.0844 C   0  0  0  0  0  0  0  0  0  0  0  0
    7.0375  -13.9899   23.1150 C   0  0  0  0  0  0  0  0  0  0  0  0
    7.5356  -12.7122   22.8450 C   0  0  0  0  0  0  0  0  0  0  0  0
    7.4587  -11.6751   23.7353 C   0  0  0  0  0  0  0  0  0  0  0  0
    6.8701  -11.8494   24.9748 C   0  0  0  0  0  0  0  0  0  0  0  0
    6.3675  -13.0949   25.2775 C   0  0  0  0  0  0  0  0  0  0  0  0
    6.4544  -14.1392   24.3569 C   0  0  0  0  0  0  0  0  0  0  0  0
    8.4069  -16.5591   23.4957 C   0  0  0  0  0  0  0  0  0  0  0  0
    7.3414  -16.7710   24.1199 O   0  0  0  0  0  0  0  0  0  0  0  0
    9.6156  -17.0209   24.0756 N   0  0  0  0  0  0  0  0  0  0  0  0
   10.1693  -16.2514   25.1842 C   0  0  1  0  0  0  0  0  0  0  0  0
    9.1708  -16.2090   26.3212 C   0  0  0  0  0  0  0  0  0  0  0  0
    9.7217  -15.4258   27.4404 C   0  0  0  0  0  0  0  0  0  0  0  0
    9.6237  -14.0376   27.4744 C   0  0  0  0  0  0  0  0  0  0  0  0
   10.0950  -13.2671   28.5158 C   0  0  0  0  0  0  0  0  0  0  0  0
   10.6968  -13.8897   29.5823 C   0  0  0  0  0  0  0  0  0  0  0  0
   10.8167  -15.2868   29.5859 C   0  0  0  0  0  0  0  0  0  0  0  0
   10.3351  -16.0250   28.5326 C   0  0  0  0  0  0  0  0  0  0  0  0
   11.4022  -16.8890   25.6294 C   0  0  0  0  0  0  0  0  0  0  0  0
   12.4648  -16.2307   26.2195 O   0  0  0  0  0  0  0  0  0  0  0  0
   11.5417  -18.1483   25.4733 O   0  0  0  0  0  0  0  0  0  0  0  0
  2  1  1  0
  3  2  2  0
  4  2  1  0
  5  4  1  0
  6  5  1  0
  6  7  1  6
  8  6  1  0
  8  9  2  0
 10  8  1  0
 11 10  1  0
 11 12  1  6
 12 13  1  0
 13 14  2  0
 13 18  1  0
 14 15  1  0
 15 16  2  0
 17 16  1  0
 18 17  2  0
 19 11  1  0
 20 19  2  0
 21 19  1  0
 22 21  1  0
 22 23  1  1
 23 24  1  0
 24 29  1  0
 25 24  2  0
 25 26  1  0
 26 27  2  0
 27 28  1  0
 29 28  2  0
 30 31  1  0
 30 22  1  0
 32 30  2  0
M  END
$$$$
