QFF.pdb
     RDKit          3D

 32 33  0  0  1  0  0  0  0  0999 V2000
    7.5864  -17.5825   17.2848 N   0  0  0  0  0  0  0  0  0  0  0  0
    8.4915  -18.6764   17.3681 C   0  0  0  0  0  0  0  0  0  0  0  0
    8.2188  -19.6337   16.5653 O   0  0  0  0  0  0  0  0  0  0  0  0
    9.6486  -18.7343   18.2830 C   0  0  0  0  0  0  0  0  0  0  0  0
    9.7883  -17.5686   19.1825 C   0  0  0  0  0  0  0  0  0  0  0  0
    9.7311  -17.8184   20.6501 C   0  0  2  0  0  0  0  0  0  0  0  0
    8.4975  -18.4579   21.0430 N   0  0  0  0  0  0  0  0  0  0  0  0
    9.9137  -16.6048   21.4668 C   0  0  0  0  0  0  0  0  0  0  0  0
   10.9569  -15.9149   21.3412 O   0  0  0  0  0  0  0  0  0  0  0  0
    8.9963  -16.1190   22.4124 N   0  0  0  0  0  0  0  0  0  0  0  0
    9.0410  -14.8201   23.0236 C   0  0  1  0  0  0  0  0  0  0  0  0
    7.8780  -13.9527   22.7827 C   0  0  0  0  0  0  0  0  0  0  0  0
    7.5813  -13.7656   21.3577 C   0  0  0  0  0  0  0  0  0  0  0  0
    8.1456  -12.6811   20.6802 C   0  0  0  0  0  0  0  0  0  0  0  0
    7.9474  -12.4466   19.3460 C   0  0  0  0  0  0  0  0  0  0  0  0
    7.1585  -13.2935   18.5887 C   0  0  0  0  0  0  0  0  0  0  0  0
    6.5850  -14.3735   19.2213 C   0  0  0  0  0  0  0  0  0  0  0  0
    6.7993  -14.5965   20.5815 C   0  0  0  0  0  0  0  0  0  0  0  0
    9.2964  -15.0076   24.4614 C   0  0  0  0  0  0  0  0  0  0  0  0
    9.1918  -14.0242   25.2307 O   0  0  0  0  0  0  0  0  0  0  0  0
    9.6561  -16.2559   25.0296 N   0  0  0  0  0  0  0  0  0  0  0  0
    9.4937  -16.4132   26.4706 C   0  0  1  0  0  0  0  0  0  0  0  0
    8.0218  -16.3787   26.8223 C   0  0  0  0  0  0  0  0  0  0  0  0
    7.5760  -14.9825   26.9687 C   0  0  0  0  0  0  0  0  0  0  0  0
    8.3687  -14.0284   27.6006 C   0  0  0  0  0  0  0  0  0  0  0  0
    8.0070  -12.7046   27.7311 C   0  0  0  0  0  0  0  0  0  0  0  0
    6.8021  -12.2922   27.2160 C   0  0  0  0  0  0  0  0  0  0  0  0
    5.9733  -13.2229   26.5731 C   0  0  0  0  0  0  0  0  0  0  0  0
    6.3646  -14.5344   26.4590 C   0  0  0  0  0  0  0  0  0  0  0  0
   10.0705  -17.6903   26.8719 C   0  0  0  0  0  0  0  0  0  0  0  0
   10.3268  -18.0674   28.1769 O   0  0  0  0  0  0  0  0  0  0  0  0
   10.3749  -18.5442   25.9731 O   0  0  0  0  0  0  0  0  0  0  0  0
  2  1  1  0
  3  2  2  0
  4  2  1  0
  5  4  1  0
  6  5  1  0
  6  7  1  6
  8  6  1  0
  8  9  2  0
 10  8  1  0
 11 10  1  0
 11 12  1  1
 12 13  1  0
 13 14  2  0
 13 18  1  0
 14 15  1  0
 15 16  2  0
 17 16  1  0
 18 17  2  0
 19 11  1  0
 20 19  2  0
 21 19  1  0
 22 21  1  0
 22 23  1  6
 23 24  1  0
 24 29  1  0
 25 24  2  0
 25 26  1  0
 26 27  2  0
 27 28  1  0
 29 28  2  0
 30 31  1  0
 30 22  1  0
 32 30  2  0
M  END
$$$$
