QFF.pdb
     RDKit          3D

 32 33  0  0  1  0  0  0  0  0999 V2000
   11.9857  -15.2020   16.4167 N   0  0  0  0  0  0  0  0  0  0  0  0
   11.8008  -16.6021   16.2500 C   0  0  0  0  0  0  0  0  0  0  0  0
   12.2994  -17.0629   15.1663 O   0  0  0  0  0  0  0  0  0  0  0  0
   11.1046  -17.4730   17.2176 C   0  0  0  0  0  0  0  0  0  0  0  0
   10.5505  -16.7730   18.3968 C   0  0  0  0  0  0  0  0  0  0  0  0
   10.1712  -17.6010   19.5758 C   0  0  2  0  0  0  0  0  0  0  0  0
    9.0326  -18.4454   19.3011 N   0  0  0  0  0  0  0  0  0  0  0  0
    9.8915  -16.8129   20.7898 C   0  0  0  0  0  0  0  0  0  0  0  0
   10.8014  -16.1207   21.3123 O   0  0  0  0  0  0  0  0  0  0  0  0
    8.6534  -16.7533   21.4496 N   0  0  0  0  0  0  0  0  0  0  0  0
    8.3944  -16.0414   22.6698 C   0  0  1  0  0  0  0  0  0  0  0  0
    6.9904  -15.6850   22.9239 C   0  0  0  0  0  0  0  0  0  0  0  0
    6.8016  -14.9271   24.1664 C   0  0  0  0  0  0  0  0  0  0  0  0
    7.1742  -13.5806   24.2073 C   0  0  0  0  0  0  0  0  0  0  0  0
    7.0069  -12.7908   25.3130 C   0  0  0  0  0  0  0  0  0  0  0  0
    6.4481  -13.3030   26.4699 C   0  0  0  0  0  0  0  0  0  0  0  0
    6.0683  -14.6264   26.4681 C   0  0  0  0  0  0  0  0  0  0  0  0
    6.2459  -15.4152   25.3314 C   0  0  0  0  0  0  0  0  0  0  0  0
    8.9708  -16.8216   23.7773 C   0  0  0  0  0  0  0  0  0  0  0  0
    8.7803  -18.0595   23.8125 O   0  0  0  0  0  0  0  0  0  0  0  0
    9.7409  -16.2417   24.8171 N   0  0  0  0  0  0  0  0  0  0  0  0
   10.5159  -17.1409   25.6648 C   0  0  1  0  0  0  0  0  0  0  0  0
   11.6949  -16.3947   26.2518 C   0  0  0  0  0  0  0  0  0  0  0  0
   11.2162  -15.3539   27.1775 C   0  0  0  0  0  0  0  0  0  0  0  0
   10.7957  -14.1090   26.7177 C   0  0  0  0  0  0  0  0  0  0  0  0
   10.3099  -13.1177   27.5431 C   0  0  0  0  0  0  0  0  0  0  0  0
   10.2327  -13.3575   28.8936 C   0  0  0  0  0  0  0  0  0  0  0  0
   10.6480  -14.5985   29.3974 C   0  0  0  0  0  0  0  0  0  0  0  0
   11.1260  -15.5651   28.5470 C   0  0  0  0  0  0  0  0  0  0  0  0
    9.6577  -17.6343   26.7347 C   0  0  0  0  0  0  0  0  0  0  0  0
    8.3284  -17.2945   26.9030 O   0  0  0  0  0  0  0  0  0  0  0  0
   10.1425  -18.4398   27.5983 O   0  0  0  0  0  0  0  0  0  0  0  0
  2  1  1  0
  3  2  2  0
  4  2  1  0
  5  4  1  0
  6  5  1  0
  6  7  1  6
  8  6  1  0
  8  9  2  0
 10  8  1  0
 11 10  1  0
 11 12  1  1
 12 13  1  0
 13 14  2  0
 13 18  1  0
 14 15  1  0
 15 16  2  0
 17 16  1  0
 18 17  2  0
 19 11  1  0
 20 19  2  0
 21 19  1  0
 22 21  1  0
 22 23  1  1
 23 24  1  0
 24 29  1  0
 25 24  2  0
 25 26  1  0
 26 27  2  0
 27 28  1  0
 29 28  2  0
 30 31  1  0
 30 22  1  0
 32 30  2  0
M  END
$$$$
