QFF.pdb
     RDKit          3D

 32 33  0  0  1  0  0  0  0  0999 V2000
   12.2071  -19.3446   17.1351 N   0  0  0  0  0  0  0  0  0  0  0  0
   12.1458  -19.3944   18.5550 C   0  0  0  0  0  0  0  0  0  0  0  0
   13.1946  -18.9456   19.1327 O   0  0  0  0  0  0  0  0  0  0  0  0
   10.9946  -19.9086   19.3231 C   0  0  0  0  0  0  0  0  0  0  0  0
   10.5349  -19.0272   20.4182 C   0  0  0  0  0  0  0  0  0  0  0  0
    9.4536  -18.0498   20.1100 C   0  0  2  0  0  0  0  0  0  0  0  0
    9.5820  -17.5014   18.7805 N   0  0  0  0  0  0  0  0  0  0  0  0
    9.3669  -16.9367   21.0726 C   0  0  0  0  0  0  0  0  0  0  0  0
   10.2290  -16.0221   21.0539 O   0  0  0  0  0  0  0  0  0  0  0  0
    8.3711  -16.7878   22.0514 N   0  0  0  0  0  0  0  0  0  0  0  0
    8.3031  -15.7238   23.0137 C   0  0  1  0  0  0  0  0  0  0  0  0
    6.9624  -15.1836   23.2852 C   0  0  0  0  0  0  0  0  0  0  0  0
    6.9697  -14.0720   24.2434 C   0  0  0  0  0  0  0  0  0  0  0  0
    7.4994  -12.8388   23.8533 C   0  0  0  0  0  0  0  0  0  0  0  0
    7.5201  -11.7407   24.6706 C   0  0  0  0  0  0  0  0  0  0  0  0
    7.0054  -11.8037   25.9529 C   0  0  0  0  0  0  0  0  0  0  0  0
    6.4746  -13.0024   26.3734 C   0  0  0  0  0  0  0  0  0  0  0  0
    6.4616  -14.1102   25.5258 C   0  0  0  0  0  0  0  0  0  0  0  0
    8.9672  -16.1860   24.2436 C   0  0  0  0  0  0  0  0  0  0  0  0
    8.3603  -16.0889   25.3355 O   0  0  0  0  0  0  0  0  0  0  0  0
   10.2707  -16.7438   24.2595 N   0  0  0  0  0  0  0  0  0  0  0  0
   11.1254  -16.4295   25.3989 C   0  0  1  0  0  0  0  0  0  0  0  0
   10.4286  -16.8299   26.6818 C   0  0  0  0  0  0  0  0  0  0  0  0
   10.3342  -15.6681   27.5822 C   0  0  0  0  0  0  0  0  0  0  0  0
   10.0645  -14.3916   27.0967 C   0  0  0  0  0  0  0  0  0  0  0  0
    9.9348  -13.2822   27.9046 C   0  0  0  0  0  0  0  0  0  0  0  0
   10.0785  -13.4302   29.2628 C   0  0  0  0  0  0  0  0  0  0  0  0
   10.3524  -14.6996   29.7920 C   0  0  0  0  0  0  0  0  0  0  0  0
   10.4741  -15.7846   28.9588 C   0  0  0  0  0  0  0  0  0  0  0  0
   12.3775  -17.1634   25.2638 C   0  0  0  0  0  0  0  0  0  0  0  0
   13.4751  -17.0143   26.0907 O   0  0  0  0  0  0  0  0  0  0  0  0
   12.5008  -18.0126   24.3186 O   0  0  0  0  0  0  0  0  0  0  0  0
  2  1  1  0
  3  2  2  0
  4  2  1  0
  5  4  1  0
  6  5  1  0
  6  7  1  6
  8  6  1  0
  8  9  2  0
 10  8  1  0
 11 10  1  0
 11 12  1  1
 12 13  1  0
 13 14  2  0
 13 18  1  0
 14 15  1  0
 15 16  2  0
 17 16  1  0
 18 17  2  0
 19 11  1  0
 20 19  2  0
 21 19  1  0
 22 21  1  0
 22 23  1  1
 23 24  1  0
 24 29  1  0
 25 24  2  0
 25 26  1  0
 26 27  2  0
 27 28  1  0
 29 28  2  0
 30 31  1  0
 30 22  1  0
 32 30  2  0
M  END
$$$$
