QFF.pdb
     RDKit          3D

 32 33  0  0  1  0  0  0  0  0999 V2000
   10.2461  -18.4942   15.3081 N   0  0  0  0  0  0  0  0  0  0  0  0
    8.9550  -18.2965   15.8705 C   0  0  0  0  0  0  0  0  0  0  0  0
    7.9993  -18.4506   15.0349 O   0  0  0  0  0  0  0  0  0  0  0  0
    8.7045  -17.9466   17.2827 C   0  0  0  0  0  0  0  0  0  0  0  0
    9.9214  -17.7753   18.1056 C   0  0  0  0  0  0  0  0  0  0  0  0
    9.8599  -18.2132   19.5282 C   0  0  2  0  0  0  0  0  0  0  0  0
    8.8115  -19.1804   19.7525 N   0  0  0  0  0  0  0  0  0  0  0  0
    9.6903  -17.1040   20.4843 C   0  0  0  0  0  0  0  0  0  0  0  0
   10.4329  -16.0926   20.4104 O   0  0  0  0  0  0  0  0  0  0  0  0
    8.7372  -17.0612   21.5147 N   0  0  0  0  0  0  0  0  0  0  0  0
    8.6105  -16.0124   22.4876 C   0  0  1  0  0  0  0  0  0  0  0  0
    7.2934  -15.3631   22.5694 C   0  0  0  0  0  0  0  0  0  0  0  0
    7.3094  -14.1182   23.3463 C   0  0  0  0  0  0  0  0  0  0  0  0
    6.7222  -14.0981   24.6145 C   0  0  0  0  0  0  0  0  0  0  0  0
    6.7170  -12.9909   25.4197 C   0  0  0  0  0  0  0  0  0  0  0  0
    7.3071  -11.8111   25.0035 C   0  0  0  0  0  0  0  0  0  0  0  0
    7.8962  -11.7920   23.7592 C   0  0  0  0  0  0  0  0  0  0  0  0
    7.8922  -12.9306   22.9534 C   0  0  0  0  0  0  0  0  0  0  0  0
    9.0375  -16.5518   23.7893 C   0  0  0  0  0  0  0  0  0  0  0  0
    8.1697  -16.8025   24.6576 O   0  0  0  0  0  0  0  0  0  0  0  0
   10.3931  -16.8082   24.1165 N   0  0  0  0  0  0  0  0  0  0  0  0
   10.8648  -16.3737   25.4266 C   0  0  1  0  0  0  0  0  0  0  0  0
    9.7712  -16.5779   26.4532 C   0  0  0  0  0  0  0  0  0  0  0  0
    9.5243  -15.3190   27.1767 C   0  0  0  0  0  0  0  0  0  0  0  0
   10.4068  -14.8528   28.1472 C   0  0  0  0  0  0  0  0  0  0  0  0
   10.2333  -13.6653   28.8255 C   0  0  0  0  0  0  0  0  0  0  0  0
    9.1346  -12.8920   28.5390 C   0  0  0  0  0  0  0  0  0  0  0  0
    8.2205  -13.3270   27.5686 C   0  0  0  0  0  0  0  0  0  0  0  0
    8.4240  -14.5150   26.9103 C   0  0  0  0  0  0  0  0  0  0  0  0
   12.0382  -17.1595   25.7878 C   0  0  0  0  0  0  0  0  0  0  0  0
   12.5741  -18.1785   25.0228 O   0  0  0  0  0  0  0  0  0  0  0  0
   12.6357  -16.9133   26.8888 O   0  0  0  0  0  0  0  0  0  0  0  0
  2  1  1  0
  3  2  2  0
  4  2  1  0
  5  4  1  0
  6  5  1  0
  6  7  1  6
  8  6  1  0
  8  9  2  0
 10  8  1  0
 11 10  1  0
 11 12  1  1
 12 13  1  0
 13 14  2  0
 13 18  1  0
 14 15  1  0
 15 16  2  0
 17 16  1  0
 18 17  2  0
 19 11  1  0
 20 19  2  0
 21 19  1  0
 22 21  1  0
 22 23  1  1
 23 24  1  0
 24 29  1  0
 25 24  2  0
 25 26  1  0
 26 27  2  0
 27 28  1  0
 29 28  2  0
 30 31  1  0
 30 22  1  0
 32 30  2  0
M  END
$$$$
