QFF.pdb
     RDKit          3D

 32 33  0  0  1  0  0  0  0  0999 V2000
   10.4374  -21.0031   22.1969 N   0  0  0  0  0  0  0  0  0  0  0  0
   11.1565  -20.8052   20.9862 C   0  0  0  0  0  0  0  0  0  0  0  0
   12.3161  -21.3444   20.9809 O   0  0  0  0  0  0  0  0  0  0  0  0
   10.6428  -20.0542   19.8236 C   0  0  0  0  0  0  0  0  0  0  0  0
    9.2792  -19.5067   19.9909 C   0  0  0  0  0  0  0  0  0  0  0  0
    9.0217  -18.1290   19.4857 C   0  0  2  0  0  0  0  0  0  0  0  0
    9.8847  -17.7875   18.3796 N   0  0  0  0  0  0  0  0  0  0  0  0
    9.1446  -17.0848   20.5190 C   0  0  0  0  0  0  0  0  0  0  0  0
   10.1807  -16.3753   20.5743 O   0  0  0  0  0  0  0  0  0  0  0  0
    8.1749  -16.7882   21.4904 N   0  0  0  0  0  0  0  0  0  0  0  0
    8.2509  -15.7141   22.4409 C   0  0  1  0  0  0  0  0  0  0  0  0
    6.9665  -15.1461   22.8773 C   0  0  0  0  0  0  0  0  0  0  0  0
    7.1173  -14.0351   23.8243 C   0  0  0  0  0  0  0  0  0  0  0  0
    6.6558  -14.1883   25.1347 C   0  0  0  0  0  0  0  0  0  0  0  0
    6.7816  -13.2170   26.0911 C   0  0  0  0  0  0  0  0  0  0  0  0
    7.3858  -12.0082   25.7962 C   0  0  0  0  0  0  0  0  0  0  0  0
    7.8533  -11.8198   24.5150 C   0  0  0  0  0  0  0  0  0  0  0  0
    7.7168  -12.8218   23.5542 C   0  0  0  0  0  0  0  0  0  0  0  0
    9.0606  -16.1774   23.5799 C   0  0  0  0  0  0  0  0  0  0  0  0
    8.6545  -17.1486   24.2594 O   0  0  0  0  0  0  0  0  0  0  0  0
   10.2907  -15.5785   23.9525 N   0  0  0  0  0  0  0  0  0  0  0  0
   10.9198  -16.0399   25.1849 C   0  0  1  0  0  0  0  0  0  0  0  0
    9.8537  -16.3497   26.2139 C   0  0  0  0  0  0  0  0  0  0  0  0
   10.0748  -15.5369   27.4222 C   0  0  0  0  0  0  0  0  0  0  0  0
    9.9138  -14.1543   27.4082 C   0  0  0  0  0  0  0  0  0  0  0  0
   10.0779  -13.3581   28.5215 C   0  0  0  0  0  0  0  0  0  0  0  0
   10.4199  -13.9478   29.7143 C   0  0  0  0  0  0  0  0  0  0  0  0
   10.5931  -15.3382   29.7703 C   0  0  0  0  0  0  0  0  0  0  0  0
   10.4206  -16.1025   28.6423 C   0  0  0  0  0  0  0  0  0  0  0  0
   11.6951  -17.2400   24.8962 C   0  0  0  0  0  0  0  0  0  0  0  0
   11.1661  -18.5098   24.7600 O   0  0  0  0  0  0  0  0  0  0  0  0
   12.9603  -17.1434   24.7561 O   0  0  0  0  0  0  0  0  0  0  0  0
  2  1  1  0
  3  2  2  0
  4  2  1  0
  5  4  1  0
  6  5  1  0
  6  7  1  6
  8  6  1  0
  8  9  2  0
 10  8  1  0
 11 10  1  0
 11 12  1  1
 12 13  1  0
 13 14  2  0
 13 18  1  0
 14 15  1  0
 15 16  2  0
 17 16  1  0
 18 17  2  0
 19 11  1  0
 20 19  2  0
 21 19  1  0
 22 21  1  0
 22 23  1  1
 23 24  1  0
 24 29  1  0
 25 24  2  0
 25 26  1  0
 26 27  2  0
 27 28  1  0
 29 28  2  0
 30 31  1  0
 30 22  1  0
 32 30  2  0
M  END
$$$$
