CCN.pdb
     RDKit          3D

 21 20  0  0  1  0  0  0  0  0999 V2000
    8.8556  -16.9717   18.3776 N   0  0  0  0  0  0  0  0  0  0  0  0
    9.4293  -17.8988   19.3496 C   0  0  1  0  0  0  0  0  0  0  0  0
   10.5163  -18.7426   18.7181 C   0  0  0  0  0  0  0  0  0  0  0  0
   10.1455  -20.5119   18.9137 S   0  0  0  0  0  0  0  0  0  0  0  0
   10.0399  -17.1657   20.4883 C   0  0  0  0  0  0  0  0  0  0  0  0
   10.4662  -15.9968   20.3057 O   0  0  0  0  0  0  0  0  0  0  0  0
   10.1754  -17.7103   21.7928 N   0  0  0  0  0  0  0  0  0  0  0  0
   10.1372  -16.9297   22.9937 C   0  0  1  0  0  0  0  0  0  0  0  0
    8.9033  -16.0657   23.1095 C   0  0  0  0  0  0  0  0  0  0  0  0
    8.8713  -15.2782   24.7420 S   0  0  0  0  0  0  0  0  0  0  0  0
   10.3178  -17.8074   24.1652 C   0  0  0  0  0  0  0  0  0  0  0  0
    9.4016  -18.6373   24.4903 O   0  0  0  0  0  0  0  0  0  0  0  0
   14.8460  -18.9606   24.2660 N   0  0  0  0  0  0  0  0  0  0  0  0
   13.6890  -19.5966   24.7754 C   0  0  0  0  0  0  0  0  0  0  0  0
   13.1484  -20.5061   24.1137 O   0  0  0  0  0  0  0  0  0  0  0  0
   13.1611  -19.1529   26.0860 C   0  0  0  0  0  0  0  0  0  0  0  0
   11.6926  -18.8063   25.9719 C   0  0  2  0  0  0  0  0  0  0  0  0
   11.4775  -17.7903   24.9800 N   0  0  0  0  0  0  0  0  0  0  0  0
   11.1178  -18.4367   27.2904 C   0  0  0  0  0  0  0  0  0  0  0  0
   10.5369  -17.3534   27.5195 O   0  0  0  0  0  0  0  0  0  0  0  0
   11.2331  -19.3475   28.3270 O   0  0  0  0  0  0  0  0  0  0  0  0
  2  1  1  6
  3  4  1  0
  3  2  1  0
  5  2  1  0
  5  6  2  0
  7  5  1  0
  8  7  1  0
  8 11  1  0
  8  9  1  1
 10  9  1  0
 11 18  1  0
 12 11  2  0
 13 14  1  0
 14 15  2  0
 16 14  1  0
 17 16  1  1
 17 19  1  0
 18 17  1  0
 19 20  2  0
 19 21  1  0
M  END
$$$$
