CCN.pdb
     RDKit          3D

 21 20  0  0  1  0  0  0  0  0999 V2000
    8.9510  -15.3013   13.8198 N   0  0  0  0  0  0  0  0  0  0  0  0
    8.4061  -15.6043   15.1406 C   0  0  1  0  0  0  0  0  0  0  0  0
    8.5204  -17.0823   15.4484 C   0  0  0  0  0  0  0  0  0  0  0  0
    7.1916  -18.0105   14.6244 S   0  0  0  0  0  0  0  0  0  0  0  0
    9.1428  -14.8704   16.2016 C   0  0  0  0  0  0  0  0  0  0  0  0
   10.3691  -14.6388   16.0469 O   0  0  0  0  0  0  0  0  0  0  0  0
    8.5400  -14.4055   17.4004 N   0  0  0  0  0  0  0  0  0  0  0  0
    9.2432  -13.6934   18.4257 C   0  0  1  0  0  0  0  0  0  0  0  0
    8.3399  -12.8674   19.3111 C   0  0  0  0  0  0  0  0  0  0  0  0
    7.1478  -13.9555   20.1366 S   0  0  0  0  0  0  0  0  0  0  0  0
   10.0806  -14.6298   19.1987 C   0  0  0  0  0  0  0  0  0  0  0  0
    9.8045  -15.8777   19.2071 O   0  0  0  0  0  0  0  0  0  0  0  0
   14.6509  -13.5939   19.0829 N   0  0  0  0  0  0  0  0  0  0  0  0
   14.0233  -14.7817   19.5275 C   0  0  0  0  0  0  0  0  0  0  0  0
   14.0184  -15.7862   18.7870 O   0  0  0  0  0  0  0  0  0  0  0  0
   13.3914  -14.7852   20.8669 C   0  0  0  0  0  0  0  0  0  0  0  0
   11.9316  -15.1688   20.7592 C   0  0  2  0  0  0  0  0  0  0  0  0
   11.2072  -14.2234   19.9568 N   0  0  0  0  0  0  0  0  0  0  0  0
   11.3191  -15.3563   22.0990 C   0  0  0  0  0  0  0  0  0  0  0  0
   10.3672  -14.6716   22.5332 O   0  0  0  0  0  0  0  0  0  0  0  0
   11.8344  -16.3494   22.9149 O   0  0  0  0  0  0  0  0  0  0  0  0
  2  1  1  6
  3  4  1  0
  3  2  1  0
  5  2  1  0
  5  6  2  0
  7  5  1  0
  8  7  1  0
  8 11  1  0
  8  9  1  1
 10  9  1  0
 11 18  1  0
 12 11  2  0
 13 14  1  0
 14 15  2  0
 16 14  1  0
 17 16  1  1
 17 19  1  0
 18 17  1  0
 19 20  2  0
 19 21  1  0
M  END
$$$$
