CCN.pdb
     RDKit          3D

 21 20  0  0  1  0  0  0  0  0999 V2000
    7.3309  -14.5231   20.6959 N   0  0  0  0  0  0  0  0  0  0  0  0
    7.0452  -14.9841   22.0521 C   0  0  1  0  0  0  0  0  0  0  0  0
    7.4801  -16.4223   22.2388 C   0  0  0  0  0  0  0  0  0  0  0  0
    6.6031  -17.5105   21.0756 S   0  0  0  0  0  0  0  0  0  0  0  0
    7.7714  -14.1655   23.0567 C   0  0  0  0  0  0  0  0  0  0  0  0
    8.8744  -13.6489   22.7436 O   0  0  0  0  0  0  0  0  0  0  0  0
    7.2911  -13.9246   24.3712 N   0  0  0  0  0  0  0  0  0  0  0  0
    7.9820  -13.1295   25.3424 C   0  0  1  0  0  0  0  0  0  0  0  0
    7.0869  -12.1479   26.0619 C   0  0  0  0  0  0  0  0  0  0  0  0
    5.5630  -12.9861   26.5731 S   0  0  0  0  0  0  0  0  0  0  0  0
    8.7146  -14.0064   26.2751 C   0  0  0  0  0  0  0  0  0  0  0  0
    8.1647  -14.3816   27.3662 O   0  0  0  0  0  0  0  0  0  0  0  0
   10.4073  -15.1255   29.8261 N   0  0  0  0  0  0  0  0  0  0  0  0
   10.1638  -16.2920   29.0630 C   0  0  0  0  0  0  0  0  0  0  0  0
   10.4837  -17.4054   29.5270 O   0  0  0  0  0  0  0  0  0  0  0  0
    9.5330  -16.1433   27.7314 C   0  0  0  0  0  0  0  0  0  0  0  0
   10.5392  -15.6245   26.7273 C   0  0  2  0  0  0  0  0  0  0  0  0
   10.0302  -14.4750   26.0330 N   0  0  0  0  0  0  0  0  0  0  0  0
   10.9794  -16.6950   25.7969 C   0  0  0  0  0  0  0  0  0  0  0  0
   10.3815  -16.9895   24.7389 O   0  0  0  0  0  0  0  0  0  0  0  0
   12.1205  -17.4088   26.1221 O   0  0  0  0  0  0  0  0  0  0  0  0
  2  1  1  6
  3  4  1  0
  3  2  1  0
  5  2  1  0
  5  6  2  0
  7  5  1  0
  8  7  1  0
  8 11  1  0
  8  9  1  1
 10  9  1  0
 11 18  1  0
 12 11  2  0
 13 14  1  0
 14 15  2  0
 16 14  1  0
 17 16  1  1
 17 19  1  0
 18 17  1  0
 19 20  2  0
 19 21  1  0
M  END
$$$$
