CCN.pdb
     RDKit          3D

 21 20  0  0  1  0  0  0  0  0999 V2000
    8.2819  -13.1100   17.2006 N   0  0  0  0  0  0  0  0  0  0  0  0
    7.7082  -14.1241   18.0813 C   0  0  1  0  0  0  0  0  0  0  0  0
    7.9836  -15.5171   17.5560 C   0  0  0  0  0  0  0  0  0  0  0  0
    7.4040  -16.7712   18.7382 S   0  0  0  0  0  0  0  0  0  0  0  0
    8.2936  -14.0385   19.4440 C   0  0  0  0  0  0  0  0  0  0  0  0
    9.5228  -13.8038   19.5685 O   0  0  0  0  0  0  0  0  0  0  0  0
    7.5405  -14.2076   20.6360 N   0  0  0  0  0  0  0  0  0  0  0  0
    8.1038  -14.1565   21.9524 C   0  0  1  0  0  0  0  0  0  0  0  0
    7.0975  -13.8058   23.0233 C   0  0  0  0  0  0  0  0  0  0  0  0
    7.8574  -14.0173   24.6555 S   0  0  0  0  0  0  0  0  0  0  0  0
    8.8119  -15.4177   22.2414 C   0  0  0  0  0  0  0  0  0  0  0  0
    8.3065  -16.5334   21.8763 O   0  0  0  0  0  0  0  0  0  0  0  0
   12.8311  -18.9846   21.7721 N   0  0  0  0  0  0  0  0  0  0  0  0
   12.8365  -17.9531   22.7410 C   0  0  0  0  0  0  0  0  0  0  0  0
   13.4556  -18.1213   23.8113 O   0  0  0  0  0  0  0  0  0  0  0  0
   12.1000  -16.7034   22.4428 C   0  0  0  0  0  0  0  0  0  0  0  0
   10.7364  -16.7268   23.0984 C   0  0  2  0  0  0  0  0  0  0  0  0
   10.0556  -15.4752   22.9189 N   0  0  0  0  0  0  0  0  0  0  0  0
   10.8278  -17.1181   24.5281 C   0  0  0  0  0  0  0  0  0  0  0  0
   10.6215  -16.3347   25.4806 O   0  0  0  0  0  0  0  0  0  0  0  0
   11.1618  -18.4294   24.8220 O   0  0  0  0  0  0  0  0  0  0  0  0
  2  1  1  6
  3  4  1  0
  3  2  1  0
  5  2  1  0
  5  6  2  0
  7  5  1  0
  8  7  1  0
  8 11  1  0
  8  9  1  1
 10  9  1  0
 11 18  1  0
 12 11  2  0
 13 14  1  0
 14 15  2  0
 16 14  1  0
 17 16  1  1
 17 19  1  0
 18 17  1  0
 19 20  2  0
 19 21  1  0
M  END
$$$$
