CCN.pdb
     RDKit          3D

 21 20  0  0  1  0  0  0  0  0999 V2000
    7.8422  -15.5647   19.0035 N   0  0  0  0  0  0  0  0  0  0  0  0
    7.2583  -15.9337   20.2904 C   0  0  1  0  0  0  0  0  0  0  0  0
    7.2199  -17.4381   20.4570 C   0  0  0  0  0  0  0  0  0  0  0  0
    6.9565  -18.2515   18.8522 S   0  0  0  0  0  0  0  0  0  0  0  0
    8.0565  -15.3816   21.4151 C   0  0  0  0  0  0  0  0  0  0  0  0
    9.2600  -15.0742   21.2185 O   0  0  0  0  0  0  0  0  0  0  0  0
    7.5382  -15.1751   22.7210 N   0  0  0  0  0  0  0  0  0  0  0  0
    8.3116  -14.6765   23.8192 C   0  0  1  0  0  0  0  0  0  0  0  0
    7.4762  -14.0206   24.8935 C   0  0  0  0  0  0  0  0  0  0  0  0
    6.1843  -15.1703   25.4370 S   0  0  0  0  0  0  0  0  0  0  0  0
    9.1683  -15.7512   24.3546 C   0  0  0  0  0  0  0  0  0  0  0  0
    8.8267  -16.9742   24.2090 O   0  0  0  0  0  0  0  0  0  0  0  0
   14.9508  -16.6165   24.9698 N   0  0  0  0  0  0  0  0  0  0  0  0
   13.7745  -16.8257   24.2114 C   0  0  0  0  0  0  0  0  0  0  0  0
   13.6879  -17.8337   23.4809 O   0  0  0  0  0  0  0  0  0  0  0  0
   12.6830  -15.8302   24.3161 C   0  0  0  0  0  0  0  0  0  0  0  0
   11.4672  -16.4492   24.9708 C   0  0  2  0  0  0  0  0  0  0  0  0
   10.3841  -15.5088   25.0417 N   0  0  0  0  0  0  0  0  0  0  0  0
   11.7998  -17.0261   26.2982 C   0  0  0  0  0  0  0  0  0  0  0  0
   12.6357  -17.9397   26.4724 O   0  0  0  0  0  0  0  0  0  0  0  0
   11.1440  -16.5209   27.4082 O   0  0  0  0  0  0  0  0  0  0  0  0
  2  1  1  6
  3  4  1  0
  3  2  1  0
  5  2  1  0
  5  6  2  0
  7  5  1  0
  8  7  1  0
  8 11  1  0
  8  9  1  1
 10  9  1  0
 11 18  1  0
 12 11  2  0
 13 14  1  0
 14 15  2  0
 16 14  1  0
 17 16  1  1
 17 19  1  0
 18 17  1  0
 19 20  2  0
 19 21  1  0
M  END
$$$$
