CCN.pdb
     RDKit          3D

 21 20  0  0  1  0  0  0  0  0999 V2000
    8.8091  -14.9131   20.4212 N   0  0  0  0  0  0  0  0  0  0  0  0
    7.8073  -15.2485   21.4297 C   0  0  1  0  0  0  0  0  0  0  0  0
    7.6549  -16.7488   21.5646 C   0  0  0  0  0  0  0  0  0  0  0  0
    6.3975  -17.1528   22.8145 S   0  0  0  0  0  0  0  0  0  0  0  0
    8.1954  -14.7190   22.7623 C   0  0  0  0  0  0  0  0  0  0  0  0
    9.3993  -14.7844   23.1200 O   0  0  0  0  0  0  0  0  0  0  0  0
    7.2777  -14.1333   23.6741 N   0  0  0  0  0  0  0  0  0  0  0  0
    7.6498  -13.5928   24.9478 C   0  0  1  0  0  0  0  0  0  0  0  0
    6.5785  -12.7280   25.5697 C   0  0  0  0  0  0  0  0  0  0  0  0
    7.0847  -12.2544   27.2447 S   0  0  0  0  0  0  0  0  0  0  0  0
    8.0811  -14.6813   25.8449 C   0  0  0  0  0  0  0  0  0  0  0  0
    7.3668  -15.7346   25.9623 O   0  0  0  0  0  0  0  0  0  0  0  0
   10.6536  -18.0396   28.4734 N   0  0  0  0  0  0  0  0  0  0  0  0
   11.1878  -17.7838   27.1882 C   0  0  0  0  0  0  0  0  0  0  0  0
   12.0164  -18.5789   26.6998 O   0  0  0  0  0  0  0  0  0  0  0  0
   10.7375  -16.5711   26.4672 C   0  0  0  0  0  0  0  0  0  0  0  0
    9.7446  -15.7976   27.3072 C   0  0  2  0  0  0  0  0  0  0  0  0
    9.2737  -14.6342   26.6094 N   0  0  0  0  0  0  0  0  0  0  0  0
   10.3048  -15.4655   28.6419 C   0  0  0  0  0  0  0  0  0  0  0  0
   10.8466  -16.3004   29.3988 O   0  0  0  0  0  0  0  0  0  0  0  0
   10.2213  -14.1519   29.0722 O   0  0  0  0  0  0  0  0  0  0  0  0
  2  1  1  6
  3  4  1  0
  3  2  1  0
  5  2  1  0
  5  6  2  0
  7  5  1  0
  8  7  1  0
  8 11  1  0
  8  9  1  1
 10  9  1  0
 11 18  1  0
 12 11  2  0
 13 14  1  0
 14 15  2  0
 16 14  1  0
 17 16  1  6
 17 19  1  0
 18 17  1  0
 19 20  2  0
 19 21  1  0
M  END
$$$$
