CCN.pdb
     RDKit          3D

 21 20  0  0  1  0  0  0  0  0999 V2000
    7.8366  -12.9242   20.0860 N   0  0  0  0  0  0  0  0  0  0  0  0
    7.0913  -13.8492   20.9358 C   0  0  1  0  0  0  0  0  0  0  0  0
    6.9336  -15.1964   20.2630 C   0  0  0  0  0  0  0  0  0  0  0  0
    5.9776  -16.3282   21.3171 S   0  0  0  0  0  0  0  0  0  0  0  0
    7.7965  -14.0747   22.2237 C   0  0  0  0  0  0  0  0  0  0  0  0
    9.0379  -14.2757   22.2148 O   0  0  0  0  0  0  0  0  0  0  0  0
    7.1469  -14.0778   23.4865 N   0  0  0  0  0  0  0  0  0  0  0  0
    7.8303  -14.2231   24.7375 C   0  0  1  0  0  0  0  0  0  0  0  0
    6.9830  -13.8507   25.9315 C   0  0  0  0  0  0  0  0  0  0  0  0
    6.3171  -12.1807   25.6996 S   0  0  0  0  0  0  0  0  0  0  0  0
    8.3849  -15.5853   24.8477 C   0  0  0  0  0  0  0  0  0  0  0  0
    7.6279  -16.6004   24.6740 O   0  0  0  0  0  0  0  0  0  0  0  0
   11.1421  -18.0575   22.4697 N   0  0  0  0  0  0  0  0  0  0  0  0
   11.6342  -17.0886   23.3761 C   0  0  0  0  0  0  0  0  0  0  0  0
   12.0832  -16.0105   22.9364 O   0  0  0  0  0  0  0  0  0  0  0  0
   11.5963  -17.3960   24.8243 C   0  0  0  0  0  0  0  0  0  0  0  0
   10.1989  -17.1946   25.3687 C   0  0  2  0  0  0  0  0  0  0  0  0
    9.7455  -15.8508   25.1431 N   0  0  0  0  0  0  0  0  0  0  0  0
   10.1116  -17.5857   26.7988 C   0  0  0  0  0  0  0  0  0  0  0  0
    9.7667  -16.8080   27.7151 O   0  0  0  0  0  0  0  0  0  0  0  0
   10.4317  -18.8901   27.1356 O   0  0  0  0  0  0  0  0  0  0  0  0
  2  1  1  6
  3  4  1  0
  3  2  1  0
  5  2  1  0
  5  6  2  0
  7  5  1  0
  8  7  1  0
  8 11  1  0
  8  9  1  1
 10  9  1  0
 11 18  1  0
 12 11  2  0
 13 14  1  0
 14 15  2  0
 16 14  1  0
 17 16  1  1
 17 19  1  0
 18 17  1  0
 19 20  2  0
 19 21  1  0
M  END
$$$$
