CCN.pdb
     RDKit          3D

 21 20  0  0  1  0  0  0  0  0999 V2000
    9.3686  -16.7977   18.2736 N   0  0  0  0  0  0  0  0  0  0  0  0
    8.4653  -16.5376   19.3915 C   0  0  1  0  0  0  0  0  0  0  0  0
    7.6242  -17.7570   19.7040 C   0  0  0  0  0  0  0  0  0  0  0  0
    8.6789  -19.1430   20.2264 S   0  0  0  0  0  0  0  0  0  0  0  0
    9.2251  -16.1938   20.6209 C   0  0  0  0  0  0  0  0  0  0  0  0
   10.4816  -16.2431   20.5978 O   0  0  0  0  0  0  0  0  0  0  0  0
    8.6125  -15.8063   21.8420 N   0  0  0  0  0  0  0  0  0  0  0  0
    9.3392  -15.4040   23.0095 C   0  0  1  0  0  0  0  0  0  0  0  0
    8.6118  -14.3774   23.8457 C   0  0  0  0  0  0  0  0  0  0  0  0
    6.9730  -15.0136   24.2882 S   0  0  0  0  0  0  0  0  0  0  0  0
    9.7232  -16.5934   23.7926 C   0  0  0  0  0  0  0  0  0  0  0  0
    8.9281  -17.5909   23.8726 O   0  0  0  0  0  0  0  0  0  0  0  0
   12.2913  -18.6136   22.9621 N   0  0  0  0  0  0  0  0  0  0  0  0
   13.2164  -18.5340   24.0299 C   0  0  0  0  0  0  0  0  0  0  0  0
   14.4173  -18.8019   23.8213 O   0  0  0  0  0  0  0  0  0  0  0  0
   12.7176  -18.1321   25.3651 C   0  0  0  0  0  0  0  0  0  0  0  0
   11.2322  -17.8489   25.3087 C   0  0  2  0  0  0  0  0  0  0  0  0
   10.9553  -16.7062   24.4841 N   0  0  0  0  0  0  0  0  0  0  0  0
   10.6528  -17.7150   26.6696 C   0  0  0  0  0  0  0  0  0  0  0  0
   10.5527  -18.6606   27.4816 O   0  0  0  0  0  0  0  0  0  0  0  0
   10.1967  -16.4674   27.0608 O   0  0  0  0  0  0  0  0  0  0  0  0
  2  1  1  6
  3  4  1  0
  3  2  1  0
  5  2  1  0
  5  6  2  0
  7  5  1  0
  8  7  1  0
  8 11  1  0
  8  9  1  1
 10  9  1  0
 11 18  1  0
 12 11  2  0
 13 14  1  0
 14 15  2  0
 16 14  1  0
 17 16  1  1
 17 19  1  0
 18 17  1  0
 19 20  2  0
 19 21  1  0
M  END
$$$$
