CCN.pdb
     RDKit          3D

 21 20  0  0  1  0  0  0  0  0999 V2000
    7.8361  -14.9989   20.2860 N   0  0  0  0  0  0  0  0  0  0  0  0
    6.8879  -15.1988   21.3788 C   0  0  1  0  0  0  0  0  0  0  0  0
    6.4914  -16.6555   21.4931 C   0  0  0  0  0  0  0  0  0  0  0  0
    5.1214  -17.0350   20.3593 S   0  0  0  0  0  0  0  0  0  0  0  0
    7.4820  -14.7958   22.6794 C   0  0  0  0  0  0  0  0  0  0  0  0
    8.6935  -15.0480   22.9033 O   0  0  0  0  0  0  0  0  0  0  0  0
    6.7564  -14.1323   23.7041 N   0  0  0  0  0  0  0  0  0  0  0  0
    7.3152  -13.7661   24.9716 C   0  0  1  0  0  0  0  0  0  0  0  0
    6.6251  -12.5856   25.6138 C   0  0  0  0  0  0  0  0  0  0  0  0
    7.2469  -12.3710   27.3030 S   0  0  0  0  0  0  0  0  0  0  0  0
    7.3524  -14.9434   25.8593 C   0  0  0  0  0  0  0  0  0  0  0  0
    6.2914  -15.6274   26.0598 O   0  0  0  0  0  0  0  0  0  0  0  0
    8.0524  -19.8032   25.7502 N   0  0  0  0  0  0  0  0  0  0  0  0
    9.1535  -18.9321   25.5736 C   0  0  0  0  0  0  0  0  0  0  0  0
   10.3115  -19.3969   25.5927 O   0  0  0  0  0  0  0  0  0  0  0  0
    8.8849  -17.4899   25.3711 C   0  0  0  0  0  0  0  0  0  0  0  0
    8.7895  -16.7800   26.7040 C   0  0  2  0  0  0  0  0  0  0  0  0
    8.5248  -15.3799   26.5255 N   0  0  0  0  0  0  0  0  0  0  0  0
    9.9949  -17.0237   27.5366 C   0  0  0  0  0  0  0  0  0  0  0  0
   10.0171  -17.7890   28.5251 O   0  0  0  0  0  0  0  0  0  0  0  0
   11.1631  -16.3628   27.1962 O   0  0  0  0  0  0  0  0  0  0  0  0
  2  1  1  6
  3  4  1  0
  3  2  1  0
  5  2  1  0
  5  6  2  0
  7  5  1  0
  8  7  1  0
  8 11  1  0
  8  9  1  1
 10  9  1  0
 11 18  1  0
 12 11  2  0
 13 14  1  0
 14 15  2  0
 16 14  1  0
 17 16  1  6
 17 19  1  0
 18 17  1  0
 19 20  2  0
 19 21  1  0
M  END
$$$$
