CCN.pdb
     RDKit          3D

 21 20  0  0  1  0  0  0  0  0999 V2000
    8.1951  -16.9901   15.7924 N   0  0  0  0  0  0  0  0  0  0  0  0
    8.0435  -17.5656   17.1262 C   0  0  1  0  0  0  0  0  0  0  0  0
    8.8160  -18.8620   17.2486 C   0  0  0  0  0  0  0  0  0  0  0  0
    8.6364  -19.5568   18.9193 S   0  0  0  0  0  0  0  0  0  0  0  0
    8.5596  -16.6399   18.1672 C   0  0  0  0  0  0  0  0  0  0  0  0
    9.7229  -16.1762   18.0516 O   0  0  0  0  0  0  0  0  0  0  0  0
    7.8102  -16.2381   19.3045 N   0  0  0  0  0  0  0  0  0  0  0  0
    8.3186  -15.3851   20.3374 C   0  0  1  0  0  0  0  0  0  0  0  0
    7.2372  -14.7624   21.1889 C   0  0  0  0  0  0  0  0  0  0  0  0
    6.3283  -16.0686   22.0572 S   0  0  0  0  0  0  0  0  0  0  0  0
    9.3140  -16.1166   21.1435 C   0  0  0  0  0  0  0  0  0  0  0  0
    9.2809  -17.3931   21.1967 O   0  0  0  0  0  0  0  0  0  0  0  0
   14.5741  -15.9827   24.1236 N   0  0  0  0  0  0  0  0  0  0  0  0
   13.6242  -16.5769   23.2593 C   0  0  0  0  0  0  0  0  0  0  0  0
   13.6187  -17.8164   23.1144 O   0  0  0  0  0  0  0  0  0  0  0  0
   12.6653  -15.6954   22.5545 C   0  0  0  0  0  0  0  0  0  0  0  0
   11.2598  -16.2424   22.6764 C   0  0  2  0  0  0  0  0  0  0  0  0
   10.3372  -15.4762   21.8864 N   0  0  0  0  0  0  0  0  0  0  0  0
   10.8372  -16.3423   24.0966 C   0  0  0  0  0  0  0  0  0  0  0  0
   10.0394  -15.5506   24.6447 O   0  0  0  0  0  0  0  0  0  0  0  0
   11.3591  -17.3745   24.8579 O   0  0  0  0  0  0  0  0  0  0  0  0
  2  1  1  6
  3  4  1  0
  3  2  1  0
  5  2  1  0
  5  6  2  0
  7  5  1  0
  8  7  1  0
  8 11  1  0
  8  9  1  1
 10  9  1  0
 11 18  1  0
 12 11  2  0
 13 14  1  0
 14 15  2  0
 16 14  1  0
 17 16  1  1
 17 19  1  0
 18 17  1  0
 19 20  2  0
 19 21  1  0
M  END
$$$$
