CCN.pdb
     RDKit          3D

 21 20  0  0  1  0  0  0  0  0999 V2000
    8.5697  -14.2378   20.7081 N   0  0  0  0  0  0  0  0  0  0  0  0
    7.6775  -14.8495   21.6895 C   0  0  1  0  0  0  0  0  0  0  0  0
    7.5037  -16.3285   21.4167 C   0  0  0  0  0  0  0  0  0  0  0  0
    6.6190  -16.5888   19.8495 S   0  0  0  0  0  0  0  0  0  0  0  0
    8.2236  -14.7116   23.0642 C   0  0  0  0  0  0  0  0  0  0  0  0
    9.4689  -14.7535   23.2351 O   0  0  0  0  0  0  0  0  0  0  0  0
    7.4152  -14.5323   24.2178 N   0  0  0  0  0  0  0  0  0  0  0  0
    7.9313  -14.4524   25.5520 C   0  0  1  0  0  0  0  0  0  0  0  0
    6.9412  -13.8931   26.5466 C   0  0  0  0  0  0  0  0  0  0  0  0
    6.3990  -12.2525   25.9983 S   0  0  0  0  0  0  0  0  0  0  0  0
    8.4556  -15.7681   25.9638 C   0  0  0  0  0  0  0  0  0  0  0  0
    7.6561  -16.7506   26.1345 O   0  0  0  0  0  0  0  0  0  0  0  0
   11.9387  -16.5892   23.9078 N   0  0  0  0  0  0  0  0  0  0  0  0
   11.4761  -17.7191   24.6233 C   0  0  0  0  0  0  0  0  0  0  0  0
   10.9957  -18.6860   23.9974 O   0  0  0  0  0  0  0  0  0  0  0  0
   11.5816  -17.7087   26.1004 C   0  0  0  0  0  0  0  0  0  0  0  0
   10.2676  -17.2841   26.7190 C   0  0  2  0  0  0  0  0  0  0  0  0
    9.8316  -16.0223   26.1897 N   0  0  0  0  0  0  0  0  0  0  0  0
   10.3428  -17.2768   28.2022 C   0  0  0  0  0  0  0  0  0  0  0  0
   10.6195  -18.2824   28.8919 O   0  0  0  0  0  0  0  0  0  0  0  0
   10.0912  -16.0840   28.8589 O   0  0  0  0  0  0  0  0  0  0  0  0
  2  1  1  6
  3  4  1  0
  3  2  1  0
  5  2  1  0
  5  6  2  0
  7  5  1  0
  8  7  1  0
  8 11  1  0
  8  9  1  1
 10  9  1  0
 11 18  1  0
 12 11  2  0
 13 14  1  0
 14 15  2  0
 16 14  1  0
 17 16  1  6
 17 19  1  0
 18 17  1  0
 19 20  2  0
 19 21  1  0
M  END
$$$$
