CCN.pdb
     RDKit          3D

 21 20  0  0  1  0  0  0  0  0999 V2000
    8.3840  -13.8782   19.9516 N   0  0  0  0  0  0  0  0  0  0  0  0
    7.4329  -14.3986   20.9303 C   0  0  1  0  0  0  0  0  0  0  0  0
    7.1842  -15.8761   20.7121 C   0  0  0  0  0  0  0  0  0  0  0  0
    6.2476  -16.5779   22.1037 S   0  0  0  0  0  0  0  0  0  0  0  0
    7.9485  -14.2335   22.3137 C   0  0  0  0  0  0  0  0  0  0  0  0
    9.1707  -14.4265   22.5385 O   0  0  0  0  0  0  0  0  0  0  0  0
    7.1350  -13.8651   23.4179 N   0  0  0  0  0  0  0  0  0  0  0  0
    7.6267  -13.6973   24.7532 C   0  0  1  0  0  0  0  0  0  0  0  0
    6.7320  -12.8425   25.6198 C   0  0  0  0  0  0  0  0  0  0  0  0
    7.4287  -12.7435   27.2904 S   0  0  0  0  0  0  0  0  0  0  0  0
    7.8947  -15.0166   25.3556 C   0  0  0  0  0  0  0  0  0  0  0  0
    7.3448  -16.0643   24.8724 O   0  0  0  0  0  0  0  0  0  0  0  0
   10.9335  -17.9142   23.4181 N   0  0  0  0  0  0  0  0  0  0  0  0
   10.2636  -17.7336   24.6514 C   0  0  0  0  0  0  0  0  0  0  0  0
    9.4789  -18.6150   25.0572 O   0  0  0  0  0  0  0  0  0  0  0  0
   10.5231  -16.4937   25.4185 C   0  0  0  0  0  0  0  0  0  0  0  0
    9.5619  -16.3836   26.5820 C   0  0  2  0  0  0  0  0  0  0  0  0
    8.7493  -15.2047   26.4706 N   0  0  0  0  0  0  0  0  0  0  0  0
   10.2737  -16.4560   27.8833 C   0  0  0  0  0  0  0  0  0  0  0  0
   10.9433  -15.5165   28.3657 O   0  0  0  0  0  0  0  0  0  0  0  0
   10.1899  -17.6353   28.6042 O   0  0  0  0  0  0  0  0  0  0  0  0
  2  1  1  6
  3  4  1  0
  3  2  1  0
  5  2  1  0
  5  6  2  0
  7  5  1  0
  8  7  1  0
  8 11  1  0
  8  9  1  1
 10  9  1  0
 11 18  1  0
 12 11  2  0
 13 14  1  0
 14 15  2  0
 16 14  1  0
 17 16  1  6
 17 19  1  0
 18 17  1  0
 19 20  2  0
 19 21  1  0
M  END
$$$$
