CCN.pdb
     RDKit          3D

 21 20  0  0  1  0  0  0  0  0999 V2000
    7.9995  -13.2706   20.3748 N   0  0  0  0  0  0  0  0  0  0  0  0
    7.0428  -13.4147   21.4690 C   0  0  1  0  0  0  0  0  0  0  0  0
    6.2372  -14.6880   21.3207 C   0  0  0  0  0  0  0  0  0  0  0  0
    7.2761  -16.1430   21.6525 S   0  0  0  0  0  0  0  0  0  0  0  0
    7.7389  -13.4785   22.7798 C   0  0  0  0  0  0  0  0  0  0  0  0
    8.9957  -13.4441   22.8077 O   0  0  0  0  0  0  0  0  0  0  0  0
    7.0638  -13.5775   24.0253 N   0  0  0  0  0  0  0  0  0  0  0  0
    7.7122  -13.4649   25.2980 C   0  0  1  0  0  0  0  0  0  0  0  0
    6.7879  -13.0160   26.4054 C   0  0  0  0  0  0  0  0  0  0  0  0
    6.6168  -11.2121   26.3522 S   0  0  0  0  0  0  0  0  0  0  0  0
    8.4001  -14.7290   25.6211 C   0  0  0  0  0  0  0  0  0  0  0  0
    9.1560  -14.8015   26.6492 O   0  0  0  0  0  0  0  0  0  0  0  0
   11.3450  -18.6522   24.7535 N   0  0  0  0  0  0  0  0  0  0  0  0
   11.5405  -17.4864   23.9756 C   0  0  0  0  0  0  0  0  0  0  0  0
   12.5874  -17.3643   23.3074 O   0  0  0  0  0  0  0  0  0  0  0  0
   10.4847  -16.4479   23.9857 C   0  0  0  0  0  0  0  0  0  0  0  0
    9.3138  -16.8960   24.8331 C   0  0  2  0  0  0  0  0  0  0  0  0
    8.2736  -15.9059   24.8414 N   0  0  0  0  0  0  0  0  0  0  0  0
    9.7469  -17.2694   26.2038 C   0  0  0  0  0  0  0  0  0  0  0  0
    8.9580  -17.5102   27.1435 O   0  0  0  0  0  0  0  0  0  0  0  0
   11.1061  -17.3553   26.4541 O   0  0  0  0  0  0  0  0  0  0  0  0
  2  1  1  6
  3  4  1  0
  3  2  1  0
  5  2  1  0
  5  6  2  0
  7  5  1  0
  8  7  1  0
  8 11  1  0
  8  9  1  1
 10  9  1  0
 11 18  1  0
 12 11  2  0
 13 14  1  0
 14 15  2  0
 16 14  1  0
 17 16  1  6
 17 19  1  0
 18 17  1  0
 19 20  2  0
 19 21  1  0
M  END
$$$$
