CCN.pdb
     RDKit          3D

 21 20  0  0  1  0  0  0  0  0999 V2000
    7.9644  -13.1516   19.5312 N   0  0  0  0  0  0  0  0  0  0  0  0
    7.0815  -13.4538   20.6548 C   0  0  1  0  0  0  0  0  0  0  0  0
    6.4172  -14.8024   20.4748 C   0  0  0  0  0  0  0  0  0  0  0  0
    7.6657  -16.1204   20.3732 S   0  0  0  0  0  0  0  0  0  0  0  0
    7.8404  -13.4982   21.9312 C   0  0  0  0  0  0  0  0  0  0  0  0
    9.0900  -13.6348   21.8959 O   0  0  0  0  0  0  0  0  0  0  0  0
    7.2341  -13.3943   23.2111 N   0  0  0  0  0  0  0  0  0  0  0  0
    7.9361  -13.5791   24.4464 C   0  0  1  0  0  0  0  0  0  0  0  0
    7.1939  -13.0380   25.6459 C   0  0  0  0  0  0  0  0  0  0  0  0
    5.5101  -13.7091   25.6646 S   0  0  0  0  0  0  0  0  0  0  0  0
    8.2985  -14.9998   24.6066 C   0  0  0  0  0  0  0  0  0  0  0  0
    7.4841  -15.9134   24.2380 O   0  0  0  0  0  0  0  0  0  0  0  0
   12.8682  -18.9520   24.4377 N   0  0  0  0  0  0  0  0  0  0  0  0
   11.5451  -18.5417   24.7268 C   0  0  0  0  0  0  0  0  0  0  0  0
   10.6959  -19.3964   25.0520 O   0  0  0  0  0  0  0  0  0  0  0  0
   11.2182  -17.1005   24.6310 C   0  0  0  0  0  0  0  0  0  0  0  0
    9.8539  -16.8295   25.2269 C   0  0  2  0  0  0  0  0  0  0  0  0
    9.5296  -15.4321   25.1601 N   0  0  0  0  0  0  0  0  0  0  0  0
    9.7477  -17.3669   26.6073 C   0  0  0  0  0  0  0  0  0  0  0  0
    9.7096  -16.6528   27.6330 O   0  0  0  0  0  0  0  0  0  0  0  0
    9.6874  -18.7411   26.7659 O   0  0  0  0  0  0  0  0  0  0  0  0
  2  1  1  6
  3  4  1  0
  3  2  1  0
  5  2  1  0
  5  6  2  0
  7  5  1  0
  8  7  1  0
  8 11  1  0
  8  9  1  1
 10  9  1  0
 11 18  1  0
 12 11  2  0
 13 14  1  0
 14 15  2  0
 16 14  1  0
 17 16  1  1
 17 19  1  0
 18 17  1  0
 19 20  2  0
 19 21  1  0
M  END
$$$$
