CCN.pdb
     RDKit          3D

 21 20  0  0  1  0  0  0  0  0999 V2000
    8.3638  -15.0426   19.9335 N   0  0  0  0  0  0  0  0  0  0  0  0
    7.5054  -15.2645   21.0943 C   0  0  1  0  0  0  0  0  0  0  0  0
    7.2045  -16.7377   21.2723 C   0  0  0  0  0  0  0  0  0  0  0  0
    5.9548  -16.9814   22.5704 S   0  0  0  0  0  0  0  0  0  0  0  0
    8.1616  -14.7905   22.3400 C   0  0  0  0  0  0  0  0  0  0  0  0
    9.4176  -14.7647   22.3985 O   0  0  0  0  0  0  0  0  0  0  0  0
    7.4486  -14.3570   23.4890 N   0  0  0  0  0  0  0  0  0  0  0  0
    8.0745  -13.9208   24.7017 C   0  0  1  0  0  0  0  0  0  0  0  0
    7.1868  -13.0451   25.5547 C   0  0  0  0  0  0  0  0  0  0  0  0
    5.7003  -13.9707   26.0236 S   0  0  0  0  0  0  0  0  0  0  0  0
    8.5906  -15.0862   25.4440 C   0  0  0  0  0  0  0  0  0  0  0  0
    9.2444  -14.9155   26.5289 O   0  0  0  0  0  0  0  0  0  0  0  0
    6.6661  -19.1993   23.5968 N   0  0  0  0  0  0  0  0  0  0  0  0
    7.0985  -18.8253   24.8913 C   0  0  0  0  0  0  0  0  0  0  0  0
    6.2536  -18.4897   25.7462 O   0  0  0  0  0  0  0  0  0  0  0  0
    8.5504  -18.8475   25.1823 C   0  0  0  0  0  0  0  0  0  0  0  0
    8.9950  -17.5148   25.7443 C   0  0  2  0  0  0  0  0  0  0  0  0
    8.4030  -16.4254   25.0196 N   0  0  0  0  0  0  0  0  0  0  0  0
   10.4757  -17.4156   25.7997 C   0  0  0  0  0  0  0  0  0  0  0  0
   11.1525  -17.6434   26.8261 O   0  0  0  0  0  0  0  0  0  0  0  0
   11.1453  -17.0487   24.6445 O   0  0  0  0  0  0  0  0  0  0  0  0
  2  1  1  6
  3  4  1  0
  3  2  1  0
  5  2  1  0
  5  6  2  0
  7  5  1  0
  8  7  1  0
  8 11  1  0
  8  9  1  1
 10  9  1  0
 11 18  1  0
 12 11  2  0
 13 14  1  0
 14 15  2  0
 16 14  1  0
 17 16  1  6
 17 19  1  0
 18 17  1  0
 19 20  2  0
 19 21  1  0
M  END
$$$$
