ITV.pdb
     RDKit          3D

 23 22  0  0  1  0  0  0  0  0999 V2000
    9.7744  -12.4147   19.8651 C   0  0  0  0  0  0  0  0  0  0  0  0
    8.9558  -13.2824   20.8120 C   0  0  0  0  0  0  0  0  0  0  0  0
    8.1917  -14.2662   19.9664 C   0  0  2  0  0  0  0  0  0  0  0  0
    7.2515  -13.5461   19.0214 C   0  0  0  0  0  0  0  0  0  0  0  0
    7.3715  -15.2281   20.7748 C   0  0  2  0  0  0  0  0  0  0  0  0
    6.4387  -14.4463   21.5888 N   0  0  0  0  0  0  0  0  0  0  0  0
    8.1666  -16.0775   21.6729 C   0  0  0  0  0  0  0  0  0  0  0  0
    8.2829  -17.3229   21.4951 O   0  0  0  0  0  0  0  0  0  0  0  0
    9.7387  -18.1814   22.0834 C   0  0  0  0  0  0  0  0  0  0  0  0
   10.4535  -17.2768   23.0679 C   0  0  1  0  0  0  0  0  0  0  0  0
   11.4403  -16.5567   22.4332 O   0  0  0  0  0  0  0  0  0  0  0  0
    9.4587  -16.4142   23.8142 C   0  0  2  0  0  0  0  0  0  0  0  0
    8.8535  -15.5381   22.7999 N   0  0  0  0  0  0  0  0  0  0  0  0
   10.1245  -15.5780   24.8549 C   0  0  0  0  0  0  0  0  0  0  0  0
   11.0210  -14.7820   24.5501 O   0  0  0  0  0  0  0  0  0  0  0  0
    9.3181  -12.8673   26.4377 C   0  0  0  0  0  0  0  0  0  0  0  0
    9.3533  -13.7931   27.6407 C   0  0  1  0  0  0  0  0  0  0  0  0
    7.9813  -14.3240   27.9393 C   0  0  0  0  0  0  0  0  0  0  0  0
   10.2971  -14.9366   27.2767 C   0  0  2  0  0  0  0  0  0  0  0  0
    9.7096  -15.7121   26.2069 N   0  0  0  0  0  0  0  0  0  0  0  0
   10.5464  -15.8108   28.4322 C   0  0  0  0  0  0  0  0  0  0  0  0
   11.3547  -15.4248   29.5007 O   0  0  0  0  0  0  0  0  0  0  0  0
   10.0189  -16.9480   28.4712 O   0  0  0  0  0  0  0  0  0  0  0  0
  2  3  1  0
  2  1  1  0
  3  4  1  6
  5  7  1  0
  5  3  1  0
  5  6  1  1
  7  8  2  0
 10 12  1  0
 10  9  1  6
 11 10  1  0
 12 13  1  6
 13  7  1  0
 14 20  1  0
 14 12  1  0
 15 14  2  0
 17 16  1  6
 17 18  1  0
 19 20  1  6
 19 17  1  0
 21 22  1  0
 21 19  1  0
 23 21  2  0
M  END
$$$$
