ITV.pdb
     RDKit          3D

 23 22  0  0  1  0  0  0  0  0999 V2000
    7.6189  -11.9667   19.2797 C   0  0  0  0  0  0  0  0  0  0  0  0
    7.9081  -13.4559   19.1437 C   0  0  0  0  0  0  0  0  0  0  0  0
    7.8678  -14.0456   20.5283 C   0  0  2  0  0  0  0  0  0  0  0  0
    8.8821  -13.3713   21.4294 C   0  0  0  0  0  0  0  0  0  0  0  0
    8.1513  -15.5190   20.5513 C   0  0  2  0  0  0  0  0  0  0  0  0
    7.0966  -16.1893   19.7883 N   0  0  0  0  0  0  0  0  0  0  0  0
    8.1811  -16.0970   21.9023 C   0  0  0  0  0  0  0  0  0  0  0  0
    7.1329  -16.2618   22.5881 O   0  0  0  0  0  0  0  0  0  0  0  0
   10.4462  -18.8861   25.2061 C   0  0  0  0  0  0  0  0  0  0  0  0
   10.3019  -18.2722   23.8274 C   0  0  1  0  0  0  0  0  0  0  0  0
    9.8688  -19.2147   22.9223 O   0  0  0  0  0  0  0  0  0  0  0  0
    9.4257  -17.0395   23.8849 C   0  0  2  0  0  0  0  0  0  0  0  0
    9.4021  -16.5051   22.5150 N   0  0  0  0  0  0  0  0  0  0  0  0
    9.9833  -16.0083   24.8075 C   0  0  0  0  0  0  0  0  0  0  0  0
   11.0512  -15.4392   24.5506 O   0  0  0  0  0  0  0  0  0  0  0  0
    9.1423  -12.9319   28.4889 C   0  0  0  0  0  0  0  0  0  0  0  0
    8.5636  -13.9484   27.5206 C   0  0  1  0  0  0  0  0  0  0  0  0
    7.8163  -13.2596   26.4157 C   0  0  0  0  0  0  0  0  0  0  0  0
    9.7484  -14.7272   26.9546 C   0  0  2  0  0  0  0  0  0  0  0  0
    9.2641  -15.6900   25.9905 N   0  0  0  0  0  0  0  0  0  0  0  0
   10.4821  -15.4292   28.0179 C   0  0  0  0  0  0  0  0  0  0  0  0
   10.1486  -16.7189   28.4299 O   0  0  0  0  0  0  0  0  0  0  0  0
   11.4454  -14.8589   28.5834 O   0  0  0  0  0  0  0  0  0  0  0  0
  2  3  1  0
  2  1  1  0
  3  4  1  1
  5  7  1  0
  5  3  1  0
  5  6  1  6
  7  8  2  0
 10 12  1  0
 10  9  1  1
 11 10  1  0
 12 13  1  6
 13  7  1  0
 14 20  1  0
 14 12  1  0
 15 14  2  0
 17 16  1  1
 17 18  1  0
 19 20  1  6
 19 17  1  0
 21 22  1  0
 21 19  1  0
 23 21  2  0
M  END
$$$$
