ITV.pdb
     RDKit          3D

 23 22  0  0  1  0  0  0  0  0999 V2000
   14.9760  -17.6796   20.4534 C   0  0  0  0  0  0  0  0  0  0  0  0
   13.5634  -17.8888   19.9237 C   0  0  0  0  0  0  0  0  0  0  0  0
   12.6864  -16.8510   20.5721 C   0  0  2  0  0  0  0  0  0  0  0  0
   12.8608  -16.8642   22.0770 C   0  0  0  0  0  0  0  0  0  0  0  0
   11.2268  -17.0476   20.2841 C   0  0  2  0  0  0  0  0  0  0  0  0
   11.0362  -16.9269   18.8374 N   0  0  0  0  0  0  0  0  0  0  0  0
   10.3537  -16.0688   20.9473 C   0  0  0  0  0  0  0  0  0  0  0  0
   10.3403  -14.8482   20.6217 O   0  0  0  0  0  0  0  0  0  0  0  0
    6.7257  -16.0975   20.9703 C   0  0  0  0  0  0  0  0  0  0  0  0
    7.1538  -16.1128   22.4246 C   0  0  1  0  0  0  0  0  0  0  0  0
    7.0702  -17.3869   22.9391 O   0  0  0  0  0  0  0  0  0  0  0  0
    8.5217  -15.4845   22.5814 C   0  0  2  0  0  0  0  0  0  0  0  0
    9.4696  -16.4469   22.0000 N   0  0  0  0  0  0  0  0  0  0  0  0
    8.8646  -15.2590   24.0157 C   0  0  0  0  0  0  0  0  0  0  0  0
    9.7592  -15.9142   24.5639 O   0  0  0  0  0  0  0  0  0  0  0  0
    8.0968  -11.6342   25.8427 C   0  0  0  0  0  0  0  0  0  0  0  0
    7.5398  -12.8316   26.5922 C   0  0  1  0  0  0  0  0  0  0  0  0
    6.0921  -13.0399   26.2539 C   0  0  0  0  0  0  0  0  0  0  0  0
    8.3663  -14.0375   26.1526 C   0  0  2  0  0  0  0  0  0  0  0  0
    8.1433  -14.2752   24.7437 N   0  0  0  0  0  0  0  0  0  0  0  0
    8.0003  -15.2410   26.9137 C   0  0  0  0  0  0  0  0  0  0  0  0
    8.5026  -15.5006   28.1883 O   0  0  0  0  0  0  0  0  0  0  0  0
    7.2084  -16.0729   26.4100 O   0  0  0  0  0  0  0  0  0  0  0  0
  2  3  1  0
  2  1  1  0
  3  4  1  1
  5  7  1  0
  5  3  1  0
  5  6  1  6
  7  8  2  0
 10 12  1  0
 10  9  1  6
 11 10  1  0
 12 13  1  1
 13  7  1  0
 14 20  1  0
 14 12  1  0
 15 14  2  0
 17 16  1  6
 17 18  1  0
 19 20  1  6
 19 17  1  0
 21 22  1  0
 21 19  1  0
 23 21  2  0
M  END
$$$$
