ITV.pdb
     RDKit          3D

 23 22  0  0  1  0  0  0  0  0999 V2000
    7.3320  -12.0707   18.8698 C   0  0  0  0  0  0  0  0  0  0  0  0
    8.2681  -13.2718   18.8431 C   0  0  0  0  0  0  0  0  0  0  0  0
    8.0533  -14.0324   20.1246 C   0  0  2  0  0  0  0  0  0  0  0  0
    8.4834  -13.2053   21.3189 C   0  0  0  0  0  0  0  0  0  0  0  0
    8.8083  -15.3282   20.1761 C   0  0  2  0  0  0  0  0  0  0  0  0
    8.3335  -16.1665   19.0736 N   0  0  0  0  0  0  0  0  0  0  0  0
    8.6274  -16.0713   21.4312 C   0  0  0  0  0  0  0  0  0  0  0  0
    7.8168  -17.0350   21.5330 O   0  0  0  0  0  0  0  0  0  0  0  0
    8.6750  -18.5067   22.3759 C   0  0  0  0  0  0  0  0  0  0  0  0
    9.6584  -17.9664   23.3955 C   0  0  1  0  0  0  0  0  0  0  0  0
   10.9466  -18.0564   22.9185 O   0  0  0  0  0  0  0  0  0  0  0  0
    9.2662  -16.5681   23.8214 C   0  0  2  0  0  0  0  0  0  0  0  0
    9.3615  -15.7422   22.6082 N   0  0  0  0  0  0  0  0  0  0  0  0
   10.1904  -16.0277   24.8603 C   0  0  0  0  0  0  0  0  0  0  0  0
   11.3246  -15.6374   24.5581 O   0  0  0  0  0  0  0  0  0  0  0  0
    8.3215  -14.4831   28.0710 C   0  0  0  0  0  0  0  0  0  0  0  0
    9.6957  -14.0101   27.6310 C   0  0  1  0  0  0  0  0  0  0  0  0
   10.3921  -13.2944   28.7518 C   0  0  0  0  0  0  0  0  0  0  0  0
   10.4754  -15.2614   27.2347 C   0  0  2  0  0  0  0  0  0  0  0  0
    9.7437  -15.9689   26.2075 N   0  0  0  0  0  0  0  0  0  0  0  0
   10.6792  -16.1503   28.3879 C   0  0  0  0  0  0  0  0  0  0  0  0
   11.7222  -15.9700   29.2955 O   0  0  0  0  0  0  0  0  0  0  0  0
    9.8934  -17.1100   28.5741 O   0  0  0  0  0  0  0  0  0  0  0  0
  2  3  1  0
  2  1  1  0
  3  4  1  1
  5  7  1  0
  5  3  1  0
  5  6  1  6
  7  8  2  0
 10 12  1  0
 10  9  1  6
 11 10  1  0
 12 13  1  6
 13  7  1  0
 14 20  1  0
 14 12  1  0
 15 14  2  0
 17 16  1  1
 17 18  1  0
 19 20  1  6
 19 17  1  0
 21 22  1  0
 21 19  1  0
 23 21  2  0
M  END
$$$$
