ITV.pdb
     RDKit          3D

 23 22  0  0  1  0  0  0  0  0999 V2000
    7.5808  -11.6912   19.7330 C   0  0  0  0  0  0  0  0  0  0  0  0
    7.8904  -13.1607   19.4791 C   0  0  0  0  0  0  0  0  0  0  0  0
    7.7741  -13.8749   20.7994 C   0  0  2  0  0  0  0  0  0  0  0  0
    8.7518  -13.3049   21.8067 C   0  0  0  0  0  0  0  0  0  0  0  0
    8.0362  -15.3490   20.6987 C   0  0  2  0  0  0  0  0  0  0  0  0
    6.9867  -15.9337   19.8617 N   0  0  0  0  0  0  0  0  0  0  0  0
    8.0322  -16.0426   21.9945 C   0  0  0  0  0  0  0  0  0  0  0  0
    6.9654  -16.2815   22.6278 O   0  0  0  0  0  0  0  0  0  0  0  0
   10.1591  -19.0291   25.1922 C   0  0  0  0  0  0  0  0  0  0  0  0
    9.9669  -18.3934   23.8293 C   0  0  1  0  0  0  0  0  0  0  0  0
    9.3607  -19.2774   22.9655 O   0  0  0  0  0  0  0  0  0  0  0  0
    9.2363  -17.0741   23.9577 C   0  0  2  0  0  0  0  0  0  0  0  0
    9.2396  -16.4857   22.6099 N   0  0  0  0  0  0  0  0  0  0  0  0
    9.9284  -16.1494   24.9017 C   0  0  0  0  0  0  0  0  0  0  0  0
   10.9658  -15.5635   24.5686 O   0  0  0  0  0  0  0  0  0  0  0  0
    9.4382  -13.1308   28.6217 C   0  0  0  0  0  0  0  0  0  0  0  0
    8.7875  -14.1689   27.7247 C   0  0  1  0  0  0  0  0  0  0  0  0
    8.0049  -13.5047   26.6292 C   0  0  0  0  0  0  0  0  0  0  0  0
    9.9233  -15.0016   27.1354 C   0  0  2  0  0  0  0  0  0  0  0  0
    9.3736  -15.9523   26.1945 N   0  0  0  0  0  0  0  0  0  0  0  0
   10.6558  -15.7237   28.1859 C   0  0  0  0  0  0  0  0  0  0  0  0
   11.7812  -15.1908   28.8134 O   0  0  0  0  0  0  0  0  0  0  0  0
   10.2650  -16.8616   28.5403 O   0  0  0  0  0  0  0  0  0  0  0  0
  2  3  1  0
  2  1  1  0
  3  4  1  1
  5  7  1  0
  5  3  1  0
  5  6  1  6
  7  8  2  0
 10 12  1  0
 10  9  1  1
 11 10  1  0
 12 13  1  6
 13  7  1  0
 14 20  1  0
 14 12  1  0
 15 14  2  0
 17 16  1  1
 17 18  1  0
 19 20  1  6
 19 17  1  0
 21 22  1  0
 21 19  1  0
 23 21  2  0
M  END
$$$$
