ITV.pdb
     RDKit          3D

 23 22  0  0  1  0  0  0  0  0999 V2000
    7.6144  -12.1593   18.2104 C   0  0  0  0  0  0  0  0  0  0  0  0
    8.1578  -13.5721   18.3791 C   0  0  0  0  0  0  0  0  0  0  0  0
    7.7774  -14.0335   19.7608 C   0  0  2  0  0  0  0  0  0  0  0  0
    8.3764  -13.1248   20.8148 C   0  0  0  0  0  0  0  0  0  0  0  0
    8.2280  -15.4330   20.0611 C   0  0  2  0  0  0  0  0  0  0  0  0
    7.4901  -16.3394   19.1792 N   0  0  0  0  0  0  0  0  0  0  0  0
    7.9908  -15.8478   21.4510 C   0  0  0  0  0  0  0  0  0  0  0  0
    6.8352  -16.1135   21.8872 O   0  0  0  0  0  0  0  0  0  0  0  0
    9.4851  -18.1467   25.4034 C   0  0  0  0  0  0  0  0  0  0  0  0
    9.6307  -17.6430   23.9809 C   0  0  1  0  0  0  0  0  0  0  0  0
    9.3404  -18.6446   23.0821 O   0  0  0  0  0  0  0  0  0  0  0  0
    8.8097  -16.3882   23.7760 C   0  0  2  0  0  0  0  0  0  0  0  0
    9.0588  -15.9732   22.3872 N   0  0  0  0  0  0  0  0  0  0  0  0
    9.2307  -15.2959   24.7006 C   0  0  0  0  0  0  0  0  0  0  0  0
   10.3105  -14.7133   24.5430 O   0  0  0  0  0  0  0  0  0  0  0  0
    7.5565  -12.1869   25.5727 C   0  0  0  0  0  0  0  0  0  0  0  0
    7.6159  -12.9276   26.8969 C   0  0  1  0  0  0  0  0  0  0  0  0
    6.3104  -13.6135   27.1778 C   0  0  0  0  0  0  0  0  0  0  0  0
    8.7375  -13.9549   26.7659 C   0  0  2  0  0  0  0  0  0  0  0  0
    8.3670  -14.9349   25.7692 N   0  0  0  0  0  0  0  0  0  0  0  0
    8.9917  -14.6332   28.0453 C   0  0  0  0  0  0  0  0  0  0  0  0
    9.7186  -14.0377   29.0754 O   0  0  0  0  0  0  0  0  0  0  0  0
    8.5442  -15.7902   28.2302 O   0  0  0  0  0  0  0  0  0  0  0  0
  2  3  1  0
  2  1  1  0
  3  4  1  1
  5  7  1  0
  5  3  1  0
  5  6  1  6
  7  8  2  0
 10 12  1  0
 10  9  1  1
 11 10  1  0
 12 13  1  6
 13  7  1  0
 14 20  1  0
 14 12  1  0
 15 14  2  0
 17 16  1  6
 17 18  1  0
 19 20  1  6
 19 17  1  0
 21 22  1  0
 21 19  1  0
 23 21  2  0
M  END
$$$$
