ITV.pdb
     RDKit          3D

 23 22  0  0  1  0  0  0  0  0999 V2000
    7.8436  -12.0059   18.5840 C   0  0  0  0  0  0  0  0  0  0  0  0
    8.2814  -13.4625   18.6650 C   0  0  0  0  0  0  0  0  0  0  0  0
    7.8611  -13.9794   20.0151 C   0  0  2  0  0  0  0  0  0  0  0  0
    8.6015  -13.2564   21.1217 C   0  0  0  0  0  0  0  0  0  0  0  0
    8.1108  -15.4489   20.1888 C   0  0  2  0  0  0  0  0  0  0  0  0
    7.2766  -16.1619   19.2196 N   0  0  0  0  0  0  0  0  0  0  0  0
    7.7885  -15.9512   21.5320 C   0  0  0  0  0  0  0  0  0  0  0  0
    6.7137  -16.5664   21.7815 O   0  0  0  0  0  0  0  0  0  0  0  0
    7.4746  -18.3771   22.7231 C   0  0  0  0  0  0  0  0  0  0  0  0
    8.5575  -17.9044   23.6732 C   0  0  1  0  0  0  0  0  0  0  0  0
    9.8000  -18.2781   23.2132 O   0  0  0  0  0  0  0  0  0  0  0  0
    8.4275  -16.4182   23.9281 C   0  0  2  0  0  0  0  0  0  0  0  0
    8.6772  -15.7698   22.6320 N   0  0  0  0  0  0  0  0  0  0  0  0
    9.4316  -15.9386   24.9217 C   0  0  0  0  0  0  0  0  0  0  0  0
   10.6072  -15.7427   24.5904 O   0  0  0  0  0  0  0  0  0  0  0  0
    9.7170  -13.1697   28.8869 C   0  0  0  0  0  0  0  0  0  0  0  0
    8.8407  -14.0645   28.0284 C   0  0  1  0  0  0  0  0  0  0  0  0
    7.9536  -13.2408   27.1407 C   0  0  0  0  0  0  0  0  0  0  0  0
    9.7881  -14.9170   27.1879 C   0  0  2  0  0  0  0  0  0  0  0  0
    9.0129  -15.7100   26.2598 N   0  0  0  0  0  0  0  0  0  0  0  0
   10.5961  -15.8079   28.0335 C   0  0  0  0  0  0  0  0  0  0  0  0
   11.8354  -15.4290   28.5478 O   0  0  0  0  0  0  0  0  0  0  0  0
   10.1669  -16.9534   28.3101 O   0  0  0  0  0  0  0  0  0  0  0  0
  2  3  1  0
  2  1  1  0
  3  4  1  1
  5  7  1  0
  5  3  1  0
  5  6  1  6
  7  8  2  0
 10 12  1  0
 10  9  1  6
 11 10  1  0
 12 13  1  6
 13  7  1  0
 14 20  1  0
 14 12  1  0
 15 14  2  0
 17 16  1  1
 17 18  1  0
 19 20  1  6
 19 17  1  0
 21 22  1  0
 21 19  1  0
 23 21  2  0
M  END
$$$$
