ITV.pdb
     RDKit          3D

 23 22  0  0  1  0  0  0  0  0999 V2000
    7.9166  -12.1971   18.1761 C   0  0  0  0  0  0  0  0  0  0  0  0
    8.1782  -13.6766   18.4263 C   0  0  0  0  0  0  0  0  0  0  0  0
    7.6630  -13.9929   19.8051 C   0  0  2  0  0  0  0  0  0  0  0  0
    8.3987  -13.1825   20.8527 C   0  0  0  0  0  0  0  0  0  0  0  0
    7.8056  -15.4412   20.1711 C   0  0  2  0  0  0  0  0  0  0  0  0
    6.8831  -16.2076   19.3313 N   0  0  0  0  0  0  0  0  0  0  0  0
    7.4968  -15.7312   21.5785 C   0  0  0  0  0  0  0  0  0  0  0  0
    6.3153  -15.7187   22.0256 O   0  0  0  0  0  0  0  0  0  0  0  0
    8.6683  -18.0582   25.6695 C   0  0  0  0  0  0  0  0  0  0  0  0
    8.8569  -17.6792   24.2136 C   0  0  1  0  0  0  0  0  0  0  0  0
    8.4297  -18.6969   23.3908 O   0  0  0  0  0  0  0  0  0  0  0  0
    8.1986  -16.3478   23.9227 C   0  0  2  0  0  0  0  0  0  0  0  0
    8.5205  -16.0439   22.5202 N   0  0  0  0  0  0  0  0  0  0  0  0
    8.7334  -15.2646   24.7979 C   0  0  0  0  0  0  0  0  0  0  0  0
    9.8669  -14.8042   24.6154 O   0  0  0  0  0  0  0  0  0  0  0  0
    6.9404  -12.0958   25.7776 C   0  0  0  0  0  0  0  0  0  0  0  0
    7.2531  -12.7966   27.0878 C   0  0  1  0  0  0  0  0  0  0  0  0
    6.0456  -13.5294   27.5964 C   0  0  0  0  0  0  0  0  0  0  0  0
    8.3840  -13.7786   26.7919 C   0  0  2  0  0  0  0  0  0  0  0  0
    7.9153  -14.7689   25.8482 N   0  0  0  0  0  0  0  0  0  0  0  0
    8.8410  -14.4507   28.0171 C   0  0  0  0  0  0  0  0  0  0  0  0
    8.6124  -15.8052   28.2560 O   0  0  0  0  0  0  0  0  0  0  0  0
    9.4603  -13.7935   28.8875 O   0  0  0  0  0  0  0  0  0  0  0  0
  2  3  1  0
  2  1  1  0
  3  4  1  1
  5  7  1  0
  5  3  1  0
  5  6  1  6
  7  8  2  0
 10 12  1  0
 10  9  1  1
 11 10  1  0
 12 13  1  6
 13  7  1  0
 14 20  1  0
 14 12  1  0
 15 14  2  0
 17 16  1  6
 17 18  1  0
 19 20  1  6
 19 17  1  0
 21 22  1  0
 21 19  1  0
 23 21  2  0
M  END
$$$$
