ITV.pdb
     RDKit          3D

 23 22  0  0  1  0  0  0  0  0999 V2000
    7.3642  -11.8924   19.5077 C   0  0  0  0  0  0  0  0  0  0  0  0
    7.9491  -13.2945   19.3991 C   0  0  0  0  0  0  0  0  0  0  0  0
    7.7710  -13.9564   20.7396 C   0  0  2  0  0  0  0  0  0  0  0  0
    8.5059  -13.1890   21.8197 C   0  0  0  0  0  0  0  0  0  0  0  0
    8.2700  -15.3712   20.7707 C   0  0  2  0  0  0  0  0  0  0  0  0
    7.4952  -16.1403   19.7950 N   0  0  0  0  0  0  0  0  0  0  0  0
    8.1334  -16.0203   22.0824 C   0  0  0  0  0  0  0  0  0  0  0  0
    7.0068  -16.2725   22.5954 O   0  0  0  0  0  0  0  0  0  0  0  0
    8.4943  -19.2067   23.1821 C   0  0  0  0  0  0  0  0  0  0  0  0
    9.5255  -18.4637   24.0087 C   0  0  1  0  0  0  0  0  0  0  0  0
   10.7829  -18.6279   23.4730 O   0  0  0  0  0  0  0  0  0  0  0  0
    9.1241  -17.0145   24.1795 C   0  0  2  0  0  0  0  0  0  0  0  0
    9.2721  -16.4023   22.8505 N   0  0  0  0  0  0  0  0  0  0  0  0
   10.0090  -16.3072   25.1501 C   0  0  0  0  0  0  0  0  0  0  0  0
   11.0402  -15.7394   24.7701 O   0  0  0  0  0  0  0  0  0  0  0  0
   10.2837  -13.8766   29.2803 C   0  0  0  0  0  0  0  0  0  0  0  0
    9.4407  -14.6231   28.2617 C   0  0  1  0  0  0  0  0  0  0  0  0
    8.7940  -13.6631   27.3057 C   0  0  0  0  0  0  0  0  0  0  0  0
   10.3919  -15.5553   27.5154 C   0  0  2  0  0  0  0  0  0  0  0  0
    9.6456  -16.2970   26.5234 N   0  0  0  0  0  0  0  0  0  0  0  0
   11.0480  -16.4958   28.4354 C   0  0  0  0  0  0  0  0  0  0  0  0
   12.2516  -16.1998   29.0740 O   0  0  0  0  0  0  0  0  0  0  0  0
   10.5166  -17.6088   28.6631 O   0  0  0  0  0  0  0  0  0  0  0  0
  2  3  1  0
  2  1  1  0
  3  4  1  1
  5  7  1  0
  5  3  1  0
  5  6  1  6
  7  8  2  0
 10 12  1  0
 10  9  1  6
 11 10  1  0
 12 13  1  6
 13  7  1  0
 14 20  1  0
 14 12  1  0
 15 14  2  0
 17 16  1  1
 17 18  1  0
 19 20  1  6
 19 17  1  0
 21 22  1  0
 21 19  1  0
 23 21  2  0
M  END
$$$$
