ITV.pdb
     RDKit          3D

 23 22  0  0  1  0  0  0  0  0999 V2000
   14.4881  -17.7614   20.0945 C   0  0  0  0  0  0  0  0  0  0  0  0
   12.9782  -17.8777   19.9316 C   0  0  0  0  0  0  0  0  0  0  0  0
   12.3479  -17.1376   21.0811 C   0  0  2  0  0  0  0  0  0  0  0  0
   12.8805  -17.6470   22.4049 C   0  0  0  0  0  0  0  0  0  0  0  0
   10.8530  -17.2637   21.1162 C   0  0  2  0  0  0  0  0  0  0  0  0
   10.3187  -16.5790   19.9375 N   0  0  0  0  0  0  0  0  0  0  0  0
   10.2353  -16.6729   22.3119 C   0  0  0  0  0  0  0  0  0  0  0  0
   10.0949  -15.4252   22.4513 O   0  0  0  0  0  0  0  0  0  0  0  0
    7.0705  -17.3304   25.9837 C   0  0  0  0  0  0  0  0  0  0  0  0
    7.8642  -17.8103   24.7845 C   0  0  1  0  0  0  0  0  0  0  0  0
    7.0394  -17.9765   23.6949 O   0  0  0  0  0  0  0  0  0  0  0  0
    9.0370  -16.8904   24.5220 C   0  0  2  0  0  0  0  0  0  0  0  0
    9.7585  -17.4815   23.3850 N   0  0  0  0  0  0  0  0  0  0  0  0
    9.9504  -16.8109   25.6988 C   0  0  0  0  0  0  0  0  0  0  0  0
   10.9315  -17.5586   25.7911 O   0  0  0  0  0  0  0  0  0  0  0  0
   10.3054  -13.2315   27.5672 C   0  0  0  0  0  0  0  0  0  0  0  0
   10.1447  -14.3660   28.5637 C   0  0  1  0  0  0  0  0  0  0  0  0
    8.7187  -14.4690   29.0216 C   0  0  0  0  0  0  0  0  0  0  0  0
   10.5616  -15.6413   27.8354 C   0  0  2  0  0  0  0  0  0  0  0  0
    9.6731  -15.8581   26.7153 N   0  0  0  0  0  0  0  0  0  0  0  0
   10.5113  -16.8070   28.7300 C   0  0  0  0  0  0  0  0  0  0  0  0
    9.5374  -17.7979   28.6122 O   0  0  0  0  0  0  0  0  0  0  0  0
   11.3697  -16.9271   29.6364 O   0  0  0  0  0  0  0  0  0  0  0  0
  2  3  1  0
  2  1  1  0
  3  4  1  1
  5  7  1  0
  5  3  1  0
  5  6  1  6
  7  8  2  0
 10 12  1  0
 10  9  1  1
 11 10  1  0
 12 13  1  6
 13  7  1  0
 14 20  1  0
 14 12  1  0
 15 14  2  0
 17 16  1  6
 17 18  1  0
 19 20  1  6
 19 17  1  0
 21 22  1  0
 21 19  1  0
 23 21  2  0
M  END
$$$$
