ITV.pdb
     RDKit          3D

 23 22  0  0  1  0  0  0  0  0999 V2000
    7.3073  -11.9345   19.3896 C   0  0  0  0  0  0  0  0  0  0  0  0
    7.9613  -13.2969   19.1999 C   0  0  0  0  0  0  0  0  0  0  0  0
    7.9341  -13.9935   20.5343 C   0  0  2  0  0  0  0  0  0  0  0  0
    8.7125  -13.2055   21.5680 C   0  0  0  0  0  0  0  0  0  0  0  0
    8.5131  -15.3772   20.4901 C   0  0  2  0  0  0  0  0  0  0  0  0
    7.7187  -16.1644   19.5451 N   0  0  0  0  0  0  0  0  0  0  0  0
    8.5023  -16.0671   21.7879 C   0  0  0  0  0  0  0  0  0  0  0  0
    7.4314  -16.4457   22.3410 O   0  0  0  0  0  0  0  0  0  0  0  0
    9.6184  -19.2243   22.7272 C   0  0  0  0  0  0  0  0  0  0  0  0
   10.4006  -18.3090   23.6486 C   0  0  1  0  0  0  0  0  0  0  0  0
   11.6986  -18.1768   23.2095 O   0  0  0  0  0  0  0  0  0  0  0  0
    9.6814  -16.9883   23.8199 C   0  0  2  0  0  0  0  0  0  0  0  0
    9.7073  -16.3476   22.4964 N   0  0  0  0  0  0  0  0  0  0  0  0
   10.3707  -16.1084   24.8078 C   0  0  0  0  0  0  0  0  0  0  0  0
   11.2938  -15.3633   24.4570 O   0  0  0  0  0  0  0  0  0  0  0  0
    8.3805  -14.4646   27.6057 C   0  0  0  0  0  0  0  0  0  0  0  0
    9.8365  -14.0748   27.4220 C   0  0  1  0  0  0  0  0  0  0  0  0
   10.3520  -13.3672   28.6414 C   0  0  0  0  0  0  0  0  0  0  0  0
   10.6055  -15.3746   27.1980 C   0  0  2  0  0  0  0  0  0  0  0  0
    9.9472  -16.1410   26.1634 N   0  0  0  0  0  0  0  0  0  0  0  0
   10.6712  -16.1744   28.4299 C   0  0  0  0  0  0  0  0  0  0  0  0
   10.0011  -17.3893   28.5687 O   0  0  0  0  0  0  0  0  0  0  0  0
   11.3513  -15.7607   29.3990 O   0  0  0  0  0  0  0  0  0  0  0  0
  2  3  1  0
  2  1  1  0
  3  4  1  1
  5  7  1  0
  5  3  1  0
  5  6  1  6
  7  8  2  0
 10 12  1  0
 10  9  1  6
 11 10  1  0
 12 13  1  6
 13  7  1  0
 14 20  1  0
 14 12  1  0
 15 14  2  0
 17 16  1  1
 17 18  1  0
 19 20  1  6
 19 17  1  0
 21 22  1  0
 21 19  1  0
 23 21  2  0
M  END
$$$$
