ITV.pdb
     RDKit          3D

 23 22  0  0  1  0  0  0  0  0999 V2000
   13.9894  -19.6923   22.8211 C   0  0  0  0  0  0  0  0  0  0  0  0
   13.0909  -19.1959   21.6959 C   0  0  0  0  0  0  0  0  0  0  0  0
   12.4032  -17.9516   22.1914 C   0  0  2  0  0  0  0  0  0  0  0  0
   11.7439  -18.1998   23.5328 C   0  0  0  0  0  0  0  0  0  0  0  0
   11.3453  -17.4483   21.2537 C   0  0  2  0  0  0  0  0  0  0  0  0
   11.9924  -17.1278   19.9799 N   0  0  0  0  0  0  0  0  0  0  0  0
   10.6505  -16.2451   21.7332 C   0  0  0  0  0  0  0  0  0  0  0  0
   11.2196  -15.1191   21.7981 O   0  0  0  0  0  0  0  0  0  0  0  0
    7.5075  -14.6262   20.4665 C   0  0  0  0  0  0  0  0  0  0  0  0
    7.2896  -15.0190   21.9145 C   0  0  1  0  0  0  0  0  0  0  0  0
    6.5601  -16.1838   21.9941 O   0  0  0  0  0  0  0  0  0  0  0  0
    8.6098  -15.0793   22.6521 C   0  0  2  0  0  0  0  0  0  0  0  0
    9.2886  -16.2848   22.1533 N   0  0  0  0  0  0  0  0  0  0  0  0
    8.4137  -15.1975   24.1262 C   0  0  0  0  0  0  0  0  0  0  0  0
    8.6943  -16.2453   24.7208 O   0  0  0  0  0  0  0  0  0  0  0  0
    8.2036  -11.7585   26.4138 C   0  0  0  0  0  0  0  0  0  0  0  0
    7.1072  -12.7659   26.7114 C   0  0  1  0  0  0  0  0  0  0  0  0
    5.8534  -12.4192   25.9621 C   0  0  0  0  0  0  0  0  0  0  0  0
    7.6366  -14.1248   26.2598 C   0  0  2  0  0  0  0  0  0  0  0  0
    7.8973  -14.0818   24.8381 N   0  0  0  0  0  0  0  0  0  0  0  0
    6.6706  -15.1955   26.5459 C   0  0  0  0  0  0  0  0  0  0  0  0
    6.6445  -15.8724   27.7646 O   0  0  0  0  0  0  0  0  0  0  0  0
    5.8337  -15.5220   25.6707 O   0  0  0  0  0  0  0  0  0  0  0  0
  2  3  1  0
  2  1  1  0
  3  4  1  1
  5  7  1  0
  5  3  1  0
  5  6  1  6
  7  8  2  0
 10 12  1  0
 10  9  1  6
 11 10  1  0
 12 13  1  6
 13  7  1  0
 14 20  1  0
 14 12  1  0
 15 14  2  0
 17 16  1  6
 17 18  1  0
 19 20  1  6
 19 17  1  0
 21 22  1  0
 21 19  1  0
 23 21  2  0
M  END
$$$$
