ITV.pdb
     RDKit          3D

 23 22  0  0  1  0  0  0  0  0999 V2000
   13.1789  -18.3578   23.8203 C   0  0  0  0  0  0  0  0  0  0  0  0
   12.7039  -17.4189   22.7191 C   0  0  0  0  0  0  0  0  0  0  0  0
   11.6672  -18.1605   21.9180 C   0  0  2  0  0  0  0  0  0  0  0  0
   12.2823  -19.3550   21.2178 C   0  0  0  0  0  0  0  0  0  0  0  0
   11.0111  -17.3103   20.8699 C   0  0  2  0  0  0  0  0  0  0  0  0
   12.0497  -16.8702   19.9364 N   0  0  0  0  0  0  0  0  0  0  0  0
   10.3392  -16.1185   21.4072 C   0  0  0  0  0  0  0  0  0  0  0  0
   10.8333  -14.9607   21.3005 O   0  0  0  0  0  0  0  0  0  0  0  0
    7.0323  -14.6177   20.6440 C   0  0  0  0  0  0  0  0  0  0  0  0
    7.0332  -15.0061   22.1095 C   0  0  1  0  0  0  0  0  0  0  0  0
    6.3648  -16.1954   22.2941 O   0  0  0  0  0  0  0  0  0  0  0  0
    8.4448  -15.0134   22.6553 C   0  0  2  0  0  0  0  0  0  0  0  0
    9.0861  -16.2061   22.0816 N   0  0  0  0  0  0  0  0  0  0  0  0
    8.4607  -15.1121   24.1438 C   0  0  0  0  0  0  0  0  0  0  0  0
    8.9152  -16.1151   24.7075 O   0  0  0  0  0  0  0  0  0  0  0  0
    8.2854  -11.6841   26.4333 C   0  0  0  0  0  0  0  0  0  0  0  0
    7.2876  -12.7489   26.8531 C   0  0  1  0  0  0  0  0  0  0  0  0
    5.9405  -12.4785   26.2483 C   0  0  0  0  0  0  0  0  0  0  0  0
    7.8391  -14.0795   26.3469 C   0  0  2  0  0  0  0  0  0  0  0  0
    7.9431  -14.0305   24.9054 N   0  0  0  0  0  0  0  0  0  0  0  0
    6.9693  -15.1996   26.7349 C   0  0  0  0  0  0  0  0  0  0  0  0
    7.1207  -15.8798   27.9426 O   0  0  0  0  0  0  0  0  0  0  0  0
    6.0536  -15.5671   25.9606 O   0  0  0  0  0  0  0  0  0  0  0  0
  2  3  1  0
  2  1  1  0
  3  4  1  6
  5  7  1  0
  5  3  1  0
  5  6  1  6
  7  8  2  0
 10 12  1  0
 10  9  1  6
 11 10  1  0
 12 13  1  6
 13  7  1  0
 14 20  1  0
 14 12  1  0
 15 14  2  0
 17 16  1  6
 17 18  1  0
 19 20  1  6
 19 17  1  0
 21 22  1  0
 21 19  1  0
 23 21  2  0
M  END
$$$$
