ITV.pdb
     RDKit          3D

 23 22  0  0  1  0  0  0  0  0999 V2000
    7.9879  -12.1796   18.1060 C   0  0  0  0  0  0  0  0  0  0  0  0
    8.2703  -13.6430   18.4200 C   0  0  0  0  0  0  0  0  0  0  0  0
    7.5938  -13.9564   19.7279 C   0  0  2  0  0  0  0  0  0  0  0  0
    8.1301  -13.0727   20.8356 C   0  0  0  0  0  0  0  0  0  0  0  0
    7.7741  -15.3823   20.1594 C   0  0  2  0  0  0  0  0  0  0  0  0
    7.0520  -16.2315   19.2102 N   0  0  0  0  0  0  0  0  0  0  0  0
    7.2647  -15.6631   21.5092 C   0  0  0  0  0  0  0  0  0  0  0  0
    6.0304  -15.6566   21.7785 O   0  0  0  0  0  0  0  0  0  0  0  0
    6.8392  -18.3573   23.4758 C   0  0  0  0  0  0  0  0  0  0  0  0
    7.7506  -17.5164   24.3481 C   0  0  1  0  0  0  0  0  0  0  0  0
    9.0384  -18.0014   24.3091 O   0  0  0  0  0  0  0  0  0  0  0  0
    7.6422  -16.0541   23.9734 C   0  0  2  0  0  0  0  0  0  0  0  0
    8.1417  -15.9598   22.5934 N   0  0  0  0  0  0  0  0  0  0  0  0
    8.4775  -15.1935   24.8606 C   0  0  0  0  0  0  0  0  0  0  0  0
    9.6663  -14.9765   24.5964 O   0  0  0  0  0  0  0  0  0  0  0  0
    7.4856  -11.7740   25.9324 C   0  0  0  0  0  0  0  0  0  0  0  0
    7.6953  -12.5359   27.2290 C   0  0  1  0  0  0  0  0  0  0  0  0
    6.3834  -13.0180   27.7767 C   0  0  0  0  0  0  0  0  0  0  0  0
    8.5968  -13.7209   26.8913 C   0  0  2  0  0  0  0  0  0  0  0  0
    7.8818  -14.6252   26.0183 N   0  0  0  0  0  0  0  0  0  0  0  0
    9.0096  -14.4400   28.1054 C   0  0  0  0  0  0  0  0  0  0  0  0
    9.9445  -13.9208   29.0001 O   0  0  0  0  0  0  0  0  0  0  0  0
    8.5104  -15.5626   28.3578 O   0  0  0  0  0  0  0  0  0  0  0  0
  2  3  1  0
  2  1  1  0
  3  4  1  1
  5  7  1  0
  5  3  1  0
  5  6  1  6
  7  8  2  0
 10 12  1  0
 10  9  1  6
 11 10  1  0
 12 13  1  6
 13  7  1  0
 14 20  1  0
 14 12  1  0
 15 14  2  0
 17 16  1  6
 17 18  1  0
 19 20  1  6
 19 17  1  0
 21 22  1  0
 21 19  1  0
 23 21  2  0
M  END
$$$$
