ITV.pdb
     RDKit          3D

 23 22  0  0  1  0  0  0  0  0999 V2000
    7.9142  -12.0246   18.1165 C   0  0  0  0  0  0  0  0  0  0  0  0
    8.3826  -13.4686   18.2407 C   0  0  0  0  0  0  0  0  0  0  0  0
    7.8409  -14.0022   19.5401 C   0  0  2  0  0  0  0  0  0  0  0  0
    8.3780  -13.2076   20.7130 C   0  0  0  0  0  0  0  0  0  0  0  0
    8.1839  -15.4440   19.7754 C   0  0  2  0  0  0  0  0  0  0  0  0
    7.4280  -16.2465   18.8118 N   0  0  0  0  0  0  0  0  0  0  0  0
    7.8573  -15.9190   21.1275 C   0  0  0  0  0  0  0  0  0  0  0  0
    6.6783  -16.2156   21.4712 O   0  0  0  0  0  0  0  0  0  0  0  0
    9.1281  -18.2020   25.1925 C   0  0  0  0  0  0  0  0  0  0  0  0
    9.3197  -17.7387   23.7617 C   0  0  1  0  0  0  0  0  0  0  0  0
    9.0504  -18.7632   22.8825 O   0  0  0  0  0  0  0  0  0  0  0  0
    8.5131  -16.4856   23.4975 C   0  0  2  0  0  0  0  0  0  0  0  0
    8.8599  -16.0714   22.1297 N   0  0  0  0  0  0  0  0  0  0  0  0
    8.8650  -15.3917   24.4488 C   0  0  0  0  0  0  0  0  0  0  0  0
    9.9564  -14.8142   24.3746 O   0  0  0  0  0  0  0  0  0  0  0  0
    7.1445  -12.1576   27.6906 C   0  0  0  0  0  0  0  0  0  0  0  0
    6.8210  -13.3351   26.7881 C   0  0  1  0  0  0  0  0  0  0  0  0
    6.0569  -12.8797   25.5788 C   0  0  0  0  0  0  0  0  0  0  0  0
    8.1598  -13.9402   26.3729 C   0  0  2  0  0  0  0  0  0  0  0  0
    7.9216  -15.0233   25.4449 N   0  0  0  0  0  0  0  0  0  0  0  0
    8.8988  -14.4497   27.5373 C   0  0  0  0  0  0  0  0  0  0  0  0
    8.7589  -15.7586   27.9970 O   0  0  0  0  0  0  0  0  0  0  0  0
    9.6873  -13.6899   28.1489 O   0  0  0  0  0  0  0  0  0  0  0  0
  2  3  1  0
  2  1  1  0
  3  4  1  1
  5  7  1  0
  5  3  1  0
  5  6  1  6
  7  8  2  0
 10 12  1  0
 10  9  1  1
 11 10  1  0
 12 13  1  6
 13  7  1  0
 14 20  1  0
 14 12  1  0
 15 14  2  0
 17 16  1  1
 17 18  1  0
 19 20  1  6
 19 17  1  0
 21 22  1  0
 21 19  1  0
 23 21  2  0
M  END
$$$$
