ALF.pdb
     RDKit          3D

 25 25  0  0  1  0  0  0  0  0999 V2000
    8.1382  -20.6697   20.5664 C   0  0  0  0  0  0  0  0  0  0  0  0
    8.3949  -19.5725   19.5851 C   0  0  2  0  0  0  0  0  0  0  0  0
    9.3547  -19.9945   18.5779 N   0  0  0  0  0  0  0  0  0  0  0  0
    8.8251  -18.3087   20.2427 C   0  0  0  0  0  0  0  0  0  0  0  0
    9.9395  -18.2934   20.8088 O   0  0  0  0  0  0  0  0  0  0  0  0
    9.1275  -13.4015   19.4311 C   0  0  0  0  0  0  0  0  0  0  0  0
    8.1431  -13.4863   20.5844 C   0  0  1  0  0  0  0  0  0  0  0  0
    7.1283  -12.3639   20.3105 C   0  0  0  0  0  0  0  0  0  0  0  0
    7.4483  -14.8202   20.5622 C   0  0  0  0  0  0  0  0  0  0  0  0
    8.3411  -15.9366   20.9750 C   0  0  2  0  0  0  0  0  0  0  0  0
    8.0228  -17.1653   20.2380 N   0  0  0  0  0  0  0  0  0  0  0  0
    8.3100  -16.2102   22.4372 C   0  0  0  0  0  0  0  0  0  0  0  0
    7.4411  -16.9027   22.9698 O   0  0  0  0  0  0  0  0  0  0  0  0
    9.3224  -15.6593   23.2991 N   0  0  0  0  0  0  0  0  0  0  0  0
    8.9931  -15.0895   24.5902 C   0  0  1  0  0  0  0  0  0  0  0  0
    8.1523  -13.8735   24.3790 C   0  0  0  0  0  0  0  0  0  0  0  0
    7.6652  -13.2240   25.5889 C   0  0  0  0  0  0  0  0  0  0  0  0
    8.5056  -12.9266   26.6617 C   0  0  0  0  0  0  0  0  0  0  0  0
    7.9467  -12.3152   27.7501 C   0  0  0  0  0  0  0  0  0  0  0  0
    6.6003  -12.0013   27.7910 C   0  0  0  0  0  0  0  0  0  0  0  0
    5.7590  -12.2851   26.7480 C   0  0  0  0  0  0  0  0  0  0  0  0
    6.3122  -12.9019   25.6450 C   0  0  0  0  0  0  0  0  0  0  0  0
    8.3856  -16.1183   25.4274 C   0  0  0  0  0  0  0  0  0  0  0  0
    7.4577  -17.0403   24.9567 O   0  0  0  0  0  0  0  0  0  0  0  0
    8.6901  -16.2095   26.6433 O   0  0  0  0  0  0  0  0  0  0  0  0
  2  1  1  1
  2  4  1  0
  3  2  1  0
  4 11  1  0
  4  5  2  0
  7  6  1  6
  7  8  1  0
  9  7  1  0
 10  9  1  1
 11 10  1  0
 12 10  1  0
 12 13  2  0
 14 12  1  0
 15 14  1  0
 15 16  1  6
 17 16  1  0
 17 18  2  0
 19 18  1  0
 20 19  2  0
 21 22  2  0
 21 20  1  0
 22 17  1  0
 23 15  1  0
 24 23  1  0
 25 23  2  0
M  END
$$$$
