ALF.pdb
     RDKit          3D

 25 25  0  0  1  0  0  0  0  0999 V2000
   12.4017  -16.4598   18.9577 C   0  0  0  0  0  0  0  0  0  0  0  0
   11.3465  -17.2523   19.6585 C   0  0  2  0  0  0  0  0  0  0  0  0
   10.3302  -17.7019   18.7210 N   0  0  0  0  0  0  0  0  0  0  0  0
   10.7388  -16.5113   20.7969 C   0  0  0  0  0  0  0  0  0  0  0  0
   11.4805  -16.1953   21.7523 O   0  0  0  0  0  0  0  0  0  0  0  0
    6.5439  -13.2002   19.5669 C   0  0  0  0  0  0  0  0  0  0  0  0
    7.8424  -13.7497   20.1310 C   0  0  1  0  0  0  0  0  0  0  0  0
    8.6155  -12.5074   20.6038 C   0  0  0  0  0  0  0  0  0  0  0  0
    7.5482  -14.6454   21.3030 C   0  0  0  0  0  0  0  0  0  0  0  0
    8.7682  -15.3115   21.8337 C   0  0  2  0  0  0  0  0  0  0  0  0
    9.3843  -16.1704   20.8153 N   0  0  0  0  0  0  0  0  0  0  0  0
    8.5212  -16.1024   23.0696 C   0  0  0  0  0  0  0  0  0  0  0  0
    8.2819  -17.3110   23.0537 O   0  0  0  0  0  0  0  0  0  0  0  0
    8.5553  -15.4624   24.3583 N   0  0  0  0  0  0  0  0  0  0  0  0
    8.3268  -16.2049   25.5815 C   0  0  1  0  0  0  0  0  0  0  0  0
    8.5119  -15.2858   26.7439 C   0  0  0  0  0  0  0  0  0  0  0  0
    7.7488  -14.0454   26.6966 C   0  0  0  0  0  0  0  0  0  0  0  0
    6.3719  -14.0120   26.9172 C   0  0  0  0  0  0  0  0  0  0  0  0
    5.7518  -12.7947   26.8503 C   0  0  0  0  0  0  0  0  0  0  0  0
    6.4579  -11.6377   26.5749 C   0  0  0  0  0  0  0  0  0  0  0  0
    7.8099  -11.6498   26.3554 C   0  0  0  0  0  0  0  0  0  0  0  0
    8.4455  -12.8725   26.4205 C   0  0  0  0  0  0  0  0  0  0  0  0
    7.0213  -16.8526   25.5125 C   0  0  0  0  0  0  0  0  0  0  0  0
    6.0844  -16.5848   24.5211 O   0  0  0  0  0  0  0  0  0  0  0  0
    6.6877  -17.7030   26.3756 O   0  0  0  0  0  0  0  0  0  0  0  0
  2  1  1  6
  2  4  1  0
  3  2  1  0
  4 11  1  0
  4  5  2  0
  7  6  1  1
  7  8  1  0
  9  7  1  0
 10  9  1  6
 11 10  1  0
 12 10  1  0
 12 13  2  0
 14 12  1  0
 15 14  1  0
 15 16  1  1
 17 16  1  0
 17 18  2  0
 19 18  1  0
 20 19  2  0
 21 22  2  0
 21 20  1  0
 22 17  1  0
 23 15  1  0
 24 23  1  0
 25 23  2  0
M  END
$$$$
