ALF.pdb
     RDKit          3D

 25 25  0  0  1  0  0  0  0  0999 V2000
    7.3808  -19.6174   22.3142 C   0  0  0  0  0  0  0  0  0  0  0  0
    7.6048  -18.8464   21.0540 C   0  0  2  0  0  0  0  0  0  0  0  0
    8.0140  -19.7295   19.9740 N   0  0  0  0  0  0  0  0  0  0  0  0
    8.5729  -17.7304   21.2331 C   0  0  0  0  0  0  0  0  0  0  0  0
    9.7841  -17.9689   21.0359 O   0  0  0  0  0  0  0  0  0  0  0  0
    7.0174  -12.6803   19.9601 C   0  0  0  0  0  0  0  0  0  0  0  0
    7.8273  -13.9544   20.1245 C   0  0  1  0  0  0  0  0  0  0  0  0
    8.9750  -13.8172   19.1104 C   0  0  0  0  0  0  0  0  0  0  0  0
    8.3839  -14.0258   21.5201 C   0  0  0  0  0  0  0  0  0  0  0  0
    9.0728  -15.3156   21.7953 C   0  0  2  0  0  0  0  0  0  0  0  0
    8.1603  -16.4500   21.6091 N   0  0  0  0  0  0  0  0  0  0  0  0
    9.6828  -15.3839   23.1507 C   0  0  0  0  0  0  0  0  0  0  0  0
   10.7302  -14.8044   23.4429 O   0  0  0  0  0  0  0  0  0  0  0  0
    9.0505  -16.1503   24.1920 N   0  0  0  0  0  0  0  0  0  0  0  0
    9.6259  -16.2496   25.5183 C   0  0  1  0  0  0  0  0  0  0  0  0
    9.7405  -14.8776   26.0970 C   0  0  0  0  0  0  0  0  0  0  0  0
    8.4842  -14.1637   26.2840 C   0  0  0  0  0  0  0  0  0  0  0  0
    7.2499  -14.7438   25.9915 C   0  0  0  0  0  0  0  0  0  0  0  0
    6.1308  -13.9866   26.2039 C   0  0  0  0  0  0  0  0  0  0  0  0
    6.2137  -12.6944   26.6900 C   0  0  0  0  0  0  0  0  0  0  0  0
    7.4160  -12.1072   26.9832 C   0  0  0  0  0  0  0  0  0  0  0  0
    8.5514  -12.8621   26.7727 C   0  0  0  0  0  0  0  0  0  0  0  0
    8.8401  -17.1876   26.3128 C   0  0  0  0  0  0  0  0  0  0  0  0
    9.1836  -17.5747   27.6030 O   0  0  0  0  0  0  0  0  0  0  0  0
    7.7908  -17.6948   25.8426 O   0  0  0  0  0  0  0  0  0  0  0  0
  2  1  1  1
  2  4  1  0
  3  2  1  0
  4 11  1  0
  4  5  2  0
  7  6  1  1
  7  8  1  0
  9  7  1  0
 10  9  1  1
 11 10  1  0
 12 10  1  0
 12 13  2  0
 14 12  1  0
 15 14  1  0
 15 16  1  1
 17 16  1  0
 17 18  2  0
 19 18  1  0
 20 19  2  0
 21 22  2  0
 21 20  1  0
 22 17  1  0
 23 15  1  0
 24 23  1  0
 25 23  2  0
M  END
$$$$
