ALF.pdb
     RDKit          3D

 25 25  0  0  1  0  0  0  0  0999 V2000
    8.1380  -18.5650   18.7664 C   0  0  0  0  0  0  0  0  0  0  0  0
    8.3901  -18.5160   20.2384 C   0  0  2  0  0  0  0  0  0  0  0  0
    7.1554  -18.7121   20.9806 N   0  0  0  0  0  0  0  0  0  0  0  0
    9.0774  -17.2644   20.6576 C   0  0  0  0  0  0  0  0  0  0  0  0
   10.2828  -17.1291   20.3552 O   0  0  0  0  0  0  0  0  0  0  0  0
    6.8154  -12.6083   19.8179 C   0  0  0  0  0  0  0  0  0  0  0  0
    7.9075  -13.6428   20.0260 C   0  0  1  0  0  0  0  0  0  0  0  0
    9.1561  -13.0235   19.3764 C   0  0  0  0  0  0  0  0  0  0  0  0
    8.1433  -13.8435   21.4979 C   0  0  0  0  0  0  0  0  0  0  0  0
    9.0371  -14.9988   21.7813 C   0  0  2  0  0  0  0  0  0  0  0  0
    8.4132  -16.2611   21.3670 N   0  0  0  0  0  0  0  0  0  0  0  0
    9.4507  -15.0918   23.2076 C   0  0  0  0  0  0  0  0  0  0  0  0
   10.2489  -14.3088   23.7251 O   0  0  0  0  0  0  0  0  0  0  0  0
    8.9160  -16.1285   24.0508 N   0  0  0  0  0  0  0  0  0  0  0  0
    9.1780  -16.1592   25.4757 C   0  0  1  0  0  0  0  0  0  0  0  0
    7.8969  -15.9215   26.2056 C   0  0  0  0  0  0  0  0  0  0  0  0
    7.4800  -14.5296   26.3138 C   0  0  0  0  0  0  0  0  0  0  0  0
    6.1729  -14.1232   26.0457 C   0  0  0  0  0  0  0  0  0  0  0  0
    5.8865  -12.7923   26.1782 C   0  0  0  0  0  0  0  0  0  0  0  0
    6.8520  -11.8797   26.5630 C   0  0  0  0  0  0  0  0  0  0  0  0
    8.1407  -12.2590   26.8306 C   0  0  0  0  0  0  0  0  0  0  0  0
    8.4406  -13.5993   26.7001 C   0  0  0  0  0  0  0  0  0  0  0  0
    9.8540  -17.4076   25.8121 C   0  0  0  0  0  0  0  0  0  0  0  0
   10.2007  -18.3693   24.8702 O   0  0  0  0  0  0  0  0  0  0  0  0
   10.1559  -17.6651   27.0046 O   0  0  0  0  0  0  0  0  0  0  0  0
  2  1  1  6
  2  4  1  0
  3  2  1  0
  4 11  1  0
  4  5  2  0
  7  6  1  1
  7  8  1  0
  9  7  1  0
 10  9  1  1
 11 10  1  0
 12 10  1  0
 12 13  2  0
 14 12  1  0
 15 14  1  0
 15 16  1  1
 17 16  1  0
 17 18  2  0
 19 18  1  0
 20 19  2  0
 21 22  2  0
 21 20  1  0
 22 17  1  0
 23 15  1  0
 24 23  1  0
 25 23  2  0
M  END
$$$$
