ALF.pdb
     RDKit          3D

 25 25  0  0  1  0  0  0  0  0999 V2000
    8.4855  -20.0293   20.5273 C   0  0  0  0  0  0  0  0  0  0  0  0
    8.6235  -18.8283   19.6491 C   0  0  2  0  0  0  0  0  0  0  0  0
    9.3233  -19.1649   18.4200 N   0  0  0  0  0  0  0  0  0  0  0  0
    9.2759  -17.6857   20.3444 C   0  0  0  0  0  0  0  0  0  0  0  0
   10.4732  -17.8118   20.6810 O   0  0  0  0  0  0  0  0  0  0  0  0
    6.8311  -12.8195   19.5718 C   0  0  0  0  0  0  0  0  0  0  0  0
    7.8658  -13.9298   19.6271 C   0  0  1  0  0  0  0  0  0  0  0  0
    9.0253  -13.4222   18.7539 C   0  0  0  0  0  0  0  0  0  0  0  0
    8.3360  -14.1157   21.0437 C   0  0  0  0  0  0  0  0  0  0  0  0
    9.2125  -15.3074   21.2032 C   0  0  2  0  0  0  0  0  0  0  0  0
    8.5885  -16.5016   20.6209 N   0  0  0  0  0  0  0  0  0  0  0  0
    9.5892  -15.5808   22.6164 C   0  0  0  0  0  0  0  0  0  0  0  0
   10.6876  -15.2793   23.0863 O   0  0  0  0  0  0  0  0  0  0  0  0
    8.6559  -16.2239   23.5036 N   0  0  0  0  0  0  0  0  0  0  0  0
    8.2980  -15.6417   24.7814 C   0  0  1  0  0  0  0  0  0  0  0  0
    7.7476  -14.2730   24.5491 C   0  0  0  0  0  0  0  0  0  0  0  0
    7.4070  -13.5170   25.7473 C   0  0  0  0  0  0  0  0  0  0  0  0
    6.1083  -13.0774   26.0036 C   0  0  0  0  0  0  0  0  0  0  0  0
    5.8963  -12.3759   27.1585 C   0  0  0  0  0  0  0  0  0  0  0  0
    6.9264  -12.1096   28.0422 C   0  0  0  0  0  0  0  0  0  0  0  0
    8.2080  -12.5326   27.8084 C   0  0  0  0  0  0  0  0  0  0  0  0
    8.4332  -13.2412   26.6463 C   0  0  0  0  0  0  0  0  0  0  0  0
    7.4034  -16.5514   25.4890 C   0  0  0  0  0  0  0  0  0  0  0  0
    7.5753  -16.9146   26.8197 O   0  0  0  0  0  0  0  0  0  0  0  0
    6.4138  -17.0549   24.9002 O   0  0  0  0  0  0  0  0  0  0  0  0
  2  1  1  1
  2  4  1  0
  3  2  1  0
  4 11  1  0
  4  5  2  0
  7  6  1  1
  7  8  1  0
  9  7  1  0
 10  9  1  1
 11 10  1  0
 12 10  1  0
 12 13  2  0
 14 12  1  0
 15 14  1  0
 15 16  1  6
 17 16  1  0
 17 18  2  0
 19 18  1  0
 20 19  2  0
 21 22  2  0
 21 20  1  0
 22 17  1  0
 23 15  1  0
 24 23  1  0
 25 23  2  0
M  END
$$$$
