ALF.pdb
     RDKit          3D

 25 25  0  0  1  0  0  0  0  0999 V2000
    7.7946  -19.0554   19.1547 C   0  0  0  0  0  0  0  0  0  0  0  0
    7.8783  -18.7667   20.6184 C   0  0  2  0  0  0  0  0  0  0  0  0
    6.5505  -18.6284   21.1943 N   0  0  0  0  0  0  0  0  0  0  0  0
    8.7214  -17.5774   20.9174 C   0  0  0  0  0  0  0  0  0  0  0  0
    9.9303  -17.6228   20.6025 O   0  0  0  0  0  0  0  0  0  0  0  0
    6.8206  -12.8093   19.8594 C   0  0  0  0  0  0  0  0  0  0  0  0
    7.7276  -14.0063   20.0848 C   0  0  1  0  0  0  0  0  0  0  0  0
    8.8992  -13.7928   19.1119 C   0  0  0  0  0  0  0  0  0  0  0  0
    8.2323  -14.0014   21.5017 C   0  0  0  0  0  0  0  0  0  0  0  0
    8.9835  -15.2390   21.8451 C   0  0  2  0  0  0  0  0  0  0  0  0
    8.1965  -16.4371   21.5300 N   0  0  0  0  0  0  0  0  0  0  0  0
    9.4225  -15.2904   23.2659 C   0  0  0  0  0  0  0  0  0  0  0  0
   10.3126  -14.5680   23.7176 O   0  0  0  0  0  0  0  0  0  0  0  0
    8.8036  -16.2114   24.1825 N   0  0  0  0  0  0  0  0  0  0  0  0
    9.0957  -16.1825   25.6016 C   0  0  1  0  0  0  0  0  0  0  0  0
    7.8655  -15.7636   26.3375 C   0  0  0  0  0  0  0  0  0  0  0  0
    7.6545  -14.3263   26.4492 C   0  0  0  0  0  0  0  0  0  0  0  0
    8.6721  -13.4544   26.8362 C   0  0  0  0  0  0  0  0  0  0  0  0
    8.3682  -12.1227   26.9087 C   0  0  0  0  0  0  0  0  0  0  0  0
    7.1020  -11.6528   26.6108 C   0  0  0  0  0  0  0  0  0  0  0  0
    6.0896  -12.4928   26.2290 C   0  0  0  0  0  0  0  0  0  0  0  0
    6.3852  -13.8382   26.1525 C   0  0  0  0  0  0  0  0  0  0  0  0
    9.6428  -17.4734   26.0048 C   0  0  0  0  0  0  0  0  0  0  0  0
   10.1165  -17.7391   27.2844 O   0  0  0  0  0  0  0  0  0  0  0  0
    9.7070  -18.4212   25.1819 O   0  0  0  0  0  0  0  0  0  0  0  0
  2  1  1  6
  2  4  1  0
  3  2  1  0
  4 11  1  0
  4  5  2  0
  7  6  1  1
  7  8  1  0
  9  7  1  0
 10  9  1  1
 11 10  1  0
 12 10  1  0
 12 13  2  0
 14 12  1  0
 15 14  1  0
 15 16  1  1
 17 16  1  0
 17 18  2  0
 19 18  1  0
 20 19  2  0
 21 22  2  0
 21 20  1  0
 22 17  1  0
 23 15  1  0
 24 23  1  0
 25 23  2  0
M  END
$$$$
