ALF.pdb
     RDKit          3D

 25 25  0  0  1  0  0  0  0  0999 V2000
    8.3698  -18.4781   18.7391 C   0  0  0  0  0  0  0  0  0  0  0  0
    8.3777  -18.4339   20.2326 C   0  0  2  0  0  0  0  0  0  0  0  0
    7.0246  -18.5121   20.7588 N   0  0  0  0  0  0  0  0  0  0  0  0
    9.0939  -17.2424   20.7638 C   0  0  0  0  0  0  0  0  0  0  0  0
   10.3240  -17.1587   20.5574 O   0  0  0  0  0  0  0  0  0  0  0  0
    6.7626  -12.6626   19.9927 C   0  0  0  0  0  0  0  0  0  0  0  0
    7.8187  -13.7376   20.1808 C   0  0  1  0  0  0  0  0  0  0  0  0
    9.0151  -13.2556   19.3436 C   0  0  0  0  0  0  0  0  0  0  0  0
    8.2089  -13.8179   21.6312 C   0  0  0  0  0  0  0  0  0  0  0  0
    9.0664  -14.9971   21.9280 C   0  0  2  0  0  0  0  0  0  0  0  0
    8.4297  -16.2388   21.4729 N   0  0  0  0  0  0  0  0  0  0  0  0
    9.4273  -15.1202   23.3662 C   0  0  0  0  0  0  0  0  0  0  0  0
   10.2161  -14.3567   23.9257 O   0  0  0  0  0  0  0  0  0  0  0  0
    8.8497  -16.1641   24.1714 N   0  0  0  0  0  0  0  0  0  0  0  0
    9.0761  -16.2341   25.6010 C   0  0  1  0  0  0  0  0  0  0  0  0
    7.7756  -16.0250   26.3048 C   0  0  0  0  0  0  0  0  0  0  0  0
    7.3105  -14.6461   26.3767 C   0  0  0  0  0  0  0  0  0  0  0  0
    6.0577  -14.2594   25.9005 C   0  0  0  0  0  0  0  0  0  0  0  0
    5.7186  -12.9395   26.0171 C   0  0  0  0  0  0  0  0  0  0  0  0
    6.5808  -12.0188   26.5845 C   0  0  0  0  0  0  0  0  0  0  0  0
    7.8147  -12.3788   27.0578 C   0  0  0  0  0  0  0  0  0  0  0  0
    8.1671  -13.7078   26.9452 C   0  0  0  0  0  0  0  0  0  0  0  0
    9.7517  -17.4876   25.9186 C   0  0  0  0  0  0  0  0  0  0  0  0
   10.1848  -17.8225   27.1963 O   0  0  0  0  0  0  0  0  0  0  0  0
    9.9728  -18.3359   25.0180 O   0  0  0  0  0  0  0  0  0  0  0  0
  2  1  1  6
  2  4  1  0
  3  2  1  0
  4 11  1  0
  4  5  2  0
  7  6  1  1
  7  8  1  0
  9  7  1  0
 10  9  1  1
 11 10  1  0
 12 10  1  0
 12 13  2  0
 14 12  1  0
 15 14  1  0
 15 16  1  1
 17 16  1  0
 17 18  2  0
 19 18  1  0
 20 19  2  0
 21 22  2  0
 21 20  1  0
 22 17  1  0
 23 15  1  0
 24 23  1  0
 25 23  2  0
M  END
$$$$
