ALF.pdb
     RDKit          3D

 25 25  0  0  1  0  0  0  0  0999 V2000
    7.3554  -19.5475   19.7433 C   0  0  0  0  0  0  0  0  0  0  0  0
    7.7256  -19.1857   21.1450 C   0  0  2  0  0  0  0  0  0  0  0  0
    6.5404  -18.8805   21.9298 N   0  0  0  0  0  0  0  0  0  0  0  0
    8.7122  -18.0733   21.2049 C   0  0  0  0  0  0  0  0  0  0  0  0
    9.8423  -18.2656   20.7061 O   0  0  0  0  0  0  0  0  0  0  0  0
    7.4377  -12.5541   21.5011 C   0  0  0  0  0  0  0  0  0  0  0  0
    7.5763  -14.0437   21.7619 C   0  0  1  0  0  0  0  0  0  0  0  0
    6.4598  -14.6889   20.9242 C   0  0  0  0  0  0  0  0  0  0  0  0
    8.9185  -14.5212   21.2792 C   0  0  0  0  0  0  0  0  0  0  0  0
    9.3703  -15.7559   21.9757 C   0  0  2  0  0  0  0  0  0  0  0  0
    8.4038  -16.8456   21.7956 N   0  0  0  0  0  0  0  0  0  0  0  0
    9.6308  -15.5557   23.4269 C   0  0  0  0  0  0  0  0  0  0  0  0
   10.4805  -14.7711   23.8520 O   0  0  0  0  0  0  0  0  0  0  0  0
    8.8771  -16.2928   24.4068 N   0  0  0  0  0  0  0  0  0  0  0  0
    9.1931  -16.2215   25.8192 C   0  0  1  0  0  0  0  0  0  0  0  0
    7.9726  -15.7900   26.5640 C   0  0  0  0  0  0  0  0  0  0  0  0
    7.6688  -14.3661   26.5085 C   0  0  0  0  0  0  0  0  0  0  0  0
    8.5760  -13.3962   26.9349 C   0  0  0  0  0  0  0  0  0  0  0  0
    8.1913  -12.0871   26.8392 C   0  0  0  0  0  0  0  0  0  0  0  0
    6.9513  -11.7326   26.3395 C   0  0  0  0  0  0  0  0  0  0  0  0
    6.0468  -12.6700   25.9158 C   0  0  0  0  0  0  0  0  0  0  0  0
    6.4246  -13.9936   26.0079 C   0  0  0  0  0  0  0  0  0  0  0  0
    9.7563  -17.4967   26.2495 C   0  0  0  0  0  0  0  0  0  0  0  0
    9.9604  -18.5724   25.3929 O   0  0  0  0  0  0  0  0  0  0  0  0
   10.0870  -17.6726   27.4491 O   0  0  0  0  0  0  0  0  0  0  0  0
  2  1  1  6
  2  4  1  0
  3  2  1  0
  4 11  1  0
  4  5  2  0
  7  6  1  6
  7  8  1  0
  9  7  1  0
 10  9  1  1
 11 10  1  0
 12 10  1  0
 12 13  2  0
 14 12  1  0
 15 14  1  0
 15 16  1  1
 17 16  1  0
 17 18  2  0
 19 18  1  0
 20 19  2  0
 21 22  2  0
 21 20  1  0
 22 17  1  0
 23 15  1  0
 24 23  1  0
 25 23  2  0
M  END
$$$$
