ALF.pdb
     RDKit          3D

 25 25  0  0  1  0  0  0  0  0999 V2000
    7.7718  -18.7134   19.0533 C   0  0  0  0  0  0  0  0  0  0  0  0
    8.2021  -18.7742   20.4830 C   0  0  2  0  0  0  0  0  0  0  0  0
    7.0568  -18.9575   21.3596 N   0  0  0  0  0  0  0  0  0  0  0  0
    9.0054  -17.5886   20.8874 C   0  0  0  0  0  0  0  0  0  0  0  0
   10.2508  -17.6770   20.8266 O   0  0  0  0  0  0  0  0  0  0  0  0
    6.8822  -12.7829   19.8000 C   0  0  0  0  0  0  0  0  0  0  0  0
    7.8456  -13.9436   19.9757 C   0  0  1  0  0  0  0  0  0  0  0  0
    9.0016  -13.6368   19.0093 C   0  0  0  0  0  0  0  0  0  0  0  0
    8.3555  -13.9707   21.3905 C   0  0  0  0  0  0  0  0  0  0  0  0
    9.1483  -15.1939   21.6890 C   0  0  2  0  0  0  0  0  0  0  0  0
    8.4046  -16.4054   21.3237 N   0  0  0  0  0  0  0  0  0  0  0  0
    9.5840  -15.2856   23.1087 C   0  0  0  0  0  0  0  0  0  0  0  0
   10.5340  -14.6435   23.5598 O   0  0  0  0  0  0  0  0  0  0  0  0
    8.8897  -16.1514   24.0252 N   0  0  0  0  0  0  0  0  0  0  0  0
    9.1826  -16.1468   25.4444 C   0  0  1  0  0  0  0  0  0  0  0  0
    7.9214  -15.8702   26.1949 C   0  0  0  0  0  0  0  0  0  0  0  0
    7.5473  -14.4665   26.3065 C   0  0  0  0  0  0  0  0  0  0  0  0
    6.2653  -14.0129   25.9963 C   0  0  0  0  0  0  0  0  0  0  0  0
    6.0185  -12.6749   26.1362 C   0  0  0  0  0  0  0  0  0  0  0  0
    6.9989  -11.8002   26.5683 C   0  0  0  0  0  0  0  0  0  0  0  0
    8.2635  -12.2260   26.8777 C   0  0  0  0  0  0  0  0  0  0  0  0
    8.5233  -13.5739   26.7402 C   0  0  0  0  0  0  0  0  0  0  0  0
    9.8479  -17.3954   25.8006 C   0  0  0  0  0  0  0  0  0  0  0  0
   10.3342  -17.6685   27.0739 O   0  0  0  0  0  0  0  0  0  0  0  0
   10.0099  -18.2969   24.9400 O   0  0  0  0  0  0  0  0  0  0  0  0
  2  1  1  6
  2  4  1  0
  3  2  1  0
  4 11  1  0
  4  5  2  0
  7  6  1  1
  7  8  1  0
  9  7  1  0
 10  9  1  1
 11 10  1  0
 12 10  1  0
 12 13  2  0
 14 12  1  0
 15 14  1  0
 15 16  1  1
 17 16  1  0
 17 18  2  0
 19 18  1  0
 20 19  2  0
 21 22  2  0
 21 20  1  0
 22 17  1  0
 23 15  1  0
 24 23  1  0
 25 23  2  0
M  END
$$$$
