ALF.pdb
     RDKit          3D

 25 25  0  0  1  0  0  0  0  0999 V2000
    7.6815  -14.7144   18.8807 C   0  0  0  0  0  0  0  0  0  0  0  0
    7.8873  -15.8166   19.8683 C   0  0  2  0  0  0  0  0  0  0  0  0
    6.6666  -16.5865   20.0448 N   0  0  0  0  0  0  0  0  0  0  0  0
    8.4061  -15.3233   21.1730 C   0  0  0  0  0  0  0  0  0  0  0  0
    9.5772  -14.8878   21.2102 O   0  0  0  0  0  0  0  0  0  0  0  0
    7.8914  -12.2139   25.0112 C   0  0  0  0  0  0  0  0  0  0  0  0
    7.3966  -13.5222   25.6026 C   0  0  1  0  0  0  0  0  0  0  0  0
    6.1833  -13.1252   26.4598 C   0  0  0  0  0  0  0  0  0  0  0  0
    6.9620  -14.4466   24.4985 C   0  0  0  0  0  0  0  0  0  0  0  0
    8.0972  -14.8922   23.6461 C   0  0  2  0  0  0  0  0  0  0  0  0
    7.6241  -15.3385   22.3303 N   0  0  0  0  0  0  0  0  0  0  0  0
    8.9210  -15.9633   24.2691 C   0  0  0  0  0  0  0  0  0  0  0  0
    8.7095  -17.1630   24.0839 O   0  0  0  0  0  0  0  0  0  0  0  0
   10.0215  -15.6218   25.1314 N   0  0  0  0  0  0  0  0  0  0  0  0
   10.9354  -16.6290   25.6317 C   0  0  1  0  0  0  0  0  0  0  0  0
   11.9518  -15.9663   26.5025 C   0  0  0  0  0  0  0  0  0  0  0  0
   11.4479  -15.4102   27.7514 C   0  0  0  0  0  0  0  0  0  0  0  0
   11.4740  -16.1273   28.9474 C   0  0  0  0  0  0  0  0  0  0  0  0
   10.9763  -15.5119   30.0629 C   0  0  0  0  0  0  0  0  0  0  0  0
   10.4654  -14.2276   30.0130 C   0  0  0  0  0  0  0  0  0  0  0  0
   10.4309  -13.5072   28.8484 C   0  0  0  0  0  0  0  0  0  0  0  0
   10.9304  -14.1185   27.7170 C   0  0  0  0  0  0  0  0  0  0  0  0
   10.1717  -17.6908   26.2780 C   0  0  0  0  0  0  0  0  0  0  0  0
    8.8117  -17.5995   26.5511 O   0  0  0  0  0  0  0  0  0  0  0  0
   10.7357  -18.7601   26.6218 O   0  0  0  0  0  0  0  0  0  0  0  0
  2  1  1  6
  2  4  1  0
  3  2  1  0
  4 11  1  0
  4  5  2  0
  7  6  1  6
  7  8  1  0
  9  7  1  0
 10  9  1  1
 11 10  1  0
 12 10  1  0
 12 13  2  0
 14 12  1  0
 15 14  1  0
 15 16  1  1
 17 16  1  0
 17 18  2  0
 19 18  1  0
 20 19  2  0
 21 22  2  0
 21 20  1  0
 22 17  1  0
 23 15  1  0
 24 23  1  0
 25 23  2  0
M  END
$$$$
