ALF.pdb
     RDKit          3D

 25 25  0  0  1  0  0  0  0  0999 V2000
    6.9118  -19.3408   21.7880 C   0  0  0  0  0  0  0  0  0  0  0  0
    7.1912  -18.4074   20.6551 C   0  0  2  0  0  0  0  0  0  0  0  0
    7.5540  -19.1449   19.4557 N   0  0  0  0  0  0  0  0  0  0  0  0
    8.2237  -17.3911   20.9951 C   0  0  0  0  0  0  0  0  0  0  0  0
    9.4230  -17.6896   20.8072 O   0  0  0  0  0  0  0  0  0  0  0  0
    6.9873  -12.3074   19.9733 C   0  0  0  0  0  0  0  0  0  0  0  0
    7.7758  -13.5976   20.1143 C   0  0  1  0  0  0  0  0  0  0  0  0
    8.9625  -13.4333   19.1503 C   0  0  0  0  0  0  0  0  0  0  0  0
    8.2786  -13.7340   21.5253 C   0  0  0  0  0  0  0  0  0  0  0  0
    8.8559  -15.0777   21.7990 C   0  0  2  0  0  0  0  0  0  0  0  0
    7.8830  -16.1378   21.5090 N   0  0  0  0  0  0  0  0  0  0  0  0
    9.3624  -15.2329   23.1894 C   0  0  0  0  0  0  0  0  0  0  0  0
   10.3925  -14.6888   23.5907 O   0  0  0  0  0  0  0  0  0  0  0  0
    8.6446  -16.0460   24.1355 N   0  0  0  0  0  0  0  0  0  0  0  0
    9.0101  -16.0823   25.5373 C   0  0  1  0  0  0  0  0  0  0  0  0
    7.8110  -15.7335   26.3563 C   0  0  0  0  0  0  0  0  0  0  0  0
    7.4768  -14.3166   26.4159 C   0  0  0  0  0  0  0  0  0  0  0  0
    8.4235  -13.3433   26.7352 C   0  0  0  0  0  0  0  0  0  0  0  0
    8.0051  -12.0414   26.7629 C   0  0  0  0  0  0  0  0  0  0  0  0
    6.6944  -11.6971   26.4858 C   0  0  0  0  0  0  0  0  0  0  0  0
    5.7502  -12.6380   26.1704 C   0  0  0  0  0  0  0  0  0  0  0  0
    6.1615  -13.9545   26.1395 C   0  0  0  0  0  0  0  0  0  0  0  0
    9.6073  -17.3777   25.8436 C   0  0  0  0  0  0  0  0  0  0  0  0
    9.7607  -18.3920   24.9055 O   0  0  0  0  0  0  0  0  0  0  0  0
   10.0172  -17.6296   27.0046 O   0  0  0  0  0  0  0  0  0  0  0  0
  2  1  1  1
  2  4  1  0
  3  2  1  0
  4 11  1  0
  4  5  2  0
  7  6  1  1
  7  8  1  0
  9  7  1  0
 10  9  1  1
 11 10  1  0
 12 10  1  0
 12 13  2  0
 14 12  1  0
 15 14  1  0
 15 16  1  1
 17 16  1  0
 17 18  2  0
 19 18  1  0
 20 19  2  0
 21 22  2  0
 21 20  1  0
 22 17  1  0
 23 15  1  0
 24 23  1  0
 25 23  2  0
M  END
$$$$
