MAL.pdb
     RDKit          3D

 22 21  0  0  1  0  0  0  0  0999 V2000
   21.7885  -21.9859  -15.7691 C   0  0  0  0  0  0  0  0  0  0  0  0
   21.8325  -20.3519  -16.4937 S   0  0  0  0  0  0  0  0  0  0  0  0
   23.2525  -19.3630  -16.1618 C   0  0  0  0  0  0  0  0  0  0  0  0
   24.4026  -20.0477  -15.5530 C   0  0  0  0  0  0  0  0  0  0  0  0
   24.5660  -19.9795  -14.0931 C   0  0  2  0  0  0  0  0  0  0  0  0
   24.7013  -18.6355  -13.6073 N   0  0  0  0  0  0  0  0  0  0  0  0
   25.7616  -20.7677  -13.6171 C   0  0  0  0  0  0  0  0  0  0  0  0
   25.9123  -21.9372  -14.0206 O   0  0  0  0  0  0  0  0  0  0  0  0
   28.9942  -19.9456  -12.0840 C   0  0  0  0  0  0  0  0  0  0  0  0
   27.8713  -20.9562  -12.2374 C   0  0  2  0  0  0  0  0  0  0  0  0
   26.7235  -20.2376  -12.7300 N   0  0  0  0  0  0  0  0  0  0  0  0
   27.6536  -21.5702  -10.9257 C   0  0  0  0  0  0  0  0  0  0  0  0
   28.6073  -22.0774  -10.3022 O   0  0  0  0  0  0  0  0  0  0  0  0
   27.7056  -18.5116   -6.8406 C   0  0  0  0  0  0  0  0  0  0  0  0
   26.8943  -19.7799   -7.0588 C   0  0  2  0  0  0  0  0  0  0  0  0
   27.4543  -20.7777   -6.0586 C   0  0  0  0  0  0  0  0  0  0  0  0
   27.1009  -20.2371   -8.4583 C   0  0  0  0  0  0  0  0  0  0  0  0
   26.0994  -21.2001   -8.9903 C   0  0  2  0  0  0  0  0  0  0  0  0
   26.3536  -21.5872  -10.3650 N   0  0  0  0  0  0  0  0  0  0  0  0
   24.7043  -20.8506   -8.8340 C   0  0  0  0  0  0  0  0  0  0  0  0
   24.1979  -20.0109   -9.6250 O   0  0  0  0  0  0  0  0  0  0  0  0
   23.8237  -21.3413   -7.8894 O   0  0  0  0  0  0  0  0  0  0  0  0
  2  1  1  0
  3  4  1  0
  3  2  1  0
  4  5  1  0
  5  6  1  6
  7  5  1  0
  7 11  1  0
  8  7  2  0
 10  9  1  1
 10 11  1  0
 10 12  1  0
 12 19  1  0
 13 12  2  0
 15 14  1  6
 16 15  1  0
 17 15  1  0
 18 17  1  6
 19 18  1  0
 20 18  1  0
 20 22  1  0
 21 20  2  0
M  END
$$$$
