MAL.pdb
     RDKit          3D

 22 21  0  0  1  0  0  0  0  0999 V2000
   30.2958  -22.0251   -9.8116 C   0  0  0  0  0  0  0  0  0  0  0  0
   31.5388  -22.0073  -11.0969 S   0  0  0  0  0  0  0  0  0  0  0  0
   31.1171  -21.2138  -12.6125 C   0  0  0  0  0  0  0  0  0  0  0  0
   29.6913  -21.1977  -12.9716 C   0  0  0  0  0  0  0  0  0  0  0  0
   29.3068  -20.6708  -14.2895 C   0  0  2  0  0  0  0  0  0  0  0  0
   29.7324  -19.3156  -14.4963 N   0  0  0  0  0  0  0  0  0  0  0  0
   27.8153  -20.7280  -14.5118 C   0  0  0  0  0  0  0  0  0  0  0  0
   27.1493  -19.6797  -14.4073 O   0  0  0  0  0  0  0  0  0  0  0  0
   25.4534  -23.4191  -15.6030 C   0  0  0  0  0  0  0  0  0  0  0  0
   25.7163  -22.0236  -15.0653 C   0  0  2  0  0  0  0  0  0  0  0  0
   27.1353  -21.9223  -14.8351 N   0  0  0  0  0  0  0  0  0  0  0  0
   24.9174  -21.8664  -13.8480 C   0  0  0  0  0  0  0  0  0  0  0  0
   23.6720  -21.8461  -13.9109 O   0  0  0  0  0  0  0  0  0  0  0  0
   26.0597  -19.2382   -8.4409 C   0  0  0  0  0  0  0  0  0  0  0  0
   25.0582  -20.0946   -9.2010 C   0  0  2  0  0  0  0  0  0  0  0  0
   24.6521  -21.1824   -8.2205 C   0  0  0  0  0  0  0  0  0  0  0  0
   25.7352  -20.6635  -10.3961 C   0  0  0  0  0  0  0  0  0  0  0  0
   24.8559  -21.3229  -11.3986 C   0  0  2  0  0  0  0  0  0  0  0  0
   25.5641  -21.7368  -12.5951 N   0  0  0  0  0  0  0  0  0  0  0  0
   23.6432  -20.6259  -11.7685 C   0  0  0  0  0  0  0  0  0  0  0  0
   23.7277  -19.6260  -12.5302 O   0  0  0  0  0  0  0  0  0  0  0  0
   22.3544  -20.9314  -11.3758 O   0  0  0  0  0  0  0  0  0  0  0  0
  2  1  1  0
  3  4  1  0
  3  2  1  0
  4  5  1  0
  5  6  1  1
  7  5  1  0
  7 11  1  0
  8  7  2  0
 10  9  1  1
 10 11  1  0
 10 12  1  0
 12 19  1  0
 13 12  2  0
 15 14  1  1
 16 15  1  0
 17 15  1  0
 18 17  1  6
 19 18  1  0
 20 18  1  0
 20 22  1  0
 21 20  2  0
M  END
$$$$
