MAL.pdb
     RDKit          3D

 22 21  0  0  1  0  0  0  0  0999 V2000
   30.8460  -15.5450  -17.0213 C   0  0  0  0  0  0  0  0  0  0  0  0
   30.1479  -16.7829  -18.1065 S   0  0  0  0  0  0  0  0  0  0  0  0
   28.3999  -16.9993  -18.0602 C   0  0  0  0  0  0  0  0  0  0  0  0
   27.7701  -16.9799  -16.7315 C   0  0  0  0  0  0  0  0  0  0  0  0
   27.8426  -18.1934  -15.9042 C   0  0  2  0  0  0  0  0  0  0  0  0
   27.6465  -19.3982  -16.6595 N   0  0  0  0  0  0  0  0  0  0  0  0
   26.8327  -18.1786  -14.7830 C   0  0  0  0  0  0  0  0  0  0  0  0
   26.7830  -17.1874  -14.0291 O   0  0  0  0  0  0  0  0  0  0  0  0
   23.6769  -19.7821  -14.0306 C   0  0  0  0  0  0  0  0  0  0  0  0
   24.9972  -19.3005  -13.4553 C   0  0  2  0  0  0  0  0  0  0  0  0
   25.9355  -19.2431  -14.5475 N   0  0  0  0  0  0  0  0  0  0  0  0
   25.3858  -20.2433  -12.4042 C   0  0  0  0  0  0  0  0  0  0  0  0
   25.9563  -21.3128  -12.6976 O   0  0  0  0  0  0  0  0  0  0  0  0
   28.4421  -20.4404   -9.1002 C   0  0  0  0  0  0  0  0  0  0  0  0
   27.2958  -19.4423   -9.0376 C   0  0  2  0  0  0  0  0  0  0  0  0
   27.6389  -18.5271   -7.8739 C   0  0  0  0  0  0  0  0  0  0  0  0
   26.0338  -20.1882   -8.7903 C   0  0  0  0  0  0  0  0  0  0  0  0
   25.4223  -20.8560   -9.9707 C   0  0  2  0  0  0  0  0  0  0  0  0
   25.1115  -19.9371  -11.0493 N   0  0  0  0  0  0  0  0  0  0  0  0
   24.2862  -21.7169   -9.7234 C   0  0  0  0  0  0  0  0  0  0  0  0
   23.1591  -21.3761  -10.1713 O   0  0  0  0  0  0  0  0  0  0  0  0
   24.2824  -22.9122   -9.0307 O   0  0  0  0  0  0  0  0  0  0  0  0
  2  1  1  0
  3  4  1  0
  3  2  1  0
  4  5  1  0
  5  6  1  6
  7  5  1  0
  7 11  1  0
  8  7  2  0
 10  9  1  6
 10 11  1  0
 10 12  1  0
 12 19  1  0
 13 12  2  0
 15 14  1  1
 16 15  1  0
 17 15  1  0
 18 17  1  1
 19 18  1  0
 20 18  1  0
 20 22  1  0
 21 20  2  0
M  END
$$$$
