MAL.pdb
     RDKit          3D

 22 21  0  0  1  0  0  0  0  0999 V2000
   32.4576  -21.2490   -9.4644 C   0  0  0  0  0  0  0  0  0  0  0  0
   32.6341  -22.3760  -10.8412 S   0  0  0  0  0  0  0  0  0  0  0  0
   31.5653  -22.1338  -12.2208 C   0  0  0  0  0  0  0  0  0  0  0  0
   30.2951  -21.4422  -11.9549 C   0  0  0  0  0  0  0  0  0  0  0  0
   29.3823  -21.1962  -13.0812 C   0  0  2  0  0  0  0  0  0  0  0  0
   30.0331  -20.5870  -14.2063 N   0  0  0  0  0  0  0  0  0  0  0  0
   28.2175  -20.3207  -12.6886 C   0  0  0  0  0  0  0  0  0  0  0  0
   28.3689  -19.0837  -12.6796 O   0  0  0  0  0  0  0  0  0  0  0  0
   24.6056  -20.6075  -12.6127 C   0  0  0  0  0  0  0  0  0  0  0  0
   25.8288  -20.0493  -11.9070 C   0  0  2  0  0  0  0  0  0  0  0  0
   26.9557  -20.8422  -12.3288 N   0  0  0  0  0  0  0  0  0  0  0  0
   25.5737  -20.1218  -10.4667 C   0  0  0  0  0  0  0  0  0  0  0  0
   24.6819  -19.4199   -9.9495 O   0  0  0  0  0  0  0  0  0  0  0  0
   27.5626  -18.3751   -5.7555 C   0  0  0  0  0  0  0  0  0  0  0  0
   27.0880  -19.7703   -6.1330 C   0  0  2  0  0  0  0  0  0  0  0  0
   28.0674  -20.7125   -5.4528 C   0  0  0  0  0  0  0  0  0  0  0  0
   27.1429  -19.9029   -7.6128 C   0  0  0  0  0  0  0  0  0  0  0  0
   26.2844  -20.9606   -8.2107 C   0  0  2  0  0  0  0  0  0  0  0  0
   26.3443  -20.9933   -9.6597 N   0  0  0  0  0  0  0  0  0  0  0  0
   24.9039  -21.0077   -7.7803 C   0  0  0  0  0  0  0  0  0  0  0  0
   24.0593  -20.2862   -8.3745 O   0  0  0  0  0  0  0  0  0  0  0  0
   24.3756  -21.7746   -6.7599 O   0  0  0  0  0  0  0  0  0  0  0  0
  2  1  1  0
  3  4  1  0
  3  2  1  0
  4  5  1  0
  5  6  1  6
  7  5  1  0
  7 11  1  0
  8  7  2  0
 10  9  1  6
 10 11  1  0
 10 12  1  0
 12 19  1  0
 13 12  2  0
 15 14  1  6
 16 15  1  0
 17 15  1  0
 18 17  1  6
 19 18  1  0
 20 18  1  0
 20 22  1  0
 21 20  2  0
M  END
$$$$
