MAL.pdb
     RDKit          3D

 22 21  0  0  1  0  0  0  0  0999 V2000
   20.9581  -20.2777  -11.6851 C   0  0  0  0  0  0  0  0  0  0  0  0
   21.9081  -20.1802  -10.1733 S   0  0  0  0  0  0  0  0  0  0  0  0
   23.6498  -20.4139  -10.3016 C   0  0  0  0  0  0  0  0  0  0  0  0
   24.1885  -20.6118  -11.6554 C   0  0  0  0  0  0  0  0  0  0  0  0
   25.5892  -21.0366  -11.7967 C   0  0  2  0  0  0  0  0  0  0  0  0
   26.3648  -20.8112  -10.6101 N   0  0  0  0  0  0  0  0  0  0  0  0
   26.2817  -20.3411  -12.9431 C   0  0  0  0  0  0  0  0  0  0  0  0
   26.7848  -19.2171  -12.7511 O   0  0  0  0  0  0  0  0  0  0  0  0
   27.3844  -21.4075  -16.3325 C   0  0  0  0  0  0  0  0  0  0  0  0
   27.0654  -20.2980  -15.3460 C   0  0  2  0  0  0  0  0  0  0  0  0
   26.3865  -20.9090  -14.2314 N   0  0  0  0  0  0  0  0  0  0  0  0
   26.2493  -19.3073  -16.0513 C   0  0  0  0  0  0  0  0  0  0  0  0
   25.0072  -19.4173  -16.0753 O   0  0  0  0  0  0  0  0  0  0  0  0
   25.1023  -15.0928  -15.4208 C   0  0  0  0  0  0  0  0  0  0  0  0
   26.5665  -15.3118  -15.7703 C   0  0  2  0  0  0  0  0  0  0  0  0
   27.2077  -13.9401  -15.6405 C   0  0  0  0  0  0  0  0  0  0  0  0
   26.6475  -15.8214  -17.1646 C   0  0  0  0  0  0  0  0  0  0  0  0
   26.1178  -17.1922  -17.3957 C   0  0  2  0  0  0  0  0  0  0  0  0
   26.8755  -18.2207  -16.7084 N   0  0  0  0  0  0  0  0  0  0  0  0
   25.8964  -17.5882  -18.7696 C   0  0  0  0  0  0  0  0  0  0  0  0
   24.9686  -17.0345  -19.4174 O   0  0  0  0  0  0  0  0  0  0  0  0
   26.6025  -18.5339  -19.4876 O   0  0  0  0  0  0  0  0  0  0  0  0
  2  1  1  0
  3  4  1  0
  3  2  1  0
  4  5  1  0
  5  6  1  1
  7  5  1  0
  7 11  1  0
  8  7  2  0
 10  9  1  6
 10 11  1  0
 10 12  1  0
 12 19  1  0
 13 12  2  0
 15 14  1  6
 16 15  1  0
 17 15  1  0
 18 17  1  6
 19 18  1  0
 20 18  1  0
 20 22  1  0
 21 20  2  0
M  END
$$$$
