MAL.pdb
     RDKit          3D

 22 21  0  0  1  0  0  0  0  0999 V2000
   28.2688  -19.2695   -6.2456 C   0  0  0  0  0  0  0  0  0  0  0  0
   29.4845  -20.5339   -5.8984 S   0  0  0  0  0  0  0  0  0  0  0  0
   30.6626  -20.8850   -7.1607 C   0  0  0  0  0  0  0  0  0  0  0  0
   30.3276  -20.4285   -8.5178 C   0  0  0  0  0  0  0  0  0  0  0  0
   30.0427  -21.4398   -9.5467 C   0  0  2  0  0  0  0  0  0  0  0  0
   31.1522  -22.3168   -9.7918 N   0  0  0  0  0  0  0  0  0  0  0  0
   29.6442  -20.8164  -10.8619 C   0  0  0  0  0  0  0  0  0  0  0  0
   30.3061  -19.8551  -11.2988 O   0  0  0  0  0  0  0  0  0  0  0  0
   29.2139  -20.7894  -13.8570 C   0  0  0  0  0  0  0  0  0  0  0  0
   28.0863  -20.6675  -12.8472 C   0  0  2  0  0  0  0  0  0  0  0  0
   28.5488  -21.2755  -11.6253 N   0  0  0  0  0  0  0  0  0  0  0  0
   26.9134  -21.3320  -13.4194 C   0  0  0  0  0  0  0  0  0  0  0  0
   26.9081  -22.5683  -13.5835 O   0  0  0  0  0  0  0  0  0  0  0  0
   23.7890  -20.1770   -9.3456 C   0  0  0  0  0  0  0  0  0  0  0  0
   23.4338  -20.4806  -10.7934 C   0  0  2  0  0  0  0  0  0  0  0  0
   22.7817  -21.8528  -10.7553 C   0  0  0  0  0  0  0  0  0  0  0  0
   24.6868  -20.4949  -11.5934 C   0  0  0  0  0  0  0  0  0  0  0  0
   24.5260  -20.6441  -13.0649 C   0  0  2  0  0  0  0  0  0  0  0  0
   25.7814  -20.5653  -13.7874 N   0  0  0  0  0  0  0  0  0  0  0  0
   23.5419  -19.8003  -13.7073 C   0  0  0  0  0  0  0  0  0  0  0  0
   22.3475  -19.8526  -13.3102 O   0  0  0  0  0  0  0  0  0  0  0  0
   23.7564  -18.9100  -14.7416 O   0  0  0  0  0  0  0  0  0  0  0  0
  2  1  1  0
  3  4  1  0
  3  2  1  0
  4  5  1  0
  5  6  1  6
  7  5  1  0
  7 11  1  0
  8  7  2  0
 10  9  1  6
 10 11  1  0
 10 12  1  0
 12 19  1  0
 13 12  2  0
 15 14  1  1
 16 15  1  0
 17 15  1  0
 18 17  1  1
 19 18  1  0
 20 18  1  0
 20 22  1  0
 21 20  2  0
M  END
$$$$
