MAL.pdb
     RDKit          3D

 22 21  0  0  1  0  0  0  0  0999 V2000
   29.9386  -21.8371   -9.8868 C   0  0  0  0  0  0  0  0  0  0  0  0
   31.1890  -21.1696  -10.9769 S   0  0  0  0  0  0  0  0  0  0  0  0
   30.6777  -20.7045  -12.5976 C   0  0  0  0  0  0  0  0  0  0  0  0
   29.2430  -20.8291  -12.8954 C   0  0  0  0  0  0  0  0  0  0  0  0
   28.7937  -20.6153  -14.2792 C   0  0  2  0  0  0  0  0  0  0  0  0
   29.1791  -19.3350  -14.8013 N   0  0  0  0  0  0  0  0  0  0  0  0
   27.2962  -20.7413  -14.4168 C   0  0  0  0  0  0  0  0  0  0  0  0
   26.6000  -19.7077  -14.4005 O   0  0  0  0  0  0  0  0  0  0  0  0
   24.9749  -23.6039  -15.0667 C   0  0  0  0  0  0  0  0  0  0  0  0
   25.2174  -22.1550  -14.6824 C   0  0  2  0  0  0  0  0  0  0  0  0
   26.6435  -21.9845  -14.5644 N   0  0  0  0  0  0  0  0  0  0  0  0
   24.4971  -21.9081  -13.4314 C   0  0  0  0  0  0  0  0  0  0  0  0
   23.2538  -21.9983  -13.3928 O   0  0  0  0  0  0  0  0  0  0  0  0
   25.9264  -19.6079   -7.8501 C   0  0  0  0  0  0  0  0  0  0  0  0
   24.8878  -20.3642   -8.6647 C   0  0  2  0  0  0  0  0  0  0  0  0
   24.5508  -21.5870   -7.8277 C   0  0  0  0  0  0  0  0  0  0  0  0
   25.4959  -20.7458   -9.9666 C   0  0  0  0  0  0  0  0  0  0  0  0
   24.5544  -21.2052  -11.0229 C   0  0  2  0  0  0  0  0  0  0  0  0
   25.2176  -21.5652  -12.2617 N   0  0  0  0  0  0  0  0  0  0  0  0
   23.4207  -20.3529  -11.3085 C   0  0  0  0  0  0  0  0  0  0  0  0
   23.5508  -19.4391  -12.1660 O   0  0  0  0  0  0  0  0  0  0  0  0
   22.1649  -20.4182  -10.7367 O   0  0  0  0  0  0  0  0  0  0  0  0
  2  1  1  0
  3  4  1  0
  3  2  1  0
  4  5  1  0
  5  6  1  1
  7  5  1  0
  7 11  1  0
  8  7  2  0
 10  9  1  1
 10 11  1  0
 10 12  1  0
 12 19  1  0
 13 12  2  0
 15 14  1  1
 16 15  1  0
 17 15  1  0
 18 17  1  1
 19 18  1  0
 20 18  1  0
 20 22  1  0
 21 20  2  0
M  END
$$$$
