MAL.pdb
     RDKit          3D

 22 21  0  0  1  0  0  0  0  0999 V2000
   23.5765  -13.1966  -13.6282 C   0  0  0  0  0  0  0  0  0  0  0  0
   24.0720  -13.8061  -15.2345 S   0  0  0  0  0  0  0  0  0  0  0  0
   22.8964  -13.6782  -16.5407 C   0  0  0  0  0  0  0  0  0  0  0  0
   22.2535  -12.3680  -16.7204 C   0  0  0  0  0  0  0  0  0  0  0  0
   21.3008  -12.2013  -17.8281 C   0  0  2  0  0  0  0  0  0  0  0  0
   21.9039  -12.3861  -19.1176 N   0  0  0  0  0  0  0  0  0  0  0  0
   20.6433  -10.8430  -17.8134 C   0  0  0  0  0  0  0  0  0  0  0  0
   21.3098   -9.8467  -18.1546 O   0  0  0  0  0  0  0  0  0  0  0  0
   17.1858   -9.6299  -17.0323 C   0  0  0  0  0  0  0  0  0  0  0  0
   18.6525   -9.3644  -17.3228 C   0  0  2  0  0  0  0  0  0  0  0  0
   19.2990  -10.6480  -17.4285 N   0  0  0  0  0  0  0  0  0  0  0  0
   19.1724   -8.5400  -16.2298 C   0  0  0  0  0  0  0  0  0  0  0  0
   19.8906   -9.0476  -15.3455 O   0  0  0  0  0  0  0  0  0  0  0  0
   23.2727   -5.1784  -15.6334 C   0  0  0  0  0  0  0  0  0  0  0  0
   21.9329   -5.3028  -14.9236 C   0  0  2  0  0  0  0  0  0  0  0  0
   22.2717   -5.8402  -13.5430 C   0  0  0  0  0  0  0  0  0  0  0  0
   21.0823   -6.2550  -15.6852 C   0  0  0  0  0  0  0  0  0  0  0  0
   19.6255   -6.2205  -15.3853 C   0  0  2  0  0  0  0  0  0  0  0  0
   18.8568   -7.1607  -16.1786 N   0  0  0  0  0  0  0  0  0  0  0  0
   18.9807   -4.9256  -15.4068 C   0  0  0  0  0  0  0  0  0  0  0  0
   18.9670   -4.2383  -14.3511 O   0  0  0  0  0  0  0  0  0  0  0  0
   18.3540   -4.3253  -16.4816 O   0  0  0  0  0  0  0  0  0  0  0  0
  2  1  1  0
  3  4  1  0
  3  2  1  0
  4  5  1  0
  5  6  1  6
  7  5  1  0
  7 11  1  0
  8  7  2  0
 10  9  1  1
 10 11  1  0
 10 12  1  0
 12 19  1  0
 13 12  2  0
 15 14  1  6
 16 15  1  0
 17 15  1  0
 18 17  1  6
 19 18  1  0
 20 18  1  0
 20 22  1  0
 21 20  2  0
M  END
$$$$
