MAL.pdb
     RDKit          3D

 22 21  0  0  1  0  0  0  0  0999 V2000
   21.4888  -19.7074   -0.9777 C   0  0  0  0  0  0  0  0  0  0  0  0
   20.7003  -18.8289    0.3654 S   0  0  0  0  0  0  0  0  0  0  0  0
   19.0875  -19.3596    0.8363 C   0  0  0  0  0  0  0  0  0  0  0  0
   18.4505  -18.6265    1.9404 C   0  0  0  0  0  0  0  0  0  0  0  0
   17.1651  -19.1184    2.4583 C   0  0  2  0  0  0  0  0  0  0  0  0
   16.1631  -19.2467    1.4386 N   0  0  0  0  0  0  0  0  0  0  0  0
   16.6114  -18.2286    3.5441 C   0  0  0  0  0  0  0  0  0  0  0  0
   15.8354  -17.3053    3.2298 O   0  0  0  0  0  0  0  0  0  0  0  0
   16.1571  -18.4037    7.1568 C   0  0  0  0  0  0  0  0  0  0  0  0
   16.4979  -17.5219    5.9685 C   0  0  2  0  0  0  0  0  0  0  0  0
   16.9340  -18.3951    4.9084 N   0  0  0  0  0  0  0  0  0  0  0  0
   17.5293  -16.5786    6.4057 C   0  0  0  0  0  0  0  0  0  0  0  0
   18.7356  -16.8868    6.3328 O   0  0  0  0  0  0  0  0  0  0  0  0
   19.5678  -12.9504    5.0691 C   0  0  0  0  0  0  0  0  0  0  0  0
   18.0878  -12.8005    5.3879 C   0  0  2  0  0  0  0  0  0  0  0  0
   17.7350  -11.3897    4.9468 C   0  0  0  0  0  0  0  0  0  0  0  0
   17.9006  -12.9762    6.8523 C   0  0  0  0  0  0  0  0  0  0  0  0
   18.1282  -14.3466    7.3847 C   0  0  2  0  0  0  0  0  0  0  0  0
   17.1529  -15.3116    6.9135 N   0  0  0  0  0  0  0  0  0  0  0  0
   18.2881  -14.4771    8.8166 C   0  0  0  0  0  0  0  0  0  0  0  0
   17.3618  -15.0105    9.4834 O   0  0  0  0  0  0  0  0  0  0  0  0
   19.3713  -14.0746    9.5736 O   0  0  0  0  0  0  0  0  0  0  0  0
  2  1  1  0
  3  4  1  0
  3  2  1  0
  4  5  1  0
  5  6  1  6
  7  5  1  0
  7 11  1  0
  8  7  2  0
 10  9  1  1
 10 11  1  0
 10 12  1  0
 12 19  1  0
 13 12  2  0
 15 14  1  1
 16 15  1  0
 17 15  1  0
 18 17  1  1
 19 18  1  0
 20 18  1  0
 20 22  1  0
 21 20  2  0
M  END
$$$$
