MAL.pdb
     RDKit          3D

 22 21  0  0  1  0  0  0  0  0999 V2000
   21.3282  -16.5021  -18.5581 C   0  0  0  0  0  0  0  0  0  0  0  0
   20.4773  -16.4857  -20.1306 S   0  0  0  0  0  0  0  0  0  0  0  0
   19.2034  -15.2871  -20.3431 C   0  0  0  0  0  0  0  0  0  0  0  0
   19.5646  -13.8883  -20.0688 C   0  0  0  0  0  0  0  0  0  0  0  0
   18.7146  -13.1120  -19.1537 C   0  0  2  0  0  0  0  0  0  0  0  0
   17.4135  -12.8387  -19.6947 N   0  0  0  0  0  0  0  0  0  0  0  0
   19.3447  -11.7951  -18.7716 C   0  0  0  0  0  0  0  0  0  0  0  0
   20.4248  -11.8012  -18.1498 O   0  0  0  0  0  0  0  0  0  0  0  0
   18.3924   -8.2083  -19.3039 C   0  0  0  0  0  0  0  0  0  0  0  0
   19.3380   -9.2672  -18.7648 C   0  0  2  0  0  0  0  0  0  0  0  0
   18.7630  -10.5483  -19.0885 N   0  0  0  0  0  0  0  0  0  0  0  0
   19.4748   -9.0387  -17.3247 C   0  0  0  0  0  0  0  0  0  0  0  0
   18.6024   -9.4538  -16.5360 O   0  0  0  0  0  0  0  0  0  0  0  0
   23.1653   -9.9931  -13.0175 C   0  0  0  0  0  0  0  0  0  0  0  0
   22.1717   -8.9110  -13.4127 C   0  0  2  0  0  0  0  0  0  0  0  0
   21.0227   -9.0587  -12.4290 C   0  0  0  0  0  0  0  0  0  0  0  0
   21.7293   -9.1642  -14.8093 C   0  0  0  0  0  0  0  0  0  0  0  0
   20.8263   -8.1448  -15.4082 C   0  0  2  0  0  0  0  0  0  0  0  0
   20.6035   -8.3430  -16.8279 N   0  0  0  0  0  0  0  0  0  0  0  0
   21.1437   -6.7562  -15.1554 C   0  0  0  0  0  0  0  0  0  0  0  0
   21.7697   -6.1080  -16.0358 O   0  0  0  0  0  0  0  0  0  0  0  0
   20.8342   -6.0236  -14.0257 O   0  0  0  0  0  0  0  0  0  0  0  0
  2  1  1  0
  3  4  1  0
  3  2  1  0
  4  5  1  0
  5  6  1  6
  7  5  1  0
  7 11  1  0
  8  7  2  0
 10  9  1  1
 10 11  1  0
 10 12  1  0
 12 19  1  0
 13 12  2  0
 15 14  1  1
 16 15  1  0
 17 15  1  0
 18 17  1  6
 19 18  1  0
 20 18  1  0
 20 22  1  0
 21 20  2  0
M  END
$$$$
