MAL.pdb
     RDKit          3D

 22 21  0  0  1  0  0  0  0  0999 V2000
   14.1332  -13.5614  -18.6349 C   0  0  0  0  0  0  0  0  0  0  0  0
   14.5688  -12.5287  -17.2417 S   0  0  0  0  0  0  0  0  0  0  0  0
   16.2799  -12.1860  -16.9986 C   0  0  0  0  0  0  0  0  0  0  0  0
   16.6372  -11.4628  -15.7691 C   0  0  0  0  0  0  0  0  0  0  0  0
   18.0477  -11.1098  -15.5490 C   0  0  2  0  0  0  0  0  0  0  0  0
   18.8746  -12.2513  -15.2777 N   0  0  0  0  0  0  0  0  0  0  0  0
   18.2185  -10.1320  -14.4123 C   0  0  0  0  0  0  0  0  0  0  0  0
   18.1642  -10.5537  -13.2407 O   0  0  0  0  0  0  0  0  0  0  0  0
   19.0524   -6.4910  -14.2061 C   0  0  0  0  0  0  0  0  0  0  0  0
   18.5548   -7.7743  -13.5646 C   0  0  2  0  0  0  0  0  0  0  0  0
   18.4388   -8.7524  -14.6164 N   0  0  0  0  0  0  0  0  0  0  0  0
   17.2803   -7.4704  -12.9103 C   0  0  0  0  0  0  0  0  0  0  0  0
   16.2115   -7.5468  -13.5484 O   0  0  0  0  0  0  0  0  0  0  0  0
   15.3637   -6.4850   -7.1333 C   0  0  0  0  0  0  0  0  0  0  0  0
   14.9233   -6.6538   -8.5797 C   0  0  2  0  0  0  0  0  0  0  0  0
   13.8675   -7.7462   -8.5407 C   0  0  0  0  0  0  0  0  0  0  0  0
   16.1024   -7.0643   -9.3869 C   0  0  0  0  0  0  0  0  0  0  0  0
   16.0324   -6.7797  -10.8454 C   0  0  2  0  0  0  0  0  0  0  0  0
   17.2639   -7.0880  -11.5472 N   0  0  0  0  0  0  0  0  0  0  0  0
   15.5654   -5.4676  -11.2371 C   0  0  0  0  0  0  0  0  0  0  0  0
   16.4092   -4.5444  -11.3877 O   0  0  0  0  0  0  0  0  0  0  0  0
   14.2594   -5.0856  -11.4761 O   0  0  0  0  0  0  0  0  0  0  0  0
  2  1  1  0
  3  4  1  0
  3  2  1  0
  4  5  1  0
  5  6  1  1
  7  5  1  0
  7 11  1  0
  8  7  2  0
 10  9  1  6
 10 11  1  0
 10 12  1  0
 12 19  1  0
 13 12  2  0
 15 14  1  1
 16 15  1  0
 17 15  1  0
 18 17  1  1
 19 18  1  0
 20 18  1  0
 20 22  1  0
 21 20  2  0
M  END
$$$$
