MAL.pdb
     RDKit          3D

 22 21  0  0  1  0  0  0  0  0999 V2000
   17.6969  -26.0337    2.5881 C   0  0  0  0  0  0  0  0  0  0  0  0
   17.4097  -24.3279    3.0406 S   0  0  0  0  0  0  0  0  0  0  0  0
   16.0570  -23.5071    2.2654 C   0  0  0  0  0  0  0  0  0  0  0  0
   15.6318  -22.2325    2.8630 C   0  0  0  0  0  0  0  0  0  0  0  0
   14.5199  -21.5017    2.2367 C   0  0  2  0  0  0  0  0  0  0  0  0
   14.5292  -21.5893    0.8040 N   0  0  0  0  0  0  0  0  0  0  0  0
   14.5166  -20.0402    2.6125 C   0  0  0  0  0  0  0  0  0  0  0  0
   14.9413  -19.2051    1.7906 O   0  0  0  0  0  0  0  0  0  0  0  0
   13.2706  -18.1214    5.5766 C   0  0  0  0  0  0  0  0  0  0  0  0
   14.0330  -18.1893    4.2650 C   0  0  2  0  0  0  0  0  0  0  0  0
   14.0513  -19.5724    3.8607 N   0  0  0  0  0  0  0  0  0  0  0  0
   15.3676  -17.6366    4.5060 C   0  0  0  0  0  0  0  0  0  0  0  0
   16.3363  -18.3960    4.7069 O   0  0  0  0  0  0  0  0  0  0  0  0
   18.2085  -12.2408    3.8157 C   0  0  0  0  0  0  0  0  0  0  0  0
   18.3772  -13.7495    3.9137 C   0  0  2  0  0  0  0  0  0  0  0  0
   19.2029  -14.1293    2.6957 C   0  0  0  0  0  0  0  0  0  0  0  0
   17.0305  -14.3782    3.8764 C   0  0  0  0  0  0  0  0  0  0  0  0
   16.8671  -15.6303    4.6630 C   0  0  2  0  0  0  0  0  0  0  0  0
   15.5566  -16.2334    4.5108 N   0  0  0  0  0  0  0  0  0  0  0  0
   17.2166  -15.5754    6.0659 C   0  0  0  0  0  0  0  0  0  0  0  0
   16.3272  -15.2580    6.8997 O   0  0  0  0  0  0  0  0  0  0  0  0
   18.4513  -15.8376    6.6272 O   0  0  0  0  0  0  0  0  0  0  0  0
  2  1  1  0
  3  4  1  0
  3  2  1  0
  4  5  1  0
  5  6  1  6
  7  5  1  0
  7 11  1  0
  8  7  2  0
 10  9  1  1
 10 11  1  0
 10 12  1  0
 12 19  1  0
 13 12  2  0
 15 14  1  6
 16 15  1  0
 17 15  1  0
 18 17  1  1
 19 18  1  0
 20 18  1  0
 20 22  1  0
 21 20  2  0
M  END
$$$$
