MAL.pdb
     RDKit          3D

 22 21  0  0  1  0  0  0  0  0999 V2000
   10.6683  -13.4576  -13.4270 C   0  0  0  0  0  0  0  0  0  0  0  0
   11.4381  -12.0413  -12.6533 S   0  0  0  0  0  0  0  0  0  0  0  0
   13.0317  -11.5717  -13.2400 C   0  0  0  0  0  0  0  0  0  0  0  0
   13.6334  -10.3791  -12.6251 C   0  0  0  0  0  0  0  0  0  0  0  0
   14.9678   -9.9563  -13.0759 C   0  0  2  0  0  0  0  0  0  0  0  0
   15.9956  -10.9028  -12.7470 N   0  0  0  0  0  0  0  0  0  0  0  0
   15.3658   -8.6196  -12.4995 C   0  0  0  0  0  0  0  0  0  0  0  0
   15.8373   -8.5763  -11.3466 O   0  0  0  0  0  0  0  0  0  0  0  0
   15.5899   -5.1483  -13.8602 C   0  0  0  0  0  0  0  0  0  0  0  0
   15.5375   -6.1041  -12.6814 C   0  0  2  0  0  0  0  0  0  0  0  0
   15.2277   -7.4080  -13.2110 N   0  0  0  0  0  0  0  0  0  0  0  0
   14.5242   -5.5982  -11.7530 C   0  0  0  0  0  0  0  0  0  0  0  0
   13.3363   -5.9637  -11.8576 O   0  0  0  0  0  0  0  0  0  0  0  0
   13.5191   -2.7622   -7.0290 C   0  0  0  0  0  0  0  0  0  0  0  0
   13.0777   -4.1614   -7.4312 C   0  0  2  0  0  0  0  0  0  0  0  0
   13.1179   -4.9679   -6.1438 C   0  0  0  0  0  0  0  0  0  0  0  0
   14.0393   -4.6890   -8.4348 C   0  0  0  0  0  0  0  0  0  0  0  0
   13.9314   -4.1270   -9.8080 C   0  0  2  0  0  0  0  0  0  0  0  0
   14.8969   -4.6897  -10.7329 N   0  0  0  0  0  0  0  0  0  0  0  0
   13.9255   -2.6853   -9.9294 C   0  0  0  0  0  0  0  0  0  0  0  0
   15.0112   -2.0933  -10.1697 O   0  0  0  0  0  0  0  0  0  0  0  0
   12.8361   -1.8442   -9.8102 O   0  0  0  0  0  0  0  0  0  0  0  0
  2  1  1  0
  3  4  1  0
  3  2  1  0
  4  5  1  0
  5  6  1  1
  7  5  1  0
  7 11  1  0
  8  7  2  0
 10  9  1  6
 10 11  1  0
 10 12  1  0
 12 19  1  0
 13 12  2  0
 15 14  1  1
 16 15  1  0
 17 15  1  0
 18 17  1  1
 19 18  1  0
 20 18  1  0
 20 22  1  0
 21 20  2  0
M  END
$$$$
