EMK.pdb
     RDKit          3D

 27 26  0  0  1  0  0  0  0  0999 V2000
   28.3033  -21.1768  -15.1979 N   0  0  0  0  0  0  0  0  0  0  0  0
   28.0537  -20.1900  -14.1440 C   0  0  1  0  0  0  0  0  0  0  0  0
   27.3949  -18.9572  -14.7188 C   0  0  0  0  0  0  0  0  0  0  0  0
   28.1262  -18.4108  -15.9309 C   0  0  0  0  0  0  0  0  0  0  0  0
   27.5821  -18.9260  -17.1841 C   0  0  0  0  0  0  0  0  0  0  0  0
   26.5777  -19.6666  -17.1812 O   0  0  0  0  0  0  0  0  0  0  0  0
   27.2111  -20.8470  -13.1032 C   0  0  0  0  0  0  0  0  0  0  0  0
   26.3669  -21.7315  -13.4185 O   0  0  0  0  0  0  0  0  0  0  0  0
   28.1763  -18.6005  -18.3911 O   0  0  0  0  0  0  0  0  0  0  0  0
   27.8150  -20.8903   -6.1284 C   0  0  0  0  0  0  0  0  0  0  0  0
   26.3444  -20.0192   -6.7085 S   0  0  0  0  0  0  0  0  0  0  0  0
   25.7951  -20.6525   -8.3162 C   0  0  0  0  0  0  0  0  0  0  0  0
   26.7834  -20.2635   -9.4004 C   0  0  0  0  0  0  0  0  0  0  0  0
   26.3071  -20.7866  -10.7651 C   0  0  2  0  0  0  0  0  0  0  0  0
   27.3369  -20.4949  -11.7270 N   0  0  0  0  0  0  0  0  0  0  0  0
   25.0010  -20.2183  -11.1205 C   0  0  0  0  0  0  0  0  0  0  0  0
   24.9580  -19.0106  -11.4750 O   0  0  0  0  0  0  0  0  0  0  0  0
   23.8205  -20.9988  -11.0690 N   0  0  0  0  0  0  0  0  0  0  0  0
   22.5637  -20.5707  -11.7153 C   0  0  1  0  0  0  0  0  0  0  0  0
   22.3596  -21.3353  -12.9667 C   0  0  0  0  0  0  0  0  0  0  0  0
   21.1170  -21.0825  -13.7204 C   0  0  0  0  0  0  0  0  0  0  0  0
   20.8396  -21.8636  -14.9530 C   0  0  0  0  0  0  0  0  0  0  0  0
   19.6084  -21.4596  -15.7091 C   0  0  0  0  0  0  0  0  0  0  0  0
   19.3608  -22.1368  -16.9361 N   0  0  0  0  0  0  0  0  0  0  0  0
   21.5198  -20.6273  -10.7214 C   0  0  0  0  0  0  0  0  0  0  0  0
   21.6750  -21.3155   -9.6300 O   0  0  0  0  0  0  0  0  0  0  0  0
   20.2854  -19.9966  -10.7715 O   0  0  0  0  0  0  0  0  0  0  0  0
  2  1  1  6
  2  3  1  0
  4  3  1  0
  5  4  1  0
  6  5  2  0
  7  2  1  0
  7  8  2  0
  9  5  1  0
 11 10  1  0
 12 11  1  0
 12 13  1  0
 14 13  1  1
 14 15  1  0
 15  7  1  0
 16 14  1  0
 17 16  2  0
 18 16  1  0
 19 25  1  0
 19 18  1  0
 20 21  1  0
 19 20  1  6
 21 22  1  0
 22 23  1  0
 23 24  1  0
 25 27  1  0
 26 25  2  0
M  END
$$$$
