EMK.pdb
     RDKit          3D

 27 26  0  0  1  0  0  0  0  0999 V2000
   22.3805  -25.7700  -14.6805 N   0  0  0  0  0  0  0  0  0  0  0  0
   21.2885  -26.5505  -15.2680 C   0  0  1  0  0  0  0  0  0  0  0  0
   21.6892  -28.0014  -15.4049 C   0  0  0  0  0  0  0  0  0  0  0  0
   23.1876  -28.2109  -15.2882 C   0  0  0  0  0  0  0  0  0  0  0  0
   23.8645  -28.0952  -16.5769 C   0  0  0  0  0  0  0  0  0  0  0  0
   24.4204  -29.0870  -17.0912 O   0  0  0  0  0  0  0  0  0  0  0  0
   20.0910  -26.3756  -14.3961 C   0  0  0  0  0  0  0  0  0  0  0  0
   19.0166  -26.9918  -14.6422 O   0  0  0  0  0  0  0  0  0  0  0  0
   23.8994  -26.8821  -17.2424 O   0  0  0  0  0  0  0  0  0  0  0  0
   17.5332  -24.9181   -7.1294 C   0  0  0  0  0  0  0  0  0  0  0  0
   18.8913  -25.1938   -8.2860 S   0  0  0  0  0  0  0  0  0  0  0  0
   18.3281  -25.0690  -10.0050 C   0  0  0  0  0  0  0  0  0  0  0  0
   19.4856  -25.3102  -10.9565 C   0  0  0  0  0  0  0  0  0  0  0  0
   18.9851  -25.3174  -12.4099 C   0  0  2  0  0  0  0  0  0  0  0  0
   20.1277  -25.5102  -13.2632 N   0  0  0  0  0  0  0  0  0  0  0  0
   18.2317  -24.0946  -12.7136 C   0  0  0  0  0  0  0  0  0  0  0  0
   18.8246  -22.9898  -12.5960 O   0  0  0  0  0  0  0  0  0  0  0  0
   16.8785  -24.1479  -13.1276 N   0  0  0  0  0  0  0  0  0  0  0  0
   16.1044  -22.9325  -13.4503 C   0  0  1  0  0  0  0  0  0  0  0  0
   14.9494  -23.2881  -14.3057 C   0  0  0  0  0  0  0  0  0  0  0  0
   14.0365  -22.1983  -14.6995 C   0  0  0  0  0  0  0  0  0  0  0  0
   12.9261  -22.4821  -15.6442 C   0  0  0  0  0  0  0  0  0  0  0  0
   12.0877  -21.2988  -16.0283 C   0  0  0  0  0  0  0  0  0  0  0  0
   11.1207  -21.5056  -17.0518 N   0  0  0  0  0  0  0  0  0  0  0  0
   15.8304  -22.2470  -12.2110 C   0  0  0  0  0  0  0  0  0  0  0  0
   15.7705  -20.9496  -12.1660 O   0  0  0  0  0  0  0  0  0  0  0  0
   15.5989  -22.8252  -10.9716 O   0  0  0  0  0  0  0  0  0  0  0  0
  2  1  1  1
  2  3  1  0
  4  3  1  0
  5  4  1  0
  6  5  2  0
  7  2  1  0
  7  8  2  0
  9  5  1  0
 11 10  1  0
 12 11  1  0
 12 13  1  0
 14 13  1  1
 14 15  1  0
 15  7  1  0
 16 14  1  0
 17 16  2  0
 18 16  1  0
 19 25  1  0
 19 18  1  0
 20 21  1  0
 19 20  1  1
 21 22  1  0
 22 23  1  0
 23 24  1  0
 25 27  1  0
 26 25  2  0
M  END
$$$$
