EMK.pdb
     RDKit          3D

 27 26  0  0  1  0  0  0  0  0999 V2000
   22.7673  -22.5802  -13.7526 N   0  0  0  0  0  0  0  0  0  0  0  0
   22.3280  -21.1840  -13.6880 C   0  0  1  0  0  0  0  0  0  0  0  0
   21.1362  -21.0462  -12.7687 C   0  0  0  0  0  0  0  0  0  0  0  0
   20.0954  -22.1282  -12.9894 C   0  0  0  0  0  0  0  0  0  0  0  0
   19.1316  -21.7659  -14.0247 C   0  0  0  0  0  0  0  0  0  0  0  0
   19.1173  -20.6124  -14.5006 O   0  0  0  0  0  0  0  0  0  0  0  0
   23.4900  -20.3675  -13.2318 C   0  0  0  0  0  0  0  0  0  0  0  0
   23.3930  -19.1140  -13.1146 O   0  0  0  0  0  0  0  0  0  0  0  0
   18.2200  -22.6983  -14.4892 O   0  0  0  0  0  0  0  0  0  0  0  0
   27.7357  -20.9555   -8.4884 C   0  0  0  0  0  0  0  0  0  0  0  0
   25.9692  -21.2946   -8.6392 S   0  0  0  0  0  0  0  0  0  0  0  0
   25.3305  -20.7576  -10.2489 C   0  0  0  0  0  0  0  0  0  0  0  0
   26.4571  -20.6822  -11.2632 C   0  0  0  0  0  0  0  0  0  0  0  0
   25.9169  -20.2079  -12.6219 C   0  0  2  0  0  0  0  0  0  0  0  0
   24.7386  -20.9797  -12.9158 N   0  0  0  0  0  0  0  0  0  0  0  0
   26.9492  -20.3030  -13.6614 C   0  0  0  0  0  0  0  0  0  0  0  0
   27.9861  -19.6002  -13.5315 O   0  0  0  0  0  0  0  0  0  0  0  0
   26.7908  -21.1575  -14.7794 N   0  0  0  0  0  0  0  0  0  0  0  0
   27.7501  -21.1727  -15.9021 C   0  0  1  0  0  0  0  0  0  0  0  0
   28.5193  -22.4377  -15.8850 C   0  0  0  0  0  0  0  0  0  0  0  0
   29.5083  -22.6442  -16.9599 C   0  0  0  0  0  0  0  0  0  0  0  0
   30.2788  -23.9131  -17.0086 C   0  0  0  0  0  0  0  0  0  0  0  0
   31.3703  -23.9658  -18.0364 C   0  0  0  0  0  0  0  0  0  0  0  0
   32.1795  -25.1365  -18.0502 N   0  0  0  0  0  0  0  0  0  0  0  0
   27.0207  -20.8519  -17.1045 C   0  0  0  0  0  0  0  0  0  0  0  0
   25.7433  -21.0753  -17.1890 O   0  0  0  0  0  0  0  0  0  0  0  0
   27.5320  -20.2908  -18.2654 O   0  0  0  0  0  0  0  0  0  0  0  0
  2  1  1  1
  2  3  1  0
  4  3  1  0
  5  4  1  0
  6  5  2  0
  7  2  1  0
  7  8  2  0
  9  5  1  0
 11 10  1  0
 12 11  1  0
 12 13  1  0
 14 13  1  1
 14 15  1  0
 15  7  1  0
 16 14  1  0
 17 16  2  0
 18 16  1  0
 19 25  1  0
 19 18  1  0
 20 21  1  0
 19 20  1  6
 21 22  1  0
 22 23  1  0
 23 24  1  0
 25 27  1  0
 26 25  2  0
M  END
$$$$
