EMK.pdb
     RDKit          3D

 27 26  0  0  1  0  0  0  0  0999 V2000
   28.1976  -21.0963  -15.3567 N   0  0  0  0  0  0  0  0  0  0  0  0
   28.0163  -20.2367  -14.1842 C   0  0  1  0  0  0  0  0  0  0  0  0
   27.8905  -18.7900  -14.6031 C   0  0  0  0  0  0  0  0  0  0  0  0
   26.7535  -18.5578  -15.5808 C   0  0  0  0  0  0  0  0  0  0  0  0
   27.2014  -17.8971  -16.8035 C   0  0  0  0  0  0  0  0  0  0  0  0
   28.3642  -17.4534  -16.8938 O   0  0  0  0  0  0  0  0  0  0  0  0
   26.8084  -20.7201  -13.4546 C   0  0  0  0  0  0  0  0  0  0  0  0
   25.9700  -21.4755  -14.0214 O   0  0  0  0  0  0  0  0  0  0  0  0
   26.3394  -17.7530  -17.8769 O   0  0  0  0  0  0  0  0  0  0  0  0
   28.5737  -20.8779   -6.9132 C   0  0  0  0  0  0  0  0  0  0  0  0
   26.9943  -20.3419   -7.6033 S   0  0  0  0  0  0  0  0  0  0  0  0
   26.8016  -20.8991   -9.3179 C   0  0  0  0  0  0  0  0  0  0  0  0
   25.5456  -20.3029   -9.9267 C   0  0  0  0  0  0  0  0  0  0  0  0
   25.3929  -20.7633  -11.3853 C   0  0  2  0  0  0  0  0  0  0  0  0
   26.5690  -20.3434  -12.1002 N   0  0  0  0  0  0  0  0  0  0  0  0
   24.1449  -20.2568  -11.9696 C   0  0  0  0  0  0  0  0  0  0  0  0
   24.1076  -19.0510  -12.3311 O   0  0  0  0  0  0  0  0  0  0  0  0
   23.0130  -21.0933  -12.1257 N   0  0  0  0  0  0  0  0  0  0  0  0
   21.7859  -20.6395  -12.8105 C   0  0  1  0  0  0  0  0  0  0  0  0
   21.3879  -21.6332  -13.8334 C   0  0  0  0  0  0  0  0  0  0  0  0
   20.1517  -21.3664  -14.5927 C   0  0  0  0  0  0  0  0  0  0  0  0
   19.6350  -22.3955  -15.5308 C   0  0  0  0  0  0  0  0  0  0  0  0
   18.3917  -22.0185  -16.2809 C   0  0  0  0  0  0  0  0  0  0  0  0
   17.9054  -22.9628  -17.2281 N   0  0  0  0  0  0  0  0  0  0  0  0
   20.8179  -20.3031  -11.7953 C   0  0  0  0  0  0  0  0  0  0  0  0
   20.9108  -20.7955  -10.5963 O   0  0  0  0  0  0  0  0  0  0  0  0
   19.7255  -19.4594  -11.9316 O   0  0  0  0  0  0  0  0  0  0  0  0
  2  1  1  6
  2  3  1  0
  4  3  1  0
  5  4  1  0
  6  5  2  0
  7  2  1  0
  7  8  2  0
  9  5  1  0
 11 10  1  0
 12 11  1  0
 12 13  1  0
 14 13  1  1
 14 15  1  0
 15  7  1  0
 16 14  1  0
 17 16  2  0
 18 16  1  0
 19 25  1  0
 19 18  1  0
 20 21  1  0
 19 20  1  6
 21 22  1  0
 22 23  1  0
 23 24  1  0
 25 27  1  0
 26 25  2  0
M  END
$$$$
