EMK.pdb
     RDKit          3D

 27 26  0  0  1  0  0  0  0  0999 V2000
   27.5780  -20.8433  -16.8862 N   0  0  0  0  0  0  0  0  0  0  0  0
   27.1918  -19.8566  -15.8744 C   0  0  1  0  0  0  0  0  0  0  0  0
   26.4674  -18.6959  -16.5164 C   0  0  0  0  0  0  0  0  0  0  0  0
   26.3273  -18.8494  -18.0196 C   0  0  0  0  0  0  0  0  0  0  0  0
   27.4160  -18.2016  -18.7458 C   0  0  0  0  0  0  0  0  0  0  0  0
   27.2125  -17.1497  -19.3857 O   0  0  0  0  0  0  0  0  0  0  0  0
   26.3497  -20.5569  -14.8617 C   0  0  0  0  0  0  0  0  0  0  0  0
   25.5040  -21.4260  -15.2138 O   0  0  0  0  0  0  0  0  0  0  0  0
   28.6874  -18.7487  -18.7347 O   0  0  0  0  0  0  0  0  0  0  0  0
   24.9107  -21.2983   -7.0558 C   0  0  0  0  0  0  0  0  0  0  0  0
   25.9471  -20.6326   -8.3752 S   0  0  0  0  0  0  0  0  0  0  0  0
   25.3330  -21.1267  -10.0081 C   0  0  0  0  0  0  0  0  0  0  0  0
   26.2017  -20.5290  -11.0997 C   0  0  0  0  0  0  0  0  0  0  0  0
   25.6163  -20.8567  -12.4827 C   0  0  2  0  0  0  0  0  0  0  0  0
   26.4776  -20.2646  -13.4718 N   0  0  0  0  0  0  0  0  0  0  0  0
   24.2214  -20.4102  -12.5835 C   0  0  0  0  0  0  0  0  0  0  0  0
   24.0015  -19.1741  -12.6823 O   0  0  0  0  0  0  0  0  0  0  0  0
   23.1499  -21.3360  -12.5711 N   0  0  0  0  0  0  0  0  0  0  0  0
   21.7512  -20.9261  -12.8080 C   0  0  1  0  0  0  0  0  0  0  0  0
   21.0469  -21.9750  -13.5799 C   0  0  0  0  0  0  0  0  0  0  0  0
   19.6204  -21.7515  -13.8823 C   0  0  0  0  0  0  0  0  0  0  0  0
   18.8882  -22.7380  -14.7171 C   0  0  0  0  0  0  0  0  0  0  0  0
   17.4456  -22.4187  -14.9766 C   0  0  0  0  0  0  0  0  0  0  0  0
   16.7716  -23.2338  -15.9289 N   0  0  0  0  0  0  0  0  0  0  0  0
   21.1874  -20.5413  -11.5372 C   0  0  0  0  0  0  0  0  0  0  0  0
   21.5666  -21.1198  -10.4371 O   0  0  0  0  0  0  0  0  0  0  0  0
   20.2308  -19.5626  -11.3113 O   0  0  0  0  0  0  0  0  0  0  0  0
  2  1  1  6
  2  3  1  0
  4  3  1  0
  5  4  1  0
  6  5  2  0
  7  2  1  0
  7  8  2  0
  9  5  1  0
 11 10  1  0
 12 11  1  0
 12 13  1  0
 14 13  1  1
 14 15  1  0
 15  7  1  0
 16 14  1  0
 17 16  2  0
 18 16  1  0
 19 25  1  0
 19 18  1  0
 20 21  1  0
 19 20  1  1
 21 22  1  0
 22 23  1  0
 23 24  1  0
 25 27  1  0
 26 25  2  0
M  END
$$$$
