EMK.pdb
     RDKit          3D

 27 26  0  0  1  0  0  0  0  0999 V2000
   28.5092  -27.4481  -17.6934 N   0  0  0  0  0  0  0  0  0  0  0  0
   29.4627  -27.8776  -16.6673 C   0  0  1  0  0  0  0  0  0  0  0  0
   29.6055  -29.3822  -16.6741 C   0  0  0  0  0  0  0  0  0  0  0  0
   28.3815  -30.0913  -16.1249 C   0  0  0  0  0  0  0  0  0  0  0  0
   28.4804  -31.5428  -16.2499 C   0  0  0  0  0  0  0  0  0  0  0  0
   28.1458  -32.1112  -17.3093 O   0  0  0  0  0  0  0  0  0  0  0  0
   30.7565  -27.1866  -16.9382 C   0  0  0  0  0  0  0  0  0  0  0  0
   31.1007  -26.8983  -18.1185 O   0  0  0  0  0  0  0  0  0  0  0  0
   28.9446  -32.3061  -15.1927 O   0  0  0  0  0  0  0  0  0  0  0  0
   37.4215  -24.2981  -13.6854 C   0  0  0  0  0  0  0  0  0  0  0  0
   35.6744  -24.7169  -13.5112 S   0  0  0  0  0  0  0  0  0  0  0  0
   35.0584  -25.5944  -14.9734 C   0  0  0  0  0  0  0  0  0  0  0  0
   33.5949  -25.9539  -14.7933 C   0  0  0  0  0  0  0  0  0  0  0  0
   33.0284  -26.5407  -16.0963 C   0  0  2  0  0  0  0  0  0  0  0  0
   31.6371  -26.8332  -15.8737 N   0  0  0  0  0  0  0  0  0  0  0  0
   33.8062  -27.7076  -16.5303 C   0  0  0  0  0  0  0  0  0  0  0  0
   33.6734  -28.7806  -15.8845 O   0  0  0  0  0  0  0  0  0  0  0  0
   34.6812  -27.6367  -17.6414 N   0  0  0  0  0  0  0  0  0  0  0  0
   35.4022  -28.8191  -18.1539 C   0  0  1  0  0  0  0  0  0  0  0  0
   34.8745  -29.1870  -19.4874 C   0  0  0  0  0  0  0  0  0  0  0  0
   35.4568  -30.3732  -20.1432 C   0  0  0  0  0  0  0  0  0  0  0  0
   34.9522  -30.7916  -21.4760 C   0  0  0  0  0  0  0  0  0  0  0  0
   35.5831  -32.0276  -22.0457 C   0  0  0  0  0  0  0  0  0  0  0  0
   35.1173  -32.4535  -23.3212 N   0  0  0  0  0  0  0  0  0  0  0  0
   36.8152  -28.5497  -18.0468 C   0  0  0  0  0  0  0  0  0  0  0  0
   37.2918  -27.3718  -18.3189 O   0  0  0  0  0  0  0  0  0  0  0  0
   37.8067  -29.4388  -17.6589 O   0  0  0  0  0  0  0  0  0  0  0  0
  2  1  1  6
  2  3  1  0
  4  3  1  0
  5  4  1  0
  6  5  2  0
  7  2  1  0
  7  8  2  0
  9  5  1  0
 11 10  1  0
 12 11  1  0
 12 13  1  0
 14 13  1  1
 14 15  1  0
 15  7  1  0
 16 14  1  0
 17 16  2  0
 18 16  1  0
 19 25  1  0
 19 18  1  0
 20 21  1  0
 19 20  1  6
 21 22  1  0
 22 23  1  0
 23 24  1  0
 25 27  1  0
 26 25  2  0
M  END
$$$$
