EMK.pdb
     RDKit          3D

 27 26  0  0  1  0  0  0  0  0999 V2000
   28.4339  -24.2830  -17.8789 N   0  0  0  0  0  0  0  0  0  0  0  0
   28.9343  -25.0237  -16.7180 C   0  0  1  0  0  0  0  0  0  0  0  0
   28.0127  -26.1751  -16.3875 C   0  0  0  0  0  0  0  0  0  0  0  0
   27.7156  -27.0537  -17.5885 C   0  0  0  0  0  0  0  0  0  0  0  0
   26.7961  -28.1409  -17.2649 C   0  0  0  0  0  0  0  0  0  0  0  0
   26.2538  -28.1983  -16.1424 O   0  0  0  0  0  0  0  0  0  0  0  0
   30.3171  -25.4818  -17.0388 C   0  0  0  0  0  0  0  0  0  0  0  0
   30.6675  -25.6923  -18.2336 O   0  0  0  0  0  0  0  0  0  0  0  0
   26.5170  -29.1228  -18.1997 O   0  0  0  0  0  0  0  0  0  0  0  0
   34.9499  -25.3416  -12.4468 C   0  0  0  0  0  0  0  0  0  0  0  0
   35.9533  -25.7997  -13.8756 S   0  0  0  0  0  0  0  0  0  0  0  0
   34.9152  -26.2519  -15.2918 C   0  0  0  0  0  0  0  0  0  0  0  0
   33.4898  -25.7796  -15.0712 C   0  0  0  0  0  0  0  0  0  0  0  0
   32.6197  -26.1319  -16.2885 C   0  0  2  0  0  0  0  0  0  0  0  0
   31.2785  -25.6931  -16.0069 N   0  0  0  0  0  0  0  0  0  0  0  0
   32.7097  -27.5628  -16.6038 C   0  0  0  0  0  0  0  0  0  0  0  0
   32.0685  -28.3696  -15.8800 O   0  0  0  0  0  0  0  0  0  0  0  0
   33.4917  -28.0294  -17.6883 N   0  0  0  0  0  0  0  0  0  0  0  0
   33.4054  -29.4184  -18.1822 C   0  0  1  0  0  0  0  0  0  0  0  0
   31.9870  -29.7864  -18.3939 C   0  0  0  0  0  0  0  0  0  0  0  0
   31.7080  -31.1366  -18.9184 C   0  0  0  0  0  0  0  0  0  0  0  0
   30.3038  -31.5391  -19.1875 C   0  0  0  0  0  0  0  0  0  0  0  0
   30.1232  -32.9257  -19.7308 C   0  0  0  0  0  0  0  0  0  0  0  0
   28.7848  -33.3906  -19.8648 N   0  0  0  0  0  0  0  0  0  0  0  0
   34.3007  -29.5387  -19.3069 C   0  0  0  0  0  0  0  0  0  0  0  0
   34.6011  -28.5040  -20.0334 O   0  0  0  0  0  0  0  0  0  0  0  0
   34.9362  -30.6901  -19.7475 O   0  0  0  0  0  0  0  0  0  0  0  0
  2  1  1  6
  2  3  1  0
  4  3  1  0
  5  4  1  0
  6  5  2  0
  7  2  1  0
  7  8  2  0
  9  5  1  0
 11 10  1  0
 12 11  1  0
 12 13  1  0
 14 13  1  1
 14 15  1  0
 15  7  1  0
 16 14  1  0
 17 16  2  0
 18 16  1  0
 19 25  1  0
 19 18  1  0
 20 21  1  0
 19 20  1  6
 21 22  1  0
 22 23  1  0
 23 24  1  0
 25 27  1  0
 26 25  2  0
M  END
$$$$
