EMK.pdb
     RDKit          3D

 27 26  0  0  1  0  0  0  0  0999 V2000
   19.0237  -12.1269  -15.3586 N   0  0  0  0  0  0  0  0  0  0  0  0
   19.2756  -11.0719  -14.3737 C   0  0  1  0  0  0  0  0  0  0  0  0
   20.5341  -10.3113  -14.7231 C   0  0  0  0  0  0  0  0  0  0  0  0
   21.7853  -11.1627  -14.6125 C   0  0  0  0  0  0  0  0  0  0  0  0
   23.0048  -10.3804  -14.7948 C   0  0  0  0  0  0  0  0  0  0  0  0
   23.1301   -9.6233  -15.7788 O   0  0  0  0  0  0  0  0  0  0  0  0
   18.0733  -10.1897  -14.3423 C   0  0  0  0  0  0  0  0  0  0  0  0
   17.5001   -9.8397  -15.4116 O   0  0  0  0  0  0  0  0  0  0  0  0
   24.0380  -10.4716  -13.8782 O   0  0  0  0  0  0  0  0  0  0  0  0
   14.1075  -12.3012  -10.3850 C   0  0  0  0  0  0  0  0  0  0  0  0
   13.2906  -10.9829  -11.3085 S   0  0  0  0  0  0  0  0  0  0  0  0
   14.3794  -10.3037  -12.5894 C   0  0  0  0  0  0  0  0  0  0  0  0
   15.4477   -9.4274  -11.9613 C   0  0  0  0  0  0  0  0  0  0  0  0
   16.3812   -8.8682  -13.0470 C   0  0  2  0  0  0  0  0  0  0  0  0
   17.5398   -9.7195  -13.1062 N   0  0  0  0  0  0  0  0  0  0  0  0
   16.7062   -7.4602  -12.7880 C   0  0  0  0  0  0  0  0  0  0  0  0
   17.6103   -7.2064  -11.9488 O   0  0  0  0  0  0  0  0  0  0  0  0
   16.0281   -6.4132  -13.4584 N   0  0  0  0  0  0  0  0  0  0  0  0
   16.3365   -4.9901  -13.2131 C   0  0  1  0  0  0  0  0  0  0  0  0
   16.8220   -4.3614  -14.4626 C   0  0  0  0  0  0  0  0  0  0  0  0
   17.1785   -2.9310  -14.4075 C   0  0  0  0  0  0  0  0  0  0  0  0
   17.7295   -2.2692  -15.6178 C   0  0  0  0  0  0  0  0  0  0  0  0
   18.0792   -0.8193  -15.4573 C   0  0  0  0  0  0  0  0  0  0  0  0
   18.5997   -0.1564  -16.6040 N   0  0  0  0  0  0  0  0  0  0  0  0
   15.1882   -4.3984  -12.5712 C   0  0  0  0  0  0  0  0  0  0  0  0
   14.0192   -4.9611  -12.6457 O   0  0  0  0  0  0  0  0  0  0  0  0
   15.1599   -3.2291  -11.8255 O   0  0  0  0  0  0  0  0  0  0  0  0
  2  1  1  6
  2  3  1  0
  4  3  1  0
  5  4  1  0
  6  5  2  0
  7  2  1  0
  7  8  2  0
  9  5  1  0
 11 10  1  0
 12 11  1  0
 12 13  1  0
 14 13  1  1
 14 15  1  0
 15  7  1  0
 16 14  1  0
 17 16  2  0
 18 16  1  0
 19 25  1  0
 19 18  1  0
 20 21  1  0
 19 20  1  6
 21 22  1  0
 22 23  1  0
 23 24  1  0
 25 27  1  0
 26 25  2  0
M  END
$$$$
