EMK.pdb
     RDKit          3D

 27 26  0  0  1  0  0  0  0  0999 V2000
   30.0425  -12.9057  -19.2780 N   0  0  0  0  0  0  0  0  0  0  0  0
   30.0088  -11.4819  -18.9342 C   0  0  1  0  0  0  0  0  0  0  0  0
   30.6798  -10.6612  -20.0116 C   0  0  0  0  0  0  0  0  0  0  0  0
   31.4035  -11.5153  -21.0359 C   0  0  0  0  0  0  0  0  0  0  0  0
   32.0013  -10.7147  -22.1008 C   0  0  0  0  0  0  0  0  0  0  0  0
   31.2798  -10.0780  -22.8952 O   0  0  0  0  0  0  0  0  0  0  0  0
   28.5800  -11.0996  -18.7412 C   0  0  0  0  0  0  0  0  0  0  0  0
   27.6718  -11.6116  -19.4536 O   0  0  0  0  0  0  0  0  0  0  0  0
   33.3769  -10.6547  -22.2428 O   0  0  0  0  0  0  0  0  0  0  0  0
   23.0986   -9.7929  -13.4483 C   0  0  0  0  0  0  0  0  0  0  0  0
   24.8441   -9.9942  -13.8616 S   0  0  0  0  0  0  0  0  0  0  0  0
   25.1359   -9.7346  -15.6322 C   0  0  0  0  0  0  0  0  0  0  0  0
   26.5762  -10.0622  -15.9815 C   0  0  0  0  0  0  0  0  0  0  0  0
   26.8253   -9.8275  -17.4801 C   0  0  2  0  0  0  0  0  0  0  0  0
   28.2022  -10.1482  -17.7483 N   0  0  0  0  0  0  0  0  0  0  0  0
   26.4605   -8.4590  -17.8667 C   0  0  0  0  0  0  0  0  0  0  0  0
   27.2493   -7.5270  -17.5583 O   0  0  0  0  0  0  0  0  0  0  0  0
   25.2596   -8.1876  -18.5662 N   0  0  0  0  0  0  0  0  0  0  0  0
   24.9034   -6.8293  -19.0233 C   0  0  1  0  0  0  0  0  0  0  0  0
   23.9020   -6.9145  -20.1106 C   0  0  0  0  0  0  0  0  0  0  0  0
   23.4745   -5.6503  -20.7390 C   0  0  0  0  0  0  0  0  0  0  0  0
   22.4954   -5.6848  -21.8555 C   0  0  0  0  0  0  0  0  0  0  0  0
   22.1520   -4.3526  -22.4536 C   0  0  0  0  0  0  0  0  0  0  0  0
   21.2795   -4.3624  -23.5778 N   0  0  0  0  0  0  0  0  0  0  0  0
   24.5581   -6.0526  -17.8580 C   0  0  0  0  0  0  0  0  0  0  0  0
   23.9244   -6.5929  -16.8604 O   0  0  0  0  0  0  0  0  0  0  0  0
   24.8356   -4.7116  -17.6373 O   0  0  0  0  0  0  0  0  0  0  0  0
  2  1  1  6
  2  3  1  0
  4  3  1  0
  5  4  1  0
  6  5  2  0
  7  2  1  0
  7  8  2  0
  9  5  1  0
 11 10  1  0
 12 11  1  0
 12 13  1  0
 14 13  1  1
 14 15  1  0
 15  7  1  0
 16 14  1  0
 17 16  2  0
 18 16  1  0
 19 25  1  0
 19 18  1  0
 20 21  1  0
 19 20  1  6
 21 22  1  0
 22 23  1  0
 23 24  1  0
 25 27  1  0
 26 25  2  0
M  END
$$$$
