EMK.pdb
     RDKit          3D

 27 26  0  0  1  0  0  0  0  0999 V2000
   26.3384  -18.7401  -13.7272 N   0  0  0  0  0  0  0  0  0  0  0  0
   26.7341  -20.1495  -13.7877 C   0  0  1  0  0  0  0  0  0  0  0  0
   28.1627  -20.2781  -14.2641 C   0  0  0  0  0  0  0  0  0  0  0  0
   28.5491  -21.7104  -14.5833 C   0  0  0  0  0  0  0  0  0  0  0  0
   28.5425  -21.9784  -16.0187 C   0  0  0  0  0  0  0  0  0  0  0  0
   28.8172  -23.1162  -16.4515 O   0  0  0  0  0  0  0  0  0  0  0  0
   26.5382  -20.7304  -12.4279 C   0  0  0  0  0  0  0  0  0  0  0  0
   26.4999  -21.9812  -12.2586 O   0  0  0  0  0  0  0  0  0  0  0  0
   28.2335  -20.9718  -16.9171 O   0  0  0  0  0  0  0  0  0  0  0  0
   29.3157  -20.1136   -6.7496 C   0  0  0  0  0  0  0  0  0  0  0  0
   27.6026  -19.7725   -6.2946 S   0  0  0  0  0  0  0  0  0  0  0  0
   26.4532  -20.3616   -7.5671 C   0  0  0  0  0  0  0  0  0  0  0  0
   26.8589  -19.8294   -8.9294 C   0  0  0  0  0  0  0  0  0  0  0  0
   25.9329  -20.3959  -10.0177 C   0  0  2  0  0  0  0  0  0  0  0  0
   26.3899  -19.8904  -11.2851 N   0  0  0  0  0  0  0  0  0  0  0  0
   24.5288  -20.0737   -9.7347 C   0  0  0  0  0  0  0  0  0  0  0  0
   24.1436  -18.8899   -9.9250 O   0  0  0  0  0  0  0  0  0  0  0  0
   23.6286  -21.0595   -9.2623 N   0  0  0  0  0  0  0  0  0  0  0  0
   22.1642  -20.9117   -9.3815 C   0  0  1  0  0  0  0  0  0  0  0  0
   21.7224  -21.3736  -10.7171 C   0  0  0  0  0  0  0  0  0  0  0  0
   20.2781  -21.3147  -11.0111 C   0  0  0  0  0  0  0  0  0  0  0  0
   19.7775  -21.8215  -12.3145 C   0  0  0  0  0  0  0  0  0  0  0  0
   18.2976  -21.6998  -12.5285 C   0  0  0  0  0  0  0  0  0  0  0  0
   17.7876  -22.1916  -13.7627 N   0  0  0  0  0  0  0  0  0  0  0  0
   21.5663  -21.5380   -8.2278 C   0  0  0  0  0  0  0  0  0  0  0  0
   22.1581  -22.5243   -7.6230 O   0  0  0  0  0  0  0  0  0  0  0  0
   20.3614  -21.2031   -7.6277 O   0  0  0  0  0  0  0  0  0  0  0  0
  2  1  1  1
  2  3  1  0
  4  3  1  0
  5  4  1  0
  6  5  2  0
  7  2  1  0
  7  8  2  0
  9  5  1  0
 11 10  1  0
 12 11  1  0
 12 13  1  0
 14 13  1  1
 14 15  1  0
 15  7  1  0
 16 14  1  0
 17 16  2  0
 18 16  1  0
 19 25  1  0
 19 18  1  0
 20 21  1  0
 19 20  1  6
 21 22  1  0
 22 23  1  0
 23 24  1  0
 25 27  1  0
 26 25  2  0
M  END
$$$$
