EMK.pdb
     RDKit          3D

 27 26  0  0  1  0  0  0  0  0999 V2000
   27.6032  -20.4190  -15.4618 N   0  0  0  0  0  0  0  0  0  0  0  0
   26.5085  -21.2420  -15.9825 C   0  0  1  0  0  0  0  0  0  0  0  0
   27.0539  -22.4481  -16.7120 C   0  0  0  0  0  0  0  0  0  0  0  0
   28.1086  -22.0854  -17.7410 C   0  0  0  0  0  0  0  0  0  0  0  0
   29.4078  -22.6771  -17.4339 C   0  0  0  0  0  0  0  0  0  0  0  0
   30.4488  -21.9933  -17.5108 O   0  0  0  0  0  0  0  0  0  0  0  0
   25.6444  -21.6236  -14.8282 C   0  0  0  0  0  0  0  0  0  0  0  0
   24.7449  -22.5007  -14.9562 O   0  0  0  0  0  0  0  0  0  0  0  0
   29.4999  -24.0054  -17.0560 O   0  0  0  0  0  0  0  0  0  0  0  0
   27.3506  -20.8102   -8.6807 C   0  0  0  0  0  0  0  0  0  0  0  0
   25.5643  -20.8301   -8.4224 S   0  0  0  0  0  0  0  0  0  0  0  0
   24.6764  -21.0983   -9.9803 C   0  0  0  0  0  0  0  0  0  0  0  0
   25.6152  -20.9163  -11.1589 C   0  0  0  0  0  0  0  0  0  0  0  0
   24.8802  -21.2189  -12.4745 C   0  0  2  0  0  0  0  0  0  0  0  0
   25.8112  -21.0101  -13.5517 N   0  0  0  0  0  0  0  0  0  0  0  0
   23.6605  -20.4107  -12.5945 C   0  0  0  0  0  0  0  0  0  0  0  0
   23.7824  -19.1577  -12.6316 O   0  0  0  0  0  0  0  0  0  0  0  0
   22.3818  -21.0147  -12.6674 N   0  0  0  0  0  0  0  0  0  0  0  0
   21.1497  -20.2289  -12.8793 C   0  0  1  0  0  0  0  0  0  0  0  0
   20.4182  -20.7539  -14.0547 C   0  0  0  0  0  0  0  0  0  0  0  0
   19.1452  -20.0981  -14.4092 C   0  0  0  0  0  0  0  0  0  0  0  0
   18.3377  -20.6329  -15.5353 C   0  0  0  0  0  0  0  0  0  0  0  0
   17.1194  -19.8336  -15.8920 C   0  0  0  0  0  0  0  0  0  0  0  0
   16.2261  -20.4158  -16.8346 N   0  0  0  0  0  0  0  0  0  0  0  0
   20.4432  -20.1765  -11.6229 C   0  0  0  0  0  0  0  0  0  0  0  0
   20.4588  -21.1876  -10.8066 O   0  0  0  0  0  0  0  0  0  0  0  0
   19.7004  -19.1150  -11.1274 O   0  0  0  0  0  0  0  0  0  0  0  0
  2  1  1  1
  2  3  1  0
  4  3  1  0
  5  4  1  0
  6  5  2  0
  7  2  1  0
  7  8  2  0
  9  5  1  0
 11 10  1  0
 12 11  1  0
 12 13  1  0
 14 13  1  1
 14 15  1  0
 15  7  1  0
 16 14  1  0
 17 16  2  0
 18 16  1  0
 19 25  1  0
 19 18  1  0
 20 21  1  0
 19 20  1  6
 21 22  1  0
 22 23  1  0
 23 24  1  0
 25 27  1  0
 26 25  2  0
M  END
$$$$
