EMK.pdb
     RDKit          3D

 27 26  0  0  1  0  0  0  0  0999 V2000
   18.2725  -13.8395  -17.3801 N   0  0  0  0  0  0  0  0  0  0  0  0
   19.0720  -12.8704  -18.1340 C   0  0  1  0  0  0  0  0  0  0  0  0
   18.1772  -11.9728  -18.9574 C   0  0  0  0  0  0  0  0  0  0  0  0
   17.7445  -12.6126  -20.2636 C   0  0  0  0  0  0  0  0  0  0  0  0
   18.6403  -12.2779  -21.3671 C   0  0  0  0  0  0  0  0  0  0  0  0
   19.8681  -12.4780  -21.2688 O   0  0  0  0  0  0  0  0  0  0  0  0
   19.8917  -12.1030  -17.1522 C   0  0  0  0  0  0  0  0  0  0  0  0
   19.4041  -11.7427  -16.0445 O   0  0  0  0  0  0  0  0  0  0  0  0
   18.1374  -11.7321  -22.5355 O   0  0  0  0  0  0  0  0  0  0  0  0
   27.2436  -10.1409  -14.9647 C   0  0  0  0  0  0  0  0  0  0  0  0
   26.1437  -11.0943  -16.0320 S   0  0  0  0  0  0  0  0  0  0  0  0
   24.4105  -10.6264  -15.7777 C   0  0  0  0  0  0  0  0  0  0  0  0
   23.5122  -11.4005  -16.7250 C   0  0  0  0  0  0  0  0  0  0  0  0
   22.0462  -10.9834  -16.5259 C   0  0  2  0  0  0  0  0  0  0  0  0
   21.2454  -11.7571  -17.4375 N   0  0  0  0  0  0  0  0  0  0  0  0
   21.8833   -9.5341  -16.6942 C   0  0  0  0  0  0  0  0  0  0  0  0
   21.8552   -9.0742  -17.8663 O   0  0  0  0  0  0  0  0  0  0  0  0
   21.7604   -8.6729  -15.5769 N   0  0  0  0  0  0  0  0  0  0  0  0
   21.4128   -7.2446  -15.7170 C   0  0  1  0  0  0  0  0  0  0  0  0
   20.0750   -7.1144  -16.3380 C   0  0  0  0  0  0  0  0  0  0  0  0
   19.5022   -5.7585  -16.4358 C   0  0  0  0  0  0  0  0  0  0  0  0
   18.1522   -5.5777  -17.0282 C   0  0  0  0  0  0  0  0  0  0  0  0
   17.6249   -4.1734  -17.0151 C   0  0  0  0  0  0  0  0  0  0  0  0
   16.3178   -3.9763  -17.5424 N   0  0  0  0  0  0  0  0  0  0  0  0
   21.6165   -6.6174  -14.4341 C   0  0  0  0  0  0  0  0  0  0  0  0
   21.5788   -7.3142  -13.3378 O   0  0  0  0  0  0  0  0  0  0  0  0
   21.8721   -5.2755  -14.1930 O   0  0  0  0  0  0  0  0  0  0  0  0
  2  1  1  1
  2  3  1  0
  4  3  1  0
  5  4  1  0
  6  5  2  0
  7  2  1  0
  7  8  2  0
  9  5  1  0
 11 10  1  0
 12 11  1  0
 12 13  1  0
 14 13  1  6
 14 15  1  0
 15  7  1  0
 16 14  1  0
 17 16  2  0
 18 16  1  0
 19 25  1  0
 19 18  1  0
 20 21  1  0
 19 20  1  1
 21 22  1  0
 22 23  1  0
 23 24  1  0
 25 27  1  0
 26 25  2  0
M  END
$$$$
