EMK.pdb
     RDKit          3D

 27 26  0  0  1  0  0  0  0  0999 V2000
   27.8775  -19.2315  -13.8917 N   0  0  0  0  0  0  0  0  0  0  0  0
   27.0359  -20.3360  -14.3589 C   0  0  1  0  0  0  0  0  0  0  0  0
   27.8195  -21.2473  -15.2754 C   0  0  0  0  0  0  0  0  0  0  0  0
   28.7481  -20.4886  -16.2053 C   0  0  0  0  0  0  0  0  0  0  0  0
   28.1070  -20.1512  -17.4731 C   0  0  0  0  0  0  0  0  0  0  0  0
   28.7213  -19.4938  -18.3379 O   0  0  0  0  0  0  0  0  0  0  0  0
   26.5236  -21.0517  -13.1546 C   0  0  0  0  0  0  0  0  0  0  0  0
   25.7666  -22.0555  -13.2725 O   0  0  0  0  0  0  0  0  0  0  0  0
   26.8082  -20.5550  -17.7297 O   0  0  0  0  0  0  0  0  0  0  0  0
   28.7386  -20.3494   -7.0522 C   0  0  0  0  0  0  0  0  0  0  0  0
   26.9663  -20.3549   -6.7098 S   0  0  0  0  0  0  0  0  0  0  0  0
   26.0095  -20.7577   -8.1964 C   0  0  0  0  0  0  0  0  0  0  0  0
   26.8460  -20.5211   -9.4404 C   0  0  0  0  0  0  0  0  0  0  0  0
   26.0475  -20.9024  -10.6973 C   0  0  2  0  0  0  0  0  0  0  0  0
   26.8749  -20.6226  -11.8408 N   0  0  0  0  0  0  0  0  0  0  0  0
   24.7545  -20.2080  -10.7307 C   0  0  0  0  0  0  0  0  0  0  0  0
   24.7538  -18.9534  -10.6217 O   0  0  0  0  0  0  0  0  0  0  0  0
   23.5402  -20.9208  -10.8814 N   0  0  0  0  0  0  0  0  0  0  0  0
   22.3420  -20.3158  -11.4969 C   0  0  1  0  0  0  0  0  0  0  0  0
   22.5406  -20.1899  -12.9587 C   0  0  0  0  0  0  0  0  0  0  0  0
   21.4248  -19.6366  -13.7492 C   0  0  0  0  0  0  0  0  0  0  0  0
   21.5582  -19.5301  -15.2247 C   0  0  0  0  0  0  0  0  0  0  0  0
   20.3584  -18.9872  -15.9432 C   0  0  0  0  0  0  0  0  0  0  0  0
   20.4875  -18.7937  -17.3472 N   0  0  0  0  0  0  0  0  0  0  0  0
   21.1935  -21.0603  -11.0415 C   0  0  0  0  0  0  0  0  0  0  0  0
   20.0110  -20.5214  -11.0312 O   0  0  0  0  0  0  0  0  0  0  0  0
   21.1759  -22.3703  -10.5860 O   0  0  0  0  0  0  0  0  0  0  0  0
  2  1  1  1
  2  3  1  0
  4  3  1  0
  5  4  1  0
  6  5  2  0
  7  2  1  0
  7  8  2  0
  9  5  1  0
 11 10  1  0
 12 11  1  0
 12 13  1  0
 14 13  1  1
 14 15  1  0
 15  7  1  0
 16 14  1  0
 17 16  2  0
 18 16  1  0
 19 25  1  0
 19 18  1  0
 20 21  1  0
 19 20  1  6
 21 22  1  0
 22 23  1  0
 23 24  1  0
 25 27  1  0
 26 25  2  0
M  END
$$$$
