EMK.pdb
     RDKit          3D

 27 26  0  0  1  0  0  0  0  0999 V2000
   28.5961  -21.4030  -15.2053 N   0  0  0  0  0  0  0  0  0  0  0  0
   27.8517  -20.3271  -14.5459 C   0  0  1  0  0  0  0  0  0  0  0  0
   27.4101  -19.2930  -15.5558 C   0  0  0  0  0  0  0  0  0  0  0  0
   28.4391  -19.0595  -16.6463 C   0  0  0  0  0  0  0  0  0  0  0  0
   27.9377  -18.1841  -17.7020 C   0  0  0  0  0  0  0  0  0  0  0  0
   28.6481  -17.9153  -18.6921 O   0  0  0  0  0  0  0  0  0  0  0  0
   26.6981  -20.9492  -13.8338 C   0  0  0  0  0  0  0  0  0  0  0  0
   26.0337  -21.8801  -14.3693 O   0  0  0  0  0  0  0  0  0  0  0  0
   26.6680  -17.6399  -17.6154 O   0  0  0  0  0  0  0  0  0  0  0  0
   26.3587  -19.4030   -7.6591 C   0  0  0  0  0  0  0  0  0  0  0  0
   26.8209  -21.1095   -8.0232 S   0  0  0  0  0  0  0  0  0  0  0  0
   26.6058  -21.4890   -9.7831 C   0  0  0  0  0  0  0  0  0  0  0  0
   25.3869  -20.7697  -10.3311 C   0  0  0  0  0  0  0  0  0  0  0  0
   25.2066  -21.0922  -11.8232 C   0  0  2  0  0  0  0  0  0  0  0  0
   26.3160  -20.5109  -12.5317 N   0  0  0  0  0  0  0  0  0  0  0  0
   23.9002  -20.6303  -12.3079 C   0  0  0  0  0  0  0  0  0  0  0  0
   23.7500  -19.3982  -12.5207 O   0  0  0  0  0  0  0  0  0  0  0  0
   22.8361  -21.5373  -12.5323 N   0  0  0  0  0  0  0  0  0  0  0  0
   21.5361  -21.1063  -13.0845 C   0  0  1  0  0  0  0  0  0  0  0  0
   20.9024  -22.2322  -13.8079 C   0  0  0  0  0  0  0  0  0  0  0  0
   19.5577  -22.0054  -14.3702 C   0  0  0  0  0  0  0  0  0  0  0  0
   18.8677  -23.1123  -15.0808 C   0  0  0  0  0  0  0  0  0  0  0  0
   17.4866  -22.7991  -15.5758 C   0  0  0  0  0  0  0  0  0  0  0  0
   16.7522  -23.8766  -16.1459 N   0  0  0  0  0  0  0  0  0  0  0  0
   20.7872  -20.4957  -12.0136 C   0  0  0  0  0  0  0  0  0  0  0  0
   20.9530  -20.8769  -10.7823 O   0  0  0  0  0  0  0  0  0  0  0  0
   19.8505  -19.4787  -12.1251 O   0  0  0  0  0  0  0  0  0  0  0  0
  2  1  1  6
  2  3  1  0
  4  3  1  0
  5  4  1  0
  6  5  2  0
  7  2  1  0
  7  8  2  0
  9  5  1  0
 11 10  1  0
 12 11  1  0
 12 13  1  0
 14 13  1  1
 14 15  1  0
 15  7  1  0
 16 14  1  0
 17 16  2  0
 18 16  1  0
 19 25  1  0
 19 18  1  0
 20 21  1  0
 19 20  1  1
 21 22  1  0
 22 23  1  0
 23 24  1  0
 25 27  1  0
 26 25  2  0
M  END
$$$$
