MDY.pdb
     RDKit          3D

 29 29  0  0  1  0  0  0  0  0999 V2000
    5.1997  -13.8895   19.2703 C   0  0  0  0  0  0  0  0  0  0  0  0
    6.7044  -13.1822   18.6593 S   0  0  0  0  0  0  0  0  0  0  0  0
    8.1870  -13.4213   19.5716 C   0  0  0  0  0  0  0  0  0  0  0  0
    8.0767  -13.6250   21.0286 C   0  0  0  0  0  0  0  0  0  0  0  0
    9.3422  -13.8282   21.7487 C   0  0  2  0  0  0  0  0  0  0  0  0
   10.5381  -13.7588   20.9578 N   0  0  0  0  0  0  0  0  0  0  0  0
    9.3319  -15.0886   22.5772 C   0  0  0  0  0  0  0  0  0  0  0  0
    8.2582  -15.3759   23.1516 O   0  0  0  0  0  0  0  0  0  0  0  0
   10.4448  -15.9166   22.7177 N   0  0  0  0  0  0  0  0  0  0  0  0
   10.4499  -17.1446   23.5493 C   0  0  1  0  0  0  0  0  0  0  0  0
   11.6197  -17.9394   23.0249 C   0  0  0  0  0  0  0  0  0  0  0  0
   11.7986  -19.2129   23.6866 C   0  0  0  0  0  0  0  0  0  0  0  0
   12.8881  -19.6004   24.1351 O   0  0  0  0  0  0  0  0  0  0  0  0
   10.5786  -16.7505   24.9720 C   0  0  0  0  0  0  0  0  0  0  0  0
   11.5313  -16.0438   25.3519 O   0  0  0  0  0  0  0  0  0  0  0  0
   10.7113  -20.0733   23.8453 O   0  0  0  0  0  0  0  0  0  0  0  0
    6.6253  -11.5965   25.1806 O   0  0  0  0  0  0  0  0  0  0  0  0
    7.0888  -12.7178   25.8569 C   0  0  0  0  0  0  0  0  0  0  0  0
    6.5233  -13.9282   25.6045 C   0  0  0  0  0  0  0  0  0  0  0  0
    6.9795  -15.0675   26.2777 C   0  0  0  0  0  0  0  0  0  0  0  0
    7.9980  -14.9909   27.1993 C   0  0  0  0  0  0  0  0  0  0  0  0
    8.4390  -16.2123   27.8756 C   0  0  0  0  0  0  0  0  0  0  0  0
    9.7389  -16.7826   27.3659 C   0  0  2  0  0  0  0  0  0  0  0  0
    9.6293  -17.1540   25.9733 N   0  0  0  0  0  0  0  0  0  0  0  0
   10.2685  -17.8969   28.1467 C   0  0  0  0  0  0  0  0  0  0  0  0
   10.5025  -17.8144   29.3875 O   0  0  0  0  0  0  0  0  0  0  0  0
    8.5736  -13.7667   27.4579 C   0  0  0  0  0  0  0  0  0  0  0  0
    8.1087  -12.6511   26.7818 C   0  0  0  0  0  0  0  0  0  0  0  0
   10.5545  -19.1379   27.5714 O   0  0  0  0  0  0  0  0  0  0  0  0
  2  1  1  0
  3  2  1  0
  4  5  1  0
  4  3  1  0
  5  6  1  6
  7  8  2  0
  7  5  1  0
  9  7  1  0
 10  9  1  0
 10 11  1  6
 12 13  2  0
 12 11  1  0
 14 24  1  0
 14 10  1  0
 15 14  2  0
 16 12  1  0
 18 19  2  0
 18 17  1  0
 20 19  1  0
 21 20  2  0
 22 21  1  0
 23 22  1  1
 23 24  1  0
 25 23  1  0
 26 25  2  0
 27 21  1  0
 27 28  2  0
 28 18  1  0
 29 25  1  0
M  END
$$$$
