MDY.pdb
     RDKit          3D

 29 29  0  0  1  0  0  0  0  0999 V2000
    6.5231  -11.8736   18.8669 C   0  0  0  0  0  0  0  0  0  0  0  0
    8.1062  -12.6179   18.5885 S   0  0  0  0  0  0  0  0  0  0  0  0
    8.2258  -14.3706   18.5514 C   0  0  0  0  0  0  0  0  0  0  0  0
    8.8251  -15.0472   19.7174 C   0  0  0  0  0  0  0  0  0  0  0  0
    8.9104  -16.5128   19.6387 C   0  0  2  0  0  0  0  0  0  0  0  0
    7.6958  -17.1998   19.3020 N   0  0  0  0  0  0  0  0  0  0  0  0
    9.5307  -17.1160   20.8742 C   0  0  0  0  0  0  0  0  0  0  0  0
    8.7578  -17.7063   21.6612 O   0  0  0  0  0  0  0  0  0  0  0  0
   10.8938  -17.0394   21.1569 N   0  0  0  0  0  0  0  0  0  0  0  0
   11.5144  -17.6463   22.3593 C   0  0  1  0  0  0  0  0  0  0  0  0
   12.9586  -17.8406   21.9699 C   0  0  0  0  0  0  0  0  0  0  0  0
   13.7795  -18.3737   23.0346 C   0  0  0  0  0  0  0  0  0  0  0  0
   14.9990  -18.1662   23.1235 O   0  0  0  0  0  0  0  0  0  0  0  0
   11.3178  -16.7285   23.5061 C   0  0  0  0  0  0  0  0  0  0  0  0
   11.6040  -15.5201   23.4090 O   0  0  0  0  0  0  0  0  0  0  0  0
   13.2021  -19.1653   24.0284 O   0  0  0  0  0  0  0  0  0  0  0  0
    5.9762  -11.6297   27.4237 O   0  0  0  0  0  0  0  0  0  0  0  0
    6.7103  -12.6099   26.7682 C   0  0  0  0  0  0  0  0  0  0  0  0
    6.1414  -13.8225   26.5343 C   0  0  0  0  0  0  0  0  0  0  0  0
    6.8681  -14.8205   25.8747 C   0  0  0  0  0  0  0  0  0  0  0  0
    8.1589  -14.6014   25.4526 C   0  0  0  0  0  0  0  0  0  0  0  0
    8.8757  -15.6781   24.7664 C   0  0  0  0  0  0  0  0  0  0  0  0
    9.9291  -16.3661   25.5981 C   0  0  2  0  0  0  0  0  0  0  0  0
   10.7960  -17.1731   24.7696 N   0  0  0  0  0  0  0  0  0  0  0  0
    9.4125  -17.1574   26.7112 C   0  0  0  0  0  0  0  0  0  0  0  0
    8.8800  -18.2945   26.5549 O   0  0  0  0  0  0  0  0  0  0  0  0
    8.7390  -13.3746   25.6875 C   0  0  0  0  0  0  0  0  0  0  0  0
    8.0040  -12.3998   26.3415 C   0  0  0  0  0  0  0  0  0  0  0  0
    9.4722  -16.7082   28.0331 O   0  0  0  0  0  0  0  0  0  0  0  0
  2  1  1  0
  3  2  1  0
  4  5  1  0
  4  3  1  0
  5  6  1  1
  7  8  2  0
  7  5  1  0
  9  7  1  0
 10  9  1  0
 10 11  1  6
 12 13  2  0
 12 11  1  0
 14 24  1  0
 14 10  1  0
 15 14  2  0
 16 12  1  0
 18 19  2  0
 18 17  1  0
 20 19  1  0
 21 20  2  0
 22 21  1  0
 23 22  1  6
 23 24  1  0
 25 23  1  0
 26 25  2  0
 27 21  1  0
 27 28  2  0
 28 18  1  0
 29 25  1  0
M  END
$$$$
