MDY.pdb
     RDKit          3D

 29 29  0  0  1  0  0  0  0  0999 V2000
    8.1073  -11.3554   20.1067 C   0  0  0  0  0  0  0  0  0  0  0  0
    7.6643  -12.9611   19.5042 S   0  0  0  0  0  0  0  0  0  0  0  0
    7.4459  -14.2699   20.6562 C   0  0  0  0  0  0  0  0  0  0  0  0
    6.9471  -15.5619   20.1479 C   0  0  0  0  0  0  0  0  0  0  0  0
    6.8394  -16.6451   21.1361 C   0  0  2  0  0  0  0  0  0  0  0  0
    6.0034  -16.3829   22.2732 N   0  0  0  0  0  0  0  0  0  0  0  0
    8.1899  -17.1486   21.5811 C   0  0  0  0  0  0  0  0  0  0  0  0
    8.4982  -18.3114   21.2374 O   0  0  0  0  0  0  0  0  0  0  0  0
    9.0763  -16.3836   22.3379 N   0  0  0  0  0  0  0  0  0  0  0  0
   10.3434  -16.9148   22.8962 C   0  0  1  0  0  0  0  0  0  0  0  0
   11.4176  -16.2192   22.0981 C   0  0  0  0  0  0  0  0  0  0  0  0
   12.7492  -16.7203   22.3578 C   0  0  0  0  0  0  0  0  0  0  0  0
   13.7568  -15.9975   22.3799 O   0  0  0  0  0  0  0  0  0  0  0  0
   10.3817  -16.6157   24.3471 C   0  0  0  0  0  0  0  0  0  0  0  0
   11.1306  -15.7256   24.7928 O   0  0  0  0  0  0  0  0  0  0  0  0
   12.9456  -18.0807   22.5999 O   0  0  0  0  0  0  0  0  0  0  0  0
    7.0652  -11.2701   26.0296 O   0  0  0  0  0  0  0  0  0  0  0  0
    7.4055  -12.5772   26.3539 C   0  0  0  0  0  0  0  0  0  0  0  0
    6.6205  -13.5973   25.9159 C   0  0  0  0  0  0  0  0  0  0  0  0
    6.9502  -14.9199   26.2341 C   0  0  0  0  0  0  0  0  0  0  0  0
    8.0622  -15.2157   26.9881 C   0  0  0  0  0  0  0  0  0  0  0  0
    8.3635  -16.6158   27.2927 C   0  0  0  0  0  0  0  0  0  0  0  0
    9.6697  -17.1178   26.7299 C   0  0  2  0  0  0  0  0  0  0  0  0
    9.5725  -17.3222   25.3023 N   0  0  0  0  0  0  0  0  0  0  0  0
   10.1977  -18.3150   27.3778 C   0  0  0  0  0  0  0  0  0  0  0  0
   10.2148  -19.4481   26.8149 O   0  0  0  0  0  0  0  0  0  0  0  0
    8.8600  -14.1854   27.4338 C   0  0  0  0  0  0  0  0  0  0  0  0
    8.5174  -12.8835   27.1087 C   0  0  0  0  0  0  0  0  0  0  0  0
   10.7232  -18.2890   28.6724 O   0  0  0  0  0  0  0  0  0  0  0  0
  2  1  1  0
  3  2  1  0
  4  5  1  0
  4  3  1  0
  5  6  1  1
  7  8  2  0
  7  5  1  0
  9  7  1  0
 10  9  1  0
 10 11  1  6
 12 13  2  0
 12 11  1  0
 14 24  1  0
 14 10  1  0
 15 14  2  0
 16 12  1  0
 18 19  2  0
 18 17  1  0
 20 19  1  0
 21 20  2  0
 22 21  1  0
 23 22  1  1
 23 24  1  0
 25 23  1  0
 26 25  2  0
 27 21  1  0
 27 28  2  0
 28 18  1  0
 29 25  1  0
M  END
$$$$
