MDY.pdb
     RDKit          3D

 29 29  0  0  1  0  0  0  0  0999 V2000
    7.8997  -11.5109   20.6518 C   0  0  0  0  0  0  0  0  0  0  0  0
    6.7829  -12.5656   19.7696 S   0  0  0  0  0  0  0  0  0  0  0  0
    7.1490  -14.2801   19.6507 C   0  0  0  0  0  0  0  0  0  0  0  0
    8.0193  -14.8741   20.6833 C   0  0  0  0  0  0  0  0  0  0  0  0
    8.3025  -16.3096   20.5396 C   0  0  2  0  0  0  0  0  0  0  0  0
    7.1668  -17.1593   20.3190 N   0  0  0  0  0  0  0  0  0  0  0  0
    9.1454  -16.8415   21.6718 C   0  0  0  0  0  0  0  0  0  0  0  0
    8.5710  -17.5802   22.5022 O   0  0  0  0  0  0  0  0  0  0  0  0
   10.5002  -16.5460   21.8165 N   0  0  0  0  0  0  0  0  0  0  0  0
   11.3119  -16.9811   22.9790 C   0  0  1  0  0  0  0  0  0  0  0  0
   12.7266  -16.6282   22.5929 C   0  0  0  0  0  0  0  0  0  0  0  0
   13.7142  -17.0496   23.5617 C   0  0  0  0  0  0  0  0  0  0  0  0
   13.4310  -17.6715   24.5968 O   0  0  0  0  0  0  0  0  0  0  0  0
   10.8230  -16.2750   24.1867 C   0  0  0  0  0  0  0  0  0  0  0  0
   10.4423  -15.0908   24.1198 O   0  0  0  0  0  0  0  0  0  0  0  0
   15.0629  -16.7581   23.3522 O   0  0  0  0  0  0  0  0  0  0  0  0
    6.2279  -11.1498   26.1733 O   0  0  0  0  0  0  0  0  0  0  0  0
    6.7972  -12.4168   26.1590 C   0  0  0  0  0  0  0  0  0  0  0  0
    6.2356  -13.3901   25.3937 C   0  0  0  0  0  0  0  0  0  0  0  0
    6.7976  -14.6718   25.3685 C   0  0  0  0  0  0  0  0  0  0  0  0
    7.9175  -14.9736   26.1082 C   0  0  0  0  0  0  0  0  0  0  0  0
    8.4670  -16.3295   26.0465 C   0  0  0  0  0  0  0  0  0  0  0  0
    9.8871  -16.4586   26.5376 C   0  0  2  0  0  0  0  0  0  0  0  0
   10.7620  -16.9052   25.4772 N   0  0  0  0  0  0  0  0  0  0  0  0
   10.0540  -17.2997   27.7194 C   0  0  0  0  0  0  0  0  0  0  0  0
   10.1946  -18.5555   27.6526 O   0  0  0  0  0  0  0  0  0  0  0  0
    8.4897  -13.9906   26.8848 C   0  0  0  0  0  0  0  0  0  0  0  0
    7.9191  -12.7287   26.8966 C   0  0  0  0  0  0  0  0  0  0  0  0
   10.0696  -16.7701   29.0124 O   0  0  0  0  0  0  0  0  0  0  0  0
  2  1  1  0
  3  2  1  0
  4  5  1  0
  4  3  1  0
  5  6  1  1
  7  8  2  0
  7  5  1  0
  9  7  1  0
 10  9  1  0
 10 11  1  6
 12 13  2  0
 12 11  1  0
 14 24  1  0
 14 10  1  0
 15 14  2  0
 16 12  1  0
 18 19  2  0
 18 17  1  0
 20 19  1  0
 21 20  2  0
 22 21  1  0
 23 22  1  6
 23 24  1  0
 25 23  1  0
 26 25  2  0
 27 21  1  0
 27 28  2  0
 28 18  1  0
 29 25  1  0
M  END
$$$$
