MDY.pdb
     RDKit          3D

 29 29  0  0  1  0  0  0  0  0999 V2000
    8.5548  -11.6331   19.9994 C   0  0  0  0  0  0  0  0  0  0  0  0
    7.6579  -12.4782   18.7270 S   0  0  0  0  0  0  0  0  0  0  0  0
    7.5962  -14.2341   18.7546 C   0  0  0  0  0  0  0  0  0  0  0  0
    8.3293  -14.9346   19.8262 C   0  0  0  0  0  0  0  0  0  0  0  0
    8.2296  -16.4014   19.8229 C   0  0  2  0  0  0  0  0  0  0  0  0
    6.9083  -16.9452   19.6856 N   0  0  0  0  0  0  0  0  0  0  0  0
    8.9348  -17.0244   21.0018 C   0  0  0  0  0  0  0  0  0  0  0  0
    8.2103  -17.5002   21.9040 O   0  0  0  0  0  0  0  0  0  0  0  0
   10.3233  -17.0853   21.1134 N   0  0  0  0  0  0  0  0  0  0  0  0
   11.0248  -17.5986   22.3150 C   0  0  1  0  0  0  0  0  0  0  0  0
   12.4012  -17.9566   21.8127 C   0  0  0  0  0  0  0  0  0  0  0  0
   12.4310  -19.1605   21.0117 C   0  0  0  0  0  0  0  0  0  0  0  0
   12.5386  -19.1540   19.7761 O   0  0  0  0  0  0  0  0  0  0  0  0
   11.0184  -16.5408   23.3529 C   0  0  0  0  0  0  0  0  0  0  0  0
   11.4470  -15.3991   23.0992 O   0  0  0  0  0  0  0  0  0  0  0  0
   12.3362  -20.4089   21.6283 O   0  0  0  0  0  0  0  0  0  0  0  0
    5.6547  -11.0864   26.9843 O   0  0  0  0  0  0  0  0  0  0  0  0
    6.3847  -12.1178   26.4075 C   0  0  0  0  0  0  0  0  0  0  0  0
    7.1958  -11.8486   25.3501 C   0  0  0  0  0  0  0  0  0  0  0  0
    7.9381  -12.8771   24.7582 C   0  0  0  0  0  0  0  0  0  0  0  0
    7.8656  -14.1687   25.2260 C   0  0  0  0  0  0  0  0  0  0  0  0
    8.6630  -15.2082   24.5721 C   0  0  0  0  0  0  0  0  0  0  0  0
    9.7606  -15.7928   25.4253 C   0  0  2  0  0  0  0  0  0  0  0  0
   10.5267  -16.7692   24.6842 N   0  0  0  0  0  0  0  0  0  0  0  0
    9.3155  -16.3575   26.6962 C   0  0  0  0  0  0  0  0  0  0  0  0
    9.3123  -15.6976   27.7758 O   0  0  0  0  0  0  0  0  0  0  0  0
    7.0452  -14.4458   26.2969 C   0  0  0  0  0  0  0  0  0  0  0  0
    6.3188  -13.4149   26.8692 C   0  0  0  0  0  0  0  0  0  0  0  0
    8.8601  -17.6741   26.8055 O   0  0  0  0  0  0  0  0  0  0  0  0
  2  1  1  0
  3  2  1  0
  4  5  1  0
  4  3  1  0
  5  6  1  1
  7  8  2  0
  7  5  1  0
  9  7  1  0
 10  9  1  0
 10 11  1  6
 12 13  2  0
 12 11  1  0
 14 24  1  0
 14 10  1  0
 15 14  2  0
 16 12  1  0
 18 19  2  0
 18 17  1  0
 20 19  1  0
 21 20  2  0
 22 21  1  0
 23 22  1  6
 23 24  1  0
 25 23  1  0
 26 25  2  0
 27 21  1  0
 27 28  2  0
 28 18  1  0
 29 25  1  0
M  END
$$$$
