MDY.pdb
     RDKit          3D

 29 29  0  0  1  0  0  0  0  0999 V2000
    7.4980  -11.4007   22.2941 C   0  0  0  0  0  0  0  0  0  0  0  0
    7.0141  -12.1276   20.7530 S   0  0  0  0  0  0  0  0  0  0  0  0
    7.0390  -13.8774   20.5944 C   0  0  0  0  0  0  0  0  0  0  0  0
    7.8719  -14.6452   21.5395 C   0  0  0  0  0  0  0  0  0  0  0  0
    7.9035  -16.1008   21.3352 C   0  0  2  0  0  0  0  0  0  0  0  0
    6.6292  -16.7503   21.2140 N   0  0  0  0  0  0  0  0  0  0  0  0
    8.7563  -16.8032   22.3622 C   0  0  0  0  0  0  0  0  0  0  0  0
    8.1564  -17.5012   23.2096 O   0  0  0  0  0  0  0  0  0  0  0  0
   10.1465  -16.7028   22.3949 N   0  0  0  0  0  0  0  0  0  0  0  0
   10.9876  -17.3402   23.4370 C   0  0  1  0  0  0  0  0  0  0  0  0
   12.3934  -17.2086   22.9066 C   0  0  0  0  0  0  0  0  0  0  0  0
   12.6015  -17.8805   21.6429 C   0  0  0  0  0  0  0  0  0  0  0  0
   12.2773  -19.0598   21.4369 O   0  0  0  0  0  0  0  0  0  0  0  0
   10.7601  -16.6376   24.7218 C   0  0  0  0  0  0  0  0  0  0  0  0
   11.3481  -15.5690   24.9744 O   0  0  0  0  0  0  0  0  0  0  0  0
   13.1943  -17.1964   20.5807 O   0  0  0  0  0  0  0  0  0  0  0  0
    6.3778  -11.6796   24.7788 O   0  0  0  0  0  0  0  0  0  0  0  0
    6.8968  -12.7824   25.4451 C   0  0  0  0  0  0  0  0  0  0  0  0
    6.2661  -13.9821   25.3378 C   0  0  0  0  0  0  0  0  0  0  0  0
    6.7768  -15.1028   26.0031 C   0  0  0  0  0  0  0  0  0  0  0  0
    7.9146  -15.0184   26.7717 C   0  0  0  0  0  0  0  0  0  0  0  0
    8.4083  -16.2203   27.4466 C   0  0  0  0  0  0  0  0  0  0  0  0
    9.8145  -16.6204   27.0760 C   0  0  2  0  0  0  0  0  0  0  0  0
    9.8655  -17.1406   25.7284 N   0  0  0  0  0  0  0  0  0  0  0  0
   10.4522  -17.5516   28.0024 C   0  0  0  0  0  0  0  0  0  0  0  0
   10.8063  -18.7188   27.6658 O   0  0  0  0  0  0  0  0  0  0  0  0
    8.5565  -13.8050   26.8830 C   0  0  0  0  0  0  0  0  0  0  0  0
    8.0360  -12.7077   26.2174 C   0  0  0  0  0  0  0  0  0  0  0  0
   10.7158  -17.2133   29.3324 O   0  0  0  0  0  0  0  0  0  0  0  0
  2  1  1  0
  3  2  1  0
  4  5  1  0
  4  3  1  0
  5  6  1  1
  7  8  2  0
  7  5  1  0
  9  7  1  0
 10  9  1  0
 10 11  1  6
 12 13  2  0
 12 11  1  0
 14 24  1  0
 14 10  1  0
 15 14  2  0
 16 12  1  0
 18 19  2  0
 18 17  1  0
 20 19  1  0
 21 20  2  0
 22 21  1  0
 23 22  1  1
 23 24  1  0
 25 23  1  0
 26 25  2  0
 27 21  1  0
 27 28  2  0
 28 18  1  0
 29 25  1  0
M  END
$$$$
