MDY.pdb
     RDKit          3D

 29 29  0  0  1  0  0  0  0  0999 V2000
    7.2460  -11.2107   25.9938 C   0  0  0  0  0  0  0  0  0  0  0  0
    6.5795  -12.8133   25.6402 S   0  0  0  0  0  0  0  0  0  0  0  0
    6.6463  -13.4158   23.9909 C   0  0  0  0  0  0  0  0  0  0  0  0
    6.2514  -14.8168   23.7503 C   0  0  0  0  0  0  0  0  0  0  0  0
    7.3028  -15.8255   23.9467 C   0  0  2  0  0  0  0  0  0  0  0  0
    8.1661  -15.6276   25.0762 N   0  0  0  0  0  0  0  0  0  0  0  0
    8.1158  -16.0538   22.6968 C   0  0  0  0  0  0  0  0  0  0  0  0
    7.5265  -16.5896   21.7321 O   0  0  0  0  0  0  0  0  0  0  0  0
    9.4592  -15.6973   22.5866 N   0  0  0  0  0  0  0  0  0  0  0  0
   10.4771  -16.5439   21.9184 C   0  0  1  0  0  0  0  0  0  0  0  0
   10.9255  -15.7183   20.7385 C   0  0  0  0  0  0  0  0  0  0  0  0
   11.9484  -16.3564   19.9396 C   0  0  0  0  0  0  0  0  0  0  0  0
   12.0944  -17.5864   19.8759 O   0  0  0  0  0  0  0  0  0  0  0  0
   11.5555  -16.8410   22.8905 C   0  0  0  0  0  0  0  0  0  0  0  0
   12.6533  -16.2566   22.8200 O   0  0  0  0  0  0  0  0  0  0  0  0
   12.8324  -15.5785   19.1906 O   0  0  0  0  0  0  0  0  0  0  0  0
   10.6509  -14.8434   31.1179 O   0  0  0  0  0  0  0  0  0  0  0  0
   10.6661  -15.1458   29.7622 C   0  0  0  0  0  0  0  0  0  0  0  0
   11.3815  -16.2172   29.3274 C   0  0  0  0  0  0  0  0  0  0  0  0
   11.4065  -16.5350   27.9644 C   0  0  0  0  0  0  0  0  0  0  0  0
   10.7168  -15.7806   27.0438 C   0  0  0  0  0  0  0  0  0  0  0  0
   10.7749  -16.1557   25.6296 C   0  0  0  0  0  0  0  0  0  0  0  0
   11.4812  -17.4586   25.3501 C   0  0  2  0  0  0  0  0  0  0  0  0
   11.3976  -17.8014   23.9484 N   0  0  0  0  0  0  0  0  0  0  0  0
   11.0440  -18.5828   26.1730 C   0  0  0  0  0  0  0  0  0  0  0  0
   11.7817  -19.1174   27.0511 O   0  0  0  0  0  0  0  0  0  0  0  0
    9.9909  -14.6945   27.4800 C   0  0  0  0  0  0  0  0  0  0  0  0
    9.9783  -14.3961   28.8323 C   0  0  0  0  0  0  0  0  0  0  0  0
    9.7721  -19.1473   26.0446 O   0  0  0  0  0  0  0  0  0  0  0  0
  2  1  1  0
  3  2  1  0
  4  5  1  0
  4  3  1  0
  5  6  1  1
  7  8  2  0
  7  5  1  0
  9  7  1  0
 10  9  1  0
 10 11  1  6
 12 13  2  0
 12 11  1  0
 14 24  1  0
 14 10  1  0
 15 14  2  0
 16 12  1  0
 18 19  2  0
 18 17  1  0
 20 19  1  0
 21 20  2  0
 22 21  1  0
 23 22  1  6
 23 24  1  0
 25 23  1  0
 26 25  2  0
 27 21  1  0
 27 28  2  0
 28 18  1  0
 29 25  1  0
M  END
$$$$
