MDY.pdb
     RDKit          3D

 29 29  0  0  1  0  0  0  0  0999 V2000
    7.5776  -11.5637   19.4943 C   0  0  0  0  0  0  0  0  0  0  0  0
    8.6568  -12.7374   18.7227 S   0  0  0  0  0  0  0  0  0  0  0  0
    8.4369  -14.4466   19.0655 C   0  0  0  0  0  0  0  0  0  0  0  0
    9.3703  -15.4027   18.4400 C   0  0  0  0  0  0  0  0  0  0  0  0
    9.1252  -16.8238   18.7260 C   0  0  2  0  0  0  0  0  0  0  0  0
    7.8100  -17.3123   18.4224 N   0  0  0  0  0  0  0  0  0  0  0  0
    9.5130  -17.1979   20.1349 C   0  0  0  0  0  0  0  0  0  0  0  0
    8.5801  -17.4805   20.9192 O   0  0  0  0  0  0  0  0  0  0  0  0
   10.8351  -17.2380   20.5756 N   0  0  0  0  0  0  0  0  0  0  0  0
   11.2287  -17.6610   21.9415 C   0  0  1  0  0  0  0  0  0  0  0  0
   12.7300  -17.7869   21.8695 C   0  0  0  0  0  0  0  0  0  0  0  0
   13.3422  -18.1516   23.1280 C   0  0  0  0  0  0  0  0  0  0  0  0
   12.7950  -18.8863   23.9641 O   0  0  0  0  0  0  0  0  0  0  0  0
   10.7552  -16.6408   22.9063 C   0  0  0  0  0  0  0  0  0  0  0  0
   11.1012  -15.4496   22.7924 O   0  0  0  0  0  0  0  0  0  0  0  0
   14.6121  -17.6699   23.4493 O   0  0  0  0  0  0  0  0  0  0  0  0
    5.8853  -11.5362   27.9581 O   0  0  0  0  0  0  0  0  0  0  0  0
    6.4215  -12.4851   27.0970 C   0  0  0  0  0  0  0  0  0  0  0  0
    7.5196  -12.1697   26.3598 C   0  0  0  0  0  0  0  0  0  0  0  0
    8.0719  -13.1151   25.4878 C   0  0  0  0  0  0  0  0  0  0  0  0
    7.5239  -14.3702   25.3572 C   0  0  0  0  0  0  0  0  0  0  0  0
    8.1400  -15.3229   24.4317 C   0  0  0  0  0  0  0  0  0  0  0  0
    9.3975  -15.9788   24.9447 C   0  0  2  0  0  0  0  0  0  0  0  0
    9.8870  -16.9628   24.0058 N   0  0  0  0  0  0  0  0  0  0  0  0
    9.2850  -16.5635   26.2779 C   0  0  0  0  0  0  0  0  0  0  0  0
    8.8628  -17.7396   26.4772 O   0  0  0  0  0  0  0  0  0  0  0  0
    6.4116  -14.6938   26.1021 C   0  0  0  0  0  0  0  0  0  0  0  0
    5.8797  -13.7450   26.9594 C   0  0  0  0  0  0  0  0  0  0  0  0
    9.6387  -15.8580   27.4311 O   0  0  0  0  0  0  0  0  0  0  0  0
  2  1  1  0
  3  2  1  0
  4  5  1  0
  4  3  1  0
  5  6  1  1
  7  8  2  0
  7  5  1  0
  9  7  1  0
 10  9  1  0
 10 11  1  6
 12 13  2  0
 12 11  1  0
 14 24  1  0
 14 10  1  0
 15 14  2  0
 16 12  1  0
 18 19  2  0
 18 17  1  0
 20 19  1  0
 21 20  2  0
 22 21  1  0
 23 22  1  6
 23 24  1  0
 25 23  1  0
 26 25  2  0
 27 21  1  0
 27 28  2  0
 28 18  1  0
 29 25  1  0
M  END
$$$$
