MDY.pdb
     RDKit          3D

 29 29  0  0  1  0  0  0  0  0999 V2000
    7.9899  -11.4146   21.6277 C   0  0  0  0  0  0  0  0  0  0  0  0
    7.3248  -12.2589   20.2197 S   0  0  0  0  0  0  0  0  0  0  0  0
    7.2128  -14.0121   20.2555 C   0  0  0  0  0  0  0  0  0  0  0  0
    8.0340  -14.7371   21.2437 C   0  0  0  0  0  0  0  0  0  0  0  0
    8.0765  -16.1994   21.0979 C   0  0  2  0  0  0  0  0  0  0  0  0
    6.8088  -16.8582   20.9592 N   0  0  0  0  0  0  0  0  0  0  0  0
    8.8957  -16.8577   22.1800 C   0  0  0  0  0  0  0  0  0  0  0  0
    8.3001  -17.6713   22.9205 O   0  0  0  0  0  0  0  0  0  0  0  0
   10.2515  -16.5967   22.3738 N   0  0  0  0  0  0  0  0  0  0  0  0
   11.0649  -17.2430   23.4322 C   0  0  1  0  0  0  0  0  0  0  0  0
   12.4890  -17.0320   22.9823 C   0  0  0  0  0  0  0  0  0  0  0  0
   12.7690  -17.5741   21.6710 C   0  0  0  0  0  0  0  0  0  0  0  0
   13.2325  -16.8988   20.7395 O   0  0  0  0  0  0  0  0  0  0  0  0
   10.7425  -16.6054   24.7305 C   0  0  0  0  0  0  0  0  0  0  0  0
   11.2743  -15.5278   25.0586 O   0  0  0  0  0  0  0  0  0  0  0  0
   12.5168  -18.9210   21.4065 O   0  0  0  0  0  0  0  0  0  0  0  0
    6.6244  -11.5393   24.8583 O   0  0  0  0  0  0  0  0  0  0  0  0
    7.0170  -12.7327   25.4510 C   0  0  0  0  0  0  0  0  0  0  0  0
    7.7907  -12.6977   26.5684 C   0  0  0  0  0  0  0  0  0  0  0  0
    8.1943  -13.8916   27.1775 C   0  0  0  0  0  0  0  0  0  0  0  0
    7.8225  -15.1136   26.6665 C   0  0  0  0  0  0  0  0  0  0  0  0
    8.2705  -16.3332   27.3416 C   0  0  0  0  0  0  0  0  0  0  0  0
    9.6901  -16.7400   27.0350 C   0  0  2  0  0  0  0  0  0  0  0  0
    9.8160  -17.1837   25.6651 N   0  0  0  0  0  0  0  0  0  0  0  0
   10.2533  -17.7351   27.9431 C   0  0  0  0  0  0  0  0  0  0  0  0
   10.3310  -17.5561   29.1933 O   0  0  0  0  0  0  0  0  0  0  0  0
    7.0388  -15.1535   25.5348 C   0  0  0  0  0  0  0  0  0  0  0  0
    6.6496  -13.9617   24.9466 C   0  0  0  0  0  0  0  0  0  0  0  0
   10.7476  -18.9606   27.4885 O   0  0  0  0  0  0  0  0  0  0  0  0
  2  1  1  0
  3  2  1  0
  4  5  1  0
  4  3  1  0
  5  6  1  1
  7  8  2  0
  7  5  1  0
  9  7  1  0
 10  9  1  0
 10 11  1  6
 12 13  2  0
 12 11  1  0
 14 24  1  0
 14 10  1  0
 15 14  2  0
 16 12  1  0
 18 19  2  0
 18 17  1  0
 20 19  1  0
 21 20  2  0
 22 21  1  0
 23 22  1  1
 23 24  1  0
 25 23  1  0
 26 25  2  0
 27 21  1  0
 27 28  2  0
 28 18  1  0
 29 25  1  0
M  END
$$$$
