MDY.pdb
     RDKit          3D

 29 29  0  0  1  0  0  0  0  0999 V2000
    6.8337  -14.4563   15.9411 C   0  0  0  0  0  0  0  0  0  0  0  0
    7.1245  -13.5023   17.4050 S   0  0  0  0  0  0  0  0  0  0  0  0
    8.5173  -13.8853   18.4055 C   0  0  0  0  0  0  0  0  0  0  0  0
    8.7065  -13.1162   19.6502 C   0  0  0  0  0  0  0  0  0  0  0  0
    9.8533  -13.5087   20.4823 C   0  0  2  0  0  0  0  0  0  0  0  0
   11.1113  -13.6404   19.8037 N   0  0  0  0  0  0  0  0  0  0  0  0
    9.5674  -14.7407   21.3043 C   0  0  0  0  0  0  0  0  0  0  0  0
    8.4662  -14.7789   21.8968 O   0  0  0  0  0  0  0  0  0  0  0  0
   10.4624  -15.8035   21.4200 N   0  0  0  0  0  0  0  0  0  0  0  0
   10.2660  -16.9392   22.3532 C   0  0  1  0  0  0  0  0  0  0  0  0
   11.0638  -18.0623   21.7391 C   0  0  0  0  0  0  0  0  0  0  0  0
   11.0704  -19.2707   22.5338 C   0  0  0  0  0  0  0  0  0  0  0  0
   11.9985  -20.0932   22.5152 O   0  0  0  0  0  0  0  0  0  0  0  0
   10.7360  -16.5316   23.6982 C   0  0  0  0  0  0  0  0  0  0  0  0
   11.8275  -15.9484   23.8401 O   0  0  0  0  0  0  0  0  0  0  0  0
    9.9938  -19.5562   23.3747 O   0  0  0  0  0  0  0  0  0  0  0  0
    5.2774  -12.4217   26.6327 O   0  0  0  0  0  0  0  0  0  0  0  0
    6.5224  -13.0288   26.5281 C   0  0  0  0  0  0  0  0  0  0  0  0
    7.5165  -12.6592   27.3788 C   0  0  0  0  0  0  0  0  0  0  0  0
    8.7766  -13.2617   27.2862 C   0  0  0  0  0  0  0  0  0  0  0  0
    9.0361  -14.2301   26.3441 C   0  0  0  0  0  0  0  0  0  0  0  0
   10.3707  -14.8299   26.2893 C   0  0  0  0  0  0  0  0  0  0  0  0
   10.3834  -16.3356   26.2030 C   0  0  2  0  0  0  0  0  0  0  0  0
    9.9731  -16.7814   24.8907 N   0  0  0  0  0  0  0  0  0  0  0  0
    9.6061  -17.0163   27.2347 C   0  0  0  0  0  0  0  0  0  0  0  0
    8.6353  -17.7826   26.9677 O   0  0  0  0  0  0  0  0  0  0  0  0
    8.0319  -14.6075   25.4805 C   0  0  0  0  0  0  0  0  0  0  0  0
    6.7920  -13.9998   25.5877 C   0  0  0  0  0  0  0  0  0  0  0  0
    9.8846  -16.8655   28.5958 O   0  0  0  0  0  0  0  0  0  0  0  0
  2  1  1  0
  3  2  1  0
  4  5  1  0
  4  3  1  0
  5  6  1  6
  7  8  2  0
  7  5  1  0
  9  7  1  0
 10  9  1  0
 10 11  1  6
 12 13  2  0
 12 11  1  0
 14 24  1  0
 14 10  1  0
 15 14  2  0
 16 12  1  0
 18 19  2  0
 18 17  1  0
 20 19  1  0
 21 20  2  0
 22 21  1  0
 23 22  1  6
 23 24  1  0
 25 23  1  0
 26 25  2  0
 27 21  1  0
 27 28  2  0
 28 18  1  0
 29 25  1  0
M  END
$$$$
