WAV.pdb
     RDKit          3D

 27 28  0  0  1  0  0  0  0  0999 V2000
    6.5967  -16.8767   23.3378 N   0  0  0  0  0  0  0  0  0  0  0  0
    7.7253  -16.1599   23.8226 C   0  0  1  0  0  0  0  0  0  0  0  0
    7.5803  -15.7013   25.2726 C   0  0  0  0  0  0  0  0  0  0  0  0
    6.5107  -14.7027   25.4248 C   0  0  0  0  0  0  0  0  0  0  0  0
    5.2927  -14.8824   26.0095 C   0  0  0  0  0  0  0  0  0  0  0  0
    4.5875  -13.7566   25.9716 N   0  0  0  0  0  0  0  0  0  0  0  0
    5.3663  -12.8324   25.3510 C   0  0  0  0  0  0  0  0  0  0  0  0
    5.1246  -11.5100   25.0525 C   0  0  0  0  0  0  0  0  0  0  0  0
    6.0431  -10.7281   24.4146 C   0  0  0  0  0  0  0  0  0  0  0  0
    7.2487  -11.3115   24.0692 C   0  0  0  0  0  0  0  0  0  0  0  0
    7.5183  -12.6209   24.3507 C   0  0  0  0  0  0  0  0  0  0  0  0
    6.5760  -13.3978   24.9976 C   0  0  0  0  0  0  0  0  0  0  0  0
    9.0241  -16.8152   23.6766 C   0  0  0  0  0  0  0  0  0  0  0  0
    9.2476  -17.6493   22.7555 O   0  0  0  0  0  0  0  0  0  0  0  0
   11.8458  -16.2399   22.9580 C   0  0  0  0  0  0  0  0  0  0  0  0
   11.4976  -16.9504   24.2345 C   0  0  2  0  0  0  0  0  0  0  0  0
   10.1258  -16.5602   24.5534 N   0  0  0  0  0  0  0  0  0  0  0  0
   12.4361  -16.6814   25.3319 C   0  0  0  0  0  0  0  0  0  0  0  0
   13.6289  -17.0923   25.3024 O   0  0  0  0  0  0  0  0  0  0  0  0
    9.7802  -16.1236   28.6525 C   0  0  0  0  0  0  0  0  0  0  0  0
   11.2331  -15.6303   28.7621 C   0  0  2  0  0  0  0  0  0  0  0  0
   11.2065  -14.1577   28.4313 C   0  0  0  0  0  0  0  0  0  0  0  0
   12.1102  -16.3947   27.8291 C   0  0  2  0  0  0  0  0  0  0  0  0
   12.0042  -15.9476   26.4510 N   0  0  0  0  0  0  0  0  0  0  0  0
   11.8189  -17.8679   27.9067 C   0  0  0  0  0  0  0  0  0  0  0  0
   11.1233  -18.3627   26.9951 O   0  0  0  0  0  0  0  0  0  0  0  0
   12.2754  -18.6891   28.9206 O   0  0  0  0  0  0  0  0  0  0  0  0
  2 13  1  0
  2  1  1  1
  3  2  1  0
  4  3  1  0
  5  4  2  0
  6  5  1  0
  7  6  1  0
  7 12  2  0
  8  9  2  0
  8  7  1  0
  9 10  1  0
 10 11  2  0
 12 11  1  0
 12  4  1  0
 13 14  2  0
 16 15  1  6
 17 13  1  0
 17 16  1  0
 18 19  2  0
 18 16  1  0
 21 20  1  6
 21 23  1  0
 22 21  1  0
 23 24  1  6
 24 18  1  0
 25 23  1  0
 26 25  2  0
 27 25  1  0
M  END
$$$$
