WAV.pdb
     RDKit          3D

 27 28  0  0  1  0  0  0  0  0999 V2000
    8.1642  -18.0538   25.4520 N   0  0  0  0  0  0  0  0  0  0  0  0
    7.7080  -17.2784   24.3505 C   0  0  1  0  0  0  0  0  0  0  0  0
    8.2003  -15.8325   24.3763 C   0  0  0  0  0  0  0  0  0  0  0  0
    7.3516  -14.9821   25.2254 C   0  0  0  0  0  0  0  0  0  0  0  0
    6.1452  -15.3053   25.7711 C   0  0  0  0  0  0  0  0  0  0  0  0
    5.6711  -14.2906   26.4866 N   0  0  0  0  0  0  0  0  0  0  0  0
    6.5902  -13.2938   26.4013 C   0  0  0  0  0  0  0  0  0  0  0  0
    6.5986  -12.0314   26.9517 C   0  0  0  0  0  0  0  0  0  0  0  0
    7.6263  -11.1566   26.7509 C   0  0  0  0  0  0  0  0  0  0  0  0
    8.6815  -11.5808   25.9637 C   0  0  0  0  0  0  0  0  0  0  0  0
    8.7023  -12.8264   25.4030 C   0  0  0  0  0  0  0  0  0  0  0  0
    7.6526  -13.6994   25.6174 C   0  0  0  0  0  0  0  0  0  0  0  0
    7.9635  -17.8261   23.0191 C   0  0  0  0  0  0  0  0  0  0  0  0
    9.1094  -18.2298   22.6755 O   0  0  0  0  0  0  0  0  0  0  0  0
    5.9178  -18.9700   20.1486 C   0  0  0  0  0  0  0  0  0  0  0  0
    7.2184  -18.4263   20.6671 C   0  0  2  0  0  0  0  0  0  0  0  0
    6.9457  -17.9474   22.0206 N   0  0  0  0  0  0  0  0  0  0  0  0
    7.8088  -17.3936   19.8055 C   0  0  0  0  0  0  0  0  0  0  0  0
    8.1948  -17.6482   18.6314 O   0  0  0  0  0  0  0  0  0  0  0  0
    7.9891  -12.6834   18.5995 C   0  0  0  0  0  0  0  0  0  0  0  0
    7.5349  -13.7637   19.5961 C   0  0  2  0  0  0  0  0  0  0  0  0
    7.5762  -13.1237   20.9625 C   0  0  0  0  0  0  0  0  0  0  0  0
    8.4296  -14.9538   19.5114 C   0  0  2  0  0  0  0  0  0  0  0  0
    7.9535  -16.0823   20.2924 N   0  0  0  0  0  0  0  0  0  0  0  0
    9.8296  -14.6019   19.9326 C   0  0  0  0  0  0  0  0  0  0  0  0
   10.2041  -14.9926   21.0582 O   0  0  0  0  0  0  0  0  0  0  0  0
   10.7092  -13.8791   19.1487 O   0  0  0  0  0  0  0  0  0  0  0  0
  2 13  1  0
  2  1  1  1
  3  2  1  0
  4  3  1  0
  5  4  2  0
  6  5  1  0
  7  6  1  0
  7 12  2  0
  8  9  2  0
  8  7  1  0
  9 10  1  0
 10 11  2  0
 12 11  1  0
 12  4  1  0
 13 14  2  0
 16 15  1  6
 17 13  1  0
 17 16  1  0
 18 19  2  0
 18 16  1  0
 21 20  1  6
 21 23  1  0
 22 21  1  0
 23 24  1  1
 24 18  1  0
 25 23  1  0
 26 25  2  0
 27 25  1  0
M  END
$$$$
