WAV.pdb
     RDKit          3D

 27 28  0  0  1  0  0  0  0  0999 V2000
    6.4140  -18.0763   23.4745 N   0  0  0  0  0  0  0  0  0  0  0  0
    7.3293  -17.1216   23.9973 C   0  0  1  0  0  0  0  0  0  0  0  0
    7.0873  -16.7856   25.4677 C   0  0  0  0  0  0  0  0  0  0  0  0
    6.3125  -15.5447   25.6237 C   0  0  0  0  0  0  0  0  0  0  0  0
    4.9589  -15.4264   25.7311 C   0  0  0  0  0  0  0  0  0  0  0  0
    4.6124  -14.1505   25.8657 N   0  0  0  0  0  0  0  0  0  0  0  0
    5.7652  -13.4318   25.8455 C   0  0  0  0  0  0  0  0  0  0  0  0
    5.9789  -12.0752   25.9478 C   0  0  0  0  0  0  0  0  0  0  0  0
    7.2290  -11.5300   25.9057 C   0  0  0  0  0  0  0  0  0  0  0  0
    8.2980  -12.3946   25.7548 C   0  0  0  0  0  0  0  0  0  0  0  0
    8.1189  -13.7449   25.6498 C   0  0  0  0  0  0  0  0  0  0  0  0
    6.8452  -14.2795   25.6947 C   0  0  0  0  0  0  0  0  0  0  0  0
    8.7501  -17.4189   23.8226 C   0  0  0  0  0  0  0  0  0  0  0  0
    9.2382  -18.5394   24.1394 O   0  0  0  0  0  0  0  0  0  0  0  0
   11.7133  -15.7147   22.3362 C   0  0  0  0  0  0  0  0  0  0  0  0
   11.1276  -16.6741   23.3323 C   0  0  2  0  0  0  0  0  0  0  0  0
    9.6806  -16.4753   23.2828 N   0  0  0  0  0  0  0  0  0  0  0  0
   11.6772  -16.5243   24.6861 C   0  0  0  0  0  0  0  0  0  0  0  0
   12.9053  -16.6864   24.9267 O   0  0  0  0  0  0  0  0  0  0  0  0
   10.5851  -13.4902   27.0666 C   0  0  0  0  0  0  0  0  0  0  0  0
   10.4124  -14.8490   27.7669 C   0  0  2  0  0  0  0  0  0  0  0  0
   10.8117  -14.6370   29.2071 C   0  0  0  0  0  0  0  0  0  0  0  0
   11.2555  -15.8839   27.1020 C   0  0  2  0  0  0  0  0  0  0  0  0
   10.8206  -16.1922   25.7506 N   0  0  0  0  0  0  0  0  0  0  0  0
   11.2986  -17.1453   27.9195 C   0  0  0  0  0  0  0  0  0  0  0  0
   10.6719  -18.1329   27.4818 O   0  0  0  0  0  0  0  0  0  0  0  0
   11.9866  -17.2647   29.1125 O   0  0  0  0  0  0  0  0  0  0  0  0
  2 13  1  0
  2  1  1  1
  3  2  1  0
  4  3  1  0
  5  4  2  0
  6  5  1  0
  7  6  1  0
  7 12  2  0
  8  9  2  0
  8  7  1  0
  9 10  1  0
 10 11  2  0
 12 11  1  0
 12  4  1  0
 13 14  2  0
 16 15  1  6
 17 13  1  0
 17 16  1  0
 18 19  2  0
 18 16  1  0
 21 20  1  6
 21 23  1  0
 22 21  1  0
 23 24  1  6
 24 18  1  0
 25 23  1  0
 26 25  2  0
 27 25  1  0
M  END
$$$$
