WAV.pdb
     RDKit          3D

 27 28  0  0  1  0  0  0  0  0999 V2000
    6.2918  -17.7210   23.7943 N   0  0  0  0  0  0  0  0  0  0  0  0
    7.3692  -16.8514   24.1192 C   0  0  1  0  0  0  0  0  0  0  0  0
    7.3277  -16.3391   25.5577 C   0  0  0  0  0  0  0  0  0  0  0  0
    6.4710  -15.1503   25.6892 C   0  0  0  0  0  0  0  0  0  0  0  0
    5.1793  -15.1093   26.1222 C   0  0  0  0  0  0  0  0  0  0  0  0
    4.7257  -13.8601   26.1159 N   0  0  0  0  0  0  0  0  0  0  0  0
    5.7451  -13.0801   25.6708 C   0  0  0  0  0  0  0  0  0  0  0  0
    5.8135  -11.7188   25.4740 C   0  0  0  0  0  0  0  0  0  0  0  0
    6.9421  -11.1058   25.0133 C   0  0  0  0  0  0  0  0  0  0  0  0
    8.0384  -11.9050   24.7440 C   0  0  0  0  0  0  0  0  0  0  0  0
    8.0018  -13.2582   24.9281 C   0  0  0  0  0  0  0  0  0  0  0  0
    6.8500  -13.8620   25.3958 C   0  0  0  0  0  0  0  0  0  0  0  0
    8.7153  -17.3549   23.8503 C   0  0  0  0  0  0  0  0  0  0  0  0
    9.0418  -18.5475   24.1055 O   0  0  0  0  0  0  0  0  0  0  0  0
   11.8927  -15.9766   22.4530 C   0  0  0  0  0  0  0  0  0  0  0  0
   11.1693  -16.8488   23.4388 C   0  0  2  0  0  0  0  0  0  0  0  0
    9.7486  -16.5445   23.2817 N   0  0  0  0  0  0  0  0  0  0  0  0
   11.6372  -16.6861   24.8215 C   0  0  0  0  0  0  0  0  0  0  0  0
   12.8611  -16.7529   25.1215 O   0  0  0  0  0  0  0  0  0  0  0  0
    9.7323  -13.9848   27.2238 C   0  0  0  0  0  0  0  0  0  0  0  0
    9.9630  -15.3418   27.9106 C   0  0  2  0  0  0  0  0  0  0  0  0
   10.3227  -15.0353   29.3442 C   0  0  0  0  0  0  0  0  0  0  0  0
   11.0447  -16.0962   27.2143 C   0  0  2  0  0  0  0  0  0  0  0  0
   10.7045  -16.4500   25.8471 N   0  0  0  0  0  0  0  0  0  0  0  0
   11.4115  -17.3364   27.9814 C   0  0  0  0  0  0  0  0  0  0  0  0
   10.9456  -18.4208   27.5731 O   0  0  0  0  0  0  0  0  0  0  0  0
   12.2259  -17.3366   29.0983 O   0  0  0  0  0  0  0  0  0  0  0  0
  2 13  1  0
  2  1  1  1
  3  2  1  0
  4  3  1  0
  5  4  2  0
  6  5  1  0
  7  6  1  0
  7 12  2  0
  8  9  2  0
  8  7  1  0
  9 10  1  0
 10 11  2  0
 12 11  1  0
 12  4  1  0
 13 14  2  0
 16 15  1  6
 17 13  1  0
 17 16  1  0
 18 19  2  0
 18 16  1  0
 21 20  1  6
 21 23  1  0
 22 21  1  0
 23 24  1  6
 24 18  1  0
 25 23  1  0
 26 25  2  0
 27 25  1  0
M  END
$$$$
