WAV.pdb
     RDKit          3D

 27 28  0  0  1  0  0  0  0  0999 V2000
    7.1709  -18.6260   25.7131 N   0  0  0  0  0  0  0  0  0  0  0  0
    7.0201  -17.5567   24.7877 C   0  0  1  0  0  0  0  0  0  0  0  0
    7.9610  -16.3828   25.0528 C   0  0  0  0  0  0  0  0  0  0  0  0
    7.2295  -15.1867   25.4985 C   0  0  0  0  0  0  0  0  0  0  0  0
    5.9052  -15.0986   25.8087 C   0  0  0  0  0  0  0  0  0  0  0  0
    5.5953  -13.8607   26.1794 N   0  0  0  0  0  0  0  0  0  0  0  0
    6.7423  -13.1362   26.1075 C   0  0  0  0  0  0  0  0  0  0  0  0
    6.9835  -11.8082   26.3811 C   0  0  0  0  0  0  0  0  0  0  0  0
    8.2220  -11.2510   26.2483 C   0  0  0  0  0  0  0  0  0  0  0  0
    9.2499  -12.0731   25.8232 C   0  0  0  0  0  0  0  0  0  0  0  0
    9.0425  -13.3940   25.5432 C   0  0  0  0  0  0  0  0  0  0  0  0
    7.7813  -13.9414   25.6835 C   0  0  0  0  0  0  0  0  0  0  0  0
    7.1096  -17.9051   23.3706 C   0  0  0  0  0  0  0  0  0  0  0  0
    8.0856  -18.5586   22.9075 O   0  0  0  0  0  0  0  0  0  0  0  0
    4.8528  -17.7340   20.4179 C   0  0  0  0  0  0  0  0  0  0  0  0
    6.2407  -17.8127   20.9865 C   0  0  2  0  0  0  0  0  0  0  0  0
    6.1083  -17.5394   22.4160 N   0  0  0  0  0  0  0  0  0  0  0  0
    7.1994  -16.9199   20.3223 C   0  0  0  0  0  0  0  0  0  0  0  0
    7.5078  -17.0615   19.1069 O   0  0  0  0  0  0  0  0  0  0  0  0
    7.5094  -12.9445   21.5717 C   0  0  0  0  0  0  0  0  0  0  0  0
    7.9683  -13.5634   20.2403 C   0  0  2  0  0  0  0  0  0  0  0  0
    6.7237  -13.7427   19.4053 C   0  0  0  0  0  0  0  0  0  0  0  0
    8.6655  -14.8587   20.4857 C   0  0  2  0  0  0  0  0  0  0  0  0
    7.7966  -15.8762   21.0513 N   0  0  0  0  0  0  0  0  0  0  0  0
    9.8612  -14.6626   21.3762 C   0  0  0  0  0  0  0  0  0  0  0  0
    9.8244  -15.1890   22.5082 O   0  0  0  0  0  0  0  0  0  0  0  0
   10.9817  -13.9405   21.0104 O   0  0  0  0  0  0  0  0  0  0  0  0
  2 13  1  0
  2  1  1  1
  3  2  1  0
  4  3  1  0
  5  4  2  0
  6  5  1  0
  7  6  1  0
  7 12  2  0
  8  9  2  0
  8  7  1  0
  9 10  1  0
 10 11  2  0
 12 11  1  0
 12  4  1  0
 13 14  2  0
 16 15  1  6
 17 13  1  0
 17 16  1  0
 18 19  2  0
 18 16  1  0
 21 20  1  1
 21 23  1  0
 22 21  1  0
 23 24  1  1
 24 18  1  0
 25 23  1  0
 26 25  2  0
 27 25  1  0
M  END
$$$$
