WAV.pdb
     RDKit          3D

 27 28  0  0  1  0  0  0  0  0999 V2000
    6.5266  -18.2513   23.7941 N   0  0  0  0  0  0  0  0  0  0  0  0
    7.4159  -17.1928   24.1276 C   0  0  1  0  0  0  0  0  0  0  0  0
    7.2773  -16.7109   25.5706 C   0  0  0  0  0  0  0  0  0  0  0  0
    6.4105  -15.5263   25.6696 C   0  0  0  0  0  0  0  0  0  0  0  0
    5.0582  -15.5064   25.8387 C   0  0  0  0  0  0  0  0  0  0  0  0
    4.6140  -14.2550   25.8911 N   0  0  0  0  0  0  0  0  0  0  0  0
    5.7012  -13.4520   25.7539 C   0  0  0  0  0  0  0  0  0  0  0  0
    5.8064  -12.0790   25.7382 C   0  0  0  0  0  0  0  0  0  0  0  0
    7.0039  -11.4424   25.5876 C   0  0  0  0  0  0  0  0  0  0  0  0
    8.1327  -12.2297   25.4486 C   0  0  0  0  0  0  0  0  0  0  0  0
    8.0611  -13.5939   25.4593 C   0  0  0  0  0  0  0  0  0  0  0  0
    6.8395  -14.2216   25.6131 C   0  0  0  0  0  0  0  0  0  0  0  0
    8.8337  -17.4240   23.8555 C   0  0  0  0  0  0  0  0  0  0  0  0
    9.4018  -18.5076   24.1670 O   0  0  0  0  0  0  0  0  0  0  0  0
   11.6110  -15.4744   22.2791 C   0  0  0  0  0  0  0  0  0  0  0  0
   11.1289  -16.5554   23.2037 C   0  0  2  0  0  0  0  0  0  0  0  0
    9.6712  -16.4530   23.2205 N   0  0  0  0  0  0  0  0  0  0  0  0
   11.7202  -16.4871   24.5465 C   0  0  0  0  0  0  0  0  0  0  0  0
   12.9376  -16.7491   24.7510 O   0  0  0  0  0  0  0  0  0  0  0  0
   11.3704  -13.4522   27.0386 C   0  0  0  0  0  0  0  0  0  0  0  0
   10.8145  -14.7400   27.6702 C   0  0  2  0  0  0  0  0  0  0  0  0
   11.1746  -14.6830   29.1349 C   0  0  0  0  0  0  0  0  0  0  0  0
   11.3976  -15.9378   26.9998 C   0  0  2  0  0  0  0  0  0  0  0  0
   10.9170  -16.1220   25.6414 N   0  0  0  0  0  0  0  0  0  0  0  0
   11.1342  -17.1818   27.8025 C   0  0  0  0  0  0  0  0  0  0  0  0
   11.6103  -17.2301   28.9561 O   0  0  0  0  0  0  0  0  0  0  0  0
   10.4028  -18.2575   27.3351 O   0  0  0  0  0  0  0  0  0  0  0  0
  2 13  1  0
  2  1  1  1
  3  2  1  0
  4  3  1  0
  5  4  2  0
  6  5  1  0
  7  6  1  0
  7 12  2  0
  8  9  2  0
  8  7  1  0
  9 10  1  0
 10 11  2  0
 12 11  1  0
 12  4  1  0
 13 14  2  0
 16 15  1  6
 17 13  1  0
 17 16  1  0
 18 19  2  0
 18 16  1  0
 21 20  1  6
 21 23  1  0
 22 21  1  0
 23 24  1  6
 24 18  1  0
 25 23  1  0
 26 25  2  0
 27 25  1  0
M  END
$$$$
