WAV.pdb
     RDKit          3D

 27 28  0  0  1  0  0  0  0  0999 V2000
    6.4090  -17.8743   23.7008 N   0  0  0  0  0  0  0  0  0  0  0  0
    7.4434  -16.9518   24.0192 C   0  0  1  0  0  0  0  0  0  0  0  0
    7.4170  -16.4830   25.4729 C   0  0  0  0  0  0  0  0  0  0  0  0
    6.5318  -15.3224   25.6561 C   0  0  0  0  0  0  0  0  0  0  0  0
    5.2027  -15.3392   25.9582 C   0  0  0  0  0  0  0  0  0  0  0  0
    4.7313  -14.1003   26.0532 N   0  0  0  0  0  0  0  0  0  0  0  0
    5.7768  -13.2681   25.8083 C   0  0  0  0  0  0  0  0  0  0  0  0
    5.8418  -11.8928   25.7811 C   0  0  0  0  0  0  0  0  0  0  0  0
    7.0004  -11.2240   25.5122 C   0  0  0  0  0  0  0  0  0  0  0  0
    8.1313  -11.9804   25.2629 C   0  0  0  0  0  0  0  0  0  0  0  0
    8.0991  -13.3460   25.2818 C   0  0  0  0  0  0  0  0  0  0  0  0
    6.9166  -14.0065   25.5563 C   0  0  0  0  0  0  0  0  0  0  0  0
    8.8076  -17.3669   23.6959 C   0  0  0  0  0  0  0  0  0  0  0  0
    9.1807  -18.5679   23.8076 O   0  0  0  0  0  0  0  0  0  0  0  0
   11.9079  -15.8091   22.3490 C   0  0  0  0  0  0  0  0  0  0  0  0
   11.2387  -16.7355   23.3236 C   0  0  2  0  0  0  0  0  0  0  0  0
    9.8075  -16.4549   23.2310 N   0  0  0  0  0  0  0  0  0  0  0  0
   11.7545  -16.6195   24.6939 C   0  0  0  0  0  0  0  0  0  0  0  0
   12.9393  -16.9396   24.9877 O   0  0  0  0  0  0  0  0  0  0  0  0
   11.5228  -13.4230   26.8782 C   0  0  0  0  0  0  0  0  0  0  0  0
   10.8408  -14.5875   27.6166 C   0  0  2  0  0  0  0  0  0  0  0  0
   11.1744  -14.4153   29.0786 C   0  0  0  0  0  0  0  0  0  0  0  0
   11.3278  -15.8928   27.0844 C   0  0  2  0  0  0  0  0  0  0  0  0
   10.9137  -16.1406   25.7142 N   0  0  0  0  0  0  0  0  0  0  0  0
   10.8799  -17.0291   27.9616 C   0  0  0  0  0  0  0  0  0  0  0  0
    9.9458  -17.7433   27.5407 O   0  0  0  0  0  0  0  0  0  0  0  0
   11.4415  -17.3184   29.1910 O   0  0  0  0  0  0  0  0  0  0  0  0
  2 13  1  0
  2  1  1  1
  3  2  1  0
  4  3  1  0
  5  4  2  0
  6  5  1  0
  7  6  1  0
  7 12  2  0
  8  9  2  0
  8  7  1  0
  9 10  1  0
 10 11  2  0
 12 11  1  0
 12  4  1  0
 13 14  2  0
 16 15  1  6
 17 13  1  0
 17 16  1  0
 18 19  2  0
 18 16  1  0
 21 20  1  6
 21 23  1  0
 22 21  1  0
 23 24  1  6
 24 18  1  0
 25 23  1  0
 26 25  2  0
 27 25  1  0
M  END
$$$$
