WAV.pdb
     RDKit          3D

 27 28  0  0  1  0  0  0  0  0999 V2000
    8.2360  -17.6330   26.2903 N   0  0  0  0  0  0  0  0  0  0  0  0
    7.6183  -16.8753   25.2575 C   0  0  1  0  0  0  0  0  0  0  0  0
    8.3523  -15.5758   24.9314 C   0  0  0  0  0  0  0  0  0  0  0  0
    8.3799  -14.6608   26.0831 C   0  0  0  0  0  0  0  0  0  0  0  0
    9.2317  -14.6997   27.1464 C   0  0  0  0  0  0  0  0  0  0  0  0
    8.9657  -13.7100   27.9924 N   0  0  0  0  0  0  0  0  0  0  0  0
    7.9223  -13.0186   27.4641 C   0  0  0  0  0  0  0  0  0  0  0  0
    7.2541  -11.9081   27.9294 C   0  0  0  0  0  0  0  0  0  0  0  0
    6.2135  -11.3463   27.2486 C   0  0  0  0  0  0  0  0  0  0  0  0
    5.8406  -11.9343   26.0534 C   0  0  0  0  0  0  0  0  0  0  0  0
    6.4830  -13.0368   25.5656 C   0  0  0  0  0  0  0  0  0  0  0  0
    7.5352  -13.5923   26.2688 C   0  0  0  0  0  0  0  0  0  0  0  0
    7.3532  -17.5792   24.0037 C   0  0  0  0  0  0  0  0  0  0  0  0
    8.1821  -18.3945   23.5114 O   0  0  0  0  0  0  0  0  0  0  0  0
    4.4560  -18.0961   21.7492 C   0  0  0  0  0  0  0  0  0  0  0  0
    5.9431  -17.9954   21.9334 C   0  0  2  0  0  0  0  0  0  0  0  0
    6.1481  -17.4015   23.2530 N   0  0  0  0  0  0  0  0  0  0  0  0
    6.6190  -17.2511   20.8626 C   0  0  0  0  0  0  0  0  0  0  0  0
    6.4945  -17.5725   19.6487 O   0  0  0  0  0  0  0  0  0  0  0  0
    6.4561  -13.4122   20.9413 C   0  0  0  0  0  0  0  0  0  0  0  0
    7.9178  -13.8000   20.6592 C   0  0  2  0  0  0  0  0  0  0  0  0
    8.4079  -12.8544   19.5896 C   0  0  0  0  0  0  0  0  0  0  0  0
    7.9998  -15.2239   20.2237 C   0  0  2  0  0  0  0  0  0  0  0  0
    7.4299  -16.1492   21.1876 N   0  0  0  0  0  0  0  0  0  0  0  0
    9.4224  -15.6125   19.9296 C   0  0  0  0  0  0  0  0  0  0  0  0
   10.0687  -16.1577   20.8488 O   0  0  0  0  0  0  0  0  0  0  0  0
   10.0410  -15.4001   18.7119 O   0  0  0  0  0  0  0  0  0  0  0  0
  2 13  1  0
  2  1  1  1
  3  2  1  0
  4  3  1  0
  5  4  2  0
  6  5  1  0
  7  6  1  0
  7 12  2  0
  8  9  2  0
  8  7  1  0
  9 10  1  0
 10 11  2  0
 12 11  1  0
 12  4  1  0
 13 14  2  0
 16 15  1  6
 17 13  1  0
 17 16  1  0
 18 19  2  0
 18 16  1  0
 21 20  1  6
 21 23  1  0
 22 21  1  0
 23 24  1  1
 24 18  1  0
 25 23  1  0
 26 25  2  0
 27 25  1  0
M  END
$$$$
