WAV.pdb
     RDKit          3D

 27 28  0  0  1  0  0  0  0  0999 V2000
    6.3886  -17.5350   24.4836 N   0  0  0  0  0  0  0  0  0  0  0  0
    7.5241  -16.6790   24.5030 C   0  0  1  0  0  0  0  0  0  0  0  0
    7.6374  -15.8442   25.7773 C   0  0  0  0  0  0  0  0  0  0  0  0
    6.5833  -14.8209   25.8551 C   0  0  0  0  0  0  0  0  0  0  0  0
    5.2786  -15.0066   26.2031 C   0  0  0  0  0  0  0  0  0  0  0  0
    4.6193  -13.8533   26.1698 N   0  0  0  0  0  0  0  0  0  0  0  0
    5.5164  -12.9049   25.7936 C   0  0  0  0  0  0  0  0  0  0  0  0
    5.3632  -11.5495   25.6044 C   0  0  0  0  0  0  0  0  0  0  0  0
    6.3973  -10.7468   25.2193 C   0  0  0  0  0  0  0  0  0  0  0  0
    7.6291  -11.3436   25.0205 C   0  0  0  0  0  0  0  0  0  0  0  0
    7.8130  -12.6854   25.1991 C   0  0  0  0  0  0  0  0  0  0  0  0
    6.7541  -13.4830   25.5896 C   0  0  0  0  0  0  0  0  0  0  0  0
    8.8189  -17.3098   24.2513 C   0  0  0  0  0  0  0  0  0  0  0  0
    9.1352  -18.4115   24.7808 O   0  0  0  0  0  0  0  0  0  0  0  0
   11.9077  -16.3403   22.3695 C   0  0  0  0  0  0  0  0  0  0  0  0
   11.2344  -17.0357   23.5179 C   0  0  2  0  0  0  0  0  0  0  0  0
    9.8097  -16.7346   23.3940 N   0  0  0  0  0  0  0  0  0  0  0  0
   11.7822  -16.6683   24.8303 C   0  0  0  0  0  0  0  0  0  0  0  0
   12.9034  -16.1013   24.9476 O   0  0  0  0  0  0  0  0  0  0  0  0
   11.0451  -14.0153   26.9124 C   0  0  0  0  0  0  0  0  0  0  0  0
   10.5583  -15.2472   27.6947 C   0  0  2  0  0  0  0  0  0  0  0  0
   10.7058  -14.9054   29.1575 C   0  0  0  0  0  0  0  0  0  0  0  0
   11.3601  -16.4474   27.3198 C   0  0  2  0  0  0  0  0  0  0  0  0
   11.0461  -16.9522   25.9943 N   0  0  0  0  0  0  0  0  0  0  0  0
   11.1868  -17.5448   28.3331 C   0  0  0  0  0  0  0  0  0  0  0  0
   10.3812  -18.4580   28.0558 O   0  0  0  0  0  0  0  0  0  0  0  0
   11.8638  -17.5929   29.5372 O   0  0  0  0  0  0  0  0  0  0  0  0
  2 13  1  0
  2  1  1  1
  3  2  1  0
  4  3  1  0
  5  4  2  0
  6  5  1  0
  7  6  1  0
  7 12  2  0
  8  9  2  0
  8  7  1  0
  9 10  1  0
 10 11  2  0
 12 11  1  0
 12  4  1  0
 13 14  2  0
 16 15  1  6
 17 13  1  0
 17 16  1  0
 18 19  2  0
 18 16  1  0
 21 20  1  6
 21 23  1  0
 22 21  1  0
 23 24  1  6
 24 18  1  0
 25 23  1  0
 26 25  2  0
 27 25  1  0
M  END
$$$$
