WAV.pdb
     RDKit          3D

 27 28  0  0  1  0  0  0  0  0999 V2000
    6.3523  -17.9480   24.0500 N   0  0  0  0  0  0  0  0  0  0  0  0
    7.3907  -16.9836   24.1698 C   0  0  1  0  0  0  0  0  0  0  0  0
    7.4601  -16.3295   25.5486 C   0  0  0  0  0  0  0  0  0  0  0  0
    6.5849  -15.1504   25.6380 C   0  0  0  0  0  0  0  0  0  0  0  0
    5.2455  -15.1354   25.8900 C   0  0  0  0  0  0  0  0  0  0  0  0
    4.7882  -13.8877   25.9030 N   0  0  0  0  0  0  0  0  0  0  0  0
    5.8536  -13.0820   25.6551 C   0  0  0  0  0  0  0  0  0  0  0  0
    5.9387  -11.7109   25.5592 C   0  0  0  0  0  0  0  0  0  0  0  0
    7.1157  -11.0710   25.3000 C   0  0  0  0  0  0  0  0  0  0  0  0
    8.2444  -11.8529   25.1331 C   0  0  0  0  0  0  0  0  0  0  0  0
    8.1925  -13.2152   25.2214 C   0  0  0  0  0  0  0  0  0  0  0  0
    6.9915  -13.8462   25.4848 C   0  0  0  0  0  0  0  0  0  0  0  0
    8.7353  -17.4264   23.8042 C   0  0  0  0  0  0  0  0  0  0  0  0
    9.0996  -18.6274   23.9419 O   0  0  0  0  0  0  0  0  0  0  0  0
   11.8279  -15.8689   22.4135 C   0  0  0  0  0  0  0  0  0  0  0  0
   11.1591  -16.7923   23.3911 C   0  0  2  0  0  0  0  0  0  0  0  0
    9.7244  -16.5435   23.2661 N   0  0  0  0  0  0  0  0  0  0  0  0
   11.6454  -16.6421   24.7689 C   0  0  0  0  0  0  0  0  0  0  0  0
   12.8700  -16.7435   25.0564 O   0  0  0  0  0  0  0  0  0  0  0  0
   10.5491  -13.5526   26.8793 C   0  0  0  0  0  0  0  0  0  0  0  0
   10.2526  -14.8437   27.6614 C   0  0  2  0  0  0  0  0  0  0  0  0
   10.5458  -14.5381   29.1103 C   0  0  0  0  0  0  0  0  0  0  0  0
   11.0927  -15.9636   27.1476 C   0  0  2  0  0  0  0  0  0  0  0  0
   10.7303  -16.3787   25.8035 N   0  0  0  0  0  0  0  0  0  0  0  0
   11.0342  -17.1458   28.0752 C   0  0  0  0  0  0  0  0  0  0  0  0
   10.4078  -18.1519   27.6814 O   0  0  0  0  0  0  0  0  0  0  0  0
   11.6297  -17.1744   29.3222 O   0  0  0  0  0  0  0  0  0  0  0  0
  2 13  1  0
  2  1  1  1
  3  2  1  0
  4  3  1  0
  5  4  2  0
  6  5  1  0
  7  6  1  0
  7 12  2  0
  8  9  2  0
  8  7  1  0
  9 10  1  0
 10 11  2  0
 12 11  1  0
 12  4  1  0
 13 14  2  0
 16 15  1  6
 17 13  1  0
 17 16  1  0
 18 19  2  0
 18 16  1  0
 21 20  1  6
 21 23  1  0
 22 21  1  0
 23 24  1  6
 24 18  1  0
 25 23  1  0
 26 25  2  0
 27 25  1  0
M  END
$$$$
