WAV.pdb
     RDKit          3D

 27 28  0  0  1  0  0  0  0  0999 V2000
    6.3103  -17.7670   24.2393 N   0  0  0  0  0  0  0  0  0  0  0  0
    7.3705  -16.8211   24.3003 C   0  0  1  0  0  0  0  0  0  0  0  0
    7.4384  -16.0651   25.6260 C   0  0  0  0  0  0  0  0  0  0  0  0
    6.4828  -14.9473   25.6665 C   0  0  0  0  0  0  0  0  0  0  0  0
    5.1405  -15.0184   25.8924 C   0  0  0  0  0  0  0  0  0  0  0  0
    4.5986  -13.8053   25.8626 N   0  0  0  0  0  0  0  0  0  0  0  0
    5.6112  -12.9346   25.6133 C   0  0  0  0  0  0  0  0  0  0  0  0
    5.6042  -11.5638   25.4818 C   0  0  0  0  0  0  0  0  0  0  0  0
    6.7397  -10.8511   25.2278 C   0  0  0  0  0  0  0  0  0  0  0  0
    7.9226  -11.5572   25.1039 C   0  0  0  0  0  0  0  0  0  0  0  0
    7.9623  -12.9171   25.2282 C   0  0  0  0  0  0  0  0  0  0  0  0
    6.8022  -13.6225   25.4857 C   0  0  0  0  0  0  0  0  0  0  0  0
    8.7083  -17.3223   23.9891 C   0  0  0  0  0  0  0  0  0  0  0  0
    9.0748  -18.4852   24.3166 O   0  0  0  0  0  0  0  0  0  0  0  0
   11.7734  -15.9121   22.3689 C   0  0  0  0  0  0  0  0  0  0  0  0
   11.1187  -16.8339   23.3575 C   0  0  2  0  0  0  0  0  0  0  0  0
    9.6878  -16.5431   23.2955 N   0  0  0  0  0  0  0  0  0  0  0  0
   11.6644  -16.7217   24.7165 C   0  0  0  0  0  0  0  0  0  0  0  0
   12.8335  -17.1051   24.9973 O   0  0  0  0  0  0  0  0  0  0  0  0
   10.7266  -13.5135   27.0917 C   0  0  0  0  0  0  0  0  0  0  0  0
   10.5349  -14.8685   27.7943 C   0  0  2  0  0  0  0  0  0  0  0  0
   10.9886  -14.6740   29.2207 C   0  0  0  0  0  0  0  0  0  0  0  0
   11.3224  -15.9270   27.0990 C   0  0  2  0  0  0  0  0  0  0  0  0
   10.8711  -16.1745   25.7405 N   0  0  0  0  0  0  0  0  0  0  0  0
   11.3004  -17.2112   27.8811 C   0  0  0  0  0  0  0  0  0  0  0  0
   10.3420  -17.9867   27.6814 O   0  0  0  0  0  0  0  0  0  0  0  0
   12.2726  -17.5709   28.7954 O   0  0  0  0  0  0  0  0  0  0  0  0
  2 13  1  0
  2  1  1  1
  3  2  1  0
  4  3  1  0
  5  4  2  0
  6  5  1  0
  7  6  1  0
  7 12  2  0
  8  9  2  0
  8  7  1  0
  9 10  1  0
 10 11  2  0
 12 11  1  0
 12  4  1  0
 13 14  2  0
 16 15  1  6
 17 13  1  0
 17 16  1  0
 18 19  2  0
 18 16  1  0
 21 20  1  6
 21 23  1  0
 22 21  1  0
 23 24  1  6
 24 18  1  0
 25 23  1  0
 26 25  2  0
 27 25  1  0
M  END
$$$$
