WAV.pdb
     RDKit          3D

 27 28  0  0  1  0  0  0  0  0999 V2000
    6.2301  -17.9757   23.9738 N   0  0  0  0  0  0  0  0  0  0  0  0
    7.2322  -16.9851   24.1661 C   0  0  1  0  0  0  0  0  0  0  0  0
    7.2406  -16.3904   25.5732 C   0  0  0  0  0  0  0  0  0  0  0  0
    6.4373  -15.1603   25.6507 C   0  0  0  0  0  0  0  0  0  0  0  0
    5.1610  -15.0372   26.1129 C   0  0  0  0  0  0  0  0  0  0  0  0
    4.7590  -13.7727   26.0389 N   0  0  0  0  0  0  0  0  0  0  0  0
    5.7966  -13.0662   25.5194 C   0  0  0  0  0  0  0  0  0  0  0  0
    5.9152  -11.7240   25.2348 C   0  0  0  0  0  0  0  0  0  0  0  0
    7.0546  -11.1896   24.7075 C   0  0  0  0  0  0  0  0  0  0  0  0
    8.1093  -12.0501   24.4617 C   0  0  0  0  0  0  0  0  0  0  0  0
    8.0224  -13.3864   24.7323 C   0  0  0  0  0  0  0  0  0  0  0  0
    6.8604  -13.9101   25.2665 C   0  0  0  0  0  0  0  0  0  0  0  0
    8.6006  -17.3685   23.8221 C   0  0  0  0  0  0  0  0  0  0  0  0
    9.0162  -18.5514   23.9702 O   0  0  0  0  0  0  0  0  0  0  0  0
   11.6158  -15.7408   22.3601 C   0  0  0  0  0  0  0  0  0  0  0  0
   10.9990  -16.6716   23.3645 C   0  0  2  0  0  0  0  0  0  0  0  0
    9.5571  -16.4440   23.2950 N   0  0  0  0  0  0  0  0  0  0  0  0
   11.5362  -16.5111   24.7221 C   0  0  0  0  0  0  0  0  0  0  0  0
   12.7601  -16.6824   24.9774 O   0  0  0  0  0  0  0  0  0  0  0  0
    9.9275  -13.6921   27.2255 C   0  0  0  0  0  0  0  0  0  0  0  0
   10.1090  -15.0628   27.8998 C   0  0  2  0  0  0  0  0  0  0  0  0
   10.5789  -14.7838   29.3068 C   0  0  0  0  0  0  0  0  0  0  0  0
   11.0909  -15.8874   27.1381 C   0  0  2  0  0  0  0  0  0  0  0  0
   10.6721  -16.1579   25.7737 N   0  0  0  0  0  0  0  0  0  0  0  0
   11.3668  -17.1835   27.8489 C   0  0  0  0  0  0  0  0  0  0  0  0
   10.6756  -18.1721   27.5255 O   0  0  0  0  0  0  0  0  0  0  0  0
   12.3320  -17.3333   28.8270 O   0  0  0  0  0  0  0  0  0  0  0  0
  2 13  1  0
  2  1  1  1
  3  2  1  0
  4  3  1  0
  5  4  2  0
  6  5  1  0
  7  6  1  0
  7 12  2  0
  8  9  2  0
  8  7  1  0
  9 10  1  0
 10 11  2  0
 12 11  1  0
 12  4  1  0
 13 14  2  0
 16 15  1  6
 17 13  1  0
 17 16  1  0
 18 19  2  0
 18 16  1  0
 21 20  1  6
 21 23  1  0
 22 21  1  0
 23 24  1  6
 24 18  1  0
 25 23  1  0
 26 25  2  0
 27 25  1  0
M  END
$$$$
