WAV.pdb
     RDKit          3D

 27 28  0  0  1  0  0  0  0  0999 V2000
    7.6641  -18.1168   24.6038 N   0  0  0  0  0  0  0  0  0  0  0  0
    7.9029  -16.7614   24.2456 C   0  0  1  0  0  0  0  0  0  0  0  0
    8.5238  -15.9334   25.3692 C   0  0  0  0  0  0  0  0  0  0  0  0
    7.5228  -15.0943   26.0461 C   0  0  0  0  0  0  0  0  0  0  0  0
    6.3410  -15.4991   26.5914 C   0  0  0  0  0  0  0  0  0  0  0  0
    5.6964  -14.4665   27.1245 N   0  0  0  0  0  0  0  0  0  0  0  0
    6.4781  -13.3743   26.9198 C   0  0  0  0  0  0  0  0  0  0  0  0
    6.2872  -12.0559   27.2692 C   0  0  0  0  0  0  0  0  0  0  0  0
    7.1992  -11.0851   26.9731 C   0  0  0  0  0  0  0  0  0  0  0  0
    8.3445  -11.4689   26.2990 C   0  0  0  0  0  0  0  0  0  0  0  0
    8.5625  -12.7683   25.9380 C   0  0  0  0  0  0  0  0  0  0  0  0
    7.6277  -13.7384   26.2464 C   0  0  0  0  0  0  0  0  0  0  0  0
    8.6802  -16.5376   23.0277 C   0  0  0  0  0  0  0  0  0  0  0  0
    8.9485  -15.3749   22.6151 O   0  0  0  0  0  0  0  0  0  0  0  0
   10.4553  -18.7053   20.5513 C   0  0  0  0  0  0  0  0  0  0  0  0
    9.8581  -17.3843   20.9436 C   0  0  2  0  0  0  0  0  0  0  0  0
    9.1916  -17.6062   22.2251 N   0  0  0  0  0  0  0  0  0  0  0  0
    8.9625  -16.8187   19.9261 C   0  0  0  0  0  0  0  0  0  0  0  0
    7.8008  -17.2735   19.7361 O   0  0  0  0  0  0  0  0  0  0  0  0
    8.0268  -13.3099   19.9361 C   0  0  0  0  0  0  0  0  0  0  0  0
    8.5101  -13.5437   18.4945 C   0  0  2  0  0  0  0  0  0  0  0  0
    7.5294  -12.8279   17.5977 C   0  0  0  0  0  0  0  0  0  0  0  0
    8.5700  -15.0044   18.2001 C   0  0  2  0  0  0  0  0  0  0  0  0
    9.4014  -15.7415   19.1359 N   0  0  0  0  0  0  0  0  0  0  0  0
    9.0504  -15.2482   16.7961 C   0  0  0  0  0  0  0  0  0  0  0  0
   10.2687  -15.4732   16.6389 O   0  0  0  0  0  0  0  0  0  0  0  0
    8.2240  -15.2362   15.6882 O   0  0  0  0  0  0  0  0  0  0  0  0
  2 13  1  0
  2  1  1  1
  3  2  1  0
  4  3  1  0
  5  4  2  0
  6  5  1  0
  7  6  1  0
  7 12  2  0
  8  9  2  0
  8  7  1  0
  9 10  1  0
 10 11  2  0
 12 11  1  0
 12  4  1  0
 13 14  2  0
 16 15  1  6
 17 13  1  0
 17 16  1  0
 18 19  2  0
 18 16  1  0
 21 20  1  1
 21 23  1  0
 22 21  1  0
 23 24  1  1
 24 18  1  0
 25 23  1  0
 26 25  2  0
 27 25  1  0
M  END
$$$$
