WAV.pdb
     RDKit          3D

 27 28  0  0  1  0  0  0  0  0999 V2000
    6.2745  -17.4605   23.6592 N   0  0  0  0  0  0  0  0  0  0  0  0
    7.4029  -16.6708   24.0137 C   0  0  1  0  0  0  0  0  0  0  0  0
    7.3428  -16.1260   25.4396 C   0  0  0  0  0  0  0  0  0  0  0  0
    6.5013  -14.9225   25.5291 C   0  0  0  0  0  0  0  0  0  0  0  0
    5.1606  -14.8704   25.7689 C   0  0  0  0  0  0  0  0  0  0  0  0
    4.7394  -13.6101   25.7863 N   0  0  0  0  0  0  0  0  0  0  0  0
    5.8300  -12.8340   25.5538 C   0  0  0  0  0  0  0  0  0  0  0  0
    5.9557  -11.4653   25.4682 C   0  0  0  0  0  0  0  0  0  0  0  0
    7.1531  -10.8581   25.2243 C   0  0  0  0  0  0  0  0  0  0  0  0
    8.2602  -11.6713   25.0624 C   0  0  0  0  0  0  0  0  0  0  0  0
    8.1680  -13.0320   25.1407 C   0  0  0  0  0  0  0  0  0  0  0  0
    6.9469  -13.6297   25.3887 C   0  0  0  0  0  0  0  0  0  0  0  0
    8.7151  -17.2832   23.8117 C   0  0  0  0  0  0  0  0  0  0  0  0
    8.9559  -18.4705   24.1675 O   0  0  0  0  0  0  0  0  0  0  0  0
   12.0033  -16.2003   22.4019 C   0  0  0  0  0  0  0  0  0  0  0  0
   11.2032  -16.9778   23.4074 C   0  0  2  0  0  0  0  0  0  0  0  0
    9.8088  -16.5925   23.2000 N   0  0  0  0  0  0  0  0  0  0  0  0
   11.6488  -16.7800   24.7929 C   0  0  0  0  0  0  0  0  0  0  0  0
   12.8100  -17.0994   25.1699 O   0  0  0  0  0  0  0  0  0  0  0  0
   10.3624  -13.4738   26.8415 C   0  0  0  0  0  0  0  0  0  0  0  0
   10.2332  -14.7770   27.6486 C   0  0  2  0  0  0  0  0  0  0  0  0
   10.5979  -14.4315   29.0720 C   0  0  0  0  0  0  0  0  0  0  0  0
   11.1297  -15.8261   27.0831 C   0  0  2  0  0  0  0  0  0  0  0  0
   10.7655  -16.2210   25.7334 N   0  0  0  0  0  0  0  0  0  0  0  0
   11.1634  -17.0378   27.9730 C   0  0  0  0  0  0  0  0  0  0  0  0
   10.5042  -18.0341   27.6086 O   0  0  0  0  0  0  0  0  0  0  0  0
   11.8763  -17.1033   29.1554 O   0  0  0  0  0  0  0  0  0  0  0  0
  2 13  1  0
  2  1  1  1
  3  2  1  0
  4  3  1  0
  5  4  2  0
  6  5  1  0
  7  6  1  0
  7 12  2  0
  8  9  2  0
  8  7  1  0
  9 10  1  0
 10 11  2  0
 12 11  1  0
 12  4  1  0
 13 14  2  0
 16 15  1  6
 17 13  1  0
 17 16  1  0
 18 19  2  0
 18 16  1  0
 21 20  1  6
 21 23  1  0
 22 21  1  0
 23 24  1  6
 24 18  1  0
 25 23  1  0
 26 25  2  0
 27 25  1  0
M  END
$$$$
