WAV.pdb
     RDKit          3D

 27 28  0  0  1  0  0  0  0  0999 V2000
    6.1493  -18.6068   23.9193 N   0  0  0  0  0  0  0  0  0  0  0  0
    6.9466  -17.4303   23.9703 C   0  0  1  0  0  0  0  0  0  0  0  0
    6.3624  -16.3353   24.8609 C   0  0  0  0  0  0  0  0  0  0  0  0
    6.8166  -14.9976   24.4503 C   0  0  0  0  0  0  0  0  0  0  0  0
    7.6380  -14.6904   23.4068 C   0  0  0  0  0  0  0  0  0  0  0  0
    7.8262  -13.3769   23.3335 N   0  0  0  0  0  0  0  0  0  0  0  0
    7.1116  -12.8260   24.3492 C   0  0  0  0  0  0  0  0  0  0  0  0
    6.9570  -11.5108   24.7273 C   0  0  0  0  0  0  0  0  0  0  0  0
    6.1863  -11.1455   25.7924 C   0  0  0  0  0  0  0  0  0  0  0  0
    5.5511  -12.1525   26.4964 C   0  0  0  0  0  0  0  0  0  0  0  0
    5.6853  -13.4664   26.1468 C   0  0  0  0  0  0  0  0  0  0  0  0
    6.4699  -13.8179   25.0648 C   0  0  0  0  0  0  0  0  0  0  0  0
    8.3523  -17.6120   24.3290 C   0  0  0  0  0  0  0  0  0  0  0  0
    8.7052  -18.3867   25.2614 O   0  0  0  0  0  0  0  0  0  0  0  0
   11.5837  -16.6251   22.7477 C   0  0  0  0  0  0  0  0  0  0  0  0
   10.8265  -17.2636   23.8767 C   0  0  2  0  0  0  0  0  0  0  0  0
    9.4193  -16.9367   23.6559 N   0  0  0  0  0  0  0  0  0  0  0  0
   11.3031  -16.8607   25.2063 C   0  0  0  0  0  0  0  0  0  0  0  0
   12.5119  -16.9873   25.5457 O   0  0  0  0  0  0  0  0  0  0  0  0
    9.7893  -13.5451   27.1185 C   0  0  0  0  0  0  0  0  0  0  0  0
    9.7771  -14.8197   27.9798 C   0  0  2  0  0  0  0  0  0  0  0  0
   10.1221  -14.3856   29.3837 C   0  0  0  0  0  0  0  0  0  0  0  0
   10.7548  -15.8122   27.4478 C   0  0  2  0  0  0  0  0  0  0  0  0
   10.3963  -16.3187   26.1343 N   0  0  0  0  0  0  0  0  0  0  0  0
   10.9254  -16.9606   28.4035 C   0  0  0  0  0  0  0  0  0  0  0  0
   10.1370  -17.9225   28.2890 O   0  0  0  0  0  0  0  0  0  0  0  0
   11.8958  -17.0044   29.3868 O   0  0  0  0  0  0  0  0  0  0  0  0
  2 13  1  0
  2  1  1  1
  3  2  1  0
  4  3  1  0
  5  4  2  0
  6  5  1  0
  7  6  1  0
  7 12  2  0
  8  9  2  0
  8  7  1  0
  9 10  1  0
 10 11  2  0
 12 11  1  0
 12  4  1  0
 13 14  2  0
 16 15  1  6
 17 13  1  0
 17 16  1  0
 18 19  2  0
 18 16  1  0
 21 20  1  6
 21 23  1  0
 22 21  1  0
 23 24  1  6
 24 18  1  0
 25 23  1  0
 26 25  2  0
 27 25  1  0
M  END
$$$$
