MRR.pdb
     RDKit          3D

 31 30  0  0  1  0  0  0  0  0999 V2000
    6.1673  -11.2708   26.7064 C   0  0  0  0  0  0  0  0  0  0  0  0
    6.8800  -12.5819   27.7623 S   0  0  0  0  0  0  0  0  0  0  0  0
    6.3471  -14.1725   27.0442 C   0  0  0  0  0  0  0  0  0  0  0  0
    7.0744  -14.4764   25.7765 C   0  0  0  0  0  0  0  0  0  0  0  0
    6.5887  -15.7163   25.0623 C   0  0  2  0  0  0  0  0  0  0  0  0
    6.8496  -16.8268   25.9499 N   0  0  0  0  0  0  0  0  0  0  0  0
    7.3698  -15.8626   23.7985 C   0  0  0  0  0  0  0  0  0  0  0  0
    8.2258  -16.7664   23.6405 O   0  0  0  0  0  0  0  0  0  0  0  0
    9.5719  -14.9050   16.9339 N   0  0  0  0  0  0  0  0  0  0  0  0
    8.4932  -14.2222   16.3239 C   0  0  0  0  0  0  0  0  0  0  0  0
    8.3410  -14.2563   15.0522 N   0  0  0  0  0  0  0  0  0  0  0  0
    7.5706  -13.4938   17.1079 N   0  0  0  0  0  0  0  0  0  0  0  0
    7.9994  -12.9399   18.3634 C   0  0  0  0  0  0  0  0  0  0  0  0
    8.4280  -14.0270   19.3069 C   0  0  0  0  0  0  0  0  0  0  0  0
    7.6153  -13.9405   20.5638 C   0  0  0  0  0  0  0  0  0  0  0  0
    7.9094  -15.0508   21.5523 C   0  0  2  0  0  0  0  0  0  0  0  0
    7.1169  -14.9219   22.7331 N   0  0  0  0  0  0  0  0  0  0  0  0
    9.3757  -14.9205   21.8655 C   0  0  0  0  0  0  0  0  0  0  0  0
    9.7787  -13.9839   22.6295 O   0  0  0  0  0  0  0  0  0  0  0  0
    7.5753  -13.7560   14.5605 N   0  0  0  0  0  0  0  0  0  0  0  0
   11.0333  -21.9179   25.9009 C   0  0  0  0  0  0  0  0  0  0  0  0
   11.5090  -20.6229   26.2803 N   0  0  0  0  0  0  0  0  0  0  0  0
   11.5547  -20.2727   27.4988 N   0  0  0  0  0  0  0  0  0  0  0  0
   11.9245  -19.7472   25.2571 C   0  0  0  0  0  0  0  0  0  0  0  0
   11.4507  -18.3434   25.2300 C   0  0  0  0  0  0  0  0  0  0  0  0
   12.0147  -17.6875   24.0246 C   0  0  0  0  0  0  0  0  0  0  0  0
   11.1196  -16.9631   23.1431 C   0  0  1  0  0  0  0  0  0  0  0  0
   11.5679  -16.1477   21.9794 N   0  0  0  0  0  0  0  0  0  0  0  0
   10.2504  -15.8462   21.2974 C   0  0  0  0  0  0  0  0  0  0  0  0
   12.2641  -16.9855   20.9699 O   0  0  0  0  0  0  0  0  0  0  0  0
   11.7259  -17.7394   20.1409 O   0  0  0  0  0  0  0  0  0  0  0  0
  1  2  1  0
  2  3  1  0
  4  3  1  0
  5  4  1  0
  5  6  1  1
  7  8  2  0
  7  5  1  0
  9 10  1  0
 10 12  1  0
 11 10  2  0
 12 13  1  0
 13 14  1  0
 14 15  1  0
 16 15  1  6
 16 17  1  0
 17  7  1  0
 18 19  2  0
 18 16  1  0
 20 21  1  0
 21 22  2  0
 23 21  1  0
 23 24  1  0
 24 25  1  0
 25 26  1  0
 27 26  1  1
 27 28  1  0
 28 18  1  0
 29 27  1  0
 30 29  2  0
 31 29  1  0
M  END
$$$$
