MRR.pdb
     RDKit          3D

 31 30  0  0  1  0  0  0  0  0999 V2000
    7.0446  -11.2252   27.8735 C   0  0  0  0  0  0  0  0  0  0  0  0
    5.6625  -11.7804   26.8137 S   0  0  0  0  0  0  0  0  0  0  0  0
    6.4144  -12.6251   25.3816 C   0  0  0  0  0  0  0  0  0  0  0  0
    6.8563  -14.0085   25.7270 C   0  0  0  0  0  0  0  0  0  0  0  0
    6.1989  -15.0946   24.9075 C   0  0  2  0  0  0  0  0  0  0  0  0
    5.7655  -16.1065   25.8442 N   0  0  0  0  0  0  0  0  0  0  0  0
    7.2176  -15.6525   23.9697 C   0  0  0  0  0  0  0  0  0  0  0  0
    7.8884  -16.6775   24.2413 O   0  0  0  0  0  0  0  0  0  0  0  0
    7.5088  -12.5359   16.5409 N   0  0  0  0  0  0  0  0  0  0  0  0
    7.8595  -13.9045   16.4640 C   0  0  0  0  0  0  0  0  0  0  0  0
    7.9432  -14.4889   15.3269 N   0  0  0  0  0  0  0  0  0  0  0  0
    8.1213  -14.6446   17.6388 N   0  0  0  0  0  0  0  0  0  0  0  0
    9.4037  -14.5194   18.2765 C   0  0  0  0  0  0  0  0  0  0  0  0
    9.4492  -15.3235   19.5442 C   0  0  0  0  0  0  0  0  0  0  0  0
    8.4661  -14.7577   20.5248 C   0  0  0  0  0  0  0  0  0  0  0  0
    8.3840  -15.5406   21.8196 C   0  0  2  0  0  0  0  0  0  0  0  0
    7.4235  -14.9747   22.7118 N   0  0  0  0  0  0  0  0  0  0  0  0
    9.7696  -15.4807   22.4041 C   0  0  0  0  0  0  0  0  0  0  0  0
   10.1372  -14.4495   23.0559 O   0  0  0  0  0  0  0  0  0  0  0  0
    8.2387  -15.4787   15.2199 N   0  0  0  0  0  0  0  0  0  0  0  0
   13.7216  -19.0629   28.7236 C   0  0  0  0  0  0  0  0  0  0  0  0
   12.6165  -19.6976   28.0728 N   0  0  0  0  0  0  0  0  0  0  0  0
   11.5375  -19.9352   28.6964 N   0  0  0  0  0  0  0  0  0  0  0  0
   12.7648  -20.0519   26.7168 C   0  0  0  0  0  0  0  0  0  0  0  0
   11.7417  -19.6573   25.7201 C   0  0  0  0  0  0  0  0  0  0  0  0
   12.2384  -18.4620   24.9950 C   0  0  0  0  0  0  0  0  0  0  0  0
   11.4302  -17.9117   23.9240 C   0  0  2  0  0  0  0  0  0  0  0  0
   11.8322  -16.7492   23.0833 N   0  0  0  0  0  0  0  0  0  0  0  0
   10.6108  -16.5751   22.2059 C   0  0  0  0  0  0  0  0  0  0  0  0
   12.8781  -17.1305   22.1002 O   0  0  0  0  0  0  0  0  0  0  0  0
   12.7122  -17.8173   21.0774 O   0  0  0  0  0  0  0  0  0  0  0  0
  1  2  1  0
  2  3  1  0
  4  3  1  0
  5  4  1  0
  5  6  1  1
  7  8  2  0
  7  5  1  0
  9 10  1  0
 10 12  1  0
 11 10  2  0
 12 13  1  0
 13 14  1  0
 14 15  1  0
 16 15  1  6
 16 17  1  0
 17  7  1  0
 18 19  2  0
 18 16  1  0
 20 21  1  0
 21 22  2  0
 23 21  1  0
 23 24  1  0
 24 25  1  0
 25 26  1  0
 27 26  1  1
 27 28  1  0
 28 18  1  0
 29 27  1  0
 30 29  2  0
 31 29  1  0
M  END
$$$$
