MRR.pdb
     RDKit          3D

 31 30  0  0  1  0  0  0  0  0999 V2000
   11.2855   -9.3413   51.7144 C   0  0  0  0  0  0  0  0  0  0  0  0
   11.1530  -10.3116   50.1709 S   0  0  0  0  0  0  0  0  0  0  0  0
    9.4049  -10.8130   50.0223 C   0  0  0  0  0  0  0  0  0  0  0  0
    9.1993  -11.7686   48.8940 C   0  0  0  0  0  0  0  0  0  0  0  0
    7.7660  -12.2080   48.7040 C   0  0  2  0  0  0  0  0  0  0  0  0
    7.7414  -13.6334   48.9426 N   0  0  0  0  0  0  0  0  0  0  0  0
    7.3685  -11.9067   47.2969 C   0  0  0  0  0  0  0  0  0  0  0  0
    7.3555  -12.7854   46.4014 O   0  0  0  0  0  0  0  0  0  0  0  0
    2.1728   -5.7097   43.8412 N   0  0  0  0  0  0  0  0  0  0  0  0
    2.5610   -6.5175   42.7464 C   0  0  0  0  0  0  0  0  0  0  0  0
    2.0173   -6.3564   41.5975 N   0  0  0  0  0  0  0  0  0  0  0  0
    3.5521   -7.5119   42.9052 N   0  0  0  0  0  0  0  0  0  0  0  0
    4.0775   -7.7767   44.2170 C   0  0  0  0  0  0  0  0  0  0  0  0
    5.1085   -8.8676   44.1678 C   0  0  0  0  0  0  0  0  0  0  0  0
    5.6042   -9.1432   45.5558 C   0  0  0  0  0  0  0  0  0  0  0  0
    6.5907  -10.2911   45.6294 C   0  0  2  0  0  0  0  0  0  0  0  0
    6.9894  -10.5513   46.9756 N   0  0  0  0  0  0  0  0  0  0  0  0
    7.7624   -9.8573   44.7902 C   0  0  0  0  0  0  0  0  0  0  0  0
    8.4477   -8.8410   45.1379 O   0  0  0  0  0  0  0  0  0  0  0  0
    2.2621   -6.9338   40.7698 N   0  0  0  0  0  0  0  0  0  0  0  0
   13.2020  -12.5527   39.5537 C   0  0  0  0  0  0  0  0  0  0  0  0
   13.6839  -12.9593   40.8382 N   0  0  0  0  0  0  0  0  0  0  0  0
   14.8954  -12.7810   41.1699 N   0  0  0  0  0  0  0  0  0  0  0  0
   12.7702  -13.5656   41.7236 C   0  0  0  0  0  0  0  0  0  0  0  0
   11.3158  -13.3140   41.5922 C   0  0  0  0  0  0  0  0  0  0  0  0
   11.0368  -11.9423   42.0840 C   0  0  0  0  0  0  0  0  0  0  0  0
    9.6564  -11.5238   42.2340 C   0  0  2  0  0  0  0  0  0  0  0  0
    9.2358  -10.2036   42.7818 N   0  0  0  0  0  0  0  0  0  0  0  0
    8.0567  -10.5976   43.6457 C   0  0  0  0  0  0  0  0  0  0  0  0
    8.5973   -9.3643   41.7361 O   0  0  0  0  0  0  0  0  0  0  0  0
    9.1721   -8.5526   40.9905 O   0  0  0  0  0  0  0  0  0  0  0  0
  1  2  1  0
  2  3  1  0
  4  3  1  0
  5  4  1  0
  5  6  1  6
  7  8  2  0
  7  5  1  0
  9 10  1  0
 10 12  1  0
 11 10  2  0
 12 13  1  0
 13 14  1  0
 14 15  1  0
 16 15  1  1
 16 17  1  0
 17  7  1  0
 18 19  2  0
 18 16  1  0
 20 21  1  0
 21 22  2  0
 23 21  1  0
 23 24  1  0
 24 25  1  0
 25 26  1  0
 27 26  1  1
 27 28  1  0
 28 18  1  0
 29 27  1  0
 30 29  2  0
 31 29  1  0
M  END
$$$$
