MRR.pdb
     RDKit          3D

 31 30  0  0  1  0  0  0  0  0999 V2000
    7.3350  -12.5049   21.8419 C   0  0  0  0  0  0  0  0  0  0  0  0
    8.0511  -12.3227   20.1699 S   0  0  0  0  0  0  0  0  0  0  0  0
    7.1391  -13.4740   19.0872 C   0  0  0  0  0  0  0  0  0  0  0  0
    7.4272  -14.8981   19.4297 C   0  0  0  0  0  0  0  0  0  0  0  0
    8.8882  -15.2749   19.3464 C   0  0  2  0  0  0  0  0  0  0  0  0
    9.2521  -15.1913   17.9501 N   0  0  0  0  0  0  0  0  0  0  0  0
    9.0378  -16.6749   19.8426 C   0  0  0  0  0  0  0  0  0  0  0  0
    8.6812  -17.0190   20.9954 O   0  0  0  0  0  0  0  0  0  0  0  0
   11.9544  -21.9848   15.4360 N   0  0  0  0  0  0  0  0  0  0  0  0
   12.4529  -22.7833   16.4924 C   0  0  0  0  0  0  0  0  0  0  0  0
   13.5450  -23.4379   16.3498 N   0  0  0  0  0  0  0  0  0  0  0  0
   11.7538  -22.8697   17.7172 N   0  0  0  0  0  0  0  0  0  0  0  0
   10.4275  -22.3225   17.8088 C   0  0  0  0  0  0  0  0  0  0  0  0
   10.3269  -21.3585   18.9561 C   0  0  0  0  0  0  0  0  0  0  0  0
   10.1085  -19.9746   18.4220 C   0  0  0  0  0  0  0  0  0  0  0  0
    9.9329  -18.9289   19.5046 C   0  0  2  0  0  0  0  0  0  0  0  0
    9.6149  -17.6520   18.9502 N   0  0  0  0  0  0  0  0  0  0  0  0
   11.2493  -18.8920   20.2332 C   0  0  0  0  0  0  0  0  0  0  0  0
   12.2742  -18.3944   19.6630 O   0  0  0  0  0  0  0  0  0  0  0  0
   13.9752  -23.9938   17.1141 N   0  0  0  0  0  0  0  0  0  0  0  0
   18.1374  -22.4524   19.8055 C   0  0  0  0  0  0  0  0  0  0  0  0
   17.7711  -21.4804   20.7898 N   0  0  0  0  0  0  0  0  0  0  0  0
   17.9526  -21.6995   22.0261 N   0  0  0  0  0  0  0  0  0  0  0  0
   17.2009  -20.2717   20.3425 C   0  0  0  0  0  0  0  0  0  0  0  0
   15.7687  -20.2091   19.9674 C   0  0  0  0  0  0  0  0  0  0  0  0
   14.9797  -19.9410   21.1949 C   0  0  0  0  0  0  0  0  0  0  0  0
   13.5350  -19.8681   21.0920 C   0  0  1  0  0  0  0  0  0  0  0  0
   12.6288  -19.5488   22.2308 N   0  0  0  0  0  0  0  0  0  0  0  0
   11.2958  -19.4128   21.5260 C   0  0  0  0  0  0  0  0  0  0  0  0
   12.8628  -18.1722   22.7367 O   0  0  0  0  0  0  0  0  0  0  0  0
   13.8959  -17.7561   23.2887 O   0  0  0  0  0  0  0  0  0  0  0  0
  1  2  1  0
  2  3  1  0
  4  3  1  0
  5  4  1  0
  5  6  1  6
  7  8  2  0
  7  5  1  0
  9 10  1  0
 10 12  1  0
 11 10  2  0
 12 13  1  0
 13 14  1  0
 14 15  1  0
 16 15  1  6
 16 17  1  0
 17  7  1  0
 18 19  2  0
 18 16  1  0
 20 21  1  0
 21 22  2  0
 23 21  1  0
 23 24  1  0
 24 25  1  0
 25 26  1  0
 27 26  1  1
 27 28  1  0
 28 18  1  0
 29 27  1  0
 30 29  2  0
 31 29  1  0
M  END
$$$$
