MRR.pdb
     RDKit          3D

 31 30  0  0  1  0  0  0  0  0999 V2000
    6.7001  -11.7723   26.8923 C   0  0  0  0  0  0  0  0  0  0  0  0
    7.0975  -11.7585   25.1081 S   0  0  0  0  0  0  0  0  0  0  0  0
    5.7899  -12.7236   24.2784 C   0  0  0  0  0  0  0  0  0  0  0  0
    6.3605  -13.7141   23.3184 C   0  0  0  0  0  0  0  0  0  0  0  0
    7.6980  -13.3181   22.7372 C   0  0  2  0  0  0  0  0  0  0  0  0
    7.4189  -12.6710   21.4753 N   0  0  0  0  0  0  0  0  0  0  0  0
    8.4989  -14.5595   22.5221 C   0  0  0  0  0  0  0  0  0  0  0  0
    8.7997  -15.3342   23.4622 O   0  0  0  0  0  0  0  0  0  0  0  0
    7.2342  -16.4455   15.5011 N   0  0  0  0  0  0  0  0  0  0  0  0
    7.9143  -15.2050   15.5256 C   0  0  0  0  0  0  0  0  0  0  0  0
    7.5266  -14.2390   14.7787 N   0  0  0  0  0  0  0  0  0  0  0  0
    9.0292  -15.0153   16.3726 N   0  0  0  0  0  0  0  0  0  0  0  0
    9.4917  -16.1108   17.1806 C   0  0  0  0  0  0  0  0  0  0  0  0
    8.9775  -15.9902   18.5865 C   0  0  0  0  0  0  0  0  0  0  0  0
   10.1016  -16.2365   19.5476 C   0  0  0  0  0  0  0  0  0  0  0  0
    9.7097  -16.0460   20.9990 C   0  0  2  0  0  0  0  0  0  0  0  0
    8.9330  -14.8614   21.1788 N   0  0  0  0  0  0  0  0  0  0  0  0
   11.0112  -15.9613   21.7501 C   0  0  0  0  0  0  0  0  0  0  0  0
   11.8189  -15.0057   21.5104 O   0  0  0  0  0  0  0  0  0  0  0  0
    7.9388  -13.2869   14.8257 N   0  0  0  0  0  0  0  0  0  0  0  0
   10.4073  -18.0415   30.3899 C   0  0  0  0  0  0  0  0  0  0  0  0
   11.0816  -16.8398   30.0041 N   0  0  0  0  0  0  0  0  0  0  0  0
   11.0752  -15.8157   30.7528 N   0  0  0  0  0  0  0  0  0  0  0  0
   11.7526  -16.8291   28.7647 C   0  0  0  0  0  0  0  0  0  0  0  0
   10.9900  -16.8974   27.4959 C   0  0  0  0  0  0  0  0  0  0  0  0
   11.9543  -16.8179   26.3712 C   0  0  0  0  0  0  0  0  0  0  0  0
   11.4458  -16.8615   25.0138 C   0  0  1  0  0  0  0  0  0  0  0  0
   12.2860  -16.6729   23.7978 N   0  0  0  0  0  0  0  0  0  0  0  0
   11.2862  -16.9493   22.6951 C   0  0  0  0  0  0  0  0  0  0  0  0
   13.2555  -17.7859   23.6341 O   0  0  0  0  0  0  0  0  0  0  0  0
   14.3253  -17.9276   24.2510 O   0  0  0  0  0  0  0  0  0  0  0  0
  1  2  1  0
  2  3  1  0
  4  3  1  0
  5  4  1  0
  5  6  1  6
  7  8  2  0
  7  5  1  0
  9 10  1  0
 10 12  1  0
 11 10  2  0
 12 13  1  0
 13 14  1  0
 14 15  1  0
 16 15  1  6
 16 17  1  0
 17  7  1  0
 18 19  2  0
 18 16  1  0
 20 21  1  0
 21 22  2  0
 23 21  1  0
 23 24  1  0
 24 25  1  0
 25 26  1  0
 27 26  1  6
 27 28  1  0
 28 18  1  0
 29 27  1  0
 30 29  2  0
 31 29  1  0
M  END
$$$$
