MRR.pdb
     RDKit          3D

 31 30  0  0  1  0  0  0  0  0999 V2000
    7.8990  -11.9282   18.7542 C   0  0  0  0  0  0  0  0  0  0  0  0
    7.0605  -11.3941   20.2883 S   0  0  0  0  0  0  0  0  0  0  0  0
    6.2938  -12.8861   21.0062 C   0  0  0  0  0  0  0  0  0  0  0  0
    7.1864  -14.0766   20.8868 C   0  0  0  0  0  0  0  0  0  0  0  0
    6.5361  -15.3837   21.2770 C   0  0  2  0  0  0  0  0  0  0  0  0
    5.6607  -15.0879   22.3884 N   0  0  0  0  0  0  0  0  0  0  0  0
    7.6102  -16.3322   21.6957 C   0  0  0  0  0  0  0  0  0  0  0  0
    7.3585  -17.4911   22.1054 O   0  0  0  0  0  0  0  0  0  0  0  0
   11.2439  -15.9604   16.0007 N   0  0  0  0  0  0  0  0  0  0  0  0
   11.6680  -17.2216   16.4816 C   0  0  0  0  0  0  0  0  0  0  0  0
   12.7880  -17.7158   16.1036 N   0  0  0  0  0  0  0  0  0  0  0  0
   10.8630  -17.9526   17.3838 N   0  0  0  0  0  0  0  0  0  0  0  0
   11.1971  -17.9521   18.7821 C   0  0  0  0  0  0  0  0  0  0  0  0
   10.7281  -16.6869   19.4416 C   0  0  0  0  0  0  0  0  0  0  0  0
   11.1506  -16.6925   20.8801 C   0  0  0  0  0  0  0  0  0  0  0  0
    9.9971  -16.8565   21.8491 C   0  0  2  0  0  0  0  0  0  0  0  0
    8.9796  -15.8815   21.6193 N   0  0  0  0  0  0  0  0  0  0  0  0
   10.6056  -16.6946   23.2161 C   0  0  0  0  0  0  0  0  0  0  0  0
   11.3356  -15.6812   23.4676 O   0  0  0  0  0  0  0  0  0  0  0  0
   13.1550  -18.6209   16.4565 N   0  0  0  0  0  0  0  0  0  0  0  0
    7.8421  -12.4756   26.9027 C   0  0  0  0  0  0  0  0  0  0  0  0
    7.2011  -13.4535   26.0779 N   0  0  0  0  0  0  0  0  0  0  0  0
    5.9364  -13.5327   26.0179 N   0  0  0  0  0  0  0  0  0  0  0  0
    8.0195  -14.3275   25.3345 C   0  0  0  0  0  0  0  0  0  0  0  0
    7.9360  -15.7928   25.5391 C   0  0  0  0  0  0  0  0  0  0  0  0
    8.9415  -16.1758   26.5606 C   0  0  0  0  0  0  0  0  0  0  0  0
    9.6778  -17.4125   26.3833 C   0  0  2  0  0  0  0  0  0  0  0  0
   10.9157  -17.5407   25.5640 N   0  0  0  0  0  0  0  0  0  0  0  0
   10.3415  -17.6772   24.1699 C   0  0  0  0  0  0  0  0  0  0  0  0
   11.5652  -18.8601   25.7709 O   0  0  0  0  0  0  0  0  0  0  0  0
   12.2626  -19.1933   26.7444 O   0  0  0  0  0  0  0  0  0  0  0  0
  1  2  1  0
  2  3  1  0
  4  3  1  0
  5  4  1  0
  5  6  1  1
  7  8  2  0
  7  5  1  0
  9 10  1  0
 10 12  1  0
 11 10  2  0
 12 13  1  0
 13 14  1  0
 14 15  1  0
 16 15  1  6
 16 17  1  0
 17  7  1  0
 18 19  2  0
 18 16  1  0
 20 21  1  0
 21 22  2  0
 23 21  1  0
 23 24  1  0
 24 25  1  0
 25 26  1  0
 27 26  1  6
 27 28  1  0
 28 18  1  0
 29 27  1  0
 30 29  2  0
 31 29  1  0
M  END
$$$$
