MRR.pdb
     RDKit          3D

 31 30  0  0  1  0  0  0  0  0999 V2000
   10.2123  -14.5551   28.7539 C   0  0  0  0  0  0  0  0  0  0  0  0
    8.5067  -14.2783   28.1573 S   0  0  0  0  0  0  0  0  0  0  0  0
    8.1480  -15.6189   26.9725 C   0  0  0  0  0  0  0  0  0  0  0  0
    6.7830  -15.4838   26.3836 C   0  0  0  0  0  0  0  0  0  0  0  0
    6.4013  -16.5969   25.4356 C   0  0  2  0  0  0  0  0  0  0  0  0
    6.7171  -17.8347   26.1116 N   0  0  0  0  0  0  0  0  0  0  0  0
    7.2204  -16.4547   24.1956 C   0  0  0  0  0  0  0  0  0  0  0  0
    8.0541  -17.3225   23.8400 O   0  0  0  0  0  0  0  0  0  0  0  0
    8.1280  -12.4612   16.8828 N   0  0  0  0  0  0  0  0  0  0  0  0
    8.0779  -13.8718   16.7836 C   0  0  0  0  0  0  0  0  0  0  0  0
    8.5251  -14.4639   15.7391 N   0  0  0  0  0  0  0  0  0  0  0  0
    7.5344  -14.6454   17.8335 N   0  0  0  0  0  0  0  0  0  0  0  0
    7.0194  -13.9823   19.0006 C   0  0  0  0  0  0  0  0  0  0  0  0
    8.0824  -13.8560   20.0541 C   0  0  0  0  0  0  0  0  0  0  0  0
    7.4457  -13.9215   21.4100 C   0  0  0  0  0  0  0  0  0  0  0  0
    7.7609  -15.1967   22.1656 C   0  0  2  0  0  0  0  0  0  0  0  0
    7.0323  -15.2707   23.3914 N   0  0  0  0  0  0  0  0  0  0  0  0
    9.2439  -15.1485   22.4173 C   0  0  0  0  0  0  0  0  0  0  0  0
    9.6872  -14.6148   23.4859 O   0  0  0  0  0  0  0  0  0  0  0  0
    8.6240  -15.4955   15.6724 N   0  0  0  0  0  0  0  0  0  0  0  0
   12.6036  -21.6463   25.8281 C   0  0  0  0  0  0  0  0  0  0  0  0
   12.5774  -20.2517   26.1476 N   0  0  0  0  0  0  0  0  0  0  0  0
   12.3588  -19.8550   27.3326 N   0  0  0  0  0  0  0  0  0  0  0  0
   12.8011  -19.3318   25.1035 C   0  0  0  0  0  0  0  0  0  0  0  0
   11.9938  -19.3919   23.8623 C   0  0  0  0  0  0  0  0  0  0  0  0
   12.3442  -18.2186   23.0247 C   0  0  0  0  0  0  0  0  0  0  0  0
   11.2918  -17.2970   22.6423 C   0  0  1  0  0  0  0  0  0  0  0  0
   11.5089  -16.0686   21.8274 N   0  0  0  0  0  0  0  0  0  0  0  0
   10.0888  -15.6996   21.4544 C   0  0  0  0  0  0  0  0  0  0  0  0
   12.1093  -16.3951   20.5089 O   0  0  0  0  0  0  0  0  0  0  0  0
   11.4958  -16.7515   19.4882 O   0  0  0  0  0  0  0  0  0  0  0  0
  1  2  1  0
  2  3  1  0
  4  3  1  0
  5  4  1  0
  5  6  1  1
  7  8  2  0
  7  5  1  0
  9 10  1  0
 10 12  1  0
 11 10  2  0
 12 13  1  0
 13 14  1  0
 14 15  1  0
 16 15  1  1
 16 17  1  0
 17  7  1  0
 18 19  2  0
 18 16  1  0
 20 21  1  0
 21 22  2  0
 23 21  1  0
 23 24  1  0
 24 25  1  0
 25 26  1  0
 27 26  1  1
 27 28  1  0
 28 18  1  0
 29 27  1  0
 30 29  2  0
 31 29  1  0
M  END
$$$$
