MRR.pdb
     RDKit          3D

 31 30  0  0  1  0  0  0  0  0999 V2000
   21.2784  -26.9632   29.9053 C   0  0  0  0  0  0  0  0  0  0  0  0
   20.8689  -27.2343   28.1445 S   0  0  0  0  0  0  0  0  0  0  0  0
   19.0484  -27.2019   28.0247 C   0  0  0  0  0  0  0  0  0  0  0  0
   18.4049  -27.7317   29.2631 C   0  0  0  0  0  0  0  0  0  0  0  0
   16.8941  -27.7212   29.2326 C   0  0  2  0  0  0  0  0  0  0  0  0
   16.5054  -28.4313   28.0352 N   0  0  0  0  0  0  0  0  0  0  0  0
   16.4389  -26.3009   29.1692 C   0  0  0  0  0  0  0  0  0  0  0  0
   16.6278  -25.4938   30.1111 O   0  0  0  0  0  0  0  0  0  0  0  0
   13.4267  -21.9102   22.3274 N   0  0  0  0  0  0  0  0  0  0  0  0
   12.6221  -22.4953   23.3335 C   0  0  0  0  0  0  0  0  0  0  0  0
   11.4176  -22.8478   23.0762 N   0  0  0  0  0  0  0  0  0  0  0  0
   13.1355  -22.6981   24.6342 N   0  0  0  0  0  0  0  0  0  0  0  0
   14.4794  -22.2828   24.9314 C   0  0  0  0  0  0  0  0  0  0  0  0
   14.8292  -22.5919   26.3589 C   0  0  0  0  0  0  0  0  0  0  0  0
   14.9610  -24.0760   26.5260 C   0  0  0  0  0  0  0  0  0  0  0  0
   15.3415  -24.4953   27.9316 C   0  0  2  0  0  0  0  0  0  0  0  0
   15.7595  -25.8600   27.9741 N   0  0  0  0  0  0  0  0  0  0  0  0
   14.1004  -24.2815   28.7556 C   0  0  0  0  0  0  0  0  0  0  0  0
   13.0933  -25.0446   28.5922 O   0  0  0  0  0  0  0  0  0  0  0  0
   10.7971  -23.2960   23.7780 N   0  0  0  0  0  0  0  0  0  0  0  0
   16.2728  -23.3222   36.4180 C   0  0  0  0  0  0  0  0  0  0  0  0
   15.8096  -24.6064   35.9891 N   0  0  0  0  0  0  0  0  0  0  0  0
   16.0630  -25.6522   36.6610 N   0  0  0  0  0  0  0  0  0  0  0  0
   15.0635  -24.6732   34.7953 C   0  0  0  0  0  0  0  0  0  0  0  0
   14.6864  -23.4350   34.0737 C   0  0  0  0  0  0  0  0  0  0  0  0
   13.9366  -23.8206   32.8529 C   0  0  0  0  0  0  0  0  0  0  0  0
   13.5763  -22.7870   31.9017 C   0  0  2  0  0  0  0  0  0  0  0  0
   12.9097  -23.0466   30.5946 N   0  0  0  0  0  0  0  0  0  0  0  0
   14.1019  -23.2386   29.6814 C   0  0  0  0  0  0  0  0  0  0  0  0
   12.2887  -21.8118   30.0512 O   0  0  0  0  0  0  0  0  0  0  0  0
   12.7851  -21.0487   29.2048 O   0  0  0  0  0  0  0  0  0  0  0  0
  1  2  1  0
  2  3  1  0
  4  3  1  0
  5  4  1  0
  5  6  1  6
  7  8  2  0
  7  5  1  0
  9 10  1  0
 10 12  1  0
 11 10  2  0
 12 13  1  0
 13 14  1  0
 14 15  1  0
 16 15  1  6
 16 17  1  0
 17  7  1  0
 18 19  2  0
 18 16  1  0
 20 21  1  0
 21 22  2  0
 23 21  1  0
 23 24  1  0
 24 25  1  0
 25 26  1  0
 27 26  1  1
 27 28  1  0
 28 18  1  0
 29 27  1  0
 30 29  2  0
 31 29  1  0
M  END
$$$$
