MRR.pdb
     RDKit          3D

 31 30  0  0  1  0  0  0  0  0999 V2000
    7.7304  -11.5024   27.5466 C   0  0  0  0  0  0  0  0  0  0  0  0
    6.5598  -12.0566   26.2566 S   0  0  0  0  0  0  0  0  0  0  0  0
    5.8271  -13.6162   26.8571 C   0  0  0  0  0  0  0  0  0  0  0  0
    6.6917  -14.7905   26.5376 C   0  0  0  0  0  0  0  0  0  0  0  0
    6.0562  -15.7960   25.6057 C   0  0  2  0  0  0  0  0  0  0  0  0
    5.8389  -16.9938   26.3849 N   0  0  0  0  0  0  0  0  0  0  0  0
    7.0100  -16.0647   24.4891 C   0  0  0  0  0  0  0  0  0  0  0  0
    7.8430  -17.0022   24.5302 O   0  0  0  0  0  0  0  0  0  0  0  0
    7.9802  -12.4709   16.3780 N   0  0  0  0  0  0  0  0  0  0  0  0
    8.6194  -13.7330   16.3532 C   0  0  0  0  0  0  0  0  0  0  0  0
    9.1066  -14.1910   15.2603 N   0  0  0  0  0  0  0  0  0  0  0  0
    8.7286  -14.5046   17.5318 N   0  0  0  0  0  0  0  0  0  0  0  0
    8.1364  -14.0169   18.7477 C   0  0  0  0  0  0  0  0  0  0  0  0
    8.5308  -14.8764   19.9145 C   0  0  0  0  0  0  0  0  0  0  0  0
    7.5688  -14.6518   21.0424 C   0  0  0  0  0  0  0  0  0  0  0  0
    7.8686  -15.4889   22.2694 C   0  0  2  0  0  0  0  0  0  0  0  0
    6.9564  -15.2050   23.3306 N   0  0  0  0  0  0  0  0  0  0  0  0
    9.2787  -15.1308   22.6550 C   0  0  0  0  0  0  0  0  0  0  0  0
    9.4887  -14.1662   23.4604 O   0  0  0  0  0  0  0  0  0  0  0  0
    9.5951  -15.1053   15.1980 N   0  0  0  0  0  0  0  0  0  0  0  0
   11.1187  -16.4734   28.3508 C   0  0  0  0  0  0  0  0  0  0  0  0
   12.0636  -17.5462   28.2898 N   0  0  0  0  0  0  0  0  0  0  0  0
   13.0567  -17.5902   29.0780 N   0  0  0  0  0  0  0  0  0  0  0  0
   11.8570  -18.5527   27.3251 C   0  0  0  0  0  0  0  0  0  0  0  0
   10.9512  -18.3186   26.1759 C   0  0  0  0  0  0  0  0  0  0  0  0
   11.6287  -17.3953   25.2328 C   0  0  0  0  0  0  0  0  0  0  0  0
   10.9961  -17.1139   23.9586 C   0  0  2  0  0  0  0  0  0  0  0  0
   11.5472  -16.1790   22.9376 N   0  0  0  0  0  0  0  0  0  0  0  0
   10.3174  -15.8821   22.1061 C   0  0  0  0  0  0  0  0  0  0  0  0
   12.4208  -16.8907   21.9702 O   0  0  0  0  0  0  0  0  0  0  0  0
   12.0451  -17.5582   20.9913 O   0  0  0  0  0  0  0  0  0  0  0  0
  1  2  1  0
  2  3  1  0
  4  3  1  0
  5  4  1  0
  5  6  1  1
  7  8  2  0
  7  5  1  0
  9 10  1  0
 10 12  1  0
 11 10  2  0
 12 13  1  0
 13 14  1  0
 14 15  1  0
 16 15  1  6
 16 17  1  0
 17  7  1  0
 18 19  2  0
 18 16  1  0
 20 21  1  0
 21 22  2  0
 23 21  1  0
 23 24  1  0
 24 25  1  0
 25 26  1  0
 27 26  1  1
 27 28  1  0
 28 18  1  0
 29 27  1  0
 30 29  2  0
 31 29  1  0
M  END
$$$$
