MRR.pdb
     RDKit          3D

 31 30  0  0  1  0  0  0  0  0999 V2000
    7.5831  -13.1123   15.9036 C   0  0  0  0  0  0  0  0  0  0  0  0
    6.4155  -12.4537   17.1464 S   0  0  0  0  0  0  0  0  0  0  0  0
    7.2389  -12.6133   18.7670 C   0  0  0  0  0  0  0  0  0  0  0  0
    8.1876  -13.7656   18.7923 C   0  0  0  0  0  0  0  0  0  0  0  0
    8.7267  -14.0978   20.1643 C   0  0  2  0  0  0  0  0  0  0  0  0
    9.0440  -12.8362   20.7943 N   0  0  0  0  0  0  0  0  0  0  0  0
    9.9600  -14.9216   19.9939 C   0  0  0  0  0  0  0  0  0  0  0  0
    9.9291  -16.0853   19.5257 O   0  0  0  0  0  0  0  0  0  0  0  0
   15.5157  -16.3245   14.4812 N   0  0  0  0  0  0  0  0  0  0  0  0
   15.3708  -15.8749   15.8149 C   0  0  0  0  0  0  0  0  0  0  0  0
   15.6268  -16.6598   16.7946 N   0  0  0  0  0  0  0  0  0  0  0  0
   14.9418  -14.5558   16.0841 N   0  0  0  0  0  0  0  0  0  0  0  0
   14.7621  -14.1405   17.4487 C   0  0  0  0  0  0  0  0  0  0  0  0
   13.6420  -14.9042   18.0950 C   0  0  0  0  0  0  0  0  0  0  0  0
   13.4907  -14.4527   19.5167 C   0  0  0  0  0  0  0  0  0  0  0  0
   12.3814  -15.1657   20.2634 C   0  0  2  0  0  0  0  0  0  0  0  0
   11.2220  -14.3415   20.3873 N   0  0  0  0  0  0  0  0  0  0  0  0
   12.9623  -15.4923   21.6129 C   0  0  0  0  0  0  0  0  0  0  0  0
   13.2260  -14.5530   22.4322 O   0  0  0  0  0  0  0  0  0  0  0  0
   15.5747  -16.3608   17.7877 N   0  0  0  0  0  0  0  0  0  0  0  0
   10.7834  -22.0769   26.3912 C   0  0  0  0  0  0  0  0  0  0  0  0
   12.1546  -22.0642   26.7998 N   0  0  0  0  0  0  0  0  0  0  0  0
   12.5364  -22.6946   27.8324 N   0  0  0  0  0  0  0  0  0  0  0  0
   13.0684  -21.3278   26.0194 C   0  0  0  0  0  0  0  0  0  0  0  0
   12.6240  -20.6539   24.7767 C   0  0  0  0  0  0  0  0  0  0  0  0
   13.3525  -19.3665   24.6621 C   0  0  0  0  0  0  0  0  0  0  0  0
   13.0662  -18.5027   23.5330 C   0  0  1  0  0  0  0  0  0  0  0  0
   13.7541  -17.2066   23.2739 N   0  0  0  0  0  0  0  0  0  0  0  0
   13.1927  -16.8333   21.9183 C   0  0  0  0  0  0  0  0  0  0  0  0
   15.1947  -17.4105   22.9761 O   0  0  0  0  0  0  0  0  0  0  0  0
   16.1456  -17.1743   23.7411 O   0  0  0  0  0  0  0  0  0  0  0  0
  1  2  1  0
  2  3  1  0
  4  3  1  0
  5  4  1  0
  5  6  1  6
  7  8  2  0
  7  5  1  0
  9 10  1  0
 10 12  1  0
 11 10  2  0
 12 13  1  0
 13 14  1  0
 14 15  1  0
 16 15  1  6
 16 17  1  0
 17  7  1  0
 18 19  2  0
 18 16  1  0
 20 21  1  0
 21 22  2  0
 23 21  1  0
 23 24  1  0
 24 25  1  0
 25 26  1  0
 27 26  1  1
 27 28  1  0
 28 18  1  0
 29 27  1  0
 30 29  2  0
 31 29  1  0
M  END
$$$$
