MRR.pdb
     RDKit          3D

 31 30  0  0  1  0  0  0  0  0999 V2000
    8.9234  -13.1411   27.9598 C   0  0  0  0  0  0  0  0  0  0  0  0
    7.1628  -13.6199   28.0734 S   0  0  0  0  0  0  0  0  0  0  0  0
    7.1197  -15.4441   28.0564 C   0  0  0  0  0  0  0  0  0  0  0  0
    7.7083  -15.9979   26.8013 C   0  0  0  0  0  0  0  0  0  0  0  0
    6.6991  -16.6112   25.8585 C   0  0  2  0  0  0  0  0  0  0  0  0
    6.4528  -17.9515   26.3403 N   0  0  0  0  0  0  0  0  0  0  0  0
    7.3000  -16.6490   24.4924 C   0  0  0  0  0  0  0  0  0  0  0  0
    8.0736  -17.5664   24.1257 O   0  0  0  0  0  0  0  0  0  0  0  0
    8.7474  -12.4243   17.5564 N   0  0  0  0  0  0  0  0  0  0  0  0
    8.6048  -13.7867   17.2023 C   0  0  0  0  0  0  0  0  0  0  0  0
    9.3654  -14.3078   16.3128 N   0  0  0  0  0  0  0  0  0  0  0  0
    7.6224  -14.5898   17.8238 N   0  0  0  0  0  0  0  0  0  0  0  0
    7.0243  -14.1429   19.0525 C   0  0  0  0  0  0  0  0  0  0  0  0
    7.9954  -14.2619   20.1920 C   0  0  0  0  0  0  0  0  0  0  0  0
    7.2360  -14.3810   21.4792 C   0  0  0  0  0  0  0  0  0  0  0  0
    7.7122  -15.5186   22.3598 C   0  0  2  0  0  0  0  0  0  0  0  0
    6.9673  -15.5841   23.5763 N   0  0  0  0  0  0  0  0  0  0  0  0
    9.1644  -15.2276   22.6273 C   0  0  0  0  0  0  0  0  0  0  0  0
    9.4849  -14.3639   23.5074 O   0  0  0  0  0  0  0  0  0  0  0  0
    9.3227  -15.3115   16.0495 N   0  0  0  0  0  0  0  0  0  0  0  0
   14.5793  -17.4636   26.9852 C   0  0  0  0  0  0  0  0  0  0  0  0
   13.3440  -17.5548   27.7017 N   0  0  0  0  0  0  0  0  0  0  0  0
   13.3267  -17.7302   28.9580 N   0  0  0  0  0  0  0  0  0  0  0  0
   12.1462  -17.4448   26.9672 C   0  0  0  0  0  0  0  0  0  0  0  0
   11.9717  -18.1879   25.6971 C   0  0  0  0  0  0  0  0  0  0  0  0
   12.3253  -17.2809   24.5776 C   0  0  0  0  0  0  0  0  0  0  0  0
   11.3189  -16.9861   23.5759 C   0  0  2  0  0  0  0  0  0  0  0  0
   11.5276  -16.0637   22.4245 N   0  0  0  0  0  0  0  0  0  0  0  0
   10.1182  -15.9271   21.8886 C   0  0  0  0  0  0  0  0  0  0  0  0
   12.2279  -16.7462   21.3067 O   0  0  0  0  0  0  0  0  0  0  0  0
   11.7253  -17.5532   20.5060 O   0  0  0  0  0  0  0  0  0  0  0  0
  1  2  1  0
  2  3  1  0
  4  3  1  0
  5  4  1  0
  5  6  1  1
  7  8  2  0
  7  5  1  0
  9 10  1  0
 10 12  1  0
 11 10  2  0
 12 13  1  0
 13 14  1  0
 14 15  1  0
 16 15  1  6
 16 17  1  0
 17  7  1  0
 18 19  2  0
 18 16  1  0
 20 21  1  0
 21 22  2  0
 23 21  1  0
 23 24  1  0
 24 25  1  0
 25 26  1  0
 27 26  1  1
 27 28  1  0
 28 18  1  0
 29 27  1  0
 30 29  2  0
 31 29  1  0
M  END
$$$$
