MRR.pdb
     RDKit          3D

 31 30  0  0  1  0  0  0  0  0999 V2000
    6.0592  -10.7491   25.4735 C   0  0  0  0  0  0  0  0  0  0  0  0
    5.8108  -11.3712   27.1743 S   0  0  0  0  0  0  0  0  0  0  0  0
    5.5643  -13.1739   27.0359 C   0  0  0  0  0  0  0  0  0  0  0  0
    6.4422  -13.7716   25.9869 C   0  0  0  0  0  0  0  0  0  0  0  0
    6.1102  -15.2043   25.6397 C   0  0  2  0  0  0  0  0  0  0  0  0
    6.3336  -15.9772   26.8405 N   0  0  0  0  0  0  0  0  0  0  0  0
    7.0340  -15.6470   24.5538 C   0  0  0  0  0  0  0  0  0  0  0  0
    7.7660  -16.6597   24.6680 O   0  0  0  0  0  0  0  0  0  0  0  0
    9.2506  -14.6083   15.0635 N   0  0  0  0  0  0  0  0  0  0  0  0
    8.7666  -14.0311   16.2612 C   0  0  0  0  0  0  0  0  0  0  0  0
    8.2320  -12.8669   16.2494 N   0  0  0  0  0  0  0  0  0  0  0  0
    8.8666  -14.7300   17.4852 N   0  0  0  0  0  0  0  0  0  0  0  0
    8.2941  -14.1539   18.6715 C   0  0  0  0  0  0  0  0  0  0  0  0
    8.5334  -15.0379   19.8619 C   0  0  0  0  0  0  0  0  0  0  0  0
    7.7700  -14.5037   21.0366 C   0  0  0  0  0  0  0  0  0  0  0  0
    7.8999  -15.3575   22.2818 C   0  0  2  0  0  0  0  0  0  0  0  0
    7.0718  -14.8698   23.3378 N   0  0  0  0  0  0  0  0  0  0  0  0
    9.3558  -15.2873   22.6567 C   0  0  0  0  0  0  0  0  0  0  0  0
    9.8328  -14.2105   23.1425 O   0  0  0  0  0  0  0  0  0  0  0  0
    7.8559  -12.4084   17.1019 N   0  0  0  0  0  0  0  0  0  0  0  0
   11.4243  -21.1041   28.3100 C   0  0  0  0  0  0  0  0  0  0  0  0
   11.6856  -19.7287   28.0138 N   0  0  0  0  0  0  0  0  0  0  0  0
   12.5196  -19.0587   28.6957 N   0  0  0  0  0  0  0  0  0  0  0  0
   10.9860  -19.1410   26.9408 C   0  0  0  0  0  0  0  0  0  0  0  0
   11.5314  -19.2015   25.5642 C   0  0  0  0  0  0  0  0  0  0  0  0
   11.4424  -17.8446   24.9708 C   0  0  0  0  0  0  0  0  0  0  0  0
   11.7521  -17.6784   23.5639 C   0  0  2  0  0  0  0  0  0  0  0  0
   11.6075  -16.3956   22.8198 N   0  0  0  0  0  0  0  0  0  0  0  0
   10.1386  -16.4235   22.4541 C   0  0  0  0  0  0  0  0  0  0  0  0
   12.2673  -16.4653   21.4911 O   0  0  0  0  0  0  0  0  0  0  0  0
   11.8241  -17.0323   20.4776 O   0  0  0  0  0  0  0  0  0  0  0  0
  1  2  1  0
  2  3  1  0
  4  3  1  0
  5  4  1  0
  5  6  1  1
  7  8  2  0
  7  5  1  0
  9 10  1  0
 10 12  1  0
 11 10  2  0
 12 13  1  0
 13 14  1  0
 14 15  1  0
 16 15  1  6
 16 17  1  0
 17  7  1  0
 18 19  2  0
 18 16  1  0
 20 21  1  0
 21 22  2  0
 23 21  1  0
 23 24  1  0
 24 25  1  0
 25 26  1  0
 27 26  1  1
 27 28  1  0
 28 18  1  0
 29 27  1  0
 30 29  2  0
 31 29  1  0
M  END
$$$$
