MRR.pdb
     RDKit          3D

 31 30  0  0  1  0  0  0  0  0999 V2000
    6.7538  -11.3540   26.1483 C   0  0  0  0  0  0  0  0  0  0  0  0
    6.2332  -12.3356   27.5998 S   0  0  0  0  0  0  0  0  0  0  0  0
    5.7761  -13.9868   26.9720 C   0  0  0  0  0  0  0  0  0  0  0  0
    6.6354  -14.3969   25.8223 C   0  0  0  0  0  0  0  0  0  0  0  0
    6.1179  -15.5903   25.0532 C   0  0  2  0  0  0  0  0  0  0  0  0
    6.1636  -16.7127   25.9626 N   0  0  0  0  0  0  0  0  0  0  0  0
    7.0234  -15.8233   23.8893 C   0  0  0  0  0  0  0  0  0  0  0  0
    8.0256  -16.5749   23.9599 O   0  0  0  0  0  0  0  0  0  0  0  0
    9.4062  -14.7029   15.0985 N   0  0  0  0  0  0  0  0  0  0  0  0
    8.6535  -14.5793   16.2902 C   0  0  0  0  0  0  0  0  0  0  0  0
    7.7912  -15.4722   16.6072 N   0  0  0  0  0  0  0  0  0  0  0  0
    8.8421  -13.4705   17.1454 N   0  0  0  0  0  0  0  0  0  0  0  0
    8.0098  -13.3320   18.3095 C   0  0  0  0  0  0  0  0  0  0  0  0
    8.3661  -14.3602   19.3446 C   0  0  0  0  0  0  0  0  0  0  0  0
    7.4106  -14.2558   20.4954 C   0  0  0  0  0  0  0  0  0  0  0  0
    7.6811  -15.2580   21.5994 C   0  0  2  0  0  0  0  0  0  0  0  0
    6.7183  -15.1514   22.6485 N   0  0  0  0  0  0  0  0  0  0  0  0
    9.0639  -14.9324   22.0962 C   0  0  0  0  0  0  0  0  0  0  0  0
    9.2414  -13.9290   22.8610 O   0  0  0  0  0  0  0  0  0  0  0  0
    7.2700  -15.4617   17.5054 N   0  0  0  0  0  0  0  0  0  0  0  0
   11.4798  -18.4828   29.0241 C   0  0  0  0  0  0  0  0  0  0  0  0
   12.2489  -17.3986   28.4944 N   0  0  0  0  0  0  0  0  0  0  0  0
   12.7556  -16.5206   29.2573 N   0  0  0  0  0  0  0  0  0  0  0  0
   12.4250  -17.3358   27.0975 C   0  0  0  0  0  0  0  0  0  0  0  0
   11.3352  -16.8415   26.2235 C   0  0  0  0  0  0  0  0  0  0  0  0
   11.8110  -16.8880   24.8189 C   0  0  0  0  0  0  0  0  0  0  0  0
   10.9279  -16.4183   23.7689 C   0  0  1  0  0  0  0  0  0  0  0  0
   11.3938  -15.7879   22.5017 N   0  0  0  0  0  0  0  0  0  0  0  0
   10.1144  -15.7561   21.6929 C   0  0  0  0  0  0  0  0  0  0  0  0
   12.2432  -16.7193   21.7165 O   0  0  0  0  0  0  0  0  0  0  0  0
   13.4858  -16.7502   21.7042 O   0  0  0  0  0  0  0  0  0  0  0  0
  1  2  1  0
  2  3  1  0
  4  3  1  0
  5  4  1  0
  5  6  1  1
  7  8  2  0
  7  5  1  0
  9 10  1  0
 10 12  1  0
 11 10  2  0
 12 13  1  0
 13 14  1  0
 14 15  1  0
 16 15  1  6
 16 17  1  0
 17  7  1  0
 18 19  2  0
 18 16  1  0
 20 21  1  0
 21 22  2  0
 23 21  1  0
 23 24  1  0
 24 25  1  0
 25 26  1  0
 27 26  1  1
 27 28  1  0
 28 18  1  0
 29 27  1  0
 30 29  2  0
 31 29  1  0
M  END
$$$$
