MRR.pdb
     RDKit          3D

 31 30  0  0  1  0  0  0  0  0999 V2000
    8.8481  -11.2070   19.8471 C   0  0  0  0  0  0  0  0  0  0  0  0
    7.2768  -11.5182   18.9662 S   0  0  0  0  0  0  0  0  0  0  0  0
    7.4747  -13.1125   18.1010 C   0  0  0  0  0  0  0  0  0  0  0  0
    8.0342  -14.1631   19.0019 C   0  0  0  0  0  0  0  0  0  0  0  0
    8.4562  -15.4297   18.2940 C   0  0  2  0  0  0  0  0  0  0  0  0
    7.2486  -16.0249   17.7682 N   0  0  0  0  0  0  0  0  0  0  0  0
    9.0914  -16.3349   19.2968 C   0  0  0  0  0  0  0  0  0  0  0  0
    8.4336  -16.8901   20.2098 O   0  0  0  0  0  0  0  0  0  0  0  0
   13.4654  -22.6094   17.3517 N   0  0  0  0  0  0  0  0  0  0  0  0
   13.9407  -21.4286   17.9696 C   0  0  0  0  0  0  0  0  0  0  0  0
   14.7286  -20.6394   17.3389 N   0  0  0  0  0  0  0  0  0  0  0  0
   13.5536  -21.1045   19.2893 N   0  0  0  0  0  0  0  0  0  0  0  0
   14.0268  -19.8820   19.8797 C   0  0  0  0  0  0  0  0  0  0  0  0
   12.9057  -19.1499   20.5598 C   0  0  0  0  0  0  0  0  0  0  0  0
   12.2554  -18.2199   19.5799 C   0  0  0  0  0  0  0  0  0  0  0  0
   11.0987  -17.4356   20.1657 C   0  0  2  0  0  0  0  0  0  0  0  0
   10.5126  -16.5668   19.1958 N   0  0  0  0  0  0  0  0  0  0  0  0
   11.6913  -16.6542   21.3073 C   0  0  0  0  0  0  0  0  0  0  0  0
   12.4864  -15.6880   21.0671 O   0  0  0  0  0  0  0  0  0  0  0  0
   15.1199  -19.7747   17.7604 N   0  0  0  0  0  0  0  0  0  0  0  0
   10.5147  -16.2837   30.3865 C   0  0  0  0  0  0  0  0  0  0  0  0
   10.6886  -15.4011   29.2738 N   0  0  0  0  0  0  0  0  0  0  0  0
   11.5209  -14.4447   29.3199 N   0  0  0  0  0  0  0  0  0  0  0  0
    9.9049  -15.6269   28.1244 C   0  0  0  0  0  0  0  0  0  0  0  0
   10.1701  -16.7939   27.2505 C   0  0  0  0  0  0  0  0  0  0  0  0
   11.2230  -16.4135   26.2769 C   0  0  0  0  0  0  0  0  0  0  0  0
   10.9671  -16.6091   24.8629 C   0  0  1  0  0  0  0  0  0  0  0  0
   11.9415  -16.2869   23.7826 N   0  0  0  0  0  0  0  0  0  0  0  0
   11.3406  -17.0248   22.6051 C   0  0  0  0  0  0  0  0  0  0  0  0
   13.2267  -17.0032   23.9842 O   0  0  0  0  0  0  0  0  0  0  0  0
   13.4471  -18.2027   23.7437 O   0  0  0  0  0  0  0  0  0  0  0  0
  1  2  1  0
  2  3  1  0
  4  3  1  0
  5  4  1  0
  5  6  1  1
  7  8  2  0
  7  5  1  0
  9 10  1  0
 10 12  1  0
 11 10  2  0
 12 13  1  0
 13 14  1  0
 14 15  1  0
 16 15  1  6
 16 17  1  0
 17  7  1  0
 18 19  2  0
 18 16  1  0
 20 21  1  0
 21 22  2  0
 23 21  1  0
 23 24  1  0
 24 25  1  0
 25 26  1  0
 27 26  1  6
 27 28  1  0
 28 18  1  0
 29 27  1  0
 30 29  2  0
 31 29  1  0
M  END
$$$$
