MRR.pdb
     RDKit          3D

 31 30  0  0  1  0  0  0  0  0999 V2000
    6.3620  -11.6437   26.5815 C   0  0  0  0  0  0  0  0  0  0  0  0
    5.6541  -13.2406   27.1205 S   0  0  0  0  0  0  0  0  0  0  0  0
    7.0634  -14.3000   27.5908 C   0  0  0  0  0  0  0  0  0  0  0  0
    7.6731  -14.9663   26.4023 C   0  0  0  0  0  0  0  0  0  0  0  0
    6.7226  -15.8506   25.6289 C   0  0  2  0  0  0  0  0  0  0  0  0
    6.6228  -17.0879   26.3694 N   0  0  0  0  0  0  0  0  0  0  0  0
    7.3085  -16.0958   24.2779 C   0  0  0  0  0  0  0  0  0  0  0  0
    8.0147  -17.1020   24.0262 O   0  0  0  0  0  0  0  0  0  0  0  0
   10.3769  -13.7619   17.8976 N   0  0  0  0  0  0  0  0  0  0  0  0
    9.2591  -13.8450   17.0342 C   0  0  0  0  0  0  0  0  0  0  0  0
    9.4018  -14.2491   15.8268 N   0  0  0  0  0  0  0  0  0  0  0  0
    7.9718  -13.4836   17.4911 N   0  0  0  0  0  0  0  0  0  0  0  0
    7.7956  -13.1050   18.8668 C   0  0  0  0  0  0  0  0  0  0  0  0
    8.2528  -14.2027   19.7842 C   0  0  0  0  0  0  0  0  0  0  0  0
    7.5073  -14.1063   21.0815 C   0  0  0  0  0  0  0  0  0  0  0  0
    7.7978  -15.2494   22.0329 C   0  0  2  0  0  0  0  0  0  0  0  0
    7.0420  -15.1301   23.2385 N   0  0  0  0  0  0  0  0  0  0  0  0
    9.2752  -15.1667   22.3078 C   0  0  0  0  0  0  0  0  0  0  0  0
    9.7243  -14.2632   23.0857 O   0  0  0  0  0  0  0  0  0  0  0  0
    8.6049  -14.3662   15.1714 N   0  0  0  0  0  0  0  0  0  0  0  0
    9.5408  -19.6758   25.9753 C   0  0  0  0  0  0  0  0  0  0  0  0
   10.5962  -19.1604   26.7927 N   0  0  0  0  0  0  0  0  0  0  0  0
   10.4297  -18.9728   28.0363 N   0  0  0  0  0  0  0  0  0  0  0  0
   11.8271  -18.8665   26.1723 C   0  0  0  0  0  0  0  0  0  0  0  0
   11.9685  -18.9594   24.7001 C   0  0  0  0  0  0  0  0  0  0  0  0
   11.8853  -17.5883   24.1394 C   0  0  0  0  0  0  0  0  0  0  0  0
   11.7206  -17.4307   22.7072 C   0  0  2  0  0  0  0  0  0  0  0  0
   11.5861  -16.1161   22.0189 N   0  0  0  0  0  0  0  0  0  0  0  0
   10.1085  -16.0984   21.6895 C   0  0  0  0  0  0  0  0  0  0  0  0
   12.2116  -16.1458   20.6723 O   0  0  0  0  0  0  0  0  0  0  0  0
   11.6361  -16.3905   19.5980 O   0  0  0  0  0  0  0  0  0  0  0  0
  1  2  1  0
  2  3  1  0
  4  3  1  0
  5  4  1  0
  5  6  1  1
  7  8  2  0
  7  5  1  0
  9 10  1  0
 10 12  1  0
 11 10  2  0
 12 13  1  0
 13 14  1  0
 14 15  1  0
 16 15  1  6
 16 17  1  0
 17  7  1  0
 18 19  2  0
 18 16  1  0
 20 21  1  0
 21 22  2  0
 23 21  1  0
 23 24  1  0
 24 25  1  0
 25 26  1  0
 27 26  1  1
 27 28  1  0
 28 18  1  0
 29 27  1  0
 30 29  2  0
 31 29  1  0
M  END
$$$$
