AYL.pdb
     RDKit          3D

 26 26  0  0  1  0  0  0  0  0999 V2000
   24.4200  -19.5343  -19.1823 C   0  0  0  0  0  0  0  0  0  0  0  0
   23.5007  -20.5329  -19.8579 C   0  0  2  0  0  0  0  0  0  0  0  0
   23.3468  -20.1257  -21.2313 N   0  0  0  0  0  0  0  0  0  0  0  0
   22.1776  -20.5814  -19.1709 C   0  0  0  0  0  0  0  0  0  0  0  0
   21.3154  -19.6851  -19.3257 O   0  0  0  0  0  0  0  0  0  0  0  0
   17.7686  -24.1003  -22.9532 O   0  0  0  0  0  0  0  0  0  0  0  0
   18.3221  -23.8690  -21.6865 C   0  0  0  0  0  0  0  0  0  0  0  0
   17.5899  -23.2972  -20.6682 C   0  0  0  0  0  0  0  0  0  0  0  0
   18.1295  -23.0659  -19.4156 C   0  0  0  0  0  0  0  0  0  0  0  0
   19.4498  -23.4113  -19.1475 C   0  0  0  0  0  0  0  0  0  0  0  0
   20.0325  -23.1308  -17.8316 C   0  0  0  0  0  0  0  0  0  0  0  0
   20.5614  -21.7735  -17.6158 C   0  0  2  0  0  0  0  0  0  0  0  0
   21.8645  -21.6543  -18.3191 N   0  0  0  0  0  0  0  0  0  0  0  0
   20.6681  -21.2359  -16.2740 C   0  0  0  0  0  0  0  0  0  0  0  0
   21.4798  -21.8517  -15.4831 O   0  0  0  0  0  0  0  0  0  0  0  0
   20.1601  -23.9802  -20.1789 C   0  0  0  0  0  0  0  0  0  0  0  0
   19.6264  -24.2112  -21.4248 C   0  0  0  0  0  0  0  0  0  0  0  0
   19.2124  -17.4849  -16.0004 C   0  0  0  0  0  0  0  0  0  0  0  0
   20.2550  -17.1733  -14.9231 C   0  0  2  0  0  0  0  0  0  0  0  0
   20.9549  -15.9026  -15.1937 C   0  0  0  0  0  0  0  0  0  0  0  0
   21.0423  -18.3528  -14.5280 C   0  0  0  0  0  0  0  0  0  0  0  0
   20.3563  -19.6568  -14.3449 C   0  0  2  0  0  0  0  0  0  0  0  0
   20.0207  -20.1341  -15.7035 N   0  0  0  0  0  0  0  0  0  0  0  0
   19.1418  -19.6716  -13.5484 C   0  0  0  0  0  0  0  0  0  0  0  0
   19.0836  -19.3618  -12.1907 O   0  0  0  0  0  0  0  0  0  0  0  0
   18.0288  -19.9824  -14.0679 O   0  0  0  0  0  0  0  0  0  0  0  0
  2  1  1  1
  3  2  1  0
  4 13  1  0
  4  2  1  0
  5  4  2  0
  7  6  1  0
  8  7  2  0
  9  8  1  0
 10 16  1  0
 10  9  2  0
 11 10  1  0
 12 11  1  1
 12 13  1  0
 14 23  1  0
 14 12  1  0
 15 14  2  0
 16 17  2  0
 17  7  1  0
 19 18  1  6
 19 21  1  0
 20 19  1  0
 22 21  1  6
 22 23  1  0
 22 24  1  0
 24 25  1  0
 26 24  2  0
M  END
$$$$
