AYL.pdb
     RDKit          3D

 26 26  0  0  1  0  0  0  0  0999 V2000
   24.3183  -10.0930  -17.9227 C   0  0  0  0  0  0  0  0  0  0  0  0
   23.3128  -10.7442  -16.9932 C   0  0  2  0  0  0  0  0  0  0  0  0
   22.9598  -12.0220  -17.5574 N   0  0  0  0  0  0  0  0  0  0  0  0
   22.1040   -9.8845  -16.8373 C   0  0  0  0  0  0  0  0  0  0  0  0
   21.2989   -9.6932  -17.7786 O   0  0  0  0  0  0  0  0  0  0  0  0
   16.4318  -13.2086  -15.8815 O   0  0  0  0  0  0  0  0  0  0  0  0
   17.2643  -12.1511  -15.4902 C   0  0  0  0  0  0  0  0  0  0  0  0
   16.9886  -10.8452  -15.8345 C   0  0  0  0  0  0  0  0  0  0  0  0
   17.8056   -9.7964  -15.4519 C   0  0  0  0  0  0  0  0  0  0  0  0
   18.9475  -10.0385  -14.6957 C   0  0  0  0  0  0  0  0  0  0  0  0
   19.8335   -8.9312  -14.3232 C   0  0  0  0  0  0  0  0  0  0  0  0
   20.6718   -8.3636  -15.3925 C   0  0  2  0  0  0  0  0  0  0  0  0
   21.8377   -9.2588  -15.6076 N   0  0  0  0  0  0  0  0  0  0  0  0
   21.1092   -6.9834  -15.3230 C   0  0  0  0  0  0  0  0  0  0  0  0
   21.9805   -6.7137  -14.4111 O   0  0  0  0  0  0  0  0  0  0  0  0
   19.2015  -11.3491  -14.3646 C   0  0  0  0  0  0  0  0  0  0  0  0
   18.3914  -12.3934  -14.7434 C   0  0  0  0  0  0  0  0  0  0  0  0
   20.9670   -1.6931  -18.4503 C   0  0  0  0  0  0  0  0  0  0  0  0
   21.6525   -2.4479  -17.3079 C   0  0  2  0  0  0  0  0  0  0  0  0
   23.0931   -2.1359  -17.2360 C   0  0  0  0  0  0  0  0  0  0  0  0
   21.2192   -3.8511  -17.2056 C   0  0  0  0  0  0  0  0  0  0  0  0
   21.3064   -4.5452  -15.8959 C   0  0  2  0  0  0  0  0  0  0  0  0
   20.7288   -5.8895  -16.1086 N   0  0  0  0  0  0  0  0  0  0  0  0
   20.6278   -3.9359  -14.7656 C   0  0  0  0  0  0  0  0  0  0  0  0
   19.3261   -4.2379  -14.3692 O   0  0  0  0  0  0  0  0  0  0  0  0
   21.2071   -3.0613  -14.0552 O   0  0  0  0  0  0  0  0  0  0  0  0
  2  1  1  6
  3  2  1  0
  4 13  1  0
  4  2  1  0
  5  4  2  0
  7  6  1  0
  8  7  2  0
  9  8  1  0
 10 16  1  0
 10  9  2  0
 11 10  1  0
 12 11  1  1
 12 13  1  0
 14 23  1  0
 14 12  1  0
 15 14  2  0
 16 17  2  0
 17  7  1  0
 19 18  1  6
 19 21  1  0
 20 19  1  0
 22 21  1  6
 22 23  1  0
 22 24  1  0
 24 25  1  0
 26 24  2  0
M  END
$$$$
