AYL.pdb
     RDKit          3D

 26 26  0  0  1  0  0  0  0  0999 V2000
   14.4397   -5.9332  -15.5324 C   0  0  0  0  0  0  0  0  0  0  0  0
   14.8453   -7.2547  -14.9095 C   0  0  2  0  0  0  0  0  0  0  0  0
   14.0163   -7.4640  -13.7499 N   0  0  0  0  0  0  0  0  0  0  0  0
   16.2879   -7.2391  -14.5306 C   0  0  0  0  0  0  0  0  0  0  0  0
   16.6960   -6.6677  -13.4925 O   0  0  0  0  0  0  0  0  0  0  0  0
   24.7948  -10.1398  -14.8260 O   0  0  0  0  0  0  0  0  0  0  0  0
   23.4178   -9.9124  -14.9548 C   0  0  0  0  0  0  0  0  0  0  0  0
   22.5687   -9.9681  -13.8704 C   0  0  0  0  0  0  0  0  0  0  0  0
   21.2087   -9.7448  -13.9899 C   0  0  0  0  0  0  0  0  0  0  0  0
   20.6537   -9.4530  -15.2314 C   0  0  0  0  0  0  0  0  0  0  0  0
   19.2070   -9.2544  -15.3639 C   0  0  0  0  0  0  0  0  0  0  0  0
   18.6857   -7.9217  -15.0164 C   0  0  2  0  0  0  0  0  0  0  0  0
   17.2378   -7.8774  -15.3460 N   0  0  0  0  0  0  0  0  0  0  0  0
   19.3455   -6.7283  -15.5078 C   0  0  0  0  0  0  0  0  0  0  0  0
   20.5657   -6.5609  -15.1249 O   0  0  0  0  0  0  0  0  0  0  0  0
   21.5206   -9.4030  -16.2981 C   0  0  0  0  0  0  0  0  0  0  0  0
   22.8727   -9.6244  -16.1823 C   0  0  0  0  0  0  0  0  0  0  0  0
   19.8875   -3.1796  -20.3191 C   0  0  0  0  0  0  0  0  0  0  0  0
   20.3380   -3.3578  -18.8665 C   0  0  2  0  0  0  0  0  0  0  0  0
   21.7994   -3.2070  -18.7270 C   0  0  0  0  0  0  0  0  0  0  0  0
   19.6679   -4.4814  -18.1913 C   0  0  0  0  0  0  0  0  0  0  0  0
   19.6732   -4.5456  -16.7080 C   0  0  2  0  0  0  0  0  0  0  0  0
   18.8546   -5.7233  -16.3488 N   0  0  0  0  0  0  0  0  0  0  0  0
   19.1558   -3.3982  -15.9834 C   0  0  0  0  0  0  0  0  0  0  0  0
   19.9439   -2.3807  -15.4481 O   0  0  0  0  0  0  0  0  0  0  0  0
   17.9112   -3.2595  -15.7908 O   0  0  0  0  0  0  0  0  0  0  0  0
  2  1  1  1
  3  2  1  0
  4 13  1  0
  4  2  1  0
  5  4  2  0
  7  6  1  0
  8  7  2  0
  9  8  1  0
 10 16  1  0
 10  9  2  0
 11 10  1  0
 12 11  1  6
 12 13  1  0
 14 23  1  0
 14 12  1  0
 15 14  2  0
 16 17  2  0
 17  7  1  0
 19 18  1  6
 19 21  1  0
 20 19  1  0
 22 21  1  6
 22 23  1  0
 22 24  1  0
 24 25  1  0
 26 24  2  0
M  END
$$$$
