AYL.pdb
     RDKit          3D

 26 26  0  0  1  0  0  0  0  0999 V2000
   26.8942  -21.7522  -18.5352 C   0  0  0  0  0  0  0  0  0  0  0  0
   27.5564  -22.3169  -17.2936 C   0  0  2  0  0  0  0  0  0  0  0  0
   28.1407  -23.5851  -17.6482 N   0  0  0  0  0  0  0  0  0  0  0  0
   26.5621  -22.4833  -16.1942 C   0  0  0  0  0  0  0  0  0  0  0  0
   25.9727  -23.5705  -15.9905 O   0  0  0  0  0  0  0  0  0  0  0  0
   22.9043  -20.8194   -8.2090 O   0  0  0  0  0  0  0  0  0  0  0  0
   23.6231  -20.8065   -9.4121 C   0  0  0  0  0  0  0  0  0  0  0  0
   24.9030  -21.3110   -9.4981 C   0  0  0  0  0  0  0  0  0  0  0  0
   25.6184  -21.3017  -10.6820 C   0  0  0  0  0  0  0  0  0  0  0  0
   25.0530  -20.7727  -11.8374 C   0  0  0  0  0  0  0  0  0  0  0  0
   25.8258  -20.7281  -13.0827 C   0  0  0  0  0  0  0  0  0  0  0  0
   25.3014  -21.5067  -14.2172 C   0  0  2  0  0  0  0  0  0  0  0  0
   26.2598  -21.4033  -15.3476 N   0  0  0  0  0  0  0  0  0  0  0  0
   23.9484  -21.2889  -14.6894 C   0  0  0  0  0  0  0  0  0  0  0  0
   23.7590  -20.2178  -15.3825 O   0  0  0  0  0  0  0  0  0  0  0  0
   23.7754  -20.2754  -11.7269 C   0  0  0  0  0  0  0  0  0  0  0  0
   23.0619  -20.2834  -10.5515 C   0  0  0  0  0  0  0  0  0  0  0  0
   21.4841  -21.0077  -18.0141 C   0  0  0  0  0  0  0  0  0  0  0  0
   21.7349  -22.3952  -17.4169 C   0  0  2  0  0  0  0  0  0  0  0  0
   21.5773  -23.4596  -18.4269 C   0  0  0  0  0  0  0  0  0  0  0  0
   21.1174  -22.5701  -16.0920 C   0  0  0  0  0  0  0  0  0  0  0  0
   21.4791  -21.6397  -14.9929 C   0  0  2  0  0  0  0  0  0  0  0  0
   22.8061  -22.0773  -14.5095 N   0  0  0  0  0  0  0  0  0  0  0  0
   20.5842  -21.5673  -13.8513 C   0  0  0  0  0  0  0  0  0  0  0  0
   20.8365  -22.1518  -12.6113 O   0  0  0  0  0  0  0  0  0  0  0  0
   19.4826  -20.9463  -13.9285 O   0  0  0  0  0  0  0  0  0  0  0  0
  2  1  1  6
  3  2  1  0
  4 13  1  0
  4  2  1  0
  5  4  2  0
  7  6  1  0
  8  7  2  0
  9  8  1  0
 10 16  1  0
 10  9  2  0
 11 10  1  0
 12 11  1  1
 12 13  1  0
 14 23  1  0
 14 12  1  0
 15 14  2  0
 16 17  2  0
 17  7  1  0
 19 18  1  6
 19 21  1  0
 20 19  1  0
 22 21  1  6
 22 23  1  0
 22 24  1  0
 24 25  1  0
 26 24  2  0
M  END
$$$$
