AYL.pdb
     RDKit          3D

 26 26  0  0  1  0  0  0  0  0999 V2000
   23.9196  -10.9143  -22.5657 C   0  0  0  0  0  0  0  0  0  0  0  0
   24.1272  -10.7450  -21.0733 C   0  0  2  0  0  0  0  0  0  0  0  0
   24.6183  -11.9966  -20.5556 N   0  0  0  0  0  0  0  0  0  0  0  0
   22.8513  -10.3613  -20.4029 C   0  0  0  0  0  0  0  0  0  0  0  0
   21.7393  -10.4930  -20.9659 O   0  0  0  0  0  0  0  0  0  0  0  0
   16.5197  -10.7157  -14.5483 O   0  0  0  0  0  0  0  0  0  0  0  0
   17.5896  -10.7491  -15.4531 C   0  0  0  0  0  0  0  0  0  0  0  0
   18.8170  -11.2717  -15.1062 C   0  0  0  0  0  0  0  0  0  0  0  0
   19.8775  -11.3080  -15.9938 C   0  0  0  0  0  0  0  0  0  0  0  0
   19.7285  -10.8084  -17.2833 C   0  0  0  0  0  0  0  0  0  0  0  0
   20.8638  -10.8122  -18.2112 C   0  0  0  0  0  0  0  0  0  0  0  0
   21.6349   -9.5625  -18.3211 C   0  0  2  0  0  0  0  0  0  0  0  0
   22.8701   -9.8337  -19.1007 N   0  0  0  0  0  0  0  0  0  0  0  0
   21.9531   -8.7937  -17.1343 C   0  0  0  0  0  0  0  0  0  0  0  0
   23.0073   -9.1632  -16.4895 O   0  0  0  0  0  0  0  0  0  0  0  0
   18.4950  -10.2924  -17.6060 C   0  0  0  0  0  0  0  0  0  0  0  0
   17.4393  -10.2550  -16.7259 C   0  0  0  0  0  0  0  0  0  0  0  0
   21.2045   -4.6267  -13.5116 C   0  0  0  0  0  0  0  0  0  0  0  0
   22.2405   -4.6256  -14.6391 C   0  0  2  0  0  0  0  0  0  0  0  0
   22.6367   -3.2542  -15.0136 C   0  0  0  0  0  0  0  0  0  0  0  0
   21.9329   -5.5961  -15.7024 C   0  0  0  0  0  0  0  0  0  0  0  0
   21.7733   -7.0304  -15.3536 C   0  0  2  0  0  0  0  0  0  0  0  0
   21.2852   -7.6957  -16.5805 N   0  0  0  0  0  0  0  0  0  0  0  0
   20.8660   -7.3618  -14.2690 C   0  0  0  0  0  0  0  0  0  0  0  0
   21.2533   -7.5426  -12.9423 O   0  0  0  0  0  0  0  0  0  0  0  0
   19.6264   -7.5121  -14.4828 O   0  0  0  0  0  0  0  0  0  0  0  0
  2  1  1  6
  3  2  1  0
  4 13  1  0
  4  2  1  0
  5  4  2  0
  7  6  1  0
  8  7  2  0
  9  8  1  0
 10 16  1  0
 10  9  2  0
 11 10  1  0
 12 11  1  1
 12 13  1  0
 14 23  1  0
 14 12  1  0
 15 14  2  0
 16 17  2  0
 17  7  1  0
 19 18  1  1
 19 21  1  0
 20 19  1  0
 22 21  1  6
 22 23  1  0
 22 24  1  0
 24 25  1  0
 26 24  2  0
M  END
$$$$
