AYL.pdb
     RDKit          3D

 26 26  0  0  1  0  0  0  0  0999 V2000
   36.4808  -24.1935  -19.9864 C   0  0  0  0  0  0  0  0  0  0  0  0
   36.1153  -25.4904  -19.2913 C   0  0  2  0  0  0  0  0  0  0  0  0
   36.4821  -26.5741  -20.1669 N   0  0  0  0  0  0  0  0  0  0  0  0
   34.6564  -25.5316  -18.9836 C   0  0  0  0  0  0  0  0  0  0  0  0
   33.8021  -25.8234  -19.8529 O   0  0  0  0  0  0  0  0  0  0  0  0
   32.1280  -31.5824  -16.9994 O   0  0  0  0  0  0  0  0  0  0  0  0
   32.2228  -30.2019  -16.7764 C   0  0  0  0  0  0  0  0  0  0  0  0
   31.1079  -29.3914  -16.7598 C   0  0  0  0  0  0  0  0  0  0  0  0
   31.1938  -28.0283  -16.5403 C   0  0  0  0  0  0  0  0  0  0  0  0
   32.4312  -27.4302  -16.3267 C   0  0  0  0  0  0  0  0  0  0  0  0
   32.5255  -25.9800  -16.1323 C   0  0  0  0  0  0  0  0  0  0  0  0
   32.7595  -25.1632  -17.3351 C   0  0  2  0  0  0  0  0  0  0  0  0
   34.2009  -25.2383  -17.6870 N   0  0  0  0  0  0  0  0  0  0  0  0
   32.3056  -23.7875  -17.3835 C   0  0  0  0  0  0  0  0  0  0  0  0
   33.2143  -22.8880  -17.2141 O   0  0  0  0  0  0  0  0  0  0  0  0
   33.5287  -28.2591  -16.3478 C   0  0  0  0  0  0  0  0  0  0  0  0
   33.4463  -29.6142  -16.5658 C   0  0  0  0  0  0  0  0  0  0  0  0
   31.5882  -19.8279  -20.7819 C   0  0  0  0  0  0  0  0  0  0  0  0
   31.5386  -19.9540  -19.2567 C   0  0  2  0  0  0  0  0  0  0  0  0
   32.3412  -18.9059  -18.5969 C   0  0  0  0  0  0  0  0  0  0  0  0
   31.6593  -21.3455  -18.7914 C   0  0  0  0  0  0  0  0  0  0  0  0
   30.7637  -21.8312  -17.7114 C   0  0  2  0  0  0  0  0  0  0  0  0
   31.0174  -23.2831  -17.5946 N   0  0  0  0  0  0  0  0  0  0  0  0
   29.3349  -21.6350  -17.8836 C   0  0  0  0  0  0  0  0  0  0  0  0
   28.4645  -22.5876  -18.4106 O   0  0  0  0  0  0  0  0  0  0  0  0
   28.7853  -20.5425  -17.5526 O   0  0  0  0  0  0  0  0  0  0  0  0
  2  1  1  6
  3  2  1  0
  4 13  1  0
  4  2  1  0
  5  4  2  0
  7  6  1  0
  8  7  2  0
  9  8  1  0
 10 16  1  0
 10  9  2  0
 11 10  1  0
 12 11  1  1
 12 13  1  0
 14 23  1  0
 14 12  1  0
 15 14  2  0
 16 17  2  0
 17  7  1  0
 19 18  1  6
 19 21  1  0
 20 19  1  0
 22 21  1  6
 22 23  1  0
 22 24  1  0
 24 25  1  0
 26 24  2  0
M  END
$$$$
