AYL.pdb
     RDKit          3D

 26 26  0  0  1  0  0  0  0  0999 V2000
   29.1228  -19.5998  -13.9258 C   0  0  0  0  0  0  0  0  0  0  0  0
   27.6924  -20.0783  -14.0803 C   0  0  2  0  0  0  0  0  0  0  0  0
   27.1249  -19.3995  -15.2172 N   0  0  0  0  0  0  0  0  0  0  0  0
   26.9037  -19.7917  -12.8472 C   0  0  0  0  0  0  0  0  0  0  0  0
   26.5421  -18.6305  -12.5448 O   0  0  0  0  0  0  0  0  0  0  0  0
   20.6226  -19.0831  -14.5816 O   0  0  0  0  0  0  0  0  0  0  0  0
   21.5635  -19.6393  -13.7042 C   0  0  0  0  0  0  0  0  0  0  0  0
   22.4893  -20.5688  -14.1273 C   0  0  0  0  0  0  0  0  0  0  0  0
   23.4208  -21.1221  -13.2672 C   0  0  0  0  0  0  0  0  0  0  0  0
   23.4468  -20.7469  -11.9281 C   0  0  0  0  0  0  0  0  0  0  0  0
   24.4091  -21.3620  -11.0087 C   0  0  0  0  0  0  0  0  0  0  0  0
   25.6747  -20.6407  -10.7928 C   0  0  2  0  0  0  0  0  0  0  0  0
   26.5428  -20.8386  -11.9820 N   0  0  0  0  0  0  0  0  0  0  0  0
   26.4374  -20.8511   -9.5783 C   0  0  0  0  0  0  0  0  0  0  0  0
   27.0937  -21.9593   -9.5099 O   0  0  0  0  0  0  0  0  0  0  0  0
   22.5135  -19.8183  -11.5296 C   0  0  0  0  0  0  0  0  0  0  0  0
   21.5866  -19.2668  -12.3823 C   0  0  0  0  0  0  0  0  0  0  0  0
   28.6206  -18.1411   -4.5173 C   0  0  0  0  0  0  0  0  0  0  0  0
   28.4431  -19.4779   -5.2427 C   0  0  2  0  0  0  0  0  0  0  0  0
   29.6351  -20.3365   -5.1021 C   0  0  0  0  0  0  0  0  0  0  0  0
   27.8189  -19.3334   -6.5682 C   0  0  0  0  0  0  0  0  0  0  0  0
   27.1743  -20.5121   -7.2005 C   0  0  2  0  0  0  0  0  0  0  0  0
   26.5751  -20.0213   -8.4599 N   0  0  0  0  0  0  0  0  0  0  0  0
   26.1403  -21.1984   -6.4460 C   0  0  0  0  0  0  0  0  0  0  0  0
   24.7736  -21.0841   -6.6942 O   0  0  0  0  0  0  0  0  0  0  0  0
   26.4403  -21.9650   -5.4829 O   0  0  0  0  0  0  0  0  0  0  0  0
  2  1  1  1
  3  2  1  0
  4 13  1  0
  4  2  1  0
  5  4  2  0
  7  6  1  0
  8  7  2  0
  9  8  1  0
 10 16  1  0
 10  9  2  0
 11 10  1  0
 12 11  1  6
 12 13  1  0
 14 23  1  0
 14 12  1  0
 15 14  2  0
 16 17  2  0
 17  7  1  0
 19 18  1  6
 19 21  1  0
 20 19  1  0
 22 21  1  1
 22 23  1  0
 22 24  1  0
 24 25  1  0
 26 24  2  0
M  END
$$$$
