AYL.pdb
     RDKit          3D

 26 26  0  0  1  0  0  0  0  0999 V2000
   29.4864  -19.2057  -13.4576 C   0  0  0  0  0  0  0  0  0  0  0  0
   28.1927  -19.9478  -13.7307 C   0  0  2  0  0  0  0  0  0  0  0  0
   27.6469  -19.4364  -14.9620 N   0  0  0  0  0  0  0  0  0  0  0  0
   27.2288  -19.7594  -12.6082 C   0  0  0  0  0  0  0  0  0  0  0  0
   26.7069  -18.6472  -12.3603 O   0  0  0  0  0  0  0  0  0  0  0  0
   21.2814  -18.7491  -14.7223 O   0  0  0  0  0  0  0  0  0  0  0  0
   22.1108  -19.4221  -13.8149 C   0  0  0  0  0  0  0  0  0  0  0  0
   21.9937  -19.2415  -12.4533 C   0  0  0  0  0  0  0  0  0  0  0  0
   22.8087  -19.9024  -11.5518 C   0  0  0  0  0  0  0  0  0  0  0  0
   23.7854  -20.7824  -12.0057 C   0  0  0  0  0  0  0  0  0  0  0  0
   24.6742  -21.4532  -11.0517 C   0  0  0  0  0  0  0  0  0  0  0  0
   25.9039  -20.7366  -10.6739 C   0  0  2  0  0  0  0  0  0  0  0  0
   26.8792  -20.8464  -11.7892 N   0  0  0  0  0  0  0  0  0  0  0  0
   26.5564  -21.0212   -9.4113 C   0  0  0  0  0  0  0  0  0  0  0  0
   27.7141  -21.5842   -9.4896 O   0  0  0  0  0  0  0  0  0  0  0  0
   23.8831  -20.9461  -13.3679 C   0  0  0  0  0  0  0  0  0  0  0  0
   23.0744  -20.2907  -14.2662 C   0  0  0  0  0  0  0  0  0  0  0  0
   29.5187  -18.3588   -6.5894 C   0  0  0  0  0  0  0  0  0  0  0  0
   28.2106  -19.1068   -6.3175 C   0  0  2  0  0  0  0  0  0  0  0  0
   27.7946  -18.9817   -4.9071 C   0  0  0  0  0  0  0  0  0  0  0  0
   28.1605  -20.4291   -6.9626 C   0  0  0  0  0  0  0  0  0  0  0  0
   26.8962  -21.2069   -6.9289 C   0  0  2  0  0  0  0  0  0  0  0  0
   26.1173  -20.7686   -8.1067 N   0  0  0  0  0  0  0  0  0  0  0  0
   26.0536  -21.0699   -5.7539 C   0  0  0  0  0  0  0  0  0  0  0  0
   24.7700  -20.5266   -5.7612 O   0  0  0  0  0  0  0  0  0  0  0  0
   26.4601  -21.4501   -4.6158 O   0  0  0  0  0  0  0  0  0  0  0  0
  2  1  1  1
  3  2  1  0
  4 13  1  0
  4  2  1  0
  5  4  2  0
  7  6  1  0
  8  7  2  0
  9  8  1  0
 10 16  1  0
 10  9  2  0
 11 10  1  0
 12 11  1  6
 12 13  1  0
 14 23  1  0
 14 12  1  0
 15 14  2  0
 16 17  2  0
 17  7  1  0
 19 18  1  1
 19 21  1  0
 20 19  1  0
 22 21  1  1
 22 23  1  0
 22 24  1  0
 24 25  1  0
 26 24  2  0
M  END
$$$$
