AYL.pdb
     RDKit          3D

 26 26  0  0  1  0  0  0  0  0999 V2000
   26.9822  -19.2825  -15.0211 C   0  0  0  0  0  0  0  0  0  0  0  0
   27.5776  -20.0999  -13.8913 C   0  0  2  0  0  0  0  0  0  0  0  0
   27.4130  -21.4917  -14.2249 N   0  0  0  0  0  0  0  0  0  0  0  0
   26.9035  -19.7840  -12.5989 C   0  0  0  0  0  0  0  0  0  0  0  0
   26.7213  -18.6048  -12.2154 O   0  0  0  0  0  0  0  0  0  0  0  0
   19.9723  -18.6464  -12.8862 O   0  0  0  0  0  0  0  0  0  0  0  0
   21.0766  -19.2950  -12.3169 C   0  0  0  0  0  0  0  0  0  0  0  0
   21.9954  -19.9748  -13.0874 C   0  0  0  0  0  0  0  0  0  0  0  0
   23.0877  -20.6173  -12.5326 C   0  0  0  0  0  0  0  0  0  0  0  0
   23.2897  -20.5927  -11.1567 C   0  0  0  0  0  0  0  0  0  0  0  0
   24.4263  -21.3060  -10.5656 C   0  0  0  0  0  0  0  0  0  0  0  0
   25.7062  -20.5802  -10.5050 C   0  0  2  0  0  0  0  0  0  0  0  0
   26.4497  -20.8226  -11.7682 N   0  0  0  0  0  0  0  0  0  0  0  0
   26.5882  -20.7487   -9.3673 C   0  0  0  0  0  0  0  0  0  0  0  0
   27.4132  -21.7378   -9.4353 O   0  0  0  0  0  0  0  0  0  0  0  0
   22.3600  -19.9083  -10.4089 C   0  0  0  0  0  0  0  0  0  0  0  0
   21.2734  -19.2689  -10.9577 C   0  0  0  0  0  0  0  0  0  0  0  0
   28.5424  -20.0709   -4.3167 C   0  0  0  0  0  0  0  0  0  0  0  0
   29.0426  -19.1150   -5.4033 C   0  0  2  0  0  0  0  0  0  0  0  0
   29.5103  -17.8373   -4.8316 C   0  0  0  0  0  0  0  0  0  0  0  0
   28.1732  -19.0906   -6.5911 C   0  0  0  0  0  0  0  0  0  0  0  0
   27.6052  -20.3636   -7.1023 C   0  0  2  0  0  0  0  0  0  0  0  0
   26.6846  -19.9878   -8.1966 N   0  0  0  0  0  0  0  0  0  0  0  0
   26.8749  -21.1986   -6.1648 C   0  0  0  0  0  0  0  0  0  0  0  0
   27.4638  -22.1320   -5.3135 O   0  0  0  0  0  0  0  0  0  0  0  0
   25.6139  -21.1196   -6.0713 O   0  0  0  0  0  0  0  0  0  0  0  0
  2  1  1  6
  3  2  1  0
  4 13  1  0
  4  2  1  0
  5  4  2  0
  7  6  1  0
  8  7  2  0
  9  8  1  0
 10 16  1  0
 10  9  2  0
 11 10  1  0
 12 11  1  1
 12 13  1  0
 14 23  1  0
 14 12  1  0
 15 14  2  0
 16 17  2  0
 17  7  1  0
 19 18  1  1
 19 21  1  0
 20 19  1  0
 22 21  1  1
 22 23  1  0
 22 24  1  0
 24 25  1  0
 26 24  2  0
M  END
$$$$
