AYL.pdb
     RDKit          3D

 26 26  0  0  1  0  0  0  0  0999 V2000
   21.1237  -34.6128  -13.2660 C   0  0  0  0  0  0  0  0  0  0  0  0
   22.4984  -35.1626  -13.5930 C   0  0  2  0  0  0  0  0  0  0  0  0
   22.4329  -35.7502  -14.9068 N   0  0  0  0  0  0  0  0  0  0  0  0
   22.9155  -36.1768  -12.5819 C   0  0  0  0  0  0  0  0  0  0  0  0
   22.3434  -37.2871  -12.4795 O   0  0  0  0  0  0  0  0  0  0  0  0
   26.9107  -42.3060   -8.1752 O   0  0  0  0  0  0  0  0  0  0  0  0
   26.4012  -41.2808   -8.9838 C   0  0  0  0  0  0  0  0  0  0  0  0
   27.1853  -40.2249   -9.3967 C   0  0  0  0  0  0  0  0  0  0  0  0
   26.6893  -39.2096  -10.1947 C   0  0  0  0  0  0  0  0  0  0  0  0
   25.3615  -39.2295  -10.6083 C   0  0  0  0  0  0  0  0  0  0  0  0
   24.8264  -38.1335  -11.4222 C   0  0  0  0  0  0  0  0  0  0  0  0
   24.4844  -36.8878  -10.7152 C   0  0  2  0  0  0  0  0  0  0  0  0
   23.9796  -35.9027  -11.7060 N   0  0  0  0  0  0  0  0  0  0  0  0
   25.4490  -36.2595   -9.8344 C   0  0  0  0  0  0  0  0  0  0  0  0
   26.2046  -35.3640  -10.3735 O   0  0  0  0  0  0  0  0  0  0  0  0
   24.5992  -40.2928  -10.1838 C   0  0  0  0  0  0  0  0  0  0  0  0
   25.0894  -41.3033   -9.3906 C   0  0  0  0  0  0  0  0  0  0  0  0
   24.8165  -31.7993   -8.2144 C   0  0  0  0  0  0  0  0  0  0  0  0
   25.8610  -32.9144   -8.1136 C   0  0  2  0  0  0  0  0  0  0  0  0
   26.8885  -32.7951   -9.1662 C   0  0  0  0  0  0  0  0  0  0  0  0
   25.2678  -34.2337   -7.8403 C   0  0  0  0  0  0  0  0  0  0  0  0
   26.1598  -35.3931   -7.5858 C   0  0  2  0  0  0  0  0  0  0  0  0
   25.6819  -36.4762   -8.4716 N   0  0  0  0  0  0  0  0  0  0  0  0
   26.2186  -35.9114   -6.2303 C   0  0  0  0  0  0  0  0  0  0  0  0
   27.1643  -35.5315   -5.2795 O   0  0  0  0  0  0  0  0  0  0  0  0
   25.3808  -36.7724   -5.8277 O   0  0  0  0  0  0  0  0  0  0  0  0
  2  1  1  1
  3  2  1  0
  4 13  1  0
  4  2  1  0
  5  4  2  0
  7  6  1  0
  8  7  2  0
  9  8  1  0
 10 16  1  0
 10  9  2  0
 11 10  1  0
 12 11  1  6
 12 13  1  0
 14 23  1  0
 14 12  1  0
 15 14  2  0
 16 17  2  0
 17  7  1  0
 19 18  1  6
 19 21  1  0
 20 19  1  0
 22 21  1  1
 22 23  1  0
 22 24  1  0
 24 25  1  0
 26 24  2  0
M  END
$$$$
