AYL.pdb
     RDKit          3D

 26 26  0  0  1  0  0  0  0  0999 V2000
   17.7334  -15.2403  -18.8667 C   0  0  0  0  0  0  0  0  0  0  0  0
   17.4068  -14.2697  -17.7486 C   0  0  2  0  0  0  0  0  0  0  0  0
   15.9782  -14.2816  -17.5628 N   0  0  0  0  0  0  0  0  0  0  0  0
   17.8834  -12.8970  -18.0851 C   0  0  0  0  0  0  0  0  0  0  0  0
   17.7228  -12.3984  -19.2236 O   0  0  0  0  0  0  0  0  0  0  0  0
   18.1768   -4.3171  -18.1166 O   0  0  0  0  0  0  0  0  0  0  0  0
   18.0467   -5.7102  -18.0340 C   0  0  0  0  0  0  0  0  0  0  0  0
   17.2454   -6.3090  -17.0856 C   0  0  0  0  0  0  0  0  0  0  0  0
   17.1122   -7.6832  -16.9981 C   0  0  0  0  0  0  0  0  0  0  0  0
   17.7968   -8.5106  -17.8819 C   0  0  0  0  0  0  0  0  0  0  0  0
   17.6853   -9.9679  -17.7643 C   0  0  0  0  0  0  0  0  0  0  0  0
   18.8900  -10.6921  -17.3253 C   0  0  2  0  0  0  0  0  0  0  0  0
   18.5352  -12.1191  -17.1131 N   0  0  0  0  0  0  0  0  0  0  0  0
   19.6707  -10.2010  -16.2072 C   0  0  0  0  0  0  0  0  0  0  0  0
   19.2323  -10.5107  -15.0345 O   0  0  0  0  0  0  0  0  0  0  0  0
   18.5898   -7.8902  -18.8190 C   0  0  0  0  0  0  0  0  0  0  0  0
   18.7241   -6.5247  -18.9083 C   0  0  0  0  0  0  0  0  0  0  0  0
   22.4750  -11.6527  -13.8725 C   0  0  0  0  0  0  0  0  0  0  0  0
   23.2076  -10.9361  -15.0102 C   0  0  2  0  0  0  0  0  0  0  0  0
   24.6081  -11.3869  -15.1256 C   0  0  0  0  0  0  0  0  0  0  0  0
   22.9141   -9.4945  -15.0639 C   0  0  0  0  0  0  0  0  0  0  0  0
   21.5070   -9.0344  -14.9506 C   0  0  2  0  0  0  0  0  0  0  0  0
   20.8442   -9.4385  -16.2089 N   0  0  0  0  0  0  0  0  0  0  0  0
   21.2779   -7.6134  -14.7558 C   0  0  0  0  0  0  0  0  0  0  0  0
   20.7770   -6.7530  -15.7313 O   0  0  0  0  0  0  0  0  0  0  0  0
   21.5346   -7.0609  -13.6450 O   0  0  0  0  0  0  0  0  0  0  0  0
  2  1  1  6
  3  2  1  0
  4 13  1  0
  4  2  1  0
  5  4  2  0
  7  6  1  0
  8  7  2  0
  9  8  1  0
 10 16  1  0
 10  9  2  0
 11 10  1  0
 12 11  1  1
 12 13  1  0
 14 23  1  0
 14 12  1  0
 15 14  2  0
 16 17  2  0
 17  7  1  0
 19 18  1  1
 19 21  1  0
 20 19  1  0
 22 21  1  6
 22 23  1  0
 22 24  1  0
 24 25  1  0
 26 24  2  0
M  END
$$$$
