AYL.pdb
     RDKit          3D

 26 26  0  0  1  0  0  0  0  0999 V2000
   29.3411  -20.2673  -13.7010 C   0  0  0  0  0  0  0  0  0  0  0  0
   27.8794  -20.3363  -14.0979 C   0  0  2  0  0  0  0  0  0  0  0  0
   27.6763  -19.4082  -15.1809 N   0  0  0  0  0  0  0  0  0  0  0  0
   27.0015  -19.9970  -12.9408 C   0  0  0  0  0  0  0  0  0  0  0  0
   26.6948  -18.8137  -12.6642 O   0  0  0  0  0  0  0  0  0  0  0  0
   20.8679  -19.1692  -15.1565 O   0  0  0  0  0  0  0  0  0  0  0  0
   21.7216  -19.7200  -14.1910 C   0  0  0  0  0  0  0  0  0  0  0  0
   22.4137  -20.8904  -14.4174 C   0  0  0  0  0  0  0  0  0  0  0  0
   23.2580  -21.4399  -13.4693 C   0  0  0  0  0  0  0  0  0  0  0  0
   23.4327  -20.8128  -12.2402 C   0  0  0  0  0  0  0  0  0  0  0  0
   24.2978  -21.4158  -11.2213 C   0  0  0  0  0  0  0  0  0  0  0  0
   25.5885  -20.7529  -10.9701 C   0  0  2  0  0  0  0  0  0  0  0  0
   26.4900  -21.0172  -12.1210 N   0  0  0  0  0  0  0  0  0  0  0  0
   26.2935  -20.9753   -9.7233 C   0  0  0  0  0  0  0  0  0  0  0  0
   26.9388  -22.0883   -9.6317 O   0  0  0  0  0  0  0  0  0  0  0  0
   22.7319  -19.6468  -12.0375 C   0  0  0  0  0  0  0  0  0  0  0  0
   21.8921  -19.0983  -12.9780 C   0  0  0  0  0  0  0  0  0  0  0  0
   29.2715  -20.9192   -5.4984 C   0  0  0  0  0  0  0  0  0  0  0  0
   28.8230  -19.4886   -5.8097 C   0  0  2  0  0  0  0  0  0  0  0  0
   28.4184  -18.7665   -4.5879 C   0  0  0  0  0  0  0  0  0  0  0  0
   27.9701  -19.4019   -7.0065 C   0  0  0  0  0  0  0  0  0  0  0  0
   27.1378  -20.5693   -7.3921 C   0  0  2  0  0  0  0  0  0  0  0  0
   26.3852  -20.1529   -8.5947 N   0  0  0  0  0  0  0  0  0  0  0  0
   26.1866  -21.0691   -6.4149 C   0  0  0  0  0  0  0  0  0  0  0  0
   26.5189  -21.8837   -5.3338 O   0  0  0  0  0  0  0  0  0  0  0  0
   24.9559  -20.7806   -6.5006 O   0  0  0  0  0  0  0  0  0  0  0  0
  2  1  1  1
  3  2  1  0
  4 13  1  0
  4  2  1  0
  5  4  2  0
  7  6  1  0
  8  7  2  0
  9  8  1  0
 10 16  1  0
 10  9  2  0
 11 10  1  0
 12 11  1  6
 12 13  1  0
 14 23  1  0
 14 12  1  0
 15 14  2  0
 16 17  2  0
 17  7  1  0
 19 18  1  1
 19 21  1  0
 20 19  1  0
 22 21  1  1
 22 23  1  0
 22 24  1  0
 24 25  1  0
 26 24  2  0
M  END
$$$$
