AYL.pdb
     RDKit          3D

 26 26  0  0  1  0  0  0  0  0999 V2000
   26.8340  -20.8823  -17.9284 C   0  0  0  0  0  0  0  0  0  0  0  0
   27.8868  -21.4211  -16.9797 C   0  0  2  0  0  0  0  0  0  0  0  0
   28.4143  -22.6323  -17.5545 N   0  0  0  0  0  0  0  0  0  0  0  0
   27.2990  -21.6879  -15.6351 C   0  0  0  0  0  0  0  0  0  0  0  0
   26.7079  -22.7605  -15.3694 O   0  0  0  0  0  0  0  0  0  0  0  0
   25.9927  -20.0323   -6.8681 O   0  0  0  0  0  0  0  0  0  0  0  0
   26.4062  -20.0814   -8.2064 C   0  0  0  0  0  0  0  0  0  0  0  0
   27.5563  -20.7393   -8.5867 C   0  0  0  0  0  0  0  0  0  0  0  0
   27.9706  -20.7919   -9.9055 C   0  0  0  0  0  0  0  0  0  0  0  0
   27.2225  -20.1703  -10.8996 C   0  0  0  0  0  0  0  0  0  0  0  0
   27.6822  -20.1938  -12.2917 C   0  0  0  0  0  0  0  0  0  0  0  0
   26.8431  -20.9259  -13.2553 C   0  0  2  0  0  0  0  0  0  0  0  0
   27.3980  -20.7228  -14.6184 N   0  0  0  0  0  0  0  0  0  0  0  0
   25.4067  -20.7323  -13.2679 C   0  0  0  0  0  0  0  0  0  0  0  0
   24.9895  -19.6451  -13.8223 O   0  0  0  0  0  0  0  0  0  0  0  0
   26.0794  -19.5205  -10.4959 C   0  0  0  0  0  0  0  0  0  0  0  0
   25.6651  -19.4665   -9.1859 C   0  0  0  0  0  0  0  0  0  0  0  0
   22.1510  -20.5556  -15.6928 C   0  0  0  0  0  0  0  0  0  0  0  0
   22.5006  -21.9460  -15.1550 C   0  0  2  0  0  0  0  0  0  0  0  0
   22.0129  -23.0143  -16.0488 C   0  0  0  0  0  0  0  0  0  0  0  0
   22.2819  -22.0723  -13.7047 C   0  0  0  0  0  0  0  0  0  0  0  0
   22.9759  -21.1399  -12.7809 C   0  0  2  0  0  0  0  0  0  0  0  0
   24.3937  -21.5591  -12.7691 N   0  0  0  0  0  0  0  0  0  0  0  0
   22.5102  -21.0844  -11.4063 C   0  0  0  0  0  0  0  0  0  0  0  0
   23.2167  -21.5806  -10.3121 O   0  0  0  0  0  0  0  0  0  0  0  0
   21.3912  -20.5633  -11.1208 O   0  0  0  0  0  0  0  0  0  0  0  0
  2  1  1  6
  3  2  1  0
  4 13  1  0
  4  2  1  0
  5  4  2  0
  7  6  1  0
  8  7  2  0
  9  8  1  0
 10 16  1  0
 10  9  2  0
 11 10  1  0
 12 11  1  1
 12 13  1  0
 14 23  1  0
 14 12  1  0
 15 14  2  0
 16 17  2  0
 17  7  1  0
 19 18  1  6
 19 21  1  0
 20 19  1  0
 22 21  1  6
 22 23  1  0
 22 24  1  0
 24 25  1  0
 26 24  2  0
M  END
$$$$
