AYL.pdb
     RDKit          3D

 26 26  0  0  1  0  0  0  0  0999 V2000
   25.9046  -39.8014   -7.8601 C   0  0  0  0  0  0  0  0  0  0  0  0
   24.8735  -39.3176   -8.8610 C   0  0  2  0  0  0  0  0  0  0  0  0
   25.5042  -39.2824  -10.1558 N   0  0  0  0  0  0  0  0  0  0  0  0
   24.3660  -37.9664   -8.4848 C   0  0  0  0  0  0  0  0  0  0  0  0
   24.8917  -36.9147   -8.9188 O   0  0  0  0  0  0  0  0  0  0  0  0
   18.5078  -31.8628   -5.7082 O   0  0  0  0  0  0  0  0  0  0  0  0
   19.1766  -33.0261   -6.1132 C   0  0  0  0  0  0  0  0  0  0  0  0
   19.6596  -33.9400   -5.2013 C   0  0  0  0  0  0  0  0  0  0  0  0
   20.3207  -35.0902   -5.5935 C   0  0  0  0  0  0  0  0  0  0  0  0
   20.5181  -35.3580   -6.9440 C   0  0  0  0  0  0  0  0  0  0  0  0
   21.2524  -36.5578   -7.3579 C   0  0  0  0  0  0  0  0  0  0  0  0
   22.7157  -36.5291   -7.1955 C   0  0  2  0  0  0  0  0  0  0  0  0
   23.2663  -37.8424   -7.6188 N   0  0  0  0  0  0  0  0  0  0  0  0
   23.3027  -36.1261   -5.9329 C   0  0  0  0  0  0  0  0  0  0  0  0
   23.3711  -37.0405   -5.0259 O   0  0  0  0  0  0  0  0  0  0  0  0
   20.0274  -34.4318   -7.8346 C   0  0  0  0  0  0  0  0  0  0  0  0
   19.3701  -33.2878   -7.4476 C   0  0  0  0  0  0  0  0  0  0  0  0
   28.0321  -33.1752   -4.0782 C   0  0  0  0  0  0  0  0  0  0  0  0
   26.9235  -34.2000   -3.8222 C   0  0  2  0  0  0  0  0  0  0  0  0
   27.4239  -35.5837   -3.9352 C   0  0  0  0  0  0  0  0  0  0  0  0
   25.6518  -33.8447   -4.4732 C   0  0  0  0  0  0  0  0  0  0  0  0
   24.4505  -34.6819   -4.2273 C   0  0  2  0  0  0  0  0  0  0  0  0
   23.8173  -34.8828   -5.5483 N   0  0  0  0  0  0  0  0  0  0  0  0
   23.4436  -34.1627   -3.3184 C   0  0  0  0  0  0  0  0  0  0  0  0
   22.5154  -33.1764   -3.6476 O   0  0  0  0  0  0  0  0  0  0  0  0
   23.3562  -34.5956   -2.1310 O   0  0  0  0  0  0  0  0  0  0  0  0
  2  1  1  1
  3  2  1  0
  4 13  1  0
  4  2  1  0
  5  4  2  0
  7  6  1  0
  8  7  2  0
  9  8  1  0
 10 16  1  0
 10  9  2  0
 11 10  1  0
 12 11  1  1
 12 13  1  0
 14 23  1  0
 14 12  1  0
 15 14  2  0
 16 17  2  0
 17  7  1  0
 19 18  1  6
 19 21  1  0
 20 19  1  0
 22 21  1  6
 22 23  1  0
 22 24  1  0
 24 25  1  0
 26 24  2  0
M  END
$$$$
