YEI.pdb
     RDKit          3D

 30 30  0  0  1  0  0  0  0  0999 V2000
    7.6727  -12.2644   16.7030 O   0  0  0  0  0  0  0  0  0  0  0  0
    7.8838  -12.8554   17.9454 C   0  0  0  0  0  0  0  0  0  0  0  0
    9.1254  -13.3600   18.3084 C   0  0  0  0  0  0  0  0  0  0  0  0
    9.3323  -13.9443   19.5379 C   0  0  0  0  0  0  0  0  0  0  0  0
    8.3015  -14.0344   20.4265 C   0  0  0  0  0  0  0  0  0  0  0  0
    8.4111  -14.6429   21.7775 C   0  0  0  0  0  0  0  0  0  0  0  0
    8.4842  -16.1546   21.6298 C   0  0  2  0  0  0  0  0  0  0  0  0
    7.1698  -16.6258   21.2860 N   0  0  0  0  0  0  0  0  0  0  0  0
    8.9234  -16.7961   22.8964 C   0  0  0  0  0  0  0  0  0  0  0  0
    8.1146  -16.9192   23.8607 O   0  0  0  0  0  0  0  0  0  0  0  0
    7.0624  -13.5271   20.0555 C   0  0  0  0  0  0  0  0  0  0  0  0
    6.8535  -12.9461   18.8349 C   0  0  0  0  0  0  0  0  0  0  0  0
   10.2368  -17.2931   23.0917 N   0  0  0  0  0  0  0  0  0  0  0  0
   10.7669  -17.6915   24.3800 C   0  0  1  0  0  0  0  0  0  0  0  0
   11.8801  -18.6731   24.2543 C   0  0  0  0  0  0  0  0  0  0  0  0
   12.5569  -19.1173   25.4885 C   0  0  0  0  0  0  0  0  0  0  0  0
   13.6327  -20.0667   25.4362 C   0  0  0  0  0  0  0  0  0  0  0  0
   14.8115  -19.8277   25.1662 O   0  0  0  0  0  0  0  0  0  0  0  0
   10.9649  -16.5956   25.3327 C   0  0  0  0  0  0  0  0  0  0  0  0
   11.6894  -15.5744   25.0968 O   0  0  0  0  0  0  0  0  0  0  0  0
   13.3317  -21.4170   25.7193 O   0  0  0  0  0  0  0  0  0  0  0  0
    7.5360  -13.4379   26.9152 C   0  0  0  0  0  0  0  0  0  0  0  0
    8.9122  -13.9693   26.7812 C   0  0  0  0  0  0  0  0  0  0  0  0
    9.4582  -14.7382   27.9172 C   0  0  2  0  0  0  0  0  0  0  0  0
    9.7557  -13.8118   29.1088 C   0  0  0  0  0  0  0  0  0  0  0  0
   10.6304  -15.6392   27.6606 C   0  0  2  0  0  0  0  0  0  0  0  0
   10.3349  -16.5926   26.6307 N   0  0  0  0  0  0  0  0  0  0  0  0
   10.8228  -16.4130   28.9416 C   0  0  0  0  0  0  0  0  0  0  0  0
   10.3770  -17.5766   29.0990 O   0  0  0  0  0  0  0  0  0  0  0  0
   11.5145  -15.8394   29.9975 O   0  0  0  0  0  0  0  0  0  0  0  0
  2  1  1  0
  2  3  2  0
  4  3  1  0
  5  4  2  0
  6  5  1  0
  7  9  1  0
  7  6  1  0
  7  8  1  1
  9 10  2  0
 11 12  2  0
 11  5  1  0
 12  2  1  0
 13 14  1  0
 13  9  1  0
 14 15  1  6
 15 16  1  0
 16 17  1  0
 17 18  2  0
 19 20  2  0
 19 14  1  0
 21 17  1  0
 23 24  1  0
 23 22  1  0
 24 25  1  1
 24 26  1  0
 26 27  1  6
 27 19  1  0
 28 26  1  0
 28 30  1  0
 29 28  2  0
M  END
$$$$
