YEI.pdb
     RDKit          3D

 30 30  0  0  1  0  0  0  0  0999 V2000
    7.2568  -12.0537   16.6059 O   0  0  0  0  0  0  0  0  0  0  0  0
    7.4930  -12.6585   17.8370 C   0  0  0  0  0  0  0  0  0  0  0  0
    8.7643  -12.7006   18.3939 C   0  0  0  0  0  0  0  0  0  0  0  0
    8.9961  -13.2993   19.6120 C   0  0  0  0  0  0  0  0  0  0  0  0
    7.9608  -13.8667   20.2951 C   0  0  0  0  0  0  0  0  0  0  0  0
    8.0953  -14.5377   21.6139 C   0  0  0  0  0  0  0  0  0  0  0  0
    8.7028  -15.9157   21.4030 C   0  0  2  0  0  0  0  0  0  0  0  0
    7.7206  -16.7314   20.7413 N   0  0  0  0  0  0  0  0  0  0  0  0
    9.0731  -16.5420   22.6989 C   0  0  0  0  0  0  0  0  0  0  0  0
    8.1945  -16.7296   23.5887 O   0  0  0  0  0  0  0  0  0  0  0  0
    6.6920  -13.8203   19.7309 C   0  0  0  0  0  0  0  0  0  0  0  0
    6.4584  -13.2263   18.5212 C   0  0  0  0  0  0  0  0  0  0  0  0
   10.3951  -16.9537   23.0041 N   0  0  0  0  0  0  0  0  0  0  0  0
   10.8200  -17.4004   24.3153 C   0  0  1  0  0  0  0  0  0  0  0  0
   11.9013  -18.4221   24.2416 C   0  0  0  0  0  0  0  0  0  0  0  0
   11.6562  -19.6358   23.4381 C   0  0  0  0  0  0  0  0  0  0  0  0
   12.7126  -20.5739   23.1821 C   0  0  0  0  0  0  0  0  0  0  0  0
   13.3240  -20.7211   22.1219 O   0  0  0  0  0  0  0  0  0  0  0  0
   10.9933  -16.3341   25.3056 C   0  0  0  0  0  0  0  0  0  0  0  0
   11.8075  -15.3640   25.1664 O   0  0  0  0  0  0  0  0  0  0  0  0
   13.1068  -21.4239   24.2386 O   0  0  0  0  0  0  0  0  0  0  0  0
    7.2015  -13.3785   26.9932 C   0  0  0  0  0  0  0  0  0  0  0  0
    8.5693  -13.8968   26.7591 C   0  0  0  0  0  0  0  0  0  0  0  0
    9.2493  -14.5578   27.8907 C   0  0  2  0  0  0  0  0  0  0  0  0
    9.5446  -13.5484   29.0134 C   0  0  0  0  0  0  0  0  0  0  0  0
   10.4735  -15.3747   27.5980 C   0  0  2  0  0  0  0  0  0  0  0  0
   10.2335  -16.3034   26.5317 N   0  0  0  0  0  0  0  0  0  0  0  0
   10.7168  -16.1849   28.8475 C   0  0  0  0  0  0  0  0  0  0  0  0
   11.1885  -15.6800   29.8964 O   0  0  0  0  0  0  0  0  0  0  0  0
   10.4155  -17.5381   28.8625 O   0  0  0  0  0  0  0  0  0  0  0  0
  2  1  1  0
  2  3  2  0
  4  3  1  0
  5  4  2  0
  6  5  1  0
  7  9  1  0
  7  6  1  0
  7  8  1  1
  9 10  2  0
 11 12  2  0
 11  5  1  0
 12  2  1  0
 13 14  1  0
 13  9  1  0
 14 15  1  6
 15 16  1  0
 16 17  1  0
 17 18  2  0
 19 20  2  0
 19 14  1  0
 21 17  1  0
 23 24  1  0
 23 22  1  0
 24 25  1  1
 24 26  1  0
 26 27  1  6
 27 19  1  0
 28 26  1  0
 28 30  1  0
 29 28  2  0
M  END
$$$$
