YEI.pdb
     RDKit          3D

 30 30  0  0  1  0  0  0  0  0999 V2000
    7.3629  -12.7217   16.0559 O   0  0  0  0  0  0  0  0  0  0  0  0
    7.6148  -13.2226   17.3298 C   0  0  0  0  0  0  0  0  0  0  0  0
    8.4168  -14.3390   17.5262 C   0  0  0  0  0  0  0  0  0  0  0  0
    8.6649  -14.8331   18.7872 C   0  0  0  0  0  0  0  0  0  0  0  0
    8.1156  -14.2197   19.8746 C   0  0  0  0  0  0  0  0  0  0  0  0
    8.3158  -14.6654   21.2777 C   0  0  0  0  0  0  0  0  0  0  0  0
    8.4311  -16.1816   21.2986 C   0  0  2  0  0  0  0  0  0  0  0  0
    7.1415  -16.7241   20.9656 N   0  0  0  0  0  0  0  0  0  0  0  0
    8.8404  -16.6694   22.6415 C   0  0  0  0  0  0  0  0  0  0  0  0
    8.0073  -16.6880   23.5925 O   0  0  0  0  0  0  0  0  0  0  0  0
    7.3144  -13.1033   19.6695 C   0  0  0  0  0  0  0  0  0  0  0  0
    7.0660  -12.6100   18.4182 C   0  0  0  0  0  0  0  0  0  0  0  0
   10.1512  -17.1290   22.9261 N   0  0  0  0  0  0  0  0  0  0  0  0
   10.6617  -17.3362   24.2662 C   0  0  1  0  0  0  0  0  0  0  0  0
   11.8664  -18.2119   24.2831 C   0  0  0  0  0  0  0  0  0  0  0  0
   11.8226  -19.4681   23.5094 C   0  0  0  0  0  0  0  0  0  0  0  0
   12.9691  -19.9171   22.7708 C   0  0  0  0  0  0  0  0  0  0  0  0
   13.9163  -20.5723   23.2104 O   0  0  0  0  0  0  0  0  0  0  0  0
   10.7157  -16.1323   25.1002 C   0  0  0  0  0  0  0  0  0  0  0  0
   11.4285  -15.1124   24.8261 O   0  0  0  0  0  0  0  0  0  0  0  0
   13.0387  -19.5853   21.4000 O   0  0  0  0  0  0  0  0  0  0  0  0
    7.2106  -12.6794   26.2209 C   0  0  0  0  0  0  0  0  0  0  0  0
    8.4641  -13.4645   26.1394 C   0  0  0  0  0  0  0  0  0  0  0  0
    8.9678  -14.0734   27.3865 C   0  0  2  0  0  0  0  0  0  0  0  0
    9.2125  -12.9969   28.4579 C   0  0  0  0  0  0  0  0  0  0  0  0
   10.1538  -14.9882   27.2958 C   0  0  2  0  0  0  0  0  0  0  0  0
    9.9442  -16.0119   26.3134 N   0  0  0  0  0  0  0  0  0  0  0  0
   10.2314  -15.6701   28.6397 C   0  0  0  0  0  0  0  0  0  0  0  0
    9.8074  -16.8372   28.8281 O   0  0  0  0  0  0  0  0  0  0  0  0
   10.7878  -15.0039   29.7208 O   0  0  0  0  0  0  0  0  0  0  0  0
  2  1  1  0
  2  3  2  0
  4  3  1  0
  5  4  2  0
  6  5  1  0
  7  9  1  0
  7  6  1  0
  7  8  1  1
  9 10  2  0
 11 12  2  0
 11  5  1  0
 12  2  1  0
 13 14  1  0
 13  9  1  0
 14 15  1  6
 15 16  1  0
 16 17  1  0
 17 18  2  0
 19 20  2  0
 19 14  1  0
 21 17  1  0
 23 24  1  0
 23 22  1  0
 24 25  1  1
 24 26  1  0
 26 27  1  6
 27 19  1  0
 28 26  1  0
 28 30  1  0
 29 28  2  0
M  END
$$$$
