YEI.pdb
     RDKit          3D

 30 30  0  0  1  0  0  0  0  0999 V2000
    5.0994  -10.3904   27.0489 O   0  0  0  0  0  0  0  0  0  0  0  0
    5.8113  -11.5001   26.6027 C   0  0  0  0  0  0  0  0  0  0  0  0
    6.4196  -11.5195   25.3546 C   0  0  0  0  0  0  0  0  0  0  0  0
    7.1234  -12.6181   24.9149 C   0  0  0  0  0  0  0  0  0  0  0  0
    7.2317  -13.7172   25.7153 C   0  0  0  0  0  0  0  0  0  0  0  0
    7.9653  -14.9548   25.3439 C   0  0  0  0  0  0  0  0  0  0  0  0
    7.0097  -15.8941   24.6252 C   0  0  2  0  0  0  0  0  0  0  0  0
    6.3724  -16.7159   25.6185 N   0  0  0  0  0  0  0  0  0  0  0  0
    7.7347  -16.7598   23.6589 C   0  0  0  0  0  0  0  0  0  0  0  0
    8.3986  -17.7544   24.0699 O   0  0  0  0  0  0  0  0  0  0  0  0
    6.6201  -13.6898   26.9625 C   0  0  0  0  0  0  0  0  0  0  0  0
    5.9203  -12.6000   27.4023 C   0  0  0  0  0  0  0  0  0  0  0  0
    7.7246  -16.5274   22.2602 N   0  0  0  0  0  0  0  0  0  0  0  0
    8.6925  -17.0901   21.3405 C   0  0  1  0  0  0  0  0  0  0  0  0
    8.4010  -16.7325   19.9243 C   0  0  0  0  0  0  0  0  0  0  0  0
    9.3389  -17.1972   18.8836 C   0  0  0  0  0  0  0  0  0  0  0  0
    9.1432  -16.8427   17.5061 C   0  0  0  0  0  0  0  0  0  0  0  0
    9.7844  -16.0088   16.8634 O   0  0  0  0  0  0  0  0  0  0  0  0
   10.0896  -16.9798   21.7693 C   0  0  0  0  0  0  0  0  0  0  0  0
   10.6715  -15.8719   22.0086 O   0  0  0  0  0  0  0  0  0  0  0  0
    8.1170  -17.5045   16.7968 O   0  0  0  0  0  0  0  0  0  0  0  0
   11.9074  -20.2503   25.3692 C   0  0  0  0  0  0  0  0  0  0  0  0
   12.2981  -19.0205   24.6417 C   0  0  0  0  0  0  0  0  0  0  0  0
   12.7103  -19.1661   23.2316 C   0  0  2  0  0  0  0  0  0  0  0  0
   14.2202  -19.4433   23.1315 C   0  0  0  0  0  0  0  0  0  0  0  0
   12.3207  -18.0842   22.2676 C   0  0  2  0  0  0  0  0  0  0  0  0
   10.9208  -18.1434   21.9610 N   0  0  0  0  0  0  0  0  0  0  0  0
   13.0686  -18.3992   20.9955 C   0  0  0  0  0  0  0  0  0  0  0  0
   12.6480  -19.2332   20.1558 O   0  0  0  0  0  0  0  0  0  0  0  0
   14.2662  -17.7564   20.7215 O   0  0  0  0  0  0  0  0  0  0  0  0
  2  1  1  0
  2  3  2  0
  4  3  1  0
  5  4  2  0
  6  5  1  0
  7  9  1  0
  7  6  1  0
  7  8  1  1
  9 10  2  0
 11 12  2  0
 11  5  1  0
 12  2  1  0
 13 14  1  0
 13  9  1  0
 14 15  1  6
 15 16  1  0
 16 17  1  0
 17 18  2  0
 19 20  2  0
 19 14  1  0
 21 17  1  0
 23 24  1  0
 23 22  1  0
 24 25  1  1
 24 26  1  0
 26 27  1  6
 27 19  1  0
 28 26  1  0
 28 30  1  0
 29 28  2  0
M  END
$$$$
