YEI.pdb
     RDKit          3D

 30 30  0  0  1  0  0  0  0  0999 V2000
    9.3304  -11.9921   19.1622 O   0  0  0  0  0  0  0  0  0  0  0  0
    8.4933  -12.8896   19.8186 C   0  0  0  0  0  0  0  0  0  0  0  0
    8.2672  -12.8056   21.1861 C   0  0  0  0  0  0  0  0  0  0  0  0
    7.4387  -13.6944   21.8337 C   0  0  0  0  0  0  0  0  0  0  0  0
    6.8212  -14.6832   21.1255 C   0  0  0  0  0  0  0  0  0  0  0  0
    5.9087  -15.6941   21.7197 C   0  0  0  0  0  0  0  0  0  0  0  0
    6.6123  -17.0421   21.7325 C   0  0  2  0  0  0  0  0  0  0  0  0
    5.6065  -18.0606   21.8703 N   0  0  0  0  0  0  0  0  0  0  0  0
    7.5693  -17.1363   22.8657 C   0  0  0  0  0  0  0  0  0  0  0  0
    7.1454  -17.1446   24.0570 O   0  0  0  0  0  0  0  0  0  0  0  0
    7.0527  -14.7603   19.7578 C   0  0  0  0  0  0  0  0  0  0  0  0
    7.8752  -13.8790   19.1115 C   0  0  0  0  0  0  0  0  0  0  0  0
    8.9727  -17.2197   22.6822 N   0  0  0  0  0  0  0  0  0  0  0  0
    9.9282  -17.2737   23.7701 C   0  0  1  0  0  0  0  0  0  0  0  0
   11.2052  -17.9270   23.3692 C   0  0  0  0  0  0  0  0  0  0  0  0
   12.2538  -18.0899   24.3951 C   0  0  0  0  0  0  0  0  0  0  0  0
   13.3122  -19.0442   24.2196 C   0  0  0  0  0  0  0  0  0  0  0  0
   13.6741  -19.8982   25.0315 O   0  0  0  0  0  0  0  0  0  0  0  0
   10.0416  -16.0412   24.5550 C   0  0  0  0  0  0  0  0  0  0  0  0
   10.5339  -14.9565   24.1027 O   0  0  0  0  0  0  0  0  0  0  0  0
   14.0239  -19.0191   23.0002 O   0  0  0  0  0  0  0  0  0  0  0  0
    6.6556  -12.9011   26.4098 C   0  0  0  0  0  0  0  0  0  0  0  0
    7.9756  -13.4838   26.0742 C   0  0  0  0  0  0  0  0  0  0  0  0
    8.7621  -14.0677   27.1788 C   0  0  2  0  0  0  0  0  0  0  0  0
    9.1672  -12.9829   28.1916 C   0  0  0  0  0  0  0  0  0  0  0  0
    9.9506  -14.9138   26.8279 C   0  0  2  0  0  0  0  0  0  0  0  0
    9.5883  -15.9655   25.9226 N   0  0  0  0  0  0  0  0  0  0  0  0
   10.3687  -15.5656   28.1230 C   0  0  0  0  0  0  0  0  0  0  0  0
   10.0764  -16.7544   28.4038 O   0  0  0  0  0  0  0  0  0  0  0  0
   11.1040  -14.8459   29.0523 O   0  0  0  0  0  0  0  0  0  0  0  0
  2  1  1  0
  2  3  2  0
  4  3  1  0
  5  4  2  0
  6  5  1  0
  7  9  1  0
  7  6  1  0
  7  8  1  1
  9 10  2  0
 11 12  2  0
 11  5  1  0
 12  2  1  0
 13 14  1  0
 13  9  1  0
 14 15  1  6
 15 16  1  0
 16 17  1  0
 17 18  2  0
 19 20  2  0
 19 14  1  0
 21 17  1  0
 23 24  1  0
 23 22  1  0
 24 25  1  1
 24 26  1  0
 26 27  1  6
 27 19  1  0
 28 26  1  0
 28 30  1  0
 29 28  2  0
M  END
$$$$
