YEI.pdb
     RDKit          3D

 30 30  0  0  1  0  0  0  0  0999 V2000
    9.5189  -12.1960   19.7404 O   0  0  0  0  0  0  0  0  0  0  0  0
    8.5600  -13.1226   20.1393 C   0  0  0  0  0  0  0  0  0  0  0  0
    7.9890  -14.0112   19.2380 C   0  0  0  0  0  0  0  0  0  0  0  0
    7.0405  -14.9272   19.6344 C   0  0  0  0  0  0  0  0  0  0  0  0
    6.6459  -14.9711   20.9393 C   0  0  0  0  0  0  0  0  0  0  0  0
    5.6330  -15.9160   21.4767 C   0  0  0  0  0  0  0  0  0  0  0  0
    6.2865  -17.2749   21.6740 C   0  0  2  0  0  0  0  0  0  0  0  0
    5.2428  -18.2304   21.9305 N   0  0  0  0  0  0  0  0  0  0  0  0
    7.2301  -17.2540   22.8220 C   0  0  0  0  0  0  0  0  0  0  0  0
    6.7907  -17.1750   24.0051 O   0  0  0  0  0  0  0  0  0  0  0  0
    7.2220  -14.0786   21.8347 C   0  0  0  0  0  0  0  0  0  0  0  0
    8.1645  -13.1675   21.4441 C   0  0  0  0  0  0  0  0  0  0  0  0
    8.6374  -17.3196   22.6621 N   0  0  0  0  0  0  0  0  0  0  0  0
    9.5770  -17.3177   23.7650 C   0  0  1  0  0  0  0  0  0  0  0  0
   10.8489  -18.0144   23.4253 C   0  0  0  0  0  0  0  0  0  0  0  0
   11.9000  -18.0842   24.4592 C   0  0  0  0  0  0  0  0  0  0  0  0
   12.1336  -19.2983   25.1893 C   0  0  0  0  0  0  0  0  0  0  0  0
   11.8638  -20.4425   24.8186 O   0  0  0  0  0  0  0  0  0  0  0  0
    9.6992  -16.0393   24.4709 C   0  0  0  0  0  0  0  0  0  0  0  0
   10.1544  -14.9760   23.9364 O   0  0  0  0  0  0  0  0  0  0  0  0
   12.7324  -19.1935   26.4639 O   0  0  0  0  0  0  0  0  0  0  0  0
    6.0901  -13.0686   26.4792 C   0  0  0  0  0  0  0  0  0  0  0  0
    7.3879  -13.6265   26.0335 C   0  0  0  0  0  0  0  0  0  0  0  0
    8.3489  -14.0322   27.0784 C   0  0  2  0  0  0  0  0  0  0  0  0
    8.6996  -12.8418   27.9875 C   0  0  0  0  0  0  0  0  0  0  0  0
    9.6013  -14.7384   26.6489 C   0  0  2  0  0  0  0  0  0  0  0  0
    9.2983  -15.8894   25.8487 N   0  0  0  0  0  0  0  0  0  0  0  0
   10.2320  -15.2374   27.9256 C   0  0  0  0  0  0  0  0  0  0  0  0
   10.7450  -14.4629   28.7709 O   0  0  0  0  0  0  0  0  0  0  0  0
   10.2573  -16.5966   28.1978 O   0  0  0  0  0  0  0  0  0  0  0  0
  2  1  1  0
  2  3  2  0
  4  3  1  0
  5  4  2  0
  6  5  1  0
  7  9  1  0
  7  6  1  0
  7  8  1  1
  9 10  2  0
 11 12  2  0
 11  5  1  0
 12  2  1  0
 13 14  1  0
 13  9  1  0
 14 15  1  6
 15 16  1  0
 16 17  1  0
 17 18  2  0
 19 20  2  0
 19 14  1  0
 21 17  1  0
 23 24  1  0
 23 22  1  0
 24 25  1  6
 24 26  1  0
 26 27  1  6
 27 19  1  0
 28 26  1  0
 28 30  1  0
 29 28  2  0
M  END
$$$$
