YEI.pdb
     RDKit          3D

 30 30  0  0  1  0  0  0  0  0999 V2000
    7.6174  -11.9638   16.5006 O   0  0  0  0  0  0  0  0  0  0  0  0
    7.6057  -12.5940   17.7416 C   0  0  0  0  0  0  0  0  0  0  0  0
    6.4446  -13.1473   18.2647 C   0  0  0  0  0  0  0  0  0  0  0  0
    6.4349  -13.7704   19.4925 C   0  0  0  0  0  0  0  0  0  0  0  0
    7.5863  -13.8514   20.2194 C   0  0  0  0  0  0  0  0  0  0  0  0
    7.6914  -14.4994   21.5522 C   0  0  0  0  0  0  0  0  0  0  0  0
    8.3282  -15.8698   21.3821 C   0  0  2  0  0  0  0  0  0  0  0  0
    7.4026  -16.6964   20.6555 N   0  0  0  0  0  0  0  0  0  0  0  0
    8.6182  -16.4932   22.6997 C   0  0  0  0  0  0  0  0  0  0  0  0
    7.7088  -16.5855   23.5735 O   0  0  0  0  0  0  0  0  0  0  0  0
    8.7436  -13.2952   19.6889 C   0  0  0  0  0  0  0  0  0  0  0  0
    8.7566  -12.6756   18.4695 C   0  0  0  0  0  0  0  0  0  0  0  0
    9.8945  -17.0059   23.0437 N   0  0  0  0  0  0  0  0  0  0  0  0
   10.2773  -17.3854   24.3886 C   0  0  1  0  0  0  0  0  0  0  0  0
   11.2085  -18.5477   24.4047 C   0  0  0  0  0  0  0  0  0  0  0  0
   11.6642  -19.0544   25.7140 C   0  0  0  0  0  0  0  0  0  0  0  0
   12.6640  -20.0815   25.7975 C   0  0  0  0  0  0  0  0  0  0  0  0
   13.0712  -20.6292   26.8241 O   0  0  0  0  0  0  0  0  0  0  0  0
   10.6106  -16.2672   25.2754 C   0  0  0  0  0  0  0  0  0  0  0  0
   11.4985  -15.3929   25.0094 O   0  0  0  0  0  0  0  0  0  0  0  0
   13.2537  -20.5238   24.5931 O   0  0  0  0  0  0  0  0  0  0  0  0
    6.8665  -13.1381   26.9573 C   0  0  0  0  0  0  0  0  0  0  0  0
    8.2263  -13.6415   26.6544 C   0  0  0  0  0  0  0  0  0  0  0  0
    9.0071  -14.2072   27.7725 C   0  0  2  0  0  0  0  0  0  0  0  0
    9.3407  -13.1201   28.8086 C   0  0  0  0  0  0  0  0  0  0  0  0
   10.2381  -14.9995   27.4433 C   0  0  2  0  0  0  0  0  0  0  0  0
    9.9382  -16.0694   26.5364 N   0  0  0  0  0  0  0  0  0  0  0  0
   10.6650  -15.6277   28.7471 C   0  0  0  0  0  0  0  0  0  0  0  0
   11.1548  -14.9570   29.6894 O   0  0  0  0  0  0  0  0  0  0  0  0
   10.5202  -16.9937   28.9354 O   0  0  0  0  0  0  0  0  0  0  0  0
  2  1  1  0
  2  3  2  0
  4  3  1  0
  5  4  2  0
  6  5  1  0
  7  9  1  0
  7  6  1  0
  7  8  1  1
  9 10  2  0
 11 12  2  0
 11  5  1  0
 12  2  1  0
 13 14  1  0
 13  9  1  0
 14 15  1  6
 15 16  1  0
 16 17  1  0
 17 18  2  0
 19 20  2  0
 19 14  1  0
 21 17  1  0
 23 24  1  0
 23 22  1  0
 24 25  1  1
 24 26  1  0
 26 27  1  6
 27 19  1  0
 28 26  1  0
 28 30  1  0
 29 28  2  0
M  END
$$$$
