YEI.pdb
     RDKit          3D

 30 30  0  0  1  0  0  0  0  0999 V2000
    7.9062  -12.8373   16.4034 O   0  0  0  0  0  0  0  0  0  0  0  0
    8.0002  -13.3174   17.7064 C   0  0  0  0  0  0  0  0  0  0  0  0
    8.6808  -14.4913   18.0010 C   0  0  0  0  0  0  0  0  0  0  0  0
    8.7728  -14.9647   19.2907 C   0  0  0  0  0  0  0  0  0  0  0  0
    8.1858  -14.2727   20.3090 C   0  0  0  0  0  0  0  0  0  0  0  0
    8.2219  -14.6895   21.7347 C   0  0  0  0  0  0  0  0  0  0  0  0
    8.0741  -16.2011   21.8074 C   0  0  2  0  0  0  0  0  0  0  0  0
    6.6714  -16.5089   21.7305 N   0  0  0  0  0  0  0  0  0  0  0  0
    8.6275  -16.7331   23.0800 C   0  0  0  0  0  0  0  0  0  0  0  0
    8.0006  -16.5655   24.1653 O   0  0  0  0  0  0  0  0  0  0  0  0
    7.5067  -13.0992   20.0059 C   0  0  0  0  0  0  0  0  0  0  0  0
    7.4135  -12.6263   18.7258 C   0  0  0  0  0  0  0  0  0  0  0  0
    9.8552  -17.4390   23.1493 N   0  0  0  0  0  0  0  0  0  0  0  0
   10.4758  -17.8612   24.3886 C   0  0  1  0  0  0  0  0  0  0  0  0
   11.5382  -18.8820   24.1697 C   0  0  0  0  0  0  0  0  0  0  0  0
   12.2620  -19.3949   25.3494 C   0  0  0  0  0  0  0  0  0  0  0  0
   13.3178  -20.3569   25.2034 C   0  0  0  0  0  0  0  0  0  0  0  0
   13.2046  -21.5839   25.2409 O   0  0  0  0  0  0  0  0  0  0  0  0
   10.7922  -16.7769   25.3223 C   0  0  0  0  0  0  0  0  0  0  0  0
   11.6828  -15.8921   25.1044 O   0  0  0  0  0  0  0  0  0  0  0  0
   14.6266  -19.8695   24.9947 O   0  0  0  0  0  0  0  0  0  0  0  0
    8.3491  -12.6352   26.7092 C   0  0  0  0  0  0  0  0  0  0  0  0
    9.3304  -13.7367   26.5746 C   0  0  0  0  0  0  0  0  0  0  0  0
    9.5715  -14.5817   27.7610 C   0  0  2  0  0  0  0  0  0  0  0  0
    9.9659  -13.7196   28.9726 C   0  0  0  0  0  0  0  0  0  0  0  0
   10.5176  -15.7383   27.6226 C   0  0  2  0  0  0  0  0  0  0  0  0
   10.0985  -16.6279   26.5786 N   0  0  0  0  0  0  0  0  0  0  0  0
   10.4094  -16.4959   28.9231 C   0  0  0  0  0  0  0  0  0  0  0  0
    9.6633  -17.4971   29.0592 O   0  0  0  0  0  0  0  0  0  0  0  0
   11.1519  -16.0911   30.0218 O   0  0  0  0  0  0  0  0  0  0  0  0
  2  1  1  0
  2  3  2  0
  4  3  1  0
  5  4  2  0
  6  5  1  0
  7  9  1  0
  7  6  1  0
  7  8  1  1
  9 10  2  0
 11 12  2  0
 11  5  1  0
 12  2  1  0
 13 14  1  0
 13  9  1  0
 14 15  1  6
 15 16  1  0
 16 17  1  0
 17 18  2  0
 19 20  2  0
 19 14  1  0
 21 17  1  0
 23 24  1  0
 23 22  1  0
 24 25  1  1
 24 26  1  0
 26 27  1  6
 27 19  1  0
 28 26  1  0
 28 30  1  0
 29 28  2  0
M  END
$$$$
