YEI.pdb
     RDKit          3D

 30 30  0  0  1  0  0  0  0  0999 V2000
    8.6410  -11.8118   17.3973 O   0  0  0  0  0  0  0  0  0  0  0  0
    8.1699  -12.5493   18.4797 C   0  0  0  0  0  0  0  0  0  0  0  0
    7.0424  -13.3531   18.3758 C   0  0  0  0  0  0  0  0  0  0  0  0
    6.5779  -14.0820   19.4476 C   0  0  0  0  0  0  0  0  0  0  0  0
    7.2325  -14.0201   20.6427 C   0  0  0  0  0  0  0  0  0  0  0  0
    6.8212  -14.7625   21.8623 C   0  0  0  0  0  0  0  0  0  0  0  0
    7.1605  -16.2334   21.6785 C   0  0  2  0  0  0  0  0  0  0  0  0
    5.9284  -16.9451   21.4699 N   0  0  0  0  0  0  0  0  0  0  0  0
    7.8489  -16.7783   22.8776 C   0  0  0  0  0  0  0  0  0  0  0  0
    7.2003  -16.9889   23.9425 O   0  0  0  0  0  0  0  0  0  0  0  0
    8.3596  -13.2136   20.7383 C   0  0  0  0  0  0  0  0  0  0  0  0
    8.8237  -12.4883   19.6755 C   0  0  0  0  0  0  0  0  0  0  0  0
    9.2331  -17.0850   22.8969 N   0  0  0  0  0  0  0  0  0  0  0  0
    9.9753  -17.3954   24.1019 C   0  0  1  0  0  0  0  0  0  0  0  0
   11.0830  -18.3590   23.8510 C   0  0  0  0  0  0  0  0  0  0  0  0
   11.8601  -18.8408   25.0098 C   0  0  0  0  0  0  0  0  0  0  0  0
   12.9780  -19.7236   24.8297 C   0  0  0  0  0  0  0  0  0  0  0  0
   13.4931  -20.4421   25.6888 O   0  0  0  0  0  0  0  0  0  0  0  0
   10.2906  -16.2414   24.9483 C   0  0  0  0  0  0  0  0  0  0  0  0
   11.0009  -15.2554   24.5654 O   0  0  0  0  0  0  0  0  0  0  0  0
   13.5619  -19.7908   23.5458 O   0  0  0  0  0  0  0  0  0  0  0  0
    7.1184  -12.8128   26.6538 C   0  0  0  0  0  0  0  0  0  0  0  0
    8.3589  -13.5688   26.3637 C   0  0  0  0  0  0  0  0  0  0  0  0
    9.0752  -14.1659   27.5083 C   0  0  2  0  0  0  0  0  0  0  0  0
    9.5350  -13.0757   28.4916 C   0  0  0  0  0  0  0  0  0  0  0  0
   10.2066  -15.1080   27.2186 C   0  0  2  0  0  0  0  0  0  0  0  0
    9.8035  -16.1350   26.3022 N   0  0  0  0  0  0  0  0  0  0  0  0
   10.5092  -15.7800   28.5353 C   0  0  0  0  0  0  0  0  0  0  0  0
   10.1194  -16.9437   28.8028 O   0  0  0  0  0  0  0  0  0  0  0  0
   11.2436  -15.1083   29.5005 O   0  0  0  0  0  0  0  0  0  0  0  0
  2  1  1  0
  2  3  2  0
  4  3  1  0
  5  4  2  0
  6  5  1  0
  7  9  1  0
  7  6  1  0
  7  8  1  1
  9 10  2  0
 11 12  2  0
 11  5  1  0
 12  2  1  0
 13 14  1  0
 13  9  1  0
 14 15  1  6
 15 16  1  0
 16 17  1  0
 17 18  2  0
 19 20  2  0
 19 14  1  0
 21 17  1  0
 23 24  1  0
 23 22  1  0
 24 25  1  1
 24 26  1  0
 26 27  1  6
 27 19  1  0
 28 26  1  0
 28 30  1  0
 29 28  2  0
M  END
$$$$
