YEI.pdb
     RDKit          3D

 30 30  0  0  1  0  0  0  0  0999 V2000
   13.7700  -19.2729   30.9486 O   0  0  0  0  0  0  0  0  0  0  0  0
   13.7211  -18.4926   29.7971 C   0  0  0  0  0  0  0  0  0  0  0  0
   12.5142  -18.0642   29.2603 C   0  0  0  0  0  0  0  0  0  0  0  0
   12.4679  -17.2923   28.1211 C   0  0  0  0  0  0  0  0  0  0  0  0
   13.6274  -16.9347   27.4982 C   0  0  0  0  0  0  0  0  0  0  0  0
   13.6956  -16.1062   26.2667 C   0  0  0  0  0  0  0  0  0  0  0  0
   13.3670  -16.9821   25.0679 C   0  0  2  0  0  0  0  0  0  0  0  0
   14.5737  -17.1507   24.3040 N   0  0  0  0  0  0  0  0  0  0  0  0
   12.3256  -16.3533   24.2142 C   0  0  0  0  0  0  0  0  0  0  0  0
   12.5461  -15.2388   23.6591 O   0  0  0  0  0  0  0  0  0  0  0  0
   14.8306  -17.3674   28.0417 C   0  0  0  0  0  0  0  0  0  0  0  0
   14.8801  -18.1343   29.1732 C   0  0  0  0  0  0  0  0  0  0  0  0
   11.0607  -16.9493   23.9793 N   0  0  0  0  0  0  0  0  0  0  0  0
    9.8775  -16.2081   23.5923 C   0  0  1  0  0  0  0  0  0  0  0  0
    9.3319  -16.6583   22.2815 C   0  0  0  0  0  0  0  0  0  0  0  0
   10.2645  -16.7708   21.1429 C   0  0  0  0  0  0  0  0  0  0  0  0
    9.8150  -17.2596   19.8699 C   0  0  0  0  0  0  0  0  0  0  0  0
    9.8534  -16.6562   18.7957 O   0  0  0  0  0  0  0  0  0  0  0  0
    8.9046  -15.9916   24.6667 C   0  0  0  0  0  0  0  0  0  0  0  0
    8.5906  -16.8777   25.5268 O   0  0  0  0  0  0  0  0  0  0  0  0
    9.2703  -18.5615   19.8211 O   0  0  0  0  0  0  0  0  0  0  0  0
    7.1301  -10.6404   25.3137 C   0  0  0  0  0  0  0  0  0  0  0  0
    7.6424  -11.9714   25.7138 C   0  0  0  0  0  0  0  0  0  0  0  0
    6.6824  -13.0929   25.7310 C   0  0  2  0  0  0  0  0  0  0  0  0
    5.6003  -12.8670   26.8010 C   0  0  0  0  0  0  0  0  0  0  0  0
    7.2279  -14.4868   25.8371 C   0  0  2  0  0  0  0  0  0  0  0  0
    8.2236  -14.7307   24.8340 N   0  0  0  0  0  0  0  0  0  0  0  0
    6.0600  -15.3930   25.5345 C   0  0  0  0  0  0  0  0  0  0  0  0
    5.7790  -15.7627   24.3675 O   0  0  0  0  0  0  0  0  0  0  0  0
    5.2536  -15.8478   26.5666 O   0  0  0  0  0  0  0  0  0  0  0  0
  2  1  1  0
  2  3  2  0
  4  3  1  0
  5  4  2  0
  6  5  1  0
  7  9  1  0
  7  6  1  0
  7  8  1  6
  9 10  2  0
 11 12  2  0
 11  5  1  0
 12  2  1  0
 13 14  1  0
 13  9  1  0
 14 15  1  6
 15 16  1  0
 16 17  1  0
 17 18  2  0
 19 20  2  0
 19 14  1  0
 21 17  1  0
 23 24  1  0
 23 22  1  0
 24 25  1  1
 24 26  1  0
 26 27  1  6
 27 19  1  0
 28 26  1  0
 28 30  1  0
 29 28  2  0
M  END
$$$$
