YEI.pdb
     RDKit          3D

 30 30  0  0  1  0  0  0  0  0999 V2000
    7.4242  -12.1369   16.3012 O   0  0  0  0  0  0  0  0  0  0  0  0
    7.5805  -12.7886   17.5211 C   0  0  0  0  0  0  0  0  0  0  0  0
    8.6298  -12.4846   18.3782 C   0  0  0  0  0  0  0  0  0  0  0  0
    8.7828  -13.1303   19.5846 C   0  0  0  0  0  0  0  0  0  0  0  0
    7.8894  -14.0917   19.9558 C   0  0  0  0  0  0  0  0  0  0  0  0
    7.9570  -14.8503   21.2315 C   0  0  0  0  0  0  0  0  0  0  0  0
    9.0677  -15.8838   21.1289 C   0  0  2  0  0  0  0  0  0  0  0  0
    8.6769  -16.8510   20.1389 N   0  0  0  0  0  0  0  0  0  0  0  0
    9.2844  -16.5686   22.4300 C   0  0  0  0  0  0  0  0  0  0  0  0
    8.3557  -17.2490   22.9529 O   0  0  0  0  0  0  0  0  0  0  0  0
    6.8424  -14.3900   19.0926 C   0  0  0  0  0  0  0  0  0  0  0  0
    6.6876  -13.7504   17.8935 C   0  0  0  0  0  0  0  0  0  0  0  0
   10.5097  -16.5007   23.1401 N   0  0  0  0  0  0  0  0  0  0  0  0
   10.7089  -17.0568   24.4632 C   0  0  1  0  0  0  0  0  0  0  0  0
   11.5762  -18.2675   24.4429 C   0  0  0  0  0  0  0  0  0  0  0  0
   11.6594  -19.0411   23.1885 C   0  0  0  0  0  0  0  0  0  0  0  0
   12.5309  -20.1771   23.0818 C   0  0  0  0  0  0  0  0  0  0  0  0
   13.7593  -20.1543   22.9813 O   0  0  0  0  0  0  0  0  0  0  0  0
   10.9842  -16.0718   25.5128 C   0  0  0  0  0  0  0  0  0  0  0  0
   12.0376  -15.3562   25.5536 O   0  0  0  0  0  0  0  0  0  0  0  0
   11.9416  -21.4604   23.0908 O   0  0  0  0  0  0  0  0  0  0  0  0
    6.7632  -13.2304   27.7674 C   0  0  0  0  0  0  0  0  0  0  0  0
    7.8078  -14.2771   27.6800 C   0  0  0  0  0  0  0  0  0  0  0  0
    9.2160  -13.8336   27.6681 C   0  0  2  0  0  0  0  0  0  0  0  0
    9.4558  -12.8128   26.5425 C   0  0  0  0  0  0  0  0  0  0  0  0
   10.2863  -14.8851   27.6460 C   0  0  2  0  0  0  0  0  0  0  0  0
   10.0592  -15.8331   26.5940 N   0  0  0  0  0  0  0  0  0  0  0  0
   10.1402  -15.6262   28.9522 C   0  0  0  0  0  0  0  0  0  0  0  0
    9.7767  -16.8271   29.0082 O   0  0  0  0  0  0  0  0  0  0  0  0
   10.4126  -14.9787   30.1476 O   0  0  0  0  0  0  0  0  0  0  0  0
  2  1  1  0
  2  3  2  0
  4  3  1  0
  5  4  2  0
  6  5  1  0
  7  9  1  0
  7  6  1  0
  7  8  1  6
  9 10  2  0
 11 12  2  0
 11  5  1  0
 12  2  1  0
 13 14  1  0
 13  9  1  0
 14 15  1  6
 15 16  1  0
 16 17  1  0
 17 18  2  0
 19 20  2  0
 19 14  1  0
 21 17  1  0
 23 24  1  0
 23 22  1  0
 24 25  1  6
 24 26  1  0
 26 27  1  6
 27 19  1  0
 28 26  1  0
 28 30  1  0
 29 28  2  0
M  END
$$$$
