SLN.pdb
     RDKit          3D

 23 22  0  0  1  0  0  0  0  0999 V2000
   19.3678   -9.2973  -21.1522 O   0  0  0  0  0  0  0  0  0  0  0  0
   19.0844   -8.8837  -19.8462 C   0  0  0  0  0  0  0  0  0  0  0  0
   19.7447   -9.8320  -18.8512 C   0  0  2  0  0  0  0  0  0  0  0  0
   19.0498  -11.0962  -18.8238 N   0  0  0  0  0  0  0  0  0  0  0  0
   19.7609   -9.1539  -17.5441 C   0  0  0  0  0  0  0  0  0  0  0  0
   18.6583   -8.8897  -17.0015 O   0  0  0  0  0  0  0  0  0  0  0  0
   23.4902   -9.8389  -13.4156 C   0  0  0  0  0  0  0  0  0  0  0  0
   22.1180   -9.7022  -14.0952 C   0  0  1  0  0  0  0  0  0  0  0  0
   21.1092   -9.7274  -12.9399 C   0  0  0  0  0  0  0  0  0  0  0  0
   22.1017   -8.3426  -14.7135 C   0  0  0  0  0  0  0  0  0  0  0  0
   20.9291   -8.0597  -15.5875 C   0  0  2  0  0  0  0  0  0  0  0  0
   20.9328   -8.7706  -16.8402 N   0  0  0  0  0  0  0  0  0  0  0  0
   20.9354   -6.6062  -15.8903 C   0  0  0  0  0  0  0  0  0  0  0  0
   21.8997   -6.1044  -16.5105 O   0  0  0  0  0  0  0  0  0  0  0  0
   20.3422   -2.6294  -18.6395 N   0  0  0  0  0  0  0  0  0  0  0  0
   19.2210   -3.4122  -18.2017 C   0  0  0  0  0  0  0  0  0  0  0  0
   18.0818   -2.9473  -18.3821 O   0  0  0  0  0  0  0  0  0  0  0  0
   19.5007   -4.7155  -17.5673 C   0  0  0  0  0  0  0  0  0  0  0  0
   19.6610   -4.5242  -16.0892 C   0  0  2  0  0  0  0  0  0  0  0  0
   19.8373   -5.8062  -15.4665 N   0  0  0  0  0  0  0  0  0  0  0  0
   18.5022   -3.8322  -15.4659 C   0  0  0  0  0  0  0  0  0  0  0  0
   17.5629   -4.4694  -14.9060 O   0  0  0  0  0  0  0  0  0  0  0  0
   18.3934   -2.4478  -15.4679 O   0  0  0  0  0  0  0  0  0  0  0  0
  2  1  1  0
  3  4  1  1
  3  2  1  0
  5  3  1  0
  6  5  2  0
  8  7  1  1
  8 10  1  0
  9  8  1  0
 11 10  1  1
 11 12  1  0
 11 13  1  0
 12  5  1  0
 13 20  1  0
 14 13  2  0
 16 18  1  0
 16 15  1  0
 17 16  2  0
 19 21  1  0
 19 18  1  6
 20 19  1  0
 21 23  1  0
 22 21  2  0
M  END
$$$$
