SLN.pdb
     RDKit          3D

 23 22  0  0  1  0  0  0  0  0999 V2000
   17.8065  -12.0489  -18.0176 O   0  0  0  0  0  0  0  0  0  0  0  0
   18.7850  -11.3786  -17.2756 C   0  0  0  0  0  0  0  0  0  0  0  0
   20.0328  -12.2481  -17.1651 C   0  0  2  0  0  0  0  0  0  0  0  0
   19.7105  -13.5156  -16.5556 N   0  0  0  0  0  0  0  0  0  0  0  0
   21.0355  -11.4815  -16.4066 C   0  0  0  0  0  0  0  0  0  0  0  0
   20.7942  -11.2239  -15.2003 O   0  0  0  0  0  0  0  0  0  0  0  0
   25.7834  -10.1742  -14.5328 C   0  0  0  0  0  0  0  0  0  0  0  0
   25.5986   -9.4868  -15.8954 C   0  0  1  0  0  0  0  0  0  0  0  0
   26.9671   -9.6060  -16.5783 C   0  0  0  0  0  0  0  0  0  0  0  0
   24.6161  -10.3247  -16.6461 C   0  0  0  0  0  0  0  0  0  0  0  0
   23.2017  -10.1955  -16.1968 C   0  0  2  0  0  0  0  0  0  0  0  0
   22.2650  -11.0048  -16.9330 N   0  0  0  0  0  0  0  0  0  0  0  0
   22.8051   -8.7747  -16.3659 C   0  0  0  0  0  0  0  0  0  0  0  0
   22.6254   -8.3118  -17.5146 O   0  0  0  0  0  0  0  0  0  0  0  0
   20.5694   -4.9789  -16.6924 N   0  0  0  0  0  0  0  0  0  0  0  0
   20.0471   -5.5007  -15.4611 C   0  0  0  0  0  0  0  0  0  0  0  0
   18.8915   -5.1761  -15.1361 O   0  0  0  0  0  0  0  0  0  0  0  0
   20.9206   -6.3870  -14.6668 C   0  0  0  0  0  0  0  0  0  0  0  0
   22.2089   -6.6035  -15.4021 C   0  0  2  0  0  0  0  0  0  0  0  0
   22.6361   -7.9612  -15.2104 N   0  0  0  0  0  0  0  0  0  0  0  0
   23.2895   -5.6831  -14.9603 C   0  0  0  0  0  0  0  0  0  0  0  0
   24.2773   -6.0867  -14.2798 O   0  0  0  0  0  0  0  0  0  0  0  0
   23.2676   -4.3304  -15.2738 O   0  0  0  0  0  0  0  0  0  0  0  0
  2  1  1  0
  3  4  1  1
  3  2  1  0
  5  3  1  0
  6  5  2  0
  8  7  1  1
  8 10  1  0
  9  8  1  0
 11 10  1  6
 11 12  1  0
 11 13  1  0
 12  5  1  0
 13 20  1  0
 14 13  2  0
 16 18  1  0
 16 15  1  0
 17 16  2  0
 19 21  1  0
 19 18  1  1
 20 19  1  0
 21 23  1  0
 22 21  2  0
M  END
$$$$
