SLN.pdb
     RDKit          3D

 23 22  0  0  1  0  0  0  0  0999 V2000
   26.2041  -17.9580  -16.4434 O   0  0  0  0  0  0  0  0  0  0  0  0
   27.0176  -17.7688  -15.3210 C   0  0  0  0  0  0  0  0  0  0  0  0
   27.7159  -19.0769  -14.9651 C   0  0  2  0  0  0  0  0  0  0  0  0
   28.3506  -19.6419  -16.1312 N   0  0  0  0  0  0  0  0  0  0  0  0
   26.7038  -19.9663  -14.3710 C   0  0  0  0  0  0  0  0  0  0  0  0
   26.3965  -21.0127  -14.9957 O   0  0  0  0  0  0  0  0  0  0  0  0
   25.6386  -20.3079   -8.7952 C   0  0  0  0  0  0  0  0  0  0  0  0
   26.0747  -20.6586  -10.2271 C   0  0  1  0  0  0  0  0  0  0  0  0
   26.3797  -22.1613  -10.1822 C   0  0  0  0  0  0  0  0  0  0  0  0
   24.8719  -20.4411  -11.0855 C   0  0  0  0  0  0  0  0  0  0  0  0
   25.0920  -20.6432  -12.5449 C   0  0  2  0  0  0  0  0  0  0  0  0
   26.0403  -19.7352  -13.1371 N   0  0  0  0  0  0  0  0  0  0  0  0
   23.7880  -20.4463  -13.2269 C   0  0  0  0  0  0  0  0  0  0  0  0
   23.4222  -19.2934  -13.5483 O   0  0  0  0  0  0  0  0  0  0  0  0
   19.9831  -22.2286  -17.0066 N   0  0  0  0  0  0  0  0  0  0  0  0
   20.0486  -22.4173  -15.5849 C   0  0  0  0  0  0  0  0  0  0  0  0
   18.9793  -22.4257  -14.9499 O   0  0  0  0  0  0  0  0  0  0  0  0
   21.3828  -22.5882  -14.9766 C   0  0  0  0  0  0  0  0  0  0  0  0
   21.7293  -21.3621  -14.1868 C   0  0  2  0  0  0  0  0  0  0  0  0
   22.9736  -21.5801  -13.5037 N   0  0  0  0  0  0  0  0  0  0  0  0
   20.6835  -20.9975  -13.1951 C   0  0  0  0  0  0  0  0  0  0  0  0
   20.7355  -21.3872  -11.9921 O   0  0  0  0  0  0  0  0  0  0  0  0
   19.5944  -20.2087  -13.5418 O   0  0  0  0  0  0  0  0  0  0  0  0
  2  1  1  0
  3  4  1  6
  3  2  1  0
  5  3  1  0
  6  5  2  0
  8  7  1  1
  8 10  1  0
  9  8  1  0
 11 10  1  1
 11 12  1  0
 11 13  1  0
 12  5  1  0
 13 20  1  0
 14 13  2  0
 16 18  1  0
 16 15  1  0
 17 16  2  0
 19 21  1  0
 19 18  1  1
 20 19  1  0
 21 23  1  0
 22 21  2  0
M  END
$$$$
