SLN.pdb
     RDKit          3D

 23 22  0  0  1  0  0  0  0  0999 V2000
   22.4407   -4.5618  -16.4598 O   0  0  0  0  0  0  0  0  0  0  0  0
   23.1033   -4.3592  -17.6752 C   0  0  0  0  0  0  0  0  0  0  0  0
   24.3597   -5.2219  -17.7265 C   0  0  2  0  0  0  0  0  0  0  0  0
   25.1203   -4.9326  -18.9180 N   0  0  0  0  0  0  0  0  0  0  0  0
   23.9297   -6.6278  -17.6436 C   0  0  0  0  0  0  0  0  0  0  0  0
   23.4697   -7.1675  -18.6813 O   0  0  0  0  0  0  0  0  0  0  0  0
   26.4025  -10.8327  -14.9141 C   0  0  0  0  0  0  0  0  0  0  0  0
   25.7360   -9.9938  -16.0165 C   0  0  1  0  0  0  0  0  0  0  0  0
   25.6041  -10.9525  -17.2067 C   0  0  0  0  0  0  0  0  0  0  0  0
   24.3683   -9.6682  -15.5120 C   0  0  0  0  0  0  0  0  0  0  0  0
   23.5537   -8.8010  -16.4084 C   0  0  2  0  0  0  0  0  0  0  0  0
   23.9931   -7.4310  -16.4745 N   0  0  0  0  0  0  0  0  0  0  0  0
   22.1609   -8.8068  -15.8940 C   0  0  0  0  0  0  0  0  0  0  0  0
   21.8808   -8.1750  -14.8507 O   0  0  0  0  0  0  0  0  0  0  0  0
   17.3010   -9.3040  -15.3237 N   0  0  0  0  0  0  0  0  0  0  0  0
   17.4805   -9.4929  -16.7355 C   0  0  0  0  0  0  0  0  0  0  0  0
   16.4636   -9.5365  -17.4500 O   0  0  0  0  0  0  0  0  0  0  0  0
   18.8620   -9.6224  -17.2397 C   0  0  0  0  0  0  0  0  0  0  0  0
   19.8218   -9.5045  -16.0942 C   0  0  2  0  0  0  0  0  0  0  0  0
   21.1647   -9.5358  -16.6021 N   0  0  0  0  0  0  0  0  0  0  0  0
   19.6545  -10.5834  -15.0852 C   0  0  0  0  0  0  0  0  0  0  0  0
   18.9610  -10.4211  -14.0390 O   0  0  0  0  0  0  0  0  0  0  0  0
   20.2533  -11.8265  -15.2420 O   0  0  0  0  0  0  0  0  0  0  0  0
  2  1  1  0
  3  4  1  6
  3  2  1  0
  5  3  1  0
  6  5  2  0
  8  7  1  1
  8 10  1  0
  9  8  1  0
 11 10  1  1
 11 12  1  0
 11 13  1  0
 12  5  1  0
 13 20  1  0
 14 13  2  0
 16 18  1  0
 16 15  1  0
 17 16  2  0
 19 21  1  0
 19 18  1  6
 20 19  1  0
 21 23  1  0
 22 21  2  0
M  END
$$$$
