SLN.pdb
     RDKit          3D

 23 22  0  0  1  0  0  0  0  0999 V2000
   24.3817   -5.8676  -21.4167 O   0  0  0  0  0  0  0  0  0  0  0  0
   23.3469   -6.3898  -20.6333 C   0  0  0  0  0  0  0  0  0  0  0  0
   23.6692   -7.8295  -20.2479 C   0  0  2  0  0  0  0  0  0  0  0  0
   23.4771   -8.7075  -21.3767 N   0  0  0  0  0  0  0  0  0  0  0  0
   22.8193   -8.1757  -19.0964 C   0  0  0  0  0  0  0  0  0  0  0  0
   21.6199   -8.4800  -19.3171 O   0  0  0  0  0  0  0  0  0  0  0  0
   21.3350  -10.5142  -14.6346 C   0  0  0  0  0  0  0  0  0  0  0  0
   22.2639   -9.3498  -14.2538 C   0  0  1  0  0  0  0  0  0  0  0  0
   23.1494   -9.9110  -13.1340 C   0  0  0  0  0  0  0  0  0  0  0  0
   23.1156   -9.0969  -15.4544 C   0  0  0  0  0  0  0  0  0  0  0  0
   22.3996   -8.5228  -16.6278 C   0  0  2  0  0  0  0  0  0  0  0  0
   23.2492   -8.1937  -17.7433 N   0  0  0  0  0  0  0  0  0  0  0  0
   21.7339   -7.2734  -16.1800 C   0  0  0  0  0  0  0  0  0  0  0  0
   22.3523   -6.1867  -16.2313 O   0  0  0  0  0  0  0  0  0  0  0  0
   18.4931   -3.6521  -18.2532 N   0  0  0  0  0  0  0  0  0  0  0  0
   18.8730   -4.2409  -17.0002 C   0  0  0  0  0  0  0  0  0  0  0  0
   18.5620   -3.6391  -15.9573 O   0  0  0  0  0  0  0  0  0  0  0  0
   19.6072   -5.5211  -17.0387 C   0  0  0  0  0  0  0  0  0  0  0  0
   19.6370   -6.1181  -15.6640 C   0  0  2  0  0  0  0  0  0  0  0  0
   20.3964   -7.3365  -15.6979 N   0  0  0  0  0  0  0  0  0  0  0  0
   18.2802   -6.4015  -15.1263 C   0  0  0  0  0  0  0  0  0  0  0  0
   17.5553   -7.3290  -15.5909 O   0  0  0  0  0  0  0  0  0  0  0  0
   17.7401   -5.6593  -14.0842 O   0  0  0  0  0  0  0  0  0  0  0  0
  2  1  1  0
  3  4  1  6
  3  2  1  0
  5  3  1  0
  6  5  2  0
  8  7  1  6
  8 10  1  0
  9  8  1  0
 11 10  1  1
 11 12  1  0
 11 13  1  0
 12  5  1  0
 13 20  1  0
 14 13  2  0
 16 18  1  0
 16 15  1  0
 17 16  2  0
 19 21  1  0
 19 18  1  6
 20 19  1  0
 21 23  1  0
 22 21  2  0
M  END
$$$$
