SLN.pdb
     RDKit          3D

 23 22  0  0  1  0  0  0  0  0999 V2000
   19.3969  -13.6648  -18.9218 O   0  0  0  0  0  0  0  0  0  0  0  0
   20.1885  -12.5554  -18.6059 C   0  0  0  0  0  0  0  0  0  0  0  0
   21.2637  -12.9590  -17.6028 C   0  0  2  0  0  0  0  0  0  0  0  0
   20.7795  -14.0111  -16.7423 N   0  0  0  0  0  0  0  0  0  0  0  0
   21.6540  -11.7450  -16.8664 C   0  0  0  0  0  0  0  0  0  0  0  0
   20.8987  -11.3438  -15.9454 O   0  0  0  0  0  0  0  0  0  0  0  0
   26.9510  -10.0128  -15.8064 C   0  0  0  0  0  0  0  0  0  0  0  0
   25.5037  -10.5136  -15.6717 C   0  0  1  0  0  0  0  0  0  0  0  0
   25.2062  -10.4390  -14.1687 C   0  0  0  0  0  0  0  0  0  0  0  0
   24.6554   -9.5065  -16.3767 C   0  0  0  0  0  0  0  0  0  0  0  0
   23.1952   -9.8012  -16.3798 C   0  0  2  0  0  0  0  0  0  0  0  0
   22.8262  -10.9834  -17.1152 N   0  0  0  0  0  0  0  0  0  0  0  0
   22.5052   -8.6443  -17.0041 C   0  0  0  0  0  0  0  0  0  0  0  0
   22.3919   -8.5858  -18.2491 O   0  0  0  0  0  0  0  0  0  0  0  0
   17.7919   -6.2561  -18.0123 N   0  0  0  0  0  0  0  0  0  0  0  0
   19.2193   -6.1903  -18.1512 C   0  0  0  0  0  0  0  0  0  0  0  0
   19.6953   -5.2599  -18.8254 O   0  0  0  0  0  0  0  0  0  0  0  0
   20.0222   -7.2334  -17.4827 C   0  0  0  0  0  0  0  0  0  0  0  0
   21.1838   -6.5941  -16.7834 C   0  0  2  0  0  0  0  0  0  0  0  0
   21.9826   -7.6172  -16.1690 N   0  0  0  0  0  0  0  0  0  0  0  0
   20.7671   -5.6109  -15.7490 C   0  0  0  0  0  0  0  0  0  0  0  0
   20.7877   -5.8876  -14.5142 O   0  0  0  0  0  0  0  0  0  0  0  0
   20.3333   -4.3361  -16.0886 O   0  0  0  0  0  0  0  0  0  0  0  0
  2  1  1  0
  3  4  1  1
  3  2  1  0
  5  3  1  0
  6  5  2  0
  8  7  1  1
  8 10  1  0
  9  8  1  0
 11 10  1  6
 11 12  1  0
 11 13  1  0
 12  5  1  0
 13 20  1  0
 14 13  2  0
 16 18  1  0
 16 15  1  0
 17 16  2  0
 19 21  1  0
 19 18  1  1
 20 19  1  0
 21 23  1  0
 22 21  2  0
M  END
$$$$
