SLN.pdb
     RDKit          3D

 23 22  0  0  1  0  0  0  0  0999 V2000
   20.3505  -13.3694  -19.6151 O   0  0  0  0  0  0  0  0  0  0  0  0
   20.8825  -12.4657  -18.6891 C   0  0  0  0  0  0  0  0  0  0  0  0
   22.2236  -12.9817  -18.1785 C   0  0  2  0  0  0  0  0  0  0  0  0
   22.0654  -14.2825  -17.5746 N   0  0  0  0  0  0  0  0  0  0  0  0
   22.7548  -11.9734  -17.2460 C   0  0  0  0  0  0  0  0  0  0  0  0
   22.1415  -11.7868  -16.1649 O   0  0  0  0  0  0  0  0  0  0  0  0
   28.1255  -10.0886  -16.6541 C   0  0  0  0  0  0  0  0  0  0  0  0
   26.7453  -10.7205  -16.4109 C   0  0  1  0  0  0  0  0  0  0  0  0
   26.6754  -10.9260  -14.8923 C   0  0  0  0  0  0  0  0  0  0  0  0
   25.7456   -9.6807  -16.7984 C   0  0  0  0  0  0  0  0  0  0  0  0
   24.3203  -10.0836  -16.6392 C   0  0  2  0  0  0  0  0  0  0  0  0
   23.9152  -11.1869  -17.4716 N   0  0  0  0  0  0  0  0  0  0  0  0
   23.4803   -8.9127  -16.9967 C   0  0  0  0  0  0  0  0  0  0  0  0
   23.4612   -8.4986  -18.1775 O   0  0  0  0  0  0  0  0  0  0  0  0
   18.7023   -7.0323  -18.4012 N   0  0  0  0  0  0  0  0  0  0  0  0
   19.9983   -6.6726  -17.8990 C   0  0  0  0  0  0  0  0  0  0  0  0
   20.3020   -5.4667  -17.8850 O   0  0  0  0  0  0  0  0  0  0  0  0
   20.8800   -7.7616  -17.4340 C   0  0  0  0  0  0  0  0  0  0  0  0
   21.8063   -7.2348  -16.3798 C   0  0  2  0  0  0  0  0  0  0  0  0
   22.7080   -8.2796  -15.9827 N   0  0  0  0  0  0  0  0  0  0  0  0
   21.0894   -6.7249  -15.1813 C   0  0  0  0  0  0  0  0  0  0  0  0
   20.2817   -5.7528  -15.2466 O   0  0  0  0  0  0  0  0  0  0  0  0
   21.2719   -7.2925  -13.9271 O   0  0  0  0  0  0  0  0  0  0  0  0
  2  1  1  0
  3  4  1  1
  3  2  1  0
  5  3  1  0
  6  5  2  0
  8  7  1  1
  8 10  1  0
  9  8  1  0
 11 10  1  6
 11 12  1  0
 11 13  1  0
 12  5  1  0
 13 20  1  0
 14 13  2  0
 16 18  1  0
 16 15  1  0
 17 16  2  0
 19 21  1  0
 19 18  1  6
 20 19  1  0
 21 23  1  0
 22 21  2  0
M  END
$$$$
