SLN.pdb
     RDKit          3D

 23 22  0  0  1  0  0  0  0  0999 V2000
   21.3625  -14.2190  -19.6734 O   0  0  0  0  0  0  0  0  0  0  0  0
   21.5889  -13.5992  -18.4398 C   0  0  0  0  0  0  0  0  0  0  0  0
   22.7697  -14.2630  -17.7393 C   0  0  2  0  0  0  0  0  0  0  0  0
   22.3643  -15.5144  -17.1464 N   0  0  0  0  0  0  0  0  0  0  0  0
   23.2926  -13.3007  -16.7550 C   0  0  0  0  0  0  0  0  0  0  0  0
   22.6575  -13.1496  -15.6809 O   0  0  0  0  0  0  0  0  0  0  0  0
   28.6643  -12.0649  -16.4252 C   0  0  0  0  0  0  0  0  0  0  0  0
   27.2212  -12.5538  -16.2209 C   0  0  1  0  0  0  0  0  0  0  0  0
   27.2700  -13.3755  -14.9264 C   0  0  0  0  0  0  0  0  0  0  0  0
   26.4046  -11.3272  -15.9771 C   0  0  0  0  0  0  0  0  0  0  0  0
   24.9301  -11.5391  -15.9767 C   0  0  2  0  0  0  0  0  0  0  0  0
   24.4679  -12.5218  -16.9227 N   0  0  0  0  0  0  0  0  0  0  0  0
   24.2905  -10.2436  -16.3187 C   0  0  0  0  0  0  0  0  0  0  0  0
   24.5125   -9.7150  -17.4311 O   0  0  0  0  0  0  0  0  0  0  0  0
   19.8407   -7.8164  -18.0449 N   0  0  0  0  0  0  0  0  0  0  0  0
   21.1203   -7.6164  -17.4252 C   0  0  0  0  0  0  0  0  0  0  0  0
   21.5302   -6.4487  -17.3021 O   0  0  0  0  0  0  0  0  0  0  0  0
   21.8598   -8.8130  -16.9774 C   0  0  0  0  0  0  0  0  0  0  0  0
   22.6972   -8.4619  -15.7847 C   0  0  2  0  0  0  0  0  0  0  0  0
   23.4314   -9.6238  -15.3684 N   0  0  0  0  0  0  0  0  0  0  0  0
   21.8930   -7.9551  -14.6416 C   0  0  0  0  0  0  0  0  0  0  0  0
   21.1766   -6.9160  -14.7345 O   0  0  0  0  0  0  0  0  0  0  0  0
   21.8887   -8.5997  -13.4115 O   0  0  0  0  0  0  0  0  0  0  0  0
  2  1  1  0
  3  4  1  1
  3  2  1  0
  5  3  1  0
  6  5  2  0
  8  7  1  1
  8 10  1  0
  9  8  1  0
 11 10  1  6
 11 12  1  0
 11 13  1  0
 12  5  1  0
 13 20  1  0
 14 13  2  0
 16 18  1  0
 16 15  1  0
 17 16  2  0
 19 21  1  0
 19 18  1  6
 20 19  1  0
 21 23  1  0
 22 21  2  0
M  END
$$$$
