SLN.pdb
     RDKit          3D

 23 22  0  0  1  0  0  0  0  0999 V2000
   20.4410  -11.5510  -20.9275 O   0  0  0  0  0  0  0  0  0  0  0  0
   20.6574  -11.0528  -19.6382 C   0  0  0  0  0  0  0  0  0  0  0  0
   21.7900  -11.8257  -18.9711 C   0  0  2  0  0  0  0  0  0  0  0  0
   21.3470  -13.1481  -18.6010 N   0  0  0  0  0  0  0  0  0  0  0  0
   22.2474  -11.0275  -17.8213 C   0  0  0  0  0  0  0  0  0  0  0  0
   21.5213  -10.9979  -16.7958 O   0  0  0  0  0  0  0  0  0  0  0  0
   27.5803  -10.0555  -16.3081 C   0  0  0  0  0  0  0  0  0  0  0  0
   26.1054  -10.4889  -16.3287 C   0  0  1  0  0  0  0  0  0  0  0  0
   25.8334  -11.0051  -14.9099 C   0  0  0  0  0  0  0  0  0  0  0  0
   25.3151   -9.2396  -16.5418 C   0  0  0  0  0  0  0  0  0  0  0  0
   23.8448   -9.4371  -16.6771 C   0  0  2  0  0  0  0  0  0  0  0  0
   23.4544  -10.2811  -17.7769 N   0  0  0  0  0  0  0  0  0  0  0  0
   23.2303   -8.1021  -16.8888 C   0  0  0  0  0  0  0  0  0  0  0  0
   23.0588   -7.6741  -18.0522 O   0  0  0  0  0  0  0  0  0  0  0  0
   18.6162   -5.3541  -16.8347 N   0  0  0  0  0  0  0  0  0  0  0  0
   20.0430   -5.2570  -16.9608 C   0  0  0  0  0  0  0  0  0  0  0  0
   20.5267   -4.1489  -17.2518 O   0  0  0  0  0  0  0  0  0  0  0  0
   20.8361   -6.4816  -16.7356 C   0  0  0  0  0  0  0  0  0  0  0  0
   22.0874   -6.1324  -15.9876 C   0  0  2  0  0  0  0  0  0  0  0  0
   22.8458   -7.3299  -15.7569 N   0  0  0  0  0  0  0  0  0  0  0  0
   21.8172   -5.4656  -14.6866 C   0  0  0  0  0  0  0  0  0  0  0  0
   21.4705   -4.2505  -14.6154 O   0  0  0  0  0  0  0  0  0  0  0  0
   21.9326   -6.1461  -13.4816 O   0  0  0  0  0  0  0  0  0  0  0  0
  2  1  1  0
  3  4  1  1
  3  2  1  0
  5  3  1  0
  6  5  2  0
  8  7  1  1
  8 10  1  0
  9  8  1  0
 11 10  1  6
 11 12  1  0
 11 13  1  0
 12  5  1  0
 13 20  1  0
 14 13  2  0
 16 18  1  0
 16 15  1  0
 17 16  2  0
 19 21  1  0
 19 18  1  1
 20 19  1  0
 21 23  1  0
 22 21  2  0
M  END
$$$$
