SLN.pdb
     RDKit          3D

 23 22  0  0  1  0  0  0  0  0999 V2000
   20.9698  -10.5404  -21.1829 O   0  0  0  0  0  0  0  0  0  0  0  0
   21.3419  -10.1125  -19.9040 C   0  0  0  0  0  0  0  0  0  0  0  0
   22.1672  -11.1962  -19.2184 C   0  0  2  0  0  0  0  0  0  0  0  0
   21.4007  -12.4129  -19.0998 N   0  0  0  0  0  0  0  0  0  0  0  0
   22.6021  -10.6591  -17.9181 C   0  0  0  0  0  0  0  0  0  0  0  0
   21.8217  -10.7752  -16.9397 O   0  0  0  0  0  0  0  0  0  0  0  0
   27.9685  -10.4099  -16.4570 C   0  0  0  0  0  0  0  0  0  0  0  0
   26.4717  -10.7606  -16.4583 C   0  0  1  0  0  0  0  0  0  0  0  0
   26.2856  -11.6690  -15.2362 C   0  0  0  0  0  0  0  0  0  0  0  0
   25.7506   -9.4760  -16.2124 C   0  0  0  0  0  0  0  0  0  0  0  0
   24.2726   -9.5370  -16.3883 C   0  0  2  0  0  0  0  0  0  0  0  0
   23.8440  -10.0142  -17.6778 N   0  0  0  0  0  0  0  0  0  0  0  0
   23.7428   -8.1609  -16.2143 C   0  0  0  0  0  0  0  0  0  0  0  0
   23.5898   -7.4227  -17.2132 O   0  0  0  0  0  0  0  0  0  0  0  0
   22.1558   -3.9057  -14.3122 N   0  0  0  0  0  0  0  0  0  0  0  0
   22.8476   -4.1364  -15.5489 C   0  0  0  0  0  0  0  0  0  0  0  0
   23.0808   -3.1550  -16.2762 O   0  0  0  0  0  0  0  0  0  0  0  0
   23.2337   -5.5247  -15.8699 C   0  0  0  0  0  0  0  0  0  0  0  0
   22.7525   -6.4380  -14.7829 C   0  0  2  0  0  0  0  0  0  0  0  0
   23.4172   -7.7050  -14.9061 N   0  0  0  0  0  0  0  0  0  0  0  0
   21.2816   -6.6514  -14.8148 C   0  0  0  0  0  0  0  0  0  0  0  0
   20.5710   -6.5798  -13.7700 O   0  0  0  0  0  0  0  0  0  0  0  0
   20.6131   -6.9409  -15.9971 O   0  0  0  0  0  0  0  0  0  0  0  0
  2  1  1  0
  3  4  1  1
  3  2  1  0
  5  3  1  0
  6  5  2  0
  8  7  1  1
  8 10  1  0
  9  8  1  0
 11 10  1  6
 11 12  1  0
 11 13  1  0
 12  5  1  0
 13 20  1  0
 14 13  2  0
 16 18  1  0
 16 15  1  0
 17 16  2  0
 19 21  1  0
 19 18  1  6
 20 19  1  0
 21 23  1  0
 22 21  2  0
M  END
$$$$
