SLN.pdb
     RDKit          3D

 23 22  0  0  1  0  0  0  0  0999 V2000
   17.5051  -11.4623  -18.8195 O   0  0  0  0  0  0  0  0  0  0  0  0
   18.3077  -10.8922  -17.8255 C   0  0  0  0  0  0  0  0  0  0  0  0
   19.4202  -11.8624  -17.4429 C   0  0  2  0  0  0  0  0  0  0  0  0
   18.8704  -13.0278  -16.7938 N   0  0  0  0  0  0  0  0  0  0  0  0
   20.3723  -11.1251  -16.5953 C   0  0  0  0  0  0  0  0  0  0  0  0
   20.0057  -10.8024  -15.4372 O   0  0  0  0  0  0  0  0  0  0  0  0
   25.0427  -10.0547  -14.3223 C   0  0  0  0  0  0  0  0  0  0  0  0
   24.9719   -9.3376  -15.6803 C   0  0  1  0  0  0  0  0  0  0  0  0
   26.3822   -9.4792  -16.2672 C   0  0  0  0  0  0  0  0  0  0  0  0
   24.0251  -10.1358  -16.5153 C   0  0  0  0  0  0  0  0  0  0  0  0
   22.5868   -9.9876  -16.1567 C   0  0  2  0  0  0  0  0  0  0  0  0
   21.6840  -10.7455  -16.9843 N   0  0  0  0  0  0  0  0  0  0  0  0
   22.2349   -8.5521  -16.2971 C   0  0  0  0  0  0  0  0  0  0  0  0
   22.1522   -8.0407  -17.4363 O   0  0  0  0  0  0  0  0  0  0  0  0
   20.8230   -3.8926  -15.4994 N   0  0  0  0  0  0  0  0  0  0  0  0
   19.7766   -4.8369  -15.2258 C   0  0  0  0  0  0  0  0  0  0  0  0
   18.6138   -4.4056  -15.1347 O   0  0  0  0  0  0  0  0  0  0  0  0
   20.1562   -6.2552  -15.0718 C   0  0  0  0  0  0  0  0  0  0  0  0
   21.6316   -6.4013  -15.2928 C   0  0  2  0  0  0  0  0  0  0  0  0
   21.9969   -7.7801  -15.1255 N   0  0  0  0  0  0  0  0  0  0  0  0
   22.4412   -5.5645  -14.3684 C   0  0  0  0  0  0  0  0  0  0  0  0
   23.0317   -6.0559  -13.3626 O   0  0  0  0  0  0  0  0  0  0  0  0
   22.5893   -4.1977  -14.5641 O   0  0  0  0  0  0  0  0  0  0  0  0
  2  1  1  0
  3  4  1  1
  3  2  1  0
  5  3  1  0
  6  5  2  0
  8  7  1  1
  8 10  1  0
  9  8  1  0
 11 10  1  6
 11 12  1  0
 11 13  1  0
 12  5  1  0
 13 20  1  0
 14 13  2  0
 16 18  1  0
 16 15  1  0
 17 16  2  0
 19 21  1  0
 19 18  1  1
 20 19  1  0
 21 23  1  0
 22 21  2  0
M  END
$$$$
