SLN.pdb
     RDKit          3D

 23 22  0  0  1  0  0  0  0  0999 V2000
   29.3500  -21.2204  -12.0179 O   0  0  0  0  0  0  0  0  0  0  0  0
   30.3498  -20.6342  -11.2343 C   0  0  0  0  0  0  0  0  0  0  0  0
   30.5992  -21.4874   -9.9953 C   0  0  2  0  0  0  0  0  0  0  0  0
   31.0588  -22.8017  -10.3737 N   0  0  0  0  0  0  0  0  0  0  0  0
   29.3460  -21.5147   -9.2225 C   0  0  0  0  0  0  0  0  0  0  0  0
   28.5498  -22.4668   -9.4207 O   0  0  0  0  0  0  0  0  0  0  0  0
   28.4413  -18.6111   -4.4400 C   0  0  0  0  0  0  0  0  0  0  0  0
   28.6064  -19.7711   -5.4353 C   0  0  1  0  0  0  0  0  0  0  0  0
   28.2456  -21.0264   -4.6306 C   0  0  0  0  0  0  0  0  0  0  0  0
   27.5644  -19.5609   -6.4845 C   0  0  0  0  0  0  0  0  0  0  0  0
   27.6550  -20.4747   -7.6575 C   0  0  2  0  0  0  0  0  0  0  0  0
   28.9605  -20.5427   -8.2620 N   0  0  0  0  0  0  0  0  0  0  0  0
   26.7038  -19.9813   -8.6853 C   0  0  0  0  0  0  0  0  0  0  0  0
   27.0511  -19.0668   -9.4657 O   0  0  0  0  0  0  0  0  0  0  0  0
   25.0453  -21.9578  -13.4004 N   0  0  0  0  0  0  0  0  0  0  0  0
   24.7319  -21.0191  -12.3603 C   0  0  0  0  0  0  0  0  0  0  0  0
   23.8675  -20.1568  -12.5968 O   0  0  0  0  0  0  0  0  0  0  0  0
   25.4592  -21.1443  -11.0817 C   0  0  0  0  0  0  0  0  0  0  0  0
   24.6913  -20.4419  -10.0027 C   0  0  2  0  0  0  0  0  0  0  0  0
   25.4069  -20.5619   -8.7634 N   0  0  0  0  0  0  0  0  0  0  0  0
   23.3158  -20.9783   -9.8280 C   0  0  0  0  0  0  0  0  0  0  0  0
   23.0179  -21.7640   -8.8816 O   0  0  0  0  0  0  0  0  0  0  0  0
   22.2870  -20.6423  -10.6982 O   0  0  0  0  0  0  0  0  0  0  0  0
  2  1  1  0
  3  4  1  6
  3  2  1  0
  5  3  1  0
  6  5  2  0
  8  7  1  1
  8 10  1  0
  9  8  1  0
 11 10  1  1
 11 12  1  0
 11 13  1  0
 12  5  1  0
 13 20  1  0
 14 13  2  0
 16 18  1  0
 16 15  1  0
 17 16  2  0
 19 21  1  0
 19 18  1  6
 20 19  1  0
 21 23  1  0
 22 21  2  0
M  END
$$$$
