KTK.pdb
     RDKit          3D

 26 25  0  0  1  0  0  0  0  0999 V2000
    6.8796  -17.2951   17.1008 N   0  0  0  0  0  0  0  0  0  0  0  0
    8.1307  -16.6632   16.7314 C   0  0  1  0  0  0  0  0  0  0  0  0
    7.8444  -15.7525   15.5579 C   0  0  0  0  0  0  0  0  0  0  0  0
    8.3010  -16.4026   14.2509 C   0  0  0  0  0  0  0  0  0  0  0  0
    7.5398  -15.8611   13.0778 C   0  0  0  0  0  0  0  0  0  0  0  0
    8.0319  -16.4075   11.7577 C   0  0  0  0  0  0  0  0  0  0  0  0
    7.3280  -15.6880   10.7106 N   0  0  0  0  0  0  0  0  0  0  0  0
    8.7075  -15.8791   17.8392 C   0  0  0  0  0  0  0  0  0  0  0  0
    9.7812  -15.2547   17.5929 O   0  0  0  0  0  0  0  0  0  0  0  0
    7.5062  -13.0993   20.1091 C   0  0  0  0  0  0  0  0  0  0  0  0
    7.9674  -14.2415   20.9889 C   0  0  1  0  0  0  0  0  0  0  0  0
    6.9020  -14.9636   21.4989 O   0  0  0  0  0  0  0  0  0  0  0  0
    8.8965  -15.1424   20.1691 C   0  0  2  0  0  0  0  0  0  0  0  0
    8.1516  -15.7801   19.1342 N   0  0  0  0  0  0  0  0  0  0  0  0
    9.4849  -16.1051   21.1379 C   0  0  0  0  0  0  0  0  0  0  0  0
    9.0767  -17.2926   21.1302 O   0  0  0  0  0  0  0  0  0  0  0  0
   10.4873  -15.6993   22.0556 N   0  0  0  0  0  0  0  0  0  0  0  0
   11.1635  -16.6333   22.9517 C   0  0  1  0  0  0  0  0  0  0  0  0
   12.6470  -16.4468   22.8956 C   0  0  0  0  0  0  0  0  0  0  0  0
   13.4227  -17.4440   23.7101 C   0  0  0  0  0  0  0  0  0  0  0  0
   14.9227  -17.1553   23.6478 C   0  0  0  0  0  0  0  0  0  0  0  0
   15.7185  -18.2415   24.2860 C   0  0  0  0  0  0  0  0  0  0  0  0
   17.1259  -18.0009   23.9967 N   0  0  0  0  0  0  0  0  0  0  0  0
   10.6308  -16.4086   24.3056 C   0  0  0  0  0  0  0  0  0  0  0  0
   10.0721  -15.2983   24.5596 O   0  0  0  0  0  0  0  0  0  0  0  0
   10.6748  -17.3027   25.3545 O   0  0  0  0  0  0  0  0  0  0  0  0
  2  1  1  1
  3  2  1  0
  4  3  1  0
  5  4  1  0
  6  5  1  0
  7  6  1  0
  8  9  2  0
  8  2  1  0
 11 10  1  6
 11 13  1  0
 12 11  1  0
 13 14  1  6
 14  8  1  0
 15 13  1  0
 16 15  2  0
 17 15  1  0
 18 17  1  0
 18 24  1  0
 18 19  1  1
 20 19  1  0
 21 20  1  0
 21 22  1  0
 22 23  1  0
 24 26  1  0
 25 24  2  0
M  END
$$$$
