KTK.pdb
     RDKit          3D

 26 25  0  0  1  0  0  0  0  0999 V2000
    9.6939  -17.3197   16.4569 N   0  0  0  0  0  0  0  0  0  0  0  0
    8.5711  -16.8480   17.2430 C   0  0  1  0  0  0  0  0  0  0  0  0
    7.6878  -18.0430   17.5262 C   0  0  0  0  0  0  0  0  0  0  0  0
    8.5207  -19.2124   18.0537 C   0  0  0  0  0  0  0  0  0  0  0  0
    7.6965  -20.4598   18.1701 C   0  0  0  0  0  0  0  0  0  0  0  0
    8.4595  -21.6106   18.7841 C   0  0  0  0  0  0  0  0  0  0  0  0
    7.5470  -22.7386   18.8505 N   0  0  0  0  0  0  0  0  0  0  0  0
    8.9990  -16.2346   18.5139 C   0  0  0  0  0  0  0  0  0  0  0  0
   10.1838  -16.4763   18.8896 O   0  0  0  0  0  0  0  0  0  0  0  0
    7.9062  -12.6149   20.0249 C   0  0  0  0  0  0  0  0  0  0  0  0
    7.8358  -13.7389   21.0361 C   0  0  1  0  0  0  0  0  0  0  0  0
    6.5354  -14.1655   21.2450 O   0  0  0  0  0  0  0  0  0  0  0  0
    8.7174  -14.8914   20.5445 C   0  0  2  0  0  0  0  0  0  0  0  0
    8.1890  -15.4098   19.3260 N   0  0  0  0  0  0  0  0  0  0  0  0
    8.7263  -15.8918   21.6449 C   0  0  0  0  0  0  0  0  0  0  0  0
    8.0330  -16.9312   21.5194 O   0  0  0  0  0  0  0  0  0  0  0  0
    9.4991  -15.6845   22.8160 N   0  0  0  0  0  0  0  0  0  0  0  0
    9.5185  -16.6308   23.9280 C   0  0  1  0  0  0  0  0  0  0  0  0
   10.9189  -17.0503   24.2468 C   0  0  0  0  0  0  0  0  0  0  0  0
   11.0304  -17.9688   25.4316 C   0  0  0  0  0  0  0  0  0  0  0  0
   12.4907  -18.3168   25.7208 C   0  0  0  0  0  0  0  0  0  0  0  0
   12.6258  -19.1373   26.9572 C   0  0  0  0  0  0  0  0  0  0  0  0
   14.0404  -19.4204   27.1599 N   0  0  0  0  0  0  0  0  0  0  0  0
    8.8649  -15.9773   25.0739 C   0  0  0  0  0  0  0  0  0  0  0  0
    8.8556  -14.7096   25.1232 O   0  0  0  0  0  0  0  0  0  0  0  0
    8.2432  -16.6151   26.1266 O   0  0  0  0  0  0  0  0  0  0  0  0
  2  1  1  1
  3  2  1  0
  4  3  1  0
  5  4  1  0
  6  5  1  0
  7  6  1  0
  8  9  2  0
  8  2  1  0
 11 10  1  6
 11 13  1  0
 12 11  1  0
 13 14  1  6
 14  8  1  0
 15 13  1  0
 16 15  2  0
 17 15  1  0
 18 17  1  0
 18 24  1  0
 18 19  1  1
 20 19  1  0
 21 20  1  0
 21 22  1  0
 22 23  1  0
 24 26  1  0
 25 24  2  0
M  END
$$$$
