KTK.pdb
     RDKit          3D

 26 25  0  0  1  0  0  0  0  0999 V2000
    8.7979  -16.9821   16.0692 N   0  0  0  0  0  0  0  0  0  0  0  0
    8.0548  -17.1111   17.3070 C   0  0  1  0  0  0  0  0  0  0  0  0
    7.9947  -18.5848   17.6431 C   0  0  0  0  0  0  0  0  0  0  0  0
    7.3796  -19.3740   16.4862 C   0  0  0  0  0  0  0  0  0  0  0  0
    7.3287  -20.8409   16.7933 C   0  0  0  0  0  0  0  0  0  0  0  0
    5.9999  -21.4675   16.4393 C   0  0  0  0  0  0  0  0  0  0  0  0
    6.1256  -22.8946   16.6782 N   0  0  0  0  0  0  0  0  0  0  0  0
    8.6878  -16.3743   18.4165 C   0  0  0  0  0  0  0  0  0  0  0  0
    9.9352  -16.1761   18.3269 O   0  0  0  0  0  0  0  0  0  0  0  0
    7.1040  -13.2566   20.4080 C   0  0  0  0  0  0  0  0  0  0  0  0
    7.7387  -14.2719   21.3340 C   0  0  1  0  0  0  0  0  0  0  0  0
    6.7917  -15.0685   21.9544 O   0  0  0  0  0  0  0  0  0  0  0  0
    8.7221  -15.1218   20.5230 C   0  0  2  0  0  0  0  0  0  0  0  0
    8.0069  -15.8835   19.5530 N   0  0  0  0  0  0  0  0  0  0  0  0
    9.4370  -15.9695   21.5140 C   0  0  0  0  0  0  0  0  0  0  0  0
    9.1511  -17.1904   21.5797 O   0  0  0  0  0  0  0  0  0  0  0  0
   10.4233  -15.4187   22.3716 N   0  0  0  0  0  0  0  0  0  0  0  0
   11.1505  -16.2166   23.3551 C   0  0  1  0  0  0  0  0  0  0  0  0
   12.6018  -15.8533   23.3686 C   0  0  0  0  0  0  0  0  0  0  0  0
   13.5112  -16.9720   23.7942 C   0  0  0  0  0  0  0  0  0  0  0  0
   14.9744  -16.5296   23.7694 C   0  0  0  0  0  0  0  0  0  0  0  0
   15.8977  -17.6688   24.0335 C   0  0  0  0  0  0  0  0  0  0  0  0
   17.2643  -17.1687   23.9654 N   0  0  0  0  0  0  0  0  0  0  0  0
   10.5138  -15.9906   24.6630 C   0  0  0  0  0  0  0  0  0  0  0  0
    9.7647  -14.9764   24.8044 O   0  0  0  0  0  0  0  0  0  0  0  0
   10.6480  -16.7876   25.7804 O   0  0  0  0  0  0  0  0  0  0  0  0
  2  1  1  6
  3  2  1  0
  4  3  1  0
  5  4  1  0
  6  5  1  0
  7  6  1  0
  8  9  2  0
  8  2  1  0
 11 10  1  6
 11 13  1  0
 12 11  1  0
 13 14  1  6
 14  8  1  0
 15 13  1  0
 16 15  2  0
 17 15  1  0
 18 17  1  0
 18 24  1  0
 18 19  1  1
 20 19  1  0
 21 20  1  0
 21 22  1  0
 22 23  1  0
 24 26  1  0
 25 24  2  0
M  END
$$$$
