KTK.pdb
     RDKit          3D

 26 25  0  0  1  0  0  0  0  0999 V2000
    8.9979  -18.3915   16.6169 N   0  0  0  0  0  0  0  0  0  0  0  0
    7.9854  -17.8424   17.4969 C   0  0  1  0  0  0  0  0  0  0  0  0
    7.4230  -18.9905   18.3056 C   0  0  0  0  0  0  0  0  0  0  0  0
    6.1055  -19.4780   17.7003 C   0  0  0  0  0  0  0  0  0  0  0  0
    6.3208  -20.6664   16.8114 C   0  0  0  0  0  0  0  0  0  0  0  0
    5.0342  -21.2000   16.2254 C   0  0  0  0  0  0  0  0  0  0  0  0
    5.3724  -22.3982   15.4775 N   0  0  0  0  0  0  0  0  0  0  0  0
    8.5324  -16.8170   18.4045 C   0  0  0  0  0  0  0  0  0  0  0  0
    9.7428  -16.9533   18.7503 O   0  0  0  0  0  0  0  0  0  0  0  0
    8.2887  -12.6129   20.9263 C   0  0  0  0  0  0  0  0  0  0  0  0
    7.5961  -13.5461   19.9564 C   0  0  1  0  0  0  0  0  0  0  0  0
    7.3948  -12.9522   18.7222 O   0  0  0  0  0  0  0  0  0  0  0  0
    8.4383  -14.8186   19.8204 C   0  0  2  0  0  0  0  0  0  0  0  0
    7.8083  -15.7120   18.9052 N   0  0  0  0  0  0  0  0  0  0  0  0
    8.5499  -15.3785   21.1937 C   0  0  0  0  0  0  0  0  0  0  0  0
    7.5247  -15.8656   21.7307 O   0  0  0  0  0  0  0  0  0  0  0  0
    9.7853  -15.3668   21.8904 N   0  0  0  0  0  0  0  0  0  0  0  0
   10.0250  -16.1675   23.0880 C   0  0  1  0  0  0  0  0  0  0  0  0
   10.1991  -17.6117   22.7378 C   0  0  0  0  0  0  0  0  0  0  0  0
   10.4807  -18.5001   23.9173 C   0  0  0  0  0  0  0  0  0  0  0  0
   10.6837  -19.9498   23.4763 C   0  0  0  0  0  0  0  0  0  0  0  0
   10.8047  -20.8677   24.6438 C   0  0  0  0  0  0  0  0  0  0  0  0
   11.1163  -22.1994   24.1419 N   0  0  0  0  0  0  0  0  0  0  0  0
   11.2150  -15.6153   23.7559 C   0  0  0  0  0  0  0  0  0  0  0  0
   11.5239  -16.0566   24.9046 O   0  0  0  0  0  0  0  0  0  0  0  0
   12.0531  -14.6440   23.2500 O   0  0  0  0  0  0  0  0  0  0  0  0
  2  1  1  6
  3  2  1  0
  4  3  1  0
  5  4  1  0
  6  5  1  0
  7  6  1  0
  8  9  2  0
  8  2  1  0
 11 10  1  1
 11 13  1  0
 12 11  1  0
 13 14  1  6
 14  8  1  0
 15 13  1  0
 16 15  2  0
 17 15  1  0
 18 17  1  0
 18 24  1  0
 18 19  1  6
 20 19  1  0
 21 20  1  0
 21 22  1  0
 22 23  1  0
 24 26  1  0
 25 24  2  0
M  END
$$$$
