KTK.pdb
     RDKit          3D

 26 25  0  0  1  0  0  0  0  0999 V2000
    5.8419  -16.3300   25.3026 N   0  0  0  0  0  0  0  0  0  0  0  0
    6.6160  -15.3917   24.5143 C   0  0  1  0  0  0  0  0  0  0  0  0
    7.0674  -14.2882   25.4454 C   0  0  0  0  0  0  0  0  0  0  0  0
    5.8639  -13.5034   25.9699 C   0  0  0  0  0  0  0  0  0  0  0  0
    6.2933  -12.3882   26.8759 C   0  0  0  0  0  0  0  0  0  0  0  0
    5.1318  -11.5639   27.3809 C   0  0  0  0  0  0  0  0  0  0  0  0
    5.6715  -10.6046   28.3285 N   0  0  0  0  0  0  0  0  0  0  0  0
    7.7915  -16.0257   23.8891 C   0  0  0  0  0  0  0  0  0  0  0  0
    8.3888  -16.9096   24.5711 O   0  0  0  0  0  0  0  0  0  0  0  0
    8.3197  -16.2764   19.8906 C   0  0  0  0  0  0  0  0  0  0  0  0
    9.6283  -16.0733   20.6237 C   0  0  1  0  0  0  0  0  0  0  0  0
   10.1025  -14.7799   20.4858 O   0  0  0  0  0  0  0  0  0  0  0  0
    9.4185  -16.4246   22.1000 C   0  0  2  0  0  0  0  0  0  0  0  0
    8.2868  -15.7177   22.6023 N   0  0  0  0  0  0  0  0  0  0  0  0
   10.6846  -16.0561   22.7875 C   0  0  0  0  0  0  0  0  0  0  0  0
   10.7949  -14.9013   23.2681 O   0  0  0  0  0  0  0  0  0  0  0  0
   11.7513  -16.9837   22.9028 N   0  0  0  0  0  0  0  0  0  0  0  0
   12.9959  -16.6743   23.6015 C   0  0  1  0  0  0  0  0  0  0  0  0
   13.2524  -17.6612   24.6963 C   0  0  0  0  0  0  0  0  0  0  0  0
   12.3566  -17.4983   25.8925 C   0  0  0  0  0  0  0  0  0  0  0  0
   12.6770  -18.5405   26.9641 C   0  0  0  0  0  0  0  0  0  0  0  0
   11.7620  -18.4247   28.1345 C   0  0  0  0  0  0  0  0  0  0  0  0
   12.0624  -19.5148   29.0531 N   0  0  0  0  0  0  0  0  0  0  0  0
   14.0743  -16.6708   22.5993 C   0  0  0  0  0  0  0  0  0  0  0  0
   13.8493  -17.1952   21.4662 O   0  0  0  0  0  0  0  0  0  0  0  0
   15.3366  -16.1414   22.7663 O   0  0  0  0  0  0  0  0  0  0  0  0
  2  1  1  1
  3  2  1  0
  4  3  1  0
  5  4  1  0
  6  5  1  0
  7  6  1  0
  8  9  2  0
  8  2  1  0
 11 10  1  6
 11 13  1  0
 12 11  1  0
 13 14  1  1
 14  8  1  0
 15 13  1  0
 16 15  2  0
 17 15  1  0
 18 17  1  0
 18 24  1  0
 18 19  1  1
 20 19  1  0
 21 20  1  0
 21 22  1  0
 22 23  1  0
 24 26  1  0
 25 24  2  0
M  END
$$$$
