KTK.pdb
     RDKit          3D

 26 25  0  0  1  0  0  0  0  0999 V2000
    6.8247  -16.5487   18.9476 N   0  0  0  0  0  0  0  0  0  0  0  0
    7.8314  -15.7760   19.6479 C   0  0  1  0  0  0  0  0  0  0  0  0
    7.1775  -14.4873   20.0952 C   0  0  0  0  0  0  0  0  0  0  0  0
    7.5819  -13.3337   19.1758 C   0  0  0  0  0  0  0  0  0  0  0  0
    7.7426  -13.7969   17.7586 C   0  0  0  0  0  0  0  0  0  0  0  0
    8.1851  -12.6916   16.8279 C   0  0  0  0  0  0  0  0  0  0  0  0
    8.2395  -13.2574   15.4913 N   0  0  0  0  0  0  0  0  0  0  0  0
    8.3690  -16.4925   20.8194 C   0  0  0  0  0  0  0  0  0  0  0  0
    7.5330  -16.8381   21.7054 O   0  0  0  0  0  0  0  0  0  0  0  0
   10.7030  -19.5180   20.6635 C   0  0  0  0  0  0  0  0  0  0  0  0
   11.2350  -18.5701   21.7169 C   0  0  1  0  0  0  0  0  0  0  0  0
   12.3374  -17.8637   21.2670 O   0  0  0  0  0  0  0  0  0  0  0  0
   10.1070  -17.6192   22.1297 C   0  0  2  0  0  0  0  0  0  0  0  0
    9.7308  -16.8133   21.0154 N   0  0  0  0  0  0  0  0  0  0  0  0
   10.6439  -16.8238   23.2658 C   0  0  0  0  0  0  0  0  0  0  0  0
   11.2105  -15.7303   23.0209 O   0  0  0  0  0  0  0  0  0  0  0  0
   10.5229  -17.2831   24.6022 N   0  0  0  0  0  0  0  0  0  0  0  0
   11.1077  -16.5747   25.7375 C   0  0  1  0  0  0  0  0  0  0  0  0
   10.0728  -15.7621   26.4496 C   0  0  0  0  0  0  0  0  0  0  0  0
   10.5878  -15.0372   27.6616 C   0  0  0  0  0  0  0  0  0  0  0  0
    9.4712  -14.2467   28.3440 C   0  0  0  0  0  0  0  0  0  0  0  0
    9.9708  -13.5087   29.5381 C   0  0  0  0  0  0  0  0  0  0  0  0
    8.8396  -12.8302   30.1566 N   0  0  0  0  0  0  0  0  0  0  0  0
   11.7184  -17.5835   26.6188 C   0  0  0  0  0  0  0  0  0  0  0  0
   11.2890  -18.7760   26.5625 O   0  0  0  0  0  0  0  0  0  0  0  0
   12.7369  -17.3633   27.5221 O   0  0  0  0  0  0  0  0  0  0  0  0
  2  1  1  1
  3  2  1  0
  4  3  1  0
  5  4  1  0
  6  5  1  0
  7  6  1  0
  8  9  2  0
  8  2  1  0
 11 10  1  6
 11 13  1  0
 12 11  1  0
 13 14  1  6
 14  8  1  0
 15 13  1  0
 16 15  2  0
 17 15  1  0
 18 17  1  0
 18 24  1  0
 18 19  1  1
 20 19  1  0
 21 20  1  0
 21 22  1  0
 22 23  1  0
 24 26  1  0
 25 24  2  0
M  END
$$$$
