KTK.pdb
     RDKit          3D

 26 25  0  0  1  0  0  0  0  0999 V2000
   10.3646  -17.8160   17.4148 N   0  0  0  0  0  0  0  0  0  0  0  0
    9.1345  -17.6172   18.1554 C   0  0  1  0  0  0  0  0  0  0  0  0
    8.6595  -18.9794   18.6108 C   0  0  0  0  0  0  0  0  0  0  0  0
    8.4256  -19.8952   17.4082 C   0  0  0  0  0  0  0  0  0  0  0  0
    7.9805  -21.2602   17.8411 C   0  0  0  0  0  0  0  0  0  0  0  0
    7.8443  -22.2253   16.6863 C   0  0  0  0  0  0  0  0  0  0  0  0
    7.5177  -23.5224   17.2523 N   0  0  0  0  0  0  0  0  0  0  0  0
    9.3242  -16.7408   19.3261 C   0  0  0  0  0  0  0  0  0  0  0  0
   10.4586  -16.7816   19.8872 O   0  0  0  0  0  0  0  0  0  0  0  0
    7.9606  -12.9938   19.8745 C   0  0  0  0  0  0  0  0  0  0  0  0
    7.6948  -13.8864   21.0677 C   0  0  1  0  0  0  0  0  0  0  0  0
    6.3763  -14.3056   21.1159 O   0  0  0  0  0  0  0  0  0  0  0  0
    8.6476  -15.0842   21.0009 C   0  0  2  0  0  0  0  0  0  0  0  0
    8.3414  -15.8738   19.8541 N   0  0  0  0  0  0  0  0  0  0  0  0
    8.4612  -15.8211   22.2792 C   0  0  0  0  0  0  0  0  0  0  0  0
    7.8061  -16.8923   22.2667 O   0  0  0  0  0  0  0  0  0  0  0  0
    9.0088  -15.3316   23.4925 N   0  0  0  0  0  0  0  0  0  0  0  0
    8.7863  -15.9839   24.7801 C   0  0  1  0  0  0  0  0  0  0  0  0
   10.0430  -16.6261   25.2767 C   0  0  0  0  0  0  0  0  0  0  0  0
    9.9160  -17.2541   26.6365 C   0  0  0  0  0  0  0  0  0  0  0  0
   11.2425  -17.8694   27.0829 C   0  0  0  0  0  0  0  0  0  0  0  0
   11.1203  -18.5356   28.4102 C   0  0  0  0  0  0  0  0  0  0  0  0
   12.4381  -19.0238   28.7943 N   0  0  0  0  0  0  0  0  0  0  0  0
    8.2856  -14.9599   25.7117 C   0  0  0  0  0  0  0  0  0  0  0  0
    8.5649  -13.7439   25.4818 O   0  0  0  0  0  0  0  0  0  0  0  0
    7.5227  -15.1893   26.8374 O   0  0  0  0  0  0  0  0  0  0  0  0
  2  1  1  1
  3  2  1  0
  4  3  1  0
  5  4  1  0
  6  5  1  0
  7  6  1  0
  8  9  2  0
  8  2  1  0
 11 10  1  6
 11 13  1  0
 12 11  1  0
 13 14  1  6
 14  8  1  0
 15 13  1  0
 16 15  2  0
 17 15  1  0
 18 17  1  0
 18 24  1  0
 18 19  1  1
 20 19  1  0
 21 20  1  0
 21 22  1  0
 22 23  1  0
 24 26  1  0
 25 24  2  0
M  END
$$$$
