KTK.pdb
     RDKit          3D

 26 25  0  0  1  0  0  0  0  0999 V2000
    8.3519  -17.0499   15.3811 N   0  0  0  0  0  0  0  0  0  0  0  0
    7.5391  -16.8291   16.5607 C   0  0  1  0  0  0  0  0  0  0  0  0
    6.7212  -18.0821   16.7833 C   0  0  0  0  0  0  0  0  0  0  0  0
    6.9834  -19.0983   15.6706 C   0  0  0  0  0  0  0  0  0  0  0  0
    6.1227  -20.3158   15.8303 C   0  0  0  0  0  0  0  0  0  0  0  0
    6.4518  -21.4008   14.8313 C   0  0  0  0  0  0  0  0  0  0  0  0
    5.5216  -22.4912   15.0660 N   0  0  0  0  0  0  0  0  0  0  0  0
    8.3560  -16.5506   17.7564 C   0  0  0  0  0  0  0  0  0  0  0  0
    9.5932  -16.8059   17.6699 O   0  0  0  0  0  0  0  0  0  0  0  0
    7.9772  -13.3096   19.9917 C   0  0  0  0  0  0  0  0  0  0  0  0
    8.1535  -14.5412   20.8538 C   0  0  1  0  0  0  0  0  0  0  0  0
    6.9565  -14.9577   21.4109 O   0  0  0  0  0  0  0  0  0  0  0  0
    8.7733  -15.6498   19.9973 C   0  0  2  0  0  0  0  0  0  0  0  0
    7.8587  -16.0272   18.9708 N   0  0  0  0  0  0  0  0  0  0  0  0
    9.0826  -16.7611   20.9359 C   0  0  0  0  0  0  0  0  0  0  0  0
    8.2408  -17.6822   21.0771 O   0  0  0  0  0  0  0  0  0  0  0  0
   10.3012  -16.7886   21.6611 N   0  0  0  0  0  0  0  0  0  0  0  0
   10.6666  -17.8870   22.5515 C   0  0  1  0  0  0  0  0  0  0  0  0
   12.1003  -17.7825   22.9666 C   0  0  0  0  0  0  0  0  0  0  0  0
   12.5476  -18.8653   23.9085 C   0  0  0  0  0  0  0  0  0  0  0  0
   14.0359  -18.7315   24.2314 C   0  0  0  0  0  0  0  0  0  0  0  0
   14.4780  -19.7548   25.2202 C   0  0  0  0  0  0  0  0  0  0  0  0
   15.9227  -19.6437   25.3709 N   0  0  0  0  0  0  0  0  0  0  0  0
    9.7541  -17.8403   23.7058 C   0  0  0  0  0  0  0  0  0  0  0  0
    9.4112  -18.9334   24.2510 O   0  0  0  0  0  0  0  0  0  0  0  0
    9.2199  -16.7027   24.2734 O   0  0  0  0  0  0  0  0  0  0  0  0
  2  1  1  6
  3  2  1  0
  4  3  1  0
  5  4  1  0
  6  5  1  0
  7  6  1  0
  8  9  2  0
  8  2  1  0
 11 10  1  6
 11 13  1  0
 12 11  1  0
 13 14  1  6
 14  8  1  0
 15 13  1  0
 16 15  2  0
 17 15  1  0
 18 17  1  0
 18 24  1  0
 18 19  1  1
 20 19  1  0
 21 20  1  0
 21 22  1  0
 22 23  1  0
 24 26  1  0
 25 24  2  0
M  END
$$$$
