KTK.pdb
     RDKit          3D

 26 25  0  0  1  0  0  0  0  0999 V2000
   10.6504  -16.2854   17.0545 N   0  0  0  0  0  0  0  0  0  0  0  0
    9.8731  -16.9656   18.0714 C   0  0  1  0  0  0  0  0  0  0  0  0
   10.5526  -18.2890   18.3456 C   0  0  0  0  0  0  0  0  0  0  0  0
   11.0889  -18.8954   17.0478 C   0  0  0  0  0  0  0  0  0  0  0  0
   11.6487  -20.2674   17.2779 C   0  0  0  0  0  0  0  0  0  0  0  0
   12.2141  -20.8874   16.0210 C   0  0  0  0  0  0  0  0  0  0  0  0
   12.7817  -22.1701   16.3979 N   0  0  0  0  0  0  0  0  0  0  0  0
    9.7839  -16.1853   19.3196 C   0  0  0  0  0  0  0  0  0  0  0  0
   10.8724  -15.7398   19.7887 O   0  0  0  0  0  0  0  0  0  0  0  0
    7.4653  -13.2164   20.3034 C   0  0  0  0  0  0  0  0  0  0  0  0
    7.3965  -14.2934   21.3648 C   0  0  1  0  0  0  0  0  0  0  0  0
    6.2398  -15.0469   21.2623 O   0  0  0  0  0  0  0  0  0  0  0  0
    8.6398  -15.1797   21.2397 C   0  0  2  0  0  0  0  0  0  0  0  0
    8.5858  -15.9068   20.0145 N   0  0  0  0  0  0  0  0  0  0  0  0
    8.6310  -16.0605   22.4379 C   0  0  0  0  0  0  0  0  0  0  0  0
    8.3700  -17.2796   22.2872 O   0  0  0  0  0  0  0  0  0  0  0  0
    8.9105  -15.5430   23.7285 N   0  0  0  0  0  0  0  0  0  0  0  0
    8.8003  -16.3464   24.9431 C   0  0  1  0  0  0  0  0  0  0  0  0
    9.6619  -15.7882   26.0315 C   0  0  0  0  0  0  0  0  0  0  0  0
    9.5885  -16.5505   27.3250 C   0  0  0  0  0  0  0  0  0  0  0  0
   10.4939  -15.9220   28.3846 C   0  0  0  0  0  0  0  0  0  0  0  0
   10.4078  -16.6490   29.6824 C   0  0  0  0  0  0  0  0  0  0  0  0
   11.3723  -16.0550   30.5985 N   0  0  0  0  0  0  0  0  0  0  0  0
    7.3789  -16.3742   25.3253 C   0  0  0  0  0  0  0  0  0  0  0  0
    6.6321  -15.4202   24.9487 O   0  0  0  0  0  0  0  0  0  0  0  0
    6.7565  -17.3554   26.0679 O   0  0  0  0  0  0  0  0  0  0  0  0
  2  1  1  6
  3  2  1  0
  4  3  1  0
  5  4  1  0
  6  5  1  0
  7  6  1  0
  8  9  2  0
  8  2  1  0
 11 10  1  6
 11 13  1  0
 12 11  1  0
 13 14  1  6
 14  8  1  0
 15 13  1  0
 16 15  2  0
 17 15  1  0
 18 17  1  0
 18 24  1  0
 18 19  1  1
 20 19  1  0
 21 20  1  0
 21 22  1  0
 22 23  1  0
 24 26  1  0
 25 24  2  0
M  END
$$$$
