KTK.pdb
     RDKit          3D

 26 25  0  0  1  0  0  0  0  0999 V2000
   10.2316  -15.9127   15.9962 N   0  0  0  0  0  0  0  0  0  0  0  0
    9.3623  -16.4859   17.0045 C   0  0  1  0  0  0  0  0  0  0  0  0
    9.6252  -17.9755   17.0296 C   0  0  0  0  0  0  0  0  0  0  0  0
   10.0152  -18.4747   15.6374 C   0  0  0  0  0  0  0  0  0  0  0  0
   11.4691  -18.8369   15.5759 C   0  0  0  0  0  0  0  0  0  0  0  0
   11.8358  -19.5739   14.3086 C   0  0  0  0  0  0  0  0  0  0  0  0
   13.2839  -19.6836   14.2843 N   0  0  0  0  0  0  0  0  0  0  0  0
    9.6083  -15.9158   18.3420 C   0  0  0  0  0  0  0  0  0  0  0  0
   10.8077  -15.6204   18.6206 O   0  0  0  0  0  0  0  0  0  0  0  0
    7.9131  -12.9317   19.9667 C   0  0  0  0  0  0  0  0  0  0  0  0
    7.9064  -14.0658   20.9692 C   0  0  1  0  0  0  0  0  0  0  0  0
    6.6621  -14.6654   21.0629 O   0  0  0  0  0  0  0  0  0  0  0  0
    8.9749  -15.0840   20.5588 C   0  0  2  0  0  0  0  0  0  0  0  0
    8.6122  -15.6814   19.3161 N   0  0  0  0  0  0  0  0  0  0  0  0
    9.0487  -16.0649   21.6742 C   0  0  0  0  0  0  0  0  0  0  0  0
    8.4345  -17.1542   21.5599 O   0  0  0  0  0  0  0  0  0  0  0  0
    9.7952  -15.7843   22.8471 N   0  0  0  0  0  0  0  0  0  0  0  0
    9.9091  -16.7276   23.9562 C   0  0  1  0  0  0  0  0  0  0  0  0
   11.1444  -16.4620   24.7574 C   0  0  0  0  0  0  0  0  0  0  0  0
   11.3914  -17.4596   25.8544 C   0  0  0  0  0  0  0  0  0  0  0  0
   12.6655  -17.1203   26.6282 C   0  0  0  0  0  0  0  0  0  0  0  0
   13.0318  -18.2019   27.5853 C   0  0  0  0  0  0  0  0  0  0  0  0
   14.3433  -17.8913   28.1385 N   0  0  0  0  0  0  0  0  0  0  0  0
    8.6879  -16.6015   24.7686 C   0  0  0  0  0  0  0  0  0  0  0  0
    8.4473  -17.4899   25.6417 O   0  0  0  0  0  0  0  0  0  0  0  0
    7.7537  -15.5910   24.6794 O   0  0  0  0  0  0  0  0  0  0  0  0
  2  1  1  6
  3  2  1  0
  4  3  1  0
  5  4  1  0
  6  5  1  0
  7  6  1  0
  8  9  2  0
  8  2  1  0
 11 10  1  6
 11 13  1  0
 12 11  1  0
 13 14  1  6
 14  8  1  0
 15 13  1  0
 16 15  2  0
 17 15  1  0
 18 17  1  0
 18 24  1  0
 18 19  1  1
 20 19  1  0
 21 20  1  0
 21 22  1  0
 22 23  1  0
 24 26  1  0
 25 24  2  0
M  END
$$$$
