KTK.pdb
     RDKit          3D

 26 25  0  0  1  0  0  0  0  0999 V2000
    8.9315  -17.2667   17.0287 N   0  0  0  0  0  0  0  0  0  0  0  0
    8.0763  -17.2107   18.1978 C   0  0  1  0  0  0  0  0  0  0  0  0
    7.7032  -18.6338   18.5497 C   0  0  0  0  0  0  0  0  0  0  0  0
    8.3788  -19.6175   17.5929 C   0  0  0  0  0  0  0  0  0  0  0  0
    8.0530  -21.0369   17.9507 C   0  0  0  0  0  0  0  0  0  0  0  0
    8.6728  -22.0369   17.0024 C   0  0  0  0  0  0  0  0  0  0  0  0
    8.2903  -23.3583   17.4682 N   0  0  0  0  0  0  0  0  0  0  0  0
    8.7451  -16.5740   19.3476 C   0  0  0  0  0  0  0  0  0  0  0  0
   10.0084  -16.5023   19.3003 O   0  0  0  0  0  0  0  0  0  0  0  0
    7.9437  -13.2041   21.1488 C   0  0  0  0  0  0  0  0  0  0  0  0
    8.0622  -14.3183   22.1663 C   0  0  1  0  0  0  0  0  0  0  0  0
    6.8228  -14.7474   22.6096 O   0  0  0  0  0  0  0  0  0  0  0  0
    8.8470  -15.4724   21.5346 C   0  0  2  0  0  0  0  0  0  0  0  0
    8.0815  -16.0480   20.4785 N   0  0  0  0  0  0  0  0  0  0  0  0
    9.1207  -16.4286   22.6403 C   0  0  0  0  0  0  0  0  0  0  0  0
    8.4081  -17.4581   22.7365 O   0  0  0  0  0  0  0  0  0  0  0  0
   10.1633  -16.1907   23.5720 N   0  0  0  0  0  0  0  0  0  0  0  0
   10.4662  -17.1050   24.6697 C   0  0  1  0  0  0  0  0  0  0  0  0
   11.7421  -17.8429   24.4125 C   0  0  0  0  0  0  0  0  0  0  0  0
   12.1033  -18.8364   25.4812 C   0  0  0  0  0  0  0  0  0  0  0  0
   13.4049  -19.5618   25.1388 C   0  0  0  0  0  0  0  0  0  0  0  0
   13.7867  -20.5359   26.1998 C   0  0  0  0  0  0  0  0  0  0  0  0
   15.0039  -21.2140   25.7744 N   0  0  0  0  0  0  0  0  0  0  0  0
   10.5317  -16.3050   25.9038 C   0  0  0  0  0  0  0  0  0  0  0  0
   10.6407  -15.0450   25.8033 O   0  0  0  0  0  0  0  0  0  0  0  0
   10.4838  -16.7939   27.1924 O   0  0  0  0  0  0  0  0  0  0  0  0
  2  1  1  6
  3  2  1  0
  4  3  1  0
  5  4  1  0
  6  5  1  0
  7  6  1  0
  8  9  2  0
  8  2  1  0
 11 10  1  6
 11 13  1  0
 12 11  1  0
 13 14  1  6
 14  8  1  0
 15 13  1  0
 16 15  2  0
 17 15  1  0
 18 17  1  0
 18 24  1  0
 18 19  1  6
 20 19  1  0
 21 20  1  0
 21 22  1  0
 22 23  1  0
 24 26  1  0
 25 24  2  0
M  END
$$$$
