PFK.pdb
     RDKit          3D

 28 29  0  0  1  0  0  0  0  0999 V2000
    7.8488  -15.3225   19.7306 N   0  0  0  0  0  0  0  0  0  0  0  0
    6.7634  -14.3616   19.4795 C   0  0  0  0  0  0  0  0  0  0  0  0
    7.4968  -13.3376   18.6422 C   0  0  0  0  0  0  0  0  0  0  0  0
    8.7755  -13.1622   19.4339 C   0  0  0  0  0  0  0  0  0  0  0  0
    8.9610  -14.5039   20.0941 C   0  0  1  0  0  0  0  0  0  0  0  0
    9.0270  -14.3958   21.5706 C   0  0  0  0  0  0  0  0  0  0  0  0
   10.0032  -13.8120   22.0871 O   0  0  0  0  0  0  0  0  0  0  0  0
    8.0336  -14.9240   22.4283 N   0  0  0  0  0  0  0  0  0  0  0  0
    8.0996  -14.8977   23.8796 C   0  0  1  0  0  0  0  0  0  0  0  0
    6.7856  -14.5496   24.4975 C   0  0  0  0  0  0  0  0  0  0  0  0
    6.9387  -13.7621   25.7403 C   0  0  0  0  0  0  0  0  0  0  0  0
    7.3912  -14.2738   26.9357 C   0  0  0  0  0  0  0  0  0  0  0  0
    7.5062  -13.4693   28.0356 C   0  0  0  0  0  0  0  0  0  0  0  0
    7.1717  -12.1324   27.9694 C   0  0  0  0  0  0  0  0  0  0  0  0
    6.7152  -11.5992   26.7783 C   0  0  0  0  0  0  0  0  0  0  0  0
    6.6044  -12.4166   25.6820 C   0  0  0  0  0  0  0  0  0  0  0  0
    8.6789  -16.1804   24.3790 C   0  0  0  0  0  0  0  0  0  0  0  0
    8.1264  -17.2916   24.1874 O   0  0  0  0  0  0  0  0  0  0  0  0
    9.8920  -16.1883   25.0981 N   0  0  0  0  0  0  0  0  0  0  0  0
   10.4041  -17.4817   25.7094 C   0  0  1  0  0  0  0  0  0  0  0  0
   11.7221  -17.6189   25.0611 C   0  0  0  0  0  0  0  0  0  0  0  0
   11.8837  -17.7752   23.6229 C   0  0  0  0  0  0  0  0  0  0  0  0
   13.2406  -17.9976   23.1006 C   0  0  0  0  0  0  0  0  0  0  0  0
   13.2099  -18.0204   21.5402 C   0  0  0  0  0  0  0  0  0  0  0  0
   14.5905  -18.2241   21.1411 N   0  0  0  0  0  0  0  0  0  0  0  0
   10.4072  -17.1808   27.1703 C   0  0  0  0  0  0  0  0  0  0  0  0
   10.2510  -15.9623   27.5486 O   0  0  0  0  0  0  0  0  0  0  0  0
   10.5581  -18.1127   28.1635 O   0  0  0  0  0  0  0  0  0  0  0  0
  1  5  1  0
  2  3  1  0
  2  1  1  0
  3  4  1  0
  4  5  1  0
  5  6  1  1
  6  7  2  0
  8  6  1  0
  8  9  1  0
  9 17  1  0
 10 11  1  0
  9 10  1  1
 11 12  2  0
 12 13  1  0
 14 13  2  0
 15 14  1  0
 16 11  1  0
 16 15  2  0
 17 18  2  0
 19 17  1  0
 19 20  1  0
 20 26  1  0
 20 21  1  6
 22 21  1  0
 23 22  1  0
 24 23  1  0
 24 25  1  0
 26 27  2  0
 26 28  1  0
M  END
$$$$
