PFK.pdb
     RDKit          3D

 28 29  0  0  1  0  0  0  0  0999 V2000
    7.8285  -15.2499   19.2430 N   0  0  0  0  0  0  0  0  0  0  0  0
    6.8976  -14.1893   18.8269 C   0  0  0  0  0  0  0  0  0  0  0  0
    7.7768  -13.4183   17.8678 C   0  0  0  0  0  0  0  0  0  0  0  0
    9.0647  -13.3153   18.6572 C   0  0  0  0  0  0  0  0  0  0  0  0
    9.0480  -14.5569   19.5108 C   0  0  1  0  0  0  0  0  0  0  0  0
    9.1244  -14.2420   20.9569 C   0  0  0  0  0  0  0  0  0  0  0  0
   10.2138  -13.8557   21.4308 O   0  0  0  0  0  0  0  0  0  0  0  0
    8.0184  -14.3579   21.8313 N   0  0  0  0  0  0  0  0  0  0  0  0
    8.0902  -14.2064   23.2747 C   0  0  1  0  0  0  0  0  0  0  0  0
    6.9086  -13.4777   23.8246 C   0  0  0  0  0  0  0  0  0  0  0  0
    7.0271  -13.2284   25.2779 C   0  0  0  0  0  0  0  0  0  0  0  0
    6.4877  -14.0368   26.2531 C   0  0  0  0  0  0  0  0  0  0  0  0
    6.6513  -13.7314   27.5761 C   0  0  0  0  0  0  0  0  0  0  0  0
    7.3580  -12.6099   27.9587 C   0  0  0  0  0  0  0  0  0  0  0  0
    7.9074  -11.7851   26.9947 C   0  0  0  0  0  0  0  0  0  0  0  0
    7.7364  -12.1024   25.6709 C   0  0  0  0  0  0  0  0  0  0  0  0
    8.3243  -15.5385   23.9081 C   0  0  0  0  0  0  0  0  0  0  0  0
    7.5711  -16.5233   23.7093 O   0  0  0  0  0  0  0  0  0  0  0  0
    9.4225  -15.7407   24.7693 N   0  0  0  0  0  0  0  0  0  0  0  0
    9.6553  -17.1054   25.3957 C   0  0  1  0  0  0  0  0  0  0  0  0
   10.7469  -17.6378   24.5582 C   0  0  0  0  0  0  0  0  0  0  0  0
   11.3770  -18.9264   24.8055 C   0  0  0  0  0  0  0  0  0  0  0  0
   12.3851  -19.3980   23.8438 C   0  0  0  0  0  0  0  0  0  0  0  0
   12.9550  -20.7753   24.3071 C   0  0  0  0  0  0  0  0  0  0  0  0
   13.9642  -21.1143   23.3206 N   0  0  0  0  0  0  0  0  0  0  0  0
   10.0005  -16.7690   26.8073 C   0  0  0  0  0  0  0  0  0  0  0  0
   10.4263  -15.5854   27.0719 O   0  0  0  0  0  0  0  0  0  0  0  0
    9.8931  -17.6295   27.8682 O   0  0  0  0  0  0  0  0  0  0  0  0
  1  5  1  0
  2  3  1  0
  2  1  1  0
  3  4  1  0
  4  5  1  0
  5  6  1  1
  6  7  2  0
  8  6  1  0
  8  9  1  0
  9 17  1  0
 10 11  1  0
  9 10  1  1
 11 12  2  0
 12 13  1  0
 14 13  2  0
 15 14  1  0
 16 11  1  0
 16 15  2  0
 17 18  2  0
 19 17  1  0
 19 20  1  0
 20 26  1  0
 20 21  1  6
 22 21  1  0
 23 22  1  0
 24 23  1  0
 24 25  1  0
 26 27  2  0
 26 28  1  0
M  END
$$$$
