PFK.pdb
     RDKit          3D

 28 29  0  0  1  0  0  0  0  0999 V2000
    7.4258  -15.1191   20.5346 N   0  0  0  0  0  0  0  0  0  0  0  0
    6.6356  -13.8788   20.5782 C   0  0  0  0  0  0  0  0  0  0  0  0
    7.5084  -12.9722   19.7393 C   0  0  0  0  0  0  0  0  0  0  0  0
    8.8800  -13.2618   20.3115 C   0  0  0  0  0  0  0  0  0  0  0  0
    8.7641  -14.6879   20.7843 C   0  0  1  0  0  0  0  0  0  0  0  0
    9.0600  -14.8231   22.2300 C   0  0  0  0  0  0  0  0  0  0  0  0
   10.2158  -14.5728   22.6326 O   0  0  0  0  0  0  0  0  0  0  0  0
    8.0928  -15.2239   23.1815 N   0  0  0  0  0  0  0  0  0  0  0  0
    8.3685  -15.4539   24.5896 C   0  0  1  0  0  0  0  0  0  0  0  0
    7.1810  -15.1727   25.4498 C   0  0  0  0  0  0  0  0  0  0  0  0
    7.0610  -13.7388   25.7927 C   0  0  0  0  0  0  0  0  0  0  0  0
    5.8979  -13.0088   25.6924 C   0  0  0  0  0  0  0  0  0  0  0  0
    5.8776  -11.6854   26.0366 C   0  0  0  0  0  0  0  0  0  0  0  0
    7.0192  -11.0572   26.4901 C   0  0  0  0  0  0  0  0  0  0  0  0
    8.1973  -11.7726   26.5980 C   0  0  0  0  0  0  0  0  0  0  0  0
    8.2047  -13.0996   26.2495 C   0  0  0  0  0  0  0  0  0  0  0  0
    8.9341  -16.8240   24.7729 C   0  0  0  0  0  0  0  0  0  0  0  0
    8.3406  -17.8584   24.3799 O   0  0  0  0  0  0  0  0  0  0  0  0
   10.1802  -17.0072   25.4070 N   0  0  0  0  0  0  0  0  0  0  0  0
   10.7492  -18.4063   25.5738 C   0  0  1  0  0  0  0  0  0  0  0  0
   12.0640  -18.2757   24.9176 C   0  0  0  0  0  0  0  0  0  0  0  0
   13.0721  -19.3253   24.9505 C   0  0  0  0  0  0  0  0  0  0  0  0
   14.3296  -19.0981   24.2223 C   0  0  0  0  0  0  0  0  0  0  0  0
   15.2098  -20.3861   24.2714 C   0  0  0  0  0  0  0  0  0  0  0  0
   16.4522  -20.0162   23.6183 N   0  0  0  0  0  0  0  0  0  0  0  0
   10.7573  -18.5878   27.0542 C   0  0  0  0  0  0  0  0  0  0  0  0
   10.9830  -19.7604   27.5298 O   0  0  0  0  0  0  0  0  0  0  0  0
   10.5476  -17.5891   27.9687 O   0  0  0  0  0  0  0  0  0  0  0  0
  1  5  1  0
  2  3  1  0
  2  1  1  0
  3  4  1  0
  4  5  1  0
  5  6  1  1
  6  7  2  0
  8  6  1  0
  8  9  1  0
  9 17  1  0
 10 11  1  0
  9 10  1  1
 11 12  2  0
 12 13  1  0
 14 13  2  0
 15 14  1  0
 16 11  1  0
 16 15  2  0
 17 18  2  0
 19 17  1  0
 19 20  1  0
 20 26  1  0
 20 21  1  1
 22 21  1  0
 23 22  1  0
 24 23  1  0
 24 25  1  0
 26 27  2  0
 26 28  1  0
M  END
$$$$
