PFK.pdb
     RDKit          3D

 28 29  0  0  1  0  0  0  0  0999 V2000
    7.4182  -14.9997   19.2024 N   0  0  0  0  0  0  0  0  0  0  0  0
    6.7987  -13.6850   18.9737 C   0  0  0  0  0  0  0  0  0  0  0  0
    7.8324  -13.0525   18.0688 C   0  0  0  0  0  0  0  0  0  0  0  0
    9.1171  -13.4002   18.7909 C   0  0  0  0  0  0  0  0  0  0  0  0
    8.7847  -14.6960   19.4844 C   0  0  1  0  0  0  0  0  0  0  0  0
    8.9740  -14.6091   20.9516 C   0  0  0  0  0  0  0  0  0  0  0  0
   10.1227  -14.4050   21.3980 O   0  0  0  0  0  0  0  0  0  0  0  0
    7.9121  -14.7467   21.8761 N   0  0  0  0  0  0  0  0  0  0  0  0
    8.0269  -14.5050   23.3044 C   0  0  1  0  0  0  0  0  0  0  0  0
    6.8406  -13.7816   23.8510 C   0  0  0  0  0  0  0  0  0  0  0  0
    7.0477  -13.3334   25.2454 C   0  0  0  0  0  0  0  0  0  0  0  0
    6.6698  -14.0507   26.3582 C   0  0  0  0  0  0  0  0  0  0  0  0
    6.9057  -13.5603   27.6128 C   0  0  0  0  0  0  0  0  0  0  0  0
    7.5254  -12.3401   27.7879 C   0  0  0  0  0  0  0  0  0  0  0  0
    7.9125  -11.6042   26.6833 C   0  0  0  0  0  0  0  0  0  0  0  0
    7.6702  -12.1071   25.4301 C   0  0  0  0  0  0  0  0  0  0  0  0
    8.3267  -15.7878   24.0079 C   0  0  0  0  0  0  0  0  0  0  0  0
    7.6548  -16.8326   23.8242 O   0  0  0  0  0  0  0  0  0  0  0  0
    9.3972  -15.8720   24.9220 N   0  0  0  0  0  0  0  0  0  0  0  0
    9.8012  -17.2195   25.4964 C   0  0  1  0  0  0  0  0  0  0  0  0
   10.9936  -17.5440   24.6907 C   0  0  0  0  0  0  0  0  0  0  0  0
   10.9323  -18.3348   23.4702 C   0  0  0  0  0  0  0  0  0  0  0  0
   12.1872  -18.5833   22.7444 C   0  0  0  0  0  0  0  0  0  0  0  0
   11.8970  -19.4110   21.4534 C   0  0  0  0  0  0  0  0  0  0  0  0
   13.1611  -19.4496   20.7409 N   0  0  0  0  0  0  0  0  0  0  0  0
   10.0332  -16.9109   26.9372 C   0  0  0  0  0  0  0  0  0  0  0  0
   10.2223  -15.6872   27.2823 O   0  0  0  0  0  0  0  0  0  0  0  0
   10.0549  -17.8387   27.9452 O   0  0  0  0  0  0  0  0  0  0  0  0
  1  5  1  0
  2  3  1  0
  2  1  1  0
  3  4  1  0
  4  5  1  0
  5  6  1  1
  6  7  2  0
  8  6  1  0
  8  9  1  0
  9 17  1  0
 10 11  1  0
  9 10  1  1
 11 12  2  0
 12 13  1  0
 14 13  2  0
 15 14  1  0
 16 11  1  0
 16 15  2  0
 17 18  2  0
 19 17  1  0
 19 20  1  0
 20 26  1  0
 20 21  1  6
 22 21  1  0
 23 22  1  0
 24 23  1  0
 24 25  1  0
 26 27  2  0
 26 28  1  0
M  END
$$$$
