PFK.pdb
     RDKit          3D

 28 29  0  0  1  0  0  0  0  0999 V2000
    7.4222  -15.0354   19.2683 N   0  0  0  0  0  0  0  0  0  0  0  0
    6.9194  -13.6962   18.9243 C   0  0  0  0  0  0  0  0  0  0  0  0
    8.0336  -13.2119   18.0235 C   0  0  0  0  0  0  0  0  0  0  0  0
    9.2583  -13.6059   18.8219 C   0  0  0  0  0  0  0  0  0  0  0  0
    8.7973  -14.8193   19.5871 C   0  0  1  0  0  0  0  0  0  0  0  0
    8.9381  -14.6431   21.0518 C   0  0  0  0  0  0  0  0  0  0  0  0
   10.0848  -14.5454   21.5376 O   0  0  0  0  0  0  0  0  0  0  0  0
    7.8318  -14.5797   21.9313 N   0  0  0  0  0  0  0  0  0  0  0  0
    7.9267  -14.3113   23.3563 C   0  0  1  0  0  0  0  0  0  0  0  0
    6.9163  -13.3099   23.8098 C   0  0  0  0  0  0  0  0  0  0  0  0
    7.1044  -12.9214   25.2247 C   0  0  0  0  0  0  0  0  0  0  0  0
    8.1479  -12.1527   25.6891 C   0  0  0  0  0  0  0  0  0  0  0  0
    8.2401  -11.8372   27.0166 C   0  0  0  0  0  0  0  0  0  0  0  0
    7.2918  -12.2821   27.9146 C   0  0  0  0  0  0  0  0  0  0  0  0
    6.2362  -13.0555   27.4683 C   0  0  0  0  0  0  0  0  0  0  0  0
    6.1549  -13.3650   26.1342 C   0  0  0  0  0  0  0  0  0  0  0  0
    7.8813  -15.5979   24.1133 C   0  0  0  0  0  0  0  0  0  0  0  0
    6.9760  -16.4511   23.9426 O   0  0  0  0  0  0  0  0  0  0  0  0
    8.8744  -15.9054   25.0661 N   0  0  0  0  0  0  0  0  0  0  0  0
    9.0174  -17.3276   25.5820 C   0  0  1  0  0  0  0  0  0  0  0  0
    9.6036  -18.0129   24.4146 C   0  0  0  0  0  0  0  0  0  0  0  0
   10.1573  -19.3574   24.4824 C   0  0  0  0  0  0  0  0  0  0  0  0
   10.7516  -19.9219   23.2611 C   0  0  0  0  0  0  0  0  0  0  0  0
   11.3456  -21.3329   23.5650 C   0  0  0  0  0  0  0  0  0  0  0  0
   11.9298  -21.7717   22.3108 N   0  0  0  0  0  0  0  0  0  0  0  0
    9.9013  -17.1623   26.7721 C   0  0  0  0  0  0  0  0  0  0  0  0
   10.0169  -18.1434   27.5945 O   0  0  0  0  0  0  0  0  0  0  0  0
   10.6206  -16.0334   27.0651 O   0  0  0  0  0  0  0  0  0  0  0  0
  1  5  1  0
  2  3  1  0
  2  1  1  0
  3  4  1  0
  4  5  1  0
  5  6  1  1
  6  7  2  0
  8  6  1  0
  8  9  1  0
  9 17  1  0
 10 11  1  0
  9 10  1  1
 11 12  2  0
 12 13  1  0
 14 13  2  0
 15 14  1  0
 16 11  1  0
 16 15  2  0
 17 18  2  0
 19 17  1  0
 19 20  1  0
 20 26  1  0
 20 21  1  6
 22 21  1  0
 23 22  1  0
 24 23  1  0
 24 25  1  0
 26 27  2  0
 26 28  1  0
M  END
$$$$
