PFK.pdb
     RDKit          3D

 28 29  0  0  1  0  0  0  0  0999 V2000
    7.6479  -15.2698   19.2318 N   0  0  0  0  0  0  0  0  0  0  0  0
    6.9721  -14.0253   18.8332 C   0  0  0  0  0  0  0  0  0  0  0  0
    8.0100  -13.4400   17.9017 C   0  0  0  0  0  0  0  0  0  0  0  0
    9.2784  -13.6331   18.7057 C   0  0  0  0  0  0  0  0  0  0  0  0
    8.9836  -14.8607   19.5282 C   0  0  1  0  0  0  0  0  0  0  0  0
    9.1046  -14.6014   20.9823 C   0  0  0  0  0  0  0  0  0  0  0  0
   10.2366  -14.3761   21.4601 O   0  0  0  0  0  0  0  0  0  0  0  0
    7.9952  -14.5964   21.8602 N   0  0  0  0  0  0  0  0  0  0  0  0
    8.0777  -14.3530   23.2904 C   0  0  1  0  0  0  0  0  0  0  0  0
    6.8848  -13.6187   23.8071 C   0  0  0  0  0  0  0  0  0  0  0  0
    7.0589  -13.1764   25.2079 C   0  0  0  0  0  0  0  0  0  0  0  0
    6.5930  -13.8648   26.3054 C   0  0  0  0  0  0  0  0  0  0  0  0
    6.8043  -13.3827   27.5677 C   0  0  0  0  0  0  0  0  0  0  0  0
    7.4867  -12.2001   27.7658 C   0  0  0  0  0  0  0  0  0  0  0  0
    7.9625  -11.4937   26.6767 C   0  0  0  0  0  0  0  0  0  0  0  0
    7.7441  -11.9878   25.4156 C   0  0  0  0  0  0  0  0  0  0  0  0
    8.3497  -15.6371   24.0030 C   0  0  0  0  0  0  0  0  0  0  0  0
    7.6007  -16.6395   23.8992 O   0  0  0  0  0  0  0  0  0  0  0  0
    9.4807  -15.7708   24.8346 N   0  0  0  0  0  0  0  0  0  0  0  0
    9.8340  -17.1261   25.4240 C   0  0  1  0  0  0  0  0  0  0  0  0
   11.0429  -17.4812   24.6566 C   0  0  0  0  0  0  0  0  0  0  0  0
   11.6428  -18.8069   24.6946 C   0  0  0  0  0  0  0  0  0  0  0  0
   11.4074  -19.7044   23.5533 C   0  0  0  0  0  0  0  0  0  0  0  0
   12.1586  -21.0541   23.7776 C   0  0  0  0  0  0  0  0  0  0  0  0
   11.6971  -21.9219   22.7095 N   0  0  0  0  0  0  0  0  0  0  0  0
   10.0281  -16.8192   26.8707 C   0  0  0  0  0  0  0  0  0  0  0  0
   10.3734  -15.6276   27.2066 O   0  0  0  0  0  0  0  0  0  0  0  0
    9.8591  -17.7159   27.8930 O   0  0  0  0  0  0  0  0  0  0  0  0
  1  5  1  0
  2  3  1  0
  2  1  1  0
  3  4  1  0
  4  5  1  0
  5  6  1  1
  6  7  2  0
  8  6  1  0
  8  9  1  0
  9 17  1  0
 10 11  1  0
  9 10  1  1
 11 12  2  0
 12 13  1  0
 14 13  2  0
 15 14  1  0
 16 11  1  0
 16 15  2  0
 17 18  2  0
 19 17  1  0
 19 20  1  0
 20 26  1  0
 20 21  1  6
 22 21  1  0
 23 22  1  0
 24 23  1  0
 24 25  1  0
 26 27  2  0
 26 28  1  0
M  END
$$$$
