PFK.pdb
     RDKit          3D

 28 29  0  0  1  0  0  0  0  0999 V2000
    7.4327  -14.9619   20.0716 N   0  0  0  0  0  0  0  0  0  0  0  0
    6.4903  -13.8364   20.1688 C   0  0  0  0  0  0  0  0  0  0  0  0
    7.2737  -12.7640   19.4451 C   0  0  0  0  0  0  0  0  0  0  0  0
    8.6470  -12.9274   20.0615 C   0  0  0  0  0  0  0  0  0  0  0  0
    8.6943  -14.3903   20.4194 C   0  0  1  0  0  0  0  0  0  0  0  0
    8.9469  -14.6044   21.8638 C   0  0  0  0  0  0  0  0  0  0  0  0
   10.1081  -14.4541   22.2993 O   0  0  0  0  0  0  0  0  0  0  0  0
    7.9324  -14.9726   22.7784 N   0  0  0  0  0  0  0  0  0  0  0  0
    8.1553  -15.2543   24.1864 C   0  0  1  0  0  0  0  0  0  0  0  0
    6.9378  -14.9987   25.0122 C   0  0  0  0  0  0  0  0  0  0  0  0
    6.9016  -13.6214   25.5506 C   0  0  0  0  0  0  0  0  0  0  0  0
    7.8962  -12.6871   25.3670 C   0  0  0  0  0  0  0  0  0  0  0  0
    7.7763  -11.4327   25.8982 C   0  0  0  0  0  0  0  0  0  0  0  0
    6.6592  -11.0794   26.6269 C   0  0  0  0  0  0  0  0  0  0  0  0
    5.6493  -12.0031   26.8227 C   0  0  0  0  0  0  0  0  0  0  0  0
    5.7815  -13.2582   26.2846 C   0  0  0  0  0  0  0  0  0  0  0  0
    8.7091  -16.6327   24.3408 C   0  0  0  0  0  0  0  0  0  0  0  0
    8.1727  -17.6394   23.8161 O   0  0  0  0  0  0  0  0  0  0  0  0
    9.8783  -16.8559   25.0971 N   0  0  0  0  0  0  0  0  0  0  0  0
   10.5048  -18.2397   25.1363 C   0  0  1  0  0  0  0  0  0  0  0  0
   11.3277  -18.2314   23.9119 C   0  0  0  0  0  0  0  0  0  0  0  0
   12.2005  -19.3347   23.5381 C   0  0  0  0  0  0  0  0  0  0  0  0
   12.9767  -19.2105   22.2949 C   0  0  0  0  0  0  0  0  0  0  0  0
   13.8751  -20.4724   22.1036 C   0  0  0  0  0  0  0  0  0  0  0  0
   13.5965  -20.9298   20.7545 N   0  0  0  0  0  0  0  0  0  0  0  0
   11.2396  -18.2355   26.4343 C   0  0  0  0  0  0  0  0  0  0  0  0
   11.8802  -19.2939   26.7829 O   0  0  0  0  0  0  0  0  0  0  0  0
   11.2968  -17.1754   27.3005 O   0  0  0  0  0  0  0  0  0  0  0  0
  1  5  1  0
  2  3  1  0
  2  1  1  0
  3  4  1  0
  4  5  1  0
  5  6  1  1
  6  7  2  0
  8  6  1  0
  8  9  1  0
  9 17  1  0
 10 11  1  0
  9 10  1  1
 11 12  2  0
 12 13  1  0
 14 13  2  0
 15 14  1  0
 16 11  1  0
 16 15  2  0
 17 18  2  0
 19 17  1  0
 19 20  1  0
 20 26  1  0
 20 21  1  6
 22 21  1  0
 23 22  1  0
 24 23  1  0
 24 25  1  0
 26 27  2  0
 26 28  1  0
M  END
$$$$
