PFK.pdb
     RDKit          3D

 28 29  0  0  1  0  0  0  0  0999 V2000
    7.3430  -15.2902   20.3068 N   0  0  0  0  0  0  0  0  0  0  0  0
    6.3361  -14.2190   20.3642 C   0  0  0  0  0  0  0  0  0  0  0  0
    7.0368  -13.1455   19.5616 C   0  0  0  0  0  0  0  0  0  0  0  0
    8.4306  -13.1909   20.1514 C   0  0  0  0  0  0  0  0  0  0  0  0
    8.5746  -14.6253   20.5899 C   0  0  1  0  0  0  0  0  0  0  0  0
    8.8713  -14.7401   22.0373 C   0  0  0  0  0  0  0  0  0  0  0  0
    9.9090  -14.2054   22.4820 O   0  0  0  0  0  0  0  0  0  0  0  0
    8.0326  -15.4290   22.9446 N   0  0  0  0  0  0  0  0  0  0  0  0
    8.2958  -15.5677   24.3669 C   0  0  1  0  0  0  0  0  0  0  0  0
    7.0906  -15.2666   25.1953 C   0  0  0  0  0  0  0  0  0  0  0  0
    6.9688  -13.8263   25.5096 C   0  0  0  0  0  0  0  0  0  0  0  0
    6.3293  -12.9061   24.7096 C   0  0  0  0  0  0  0  0  0  0  0  0
    6.2606  -11.5920   25.0821 C   0  0  0  0  0  0  0  0  0  0  0  0
    6.8293  -11.1634   26.2639 C   0  0  0  0  0  0  0  0  0  0  0  0
    7.4762  -12.0718   27.0812 C   0  0  0  0  0  0  0  0  0  0  0  0
    7.5383  -13.3872   26.6963 C   0  0  0  0  0  0  0  0  0  0  0  0
    8.8932  -16.9093   24.6382 C   0  0  0  0  0  0  0  0  0  0  0  0
    8.2816  -17.9811   24.4062 O   0  0  0  0  0  0  0  0  0  0  0  0
   10.1922  -17.0212   25.1756 N   0  0  0  0  0  0  0  0  0  0  0  0
   10.7727  -18.3922   25.4799 C   0  0  1  0  0  0  0  0  0  0  0  0
   12.1243  -18.2813   24.8992 C   0  0  0  0  0  0  0  0  0  0  0  0
   12.3595  -18.0506   23.4814 C   0  0  0  0  0  0  0  0  0  0  0  0
   13.7525  -17.9512   23.0197 C   0  0  0  0  0  0  0  0  0  0  0  0
   13.7833  -17.5252   21.5184 C   0  0  0  0  0  0  0  0  0  0  0  0
   15.1927  -17.4213   21.1872 N   0  0  0  0  0  0  0  0  0  0  0  0
   10.6894  -18.4660   26.9673 C   0  0  0  0  0  0  0  0  0  0  0  0
   10.3938  -17.3997   27.6214 O   0  0  0  0  0  0  0  0  0  0  0  0
   10.8984  -19.5983   27.7101 O   0  0  0  0  0  0  0  0  0  0  0  0
  1  5  1  0
  2  3  1  0
  2  1  1  0
  3  4  1  0
  4  5  1  0
  5  6  1  1
  6  7  2  0
  8  6  1  0
  8  9  1  0
  9 17  1  0
 10 11  1  0
  9 10  1  1
 11 12  2  0
 12 13  1  0
 14 13  2  0
 15 14  1  0
 16 11  1  0
 16 15  2  0
 17 18  2  0
 19 17  1  0
 19 20  1  0
 20 26  1  0
 20 21  1  1
 22 21  1  0
 23 22  1  0
 24 23  1  0
 24 25  1  0
 26 27  2  0
 26 28  1  0
M  END
$$$$
