PFK.pdb
     RDKit          3D

 28 29  0  0  1  0  0  0  0  0999 V2000
    7.5967  -15.2587   19.4285 N   0  0  0  0  0  0  0  0  0  0  0  0
    6.6660  -14.1638   19.1131 C   0  0  0  0  0  0  0  0  0  0  0  0
    7.5173  -13.3496   18.1646 C   0  0  0  0  0  0  0  0  0  0  0  0
    8.8375  -13.3093   18.9049 C   0  0  0  0  0  0  0  0  0  0  0  0
    8.8365  -14.5982   19.6854 C   0  0  1  0  0  0  0  0  0  0  0  0
    8.9759  -14.3691   21.1429 C   0  0  0  0  0  0  0  0  0  0  0  0
   10.0668  -13.9489   21.5832 O   0  0  0  0  0  0  0  0  0  0  0  0
    7.9288  -14.6041   22.0647 N   0  0  0  0  0  0  0  0  0  0  0  0
    8.0609  -14.4922   23.5074 C   0  0  1  0  0  0  0  0  0  0  0  0
    6.8688  -13.8480   24.1344 C   0  0  0  0  0  0  0  0  0  0  0  0
    7.0738  -13.5620   25.5712 C   0  0  0  0  0  0  0  0  0  0  0  0
    6.6453  -14.3755   26.5960 C   0  0  0  0  0  0  0  0  0  0  0  0
    6.8833  -14.0341   27.8987 C   0  0  0  0  0  0  0  0  0  0  0  0
    7.5556  -12.8704   28.2110 C   0  0  0  0  0  0  0  0  0  0  0  0
    7.9940  -12.0398   27.1965 C   0  0  0  0  0  0  0  0  0  0  0  0
    7.7491  -12.3935   25.8938 C   0  0  0  0  0  0  0  0  0  0  0  0
    8.3977  -15.8274   24.0856 C   0  0  0  0  0  0  0  0  0  0  0  0
    7.7098  -16.8538   23.8620 O   0  0  0  0  0  0  0  0  0  0  0  0
    9.5235  -15.9850   24.9200 N   0  0  0  0  0  0  0  0  0  0  0  0
    9.8925  -17.3622   25.4457 C   0  0  1  0  0  0  0  0  0  0  0  0
   11.2002  -17.5889   24.8015 C   0  0  0  0  0  0  0  0  0  0  0  0
   11.7141  -18.9171   24.5010 C   0  0  0  0  0  0  0  0  0  0  0  0
   12.9911  -19.0162   23.7779 C   0  0  0  0  0  0  0  0  0  0  0  0
   13.3787  -20.5166   23.5914 C   0  0  0  0  0  0  0  0  0  0  0  0
   14.5368  -20.4986   22.7165 N   0  0  0  0  0  0  0  0  0  0  0  0
    9.9024  -17.1623   26.9237 C   0  0  0  0  0  0  0  0  0  0  0  0
    9.9146  -15.9617   27.3829 O   0  0  0  0  0  0  0  0  0  0  0  0
    9.8921  -18.1699   27.8523 O   0  0  0  0  0  0  0  0  0  0  0  0
  1  5  1  0
  2  3  1  0
  2  1  1  0
  3  4  1  0
  4  5  1  0
  5  6  1  1
  6  7  2  0
  8  6  1  0
  8  9  1  0
  9 17  1  0
 10 11  1  0
  9 10  1  1
 11 12  2  0
 12 13  1  0
 14 13  2  0
 15 14  1  0
 16 11  1  0
 16 15  2  0
 17 18  2  0
 19 17  1  0
 19 20  1  0
 20 26  1  0
 20 21  1  6
 22 21  1  0
 23 22  1  0
 24 23  1  0
 24 25  1  0
 26 27  2  0
 26 28  1  0
M  END
$$$$
