PFK.pdb
     RDKit          3D

 28 29  0  0  1  0  0  0  0  0999 V2000
    7.5575  -15.1307   19.1827 N   0  0  0  0  0  0  0  0  0  0  0  0
    6.8904  -13.8470   18.9151 C   0  0  0  0  0  0  0  0  0  0  0  0
    7.9122  -13.1943   18.0110 C   0  0  0  0  0  0  0  0  0  0  0  0
    9.1983  -13.4747   18.7592 C   0  0  0  0  0  0  0  0  0  0  0  0
    8.9066  -14.7670   19.4772 C   0  0  1  0  0  0  0  0  0  0  0  0
    9.0699  -14.6400   20.9447 C   0  0  0  0  0  0  0  0  0  0  0  0
   10.2245  -14.5711   21.4168 O   0  0  0  0  0  0  0  0  0  0  0  0
    7.9769  -14.5929   21.8415 N   0  0  0  0  0  0  0  0  0  0  0  0
    8.0939  -14.3604   23.2711 C   0  0  1  0  0  0  0  0  0  0  0  0
    6.9499  -13.5654   23.8085 C   0  0  0  0  0  0  0  0  0  0  0  0
    7.1612  -13.1534   25.2134 C   0  0  0  0  0  0  0  0  0  0  0  0
    6.6224  -13.7989   26.3036 C   0  0  0  0  0  0  0  0  0  0  0  0
    6.8753  -13.3500   27.5705 C   0  0  0  0  0  0  0  0  0  0  0  0
    7.6733  -12.2442   27.7805 C   0  0  0  0  0  0  0  0  0  0  0  0
    8.2237  -11.5819   26.6989 C   0  0  0  0  0  0  0  0  0  0  0  0
    7.9624  -12.0421   25.4331 C   0  0  0  0  0  0  0  0  0  0  0  0
    8.3074  -15.6601   23.9751 C   0  0  0  0  0  0  0  0  0  0  0  0
    7.5594  -16.6536   23.8018 O   0  0  0  0  0  0  0  0  0  0  0  0
    9.3789  -15.8198   24.8779 N   0  0  0  0  0  0  0  0  0  0  0  0
    9.6669  -17.1845   25.4810 C   0  0  1  0  0  0  0  0  0  0  0  0
   10.8936  -17.5776   24.7621 C   0  0  0  0  0  0  0  0  0  0  0  0
   11.1994  -18.9579   24.4156 C   0  0  0  0  0  0  0  0  0  0  0  0
   12.4434  -19.2254   23.6779 C   0  0  0  0  0  0  0  0  0  0  0  0
   12.5910  -20.7589   23.4276 C   0  0  0  0  0  0  0  0  0  0  0  0
   13.8724  -20.9085   22.7624 N   0  0  0  0  0  0  0  0  0  0  0  0
    9.8130  -16.8817   26.9342 C   0  0  0  0  0  0  0  0  0  0  0  0
   10.0110  -15.6633   27.2927 O   0  0  0  0  0  0  0  0  0  0  0  0
    9.7455  -17.8096   27.9402 O   0  0  0  0  0  0  0  0  0  0  0  0
  1  5  1  0
  2  3  1  0
  2  1  1  0
  3  4  1  0
  4  5  1  0
  5  6  1  1
  6  7  2  0
  8  6  1  0
  8  9  1  0
  9 17  1  0
 10 11  1  0
  9 10  1  1
 11 12  2  0
 12 13  1  0
 14 13  2  0
 15 14  1  0
 16 11  1  0
 16 15  2  0
 17 18  2  0
 19 17  1  0
 19 20  1  0
 20 26  1  0
 20 21  1  6
 22 21  1  0
 23 22  1  0
 24 23  1  0
 24 25  1  0
 26 27  2  0
 26 28  1  0
M  END
$$$$
