PFK.pdb
     RDKit          3D

 28 29  0  0  1  0  0  0  0  0999 V2000
    7.0053  -15.0724   19.9225 N   0  0  0  0  0  0  0  0  0  0  0  0
    6.2795  -13.8008   19.7776 C   0  0  0  0  0  0  0  0  0  0  0  0
    7.1776  -13.0873   18.7919 C   0  0  0  0  0  0  0  0  0  0  0  0
    8.5455  -13.3544   19.3836 C   0  0  0  0  0  0  0  0  0  0  0  0
    8.3687  -14.6786   20.0807 C   0  0  1  0  0  0  0  0  0  0  0  0
    8.6900  -14.5969   21.5251 C   0  0  0  0  0  0  0  0  0  0  0  0
    9.8782  -14.4188   21.8671 O   0  0  0  0  0  0  0  0  0  0  0  0
    7.7120  -14.7114   22.5409 N   0  0  0  0  0  0  0  0  0  0  0  0
    7.9918  -14.6441   23.9652 C   0  0  1  0  0  0  0  0  0  0  0  0
    6.8592  -14.0489   24.7348 C   0  0  0  0  0  0  0  0  0  0  0  0
    7.2017  -13.8223   26.1559 C   0  0  0  0  0  0  0  0  0  0  0  0
    7.3024  -14.8183   27.1010 C   0  0  0  0  0  0  0  0  0  0  0  0
    7.6297  -14.5171   28.3943 C   0  0  0  0  0  0  0  0  0  0  0  0
    7.8647  -13.2123   28.7765 C   0  0  0  0  0  0  0  0  0  0  0  0
    7.7684  -12.1975   27.8424 C   0  0  0  0  0  0  0  0  0  0  0  0
    7.4394  -12.5127   26.5484 C   0  0  0  0  0  0  0  0  0  0  0  0
    8.4134  -15.9895   24.4579 C   0  0  0  0  0  0  0  0  0  0  0  0
    7.6848  -17.0067   24.3528 O   0  0  0  0  0  0  0  0  0  0  0  0
    9.6708  -16.1677   25.0709 N   0  0  0  0  0  0  0  0  0  0  0  0
   10.0833  -17.5415   25.5725 C   0  0  1  0  0  0  0  0  0  0  0  0
   11.1635  -17.8929   24.6312 C   0  0  0  0  0  0  0  0  0  0  0  0
   12.0101  -19.0648   24.8005 C   0  0  0  0  0  0  0  0  0  0  0  0
   12.9809  -19.3746   23.7399 C   0  0  0  0  0  0  0  0  0  0  0  0
   13.7830  -20.6598   24.1154 C   0  0  0  0  0  0  0  0  0  0  0  0
   14.5253  -21.0022   22.9160 N   0  0  0  0  0  0  0  0  0  0  0  0
   10.4882  -17.2729   26.9827 C   0  0  0  0  0  0  0  0  0  0  0  0
   10.6249  -18.2682   27.7845 O   0  0  0  0  0  0  0  0  0  0  0  0
   10.7388  -16.0310   27.5046 O   0  0  0  0  0  0  0  0  0  0  0  0
  1  5  1  0
  2  3  1  0
  2  1  1  0
  3  4  1  0
  4  5  1  0
  5  6  1  1
  6  7  2  0
  8  6  1  0
  8  9  1  0
  9 17  1  0
 10 11  1  0
  9 10  1  1
 11 12  2  0
 12 13  1  0
 14 13  2  0
 15 14  1  0
 16 11  1  0
 16 15  2  0
 17 18  2  0
 19 17  1  0
 19 20  1  0
 20 26  1  0
 20 21  1  6
 22 21  1  0
 23 22  1  0
 24 23  1  0
 24 25  1  0
 26 27  2  0
 26 28  1  0
M  END
$$$$
