PFK.pdb
     RDKit          3D

 28 29  0  0  1  0  0  0  0  0999 V2000
    7.4811  -15.1271   19.1232 N   0  0  0  0  0  0  0  0  0  0  0  0
    6.7452  -13.8788   18.8684 C   0  0  0  0  0  0  0  0  0  0  0  0
    7.7142  -13.1775   17.9429 C   0  0  0  0  0  0  0  0  0  0  0  0
    9.0279  -13.3919   18.6647 C   0  0  0  0  0  0  0  0  0  0  0  0
    8.8160  -14.6958   19.3896 C   0  0  1  0  0  0  0  0  0  0  0  0
    9.0029  -14.5582   20.8532 C   0  0  0  0  0  0  0  0  0  0  0  0
   10.1577  -14.3876   21.2979 O   0  0  0  0  0  0  0  0  0  0  0  0
    7.9321  -14.6109   21.7762 N   0  0  0  0  0  0  0  0  0  0  0  0
    8.0656  -14.3902   23.2062 C   0  0  1  0  0  0  0  0  0  0  0  0
    6.9321  -13.5927   23.7619 C   0  0  0  0  0  0  0  0  0  0  0  0
    7.1430  -13.2263   25.1794 C   0  0  0  0  0  0  0  0  0  0  0  0
    6.6072  -13.9090   26.2482 C   0  0  0  0  0  0  0  0  0  0  0  0
    6.8595  -13.5011   27.5289 C   0  0  0  0  0  0  0  0  0  0  0  0
    7.6539  -12.4001   27.7747 C   0  0  0  0  0  0  0  0  0  0  0  0
    8.2013  -11.7008   26.7151 C   0  0  0  0  0  0  0  0  0  0  0  0
    7.9407  -12.1201   25.4350 C   0  0  0  0  0  0  0  0  0  0  0  0
    8.2788  -15.6965   23.8979 C   0  0  0  0  0  0  0  0  0  0  0  0
    7.5049  -16.6742   23.7497 O   0  0  0  0  0  0  0  0  0  0  0  0
    9.3799  -15.8812   24.7594 N   0  0  0  0  0  0  0  0  0  0  0  0
    9.6247  -17.2377   25.3989 C   0  0  1  0  0  0  0  0  0  0  0  0
   10.8276  -17.6964   24.6786 C   0  0  0  0  0  0  0  0  0  0  0  0
   11.5325  -18.9240   25.0176 C   0  0  0  0  0  0  0  0  0  0  0  0
   12.7613  -19.2425   24.2747 C   0  0  0  0  0  0  0  0  0  0  0  0
   13.4109  -20.5372   24.8562 C   0  0  0  0  0  0  0  0  0  0  0  0
   14.6652  -20.6813   24.1401 N   0  0  0  0  0  0  0  0  0  0  0  0
    9.7990  -16.8990   26.8411 C   0  0  0  0  0  0  0  0  0  0  0  0
   10.0648  -15.6826   27.1603 O   0  0  0  0  0  0  0  0  0  0  0  0
    9.6904  -17.7908   27.8757 O   0  0  0  0  0  0  0  0  0  0  0  0
  1  5  1  0
  2  3  1  0
  2  1  1  0
  3  4  1  0
  4  5  1  0
  5  6  1  1
  6  7  2  0
  8  6  1  0
  8  9  1  0
  9 17  1  0
 10 11  1  0
  9 10  1  1
 11 12  2  0
 12 13  1  0
 14 13  2  0
 15 14  1  0
 16 11  1  0
 16 15  2  0
 17 18  2  0
 19 17  1  0
 19 20  1  0
 20 26  1  0
 20 21  1  6
 22 21  1  0
 23 22  1  0
 24 23  1  0
 24 25  1  0
 26 27  2  0
 26 28  1  0
M  END
$$$$
