PFK.pdb
     RDKit          3D

 28 29  0  0  1  0  0  0  0  0999 V2000
    7.3141  -15.3334   20.5979 N   0  0  0  0  0  0  0  0  0  0  0  0
    6.3317  -14.2410   20.6774 C   0  0  0  0  0  0  0  0  0  0  0  0
    7.0504  -13.1724   19.8842 C   0  0  0  0  0  0  0  0  0  0  0  0
    8.4471  -13.2568   20.4629 C   0  0  0  0  0  0  0  0  0  0  0  0
    8.5622  -14.7000   20.8807 C   0  0  1  0  0  0  0  0  0  0  0  0
    8.8667  -14.8413   22.3241 C   0  0  0  0  0  0  0  0  0  0  0  0
    9.9856  -14.4740   22.7408 O   0  0  0  0  0  0  0  0  0  0  0  0
    7.9475  -15.3744   23.2581 N   0  0  0  0  0  0  0  0  0  0  0  0
    8.2440  -15.6153   24.6601 C   0  0  1  0  0  0  0  0  0  0  0  0
    7.0855  -15.2920   25.5449 C   0  0  0  0  0  0  0  0  0  0  0  0
    7.0048  -13.8495   25.8624 C   0  0  0  0  0  0  0  0  0  0  0  0
    5.9606  -13.0293   25.4982 C   0  0  0  0  0  0  0  0  0  0  0  0
    5.9671  -11.7050   25.8394 C   0  0  0  0  0  0  0  0  0  0  0  0
    7.0175  -11.1659   26.5534 C   0  0  0  0  0  0  0  0  0  0  0  0
    8.0757  -11.9728   26.9285 C   0  0  0  0  0  0  0  0  0  0  0  0
    8.0573  -13.2997   26.5802 C   0  0  0  0  0  0  0  0  0  0  0  0
    8.7633  -17.0050   24.8316 C   0  0  0  0  0  0  0  0  0  0  0  0
    8.0656  -18.0215   24.5940 O   0  0  0  0  0  0  0  0  0  0  0  0
   10.0830  -17.2283   25.2755 N   0  0  0  0  0  0  0  0  0  0  0  0
   10.5603  -18.6432   25.5574 C   0  0  1  0  0  0  0  0  0  0  0  0
   11.9039  -18.6336   24.9482 C   0  0  0  0  0  0  0  0  0  0  0  0
   12.8763  -19.6957   25.1609 C   0  0  0  0  0  0  0  0  0  0  0  0
   14.2002  -19.5553   24.5356 C   0  0  0  0  0  0  0  0  0  0  0  0
   15.1080  -20.7580   24.9425 C   0  0  0  0  0  0  0  0  0  0  0  0
   16.4189  -20.4353   24.4093 N   0  0  0  0  0  0  0  0  0  0  0  0
   10.5029  -18.7232   27.0457 C   0  0  0  0  0  0  0  0  0  0  0  0
   10.5650  -19.8798   27.6032 O   0  0  0  0  0  0  0  0  0  0  0  0
   10.3949  -17.6465   27.8862 O   0  0  0  0  0  0  0  0  0  0  0  0
  1  5  1  0
  2  3  1  0
  2  1  1  0
  3  4  1  0
  4  5  1  0
  5  6  1  1
  6  7  2  0
  8  6  1  0
  8  9  1  0
  9 17  1  0
 10 11  1  0
  9 10  1  1
 11 12  2  0
 12 13  1  0
 14 13  2  0
 15 14  1  0
 16 11  1  0
 16 15  2  0
 17 18  2  0
 19 17  1  0
 19 20  1  0
 20 26  1  0
 20 21  1  1
 22 21  1  0
 23 22  1  0
 24 23  1  0
 24 25  1  0
 26 27  2  0
 26 28  1  0
M  END
$$$$
