PFK.pdb
     RDKit          3D

 28 29  0  0  1  0  0  0  0  0999 V2000
    7.2496  -15.1514   19.8460 N   0  0  0  0  0  0  0  0  0  0  0  0
    6.4173  -13.9520   19.6633 C   0  0  0  0  0  0  0  0  0  0  0  0
    7.2640  -13.1832   18.6735 C   0  0  0  0  0  0  0  0  0  0  0  0
    8.6411  -13.3163   19.2888 C   0  0  0  0  0  0  0  0  0  0  0  0
    8.5708  -14.6359   20.0130 C   0  0  1  0  0  0  0  0  0  0  0  0
    8.8621  -14.4958   21.4592 C   0  0  0  0  0  0  0  0  0  0  0  0
   10.0269  -14.2149   21.8129 O   0  0  0  0  0  0  0  0  0  0  0  0
    7.8809  -14.6655   22.4641 N   0  0  0  0  0  0  0  0  0  0  0  0
    8.1370  -14.5645   23.8909 C   0  0  1  0  0  0  0  0  0  0  0  0
    7.0430  -13.8472   24.6106 C   0  0  0  0  0  0  0  0  0  0  0  0
    7.3730  -13.5968   26.0307 C   0  0  0  0  0  0  0  0  0  0  0  0
    7.1242  -14.4817   27.0557 C   0  0  0  0  0  0  0  0  0  0  0  0
    7.4682  -14.1682   28.3417 C   0  0  0  0  0  0  0  0  0  0  0  0
    8.0697  -12.9620   28.6366 C   0  0  0  0  0  0  0  0  0  0  0  0
    8.3279  -12.0596   27.6215 C   0  0  0  0  0  0  0  0  0  0  0  0
    7.9781  -12.3859   26.3357 C   0  0  0  0  0  0  0  0  0  0  0  0
    8.4347  -15.9193   24.4444 C   0  0  0  0  0  0  0  0  0  0  0  0
    7.6513  -16.8914   24.3103 O   0  0  0  0  0  0  0  0  0  0  0  0
    9.6310  -16.1588   25.1515 N   0  0  0  0  0  0  0  0  0  0  0  0
    9.9370  -17.5514   25.6768 C   0  0  1  0  0  0  0  0  0  0  0  0
   11.1519  -17.8991   24.9155 C   0  0  0  0  0  0  0  0  0  0  0  0
   11.9066  -19.1223   25.1459 C   0  0  0  0  0  0  0  0  0  0  0  0
   13.1002  -19.3630   24.3208 C   0  0  0  0  0  0  0  0  0  0  0  0
   13.7260  -20.7455   24.6859 C   0  0  0  0  0  0  0  0  0  0  0  0
   14.8527  -20.8970   23.7834 N   0  0  0  0  0  0  0  0  0  0  0  0
   10.1092  -17.3242   27.1409 C   0  0  0  0  0  0  0  0  0  0  0  0
   10.0557  -18.3361   27.9318 O   0  0  0  0  0  0  0  0  0  0  0  0
   10.3312  -16.1049   27.7254 O   0  0  0  0  0  0  0  0  0  0  0  0
  1  5  1  0
  2  3  1  0
  2  1  1  0
  3  4  1  0
  4  5  1  0
  5  6  1  1
  6  7  2  0
  8  6  1  0
  8  9  1  0
  9 17  1  0
 10 11  1  0
  9 10  1  1
 11 12  2  0
 12 13  1  0
 14 13  2  0
 15 14  1  0
 16 11  1  0
 16 15  2  0
 17 18  2  0
 19 17  1  0
 19 20  1  0
 20 26  1  0
 20 21  1  6
 22 21  1  0
 23 22  1  0
 24 23  1  0
 24 25  1  0
 26 27  2  0
 26 28  1  0
M  END
$$$$
