MKK.pdb
     RDKit          3D

 27 26  0  0  1  0  0  0  0  0999 V2000
    8.3494  -11.4341   20.6442 C   0  0  0  0  0  0  0  0  0  0  0  0
    8.1693  -12.1636   19.0180 S   0  0  0  0  0  0  0  0  0  0  0  0
    8.2547  -13.9580   19.0306 C   0  0  0  0  0  0  0  0  0  0  0  0
    8.4265  -14.5184   20.4223 C   0  0  0  0  0  0  0  0  0  0  0  0
    8.5592  -16.0191   20.4188 C   0  0  2  0  0  0  0  0  0  0  0  0
    7.4830  -16.6541   19.7267 N   0  0  0  0  0  0  0  0  0  0  0  0
    8.7100  -16.5736   21.7898 C   0  0  0  0  0  0  0  0  0  0  0  0
    7.6706  -16.7709   22.4877 O   0  0  0  0  0  0  0  0  0  0  0  0
    9.9521  -16.8967   22.3670 N   0  0  0  0  0  0  0  0  0  0  0  0
   10.1015  -17.4815   23.7045 C   0  0  1  0  0  0  0  0  0  0  0  0
   11.1935  -18.5123   23.7033 C   0  0  0  0  0  0  0  0  0  0  0  0
   10.7932  -19.7051   22.8982 C   0  0  0  0  0  0  0  0  0  0  0  0
   11.8797  -20.7401   22.8781 C   0  0  0  0  0  0  0  0  0  0  0  0
   11.4190  -21.9202   22.0545 C   0  0  0  0  0  0  0  0  0  0  0  0
   12.5008  -22.8783   22.0367 N   0  0  0  0  0  0  0  0  0  0  0  0
   10.3172  -16.3700   24.6655 C   0  0  0  0  0  0  0  0  0  0  0  0
   11.3050  -15.5946   24.6558 O   0  0  0  0  0  0  0  0  0  0  0  0
    9.3649  -16.1017   25.7137 N   0  0  0  0  0  0  0  0  0  0  0  0
    9.6618  -15.1822   26.7856 C   0  0  1  0  0  0  0  0  0  0  0  0
    8.4113  -14.5402   27.3590 C   0  0  0  0  0  0  0  0  0  0  0  0
    8.0483  -13.3449   26.5384 C   0  0  0  0  0  0  0  0  0  0  0  0
    6.8116  -12.7027   27.0913 C   0  0  0  0  0  0  0  0  0  0  0  0
    6.4796  -11.4643   26.3301 C   0  0  0  0  0  0  0  0  0  0  0  0
    5.2643  -10.8427   26.8799 N   0  0  0  0  0  0  0  0  0  0  0  0
   10.4602  -15.8843   27.8146 C   0  0  0  0  0  0  0  0  0  0  0  0
   10.3639  -17.1301   27.9991 O   0  0  0  0  0  0  0  0  0  0  0  0
   11.3559  -15.1953   28.6264 O   0  0  0  0  0  0  0  0  0  0  0  0
  1  2  1  0
  3  4  1  0
  3  2  1  0
  4  5  1  0
  5  6  1  1
  7  5  1  0
  7  8  2  0
  9  7  1  0
 10 11  1  6
 10  9  1  0
 12 13  1  0
 12 11  1  0
 13 14  1  0
 14 15  1  0
 16 10  1  0
 17 16  2  0
 18 16  1  0
 19 18  1  0
 19 20  1  1
 21 20  1  0
 21 22  1  0
 23 22  1  0
 23 24  1  0
 25 19  1  0
 25 27  1  0
 26 25  2  0
M  END
$$$$
