MKK.pdb
     RDKit          3D

 27 26  0  0  1  0  0  0  0  0999 V2000
    6.3123  -11.5889   28.4128 C   0  0  0  0  0  0  0  0  0  0  0  0
    6.8287  -12.0126   26.7506 S   0  0  0  0  0  0  0  0  0  0  0  0
    5.6660  -13.0829   25.8961 C   0  0  0  0  0  0  0  0  0  0  0  0
    6.3486  -14.2287   25.1881 C   0  0  0  0  0  0  0  0  0  0  0  0
    7.6871  -13.8312   24.6222 C   0  0  2  0  0  0  0  0  0  0  0  0
    7.5987  -12.6728   23.7911 N   0  0  0  0  0  0  0  0  0  0  0  0
    8.3491  -14.9516   23.9035 C   0  0  0  0  0  0  0  0  0  0  0  0
    8.3304  -16.1076   24.4229 O   0  0  0  0  0  0  0  0  0  0  0  0
    9.0032  -14.8047   22.6662 N   0  0  0  0  0  0  0  0  0  0  0  0
    9.5965  -15.9208   21.9209 C   0  0  1  0  0  0  0  0  0  0  0  0
   10.0226  -15.4667   20.5544 C   0  0  0  0  0  0  0  0  0  0  0  0
    8.9468  -14.6572   19.9075 C   0  0  0  0  0  0  0  0  0  0  0  0
    9.0999  -14.6387   18.4148 C   0  0  0  0  0  0  0  0  0  0  0  0
    8.1270  -13.6395   17.8332 C   0  0  0  0  0  0  0  0  0  0  0  0
    8.3663  -13.5879   16.4089 N   0  0  0  0  0  0  0  0  0  0  0  0
   10.6972  -16.4834   22.7439 C   0  0  0  0  0  0  0  0  0  0  0  0
   11.7163  -15.8474   23.1106 O   0  0  0  0  0  0  0  0  0  0  0  0
   10.6620  -17.8530   23.1917 N   0  0  0  0  0  0  0  0  0  0  0  0
   11.6284  -18.3640   24.1337 C   0  0  1  0  0  0  0  0  0  0  0  0
   11.0321  -19.4016   25.0678 C   0  0  0  0  0  0  0  0  0  0  0  0
   12.0946  -19.9051   25.9906 C   0  0  0  0  0  0  0  0  0  0  0  0
   11.4967  -20.8479   26.9912 C   0  0  0  0  0  0  0  0  0  0  0  0
   12.5324  -21.3096   27.9594 C   0  0  0  0  0  0  0  0  0  0  0  0
   11.8980  -22.0356   29.0713 N   0  0  0  0  0  0  0  0  0  0  0  0
   12.7997  -18.8784   23.3903 C   0  0  0  0  0  0  0  0  0  0  0  0
   12.6891  -19.3867   22.2393 O   0  0  0  0  0  0  0  0  0  0  0  0
   14.0796  -18.8226   23.9332 O   0  0  0  0  0  0  0  0  0  0  0  0
  1  2  1  0
  3  4  1  0
  3  2  1  0
  4  5  1  0
  5  6  1  6
  7  5  1  0
  7  8  2  0
  9  7  1  0
 10 11  1  6
 10  9  1  0
 12 13  1  0
 12 11  1  0
 13 14  1  0
 14 15  1  0
 16 10  1  0
 17 16  2  0
 18 16  1  0
 19 18  1  0
 19 20  1  6
 21 20  1  0
 21 22  1  0
 23 22  1  0
 23 24  1  0
 25 19  1  0
 25 27  1  0
 26 25  2  0
M  END
$$$$
