MKK.pdb
     RDKit          3D

 27 26  0  0  1  0  0  0  0  0999 V2000
    8.3998  -11.6837   27.3547 C   0  0  0  0  0  0  0  0  0  0  0  0
    6.7126  -12.1816   27.6933 S   0  0  0  0  0  0  0  0  0  0  0  0
    6.3983  -13.9146   27.3392 C   0  0  0  0  0  0  0  0  0  0  0  0
    7.1914  -14.4154   26.1558 C   0  0  0  0  0  0  0  0  0  0  0  0
    6.3982  -15.3710   25.3029 C   0  0  2  0  0  0  0  0  0  0  0  0
    5.9987  -16.5358   26.0267 N   0  0  0  0  0  0  0  0  0  0  0  0
    7.1172  -15.7411   24.0555 C   0  0  0  0  0  0  0  0  0  0  0  0
    7.6679  -16.8803   23.9818 O   0  0  0  0  0  0  0  0  0  0  0  0
    7.2247  -14.8930   22.9377 N   0  0  0  0  0  0  0  0  0  0  0  0
    8.0177  -15.2133   21.7453 C   0  0  1  0  0  0  0  0  0  0  0  0
    7.7643  -14.2024   20.6641 C   0  0  0  0  0  0  0  0  0  0  0  0
    8.5528  -14.5306   19.4387 C   0  0  0  0  0  0  0  0  0  0  0  0
    8.2759  -13.5543   18.3333 C   0  0  0  0  0  0  0  0  0  0  0  0
    8.9554  -14.0342   17.0719 C   0  0  0  0  0  0  0  0  0  0  0  0
    8.7525  -13.0193   16.0633 N   0  0  0  0  0  0  0  0  0  0  0  0
    9.4403  -15.3158   22.1589 C   0  0  0  0  0  0  0  0  0  0  0  0
   10.0286  -14.5019   22.9132 O   0  0  0  0  0  0  0  0  0  0  0  0
   10.2688  -16.4024   21.7004 N   0  0  0  0  0  0  0  0  0  0  0  0
   11.5945  -16.6155   22.2290 C   0  0  1  0  0  0  0  0  0  0  0  0
   11.7487  -17.9841   22.8678 C   0  0  0  0  0  0  0  0  0  0  0  0
   13.1520  -18.1468   23.3559 C   0  0  0  0  0  0  0  0  0  0  0  0
   13.3229  -19.5008   23.9763 C   0  0  0  0  0  0  0  0  0  0  0  0
   14.6921  -19.6455   24.5485 C   0  0  0  0  0  0  0  0  0  0  0  0
   14.8468  -20.9747   25.1610 N   0  0  0  0  0  0  0  0  0  0  0  0
   12.5847  -16.3772   21.1557 C   0  0  0  0  0  0  0  0  0  0  0  0
   12.3406  -16.6566   19.9483 O   0  0  0  0  0  0  0  0  0  0  0  0
   13.8338  -15.8317   21.4352 O   0  0  0  0  0  0  0  0  0  0  0  0
  1  2  1  0
  3  4  1  0
  3  2  1  0
  4  5  1  0
  5  6  1  1
  7  5  1  0
  7  8  2  0
  9  7  1  0
 10 11  1  6
 10  9  1  0
 12 13  1  0
 12 11  1  0
 13 14  1  0
 14 15  1  0
 16 10  1  0
 17 16  2  0
 18 16  1  0
 19 18  1  0
 19 20  1  6
 21 20  1  0
 21 22  1  0
 23 22  1  0
 23 24  1  0
 25 19  1  0
 25 27  1  0
 26 25  2  0
M  END
$$$$
