MKK.pdb
     RDKit          3D

 27 26  0  0  1  0  0  0  0  0999 V2000
    7.3922  -11.7328   20.6832 C   0  0  0  0  0  0  0  0  0  0  0  0
    8.0241  -11.7209   19.0069 S   0  0  0  0  0  0  0  0  0  0  0  0
    9.4652  -12.7700   18.7831 C   0  0  0  0  0  0  0  0  0  0  0  0
    9.4362  -13.9890   19.6739 C   0  0  0  0  0  0  0  0  0  0  0  0
   10.7696  -14.6884   19.7243 C   0  0  2  0  0  0  0  0  0  0  0  0
   11.2262  -15.0731   18.4266 N   0  0  0  0  0  0  0  0  0  0  0  0
   10.7602  -15.8511   20.6505 C   0  0  0  0  0  0  0  0  0  0  0  0
   10.2313  -15.7176   21.7946 O   0  0  0  0  0  0  0  0  0  0  0  0
   11.3096  -17.1065   20.3302 N   0  0  0  0  0  0  0  0  0  0  0  0
   11.2767  -18.2640   21.2314 C   0  0  1  0  0  0  0  0  0  0  0  0
   11.6108  -19.5198   20.4788 C   0  0  0  0  0  0  0  0  0  0  0  0
   10.5314  -19.8529   19.5014 C   0  0  0  0  0  0  0  0  0  0  0  0
   10.8818  -21.0685   18.6941 C   0  0  0  0  0  0  0  0  0  0  0  0
    9.7352  -21.3873   17.7631 C   0  0  0  0  0  0  0  0  0  0  0  0
   10.1067  -22.5662   17.0142 N   0  0  0  0  0  0  0  0  0  0  0  0
   12.1855  -17.9795   22.3709 C   0  0  0  0  0  0  0  0  0  0  0  0
   13.4247  -17.8001   22.2728 O   0  0  0  0  0  0  0  0  0  0  0  0
   11.6794  -17.8879   23.7173 N   0  0  0  0  0  0  0  0  0  0  0  0
   12.4982  -18.2276   24.8560 C   0  0  1  0  0  0  0  0  0  0  0  0
   11.7225  -18.9817   25.9211 C   0  0  0  0  0  0  0  0  0  0  0  0
   12.6497  -19.3678   27.0279 C   0  0  0  0  0  0  0  0  0  0  0  0
   11.9142  -20.1826   28.0490 C   0  0  0  0  0  0  0  0  0  0  0  0
   12.8368  -20.6137   29.1382 C   0  0  0  0  0  0  0  0  0  0  0  0
   12.1317  -21.5007   30.0772 N   0  0  0  0  0  0  0  0  0  0  0  0
   13.6878  -18.9727   24.3882 C   0  0  0  0  0  0  0  0  0  0  0  0
   14.8600  -18.6263   24.7062 O   0  0  0  0  0  0  0  0  0  0  0  0
   13.5621  -20.0933   23.5729 O   0  0  0  0  0  0  0  0  0  0  0  0
  1  2  1  0
  3  4  1  0
  3  2  1  0
  4  5  1  0
  5  6  1  6
  7  5  1  0
  7  8  2  0
  9  7  1  0
 10 11  1  6
 10  9  1  0
 12 13  1  0
 12 11  1  0
 13 14  1  0
 14 15  1  0
 16 10  1  0
 17 16  2  0
 18 16  1  0
 19 18  1  0
 19 20  1  1
 21 20  1  0
 21 22  1  0
 23 22  1  0
 23 24  1  0
 25 19  1  0
 25 27  1  0
 26 25  2  0
M  END
$$$$
