MKK.pdb
     RDKit          3D

 27 26  0  0  1  0  0  0  0  0999 V2000
    6.3348  -11.1646   25.8331 C   0  0  0  0  0  0  0  0  0  0  0  0
    6.8076  -12.1651   27.2420 S   0  0  0  0  0  0  0  0  0  0  0  0
    7.2384  -13.8529   26.8025 C   0  0  0  0  0  0  0  0  0  0  0  0
    6.0837  -14.6001   26.1791 C   0  0  0  0  0  0  0  0  0  0  0  0
    6.4252  -16.0395   25.8941 C   0  0  2  0  0  0  0  0  0  0  0  0
    7.2681  -16.6033   26.9001 N   0  0  0  0  0  0  0  0  0  0  0  0
    7.0172  -16.2200   24.5425 C   0  0  0  0  0  0  0  0  0  0  0  0
    6.9895  -17.3704   24.0111 O   0  0  0  0  0  0  0  0  0  0  0  0
    7.6138  -15.1784   23.8081 N   0  0  0  0  0  0  0  0  0  0  0  0
    8.2319  -15.3612   22.4899 C   0  0  1  0  0  0  0  0  0  0  0  0
    8.0536  -14.1258   21.6550 C   0  0  0  0  0  0  0  0  0  0  0  0
    8.3392  -14.4139   20.2174 C   0  0  0  0  0  0  0  0  0  0  0  0
    8.1776  -13.1849   19.3715 C   0  0  0  0  0  0  0  0  0  0  0  0
    8.3033  -13.5702   17.9159 C   0  0  0  0  0  0  0  0  0  0  0  0
    8.3421  -12.3450   17.1504 N   0  0  0  0  0  0  0  0  0  0  0  0
    9.6492  -15.7509   22.7020 C   0  0  0  0  0  0  0  0  0  0  0  0
   10.4111  -15.2456   23.5632 O   0  0  0  0  0  0  0  0  0  0  0  0
   10.2637  -16.7771   21.8979 N   0  0  0  0  0  0  0  0  0  0  0  0
   11.5879  -17.2716   22.1885 C   0  0  1  0  0  0  0  0  0  0  0  0
   11.5693  -18.6904   22.7283 C   0  0  0  0  0  0  0  0  0  0  0  0
   12.3410  -18.7432   24.0072 C   0  0  0  0  0  0  0  0  0  0  0  0
   12.4107  -20.1562   24.5033 C   0  0  0  0  0  0  0  0  0  0  0  0
   13.0898  -20.2126   25.8295 C   0  0  0  0  0  0  0  0  0  0  0  0
   13.0932  -21.5935   26.3382 N   0  0  0  0  0  0  0  0  0  0  0  0
   12.4281  -17.1377   20.9780 C   0  0  0  0  0  0  0  0  0  0  0  0
   11.9460  -17.2460   19.8155 O   0  0  0  0  0  0  0  0  0  0  0  0
   13.7932  -16.8852   21.0721 O   0  0  0  0  0  0  0  0  0  0  0  0
  1  2  1  0
  3  4  1  0
  3  2  1  0
  4  5  1  0
  5  6  1  1
  7  5  1  0
  7  8  2  0
  9  7  1  0
 10 11  1  6
 10  9  1  0
 12 13  1  0
 12 11  1  0
 13 14  1  0
 14 15  1  0
 16 10  1  0
 17 16  2  0
 18 16  1  0
 19 18  1  0
 19 20  1  6
 21 20  1  0
 21 22  1  0
 23 22  1  0
 23 24  1  0
 25 19  1  0
 25 27  1  0
 26 25  2  0
M  END
$$$$
