MKK.pdb
     RDKit          3D

 27 26  0  0  1  0  0  0  0  0999 V2000
    7.0042  -11.8161   20.8770 C   0  0  0  0  0  0  0  0  0  0  0  0
    7.9703  -11.4904   19.4039 S   0  0  0  0  0  0  0  0  0  0  0  0
    9.1192  -12.8114   19.0010 C   0  0  0  0  0  0  0  0  0  0  0  0
    9.0944  -13.9284   20.0170 C   0  0  0  0  0  0  0  0  0  0  0  0
   10.1916  -14.9341   19.7834 C   0  0  2  0  0  0  0  0  0  0  0  0
   10.2360  -15.3783   18.4265 N   0  0  0  0  0  0  0  0  0  0  0  0
   10.1056  -16.0873   20.7175 C   0  0  0  0  0  0  0  0  0  0  0  0
    9.8745  -15.8654   21.9438 O   0  0  0  0  0  0  0  0  0  0  0  0
   10.2673  -17.4269   20.3179 N   0  0  0  0  0  0  0  0  0  0  0  0
   10.3351  -18.5540   21.2550 C   0  0  1  0  0  0  0  0  0  0  0  0
   10.2006  -19.8545   20.5163 C   0  0  0  0  0  0  0  0  0  0  0  0
    8.9108  -19.9043   19.7647 C   0  0  0  0  0  0  0  0  0  0  0  0
    8.8443  -21.1094   18.8730 C   0  0  0  0  0  0  0  0  0  0  0  0
    7.5697  -21.0523   18.0636 C   0  0  0  0  0  0  0  0  0  0  0  0
    7.6390  -22.1091   17.0804 N   0  0  0  0  0  0  0  0  0  0  0  0
   11.5941  -18.4248   22.0320 C   0  0  0  0  0  0  0  0  0  0  0  0
   12.6399  -17.8674   21.6160 O   0  0  0  0  0  0  0  0  0  0  0  0
   11.6975  -18.9540   23.3687 N   0  0  0  0  0  0  0  0  0  0  0  0
   12.9258  -18.8683   24.1212 C   0  0  1  0  0  0  0  0  0  0  0  0
   12.7560  -19.3265   25.5585 C   0  0  0  0  0  0  0  0  0  0  0  0
   11.9998  -18.2882   26.3227 C   0  0  0  0  0  0  0  0  0  0  0  0
   11.7676  -18.7566   27.7277 C   0  0  0  0  0  0  0  0  0  0  0  0
   11.1512  -17.6731   28.5457 C   0  0  0  0  0  0  0  0  0  0  0  0
   10.9519  -18.1343   29.9290 N   0  0  0  0  0  0  0  0  0  0  0  0
   13.9808  -19.6216   23.4079 C   0  0  0  0  0  0  0  0  0  0  0  0
   13.7372  -20.7067   22.8091 O   0  0  0  0  0  0  0  0  0  0  0  0
   15.2934  -19.1615   23.3678 O   0  0  0  0  0  0  0  0  0  0  0  0
  1  2  1  0
  3  4  1  0
  3  2  1  0
  4  5  1  0
  5  6  1  6
  7  5  1  0
  7  8  2  0
  9  7  1  0
 10 11  1  6
 10  9  1  0
 12 13  1  0
 12 11  1  0
 13 14  1  0
 14 15  1  0
 16 10  1  0
 17 16  2  0
 18 16  1  0
 19 18  1  0
 19 20  1  1
 21 20  1  0
 21 22  1  0
 23 22  1  0
 23 24  1  0
 25 19  1  0
 25 27  1  0
 26 25  2  0
M  END
$$$$
