MKK.pdb
     RDKit          3D

 27 26  0  0  1  0  0  0  0  0999 V2000
    7.1309  -11.1091   27.8933 C   0  0  0  0  0  0  0  0  0  0  0  0
    5.9249  -11.9681   26.8848 S   0  0  0  0  0  0  0  0  0  0  0  0
    6.0983  -13.7555   26.9373 C   0  0  0  0  0  0  0  0  0  0  0  0
    6.9704  -14.2841   25.8236 C   0  0  0  0  0  0  0  0  0  0  0  0
    6.2068  -15.1721   24.8759 C   0  0  2  0  0  0  0  0  0  0  0  0
    5.7813  -16.3854   25.4982 N   0  0  0  0  0  0  0  0  0  0  0  0
    6.9686  -15.4523   23.6305 C   0  0  0  0  0  0  0  0  0  0  0  0
    7.5346  -16.5788   23.5000 O   0  0  0  0  0  0  0  0  0  0  0  0
    7.1010  -14.5314   22.5747 N   0  0  0  0  0  0  0  0  0  0  0  0
    7.9473  -14.7579   21.3975 C   0  0  1  0  0  0  0  0  0  0  0  0
    7.8844  -13.5745   20.4752 C   0  0  0  0  0  0  0  0  0  0  0  0
    8.8832  -13.7101   19.3729 C   0  0  0  0  0  0  0  0  0  0  0  0
    8.2429  -14.2209   18.1155 C   0  0  0  0  0  0  0  0  0  0  0  0
    9.2999  -14.3512   17.0435 C   0  0  0  0  0  0  0  0  0  0  0  0
    8.6466  -14.8547   15.8569 N   0  0  0  0  0  0  0  0  0  0  0  0
    9.3152  -15.0822   21.8761 C   0  0  0  0  0  0  0  0  0  0  0  0
    9.9637  -14.4025   22.7095 O   0  0  0  0  0  0  0  0  0  0  0  0
   10.0125  -16.2473   21.3925 N   0  0  0  0  0  0  0  0  0  0  0  0
   11.2944  -16.6362   21.9290 C   0  0  1  0  0  0  0  0  0  0  0  0
   11.3071  -18.0765   22.4088 C   0  0  0  0  0  0  0  0  0  0  0  0
   11.7894  -18.1226   23.8227 C   0  0  0  0  0  0  0  0  0  0  0  0
   11.7177  -19.5276   24.3409 C   0  0  0  0  0  0  0  0  0  0  0  0
   12.2840  -19.6072   25.7179 C   0  0  0  0  0  0  0  0  0  0  0  0
   11.9988  -20.9254   26.3070 N   0  0  0  0  0  0  0  0  0  0  0  0
   12.3408  -16.3673   20.9181 C   0  0  0  0  0  0  0  0  0  0  0  0
   12.1050  -16.4345   19.6791 O   0  0  0  0  0  0  0  0  0  0  0  0
   13.6365  -16.0270   21.2946 O   0  0  0  0  0  0  0  0  0  0  0  0
  1  2  1  0
  3  4  1  0
  3  2  1  0
  4  5  1  0
  5  6  1  1
  7  5  1  0
  7  8  2  0
  9  7  1  0
 10 11  1  6
 10  9  1  0
 12 13  1  0
 12 11  1  0
 13 14  1  0
 14 15  1  0
 16 10  1  0
 17 16  2  0
 18 16  1  0
 19 18  1  0
 19 20  1  6
 21 20  1  0
 21 22  1  0
 23 22  1  0
 23 24  1  0
 25 19  1  0
 25 27  1  0
 26 25  2  0
M  END
$$$$
