MKK.pdb
     RDKit          3D

 27 26  0  0  1  0  0  0  0  0999 V2000
    2.7981  -19.2928   20.0057 C   0  0  0  0  0  0  0  0  0  0  0  0
    2.6799  -19.1520   21.7877 S   0  0  0  0  0  0  0  0  0  0  0  0
    3.7286  -20.3183   22.6639 C   0  0  0  0  0  0  0  0  0  0  0  0
    5.1985  -20.0325   22.4692 C   0  0  0  0  0  0  0  0  0  0  0  0
    5.6806  -18.9081   23.3485 C   0  0  2  0  0  0  0  0  0  0  0  0
    4.6065  -18.0910   23.8165 N   0  0  0  0  0  0  0  0  0  0  0  0
    6.7253  -18.0840   22.6856 C   0  0  0  0  0  0  0  0  0  0  0  0
    7.7567  -18.6586   22.2247 O   0  0  0  0  0  0  0  0  0  0  0  0
    6.6374  -16.6874   22.5368 N   0  0  0  0  0  0  0  0  0  0  0  0
    7.6614  -15.8728   21.8727 C   0  0  1  0  0  0  0  0  0  0  0  0
    7.0441  -14.6352   21.2878 C   0  0  0  0  0  0  0  0  0  0  0  0
    7.9841  -13.9773   20.3313 C   0  0  0  0  0  0  0  0  0  0  0  0
    7.2877  -12.9277   19.5157 C   0  0  0  0  0  0  0  0  0  0  0  0
    8.2522  -12.3840   18.4874 C   0  0  0  0  0  0  0  0  0  0  0  0
    8.4063  -13.3962   17.4675 N   0  0  0  0  0  0  0  0  0  0  0  0
    8.7398  -15.6055   22.8581 C   0  0  0  0  0  0  0  0  0  0  0  0
    8.5522  -15.2841   24.0576 O   0  0  0  0  0  0  0  0  0  0  0  0
   10.1278  -15.7027   22.4820 N   0  0  0  0  0  0  0  0  0  0  0  0
   11.1501  -16.0282   23.4472 C   0  0  1  0  0  0  0  0  0  0  0  0
   10.8344  -17.2978   24.2173 C   0  0  0  0  0  0  0  0  0  0  0  0
   11.1746  -17.0993   25.6591 C   0  0  0  0  0  0  0  0  0  0  0  0
   10.8369  -18.3349   26.4380 C   0  0  0  0  0  0  0  0  0  0  0  0
   11.1950  -18.1620   27.8751 C   0  0  0  0  0  0  0  0  0  0  0  0
   10.9695  -19.4184   28.6076 N   0  0  0  0  0  0  0  0  0  0  0  0
   12.4582  -16.0942   22.7590 C   0  0  0  0  0  0  0  0  0  0  0  0
   12.5944  -16.6577   21.6369 O   0  0  0  0  0  0  0  0  0  0  0  0
   13.5995  -15.5340   23.3246 O   0  0  0  0  0  0  0  0  0  0  0  0
  1  2  1  0
  3  4  1  0
  3  2  1  0
  4  5  1  0
  5  6  1  6
  7  5  1  0
  7  8  2  0
  9  7  1  0
 10 11  1  1
 10  9  1  0
 12 13  1  0
 12 11  1  0
 13 14  1  0
 14 15  1  0
 16 10  1  0
 17 16  2  0
 18 16  1  0
 19 18  1  0
 19 20  1  6
 21 20  1  0
 21 22  1  0
 23 22  1  0
 23 24  1  0
 25 19  1  0
 25 27  1  0
 26 25  2  0
M  END
$$$$
