MKK.pdb
     RDKit          3D

 27 26  0  0  1  0  0  0  0  0999 V2000
    7.7101  -11.5341   20.5482 C   0  0  0  0  0  0  0  0  0  0  0  0
    7.9736  -11.9624   18.8287 S   0  0  0  0  0  0  0  0  0  0  0  0
    9.0911  -13.3512   18.6055 C   0  0  0  0  0  0  0  0  0  0  0  0
    9.2181  -14.1964   19.8504 C   0  0  0  0  0  0  0  0  0  0  0  0
   10.5700  -14.8527   19.9568 C   0  0  2  0  0  0  0  0  0  0  0  0
   11.0210  -15.3650   18.7020 N   0  0  0  0  0  0  0  0  0  0  0  0
   10.6023  -15.9074   21.0039 C   0  0  0  0  0  0  0  0  0  0  0  0
   10.0976  -15.6578   22.1395 O   0  0  0  0  0  0  0  0  0  0  0  0
   11.1662  -17.1818   20.8085 N   0  0  0  0  0  0  0  0  0  0  0  0
   11.2687  -18.1976   21.8625 C   0  0  1  0  0  0  0  0  0  0  0  0
   11.7597  -19.4957   21.2890 C   0  0  0  0  0  0  0  0  0  0  0  0
   11.8247  -20.5493   22.3459 C   0  0  0  0  0  0  0  0  0  0  0  0
   12.3117  -21.8541   21.7871 C   0  0  0  0  0  0  0  0  0  0  0  0
   12.2573  -22.9043   22.8722 C   0  0  0  0  0  0  0  0  0  0  0  0
   12.6412  -24.1612   22.2713 N   0  0  0  0  0  0  0  0  0  0  0  0
   12.1273  -17.6479   22.9423 C   0  0  0  0  0  0  0  0  0  0  0  0
   13.2370  -17.0880   22.7618 O   0  0  0  0  0  0  0  0  0  0  0  0
   11.7223  -17.7267   24.3234 N   0  0  0  0  0  0  0  0  0  0  0  0
   12.4895  -17.0981   25.3716 C   0  0  1  0  0  0  0  0  0  0  0  0
   11.6784  -16.8949   26.6387 C   0  0  0  0  0  0  0  0  0  0  0  0
   10.9064  -15.6194   26.5326 C   0  0  0  0  0  0  0  0  0  0  0  0
   10.1769  -15.3561   27.8155 C   0  0  0  0  0  0  0  0  0  0  0  0
    9.4026  -14.0850   27.7261 C   0  0  0  0  0  0  0  0  0  0  0  0
    8.7511  -13.7976   29.0140 N   0  0  0  0  0  0  0  0  0  0  0  0
   13.7191  -17.8867   25.6072 C   0  0  0  0  0  0  0  0  0  0  0  0
   13.7084  -19.1496   25.6273 O   0  0  0  0  0  0  0  0  0  0  0  0
   14.9456  -17.2642   25.8176 O   0  0  0  0  0  0  0  0  0  0  0  0
  1  2  1  0
  3  4  1  0
  3  2  1  0
  4  5  1  0
  5  6  1  6
  7  5  1  0
  7  8  2  0
  9  7  1  0
 10 11  1  6
 10  9  1  0
 12 13  1  0
 12 11  1  0
 13 14  1  0
 14 15  1  0
 16 10  1  0
 17 16  2  0
 18 16  1  0
 19 18  1  0
 19 20  1  1
 21 20  1  0
 21 22  1  0
 23 22  1  0
 23 24  1  0
 25 19  1  0
 25 27  1  0
 26 25  2  0
M  END
$$$$
