MKK.pdb
     RDKit          3D

 27 26  0  0  1  0  0  0  0  0999 V2000
    7.1854  -10.7336   26.2952 C   0  0  0  0  0  0  0  0  0  0  0  0
    6.0328  -11.7556   27.2099 S   0  0  0  0  0  0  0  0  0  0  0  0
    5.6533  -13.3080   26.3891 C   0  0  0  0  0  0  0  0  0  0  0  0
    6.8402  -13.8743   25.6470 C   0  0  0  0  0  0  0  0  0  0  0  0
    6.4735  -15.0827   24.8255 C   0  0  2  0  0  0  0  0  0  0  0  0
    5.9424  -16.1390   25.6271 N   0  0  0  0  0  0  0  0  0  0  0  0
    7.6091  -15.5646   23.9960 C   0  0  0  0  0  0  0  0  0  0  0  0
    8.1929  -16.6407   24.3239 O   0  0  0  0  0  0  0  0  0  0  0  0
    8.0811  -14.8901   22.8547 N   0  0  0  0  0  0  0  0  0  0  0  0
    9.2017  -15.3633   22.0340 C   0  0  1  0  0  0  0  0  0  0  0  0
    9.4582  -14.4096   20.9027 C   0  0  0  0  0  0  0  0  0  0  0  0
    8.3788  -14.5069   19.8748 C   0  0  0  0  0  0  0  0  0  0  0  0
    8.6022  -13.5338   18.7545 C   0  0  0  0  0  0  0  0  0  0  0  0
    7.4586  -13.6434   17.7729 C   0  0  0  0  0  0  0  0  0  0  0  0
    7.7072  -12.6882   16.7174 N   0  0  0  0  0  0  0  0  0  0  0  0
   10.3676  -15.5686   22.9307 C   0  0  0  0  0  0  0  0  0  0  0  0
   10.6831  -14.8117   23.8820 O   0  0  0  0  0  0  0  0  0  0  0  0
   11.2463  -16.6978   22.7568 N   0  0  0  0  0  0  0  0  0  0  0  0
   12.1661  -17.1045   23.7916 C   0  0  1  0  0  0  0  0  0  0  0  0
   11.5422  -18.0883   24.7651 C   0  0  0  0  0  0  0  0  0  0  0  0
   12.5793  -18.5445   25.7400 C   0  0  0  0  0  0  0  0  0  0  0  0
   12.0037  -19.5926   26.6443 C   0  0  0  0  0  0  0  0  0  0  0  0
   13.0224  -20.0470   27.6339 C   0  0  0  0  0  0  0  0  0  0  0  0
   12.4727  -21.1300   28.4650 N   0  0  0  0  0  0  0  0  0  0  0  0
   13.3956  -17.6343   23.1617 C   0  0  0  0  0  0  0  0  0  0  0  0
   13.3634  -18.2906   22.0830 O   0  0  0  0  0  0  0  0  0  0  0  0
   14.6461  -17.4295   23.7366 O   0  0  0  0  0  0  0  0  0  0  0  0
  1  2  1  0
  3  4  1  0
  3  2  1  0
  4  5  1  0
  5  6  1  1
  7  5  1  0
  7  8  2  0
  9  7  1  0
 10 11  1  6
 10  9  1  0
 12 13  1  0
 12 11  1  0
 13 14  1  0
 14 15  1  0
 16 10  1  0
 17 16  2  0
 18 16  1  0
 19 18  1  0
 19 20  1  6
 21 20  1  0
 21 22  1  0
 23 22  1  0
 23 24  1  0
 25 19  1  0
 25 27  1  0
 26 25  2  0
M  END
$$$$
