MKK.pdb
     RDKit          3D

 27 26  0  0  1  0  0  0  0  0999 V2000
    8.1209  -11.2962   19.2628 C   0  0  0  0  0  0  0  0  0  0  0  0
    6.9459  -12.6465   19.1892 S   0  0  0  0  0  0  0  0  0  0  0  0
    7.6750  -14.2445   19.5668 C   0  0  0  0  0  0  0  0  0  0  0  0
    8.7634  -14.1510   20.6094 C   0  0  0  0  0  0  0  0  0  0  0  0
    9.3459  -15.4990   20.9458 C   0  0  2  0  0  0  0  0  0  0  0  0
    9.3616  -16.3763   19.8187 N   0  0  0  0  0  0  0  0  0  0  0  0
    8.6632  -16.1337   22.1037 C   0  0  0  0  0  0  0  0  0  0  0  0
    8.5345  -15.4711   23.1765 O   0  0  0  0  0  0  0  0  0  0  0  0
    8.1446  -17.4417   22.0808 N   0  0  0  0  0  0  0  0  0  0  0  0
    7.5219  -18.0915   23.2397 C   0  0  1  0  0  0  0  0  0  0  0  0
    6.9787  -19.4371   22.8530 C   0  0  0  0  0  0  0  0  0  0  0  0
    6.4578  -20.1609   24.0513 C   0  0  0  0  0  0  0  0  0  0  0  0
    5.9396  -21.5208   23.6855 C   0  0  0  0  0  0  0  0  0  0  0  0
    5.4792  -22.2253   24.9405 C   0  0  0  0  0  0  0  0  0  0  0  0
    5.0558  -23.5524   24.5558 N   0  0  0  0  0  0  0  0  0  0  0  0
    8.5271  -18.1340   24.3321 C   0  0  0  0  0  0  0  0  0  0  0  0
    9.6901  -18.5944   24.2194 O   0  0  0  0  0  0  0  0  0  0  0  0
    8.2160  -17.6278   25.6453 N   0  0  0  0  0  0  0  0  0  0  0  0
    9.2276  -17.5100   26.6676 C   0  0  1  0  0  0  0  0  0  0  0  0
    9.1177  -16.2088   27.4420 C   0  0  0  0  0  0  0  0  0  0  0  0
   10.1616  -16.1799   28.5113 C   0  0  0  0  0  0  0  0  0  0  0  0
   10.0817  -14.8881   29.2678 C   0  0  0  0  0  0  0  0  0  0  0  0
   11.1427  -14.8274   30.3137 C   0  0  0  0  0  0  0  0  0  0  0  0
   11.0198  -13.5817   31.0876 N   0  0  0  0  0  0  0  0  0  0  0  0
    9.1644  -18.6986   27.5465 C   0  0  0  0  0  0  0  0  0  0  0  0
    8.0853  -19.3238   27.7471 O   0  0  0  0  0  0  0  0  0  0  0  0
   10.2994  -19.1791   28.1921 O   0  0  0  0  0  0  0  0  0  0  0  0
  1  2  1  0
  3  4  1  0
  3  2  1  0
  4  5  1  0
  5  6  1  6
  7  5  1  0
  7  8  2  0
  9  7  1  0
 10 11  1  6
 10  9  1  0
 12 13  1  0
 12 11  1  0
 13 14  1  0
 14 15  1  0
 16 10  1  0
 17 16  2  0
 18 16  1  0
 19 18  1  0
 19 20  1  1
 21 20  1  0
 21 22  1  0
 23 22  1  0
 23 24  1  0
 25 19  1  0
 25 27  1  0
 26 25  2  0
M  END
$$$$
