MKK.pdb
     RDKit          3D

 27 26  0  0  1  0  0  0  0  0999 V2000
    7.0318  -11.0651   26.5537 C   0  0  0  0  0  0  0  0  0  0  0  0
    6.0495  -12.3017   27.3994 S   0  0  0  0  0  0  0  0  0  0  0  0
    6.4765  -13.9850   26.9394 C   0  0  0  0  0  0  0  0  0  0  0  0
    6.3648  -14.2235   25.4525 C   0  0  0  0  0  0  0  0  0  0  0  0
    6.6938  -15.6453   25.0781 C   0  0  2  0  0  0  0  0  0  0  0  0
    7.7046  -16.2041   25.9185 N   0  0  0  0  0  0  0  0  0  0  0  0
    7.0615  -15.7786   23.6440 C   0  0  0  0  0  0  0  0  0  0  0  0
    6.5191  -16.6945   22.9559 O   0  0  0  0  0  0  0  0  0  0  0  0
    7.9867  -14.9393   22.9959 N   0  0  0  0  0  0  0  0  0  0  0  0
    8.3754  -15.0884   21.5889 C   0  0  1  0  0  0  0  0  0  0  0  0
    8.4038  -13.7485   20.9115 C   0  0  0  0  0  0  0  0  0  0  0  0
    8.9912  -13.8608   19.5427 C   0  0  0  0  0  0  0  0  0  0  0  0
    8.0460  -13.3429   18.4985 C   0  0  0  0  0  0  0  0  0  0  0  0
    8.6041  -13.6588   17.1303 C   0  0  0  0  0  0  0  0  0  0  0  0
    7.5919  -13.3025   16.1623 N   0  0  0  0  0  0  0  0  0  0  0  0
    9.6694  -15.8161   21.5490 C   0  0  0  0  0  0  0  0  0  0  0  0
   10.4732  -15.7981   20.5841 O   0  0  0  0  0  0  0  0  0  0  0  0
   10.1007  -16.6224   22.6631 N   0  0  0  0  0  0  0  0  0  0  0  0
   11.2870  -17.4405   22.5880 C   0  0  1  0  0  0  0  0  0  0  0  0
   11.4342  -18.3566   23.7895 C   0  0  0  0  0  0  0  0  0  0  0  0
   11.3605  -17.5449   25.0424 C   0  0  0  0  0  0  0  0  0  0  0  0
   11.3518  -18.4502   26.2373 C   0  0  0  0  0  0  0  0  0  0  0  0
   11.1529  -17.6639   27.4885 C   0  0  0  0  0  0  0  0  0  0  0  0
   10.9751  -18.5711   28.6335 N   0  0  0  0  0  0  0  0  0  0  0  0
   11.2795  -18.1826   21.3080 C   0  0  0  0  0  0  0  0  0  0  0  0
   12.3372  -18.3863   20.6484 O   0  0  0  0  0  0  0  0  0  0  0  0
   10.0983  -18.6898   20.7755 O   0  0  0  0  0  0  0  0  0  0  0  0
  1  2  1  0
  3  4  1  0
  3  2  1  0
  4  5  1  0
  5  6  1  1
  7  5  1  0
  7  8  2  0
  9  7  1  0
 10 11  1  1
 10  9  1  0
 12 13  1  0
 12 11  1  0
 13 14  1  0
 14 15  1  0
 16 10  1  0
 17 16  2  0
 18 16  1  0
 19 18  1  0
 19 20  1  1
 21 20  1  0
 21 22  1  0
 23 22  1  0
 23 24  1  0
 25 19  1  0
 25 27  1  0
 26 25  2  0
M  END
$$$$
