MKK.pdb
     RDKit          3D

 27 26  0  0  1  0  0  0  0  0999 V2000
    7.7030  -11.1309   26.9757 C   0  0  0  0  0  0  0  0  0  0  0  0
    6.1990  -11.8584   27.6222 S   0  0  0  0  0  0  0  0  0  0  0  0
    5.6822  -13.3310   26.7323 C   0  0  0  0  0  0  0  0  0  0  0  0
    6.7639  -13.8672   25.8253 C   0  0  0  0  0  0  0  0  0  0  0  0
    6.2766  -15.0097   24.9726 C   0  0  2  0  0  0  0  0  0  0  0  0
    5.8244  -16.1140   25.7578 N   0  0  0  0  0  0  0  0  0  0  0  0
    7.2942  -15.4446   23.9801 C   0  0  0  0  0  0  0  0  0  0  0  0
    7.8306  -16.5852   24.1135 O   0  0  0  0  0  0  0  0  0  0  0  0
    7.7032  -14.6572   22.8879 N   0  0  0  0  0  0  0  0  0  0  0  0
    8.7530  -15.0563   21.9436 C   0  0  1  0  0  0  0  0  0  0  0  0
    8.9045  -14.0221   20.8654 C   0  0  0  0  0  0  0  0  0  0  0  0
    8.3025  -14.5015   19.5852 C   0  0  0  0  0  0  0  0  0  0  0  0
    8.6360  -13.5824   18.4468 C   0  0  0  0  0  0  0  0  0  0  0  0
    7.9845  -14.1036   17.1871 C   0  0  0  0  0  0  0  0  0  0  0  0
    8.2927  -13.1702   16.1278 N   0  0  0  0  0  0  0  0  0  0  0  0
    9.9928  -15.3083   22.7213 C   0  0  0  0  0  0  0  0  0  0  0  0
   10.3883  -14.6097   23.6872 O   0  0  0  0  0  0  0  0  0  0  0  0
   10.8554  -16.4178   22.4015 N   0  0  0  0  0  0  0  0  0  0  0  0
   12.0021  -16.7412   23.2158 C   0  0  1  0  0  0  0  0  0  0  0  0
   11.9273  -18.1456   23.7873 C   0  0  0  0  0  0  0  0  0  0  0  0
   13.2027  -18.4576   24.5014 C   0  0  0  0  0  0  0  0  0  0  0  0
   13.1853  -19.8781   24.9803 C   0  0  0  0  0  0  0  0  0  0  0  0
   14.4260  -20.1873   25.7472 C   0  0  0  0  0  0  0  0  0  0  0  0
   14.3985  -21.5830   26.2132 N   0  0  0  0  0  0  0  0  0  0  0  0
   13.2324  -16.5168   22.4252 C   0  0  0  0  0  0  0  0  0  0  0  0
   13.2490  -16.6364   21.1679 O   0  0  0  0  0  0  0  0  0  0  0  0
   14.4296  -16.1624   23.0395 O   0  0  0  0  0  0  0  0  0  0  0  0
  1  2  1  0
  3  4  1  0
  3  2  1  0
  4  5  1  0
  5  6  1  1
  7  5  1  0
  7  8  2  0
  9  7  1  0
 10 11  1  6
 10  9  1  0
 12 13  1  0
 12 11  1  0
 13 14  1  0
 14 15  1  0
 16 10  1  0
 17 16  2  0
 18 16  1  0
 19 18  1  0
 19 20  1  6
 21 20  1  0
 21 22  1  0
 23 22  1  0
 23 24  1  0
 25 19  1  0
 25 27  1  0
 26 25  2  0
M  END
$$$$
