MKK.pdb
     RDKit          3D

 27 26  0  0  1  0  0  0  0  0999 V2000
    6.0865  -11.4849   28.3820 C   0  0  0  0  0  0  0  0  0  0  0  0
    6.4416  -11.1811   26.6525 S   0  0  0  0  0  0  0  0  0  0  0  0
    5.5820  -12.3024   25.5429 C   0  0  0  0  0  0  0  0  0  0  0  0
    5.7785  -13.7515   25.9197 C   0  0  0  0  0  0  0  0  0  0  0  0
    7.2118  -14.1896   25.7665 C   0  0  2  0  0  0  0  0  0  0  0  0
    8.1153  -13.0833   25.7510 N   0  0  0  0  0  0  0  0  0  0  0  0
    7.4110  -15.0550   24.5743 C   0  0  0  0  0  0  0  0  0  0  0  0
    6.9769  -16.2455   24.6031 O   0  0  0  0  0  0  0  0  0  0  0  0
    8.0602  -14.6274   23.4013 N   0  0  0  0  0  0  0  0  0  0  0  0
    8.5152  -15.5376   22.3440 C   0  0  1  0  0  0  0  0  0  0  0  0
    8.5167  -14.8350   21.0168 C   0  0  0  0  0  0  0  0  0  0  0  0
    9.0143  -15.7422   19.9395 C   0  0  0  0  0  0  0  0  0  0  0  0
    8.0104  -16.8102   19.6178 C   0  0  0  0  0  0  0  0  0  0  0  0
    8.5475  -17.6677   18.4956 C   0  0  0  0  0  0  0  0  0  0  0  0
    7.5674  -18.6978   18.2370 N   0  0  0  0  0  0  0  0  0  0  0  0
    9.8390  -16.0770   22.7466 C   0  0  0  0  0  0  0  0  0  0  0  0
   10.7898  -15.3872   23.1911 O   0  0  0  0  0  0  0  0  0  0  0  0
   10.1261  -17.4860   22.6476 N   0  0  0  0  0  0  0  0  0  0  0  0
   11.3322  -18.0510   23.2029 C   0  0  1  0  0  0  0  0  0  0  0  0
   11.0512  -19.2367   24.1085 C   0  0  0  0  0  0  0  0  0  0  0  0
   12.3448  -19.8600   24.5231 C   0  0  0  0  0  0  0  0  0  0  0  0
   12.0806  -21.0975   25.3271 C   0  0  0  0  0  0  0  0  0  0  0  0
   13.3619  -21.7123   25.7781 C   0  0  0  0  0  0  0  0  0  0  0  0
   13.0903  -22.8620   26.6557 N   0  0  0  0  0  0  0  0  0  0  0  0
   12.2579  -18.3888   22.0992 C   0  0  0  0  0  0  0  0  0  0  0  0
   13.5090  -18.2577   22.2136 O   0  0  0  0  0  0  0  0  0  0  0  0
   11.7841  -18.8680   20.8819 O   0  0  0  0  0  0  0  0  0  0  0  0
  1  2  1  0
  3  4  1  0
  3  2  1  0
  4  5  1  0
  5  6  1  6
  7  5  1  0
  7  8  2  0
  9  7  1  0
 10 11  1  6
 10  9  1  0
 12 13  1  0
 12 11  1  0
 13 14  1  0
 14 15  1  0
 16 10  1  0
 17 16  2  0
 18 16  1  0
 19 18  1  0
 19 20  1  6
 21 20  1  0
 21 22  1  0
 23 22  1  0
 23 24  1  0
 25 19  1  0
 25 27  1  0
 26 25  2  0
M  END
$$$$
