MKK.pdb
     RDKit          3D

 27 26  0  0  1  0  0  0  0  0999 V2000
    9.0813  -11.3920   20.4306 C   0  0  0  0  0  0  0  0  0  0  0  0
    7.7105  -11.8359   19.3661 S   0  0  0  0  0  0  0  0  0  0  0  0
    7.7490  -13.5521   18.8362 C   0  0  0  0  0  0  0  0  0  0  0  0
    7.9670  -14.5068   19.9857 C   0  0  0  0  0  0  0  0  0  0  0  0
    8.1534  -15.9268   19.5181 C   0  0  2  0  0  0  0  0  0  0  0  0
    7.0279  -16.4033   18.7788 N   0  0  0  0  0  0  0  0  0  0  0  0
    8.4832  -16.8486   20.6367 C   0  0  0  0  0  0  0  0  0  0  0  0
    7.5702  -17.1678   21.4559 O   0  0  0  0  0  0  0  0  0  0  0  0
    9.7634  -17.3950   20.8439 N   0  0  0  0  0  0  0  0  0  0  0  0
   10.0932  -18.3007   21.9503 C   0  0  1  0  0  0  0  0  0  0  0  0
   10.8846  -19.4730   21.4458 C   0  0  0  0  0  0  0  0  0  0  0  0
   10.0008  -20.4339   20.7201 C   0  0  0  0  0  0  0  0  0  0  0  0
   10.7980  -21.5308   20.0773 C   0  0  0  0  0  0  0  0  0  0  0  0
    9.8701  -22.3980   19.2587 C   0  0  0  0  0  0  0  0  0  0  0  0
   10.6728  -23.4431   18.6654 N   0  0  0  0  0  0  0  0  0  0  0  0
   10.7854  -17.5068   22.9973 C   0  0  0  0  0  0  0  0  0  0  0  0
   11.8770  -16.9065   22.8381 O   0  0  0  0  0  0  0  0  0  0  0  0
   10.2225  -17.3707   24.3172 N   0  0  0  0  0  0  0  0  0  0  0  0
   10.9189  -16.6645   25.3653 C   0  0  1  0  0  0  0  0  0  0  0  0
    9.9704  -16.0737   26.3929 C   0  0  0  0  0  0  0  0  0  0  0  0
   10.7610  -15.3748   27.4515 C   0  0  0  0  0  0  0  0  0  0  0  0
    9.8390  -14.8278   28.4995 C   0  0  0  0  0  0  0  0  0  0  0  0
   10.6015  -14.0319   29.5038 C   0  0  0  0  0  0  0  0  0  0  0  0
    9.6804  -13.4480   30.4919 N   0  0  0  0  0  0  0  0  0  0  0  0
   11.9194  -17.5695   25.9730 C   0  0  0  0  0  0  0  0  0  0  0  0
   11.6657  -18.7847   26.2060 O   0  0  0  0  0  0  0  0  0  0  0  0
   13.1893  -17.1149   26.3149 O   0  0  0  0  0  0  0  0  0  0  0  0
  1  2  1  0
  3  4  1  0
  3  2  1  0
  4  5  1  0
  5  6  1  1
  7  5  1  0
  7  8  2  0
  9  7  1  0
 10 11  1  6
 10  9  1  0
 12 13  1  0
 12 11  1  0
 13 14  1  0
 14 15  1  0
 16 10  1  0
 17 16  2  0
 18 16  1  0
 19 18  1  0
 19 20  1  1
 21 20  1  0
 21 22  1  0
 23 22  1  0
 23 24  1  0
 25 19  1  0
 25 27  1  0
 26 25  2  0
M  END
$$$$
