MGT.pdb
     RDKit          3D

 20 19  0  0  1  0  0  0  0  0999 V2000
    6.5984  -11.2308   28.0183 C   0  0  0  0  0  0  0  0  0  0  0  0
    6.1499  -11.7690   26.3515 S   0  0  0  0  0  0  0  0  0  0  0  0
    6.7846  -13.4418   26.1037 C   0  0  0  0  0  0  0  0  0  0  0  0
    6.3796  -13.9535   24.7612 C   0  0  0  0  0  0  0  0  0  0  0  0
    7.0499  -15.2303   24.3568 C   0  0  2  0  0  0  0  0  0  0  0  0
    7.8130  -15.7465   25.4425 N   0  0  0  0  0  0  0  0  0  0  0  0
    7.8774  -14.9388   23.1528 C   0  0  0  0  0  0  0  0  0  0  0  0
    7.3116  -14.7250   22.0522 O   0  0  0  0  0  0  0  0  0  0  0  0
    9.2918  -14.8892   23.1835 N   0  0  0  0  0  0  0  0  0  0  0  0
   10.1837  -15.9316   22.8009 C   0  0  0  0  0  0  0  0  0  0  0  0
   10.8998  -16.5623   23.9074 C   0  0  0  0  0  0  0  0  0  0  0  0
   10.5103  -16.4412   25.0868 O   0  0  0  0  0  0  0  0  0  0  0  0
   11.4569  -21.0706   23.5888 C   0  0  0  0  0  0  0  0  0  0  0  0
   11.2209  -19.6046   23.2518 C   0  0  1  0  0  0  0  0  0  0  0  0
    9.9367  -19.2993   23.7134 O   0  0  0  0  0  0  0  0  0  0  0  0
   12.2175  -18.7213   23.9535 C   0  0  2  0  0  0  0  0  0  0  0  0
   12.0649  -17.3331   23.6675 N   0  0  0  0  0  0  0  0  0  0  0  0
   13.6096  -19.1550   23.7358 C   0  0  0  0  0  0  0  0  0  0  0  0
   14.3481  -19.6877   24.7659 O   0  0  0  0  0  0  0  0  0  0  0  0
   14.1214  -19.0374   22.6070 O   0  0  0  0  0  0  0  0  0  0  0  0
  2  1  1  0
  3  2  1  0
  4  3  1  0
  5  4  1  0
  5  6  1  1
  7  5  1  0
  7  8  2  0
  9  7  1  0
 10  9  1  0
 10 11  1  0
 11 17  1  0
 11 12  2  0
 14 13  1  1
 15 14  1  0
 16 14  1  0
 16 17  1  6
 18 16  1  0
 18 19  1  0
 20 18  2  0
M  END
$$$$
