MGT.pdb
     RDKit          3D

 20 19  0  0  1  0  0  0  0  0999 V2000
    5.6247  -11.3949   27.2565 C   0  0  0  0  0  0  0  0  0  0  0  0
    6.2992  -11.9796   25.6842 S   0  0  0  0  0  0  0  0  0  0  0  0
    5.9656  -13.7493   25.5450 C   0  0  0  0  0  0  0  0  0  0  0  0
    6.5672  -14.2904   24.2906 C   0  0  0  0  0  0  0  0  0  0  0  0
    7.2880  -15.5922   24.4608 C   0  0  2  0  0  0  0  0  0  0  0  0
    7.6128  -15.7951   25.8322 N   0  0  0  0  0  0  0  0  0  0  0  0
    8.4884  -15.5569   23.5792 C   0  0  0  0  0  0  0  0  0  0  0  0
    8.3770  -15.8835   22.3717 O   0  0  0  0  0  0  0  0  0  0  0  0
    9.7700  -15.1682   24.0378 N   0  0  0  0  0  0  0  0  0  0  0  0
   10.9794  -15.9071   23.8964 C   0  0  0  0  0  0  0  0  0  0  0  0
   11.5293  -16.4274   25.1462 C   0  0  0  0  0  0  0  0  0  0  0  0
   12.7005  -16.8529   25.2137 O   0  0  0  0  0  0  0  0  0  0  0  0
   11.4682  -14.0997   27.9486 C   0  0  0  0  0  0  0  0  0  0  0  0
   10.9011  -15.3884   28.5283 C   0  0  1  0  0  0  0  0  0  0  0  0
    9.5127  -15.2247   28.5602 O   0  0  0  0  0  0  0  0  0  0  0  0
   11.2363  -16.5677   27.6551 C   0  0  2  0  0  0  0  0  0  0  0  0
   10.7397  -16.4630   26.3229 N   0  0  0  0  0  0  0  0  0  0  0  0
   10.8458  -17.8520   28.2644 C   0  0  0  0  0  0  0  0  0  0  0  0
    9.9104  -18.6594   27.6615 O   0  0  0  0  0  0  0  0  0  0  0  0
   11.3690  -18.2089   29.3363 O   0  0  0  0  0  0  0  0  0  0  0  0
  2  1  1  0
  3  2  1  0
  4  3  1  0
  5  4  1  0
  5  6  1  1
  7  5  1  0
  7  8  2  0
  9  7  1  0
 10  9  1  0
 10 11  1  0
 11 17  1  0
 11 12  2  0
 14 13  1  6
 15 14  1  0
 16 14  1  0
 16 17  1  6
 18 16  1  0
 18 19  1  0
 20 18  2  0
M  END
$$$$
