MGT.pdb
     RDKit          3D

 20 19  0  0  1  0  0  0  0  0999 V2000
    6.1231  -11.3746   26.0041 C   0  0  0  0  0  0  0  0  0  0  0  0
    7.4649  -12.3010   26.7856 S   0  0  0  0  0  0  0  0  0  0  0  0
    6.8726  -13.9702   27.1400 C   0  0  0  0  0  0  0  0  0  0  0  0
    6.7111  -14.7403   25.8716 C   0  0  0  0  0  0  0  0  0  0  0  0
    7.5359  -15.9881   25.7953 C   0  0  2  0  0  0  0  0  0  0  0  0
    8.8829  -15.7065   26.1611 N   0  0  0  0  0  0  0  0  0  0  0  0
    7.4103  -16.5228   24.4105 C   0  0  0  0  0  0  0  0  0  0  0  0
    8.4260  -16.9812   23.8315 O   0  0  0  0  0  0  0  0  0  0  0  0
    6.1859  -16.5422   23.7002 N   0  0  0  0  0  0  0  0  0  0  0  0
    5.9481  -17.1630   22.4406 C   0  0  0  0  0  0  0  0  0  0  0  0
    6.8431  -16.7351   21.3678 C   0  0  0  0  0  0  0  0  0  0  0  0
    6.7479  -17.2049   20.2156 O   0  0  0  0  0  0  0  0  0  0  0  0
    6.7594  -13.5976   20.1245 C   0  0  0  0  0  0  0  0  0  0  0  0
    8.2649  -13.7194   20.3165 C   0  0  1  0  0  0  0  0  0  0  0  0
    8.5851  -12.9151   21.4147 O   0  0  0  0  0  0  0  0  0  0  0  0
    8.6584  -15.1407   20.6177 C   0  0  2  0  0  0  0  0  0  0  0  0
    7.8509  -15.7683   21.6108 N   0  0  0  0  0  0  0  0  0  0  0  0
   10.0906  -15.2750   20.9400 C   0  0  0  0  0  0  0  0  0  0  0  0
   11.0519  -14.8160   20.0707 O   0  0  0  0  0  0  0  0  0  0  0  0
   10.4329  -15.8097   22.0110 O   0  0  0  0  0  0  0  0  0  0  0  0
  2  1  1  0
  3  2  1  0
  4  3  1  0
  5  4  1  0
  5  6  1  6
  7  5  1  0
  7  8  2  0
  9  7  1  0
 10  9  1  0
 10 11  1  0
 11 17  1  0
 11 12  2  0
 14 13  1  1
 15 14  1  0
 16 14  1  0
 16 17  1  1
 18 16  1  0
 18 19  1  0
 20 18  2  0
M  END
$$$$
