MGT.pdb
     RDKit          3D

 20 19  0  0  1  0  0  0  0  0999 V2000
    6.6557  -11.7691   24.7203 C   0  0  0  0  0  0  0  0  0  0  0  0
    5.5346  -12.5427   25.9093 S   0  0  0  0  0  0  0  0  0  0  0  0
    5.7709  -14.3318   25.8333 C   0  0  0  0  0  0  0  0  0  0  0  0
    6.5074  -14.7023   24.5889 C   0  0  0  0  0  0  0  0  0  0  0  0
    6.7755  -16.1684   24.4411 C   0  0  2  0  0  0  0  0  0  0  0  0
    6.2388  -16.8777   25.5530 N   0  0  0  0  0  0  0  0  0  0  0  0
    8.2483  -16.3411   24.2986 C   0  0  0  0  0  0  0  0  0  0  0  0
    8.7556  -17.4773   24.4684 O   0  0  0  0  0  0  0  0  0  0  0  0
    9.1217  -15.2746   23.9767 N   0  0  0  0  0  0  0  0  0  0  0  0
   10.5204  -15.3722   23.7267 C   0  0  0  0  0  0  0  0  0  0  0  0
   11.3256  -15.7468   24.8870 C   0  0  0  0  0  0  0  0  0  0  0  0
   12.5468  -15.9812   24.7824 O   0  0  0  0  0  0  0  0  0  0  0  0
   10.8719  -13.7177   28.1761 C   0  0  0  0  0  0  0  0  0  0  0  0
   10.8931  -15.1973   28.5346 C   0  0  1  0  0  0  0  0  0  0  0  0
    9.5631  -15.5627   28.7646 O   0  0  0  0  0  0  0  0  0  0  0  0
   11.4392  -16.0210   27.3993 C   0  0  2  0  0  0  0  0  0  0  0  0
   10.7349  -15.8553   26.1710 N   0  0  0  0  0  0  0  0  0  0  0  0
   11.5666  -17.4482   27.7461 C   0  0  0  0  0  0  0  0  0  0  0  0
   12.3301  -17.8445   28.8186 O   0  0  0  0  0  0  0  0  0  0  0  0
   10.9764  -18.3032   27.0602 O   0  0  0  0  0  0  0  0  0  0  0  0
  2  1  1  0
  3  2  1  0
  4  3  1  0
  5  4  1  0
  5  6  1  1
  7  5  1  0
  7  8  2  0
  9  7  1  0
 10  9  1  0
 10 11  1  0
 11 17  1  0
 11 12  2  0
 14 13  1  6
 15 14  1  0
 16 14  1  0
 16 17  1  6
 18 16  1  0
 18 19  1  0
 20 18  2  0
M  END
$$$$
