MGT.pdb
     RDKit          3D

 20 19  0  0  1  0  0  0  0  0999 V2000
    7.8446  -11.1148   20.7072 C   0  0  0  0  0  0  0  0  0  0  0  0
    7.4736  -12.4838   19.5858 S   0  0  0  0  0  0  0  0  0  0  0  0
    8.2442  -13.9804   20.2405 C   0  0  0  0  0  0  0  0  0  0  0  0
    7.9985  -14.0870   21.7090 C   0  0  0  0  0  0  0  0  0  0  0  0
    8.5558  -15.3246   22.3421 C   0  0  2  0  0  0  0  0  0  0  0  0
    8.5556  -16.3957   21.4039 N   0  0  0  0  0  0  0  0  0  0  0  0
    7.7381  -15.6139   23.5533 C   0  0  0  0  0  0  0  0  0  0  0  0
    7.7286  -14.7914   24.5023 O   0  0  0  0  0  0  0  0  0  0  0  0
    6.9579  -16.7867   23.6942 N   0  0  0  0  0  0  0  0  0  0  0  0
    6.1641  -17.1447   24.8213 C   0  0  0  0  0  0  0  0  0  0  0  0
    6.8695  -17.9043   25.8510 C   0  0  0  0  0  0  0  0  0  0  0  0
    6.2897  -18.2884   26.8871 O   0  0  0  0  0  0  0  0  0  0  0  0
    9.0942  -20.9495   25.0360 C   0  0  0  0  0  0  0  0  0  0  0  0
    9.9049  -20.0216   25.9304 C   0  0  1  0  0  0  0  0  0  0  0  0
   10.8034  -19.3559   25.0907 O   0  0  0  0  0  0  0  0  0  0  0  0
    9.0183  -19.0078   26.6027 C   0  0  2  0  0  0  0  0  0  0  0  0
    8.2416  -18.2258   25.6985 N   0  0  0  0  0  0  0  0  0  0  0  0
    9.7564  -18.1471   27.5448 C   0  0  0  0  0  0  0  0  0  0  0  0
   10.3655  -18.6825   28.6551 O   0  0  0  0  0  0  0  0  0  0  0  0
    9.8287  -16.9225   27.3324 O   0  0  0  0  0  0  0  0  0  0  0  0
  2  1  1  0
  3  2  1  0
  4  3  1  0
  5  4  1  0
  5  6  1  6
  7  5  1  0
  7  8  2  0
  9  7  1  0
 10  9  1  0
 10 11  1  0
 11 17  1  0
 11 12  2  0
 14 13  1  6
 15 14  1  0
 16 14  1  0
 16 17  1  6
 18 16  1  0
 18 19  1  0
 20 18  2  0
M  END
$$$$
