MGT.pdb
     RDKit          3D

 20 19  0  0  1  0  0  0  0  0999 V2000
    6.4787  -11.9682   27.6431 C   0  0  0  0  0  0  0  0  0  0  0  0
    5.9157  -11.7917   25.9340 S   0  0  0  0  0  0  0  0  0  0  0  0
    5.9499  -13.4200   25.1527 C   0  0  0  0  0  0  0  0  0  0  0  0
    7.2388  -13.6162   24.4259 C   0  0  0  0  0  0  0  0  0  0  0  0
    7.3794  -14.9523   23.7639 C   0  0  2  0  0  0  0  0  0  0  0  0
    6.6710  -15.9412   24.5040 N   0  0  0  0  0  0  0  0  0  0  0  0
    8.8360  -15.2443   23.6515 C   0  0  0  0  0  0  0  0  0  0  0  0
    9.5900  -14.4138   23.0869 O   0  0  0  0  0  0  0  0  0  0  0  0
    9.4256  -16.4283   24.1559 N   0  0  0  0  0  0  0  0  0  0  0  0
   10.8018  -16.7871   24.0800 C   0  0  0  0  0  0  0  0  0  0  0  0
   11.5158  -16.7502   25.3543 C   0  0  0  0  0  0  0  0  0  0  0  0
   12.7530  -16.9036   25.4108 O   0  0  0  0  0  0  0  0  0  0  0  0
   11.1828  -13.9457   27.8941 C   0  0  0  0  0  0  0  0  0  0  0  0
   10.9349  -15.2417   28.6539 C   0  0  1  0  0  0  0  0  0  0  0  0
    9.5508  -15.3315   28.8321 O   0  0  0  0  0  0  0  0  0  0  0  0
   11.4061  -16.4316   27.8615 C   0  0  2  0  0  0  0  0  0  0  0  0
   10.8156  -16.5384   26.5684 N   0  0  0  0  0  0  0  0  0  0  0  0
   11.2745  -17.6961   28.6077 C   0  0  0  0  0  0  0  0  0  0  0  0
   11.8976  -17.8629   29.8219 O   0  0  0  0  0  0  0  0  0  0  0  0
   10.5917  -18.6226   28.1330 O   0  0  0  0  0  0  0  0  0  0  0  0
  2  1  1  0
  3  2  1  0
  4  3  1  0
  5  4  1  0
  5  6  1  1
  7  5  1  0
  7  8  2  0
  9  7  1  0
 10  9  1  0
 10 11  1  0
 11 17  1  0
 11 12  2  0
 14 13  1  6
 15 14  1  0
 16 14  1  0
 16 17  1  6
 18 16  1  0
 18 19  1  0
 20 18  2  0
M  END
$$$$
