MGT.pdb
     RDKit          3D

 20 19  0  0  1  0  0  0  0  0999 V2000
    5.6697  -10.9886   26.4186 C   0  0  0  0  0  0  0  0  0  0  0  0
    7.3423  -11.6507   26.6015 S   0  0  0  0  0  0  0  0  0  0  0  0
    7.2175  -13.3794   27.1099 C   0  0  0  0  0  0  0  0  0  0  0  0
    6.7577  -14.2214   25.9663 C   0  0  0  0  0  0  0  0  0  0  0  0
    7.8006  -15.1473   25.4202 C   0  0  2  0  0  0  0  0  0  0  0  0
    8.9840  -14.4199   25.1072 N   0  0  0  0  0  0  0  0  0  0  0  0
    7.2122  -15.8350   24.2369 C   0  0  0  0  0  0  0  0  0  0  0  0
    6.2345  -16.6072   24.3950 O   0  0  0  0  0  0  0  0  0  0  0  0
    7.7047  -15.6616   22.9211 N   0  0  0  0  0  0  0  0  0  0  0  0
    7.3889  -16.4631   21.7869 C   0  0  0  0  0  0  0  0  0  0  0  0
    8.3376  -17.5404   21.5147 C   0  0  0  0  0  0  0  0  0  0  0  0
    8.1629  -18.3373   20.5703 O   0  0  0  0  0  0  0  0  0  0  0  0
   11.3788  -17.3452   20.1338 C   0  0  0  0  0  0  0  0  0  0  0  0
   11.7532  -18.0541   21.4282 C   0  0  1  0  0  0  0  0  0  0  0  0
   12.2985  -17.0761   22.2658 O   0  0  0  0  0  0  0  0  0  0  0  0
   10.5386  -18.6465   22.0911 C   0  0  2  0  0  0  0  0  0  0  0  0
    9.4894  -17.7098   22.3234 N   0  0  0  0  0  0  0  0  0  0  0  0
   10.8700  -19.3839   23.3238 C   0  0  0  0  0  0  0  0  0  0  0  0
   11.6953  -20.4829   23.2841 O   0  0  0  0  0  0  0  0  0  0  0  0
   10.3974  -19.0072   24.4123 O   0  0  0  0  0  0  0  0  0  0  0  0
  2  1  1  0
  3  2  1  0
  4  3  1  0
  5  4  1  0
  5  6  1  6
  7  5  1  0
  7  8  2  0
  9  7  1  0
 10  9  1  0
 10 11  1  0
 11 17  1  0
 11 12  2  0
 14 13  1  6
 15 14  1  0
 16 14  1  0
 16 17  1  1
 18 16  1  0
 18 19  1  0
 20 18  2  0
M  END
$$$$
