MGT.pdb
     RDKit          3D

 20 19  0  0  1  0  0  0  0  0999 V2000
    5.6094  -11.0032   27.1650 C   0  0  0  0  0  0  0  0  0  0  0  0
    7.0038  -12.1373   27.3612 S   0  0  0  0  0  0  0  0  0  0  0  0
    6.4814  -13.7801   26.8220 C   0  0  0  0  0  0  0  0  0  0  0  0
    7.5979  -14.7568   26.9882 C   0  0  0  0  0  0  0  0  0  0  0  0
    8.2349  -15.1935   25.7050 C   0  0  2  0  0  0  0  0  0  0  0  0
    8.2268  -14.1229   24.7663 N   0  0  0  0  0  0  0  0  0  0  0  0
    7.4938  -16.3929   25.2237 C   0  0  0  0  0  0  0  0  0  0  0  0
    7.7653  -17.5204   25.7054 O   0  0  0  0  0  0  0  0  0  0  0  0
    6.4824  -16.3283   24.2354 N   0  0  0  0  0  0  0  0  0  0  0  0
    6.2580  -17.2708   23.1914 C   0  0  0  0  0  0  0  0  0  0  0  0
    6.9852  -16.9988   21.9536 C   0  0  0  0  0  0  0  0  0  0  0  0
    6.7095  -17.5959   20.8931 O   0  0  0  0  0  0  0  0  0  0  0  0
    8.5638  -13.5027   19.1677 C   0  0  0  0  0  0  0  0  0  0  0  0
    7.9751  -14.0784   20.4484 C   0  0  1  0  0  0  0  0  0  0  0  0
    6.6035  -14.2231   20.2174 O   0  0  0  0  0  0  0  0  0  0  0  0
    8.5661  -15.4281   20.7561 C   0  0  2  0  0  0  0  0  0  0  0  0
    8.0313  -16.0427   21.9260 N   0  0  0  0  0  0  0  0  0  0  0  0
   10.0394  -15.4041   20.7992 C   0  0  0  0  0  0  0  0  0  0  0  0
   10.7673  -15.0030   19.7039 O   0  0  0  0  0  0  0  0  0  0  0  0
   10.6304  -15.7508   21.8387 O   0  0  0  0  0  0  0  0  0  0  0  0
  2  1  1  0
  3  2  1  0
  4  3  1  0
  5  4  1  0
  5  6  1  6
  7  5  1  0
  7  8  2  0
  9  7  1  0
 10  9  1  0
 10 11  1  0
 11 17  1  0
 11 12  2  0
 14 13  1  6
 15 14  1  0
 16 14  1  0
 16 17  1  1
 18 16  1  0
 18 19  1  0
 20 18  2  0
M  END
$$$$
