MGT.pdb
     RDKit          3D

 20 19  0  0  1  0  0  0  0  0999 V2000
    5.3431  -11.0686   26.6229 C   0  0  0  0  0  0  0  0  0  0  0  0
    6.6453  -11.9934   25.7754 S   0  0  0  0  0  0  0  0  0  0  0  0
    5.8677  -13.1264   24.6032 C   0  0  0  0  0  0  0  0  0  0  0  0
    6.9099  -13.8841   23.8496 C   0  0  0  0  0  0  0  0  0  0  0  0
    7.2929  -15.1931   24.4685 C   0  0  2  0  0  0  0  0  0  0  0  0
    7.4880  -15.0324   25.8698 N   0  0  0  0  0  0  0  0  0  0  0  0
    8.5124  -15.6802   23.7649 C   0  0  0  0  0  0  0  0  0  0  0  0
    8.3968  -16.5245   22.8425 O   0  0  0  0  0  0  0  0  0  0  0  0
    9.8170  -15.2344   24.0861 N   0  0  0  0  0  0  0  0  0  0  0  0
   11.0283  -15.9611   23.9040 C   0  0  0  0  0  0  0  0  0  0  0  0
   11.5421  -16.6076   25.1094 C   0  0  0  0  0  0  0  0  0  0  0  0
   12.6706  -17.1398   25.1309 O   0  0  0  0  0  0  0  0  0  0  0  0
   11.0214  -14.2763   28.0659 C   0  0  0  0  0  0  0  0  0  0  0  0
   10.7083  -15.6837   28.5553 C   0  0  1  0  0  0  0  0  0  0  0  0
    9.3142  -15.7935   28.5632 O   0  0  0  0  0  0  0  0  0  0  0  0
   11.2769  -16.7194   27.6228 C   0  0  2  0  0  0  0  0  0  0  0  0
   10.7650  -16.6478   26.2943 N   0  0  0  0  0  0  0  0  0  0  0  0
   11.1621  -18.0877   28.1594 C   0  0  0  0  0  0  0  0  0  0  0  0
   11.7277  -18.4173   29.3685 O   0  0  0  0  0  0  0  0  0  0  0  0
   10.5461  -18.9535   27.5106 O   0  0  0  0  0  0  0  0  0  0  0  0
  2  1  1  0
  3  2  1  0
  4  3  1  0
  5  4  1  0
  5  6  1  1
  7  5  1  0
  7  8  2  0
  9  7  1  0
 10  9  1  0
 10 11  1  0
 11 17  1  0
 11 12  2  0
 14 13  1  6
 15 14  1  0
 16 14  1  0
 16 17  1  6
 18 16  1  0
 18 19  1  0
 20 18  2  0
M  END
$$$$
