MGT.pdb
     RDKit          3D

 20 19  0  0  1  0  0  0  0  0999 V2000
    5.5426  -11.4826   27.3427 C   0  0  0  0  0  0  0  0  0  0  0  0
    7.0071  -12.2274   28.0974 S   0  0  0  0  0  0  0  0  0  0  0  0
    7.9117  -13.1262   26.8181 C   0  0  0  0  0  0  0  0  0  0  0  0
    7.1492  -14.3409   26.4042 C   0  0  0  0  0  0  0  0  0  0  0  0
    7.8044  -15.1452   25.3240 C   0  0  2  0  0  0  0  0  0  0  0  0
    8.1724  -14.2988   24.2397 N   0  0  0  0  0  0  0  0  0  0  0  0
    6.8509  -16.2181   24.9250 C   0  0  0  0  0  0  0  0  0  0  0  0
    6.5850  -17.1400   25.7352 O   0  0  0  0  0  0  0  0  0  0  0  0
    6.2177  -16.2546   23.6594 N   0  0  0  0  0  0  0  0  0  0  0  0
    6.2965  -17.3077   22.7038 C   0  0  0  0  0  0  0  0  0  0  0  0
    6.9618  -16.9513   21.4527 C   0  0  0  0  0  0  0  0  0  0  0  0
    7.0531  -17.7645   20.5105 O   0  0  0  0  0  0  0  0  0  0  0  0
    8.1640  -12.7857   20.7402 C   0  0  0  0  0  0  0  0  0  0  0  0
    7.7891  -13.8118   19.6797 C   0  0  1  0  0  0  0  0  0  0  0  0
    8.5023  -13.4625   18.5286 O   0  0  0  0  0  0  0  0  0  0  0  0
    8.1906  -15.1991   20.1037 C   0  0  2  0  0  0  0  0  0  0  0  0
    7.5257  -15.6628   21.2763 N   0  0  0  0  0  0  0  0  0  0  0  0
    9.6515  -15.3513   20.2304 C   0  0  0  0  0  0  0  0  0  0  0  0
   10.4665  -15.2455   19.1282 O   0  0  0  0  0  0  0  0  0  0  0  0
   10.1520  -15.5780   21.3476 O   0  0  0  0  0  0  0  0  0  0  0  0
  2  1  1  0
  3  2  1  0
  4  3  1  0
  5  4  1  0
  5  6  1  6
  7  5  1  0
  7  8  2  0
  9  7  1  0
 10  9  1  0
 10 11  1  0
 11 17  1  0
 11 12  2  0
 14 13  1  1
 15 14  1  0
 16 14  1  0
 16 17  1  1
 18 16  1  0
 18 19  1  0
 20 18  2  0
M  END
$$$$
