MGT.pdb
     RDKit          3D

 20 19  0  0  1  0  0  0  0  0999 V2000
    6.0171  -10.9569   25.8931 C   0  0  0  0  0  0  0  0  0  0  0  0
    5.5078  -12.5625   26.5502 S   0  0  0  0  0  0  0  0  0  0  0  0
    5.7565  -13.8078   25.2657 C   0  0  0  0  0  0  0  0  0  0  0  0
    7.1758  -13.7958   24.8036 C   0  0  0  0  0  0  0  0  0  0  0  0
    7.4882  -14.7988   23.7362 C   0  0  2  0  0  0  0  0  0  0  0  0
    6.7217  -15.9817   23.9380 N   0  0  0  0  0  0  0  0  0  0  0  0
    8.9569  -15.0460   23.7713 C   0  0  0  0  0  0  0  0  0  0  0  0
    9.7484  -14.0869   23.5961 O   0  0  0  0  0  0  0  0  0  0  0  0
    9.5175  -16.3264   23.9954 N   0  0  0  0  0  0  0  0  0  0  0  0
   10.9026  -16.6581   23.9805 C   0  0  0  0  0  0  0  0  0  0  0  0
   11.5503  -16.6436   25.2901 C   0  0  0  0  0  0  0  0  0  0  0  0
   12.7626  -16.9098   25.4187 O   0  0  0  0  0  0  0  0  0  0  0  0
   10.9037  -13.8999   28.1207 C   0  0  0  0  0  0  0  0  0  0  0  0
   10.7036  -15.2984   28.6888 C   0  0  1  0  0  0  0  0  0  0  0  0
    9.3214  -15.5024   28.7470 O   0  0  0  0  0  0  0  0  0  0  0  0
   11.3160  -16.3395   27.7907 C   0  0  2  0  0  0  0  0  0  0  0  0
   10.8117  -16.3251   26.4574 N   0  0  0  0  0  0  0  0  0  0  0  0
   11.2465  -17.6949   28.3664 C   0  0  0  0  0  0  0  0  0  0  0  0
   11.8540  -17.9798   29.5665 O   0  0  0  0  0  0  0  0  0  0  0  0
   10.6310  -18.5906   27.7591 O   0  0  0  0  0  0  0  0  0  0  0  0
  2  1  1  0
  3  2  1  0
  4  3  1  0
  5  4  1  0
  5  6  1  1
  7  5  1  0
  7  8  2  0
  9  7  1  0
 10  9  1  0
 10 11  1  0
 11 17  1  0
 11 12  2  0
 14 13  1  6
 15 14  1  0
 16 14  1  0
 16 17  1  6
 18 16  1  0
 18 19  1  0
 20 18  2  0
M  END
$$$$
