MGT.pdb
     RDKit          3D

 20 19  0  0  1  0  0  0  0  0999 V2000
    6.2794  -11.0333   28.0808 C   0  0  0  0  0  0  0  0  0  0  0  0
    6.0233  -12.4044   26.9304 S   0  0  0  0  0  0  0  0  0  0  0  0
    7.0116  -13.8089   27.4901 C   0  0  0  0  0  0  0  0  0  0  0  0
    6.8292  -14.9682   26.5678 C   0  0  0  0  0  0  0  0  0  0  0  0
    7.7397  -14.9630   25.3786 C   0  0  2  0  0  0  0  0  0  0  0  0
    7.7187  -13.6841   24.7529 N   0  0  0  0  0  0  0  0  0  0  0  0
    7.2976  -16.0597   24.4725 C   0  0  0  0  0  0  0  0  0  0  0  0
    7.4431  -17.2540   24.8324 O   0  0  0  0  0  0  0  0  0  0  0  0
    6.7122  -15.8234   23.2054 N   0  0  0  0  0  0  0  0  0  0  0  0
    6.4390  -16.7990   22.2043 C   0  0  0  0  0  0  0  0  0  0  0  0
    7.1010  -16.5642   20.9231 C   0  0  0  0  0  0  0  0  0  0  0  0
    6.8590  -17.2751   19.9264 O   0  0  0  0  0  0  0  0  0  0  0  0
    7.0082  -13.2238   19.4256 C   0  0  0  0  0  0  0  0  0  0  0  0
    8.4610  -13.6413   19.2428 C   0  0  1  0  0  0  0  0  0  0  0  0
    9.2033  -12.8818   20.1527 O   0  0  0  0  0  0  0  0  0  0  0  0
    8.6474  -15.1018   19.5555 C   0  0  2  0  0  0  0  0  0  0  0  0
    8.0433  -15.5150   20.7788 N   0  0  0  0  0  0  0  0  0  0  0  0
   10.0608  -15.5167   19.4985 C   0  0  0  0  0  0  0  0  0  0  0  0
   10.8038  -15.3232   18.3579 O   0  0  0  0  0  0  0  0  0  0  0  0
   10.5870  -16.0477   20.4940 O   0  0  0  0  0  0  0  0  0  0  0  0
  2  1  1  0
  3  2  1  0
  4  3  1  0
  5  4  1  0
  5  6  1  6
  7  5  1  0
  7  8  2  0
  9  7  1  0
 10  9  1  0
 10 11  1  0
 11 17  1  0
 11 12  2  0
 14 13  1  1
 15 14  1  0
 16 14  1  0
 16 17  1  1
 18 16  1  0
 18 19  1  0
 20 18  2  0
M  END
$$$$
