RPK.pdb
     RDKit          3D

 28 28  0  0  1  0  0  0  0  0999 V2000
   22.6951  -25.9378  -15.4624 N   0  0  0  0  0  0  0  0  0  0  0  0
   21.6390  -25.2869  -14.7630 C   0  0  0  0  0  0  0  0  0  0  0  0
   20.9460  -25.9880  -13.9130 N   0  0  0  0  0  0  0  0  0  0  0  0
   21.3574  -23.9195  -14.9901 N   0  0  0  0  0  0  0  0  0  0  0  0
   22.1010  -23.1677  -15.9578 C   0  0  0  0  0  0  0  0  0  0  0  0
   23.5956  -23.2344  -15.7148 C   0  0  0  0  0  0  0  0  0  0  0  0
   24.2259  -21.8816  -15.6582 C   0  0  0  0  0  0  0  0  0  0  0  0
   24.1624  -21.2729  -14.2702 C   0  0  2  0  0  0  0  0  0  0  0  0
   22.7357  -21.1815  -13.9648 N   0  0  0  0  0  0  0  0  0  0  0  0
   24.7933  -19.8945  -14.2913 C   0  0  0  0  0  0  0  0  0  0  0  0
   24.0111  -19.0100  -14.7241 O   0  0  0  0  0  0  0  0  0  0  0  0
   20.1458  -25.6120  -13.3885 N   0  0  0  0  0  0  0  0  0  0  0  0
   26.1031  -19.7089  -13.8619 C   0  0  0  0  0  0  0  0  0  0  0  0
   26.6251  -20.3115  -12.6144 C   0  0  0  0  0  0  0  0  0  0  0  0
   27.8763  -20.9539  -13.1701 C   0  0  0  0  0  0  0  0  0  0  0  0
   28.2906  -20.0860  -14.3414 C   0  0  2  0  0  0  0  0  0  0  0  0
   27.2136  -18.9808  -14.3339 C   0  0  0  0  0  0  0  0  0  0  0  0
   27.1613  -18.2941  -15.6040 O   0  0  0  0  0  0  0  0  0  0  0  0
   27.7951  -17.2649  -15.8709 N   0  0  0  0  0  0  0  0  0  0  0  0
   26.3156  -18.8441  -16.6265 C   0  0  1  0  0  0  0  0  0  0  0  0
   26.4805  -18.4638  -18.0230 C   0  0  0  0  0  0  0  0  0  0  0  0
   26.2950  -19.6471  -18.9486 C   0  0  0  0  0  0  0  0  0  0  0  0
   26.3473  -19.2645  -20.3899 C   0  0  0  0  0  0  0  0  0  0  0  0
   26.0862  -20.4498  -21.2786 C   0  0  0  0  0  0  0  0  0  0  0  0
   26.1909  -20.0516  -22.7341 N   0  0  0  0  0  0  0  0  0  0  0  0
   25.9358  -21.2208  -23.5768 C   0  0  0  0  0  0  0  0  0  0  0  0
   25.4899  -17.4219  -18.3435 O   0  0  0  0  0  0  0  0  0  0  0  0
   24.1905  -17.4747  -17.8528 O   0  0  0  0  0  0  0  0  0  0  0  0
  2  4  1  0
  2  1  1  0
  3  2  2  0
  5  4  1  0
  6  5  1  0
  7  6  1  0
  8  7  1  0
  8  9  1  6
 10  8  1  0
 11 10  2  0
 12 16  1  0
 12 10  1  0
 13 14  1  0
 13 12  1  0
 15 14  1  0
 15 16  1  0
 17 19  1  0
 16 17  1  6
 18 17  2  0
 20 19  1  0
 20 21  1  6
 22 21  1  0
 23 22  1  0
 23 24  1  0
 24 25  1  0
 26 20  1  0
 27 26  1  0
 28 26  2  0
M  END
$$$$
