RPK.pdb
     RDKit          3D

 28 28  0  0  1  0  0  0  0  0999 V2000
   20.9569  -18.6730  -16.6145 N   0  0  0  0  0  0  0  0  0  0  0  0
   21.6375  -19.4379  -17.6044 C   0  0  0  0  0  0  0  0  0  0  0  0
   20.9271  -20.2087  -18.3761 N   0  0  0  0  0  0  0  0  0  0  0  0
   23.0432  -19.3574  -17.7391 N   0  0  0  0  0  0  0  0  0  0  0  0
   23.8608  -18.9109  -16.6497 C   0  0  0  0  0  0  0  0  0  0  0  0
   24.4798  -20.0632  -15.8838 C   0  0  0  0  0  0  0  0  0  0  0  0
   25.3338  -19.6013  -14.7490 C   0  0  0  0  0  0  0  0  0  0  0  0
   25.9618  -20.7561  -13.9920 C   0  0  2  0  0  0  0  0  0  0  0  0
   26.6055  -21.5731  -15.0192 N   0  0  0  0  0  0  0  0  0  0  0  0
   24.8797  -21.5457  -13.2821 C   0  0  0  0  0  0  0  0  0  0  0  0
   24.2695  -22.3315  -14.0513 O   0  0  0  0  0  0  0  0  0  0  0  0
   21.3204  -20.7358  -19.1663 N   0  0  0  0  0  0  0  0  0  0  0  0
   24.6469  -21.3639  -11.9229 C   0  0  0  0  0  0  0  0  0  0  0  0
   25.7380  -21.1086  -10.9553 C   0  0  0  0  0  0  0  0  0  0  0  0
   25.1659  -19.8855  -10.2745 C   0  0  0  0  0  0  0  0  0  0  0  0
   23.6609  -20.0394  -10.3639 C   0  0  2  0  0  0  0  0  0  0  0  0
   23.5075  -21.3902  -11.0941 C   0  0  0  0  0  0  0  0  0  0  0  0
   22.1855  -21.5309  -11.6596 O   0  0  0  0  0  0  0  0  0  0  0  0
   21.7079  -20.7804  -12.5205 N   0  0  0  0  0  0  0  0  0  0  0  0
   21.3701  -22.6164  -11.1903 C   0  0  1  0  0  0  0  0  0  0  0  0
   20.0409  -22.8495  -11.7389 C   0  0  0  0  0  0  0  0  0  0  0  0
   19.4869  -24.1902  -11.3069 C   0  0  0  0  0  0  0  0  0  0  0  0
   18.1671  -24.4964  -11.9320 C   0  0  0  0  0  0  0  0  0  0  0  0
   17.6008  -25.7870  -11.4062 C   0  0  0  0  0  0  0  0  0  0  0  0
   16.2443  -26.0569  -12.0187 N   0  0  0  0  0  0  0  0  0  0  0  0
   15.6674  -27.2570  -11.4112 C   0  0  0  0  0  0  0  0  0  0  0  0
   19.1495  -21.7714  -11.2777 O   0  0  0  0  0  0  0  0  0  0  0  0
   19.3201  -21.1629  -10.0397 O   0  0  0  0  0  0  0  0  0  0  0  0
  2  4  1  0
  2  1  1  0
  3  2  2  0
  5  4  1  0
  6  5  1  0
  7  6  1  0
  8  7  1  0
  8  9  1  6
 10  8  1  0
 11 10  2  0
 12 16  1  0
 12 10  1  0
 13 14  1  0
 13 12  1  0
 15 14  1  0
 15 16  1  0
 17 19  1  0
 16 17  1  6
 18 17  2  0
 20 19  1  0
 20 21  1  1
 22 21  1  0
 23 22  1  0
 23 24  1  0
 24 25  1  0
 26 20  1  0
 27 26  1  0
 28 26  2  0
M  END
$$$$
