RPK.pdb
     RDKit          3D

 28 28  0  0  1  0  0  0  0  0999 V2000
   23.0360  -27.4601  -15.7541 N   0  0  0  0  0  0  0  0  0  0  0  0
   22.4115  -26.2918  -16.2768 C   0  0  0  0  0  0  0  0  0  0  0  0
   21.1128  -26.2800  -16.3634 N   0  0  0  0  0  0  0  0  0  0  0  0
   23.1856  -25.1815  -16.6876 N   0  0  0  0  0  0  0  0  0  0  0  0
   24.5569  -25.0551  -16.2900 C   0  0  0  0  0  0  0  0  0  0  0  0
   24.7608  -23.9580  -15.2643 C   0  0  0  0  0  0  0  0  0  0  0  0
   25.0215  -22.6290  -15.8938 C   0  0  0  0  0  0  0  0  0  0  0  0
   25.1150  -21.5137  -14.8699 C   0  0  2  0  0  0  0  0  0  0  0  0
   26.2702  -21.8585  -14.0430 N   0  0  0  0  0  0  0  0  0  0  0  0
   23.8501  -21.4844  -14.0347 C   0  0  0  0  0  0  0  0  0  0  0  0
   23.7667  -22.4611  -13.2470 O   0  0  0  0  0  0  0  0  0  0  0  0
   20.5739  -25.4631  -16.6783 N   0  0  0  0  0  0  0  0  0  0  0  0
   22.9283  -20.4534  -14.1821 C   0  0  0  0  0  0  0  0  0  0  0  0
   23.3232  -19.0827  -14.5785 C   0  0  0  0  0  0  0  0  0  0  0  0
   22.3459  -18.8765  -15.7140 C   0  0  0  0  0  0  0  0  0  0  0  0
   21.1338  -19.7152  -15.3619 C   0  0  2  0  0  0  0  0  0  0  0  0
   21.5361  -20.3274  -14.0037 C   0  0  0  0  0  0  0  0  0  0  0  0
   20.7241  -21.4804  -13.6897 O   0  0  0  0  0  0  0  0  0  0  0  0
   20.5959  -22.4685  -14.4244 N   0  0  0  0  0  0  0  0  0  0  0  0
   20.0175  -21.4795  -12.4391 C   0  0  1  0  0  0  0  0  0  0  0  0
   19.1577  -22.5929  -12.0609 C   0  0  0  0  0  0  0  0  0  0  0  0
   19.0339  -22.7157  -10.5573 C   0  0  0  0  0  0  0  0  0  0  0  0
   18.1404  -23.8366  -10.1428 C   0  0  0  0  0  0  0  0  0  0  0  0
   17.9087  -23.8283   -8.6564 C   0  0  0  0  0  0  0  0  0  0  0  0
   18.9981  -24.6023   -7.9478 N   0  0  0  0  0  0  0  0  0  0  0  0
   18.6866  -24.6823   -6.5200 C   0  0  0  0  0  0  0  0  0  0  0  0
   17.8265  -22.3774  -12.6533 O   0  0  0  0  0  0  0  0  0  0  0  0
   17.1153  -23.4139  -13.2465 O   0  0  0  0  0  0  0  0  0  0  0  0
  2  4  1  0
  2  1  1  0
  3  2  2  0
  5  4  1  0
  6  5  1  0
  7  6  1  0
  8  7  1  0
  8  9  1  1
 10  8  1  0
 11 10  2  0
 12 16  1  0
 12 10  1  0
 13 14  1  0
 13 12  1  0
 15 14  1  0
 15 16  1  0
 17 19  1  0
 16 17  1  6
 18 17  2  0
 20 19  1  0
 20 21  1  6
 22 21  1  0
 23 22  1  0
 23 24  1  0
 24 25  1  0
 26 20  1  0
 27 26  1  0
 28 26  2  0
M  END
$$$$
