RPK.pdb
     RDKit          3D

 28 28  0  0  1  0  0  0  0  0999 V2000
   22.2777  -17.2631  -18.1031 N   0  0  0  0  0  0  0  0  0  0  0  0
   21.0472  -16.8017  -17.5543 C   0  0  0  0  0  0  0  0  0  0  0  0
   20.5741  -15.6676  -17.9836 N   0  0  0  0  0  0  0  0  0  0  0  0
   20.3653  -17.5582  -16.5729 N   0  0  0  0  0  0  0  0  0  0  0  0
   19.9038  -18.8849  -16.8581 C   0  0  0  0  0  0  0  0  0  0  0  0
   19.1010  -19.4740  -15.7153 C   0  0  0  0  0  0  0  0  0  0  0  0
   19.6962  -20.7400  -15.1923 C   0  0  0  0  0  0  0  0  0  0  0  0
   20.8321  -20.4852  -14.2198 C   0  0  2  0  0  0  0  0  0  0  0  0
   22.0474  -20.7880  -14.9737 N   0  0  0  0  0  0  0  0  0  0  0  0
   20.6977  -21.4129  -13.0284 C   0  0  0  0  0  0  0  0  0  0  0  0
   20.3402  -22.5734  -13.3556 O   0  0  0  0  0  0  0  0  0  0  0  0
   19.7022  -15.2495  -17.6343 N   0  0  0  0  0  0  0  0  0  0  0  0
   20.9592  -20.9549  -11.7414 C   0  0  0  0  0  0  0  0  0  0  0  0
   21.9318  -19.8738  -11.4632 C   0  0  0  0  0  0  0  0  0  0  0  0
   21.0572  -18.9866  -10.6060 C   0  0  0  0  0  0  0  0  0  0  0  0
   20.0824  -19.9218   -9.9190 C   0  0  2  0  0  0  0  0  0  0  0  0
   20.5174  -21.3041  -10.4496 C   0  0  0  0  0  0  0  0  0  0  0  0
   19.4736  -22.2859  -10.2660 O   0  0  0  0  0  0  0  0  0  0  0  0
   18.3007  -22.1392  -10.6339 N   0  0  0  0  0  0  0  0  0  0  0  0
   19.8214  -23.5164   -9.6116 C   0  0  2  0  0  0  0  0  0  0  0  0
   18.7967  -24.3774   -9.0365 C   0  0  0  0  0  0  0  0  0  0  0  0
   19.0189  -24.5951   -7.5551 C   0  0  0  0  0  0  0  0  0  0  0  0
   17.9365  -25.4050   -6.9235 C   0  0  0  0  0  0  0  0  0  0  0  0
   18.2010  -25.6207   -5.4584 C   0  0  0  0  0  0  0  0  0  0  0  0
   17.0462  -26.3567   -4.8160 N   0  0  0  0  0  0  0  0  0  0  0  0
   17.3469  -26.5936   -3.4034 C   0  0  0  0  0  0  0  0  0  0  0  0
   17.4823  -23.7495   -9.2550 O   0  0  0  0  0  0  0  0  0  0  0  0
   17.3391  -22.3701   -9.3486 O   0  0  0  0  0  0  0  0  0  0  0  0
  2  4  1  0
  2  1  1  0
  3  2  2  0
  5  4  1  0
  6  5  1  0
  7  6  1  0
  8  7  1  0
  8  9  1  6
 10  8  1  0
 11 10  2  0
 12 16  1  0
 12 10  1  0
 13 14  1  0
 13 12  1  0
 15 14  1  0
 15 16  1  0
 17 19  1  0
 16 17  1  1
 18 17  2  0
 20 19  1  0
 20 21  1  1
 22 21  1  0
 23 22  1  0
 23 24  1  0
 24 25  1  0
 26 20  1  0
 27 26  1  0
 28 26  2  0
M  END
$$$$
