RPK.pdb
     RDKit          3D

 28 28  0  0  1  0  0  0  0  0999 V2000
   41.1971  -11.3360   -7.1905 N   0  0  0  0  0  0  0  0  0  0  0  0
   39.7959  -11.0874   -7.2457 C   0  0  0  0  0  0  0  0  0  0  0  0
   39.0907  -11.3256   -6.1779 N   0  0  0  0  0  0  0  0  0  0  0  0
   39.1955  -10.5964   -8.4286 N   0  0  0  0  0  0  0  0  0  0  0  0
   39.9092  -10.6034   -9.6716 C   0  0  0  0  0  0  0  0  0  0  0  0
   39.3544   -9.5974  -10.6603 C   0  0  0  0  0  0  0  0  0  0  0  0
   38.1321   -8.9083  -10.1488 C   0  0  0  0  0  0  0  0  0  0  0  0
   38.1809   -7.4081  -10.3680 C   0  0  2  0  0  0  0  0  0  0  0  0
   38.7908   -7.2404  -11.6860 N   0  0  0  0  0  0  0  0  0  0  0  0
   39.0403   -6.7665   -9.2965 C   0  0  0  0  0  0  0  0  0  0  0  0
   40.2615   -7.0360   -9.4287 O   0  0  0  0  0  0  0  0  0  0  0  0
   38.0721  -11.1946   -6.1314 N   0  0  0  0  0  0  0  0  0  0  0  0
   38.4651   -5.9772   -8.3062 C   0  0  0  0  0  0  0  0  0  0  0  0
   37.3142   -5.0836   -8.5684 C   0  0  0  0  0  0  0  0  0  0  0  0
   36.4082   -5.5322   -7.4437 C   0  0  0  0  0  0  0  0  0  0  0  0
   37.3351   -5.9918   -6.3364 C   0  0  2  0  0  0  0  0  0  0  0  0
   38.7307   -5.7364   -6.9433 C   0  0  0  0  0  0  0  0  0  0  0  0
   39.7490   -6.4867   -6.2451 O   0  0  0  0  0  0  0  0  0  0  0  0
   39.5794   -7.6110   -5.7556 N   0  0  0  0  0  0  0  0  0  0  0  0
   41.0469   -5.8862   -6.1102 C   0  0  1  0  0  0  0  0  0  0  0  0
   42.1442   -6.6032   -5.4747 C   0  0  0  0  0  0  0  0  0  0  0  0
   42.6220   -7.7595   -6.3266 C   0  0  0  0  0  0  0  0  0  0  0  0
   43.7543   -8.5048   -5.7030 C   0  0  0  0  0  0  0  0  0  0  0  0
   44.1545   -9.6890   -6.5400 C   0  0  0  0  0  0  0  0  0  0  0  0
   45.2196  -10.4987   -5.8343 N   0  0  0  0  0  0  0  0  0  0  0  0
   45.6062  -11.6313   -6.6767 C   0  0  0  0  0  0  0  0  0  0  0  0
   43.2524   -5.6588   -5.2518 O   0  0  0  0  0  0  0  0  0  0  0  0
   44.1025   -5.7762   -4.1584 O   0  0  0  0  0  0  0  0  0  0  0  0
  2  4  1  0
  2  1  1  0
  3  2  2  0
  5  4  1  0
  6  5  1  0
  7  6  1  0
  8  7  1  0
  8  9  1  6
 10  8  1  0
 11 10  2  0
 12 16  1  0
 12 10  1  0
 13 14  1  0
 13 12  1  0
 15 14  1  0
 15 16  1  0
 17 19  1  0
 16 17  1  1
 18 17  2  0
 20 19  1  0
 20 21  1  1
 22 21  1  0
 23 22  1  0
 23 24  1  0
 24 25  1  0
 26 20  1  0
 27 26  1  0
 28 26  2  0
M  END
$$$$
