RPK.pdb
     RDKit          3D

 28 28  0  0  1  0  0  0  0  0999 V2000
   25.6420  -21.1938  -11.6486 N   0  0  0  0  0  0  0  0  0  0  0  0
   24.4896  -20.8528  -10.8846 C   0  0  0  0  0  0  0  0  0  0  0  0
   24.6482  -20.6078   -9.6161 N   0  0  0  0  0  0  0  0  0  0  0  0
   23.2143  -20.7843  -11.4925 N   0  0  0  0  0  0  0  0  0  0  0  0
   23.0626  -20.9793  -12.9044 C   0  0  0  0  0  0  0  0  0  0  0  0
   22.1640  -19.9354  -13.5370 C   0  0  0  0  0  0  0  0  0  0  0  0
   22.8530  -18.6228  -13.7183 C   0  0  0  0  0  0  0  0  0  0  0  0
   22.9713  -18.2298  -15.1786 C   0  0  2  0  0  0  0  0  0  0  0  0
   21.7471  -18.7290  -15.8025 N   0  0  0  0  0  0  0  0  0  0  0  0
   24.1902  -18.8958  -15.7861 C   0  0  0  0  0  0  0  0  0  0  0  0
   23.9264  -20.0127  -16.3004 O   0  0  0  0  0  0  0  0  0  0  0  0
   23.8919  -20.2731   -9.0053 N   0  0  0  0  0  0  0  0  0  0  0  0
   25.4336  -18.2742  -15.7395 C   0  0  0  0  0  0  0  0  0  0  0  0
   25.5990  -16.8115  -15.8970 C   0  0  0  0  0  0  0  0  0  0  0  0
   26.4469  -16.5386  -14.6748 C   0  0  0  0  0  0  0  0  0  0  0  0
   27.2354  -17.8108  -14.4372 C   0  0  2  0  0  0  0  0  0  0  0  0
   26.7642  -18.7154  -15.5952 C   0  0  0  0  0  0  0  0  0  0  0  0
   27.0571  -20.1042  -15.3253 O   0  0  0  0  0  0  0  0  0  0  0  0
   26.8784  -20.6587  -14.2331 N   0  0  0  0  0  0  0  0  0  0  0  0
   27.5922  -20.8950  -16.3985 C   0  0  1  0  0  0  0  0  0  0  0  0
   27.8804  -22.3113  -16.2169 C   0  0  0  0  0  0  0  0  0  0  0  0
   26.7057  -23.1755  -16.6224 C   0  0  0  0  0  0  0  0  0  0  0  0
   26.9846  -24.6336  -16.4721 C   0  0  0  0  0  0  0  0  0  0  0  0
   25.8207  -25.4628  -16.9420 C   0  0  0  0  0  0  0  0  0  0  0  0
   26.1401  -26.9365  -16.8231 N   0  0  0  0  0  0  0  0  0  0  0  0
   25.0132  -27.7201  -17.3313 C   0  0  0  0  0  0  0  0  0  0  0  0
   29.0570  -22.6570  -17.0329 O   0  0  0  0  0  0  0  0  0  0  0  0
   29.9851  -23.6021  -16.6117 O   0  0  0  0  0  0  0  0  0  0  0  0
  2  4  1  0
  2  1  1  0
  3  2  2  0
  5  4  1  0
  6  5  1  0
  7  6  1  0
  8  7  1  0
  8  9  1  6
 10  8  1  0
 11 10  2  0
 12 16  1  0
 12 10  1  0
 13 14  1  0
 13 12  1  0
 15 14  1  0
 15 16  1  0
 17 19  1  0
 16 17  1  1
 18 17  2  0
 20 19  1  0
 20 21  1  1
 22 21  1  0
 23 22  1  0
 23 24  1  0
 24 25  1  0
 26 20  1  0
 27 26  1  0
 28 26  2  0
M  END
$$$$
