RPK.pdb
     RDKit          3D

 28 28  0  0  1  0  0  0  0  0999 V2000
   24.0788  -25.9447  -15.3393 N   0  0  0  0  0  0  0  0  0  0  0  0
   22.8120  -25.7214  -14.7281 C   0  0  0  0  0  0  0  0  0  0  0  0
   22.4977  -26.4444  -13.6924 N   0  0  0  0  0  0  0  0  0  0  0  0
   21.9274  -24.7419  -15.2366 N   0  0  0  0  0  0  0  0  0  0  0  0
   21.4795  -24.7927  -16.5973 C   0  0  0  0  0  0  0  0  0  0  0  0
   22.4790  -24.1773  -17.5563 C   0  0  0  0  0  0  0  0  0  0  0  0
   22.0255  -24.2488  -18.9775 C   0  0  0  0  0  0  0  0  0  0  0  0
   22.9329  -25.1154  -19.8299 C   0  0  2  0  0  0  0  0  0  0  0  0
   22.8931  -26.4342  -19.2005 N   0  0  0  0  0  0  0  0  0  0  0  0
   24.3409  -24.5539  -19.8047 C   0  0  0  0  0  0  0  0  0  0  0  0
   24.9330  -24.7788  -18.7183 O   0  0  0  0  0  0  0  0  0  0  0  0
   21.5794  -26.4042  -13.2317 N   0  0  0  0  0  0  0  0  0  0  0  0
   24.8519  -23.8744  -20.9055 C   0  0  0  0  0  0  0  0  0  0  0  0
   24.4724  -24.2119  -22.2962 C   0  0  0  0  0  0  0  0  0  0  0  0
   24.0986  -22.8286  -22.7794 C   0  0  0  0  0  0  0  0  0  0  0  0
   24.9562  -21.8733  -21.9740 C   0  0  2  0  0  0  0  0  0  0  0  0
   25.7818  -22.8318  -21.0903 C   0  0  0  0  0  0  0  0  0  0  0  0
   26.3494  -22.1385  -19.9569 O   0  0  0  0  0  0  0  0  0  0  0  0
   25.6866  -21.6036  -19.0586 N   0  0  0  0  0  0  0  0  0  0  0  0
   27.7812  -22.0655  -19.8669 C   0  0  1  0  0  0  0  0  0  0  0  0
   28.4301  -21.3543  -18.7737 C   0  0  0  0  0  0  0  0  0  0  0  0
   29.7020  -22.0479  -18.3349 C   0  0  0  0  0  0  0  0  0  0  0  0
   29.4412  -23.3379  -17.6318 C   0  0  0  0  0  0  0  0  0  0  0  0
   30.7122  -23.9266  -17.0832 C   0  0  0  0  0  0  0  0  0  0  0  0
   30.4299  -25.2433  -16.3942 N   0  0  0  0  0  0  0  0  0  0  0  0
   31.6919  -25.8459  -15.9629 C   0  0  0  0  0  0  0  0  0  0  0  0
   28.7399  -19.9868  -19.2248 O   0  0  0  0  0  0  0  0  0  0  0  0
   28.9556  -18.9519  -18.3222 O   0  0  0  0  0  0  0  0  0  0  0  0
  2  4  1  0
  2  1  1  0
  3  2  2  0
  5  4  1  0
  6  5  1  0
  7  6  1  0
  8  7  1  0
  8  9  1  1
 10  8  1  0
 11 10  2  0
 12 16  1  0
 12 10  1  0
 13 14  1  0
 13 12  1  0
 15 14  1  0
 15 16  1  0
 17 19  1  0
 16 17  1  1
 18 17  2  0
 20 19  1  0
 20 21  1  1
 22 21  1  0
 23 22  1  0
 23 24  1  0
 24 25  1  0
 26 20  1  0
 27 26  1  0
 28 26  2  0
M  END
$$$$
