RPK.pdb
     RDKit          3D

 28 28  0  0  1  0  0  0  0  0999 V2000
   24.6809  -22.9829  -19.5063 N   0  0  0  0  0  0  0  0  0  0  0  0
   25.1728  -24.1675  -20.1252 C   0  0  0  0  0  0  0  0  0  0  0  0
   24.3227  -25.1174  -20.3882 N   0  0  0  0  0  0  0  0  0  0  0  0
   26.5449  -24.3006  -20.4416 N   0  0  0  0  0  0  0  0  0  0  0  0
   27.4772  -23.2610  -20.1185 C   0  0  0  0  0  0  0  0  0  0  0  0
   27.1616  -22.5952  -18.7939 C   0  0  0  0  0  0  0  0  0  0  0  0
   28.1548  -21.5393  -18.4345 C   0  0  0  0  0  0  0  0  0  0  0  0
   28.6093  -21.6418  -16.9909 C   0  0  2  0  0  0  0  0  0  0  0  0
   29.0045  -23.0388  -16.8196 N   0  0  0  0  0  0  0  0  0  0  0  0
   27.4556  -21.2965  -16.0700 C   0  0  0  0  0  0  0  0  0  0  0  0
   26.7199  -22.2860  -15.8227 O   0  0  0  0  0  0  0  0  0  0  0  0
   24.5832  -25.9982  -20.8502 N   0  0  0  0  0  0  0  0  0  0  0  0
   27.2953  -20.0004  -15.5914 C   0  0  0  0  0  0  0  0  0  0  0  0
   28.4423  -19.1409  -15.2207 C   0  0  0  0  0  0  0  0  0  0  0  0
   28.0750  -17.9058  -16.0123 C   0  0  0  0  0  0  0  0  0  0  0  0
   26.5615  -17.9097  -16.0891 C   0  0  2  0  0  0  0  0  0  0  0  0
   26.1912  -19.1777  -15.2913 C   0  0  0  0  0  0  0  0  0  0  0  0
   24.8453  -19.6088  -15.5911 O   0  0  0  0  0  0  0  0  0  0  0  0
   24.4322  -19.8783  -16.7265 N   0  0  0  0  0  0  0  0  0  0  0  0
   23.9239  -19.7330  -14.4961 C   0  0  1  0  0  0  0  0  0  0  0  0
   22.5337  -20.1045  -14.7223 C   0  0  0  0  0  0  0  0  0  0  0  0
   21.9137  -20.7220  -13.4871 C   0  0  0  0  0  0  0  0  0  0  0  0
   20.4616  -21.0192  -13.6589 C   0  0  0  0  0  0  0  0  0  0  0  0
   19.8507  -21.5141  -12.3764 C   0  0  0  0  0  0  0  0  0  0  0  0
   18.3574  -21.6931  -12.5373 N   0  0  0  0  0  0  0  0  0  0  0  0
   17.7811  -22.1315  -11.2654 C   0  0  0  0  0  0  0  0  0  0  0  0
   21.7833  -18.8958  -15.1038 O   0  0  0  0  0  0  0  0  0  0  0  0
   20.6907  -18.9553  -15.9610 O   0  0  0  0  0  0  0  0  0  0  0  0
  2  4  1  0
  2  1  1  0
  3  2  2  0
  5  4  1  0
  6  5  1  0
  7  6  1  0
  8  7  1  0
  8  9  1  1
 10  8  1  0
 11 10  2  0
 12 16  1  0
 12 10  1  0
 13 14  1  0
 13 12  1  0
 15 14  1  0
 15 16  1  0
 17 19  1  0
 16 17  1  6
 18 17  2  0
 20 19  1  0
 20 21  1  6
 22 21  1  0
 23 22  1  0
 23 24  1  0
 24 25  1  0
 26 20  1  0
 27 26  1  0
 28 26  2  0
M  END
$$$$
