RPK.pdb
     RDKit          3D

 28 28  0  0  1  0  0  0  0  0999 V2000
   17.2698  -23.8174  -15.8627 N   0  0  0  0  0  0  0  0  0  0  0  0
   17.5051  -22.5383  -15.2825 C   0  0  0  0  0  0  0  0  0  0  0  0
   16.5247  -21.6822  -15.2727 N   0  0  0  0  0  0  0  0  0  0  0  0
   18.7687  -22.2149  -14.7352 N   0  0  0  0  0  0  0  0  0  0  0  0
   19.9279  -22.9960  -15.0525 C   0  0  0  0  0  0  0  0  0  0  0  0
   21.1856  -22.4488  -14.4076 C   0  0  0  0  0  0  0  0  0  0  0  0
   21.3168  -22.8551  -12.9764 C   0  0  0  0  0  0  0  0  0  0  0  0
   21.7578  -21.7070  -12.0885 C   0  0  2  0  0  0  0  0  0  0  0  0
   20.5204  -21.0241  -11.7149 N   0  0  0  0  0  0  0  0  0  0  0  0
   22.6643  -20.7786  -12.8725 C   0  0  0  0  0  0  0  0  0  0  0  0
   22.0316  -20.0514  -13.6802 O   0  0  0  0  0  0  0  0  0  0  0  0
   16.5981  -20.7421  -14.8631 N   0  0  0  0  0  0  0  0  0  0  0  0
   24.0394  -20.7892  -12.6639 C   0  0  0  0  0  0  0  0  0  0  0  0
   24.6410  -21.0267  -11.3322 C   0  0  0  0  0  0  0  0  0  0  0  0
   25.6212  -22.1151  -11.7086 C   0  0  0  0  0  0  0  0  0  0  0  0
   25.9885  -21.8465  -13.1541 C   0  0  2  0  0  0  0  0  0  0  0  0
   25.1726  -20.5764  -13.4742 C   0  0  0  0  0  0  0  0  0  0  0  0
   25.0366  -20.3887  -14.9002 O   0  0  0  0  0  0  0  0  0  0  0  0
   24.6037  -21.2456  -15.6818 N   0  0  0  0  0  0  0  0  0  0  0  0
   25.4307  -19.1207  -15.4479 C   0  0  1  0  0  0  0  0  0  0  0  0
   25.2095  -18.8076  -16.8533 C   0  0  0  0  0  0  0  0  0  0  0  0
   24.9826  -17.3261  -17.0652 C   0  0  0  0  0  0  0  0  0  0  0  0
   24.7724  -16.9754  -18.5002 C   0  0  0  0  0  0  0  0  0  0  0  0
   24.3722  -15.5337  -18.6563 C   0  0  0  0  0  0  0  0  0  0  0  0
   24.2304  -15.1805  -20.1203 N   0  0  0  0  0  0  0  0  0  0  0  0
   23.7857  -13.7916  -20.2438 C   0  0  0  0  0  0  0  0  0  0  0  0
   26.3884  -19.2447  -17.6205 O   0  0  0  0  0  0  0  0  0  0  0  0
   27.6698  -19.1878  -17.0849 O   0  0  0  0  0  0  0  0  0  0  0  0
  2  4  1  0
  2  1  1  0
  3  2  2  0
  5  4  1  0
  6  5  1  0
  7  6  1  0
  8  7  1  0
  8  9  1  6
 10  8  1  0
 11 10  2  0
 12 16  1  0
 12 10  1  0
 13 14  1  0
 13 12  1  0
 15 14  1  0
 15 16  1  0
 17 19  1  0
 16 17  1  6
 18 17  2  0
 20 19  1  0
 20 21  1  6
 22 21  1  0
 23 22  1  0
 23 24  1  0
 24 25  1  0
 26 20  1  0
 27 26  1  0
 28 26  2  0
M  END
$$$$
