RPK.pdb
     RDKit          3D

 28 28  0  0  1  0  0  0  0  0999 V2000
   26.7136  -20.5409  -10.3542 N   0  0  0  0  0  0  0  0  0  0  0  0
   25.3464  -20.8926  -10.1668 C   0  0  0  0  0  0  0  0  0  0  0  0
   24.8627  -20.8424   -8.9594 N   0  0  0  0  0  0  0  0  0  0  0  0
   24.5443  -21.2836  -11.2642 N   0  0  0  0  0  0  0  0  0  0  0  0
   24.9184  -20.9431  -12.6053 C   0  0  0  0  0  0  0  0  0  0  0  0
   25.4937  -22.1245  -13.3607 C   0  0  0  0  0  0  0  0  0  0  0  0
   25.7729  -21.8056  -14.7928 C   0  0  0  0  0  0  0  0  0  0  0  0
   26.9239  -20.8307  -14.9532 C   0  0  2  0  0  0  0  0  0  0  0  0
   27.6914  -20.9482  -13.7146 N   0  0  0  0  0  0  0  0  0  0  0  0
   26.3794  -19.4248  -15.1127 C   0  0  0  0  0  0  0  0  0  0  0  0
   25.2926  -19.2539  -14.5034 O   0  0  0  0  0  0  0  0  0  0  0  0
   23.8933  -21.0939   -8.7271 N   0  0  0  0  0  0  0  0  0  0  0  0
   27.0668  -18.4810  -15.8685 C   0  0  0  0  0  0  0  0  0  0  0  0
   28.4506  -18.0613  -15.5513 C   0  0  0  0  0  0  0  0  0  0  0  0
   29.0717  -18.2502  -16.9171 C   0  0  0  0  0  0  0  0  0  0  0  0
   27.9496  -18.0138  -17.9080 C   0  0  2  0  0  0  0  0  0  0  0  0
   26.7570  -17.6814  -16.9869 C   0  0  0  0  0  0  0  0  0  0  0  0
   25.5004  -17.8386  -17.6823 O   0  0  0  0  0  0  0  0  0  0  0  0
   25.1754  -18.8466  -18.3233 N   0  0  0  0  0  0  0  0  0  0  0  0
   24.5646  -16.7503  -17.6256 C   0  0  1  0  0  0  0  0  0  0  0  0
   23.2498  -16.8569  -18.2436 C   0  0  0  0  0  0  0  0  0  0  0  0
   22.1410  -16.6975  -17.2256 C   0  0  0  0  0  0  0  0  0  0  0  0
   20.7853  -16.6809  -17.8487 C   0  0  0  0  0  0  0  0  0  0  0  0
   19.8819  -17.7043  -17.2166 C   0  0  0  0  0  0  0  0  0  0  0  0
   18.5212  -17.6874  -17.8770 N   0  0  0  0  0  0  0  0  0  0  0  0
   17.6374  -18.6319  -17.1923 C   0  0  0  0  0  0  0  0  0  0  0  0
   23.1321  -15.8115  -19.2746 O   0  0  0  0  0  0  0  0  0  0  0  0
   22.3068  -15.9684  -20.3819 O   0  0  0  0  0  0  0  0  0  0  0  0
  2  4  1  0
  2  1  1  0
  3  2  2  0
  5  4  1  0
  6  5  1  0
  7  6  1  0
  8  7  1  0
  8  9  1  1
 10  8  1  0
 11 10  2  0
 12 16  1  0
 12 10  1  0
 13 14  1  0
 13 12  1  0
 15 14  1  0
 15 16  1  0
 17 19  1  0
 16 17  1  6
 18 17  2  0
 20 19  1  0
 20 21  1  6
 22 21  1  0
 23 22  1  0
 23 24  1  0
 24 25  1  0
 26 20  1  0
 27 26  1  0
 28 26  2  0
M  END
$$$$
