RPK.pdb
     RDKit          3D

 28 28  0  0  1  0  0  0  0  0999 V2000
   24.6208  -24.0753  -20.6361 N   0  0  0  0  0  0  0  0  0  0  0  0
   24.5629  -22.7363  -21.1178 C   0  0  0  0  0  0  0  0  0  0  0  0
   23.7446  -22.4738  -22.0954 N   0  0  0  0  0  0  0  0  0  0  0  0
   25.3730  -21.7275  -20.5463 N   0  0  0  0  0  0  0  0  0  0  0  0
   26.6442  -22.0474  -19.9665 C   0  0  0  0  0  0  0  0  0  0  0  0
   26.5088  -22.7003  -18.6053 C   0  0  0  0  0  0  0  0  0  0  0  0
   27.8313  -22.9542  -17.9596 C   0  0  0  0  0  0  0  0  0  0  0  0
   28.1913  -21.8877  -16.9428 C   0  0  2  0  0  0  0  0  0  0  0  0
   29.2623  -22.4782  -16.1419 N   0  0  0  0  0  0  0  0  0  0  0  0
   26.9840  -21.5829  -16.0781 C   0  0  0  0  0  0  0  0  0  0  0  0
   26.3945  -22.6220  -15.6851 O   0  0  0  0  0  0  0  0  0  0  0  0
   23.6653  -21.5472  -22.5338 N   0  0  0  0  0  0  0  0  0  0  0  0
   26.6299  -20.2681  -15.7946 C   0  0  0  0  0  0  0  0  0  0  0  0
   27.6176  -19.1655  -15.7683 C   0  0  0  0  0  0  0  0  0  0  0  0
   26.9023  -18.1886  -16.6745 C   0  0  0  0  0  0  0  0  0  0  0  0
   25.4253  -18.4732  -16.4906 C   0  0  2  0  0  0  0  0  0  0  0  0
   25.4329  -19.6103  -15.4474 C   0  0  0  0  0  0  0  0  0  0  0  0
   24.1749  -20.3207  -15.4400 O   0  0  0  0  0  0  0  0  0  0  0  0
   23.6713  -20.8648  -16.4313 N   0  0  0  0  0  0  0  0  0  0  0  0
   23.4600  -20.4006  -14.1966 C   0  0  1  0  0  0  0  0  0  0  0  0
   22.2384  -21.1857  -14.0813 C   0  0  0  0  0  0  0  0  0  0  0  0
   21.9191  -21.5109  -12.6379 C   0  0  0  0  0  0  0  0  0  0  0  0
   20.7308  -22.4024  -12.4979 C   0  0  0  0  0  0  0  0  0  0  0  0
   20.3619  -22.5964  -11.0524 C   0  0  0  0  0  0  0  0  0  0  0  0
   19.1887  -23.5433  -10.9294 N   0  0  0  0  0  0  0  0  0  0  0  0
   18.8755  -23.7469   -9.5143 C   0  0  0  0  0  0  0  0  0  0  0  0
   21.1310  -20.4165  -14.6742 O   0  0  0  0  0  0  0  0  0  0  0  0
   20.0821  -21.0413  -15.3386 O   0  0  0  0  0  0  0  0  0  0  0  0
  2  4  1  0
  2  1  1  0
  3  2  2  0
  5  4  1  0
  6  5  1  0
  7  6  1  0
  8  7  1  0
  8  9  1  1
 10  8  1  0
 11 10  2  0
 12 16  1  0
 12 10  1  0
 13 14  1  0
 13 12  1  0
 15 14  1  0
 15 16  1  0
 17 19  1  0
 16 17  1  6
 18 17  2  0
 20 19  1  0
 20 21  1  6
 22 21  1  0
 23 22  1  0
 23 24  1  0
 24 25  1  0
 26 20  1  0
 27 26  1  0
 28 26  2  0
M  END
$$$$
