RPK.pdb
     RDKit          3D

 28 28  0  0  1  0  0  0  0  0999 V2000
   23.0938  -17.4422  -17.5728 N   0  0  0  0  0  0  0  0  0  0  0  0
   23.9157  -17.5224  -18.7330 C   0  0  0  0  0  0  0  0  0  0  0  0
   23.4574  -17.0188  -19.8423 N   0  0  0  0  0  0  0  0  0  0  0  0
   25.1905  -18.1325  -18.6743 N   0  0  0  0  0  0  0  0  0  0  0  0
   25.6497  -18.7592  -17.4698 C   0  0  0  0  0  0  0  0  0  0  0  0
   24.9134  -20.0510  -17.1754 C   0  0  0  0  0  0  0  0  0  0  0  0
   25.7224  -21.2596  -17.5151 C   0  0  0  0  0  0  0  0  0  0  0  0
   26.7586  -21.5775  -16.4539 C   0  0  2  0  0  0  0  0  0  0  0  0
   27.3341  -22.8578  -16.8622 N   0  0  0  0  0  0  0  0  0  0  0  0
   26.0802  -21.7033  -15.1040 C   0  0  0  0  0  0  0  0  0  0  0  0
   25.0558  -22.4318  -15.1424 O   0  0  0  0  0  0  0  0  0  0  0  0
   23.9708  -17.0494  -20.7325 N   0  0  0  0  0  0  0  0  0  0  0  0
   26.5965  -21.0518  -13.9888 C   0  0  0  0  0  0  0  0  0  0  0  0
   28.0370  -20.7430  -13.8430 C   0  0  0  0  0  0  0  0  0  0  0  0
   27.9283  -19.2736  -13.5025 C   0  0  0  0  0  0  0  0  0  0  0  0
   26.5966  -19.1194  -12.7960 C   0  0  2  0  0  0  0  0  0  0  0  0
   26.0590  -20.5659  -12.7802 C   0  0  0  0  0  0  0  0  0  0  0  0
   24.6342  -20.5908  -12.5422 O   0  0  0  0  0  0  0  0  0  0  0  0
   23.7842  -20.1569  -13.3307 N   0  0  0  0  0  0  0  0  0  0  0  0
   24.1731  -21.1583  -11.3058 C   0  0  1  0  0  0  0  0  0  0  0  0
   22.7508  -21.2478  -11.0043 C   0  0  0  0  0  0  0  0  0  0  0  0
   22.4994  -22.0194   -9.7265 C   0  0  0  0  0  0  0  0  0  0  0  0
   21.0544  -22.3240   -9.5127 C   0  0  0  0  0  0  0  0  0  0  0  0
   20.8429  -23.0998   -8.2413 C   0  0  0  0  0  0  0  0  0  0  0  0
   19.4014  -23.5436   -8.1271 N   0  0  0  0  0  0  0  0  0  0  0  0
   19.2185  -24.2823   -6.8769 C   0  0  0  0  0  0  0  0  0  0  0  0
   22.2140  -19.8823  -10.8741 O   0  0  0  0  0  0  0  0  0  0  0  0
   20.9178  -19.5673  -11.2649 O   0  0  0  0  0  0  0  0  0  0  0  0
  2  4  1  0
  2  1  1  0
  3  2  2  0
  5  4  1  0
  6  5  1  0
  7  6  1  0
  8  7  1  0
  8  9  1  6
 10  8  1  0
 11 10  2  0
 12 16  1  0
 12 10  1  0
 13 14  1  0
 13 12  1  0
 15 14  1  0
 15 16  1  0
 17 19  1  0
 16 17  1  1
 18 17  2  0
 20 19  1  0
 20 21  1  1
 22 21  1  0
 23 22  1  0
 23 24  1  0
 24 25  1  0
 26 20  1  0
 27 26  1  0
 28 26  2  0
M  END
$$$$
