PIH.pdb
     RDKit          3D

 26 27  0  0  1  0  0  0  0  0999 V2000
   14.7649  -20.9927    2.7709 N   0  0  0  0  0  0  0  0  0  0  0  0
   14.7206  -21.5395    1.4401 C   0  0  0  0  0  0  0  0  0  0  0  0
   14.9550  -23.0100    1.5656 C   0  0  0  0  0  0  0  0  0  0  0  0
   15.8794  -23.0896    2.7660 C   0  0  0  0  0  0  0  0  0  0  0  0
   15.4881  -21.8944    3.6088 C   0  0  1  0  0  0  0  0  0  0  0  0
   16.7245  -21.2106    4.1295 C   0  0  0  0  0  0  0  0  0  0  0  0
   17.5966  -21.8791    4.7395 O   0  0  0  0  0  0  0  0  0  0  0  0
   19.9260  -17.8880    1.3302 C   0  0  0  0  0  0  0  0  0  0  0  0
   19.3208  -18.9006    2.2535 C   0  0  0  0  0  0  0  0  0  0  0  0
   18.7908  -18.2982    3.5091 C   0  0  2  0  0  0  0  0  0  0  0  0
   20.0457  -17.7148    4.2094 C   0  0  0  0  0  0  0  0  0  0  0  0
   18.1153  -19.2123    4.4704 C   0  0  2  0  0  0  0  0  0  0  0  0
   16.9034  -19.8116    3.9305 N   0  0  0  0  0  0  0  0  0  0  0  0
   17.6536  -18.4842    5.6803 C   0  0  0  0  0  0  0  0  0  0  0  0
   16.6600  -17.6855    5.5237 O   0  0  0  0  0  0  0  0  0  0  0  0
   18.1590  -18.5598    6.9767 N   0  0  0  0  0  0  0  0  0  0  0  0
   17.5667  -17.7018    8.0622 C   0  0  1  0  0  0  0  0  0  0  0  0
   17.5106  -18.6142    9.2403 C   0  0  0  0  0  0  0  0  0  0  0  0
   16.3512  -19.5052    9.3230 C   0  0  0  0  0  0  0  0  0  0  0  0
   15.2299  -19.6832    8.5587 C   0  0  0  0  0  0  0  0  0  0  0  0
   14.4909  -20.6972    9.0637 N   0  0  0  0  0  0  0  0  0  0  0  0
   15.1405  -21.1460   10.1253 C   0  0  0  0  0  0  0  0  0  0  0  0
   16.2680  -20.4500   10.3116 N   0  0  0  0  0  0  0  0  0  0  0  0
   18.5502  -16.6099    8.2217 C   0  0  0  0  0  0  0  0  0  0  0  0
   18.2087  -15.3440    8.6202 O   0  0  0  0  0  0  0  0  0  0  0  0
   19.7626  -16.8215    7.9892 O   0  0  0  0  0  0  0  0  0  0  0  0
  2  1  1  0
  3  2  1  0
  4  3  1  0
  4  5  1  0
  5  1  1  0
  5  6  1  6
  6  7  2  0
  9  8  1  0
  9 10  1  0
 10 11  1  1
 12 10  1  0
 13  6  1  0
 12 13  1  6
 14 12  1  0
 14 15  2  0
 16 14  1  0
 17 16  1  0
 18 19  1  0
 17 18  1  1
 19 23  1  0
 20 21  1  0
 20 19  2  0
 21 22  1  0
 22 23  2  0
 24 17  1  0
 24 25  1  0
 26 24  2  0
M  END
$$$$
