PIH.pdb
     RDKit          3D

 26 27  0  0  1  0  0  0  0  0999 V2000
   27.8725  -19.5443  -14.8869 N   0  0  0  0  0  0  0  0  0  0  0  0
   29.2596  -19.5831  -14.5043 C   0  0  0  0  0  0  0  0  0  0  0  0
   29.8448  -20.8160  -15.1130 C   0  0  0  0  0  0  0  0  0  0  0  0
   28.6664  -21.7716  -15.1062 C   0  0  0  0  0  0  0  0  0  0  0  0
   27.4602  -20.8658  -15.2360 C   0  0  1  0  0  0  0  0  0  0  0  0
   26.3785  -21.3182  -14.2913 C   0  0  0  0  0  0  0  0  0  0  0  0
   25.8152  -22.4270  -14.4734 O   0  0  0  0  0  0  0  0  0  0  0  0
   26.4765  -20.2977   -8.8939 C   0  0  0  0  0  0  0  0  0  0  0  0
   26.1995  -21.0746  -10.1444 C   0  0  0  0  0  0  0  0  0  0  0  0
   25.0566  -20.5265  -10.9276 C   0  0  2  0  0  0  0  0  0  0  0  0
   23.8011  -21.0078  -10.1545 C   0  0  0  0  0  0  0  0  0  0  0  0
   24.9221  -20.9751  -12.3406 C   0  0  2  0  0  0  0  0  0  0  0  0
   25.9963  -20.4917  -13.1960 N   0  0  0  0  0  0  0  0  0  0  0  0
   23.6874  -20.4365  -12.9671 C   0  0  0  0  0  0  0  0  0  0  0  0
   23.6616  -19.1711  -13.1862 O   0  0  0  0  0  0  0  0  0  0  0  0
   22.5449  -21.1323  -13.3569 N   0  0  0  0  0  0  0  0  0  0  0  0
   21.3972  -20.3922  -13.9899 C   0  0  1  0  0  0  0  0  0  0  0  0
   21.3845  -20.8967  -15.3930 C   0  0  0  0  0  0  0  0  0  0  0  0
   20.2342  -20.5149  -16.2151 C   0  0  0  0  0  0  0  0  0  0  0  0
   19.1223  -19.7465  -15.9997 C   0  0  0  0  0  0  0  0  0  0  0  0
   18.3896  -19.6776  -17.1344 N   0  0  0  0  0  0  0  0  0  0  0  0
   19.0338  -20.3904  -18.0442 C   0  0  0  0  0  0  0  0  0  0  0  0
   20.1518  -20.9102  -17.5242 N   0  0  0  0  0  0  0  0  0  0  0  0
   20.2229  -20.8305  -13.2063 C   0  0  0  0  0  0  0  0  0  0  0  0
   19.0643  -20.1039  -13.1199 O   0  0  0  0  0  0  0  0  0  0  0  0
   20.2582  -21.9147  -12.5802 O   0  0  0  0  0  0  0  0  0  0  0  0
  2  1  1  0
  3  2  1  0
  4  3  1  0
  4  5  1  0
  5  1  1  0
  5  6  1  1
  6  7  2  0
  9  8  1  0
  9 10  1  0
 10 11  1  1
 12 10  1  0
 13  6  1  0
 12 13  1  6
 14 12  1  0
 14 15  2  0
 16 14  1  0
 17 16  1  0
 18 19  1  0
 17 18  1  6
 19 23  1  0
 20 21  1  0
 20 19  2  0
 21 22  1  0
 22 23  2  0
 24 17  1  0
 24 25  1  0
 26 24  2  0
M  END
$$$$
