PIH.pdb
     RDKit          3D

 26 27  0  0  1  0  0  0  0  0999 V2000
   21.4932  -14.2818  -18.8074 N   0  0  0  0  0  0  0  0  0  0  0  0
   20.2017  -14.4669  -19.4155 C   0  0  0  0  0  0  0  0  0  0  0  0
   20.1203  -13.5135  -20.5633 C   0  0  0  0  0  0  0  0  0  0  0  0
   20.9584  -12.3466  -20.0755 C   0  0  0  0  0  0  0  0  0  0  0  0
   21.9810  -12.9876  -19.1615 C   0  0  1  0  0  0  0  0  0  0  0  0
   22.1440  -12.1568  -17.9163 C   0  0  0  0  0  0  0  0  0  0  0  0
   21.4411  -12.4055  -16.9044 O   0  0  0  0  0  0  0  0  0  0  0  0
   26.7886  -11.2974  -15.4772 C   0  0  0  0  0  0  0  0  0  0  0  0
   25.3611  -11.5167  -15.8747 C   0  0  0  0  0  0  0  0  0  0  0  0
   24.6417  -10.2481  -16.1807 C   0  0  2  0  0  0  0  0  0  0  0  0
   24.6471   -9.4750  -14.8361 C   0  0  0  0  0  0  0  0  0  0  0  0
   23.2293  -10.3594  -16.6374 C   0  0  2  0  0  0  0  0  0  0  0  0
   23.0913  -11.0936  -17.8870 N   0  0  0  0  0  0  0  0  0  0  0  0
   22.6465   -9.0252  -16.9327 C   0  0  0  0  0  0  0  0  0  0  0  0
   23.1643   -8.3787  -17.9144 O   0  0  0  0  0  0  0  0  0  0  0  0
   21.5976   -8.3797  -16.2811 N   0  0  0  0  0  0  0  0  0  0  0  0
   21.1282   -7.0351  -16.7679 C   0  0  1  0  0  0  0  0  0  0  0  0
   19.6477   -7.1900  -16.8555 C   0  0  0  0  0  0  0  0  0  0  0  0
   19.1286   -7.8447  -18.0583 C   0  0  0  0  0  0  0  0  0  0  0  0
   19.7085   -8.3958  -19.1687 C   0  0  0  0  0  0  0  0  0  0  0  0
   18.7527   -8.9227  -19.9676 N   0  0  0  0  0  0  0  0  0  0  0  0
   17.5947   -8.7052  -19.3656 C   0  0  0  0  0  0  0  0  0  0  0  0
   17.7836   -8.0570  -18.2104 N   0  0  0  0  0  0  0  0  0  0  0  0
   21.5510   -6.1076  -15.6974 C   0  0  0  0  0  0  0  0  0  0  0  0
   21.5336   -4.7443  -15.8348 O   0  0  0  0  0  0  0  0  0  0  0  0
   21.9492   -6.5600  -14.5994 O   0  0  0  0  0  0  0  0  0  0  0  0
  2  1  1  0
  3  2  1  0
  4  3  1  0
  4  5  1  0
  5  1  1  0
  5  6  1  1
  6  7  2  0
  9  8  1  0
  9 10  1  0
 10 11  1  1
 12 10  1  0
 13  6  1  0
 12 13  1  6
 14 12  1  0
 14 15  2  0
 16 14  1  0
 17 16  1  0
 18 19  1  0
 17 18  1  1
 19 23  1  0
 20 21  1  0
 20 19  2  0
 21 22  1  0
 22 23  2  0
 24 17  1  0
 24 25  1  0
 26 24  2  0
M  END
$$$$
