PIH.pdb
     RDKit          3D

 26 27  0  0  1  0  0  0  0  0999 V2000
   18.4804  -12.7910  -17.4223 N   0  0  0  0  0  0  0  0  0  0  0  0
   18.7190  -14.1989  -17.2406 C   0  0  0  0  0  0  0  0  0  0  0  0
   17.6606  -14.7038  -16.3144 C   0  0  0  0  0  0  0  0  0  0  0  0
   17.4049  -13.4997  -15.4273 C   0  0  0  0  0  0  0  0  0  0  0  0
   17.7042  -12.3159  -16.3224 C   0  0  1  0  0  0  0  0  0  0  0  0
   18.4955  -11.2868  -15.5594 C   0  0  0  0  0  0  0  0  0  0  0  0
   18.0893  -10.8948  -14.4364 O   0  0  0  0  0  0  0  0  0  0  0  0
   23.9182  -11.3663  -14.9065 C   0  0  0  0  0  0  0  0  0  0  0  0
   22.4315  -11.2431  -14.7704 C   0  0  0  0  0  0  0  0  0  0  0  0
   21.8982   -9.9771  -15.3476 C   0  0  2  0  0  0  0  0  0  0  0  0
   22.5467   -8.8636  -14.4843 C   0  0  0  0  0  0  0  0  0  0  0  0
   20.4231   -9.7810  -15.3122 C   0  0  2  0  0  0  0  0  0  0  0  0
   19.6993  -10.7606  -16.1097 N   0  0  0  0  0  0  0  0  0  0  0  0
   20.0340   -8.4735  -15.9005 C   0  0  0  0  0  0  0  0  0  0  0  0
   20.2253   -8.3340  -17.1630 O   0  0  0  0  0  0  0  0  0  0  0  0
   19.4780   -7.3701  -15.2565 N   0  0  0  0  0  0  0  0  0  0  0  0
   19.2670   -6.0878  -16.0159 C   0  0  1  0  0  0  0  0  0  0  0  0
   17.8073   -5.8243  -15.8624 C   0  0  0  0  0  0  0  0  0  0  0  0
   17.3289   -4.5137  -16.3075 C   0  0  0  0  0  0  0  0  0  0  0  0
   16.9240   -4.0059  -17.5122 C   0  0  0  0  0  0  0  0  0  0  0  0
   16.5243   -2.7234  -17.3546 N   0  0  0  0  0  0  0  0  0  0  0  0
   16.6759   -2.4351  -16.0722 C   0  0  0  0  0  0  0  0  0  0  0  0
   17.1593   -3.4925  -15.4099 N   0  0  0  0  0  0  0  0  0  0  0  0
   20.1107   -5.1110  -15.2955 C   0  0  0  0  0  0  0  0  0  0  0  0
   20.5382   -3.9338  -15.8518 O   0  0  0  0  0  0  0  0  0  0  0  0
   20.4681   -5.3423  -14.1176 O   0  0  0  0  0  0  0  0  0  0  0  0
  2  1  1  0
  3  2  1  0
  4  3  1  0
  4  5  1  0
  5  1  1  0
  5  6  1  1
  6  7  2  0
  9  8  1  0
  9 10  1  0
 10 11  1  1
 12 10  1  0
 13  6  1  0
 12 13  1  6
 14 12  1  0
 14 15  2  0
 16 14  1  0
 17 16  1  0
 18 19  1  0
 17 18  1  1
 19 23  1  0
 20 21  1  0
 20 19  2  0
 21 22  1  0
 22 23  2  0
 24 17  1  0
 24 25  1  0
 26 24  2  0
M  END
$$$$
