PIH.pdb
     RDKit          3D

 26 27  0  0  1  0  0  0  0  0999 V2000
   28.8829  -20.5868  -15.7547 N   0  0  0  0  0  0  0  0  0  0  0  0
   28.5597  -20.0481  -17.0499 C   0  0  0  0  0  0  0  0  0  0  0  0
   28.2360  -18.6028  -16.8519 C   0  0  0  0  0  0  0  0  0  0  0  0
   27.6228  -18.5951  -15.4641 C   0  0  0  0  0  0  0  0  0  0  0  0
   28.3064  -19.7453  -14.7558 C   0  0  1  0  0  0  0  0  0  0  0  0
   27.2945  -20.5304  -13.9639 C   0  0  0  0  0  0  0  0  0  0  0  0
   26.8344  -21.6033  -14.4298 O   0  0  0  0  0  0  0  0  0  0  0  0
   25.2147  -21.2072   -8.1795 C   0  0  0  0  0  0  0  0  0  0  0  0
   24.9997  -21.4120   -9.6478 C   0  0  0  0  0  0  0  0  0  0  0  0
   26.0453  -20.7589  -10.4847 C   0  0  2  0  0  0  0  0  0  0  0  0
   25.9344  -19.2543  -10.1250 C   0  0  0  0  0  0  0  0  0  0  0  0
   25.9126  -20.8859  -11.9619 C   0  0  2  0  0  0  0  0  0  0  0  0
   26.8615  -20.0576  -12.6919 N   0  0  0  0  0  0  0  0  0  0  0  0
   24.5834  -20.4164  -12.4308 C   0  0  0  0  0  0  0  0  0  0  0  0
   24.4652  -19.1559  -12.6478 O   0  0  0  0  0  0  0  0  0  0  0  0
   23.4388  -21.1730  -12.6738 N   0  0  0  0  0  0  0  0  0  0  0  0
   22.2737  -20.5558  -13.3996 C   0  0  1  0  0  0  0  0  0  0  0  0
   22.0842  -21.4453  -14.5813 C   0  0  0  0  0  0  0  0  0  0  0  0
   20.9084  -21.1846  -15.4145 C   0  0  0  0  0  0  0  0  0  0  0  0
   19.9327  -20.2249  -15.4120 C   0  0  0  0  0  0  0  0  0  0  0  0
   19.0950  -20.4245  -16.4549 N   0  0  0  0  0  0  0  0  0  0  0  0
   19.5407  -21.4908  -17.0990 C   0  0  0  0  0  0  0  0  0  0  0  0
   20.6341  -21.9755  -16.4991 N   0  0  0  0  0  0  0  0  0  0  0  0
   21.1664  -20.6447  -12.4244 C   0  0  0  0  0  0  0  0  0  0  0  0
   19.9837  -19.9674  -12.5673 O   0  0  0  0  0  0  0  0  0  0  0  0
   21.2851  -21.3667  -11.4078 O   0  0  0  0  0  0  0  0  0  0  0  0
  2  1  1  0
  3  2  1  0
  4  3  1  0
  4  5  1  0
  5  1  1  0
  5  6  1  6
  6  7  2  0
  9  8  1  0
  9 10  1  0
 10 11  1  6
 12 10  1  0
 13  6  1  0
 12 13  1  6
 14 12  1  0
 14 15  2  0
 16 14  1  0
 17 16  1  0
 18 19  1  0
 17 18  1  6
 19 23  1  0
 20 21  1  0
 20 19  2  0
 21 22  1  0
 22 23  2  0
 24 17  1  0
 24 25  1  0
 26 24  2  0
M  END
$$$$
