PIH.pdb
     RDKit          3D

 26 27  0  0  1  0  0  0  0  0999 V2000
   27.7057  -19.9692  -16.2052 N   0  0  0  0  0  0  0  0  0  0  0  0
   29.1310  -19.8254  -16.0654 C   0  0  0  0  0  0  0  0  0  0  0  0
   29.7489  -21.0802  -16.5916 C   0  0  0  0  0  0  0  0  0  0  0  0
   28.7019  -22.1243  -16.2515 C   0  0  0  0  0  0  0  0  0  0  0  0
   27.3958  -21.3600  -16.2943 C   0  0  1  0  0  0  0  0  0  0  0  0
   26.5343  -21.7563  -15.1246 C   0  0  0  0  0  0  0  0  0  0  0  0
   26.0844  -22.9276  -15.0502 O   0  0  0  0  0  0  0  0  0  0  0  0
   25.7093  -20.7290   -9.1943 C   0  0  0  0  0  0  0  0  0  0  0  0
   25.0653  -21.1279  -10.4867 C   0  0  0  0  0  0  0  0  0  0  0  0
   25.9340  -20.8757  -11.6708 C   0  0  2  0  0  0  0  0  0  0  0  0
   26.1472  -19.3395  -11.6649 C   0  0  0  0  0  0  0  0  0  0  0  0
   25.3940  -21.2563  -13.0048 C   0  0  2  0  0  0  0  0  0  0  0  0
   26.2316  -20.8065  -14.1073 N   0  0  0  0  0  0  0  0  0  0  0  0
   24.0785  -20.6158  -13.2619 C   0  0  0  0  0  0  0  0  0  0  0  0
   24.0672  -19.3325  -13.3159 O   0  0  0  0  0  0  0  0  0  0  0  0
   22.8443  -21.2315  -13.4598 N   0  0  0  0  0  0  0  0  0  0  0  0
   21.6255  -20.3932  -13.7376 C   0  0  1  0  0  0  0  0  0  0  0  0
   21.3132  -20.6889  -15.1654 C   0  0  0  0  0  0  0  0  0  0  0  0
   20.0893  -20.0921  -15.7045 C   0  0  0  0  0  0  0  0  0  0  0  0
   19.1271  -19.2646  -15.1921 C   0  0  0  0  0  0  0  0  0  0  0  0
   18.2216  -18.9697  -16.1526 N   0  0  0  0  0  0  0  0  0  0  0  0
   18.6124  -19.6017  -17.2473 C   0  0  0  0  0  0  0  0  0  0  0  0
   19.7365  -20.2889  -17.0136 N   0  0  0  0  0  0  0  0  0  0  0  0
   20.6132  -20.9256  -12.8012 C   0  0  0  0  0  0  0  0  0  0  0  0
   20.6842  -22.1789  -12.2517 O   0  0  0  0  0  0  0  0  0  0  0  0
   19.6313  -20.2200  -12.4745 O   0  0  0  0  0  0  0  0  0  0  0  0
  2  1  1  0
  3  2  1  0
  4  3  1  0
  4  5  1  0
  5  1  1  0
  5  6  1  1
  6  7  2  0
  9  8  1  0
  9 10  1  0
 10 11  1  6
 12 10  1  0
 13  6  1  0
 12 13  1  6
 14 12  1  0
 14 15  2  0
 16 14  1  0
 17 16  1  0
 18 19  1  0
 17 18  1  6
 19 23  1  0
 20 21  1  0
 20 19  2  0
 21 22  1  0
 22 23  2  0
 24 17  1  0
 24 25  1  0
 26 24  2  0
M  END
$$$$
