PIH.pdb
     RDKit          3D

 26 27  0  0  1  0  0  0  0  0999 V2000
   28.0978  -19.3499  -16.0121 N   0  0  0  0  0  0  0  0  0  0  0  0
   27.7495  -18.3352  -16.9718 C   0  0  0  0  0  0  0  0  0  0  0  0
   27.6407  -17.0467  -16.2229 C   0  0  0  0  0  0  0  0  0  0  0  0
   27.1452  -17.5028  -14.8633 C   0  0  0  0  0  0  0  0  0  0  0  0
   27.7207  -18.8950  -14.7125 C   0  0  1  0  0  0  0  0  0  0  0  0
   26.6774  -19.8192  -14.1424 C   0  0  0  0  0  0  0  0  0  0  0  0
   26.3623  -20.8640  -14.7661 O   0  0  0  0  0  0  0  0  0  0  0  0
   26.4515  -20.9138   -8.7721 C   0  0  0  0  0  0  0  0  0  0  0  0
   26.3884  -21.1393  -10.2517 C   0  0  0  0  0  0  0  0  0  0  0  0
   25.1599  -20.5704  -10.8742 C   0  0  2  0  0  0  0  0  0  0  0  0
   24.0266  -21.5273  -10.4207 C   0  0  0  0  0  0  0  0  0  0  0  0
   25.1234  -20.4919  -12.3602 C   0  0  2  0  0  0  0  0  0  0  0  0
   26.0512  -19.5091  -12.9013 N   0  0  0  0  0  0  0  0  0  0  0  0
   23.7936  -20.0447  -12.8487 C   0  0  0  0  0  0  0  0  0  0  0  0
   23.4232  -18.8647  -12.5017 O   0  0  0  0  0  0  0  0  0  0  0  0
   22.8893  -20.7427  -13.6466 N   0  0  0  0  0  0  0  0  0  0  0  0
   21.6417  -20.0590  -14.1379 C   0  0  1  0  0  0  0  0  0  0  0  0
   21.4815  -20.5757  -15.5275 C   0  0  0  0  0  0  0  0  0  0  0  0
   22.3249  -19.9613  -16.5551 C   0  0  0  0  0  0  0  0  0  0  0  0
   23.2265  -18.9317  -16.5574 C   0  0  0  0  0  0  0  0  0  0  0  0
   23.7741  -18.8087  -17.7880 N   0  0  0  0  0  0  0  0  0  0  0  0
   23.2244  -19.7468  -18.5418 C   0  0  0  0  0  0  0  0  0  0  0  0
   22.3451  -20.4617  -17.8303 N   0  0  0  0  0  0  0  0  0  0  0  0
   20.5916  -20.5413  -13.2161 C   0  0  0  0  0  0  0  0  0  0  0  0
   19.4484  -19.8360  -12.9453 O   0  0  0  0  0  0  0  0  0  0  0  0
   20.7245  -21.6453  -12.6396 O   0  0  0  0  0  0  0  0  0  0  0  0
  2  1  1  0
  3  2  1  0
  4  3  1  0
  4  5  1  0
  5  1  1  0
  5  6  1  6
  6  7  2  0
  9  8  1  0
  9 10  1  0
 10 11  1  6
 12 10  1  0
 13  6  1  0
 12 13  1  1
 14 12  1  0
 14 15  2  0
 16 14  1  0
 17 16  1  0
 18 19  1  0
 17 18  1  6
 19 23  1  0
 20 21  1  0
 20 19  2  0
 21 22  1  0
 22 23  2  0
 24 17  1  0
 24 25  1  0
 26 24  2  0
M  END
$$$$
