PIH.pdb
     RDKit          3D

 26 27  0  0  1  0  0  0  0  0999 V2000
   44.1044  -10.3768   -6.5050 N   0  0  0  0  0  0  0  0  0  0  0  0
   45.0134   -9.6631   -5.6469 C   0  0  0  0  0  0  0  0  0  0  0  0
   44.4494   -9.7286   -4.2646 C   0  0  0  0  0  0  0  0  0  0  0  0
   42.9548   -9.7468   -4.5250 C   0  0  0  0  0  0  0  0  0  0  0  0
   42.8263  -10.4277   -5.8710 C   0  0  1  0  0  0  0  0  0  0  0  0
   41.8185   -9.6969   -6.7182 C   0  0  0  0  0  0  0  0  0  0  0  0
   42.2061   -9.0207   -7.7042 O   0  0  0  0  0  0  0  0  0  0  0  0
   36.9679  -11.6943   -6.4035 C   0  0  0  0  0  0  0  0  0  0  0  0
   37.8569  -11.0616   -7.4300 C   0  0  0  0  0  0  0  0  0  0  0  0
   38.1052   -9.6153   -7.1714 C   0  0  2  0  0  0  0  0  0  0  0  0
   37.2330   -8.8860   -8.2264 C   0  0  0  0  0  0  0  0  0  0  0  0
   39.5037   -9.1275   -7.3195 C   0  0  2  0  0  0  0  0  0  0  0  0
   40.4317   -9.7727   -6.4019 N   0  0  0  0  0  0  0  0  0  0  0  0
   39.6132   -7.6826   -6.9920 C   0  0  0  0  0  0  0  0  0  0  0  0
   39.2967   -7.3411   -5.7949 O   0  0  0  0  0  0  0  0  0  0  0  0
   40.0239   -6.6400   -7.8203 N   0  0  0  0  0  0  0  0  0  0  0  0
   39.9652   -5.2209   -7.3224 C   0  0  1  0  0  0  0  0  0  0  0  0
   41.3994   -4.8303   -7.2037 C   0  0  0  0  0  0  0  0  0  0  0  0
   41.6703   -3.4757   -6.7173 C   0  0  0  0  0  0  0  0  0  0  0  0
   40.8863   -2.4589   -6.2433 C   0  0  0  0  0  0  0  0  0  0  0  0
   41.6658   -1.4172   -5.8739 N   0  0  0  0  0  0  0  0  0  0  0  0
   42.9163   -1.7777   -6.1120 C   0  0  0  0  0  0  0  0  0  0  0  0
   42.9568   -3.0144   -6.6212 N   0  0  0  0  0  0  0  0  0  0  0  0
   39.2561   -4.5002   -8.4007 C   0  0  0  0  0  0  0  0  0  0  0  0
   38.6795   -3.2691   -8.2281 O   0  0  0  0  0  0  0  0  0  0  0  0
   39.1614   -5.0142   -9.5390 O   0  0  0  0  0  0  0  0  0  0  0  0
  2  1  1  0
  3  2  1  0
  4  3  1  0
  4  5  1  0
  5  1  1  0
  5  6  1  6
  6  7  2  0
  9  8  1  0
  9 10  1  0
 10 11  1  6
 12 10  1  0
 13  6  1  0
 12 13  1  1
 14 12  1  0
 14 15  2  0
 16 14  1  0
 17 16  1  0
 18 19  1  0
 17 18  1  6
 19 23  1  0
 20 21  1  0
 20 19  2  0
 21 22  1  0
 22 23  2  0
 24 17  1  0
 24 25  1  0
 26 24  2  0
M  END
$$$$
