PIH.pdb
     RDKit          3D

 26 27  0  0  1  0  0  0  0  0999 V2000
   28.3702  -20.0532  -15.8477 N   0  0  0  0  0  0  0  0  0  0  0  0
   28.1057  -19.2227  -16.9932 C   0  0  0  0  0  0  0  0  0  0  0  0
   27.9739  -17.8206  -16.4933 C   0  0  0  0  0  0  0  0  0  0  0  0
   27.3815  -18.0236  -15.1114 C   0  0  0  0  0  0  0  0  0  0  0  0
   27.9179  -19.3713  -14.6778 C   0  0  1  0  0  0  0  0  0  0  0  0
   26.8214  -20.1709  -14.0254 C   0  0  0  0  0  0  0  0  0  0  0  0
   26.4373  -21.2465  -14.5501 O   0  0  0  0  0  0  0  0  0  0  0  0
   26.3666  -20.4121   -8.5463 C   0  0  0  0  0  0  0  0  0  0  0  0
   26.3247  -20.9358   -9.9491 C   0  0  0  0  0  0  0  0  0  0  0  0
   25.1589  -20.4263  -10.7248 C   0  0  2  0  0  0  0  0  0  0  0  0
   23.9640  -21.2734  -10.2145 C   0  0  0  0  0  0  0  0  0  0  0  0
   25.2148  -20.5623  -12.2061 C   0  0  2  0  0  0  0  0  0  0  0  0
   26.2229  -19.7088  -12.8183 N   0  0  0  0  0  0  0  0  0  0  0  0
   23.9414  -20.1340  -12.8400 C   0  0  0  0  0  0  0  0  0  0  0  0
   23.6415  -18.8892  -12.7386 O   0  0  0  0  0  0  0  0  0  0  0  0
   23.0237  -20.9129  -13.5420 N   0  0  0  0  0  0  0  0  0  0  0  0
   21.7827  -20.2781  -14.1099 C   0  0  1  0  0  0  0  0  0  0  0  0
   21.6355  -20.9262  -15.4447 C   0  0  0  0  0  0  0  0  0  0  0  0
   22.4997  -20.4234  -16.5148 C   0  0  0  0  0  0  0  0  0  0  0  0
   23.4209  -19.4149  -16.6010 C   0  0  0  0  0  0  0  0  0  0  0  0
   23.9819  -19.4146  -17.8317 N   0  0  0  0  0  0  0  0  0  0  0  0
   23.4213  -20.4074  -18.5030 C   0  0  0  0  0  0  0  0  0  0  0  0
   22.5220  -21.0383  -17.7390 N   0  0  0  0  0  0  0  0  0  0  0  0
   20.7222  -20.6679  -13.1568 C   0  0  0  0  0  0  0  0  0  0  0  0
   20.8632  -21.6878  -12.2525 O   0  0  0  0  0  0  0  0  0  0  0  0
   19.6303  -20.0543  -13.1510 O   0  0  0  0  0  0  0  0  0  0  0  0
  2  1  1  0
  3  2  1  0
  4  3  1  0
  4  5  1  0
  5  1  1  0
  5  6  1  6
  6  7  2  0
  9  8  1  0
  9 10  1  0
 10 11  1  1
 12 10  1  0
 13  6  1  0
 12 13  1  6
 14 12  1  0
 14 15  2  0
 16 14  1  0
 17 16  1  0
 18 19  1  0
 17 18  1  6
 19 23  1  0
 20 21  1  0
 20 19  2  0
 21 22  1  0
 22 23  2  0
 24 17  1  0
 24 25  1  0
 26 24  2  0
M  END
$$$$
