PIH.pdb
     RDKit          3D

 26 27  0  0  1  0  0  0  0  0999 V2000
   27.2517  -19.3707  -15.2856 N   0  0  0  0  0  0  0  0  0  0  0  0
   28.5405  -18.8766  -14.8771 C   0  0  0  0  0  0  0  0  0  0  0  0
   29.5112  -20.0000  -15.0471 C   0  0  0  0  0  0  0  0  0  0  0  0
   28.6508  -21.2174  -14.7648 C   0  0  0  0  0  0  0  0  0  0  0  0
   27.2651  -20.7960  -15.2056 C   0  0  1  0  0  0  0  0  0  0  0  0
   26.2476  -21.2496  -14.1924 C   0  0  0  0  0  0  0  0  0  0  0  0
   26.0730  -22.4779  -13.9910 O   0  0  0  0  0  0  0  0  0  0  0  0
   26.3910  -20.3031   -9.1044 C   0  0  0  0  0  0  0  0  0  0  0  0
   26.0656  -20.9424  -10.4194 C   0  0  0  0  0  0  0  0  0  0  0  0
   24.8824  -20.3295  -11.0864 C   0  0  2  0  0  0  0  0  0  0  0  0
   23.6913  -20.7055  -10.1669 C   0  0  0  0  0  0  0  0  0  0  0  0
   24.5603  -20.7944  -12.4634 C   0  0  2  0  0  0  0  0  0  0  0  0
   25.4869  -20.2891  -13.4661 N   0  0  0  0  0  0  0  0  0  0  0  0
   23.2338  -20.2959  -12.9093 C   0  0  0  0  0  0  0  0  0  0  0  0
   23.1393  -19.0331  -13.1241 O   0  0  0  0  0  0  0  0  0  0  0  0
   22.0690  -21.0273  -13.1326 N   0  0  0  0  0  0  0  0  0  0  0  0
   20.8240  -20.3262  -13.6056 C   0  0  1  0  0  0  0  0  0  0  0  0
   20.2379  -21.2778  -14.5927 C   0  0  0  0  0  0  0  0  0  0  0  0
   20.8343  -21.2827  -15.9303 C   0  0  0  0  0  0  0  0  0  0  0  0
   21.8213  -20.5533  -16.5360 C   0  0  0  0  0  0  0  0  0  0  0  0
   22.0185  -21.0102  -17.7937 N   0  0  0  0  0  0  0  0  0  0  0  0
   21.1694  -22.0095  -17.9703 C   0  0  0  0  0  0  0  0  0  0  0  0
   20.4388  -22.2020  -16.8659 N   0  0  0  0  0  0  0  0  0  0  0  0
   20.0107  -20.1905  -12.3787 C   0  0  0  0  0  0  0  0  0  0  0  0
   19.0744  -19.2054  -12.2036 O   0  0  0  0  0  0  0  0  0  0  0  0
   20.1616  -21.0009  -11.4357 O   0  0  0  0  0  0  0  0  0  0  0  0
  2  1  1  0
  3  2  1  0
  4  3  1  0
  4  5  1  0
  5  1  1  0
  5  6  1  1
  6  7  2  0
  9  8  1  0
  9 10  1  0
 10 11  1  1
 12 10  1  0
 13  6  1  0
 12 13  1  6
 14 12  1  0
 14 15  2  0
 16 14  1  0
 17 16  1  0
 18 19  1  0
 17 18  1  6
 19 23  1  0
 20 21  1  0
 20 19  2  0
 21 22  1  0
 22 23  2  0
 24 17  1  0
 24 25  1  0
 26 24  2  0
M  END
$$$$
