PIH.pdb
     RDKit          3D

 26 27  0  0  1  0  0  0  0  0999 V2000
   27.4933  -19.7888  -16.1562 N   0  0  0  0  0  0  0  0  0  0  0  0
   28.8592  -19.3723  -15.9750 C   0  0  0  0  0  0  0  0  0  0  0  0
   29.7212  -20.5406  -16.3286 C   0  0  0  0  0  0  0  0  0  0  0  0
   28.8575  -21.7175  -15.9152 C   0  0  0  0  0  0  0  0  0  0  0  0
   27.4414  -21.2143  -16.0988 C   0  0  1  0  0  0  0  0  0  0  0  0
   26.5940  -21.6372  -14.9281 C   0  0  0  0  0  0  0  0  0  0  0  0
   26.3785  -22.8584  -14.7233 O   0  0  0  0  0  0  0  0  0  0  0  0
   25.6053  -20.5643   -9.1419 C   0  0  0  0  0  0  0  0  0  0  0  0
   24.9777  -21.0501  -10.4123 C   0  0  0  0  0  0  0  0  0  0  0  0
   25.8132  -20.7754  -11.6151 C   0  0  2  0  0  0  0  0  0  0  0  0
   26.0236  -19.2389  -11.5883 C   0  0  0  0  0  0  0  0  0  0  0  0
   25.2378  -21.1341  -12.9403 C   0  0  2  0  0  0  0  0  0  0  0  0
   26.0396  -20.6558  -14.0573 N   0  0  0  0  0  0  0  0  0  0  0  0
   23.9105  -20.4993  -13.1466 C   0  0  0  0  0  0  0  0  0  0  0  0
   23.8751  -19.2164  -13.0953 O   0  0  0  0  0  0  0  0  0  0  0  0
   22.6882  -21.1198  -13.3967 N   0  0  0  0  0  0  0  0  0  0  0  0
   21.4400  -20.2890  -13.5280 C   0  0  1  0  0  0  0  0  0  0  0  0
   20.9156  -20.6527  -14.8756 C   0  0  0  0  0  0  0  0  0  0  0  0
   21.5951  -20.0526  -16.0258 C   0  0  0  0  0  0  0  0  0  0  0  0
   22.6574  -19.2013  -16.1672 C   0  0  0  0  0  0  0  0  0  0  0  0
   22.9092  -19.0017  -17.4810 N   0  0  0  0  0  0  0  0  0  0  0  0
   22.0196  -19.7175  -18.1494 C   0  0  0  0  0  0  0  0  0  0  0  0
   21.2104  -20.3650  -17.3030 N   0  0  0  0  0  0  0  0  0  0  0  0
   20.5821  -20.7686  -12.4239 C   0  0  0  0  0  0  0  0  0  0  0  0
   20.8362  -21.9165  -11.7199 O   0  0  0  0  0  0  0  0  0  0  0  0
   19.5664  -20.1152  -12.0921 O   0  0  0  0  0  0  0  0  0  0  0  0
  2  1  1  0
  3  2  1  0
  4  3  1  0
  4  5  1  0
  5  1  1  0
  5  6  1  1
  6  7  2  0
  9  8  1  0
  9 10  1  0
 10 11  1  6
 12 10  1  0
 13  6  1  0
 12 13  1  6
 14 12  1  0
 14 15  2  0
 16 14  1  0
 17 16  1  0
 18 19  1  0
 17 18  1  6
 19 23  1  0
 20 21  1  0
 20 19  2  0
 21 22  1  0
 22 23  2  0
 24 17  1  0
 24 25  1  0
 26 24  2  0
M  END
$$$$
