TIV.pdb
     RDKit          3D

 23 22  0  0  1  0  0  0  0  0999 V2000
   26.0577  -19.1490  -16.6273 C   0  0  0  0  0  0  0  0  0  0  0  0
   27.0264  -20.2657  -16.8549 C   0  0  1  0  0  0  0  0  0  0  0  0
   27.9997  -19.8112  -17.7337 O   0  0  0  0  0  0  0  0  0  0  0  0
   27.5923  -20.7903  -15.5772 C   0  0  2  0  0  0  0  0  0  0  0  0
   28.5555  -21.8486  -15.8384 N   0  0  0  0  0  0  0  0  0  0  0  0
   26.5746  -21.2479  -14.6183 C   0  0  0  0  0  0  0  0  0  0  0  0
   25.9419  -22.2944  -14.8683 O   0  0  0  0  0  0  0  0  0  0  0  0
   27.5613  -21.1374   -9.5284 C   0  0  0  0  0  0  0  0  0  0  0  0
   26.9295  -21.4822  -10.8525 C   0  0  0  0  0  0  0  0  0  0  0  0
   25.7135  -20.5948  -11.1567 C   0  0  2  0  0  0  0  0  0  0  0  0
   24.7328  -20.8718  -10.0527 C   0  0  0  0  0  0  0  0  0  0  0  0
   25.2556  -20.9729  -12.5264 C   0  0  2  0  0  0  0  0  0  0  0  0
   26.3150  -20.5208  -13.4392 N   0  0  0  0  0  0  0  0  0  0  0  0
   23.9907  -20.3709  -12.9679 C   0  0  0  0  0  0  0  0  0  0  0  0
   23.9567  -19.0982  -13.0756 O   0  0  0  0  0  0  0  0  0  0  0  0
   22.4404  -20.5609  -16.1483 C   0  0  0  0  0  0  0  0  0  0  0  0
   21.3331  -20.8655  -15.1917 C   0  0  1  0  0  0  0  0  0  0  0  0
   21.0258  -22.3508  -15.1310 C   0  0  0  0  0  0  0  0  0  0  0  0
   21.6414  -20.4342  -13.7718 C   0  0  2  0  0  0  0  0  0  0  0  0
   22.8379  -21.1174  -13.2731 N   0  0  0  0  0  0  0  0  0  0  0  0
   20.5106  -20.6940  -12.8460 C   0  0  0  0  0  0  0  0  0  0  0  0
   19.4133  -19.8502  -12.7545 O   0  0  0  0  0  0  0  0  0  0  0  0
   20.4903  -21.7150  -12.0811 O   0  0  0  0  0  0  0  0  0  0  0  0
  2  3  1  0
  2  1  1  1
  4  2  1  0
  4  5  1  6
  6  4  1  0
  6 13  1  0
  7  6  2  0
  8  9  1  0
 10 11  1  1
 10 12  1  0
 10  9  1  0
 12 13  1  6
 14 12  1  0
 15 14  2  0
 17 16  1  6
 18 17  1  0
 19 20  1  1
 19 17  1  0
 20 14  1  0
 21 19  1  0
 22 21  1  0
 23 21  2  0
M  END
$$$$
