TIV.pdb
     RDKit          3D

 23 22  0  0  1  0  0  0  0  0999 V2000
   25.8436  -23.7030  -16.9302 C   0  0  0  0  0  0  0  0  0  0  0  0
   27.2695  -24.1020  -17.1412 C   0  0  1  0  0  0  0  0  0  0  0  0
   27.3273  -24.8815  -18.2880 O   0  0  0  0  0  0  0  0  0  0  0  0
   28.1836  -22.9229  -17.1897 C   0  0  2  0  0  0  0  0  0  0  0  0
   29.5678  -23.3512  -17.3179 N   0  0  0  0  0  0  0  0  0  0  0  0
   28.0338  -22.0055  -16.0493 C   0  0  0  0  0  0  0  0  0  0  0  0
   28.8873  -22.0350  -15.1392 O   0  0  0  0  0  0  0  0  0  0  0  0
   27.6650  -17.1571  -17.0936 C   0  0  0  0  0  0  0  0  0  0  0  0
   27.8605  -18.4162  -16.2887 C   0  0  0  0  0  0  0  0  0  0  0  0
   26.5847  -18.8193  -15.5346 C   0  0  2  0  0  0  0  0  0  0  0  0
   26.3061  -17.6851  -14.5894 C   0  0  0  0  0  0  0  0  0  0  0  0
   26.8821  -20.1311  -14.8868 C   0  0  2  0  0  0  0  0  0  0  0  0
   26.9479  -21.1096  -15.9813 N   0  0  0  0  0  0  0  0  0  0  0  0
   25.8882  -20.6054  -13.9150 C   0  0  0  0  0  0  0  0  0  0  0  0
   24.8166  -21.1217  -14.3814 O   0  0  0  0  0  0  0  0  0  0  0  0
   26.8742  -21.5659  -10.0040 C   0  0  0  0  0  0  0  0  0  0  0  0
   25.4968  -21.0154  -10.1874 C   0  0  1  0  0  0  0  0  0  0  0  0
   25.3998  -19.5659   -9.7473 C   0  0  0  0  0  0  0  0  0  0  0  0
   25.0292  -21.0570  -11.6285 C   0  0  2  0  0  0  0  0  0  0  0  0
   26.0599  -20.5203  -12.5213 N   0  0  0  0  0  0  0  0  0  0  0  0
   23.7669  -20.3034  -11.8333 C   0  0  0  0  0  0  0  0  0  0  0  0
   22.5178  -20.8763  -11.6435 O   0  0  0  0  0  0  0  0  0  0  0  0
   23.7666  -19.0805  -12.1971 O   0  0  0  0  0  0  0  0  0  0  0  0
  2  3  1  0
  2  1  1  6
  4  2  1  0
  4  5  1  1
  6  4  1  0
  6 13  1  0
  7  6  2  0
  8  9  1  0
 10 11  1  1
 10 12  1  0
 10  9  1  0
 12 13  1  6
 14 12  1  0
 15 14  2  0
 17 16  1  6
 18 17  1  0
 19 20  1  6
 19 17  1  0
 20 14  1  0
 21 19  1  0
 22 21  1  0
 23 21  2  0
M  END
$$$$
