TIV.pdb
     RDKit          3D

 23 22  0  0  1  0  0  0  0  0999 V2000
   22.4781  -13.4548  -21.7545 C   0  0  0  0  0  0  0  0  0  0  0  0
   22.2820  -12.8675  -20.3930 C   0  0  1  0  0  0  0  0  0  0  0  0
   20.9166  -12.7574  -20.1705 O   0  0  0  0  0  0  0  0  0  0  0  0
   22.9849  -13.6508  -19.3345 C   0  0  2  0  0  0  0  0  0  0  0  0
   22.5795  -15.0471  -19.3743 N   0  0  0  0  0  0  0  0  0  0  0  0
   22.8155  -13.1057  -17.9785 C   0  0  0  0  0  0  0  0  0  0  0  0
   21.9914  -13.6466  -17.2128 O   0  0  0  0  0  0  0  0  0  0  0  0
   27.0551  -10.9660  -15.7030 C   0  0  0  0  0  0  0  0  0  0  0  0
   25.6899  -10.8993  -16.3380 C   0  0  0  0  0  0  0  0  0  0  0  0
   24.6212  -11.5863  -15.4750 C   0  0  2  0  0  0  0  0  0  0  0  0
   25.0974  -13.0009  -15.3033 C   0  0  0  0  0  0  0  0  0  0  0  0
   23.3312  -11.4323  -16.2106 C   0  0  2  0  0  0  0  0  0  0  0  0
   23.5666  -11.9933  -17.5484 N   0  0  0  0  0  0  0  0  0  0  0  0
   22.8487  -10.0550  -16.3760 C   0  0  0  0  0  0  0  0  0  0  0  0
   23.4194   -9.3402  -17.2682 O   0  0  0  0  0  0  0  0  0  0  0  0
   19.9001   -8.9414  -17.8352 C   0  0  0  0  0  0  0  0  0  0  0  0
   19.9336   -8.2106  -16.5318 C   0  0  1  0  0  0  0  0  0  0  0  0
   19.0356   -8.8579  -15.4930 C   0  0  0  0  0  0  0  0  0  0  0  0
   21.3197   -8.1511  -15.9215 C   0  0  2  0  0  0  0  0  0  0  0  0
   21.8061   -9.4984  -15.6129 N   0  0  0  0  0  0  0  0  0  0  0  0
   21.3574   -7.3253  -14.6886 C   0  0  0  0  0  0  0  0  0  0  0  0
   21.2528   -5.9422  -14.7145 O   0  0  0  0  0  0  0  0  0  0  0  0
   21.4890   -7.8499  -13.5331 O   0  0  0  0  0  0  0  0  0  0  0  0
  2  3  1  0
  2  1  1  6
  4  2  1  0
  4  5  1  1
  6  4  1  0
  6 13  1  0
  7  6  2  0
  8  9  1  0
 10 11  1  6
 10 12  1  0
 10  9  1  0
 12 13  1  6
 14 12  1  0
 15 14  2  0
 17 16  1  6
 18 17  1  0
 19 20  1  1
 19 17  1  0
 20 14  1  0
 21 19  1  0
 22 21  1  0
 23 21  2  0
M  END
$$$$
