TIV.pdb
     RDKit          3D

 23 22  0  0  1  0  0  0  0  0999 V2000
   19.2000  -10.6964  -21.0646 C   0  0  0  0  0  0  0  0  0  0  0  0
   19.2553  -10.3958  -19.6005 C   0  0  1  0  0  0  0  0  0  0  0  0
   19.5579  -11.5758  -18.9357 O   0  0  0  0  0  0  0  0  0  0  0  0
   20.2067   -9.2889  -19.2878 C   0  0  2  0  0  0  0  0  0  0  0  0
   21.5365   -9.5974  -19.7901 N   0  0  0  0  0  0  0  0  0  0  0  0
   20.2658   -8.9396  -17.8598 C   0  0  0  0  0  0  0  0  0  0  0  0
   19.2031   -8.6692  -17.2636 O   0  0  0  0  0  0  0  0  0  0  0  0
   23.0605  -11.8995  -14.8248 C   0  0  0  0  0  0  0  0  0  0  0  0
   22.0385  -10.8835  -15.2659 C   0  0  0  0  0  0  0  0  0  0  0  0
   22.5654   -9.4465  -15.1383 C   0  0  2  0  0  0  0  0  0  0  0  0
   22.8044   -9.2394  -13.6696 C   0  0  0  0  0  0  0  0  0  0  0  0
   21.5234   -8.5665  -15.7454 C   0  0  2  0  0  0  0  0  0  0  0  0
   21.4969   -8.9085  -17.1745 N   0  0  0  0  0  0  0  0  0  0  0  0
   21.7591   -7.1214  -15.6303 C   0  0  0  0  0  0  0  0  0  0  0  0
   22.7644   -6.6427  -16.2570 O   0  0  0  0  0  0  0  0  0  0  0  0
   20.3997   -2.5123  -14.6383 C   0  0  0  0  0  0  0  0  0  0  0  0
   20.1019   -3.9547  -14.8930 C   0  0  1  0  0  0  0  0  0  0  0  0
   19.5789   -4.1884  -16.2987 C   0  0  0  0  0  0  0  0  0  0  0  0
   21.3166   -4.8473  -14.7347 C   0  0  2  0  0  0  0  0  0  0  0  0
   20.9433   -6.2571  -14.8776 N   0  0  0  0  0  0  0  0  0  0  0  0
   21.9924   -4.6525  -13.4276 C   0  0  0  0  0  0  0  0  0  0  0  0
   22.9987   -3.7159  -13.2412 O   0  0  0  0  0  0  0  0  0  0  0  0
   21.6796   -5.3420  -12.4008 O   0  0  0  0  0  0  0  0  0  0  0  0
  2  3  1  0
  2  1  1  6
  4  2  1  0
  4  5  1  1
  6  4  1  0
  6 13  1  0
  7  6  2  0
  8  9  1  0
 10 11  1  1
 10 12  1  0
 10  9  1  0
 12 13  1  6
 14 12  1  0
 15 14  2  0
 17 16  1  6
 18 17  1  0
 19 20  1  1
 19 17  1  0
 20 14  1  0
 21 19  1  0
 22 21  1  0
 23 21  2  0
M  END
$$$$
