TIV.pdb
     RDKit          3D

 23 22  0  0  1  0  0  0  0  0999 V2000
   18.6309  -10.6889  -17.6607 C   0  0  0  0  0  0  0  0  0  0  0  0
   18.1828  -12.0637  -17.2784 C   0  0  1  0  0  0  0  0  0  0  0  0
   17.2282  -12.4709  -18.1999 O   0  0  0  0  0  0  0  0  0  0  0  0
   19.3254  -13.0170  -17.1613 C   0  0  2  0  0  0  0  0  0  0  0  0
   18.8429  -14.3805  -17.0066 N   0  0  0  0  0  0  0  0  0  0  0  0
   20.2724  -12.6826  -16.0861 C   0  0  0  0  0  0  0  0  0  0  0  0
   19.9176  -12.8480  -14.9009 O   0  0  0  0  0  0  0  0  0  0  0  0
   24.8793  -14.6622  -15.8656 C   0  0  0  0  0  0  0  0  0  0  0  0
   23.6166  -13.9228  -15.5043 C   0  0  0  0  0  0  0  0  0  0  0  0
   23.7851  -12.4018  -15.6342 C   0  0  2  0  0  0  0  0  0  0  0  0
   24.9110  -12.0455  -14.7053 C   0  0  0  0  0  0  0  0  0  0  0  0
   22.4605  -11.8062  -15.2887 C   0  0  2  0  0  0  0  0  0  0  0  0
   21.5564  -12.1838  -16.3841 N   0  0  0  0  0  0  0  0  0  0  0  0
   22.4297  -10.3433  -15.1606 C   0  0  0  0  0  0  0  0  0  0  0  0
   23.1342   -9.8245  -14.2295 O   0  0  0  0  0  0  0  0  0  0  0  0
   22.1014   -7.7390  -18.3239 C   0  0  0  0  0  0  0  0  0  0  0  0
   21.3104   -7.3518  -17.1163 C   0  0  1  0  0  0  0  0  0  0  0  0
   19.8372   -7.6842  -17.2703 C   0  0  0  0  0  0  0  0  0  0  0  0
   21.7765   -8.0495  -15.8541 C   0  0  2  0  0  0  0  0  0  0  0  0
   21.6758   -9.5040  -16.0009 N   0  0  0  0  0  0  0  0  0  0  0  0
   21.0051   -7.6260  -14.6587 C   0  0  0  0  0  0  0  0  0  0  0  0
   21.2317   -6.4183  -14.0148 O   0  0  0  0  0  0  0  0  0  0  0  0
   20.0869   -8.3572  -14.1587 O   0  0  0  0  0  0  0  0  0  0  0  0
  2  3  1  0
  2  1  1  6
  4  2  1  0
  4  5  1  1
  6  4  1  0
  6 13  1  0
  7  6  2  0
  8  9  1  0
 10 11  1  1
 10 12  1  0
 10  9  1  0
 12 13  1  6
 14 12  1  0
 15 14  2  0
 17 16  1  6
 18 17  1  0
 19 20  1  6
 19 17  1  0
 20 14  1  0
 21 19  1  0
 22 21  1  0
 23 21  2  0
M  END
$$$$
