TIV.pdb
     RDKit          3D

 23 22  0  0  1  0  0  0  0  0999 V2000
   21.7594  -10.1763  -19.2924 C   0  0  0  0  0  0  0  0  0  0  0  0
   22.9330  -10.3786  -18.3876 C   0  0  1  0  0  0  0  0  0  0  0  0
   22.6698  -11.4843  -17.5912 O   0  0  0  0  0  0  0  0  0  0  0  0
   24.2145  -10.4954  -19.1440 C   0  0  2  0  0  0  0  0  0  0  0  0
   24.1779  -11.6385  -20.0429 N   0  0  0  0  0  0  0  0  0  0  0  0
   25.4090  -10.5545  -18.2870 C   0  0  0  0  0  0  0  0  0  0  0  0
   25.5909   -9.6488  -17.4477 O   0  0  0  0  0  0  0  0  0  0  0  0
   26.3141  -14.6754  -15.4855 C   0  0  0  0  0  0  0  0  0  0  0  0
   26.4033  -13.2642  -16.0071 C   0  0  0  0  0  0  0  0  0  0  0  0
   27.5390  -13.1003  -17.0280 C   0  0  2  0  0  0  0  0  0  0  0  0
   28.7924  -13.4835  -16.2936 C   0  0  0  0  0  0  0  0  0  0  0  0
   27.4794  -11.6824  -17.4915 C   0  0  2  0  0  0  0  0  0  0  0  0
   26.3334  -11.6114  -18.4089 N   0  0  0  0  0  0  0  0  0  0  0  0
   28.6639  -11.1926  -18.2086 C   0  0  0  0  0  0  0  0  0  0  0  0
   28.9981  -11.8125  -19.2747 O   0  0  0  0  0  0  0  0  0  0  0  0
   31.5454   -7.6040  -19.7142 C   0  0  0  0  0  0  0  0  0  0  0  0
   30.4023   -8.1498  -18.9208 C   0  0  1  0  0  0  0  0  0  0  0  0
   29.0792   -7.9957  -19.6487 C   0  0  0  0  0  0  0  0  0  0  0  0
   30.5492   -9.6256  -18.6084 C   0  0  2  0  0  0  0  0  0  0  0  0
   29.4313  -10.0926  -17.7841 N   0  0  0  0  0  0  0  0  0  0  0  0
   31.8260   -9.9305  -17.9155 C   0  0  0  0  0  0  0  0  0  0  0  0
   32.8739  -10.5907  -18.5404 O   0  0  0  0  0  0  0  0  0  0  0  0
   32.0261   -9.5982  -16.7001 O   0  0  0  0  0  0  0  0  0  0  0  0
  2  3  1  0
  2  1  1  6
  4  2  1  0
  4  5  1  1
  6  4  1  0
  6 13  1  0
  7  6  2  0
  8  9  1  0
 10 11  1  1
 10 12  1  0
 10  9  1  0
 12 13  1  6
 14 12  1  0
 15 14  2  0
 17 16  1  6
 18 17  1  0
 19 20  1  1
 19 17  1  0
 20 14  1  0
 21 19  1  0
 22 21  1  0
 23 21  2  0
M  END
$$$$
