TIV.pdb
     RDKit          3D

 23 22  0  0  1  0  0  0  0  0999 V2000
   28.5397  -17.9502  -15.6817 C   0  0  0  0  0  0  0  0  0  0  0  0
   27.3970  -18.7293  -15.1122 C   0  0  1  0  0  0  0  0  0  0  0  0
   26.5163  -19.0100  -16.1474 O   0  0  0  0  0  0  0  0  0  0  0  0
   27.8539  -19.9512  -14.3866 C   0  0  2  0  0  0  0  0  0  0  0  0
   28.5809  -20.8381  -15.2815 N   0  0  0  0  0  0  0  0  0  0  0  0
   26.7714  -20.6811  -13.7085 C   0  0  0  0  0  0  0  0  0  0  0  0
   26.3624  -21.7490  -14.2087 O   0  0  0  0  0  0  0  0  0  0  0  0
   26.6564  -20.7485   -8.4993 C   0  0  0  0  0  0  0  0  0  0  0  0
   26.3841  -21.1700   -9.9204 C   0  0  0  0  0  0  0  0  0  0  0  0
   25.0902  -20.5478  -10.4658 C   0  0  2  0  0  0  0  0  0  0  0  0
   23.9841  -21.1444   -9.6423 C   0  0  0  0  0  0  0  0  0  0  0  0
   25.0516  -20.8785  -11.9211 C   0  0  2  0  0  0  0  0  0  0  0  0
   26.2033  -20.1870  -12.5171 N   0  0  0  0  0  0  0  0  0  0  0  0
   23.8452  -20.4530  -12.6429 C   0  0  0  0  0  0  0  0  0  0  0  0
   23.6972  -19.1998  -12.8434 O   0  0  0  0  0  0  0  0  0  0  0  0
   22.8712  -21.2091  -16.1003 C   0  0  0  0  0  0  0  0  0  0  0  0
   21.6757  -21.5035  -15.2529 C   0  0  1  0  0  0  0  0  0  0  0  0
   21.5150  -22.9902  -14.9921 C   0  0  0  0  0  0  0  0  0  0  0  0
   21.7337  -20.8347  -13.8940 C   0  0  2  0  0  0  0  0  0  0  0  0
   22.8654  -21.3450  -13.1154 N   0  0  0  0  0  0  0  0  0  0  0  0
   20.4829  -21.0261  -13.1180 C   0  0  0  0  0  0  0  0  0  0  0  0
   19.3264  -20.3058  -13.3790 O   0  0  0  0  0  0  0  0  0  0  0  0
   20.4073  -21.8698  -12.1639 O   0  0  0  0  0  0  0  0  0  0  0  0
  2  3  1  0
  2  1  1  6
  4  2  1  0
  4  5  1  6
  6  4  1  0
  6 13  1  0
  7  6  2  0
  8  9  1  0
 10 11  1  1
 10 12  1  0
 10  9  1  0
 12 13  1  6
 14 12  1  0
 15 14  2  0
 17 16  1  1
 18 17  1  0
 19 20  1  1
 19 17  1  0
 20 14  1  0
 21 19  1  0
 22 21  1  0
 23 21  2  0
M  END
$$$$
