TIV.pdb
     RDKit          3D

 23 22  0  0  1  0  0  0  0  0999 V2000
   18.1970  -10.4883  -19.5211 C   0  0  0  0  0  0  0  0  0  0  0  0
   17.9863  -11.8785  -19.0114 C   0  0  1  0  0  0  0  0  0  0  0  0
   17.5661  -12.6625  -20.0768 O   0  0  0  0  0  0  0  0  0  0  0  0
   19.1997  -12.4196  -18.3310 C   0  0  2  0  0  0  0  0  0  0  0  0
   19.0073  -13.8159  -17.9716 N   0  0  0  0  0  0  0  0  0  0  0  0
   19.6212  -11.6407  -17.1562 C   0  0  0  0  0  0  0  0  0  0  0  0
   18.8984  -11.6506  -16.1387 O   0  0  0  0  0  0  0  0  0  0  0  0
   24.3035  -11.9677  -15.0891 C   0  0  0  0  0  0  0  0  0  0  0  0
   22.8477  -11.6595  -15.3284 C   0  0  0  0  0  0  0  0  0  0  0  0
   22.6405  -10.2238  -15.8332 C   0  0  2  0  0  0  0  0  0  0  0  0
   23.2584   -9.3410  -14.7863 C   0  0  0  0  0  0  0  0  0  0  0  0
   21.1686  -10.0577  -16.0200 C   0  0  2  0  0  0  0  0  0  0  0  0
   20.8170  -10.8950  -17.1754 N   0  0  0  0  0  0  0  0  0  0  0  0
   20.7082   -8.6904  -16.2953 C   0  0  0  0  0  0  0  0  0  0  0  0
   21.1280   -8.1387  -17.3686 O   0  0  0  0  0  0  0  0  0  0  0  0
   17.1749   -7.1178  -14.8533 C   0  0  0  0  0  0  0  0  0  0  0  0
   17.9414   -6.5252  -15.9915 C   0  0  1  0  0  0  0  0  0  0  0  0
   17.6178   -5.0557  -16.1918 C   0  0  0  0  0  0  0  0  0  0  0  0
   19.4428   -6.6106  -15.8028 C   0  0  2  0  0  0  0  0  0  0  0  0
   19.8418   -7.9753  -15.4485 N   0  0  0  0  0  0  0  0  0  0  0  0
   19.9339   -5.6737  -14.7615 C   0  0  0  0  0  0  0  0  0  0  0  0
   20.2362   -6.0851  -13.4715 O   0  0  0  0  0  0  0  0  0  0  0  0
   20.1045   -4.4324  -15.0018 O   0  0  0  0  0  0  0  0  0  0  0  0
  2  3  1  0
  2  1  1  6
  4  2  1  0
  4  5  1  1
  6  4  1  0
  6 13  1  0
  7  6  2  0
  8  9  1  0
 10 11  1  1
 10 12  1  0
 10  9  1  0
 12 13  1  6
 14 12  1  0
 15 14  2  0
 17 16  1  1
 18 17  1  0
 19 20  1  1
 19 17  1  0
 20 14  1  0
 21 19  1  0
 22 21  1  0
 23 21  2  0
M  END
$$$$
