TIV.pdb
     RDKit          3D

 23 22  0  0  1  0  0  0  0  0999 V2000
   28.8415  -18.2206  -15.5246 C   0  0  0  0  0  0  0  0  0  0  0  0
   27.6952  -18.9608  -14.9120 C   0  0  1  0  0  0  0  0  0  0  0  0
   26.8079  -19.2862  -15.9282 O   0  0  0  0  0  0  0  0  0  0  0  0
   28.1455  -20.1481  -14.1273 C   0  0  2  0  0  0  0  0  0  0  0  0
   28.8385  -21.0973  -14.9845 N   0  0  0  0  0  0  0  0  0  0  0  0
   27.0646  -20.8185  -13.3879 C   0  0  0  0  0  0  0  0  0  0  0  0
   26.6207  -21.9006  -13.8237 O   0  0  0  0  0  0  0  0  0  0  0  0
   26.9190  -20.4217   -8.1433 C   0  0  0  0  0  0  0  0  0  0  0  0
   26.6849  -20.9542   -9.5336 C   0  0  0  0  0  0  0  0  0  0  0  0
   25.3916  -20.4009  -10.1500 C   0  0  2  0  0  0  0  0  0  0  0  0
   24.2820  -20.9237   -9.2823 C   0  0  0  0  0  0  0  0  0  0  0  0
   25.3709  -20.8738  -11.5659 C   0  0  2  0  0  0  0  0  0  0  0  0
   26.5366  -20.2525  -12.2101 N   0  0  0  0  0  0  0  0  0  0  0  0
   24.1785  -20.5135  -12.3442 C   0  0  0  0  0  0  0  0  0  0  0  0
   24.0678  -19.2947  -12.7111 O   0  0  0  0  0  0  0  0  0  0  0  0
   20.7119  -21.4971  -15.5830 C   0  0  0  0  0  0  0  0  0  0  0  0
   21.9012  -21.8536  -14.7509 C   0  0  1  0  0  0  0  0  0  0  0  0
   23.2002  -21.7081  -15.5228 C   0  0  0  0  0  0  0  0  0  0  0  0
   22.0395  -20.9886  -13.5140 C   0  0  2  0  0  0  0  0  0  0  0  0
   23.1733  -21.4318  -12.6983 N   0  0  0  0  0  0  0  0  0  0  0  0
   20.8098  -20.9935  -12.6827 C   0  0  0  0  0  0  0  0  0  0  0  0
   19.8961  -19.9498  -12.6973 O   0  0  0  0  0  0  0  0  0  0  0  0
   20.5285  -21.9659  -11.9061 O   0  0  0  0  0  0  0  0  0  0  0  0
  2  3  1  0
  2  1  1  6
  4  2  1  0
  4  5  1  6
  6  4  1  0
  6 13  1  0
  7  6  2  0
  8  9  1  0
 10 11  1  1
 10 12  1  0
 10  9  1  0
 12 13  1  6
 14 12  1  0
 15 14  2  0
 17 16  1  6
 18 17  1  0
 19 20  1  1
 19 17  1  0
 20 14  1  0
 21 19  1  0
 22 21  1  0
 23 21  2  0
M  END
$$$$
