TIV.pdb
     RDKit          3D

 23 22  0  0  1  0  0  0  0  0999 V2000
   21.2140  -11.9630  -21.3606 C   0  0  0  0  0  0  0  0  0  0  0  0
   20.7971  -11.1608  -20.1691 C   0  0  1  0  0  0  0  0  0  0  0  0
   19.5080  -10.7000  -20.3972 O   0  0  0  0  0  0  0  0  0  0  0  0
   20.9252  -11.9318  -18.8974 C   0  0  2  0  0  0  0  0  0  0  0  0
   20.1869  -13.1825  -18.9786 N   0  0  0  0  0  0  0  0  0  0  0  0
   20.5252  -11.1766  -17.6999 C   0  0  0  0  0  0  0  0  0  0  0  0
   19.4328  -11.4442  -17.1586 O   0  0  0  0  0  0  0  0  0  0  0  0
   22.7451   -9.4462  -12.5483 C   0  0  0  0  0  0  0  0  0  0  0  0
   21.7393   -9.1479  -13.6303 C   0  0  0  0  0  0  0  0  0  0  0  0
   22.1079   -9.8243  -14.9590 C   0  0  2  0  0  0  0  0  0  0  0  0
   23.4449   -9.2535  -15.3385 C   0  0  0  0  0  0  0  0  0  0  0  0
   20.9928   -9.5193  -15.9037 C   0  0  2  0  0  0  0  0  0  0  0  0
   21.3562  -10.1684  -17.1711 N   0  0  0  0  0  0  0  0  0  0  0  0
   20.7555   -8.0957  -16.1763 C   0  0  0  0  0  0  0  0  0  0  0  0
   21.6932   -7.4483  -16.7542 O   0  0  0  0  0  0  0  0  0  0  0  0
   18.1381   -6.7048  -18.3679 C   0  0  0  0  0  0  0  0  0  0  0  0
   18.0885   -5.9255  -17.0935 C   0  0  1  0  0  0  0  0  0  0  0  0
   16.9565   -6.3819  -16.1910 C   0  0  0  0  0  0  0  0  0  0  0  0
   19.3602   -6.0433  -16.2772 C   0  0  2  0  0  0  0  0  0  0  0  0
   19.5654   -7.4261  -15.8380 N   0  0  0  0  0  0  0  0  0  0  0  0
   19.3527   -5.1513  -15.0908 C   0  0  0  0  0  0  0  0  0  0  0  0
   19.6680   -3.8027  -15.1703 O   0  0  0  0  0  0  0  0  0  0  0  0
   19.0534   -5.5832  -13.9282 O   0  0  0  0  0  0  0  0  0  0  0  0
  2  3  1  0
  2  1  1  6
  4  2  1  0
  4  5  1  6
  6  4  1  0
  6 13  1  0
  7  6  2  0
  8  9  1  0
 10 11  1  6
 10 12  1  0
 10  9  1  0
 12 13  1  6
 14 12  1  0
 15 14  2  0
 17 16  1  6
 18 17  1  0
 19 20  1  1
 19 17  1  0
 20 14  1  0
 21 19  1  0
 22 21  1  0
 23 21  2  0
M  END
$$$$
