TIV.pdb
     RDKit          3D

 23 22  0  0  1  0  0  0  0  0999 V2000
   21.1172  -22.2965  -11.3445 C   0  0  0  0  0  0  0  0  0  0  0  0
   22.0547  -21.2964  -11.9427 C   0  0  1  0  0  0  0  0  0  0  0  0
   21.3412  -20.1280  -12.1700 O   0  0  0  0  0  0  0  0  0  0  0  0
   23.2675  -21.0852  -11.0985 C   0  0  2  0  0  0  0  0  0  0  0  0
   22.9079  -20.4809   -9.8251 N   0  0  0  0  0  0  0  0  0  0  0  0
   24.3237  -20.3017  -11.7582 C   0  0  0  0  0  0  0  0  0  0  0  0
   24.3411  -19.0639  -11.5988 O   0  0  0  0  0  0  0  0  0  0  0  0
   29.1793  -21.0384  -10.9564 C   0  0  0  0  0  0  0  0  0  0  0  0
   27.8648  -20.4711  -11.4272 C   0  0  0  0  0  0  0  0  0  0  0  0
   27.6243  -20.7420  -12.9197 C   0  0  2  0  0  0  0  0  0  0  0  0
   28.8097  -20.1497  -13.6277 C   0  0  0  0  0  0  0  0  0  0  0  0
   26.3081  -20.1186  -13.2482 C   0  0  2  0  0  0  0  0  0  0  0  0
   25.2985  -20.9327  -12.5570 N   0  0  0  0  0  0  0  0  0  0  0  0
   25.9571  -20.0769  -14.6738 C   0  0  0  0  0  0  0  0  0  0  0  0
   25.5586  -21.1668  -15.2084 O   0  0  0  0  0  0  0  0  0  0  0  0
   24.5873  -16.7194  -16.5992 C   0  0  0  0  0  0  0  0  0  0  0  0
   24.4499  -18.1038  -17.1454 C   0  0  1  0  0  0  0  0  0  0  0  0
   24.2464  -18.1047  -18.6496 C   0  0  0  0  0  0  0  0  0  0  0  0
   25.6650  -18.9695  -16.8778 C   0  0  2  0  0  0  0  0  0  0  0  0
   26.0365  -18.9140  -15.4614 N   0  0  0  0  0  0  0  0  0  0  0  0
   26.8327  -18.5722  -17.7036 C   0  0  0  0  0  0  0  0  0  0  0  0
   27.8813  -17.8181  -17.1976 O   0  0  0  0  0  0  0  0  0  0  0  0
   26.9320  -18.9070  -18.9307 O   0  0  0  0  0  0  0  0  0  0  0  0
  2  3  1  0
  2  1  1  1
  4  2  1  0
  4  5  1  1
  6  4  1  0
  6 13  1  0
  7  6  2  0
  8  9  1  0
 10 11  1  6
 10 12  1  0
 10  9  1  0
 12 13  1  1
 14 12  1  0
 15 14  2  0
 17 16  1  6
 18 17  1  0
 19 20  1  1
 19 17  1  0
 20 14  1  0
 21 19  1  0
 22 21  1  0
 23 21  2  0
M  END
$$$$
