TIV.pdb
     RDKit          3D

 23 22  0  0  1  0  0  0  0  0999 V2000
   19.8497  -12.6244  -21.1748 C   0  0  0  0  0  0  0  0  0  0  0  0
   19.9078  -11.6783  -20.0178 C   0  0  1  0  0  0  0  0  0  0  0  0
   18.7929  -10.8548  -20.0860 O   0  0  0  0  0  0  0  0  0  0  0  0
   20.0282  -12.3914  -18.7119 C   0  0  2  0  0  0  0  0  0  0  0  0
   18.9529  -13.3580  -18.5536 N   0  0  0  0  0  0  0  0  0  0  0  0
   20.0880  -11.4949  -17.5469 C   0  0  0  0  0  0  0  0  0  0  0  0
   19.1006  -11.4328  -16.7860 O   0  0  0  0  0  0  0  0  0  0  0  0
   21.9907   -9.7361  -12.9969 C   0  0  0  0  0  0  0  0  0  0  0  0
   22.6855   -9.2211  -14.2311 C   0  0  0  0  0  0  0  0  0  0  0  0
   22.5637  -10.1994  -15.4088 C   0  0  2  0  0  0  0  0  0  0  0  0
   23.8064   -9.9930  -16.2276 C   0  0  0  0  0  0  0  0  0  0  0  0
   21.2827   -9.8628  -16.0976 C   0  0  2  0  0  0  0  0  0  0  0  0
   21.2361  -10.7183  -17.2917 N   0  0  0  0  0  0  0  0  0  0  0  0
   21.1377   -8.4680  -16.5345 C   0  0  0  0  0  0  0  0  0  0  0  0
   21.9833   -8.0332  -17.3880 O   0  0  0  0  0  0  0  0  0  0  0  0
   18.7240   -6.9151  -18.5948 C   0  0  0  0  0  0  0  0  0  0  0  0
   18.7864   -6.0371  -17.3869 C   0  0  1  0  0  0  0  0  0  0  0  0
   17.6268   -6.2882  -16.4400 C   0  0  0  0  0  0  0  0  0  0  0  0
   20.0514   -6.2347  -16.5757 C   0  0  2  0  0  0  0  0  0  0  0  0
   20.1289   -7.6064  -16.0663 N   0  0  0  0  0  0  0  0  0  0  0  0
   20.1447   -5.2864  -15.4375 C   0  0  0  0  0  0  0  0  0  0  0  0
   20.6132   -3.9890  -15.5849 O   0  0  0  0  0  0  0  0  0  0  0  0
   19.7959   -5.6191  -14.2563 O   0  0  0  0  0  0  0  0  0  0  0  0
  2  3  1  0
  2  1  1  6
  4  2  1  0
  4  5  1  1
  6  4  1  0
  6 13  1  0
  7  6  2  0
  8  9  1  0
 10 11  1  6
 10 12  1  0
 10  9  1  0
 12 13  1  6
 14 12  1  0
 15 14  2  0
 17 16  1  6
 18 17  1  0
 19 20  1  1
 19 17  1  0
 20 14  1  0
 21 19  1  0
 22 21  1  0
 23 21  2  0
M  END
$$$$
