TIV.pdb
     RDKit          3D

 23 22  0  0  1  0  0  0  0  0999 V2000
   26.1356  -21.2967  -16.8140 C   0  0  0  0  0  0  0  0  0  0  0  0
   26.4889  -22.7498  -16.7909 C   0  0  1  0  0  0  0  0  0  0  0  0
   27.6442  -22.9181  -17.5412 O   0  0  0  0  0  0  0  0  0  0  0  0
   26.6137  -23.2776  -15.4002 C   0  0  2  0  0  0  0  0  0  0  0  0
   26.8464  -24.7134  -15.4148 N   0  0  0  0  0  0  0  0  0  0  0  0
   25.4695  -22.9520  -14.5345 C   0  0  0  0  0  0  0  0  0  0  0  0
   24.4861  -23.7205  -14.5251 O   0  0  0  0  0  0  0  0  0  0  0  0
   26.3972  -20.9358   -9.8155 C   0  0  0  0  0  0  0  0  0  0  0  0
   25.7120  -21.6335  -10.9624 C   0  0  0  0  0  0  0  0  0  0  0  0
   24.8108  -20.6786  -11.7592 C   0  0  2  0  0  0  0  0  0  0  0  0
   23.7645  -20.2142  -10.7861 C   0  0  0  0  0  0  0  0  0  0  0  0
   24.2979  -21.4639  -12.9207 C   0  0  2  0  0  0  0  0  0  0  0  0
   25.4790  -21.7947  -13.7302 N   0  0  0  0  0  0  0  0  0  0  0  0
   23.3351  -20.7713  -13.7871 C   0  0  0  0  0  0  0  0  0  0  0  0
   23.6986  -19.6523  -14.2852 O   0  0  0  0  0  0  0  0  0  0  0  0
   21.8123  -21.6806  -17.0184 C   0  0  0  0  0  0  0  0  0  0  0  0
   20.6854  -21.2830  -16.1206 C   0  0  1  0  0  0  0  0  0  0  0  0
   19.9377  -22.4875  -15.5780 C   0  0  0  0  0  0  0  0  0  0  0  0
   21.1413  -20.4843  -14.9158 C   0  0  2  0  0  0  0  0  0  0  0  0
   22.0566  -21.2750  -14.0887 N   0  0  0  0  0  0  0  0  0  0  0  0
   20.0032  -20.0253  -14.0807 C   0  0  0  0  0  0  0  0  0  0  0  0
   19.1348  -19.0239  -14.4898 O   0  0  0  0  0  0  0  0  0  0  0  0
   19.7640  -20.5328  -12.9348 O   0  0  0  0  0  0  0  0  0  0  0  0
  2  3  1  0
  2  1  1  1
  4  2  1  0
  4  5  1  6
  6  4  1  0
  6 13  1  0
  7  6  2  0
  8  9  1  0
 10 11  1  1
 10 12  1  0
 10  9  1  0
 12 13  1  6
 14 12  1  0
 15 14  2  0
 17 16  1  1
 18 17  1  0
 19 20  1  1
 19 17  1  0
 20 14  1  0
 21 19  1  0
 22 21  1  0
 23 21  2  0
M  END
$$$$
