TIV.pdb
     RDKit          3D

 23 22  0  0  1  0  0  0  0  0999 V2000
   18.1770   -8.7025  -13.3516 C   0  0  0  0  0  0  0  0  0  0  0  0
   17.1542   -9.7384  -13.6948 C   0  0  1  0  0  0  0  0  0  0  0  0
   17.8178  -10.8222  -14.2526 O   0  0  0  0  0  0  0  0  0  0  0  0
   16.3124  -10.1107  -12.5197 C   0  0  2  0  0  0  0  0  0  0  0  0
   15.4076  -11.1976  -12.8599 N   0  0  0  0  0  0  0  0  0  0  0  0
   15.5653   -8.9832  -11.9409 C   0  0  0  0  0  0  0  0  0  0  0  0
   14.6133   -8.4992  -12.5868 O   0  0  0  0  0  0  0  0  0  0  0  0
   12.8480   -9.1950   -7.7945 C   0  0  0  0  0  0  0  0  0  0  0  0
   13.4347   -8.6416   -9.0678 C   0  0  0  0  0  0  0  0  0  0  0  0
   14.6678   -7.7664   -8.7986 C   0  0  2  0  0  0  0  0  0  0  0  0
   14.1866   -6.6692   -7.8921 C   0  0  0  0  0  0  0  0  0  0  0  0
   15.1597   -7.3196  -10.1355 C   0  0  2  0  0  0  0  0  0  0  0  0
   15.9153   -8.4556  -10.6817 N   0  0  0  0  0  0  0  0  0  0  0  0
   16.0442   -6.1470  -10.1334 C   0  0  0  0  0  0  0  0  0  0  0  0
   17.1926   -6.2837   -9.5902 O   0  0  0  0  0  0  0  0  0  0  0  0
   17.5970   -4.3889  -12.9679 C   0  0  0  0  0  0  0  0  0  0  0  0
   16.9289   -3.3492  -12.1274 C   0  0  1  0  0  0  0  0  0  0  0  0
   15.5838   -2.9353  -12.6965 C   0  0  0  0  0  0  0  0  0  0  0  0
   16.6683   -3.8125  -10.7080 C   0  0  2  0  0  0  0  0  0  0  0  0
   15.6920   -4.9051  -10.6926 N   0  0  0  0  0  0  0  0  0  0  0  0
   16.1829   -2.7132   -9.8367 C   0  0  0  0  0  0  0  0  0  0  0  0
   17.0413   -1.8029   -9.2374 O   0  0  0  0  0  0  0  0  0  0  0  0
   14.9416   -2.5484   -9.5927 O   0  0  0  0  0  0  0  0  0  0  0  0
  2  3  1  0
  2  1  1  1
  4  2  1  0
  4  5  1  6
  6  4  1  0
  6 13  1  0
  7  6  2  0
  8  9  1  0
 10 11  1  1
 10 12  1  0
 10  9  1  0
 12 13  1  1
 14 12  1  0
 15 14  2  0
 17 16  1  6
 18 17  1  0
 19 20  1  6
 19 17  1  0
 20 14  1  0
 21 19  1  0
 22 21  1  0
 23 21  2  0
M  END
$$$$
