IQF.pdb
     RDKit          3D

 29 29  0  0  1  0  0  0  0  0999 V2000
   18.8356  -17.9804  -12.2487 C   0  0  0  0  0  0  0  0  0  0  0  0
   18.7221  -19.4825  -12.5134 C   0  0  0  0  0  0  0  0  0  0  0  0
   19.9492  -20.1276  -11.9701 C   0  0  2  0  0  0  0  0  0  0  0  0
   19.9199  -20.0943  -10.4500 C   0  0  0  0  0  0  0  0  0  0  0  0
   21.2491  -19.6845  -12.5259 C   0  0  2  0  0  0  0  0  0  0  0  0
   21.1603  -19.7745  -14.0086 N   0  0  0  0  0  0  0  0  0  0  0  0
   22.4665  -20.3634  -12.1173 C   0  0  0  0  0  0  0  0  0  0  0  0
   22.4351  -21.0933  -11.0568 O   0  0  0  0  0  0  0  0  0  0  0  0
   27.9116  -20.7273  -15.3856 N   0  0  0  0  0  0  0  0  0  0  0  0
   28.2105  -21.4833  -14.2360 C   0  0  0  0  0  0  0  0  0  0  0  0
   29.3478  -22.0500  -14.1860 O   0  0  0  0  0  0  0  0  0  0  0  0
   27.2240  -21.6133  -13.1117 C   0  0  0  0  0  0  0  0  0  0  0  0
   25.9366  -20.9275  -13.4410 C   0  0  0  0  0  0  0  0  0  0  0  0
   24.9360  -20.9683  -12.2846 C   0  0  2  0  0  0  0  0  0  0  0  0
   23.7285  -20.3382  -12.7512 N   0  0  0  0  0  0  0  0  0  0  0  0
   25.5272  -20.4806  -11.0636 C   0  0  0  0  0  0  0  0  0  0  0  0
   25.4269  -19.2184  -10.8431 O   0  0  0  0  0  0  0  0  0  0  0  0
   26.2163  -21.2003  -10.0584 N   0  0  0  0  0  0  0  0  0  0  0  0
   27.0282  -20.4908   -9.0822 C   0  0  1  0  0  0  0  0  0  0  0  0
   26.4851  -20.3890   -7.7203 C   0  0  0  0  0  0  0  0  0  0  0  0
   27.3812  -19.9731   -6.6478 C   0  0  0  0  0  0  0  0  0  0  0  0
   27.4616  -18.6327   -6.3202 C   0  0  0  0  0  0  0  0  0  0  0  0
   28.2902  -18.1540   -5.3103 C   0  0  0  0  0  0  0  0  0  0  0  0
   29.0683  -19.0300   -4.5954 C   0  0  0  0  0  0  0  0  0  0  0  0
   29.0019  -20.3697   -4.9061 C   0  0  0  0  0  0  0  0  0  0  0  0
   28.1606  -20.8400   -5.9286 C   0  0  0  0  0  0  0  0  0  0  0  0
   28.4190  -21.0833   -9.0818 C   0  0  0  0  0  0  0  0  0  0  0  0
   29.4116  -20.4132   -8.4440 O   0  0  0  0  0  0  0  0  0  0  0  0
   28.6092  -22.1539   -9.6610 O   0  0  0  0  0  0  0  0  0  0  0  0
  2  3  1  0
  2  1  1  0
  3  5  1  0
  3  4  1  1
  5  7  1  0
  5  6  1  6
  7  8  2  0
  7 15  1  0
  9 10  1  0
 10 11  2  0
 10 12  1  0
 12 13  1  0
 14 13  1  6
 14 16  1  0
 15 14  1  0
 16 17  2  0
 18 16  1  0
 18 19  1  0
 19 27  1  0
 19 20  1  1
 21 26  2  0
 21 20  1  0
 22 21  1  0
 23 24  1  0
 23 22  2  0
 24 25  2  0
 25 26  1  0
 27 28  1  0
 29 27  2  0
M  END
$$$$
