IQF.pdb
     RDKit          3D

 29 29  0  0  1  0  0  0  0  0999 V2000
   27.4335  -16.8224  -19.0929 C   0  0  0  0  0  0  0  0  0  0  0  0
   28.2017  -17.7187  -18.1204 C   0  0  0  0  0  0  0  0  0  0  0  0
   27.2227  -18.2521  -17.1333 C   0  0  2  0  0  0  0  0  0  0  0  0
   26.3998  -17.1115  -16.5548 C   0  0  0  0  0  0  0  0  0  0  0  0
   27.7435  -19.1665  -16.0905 C   0  0  2  0  0  0  0  0  0  0  0  0
   28.4550  -20.2775  -16.7787 N   0  0  0  0  0  0  0  0  0  0  0  0
   26.8204  -19.7597  -15.1386 C   0  0  0  0  0  0  0  0  0  0  0  0
   25.9982  -20.6571  -15.5595 O   0  0  0  0  0  0  0  0  0  0  0  0
   26.8239  -21.9431  -10.3188 N   0  0  0  0  0  0  0  0  0  0  0  0
   25.6059  -21.3789   -9.8938 C   0  0  0  0  0  0  0  0  0  0  0  0
   24.9117  -22.0420   -9.0598 O   0  0  0  0  0  0  0  0  0  0  0  0
   25.1459  -20.0442  -10.4050 C   0  0  0  0  0  0  0  0  0  0  0  0
   26.0718  -19.5204  -11.4560 C   0  0  0  0  0  0  0  0  0  0  0  0
   25.7262  -20.0360  -12.8542 C   0  0  2  0  0  0  0  0  0  0  0  0
   26.6996  -19.4822  -13.7589 N   0  0  0  0  0  0  0  0  0  0  0  0
   24.3304  -19.8372  -13.1550 C   0  0  0  0  0  0  0  0  0  0  0  0
   23.9151  -18.6210  -13.1679 O   0  0  0  0  0  0  0  0  0  0  0  0
   23.3343  -20.8019  -13.4388 N   0  0  0  0  0  0  0  0  0  0  0  0
   21.9545  -20.3867  -13.6368 C   0  0  1  0  0  0  0  0  0  0  0  0
   21.4399  -20.4389  -15.0124 C   0  0  0  0  0  0  0  0  0  0  0  0
   21.8895  -19.4239  -15.9578 C   0  0  0  0  0  0  0  0  0  0  0  0
   23.0228  -19.6624  -16.7124 C   0  0  0  0  0  0  0  0  0  0  0  0
   23.5170  -18.7472  -17.6364 C   0  0  0  0  0  0  0  0  0  0  0  0
   22.8691  -17.5520  -17.8246 C   0  0  0  0  0  0  0  0  0  0  0  0
   21.7378  -17.2958  -17.0829 C   0  0  0  0  0  0  0  0  0  0  0  0
   21.2490  -18.2290  -16.1529 C   0  0  0  0  0  0  0  0  0  0  0  0
   21.0712  -21.1603  -12.6844 C   0  0  0  0  0  0  0  0  0  0  0  0
   19.7571  -20.8321  -12.6037 O   0  0  0  0  0  0  0  0  0  0  0  0
   21.5706  -22.0626  -12.0105 O   0  0  0  0  0  0  0  0  0  0  0  0
  2  3  1  0
  2  1  1  0
  3  5  1  0
  3  4  1  1
  5  7  1  0
  5  6  1  6
  7  8  2  0
  7 15  1  0
  9 10  1  0
 10 11  2  0
 10 12  1  0
 12 13  1  0
 14 13  1  1
 14 16  1  0
 15 14  1  0
 16 17  2  0
 18 16  1  0
 18 19  1  0
 19 27  1  0
 19 20  1  6
 21 26  2  0
 21 20  1  0
 22 21  1  0
 23 24  1  0
 23 22  2  0
 24 25  2  0
 25 26  1  0
 27 28  1  0
 29 27  2  0
M  END
$$$$
