IQF.pdb
     RDKit          3D

 29 29  0  0  1  0  0  0  0  0999 V2000
   28.5795  -17.3285  -17.7007 C   0  0  0  0  0  0  0  0  0  0  0  0
   28.8174  -18.5360  -16.7925 C   0  0  0  0  0  0  0  0  0  0  0  0
   27.5514  -18.7979  -16.0537 C   0  0  2  0  0  0  0  0  0  0  0  0
   27.0473  -17.5101  -15.4211 C   0  0  0  0  0  0  0  0  0  0  0  0
   27.5432  -19.9392  -15.1092 C   0  0  2  0  0  0  0  0  0  0  0  0
   28.0289  -21.1378  -15.8452 N   0  0  0  0  0  0  0  0  0  0  0  0
   26.3039  -20.3045  -14.4451 C   0  0  0  0  0  0  0  0  0  0  0  0
   25.4584  -21.0361  -15.0841 O   0  0  0  0  0  0  0  0  0  0  0  0
   25.9092  -19.5799   -8.4634 N   0  0  0  0  0  0  0  0  0  0  0  0
   26.0397  -20.9020   -8.9296 C   0  0  0  0  0  0  0  0  0  0  0  0
   26.6326  -21.7349   -8.1732 O   0  0  0  0  0  0  0  0  0  0  0  0
   25.4977  -21.3125  -10.2682 C   0  0  0  0  0  0  0  0  0  0  0  0
   24.8844  -20.1501  -10.9817 C   0  0  0  0  0  0  0  0  0  0  0  0
   24.6904  -20.4132  -12.4762 C   0  0  2  0  0  0  0  0  0  0  0  0
   25.8842  -19.9602  -13.1411 N   0  0  0  0  0  0  0  0  0  0  0  0
   23.4227  -19.9043  -12.9368 C   0  0  0  0  0  0  0  0  0  0  0  0
   23.3694  -18.6457  -13.1914 O   0  0  0  0  0  0  0  0  0  0  0  0
   22.2082  -20.5993  -13.1492 N   0  0  0  0  0  0  0  0  0  0  0  0
   21.1188  -19.9579  -13.8686 C   0  0  1  0  0  0  0  0  0  0  0  0
   21.4384  -19.3992  -15.1899 C   0  0  0  0  0  0  0  0  0  0  0  0
   20.3556  -18.8194  -15.9757 C   0  0  0  0  0  0  0  0  0  0  0  0
   19.6482  -19.6277  -16.8456 C   0  0  0  0  0  0  0  0  0  0  0  0
   18.6015  -19.1533  -17.6298 C   0  0  0  0  0  0  0  0  0  0  0  0
   18.2374  -17.8322  -17.5529 C   0  0  0  0  0  0  0  0  0  0  0  0
   18.9295  -17.0106  -16.6916 C   0  0  0  0  0  0  0  0  0  0  0  0
   19.9849  -17.5027  -15.9050 C   0  0  0  0  0  0  0  0  0  0  0  0
   19.9507  -20.9151  -13.9389 C   0  0  0  0  0  0  0  0  0  0  0  0
   20.1958  -22.2222  -14.2079 O   0  0  0  0  0  0  0  0  0  0  0  0
   18.8135  -20.4798  -13.7518 O   0  0  0  0  0  0  0  0  0  0  0  0
  2  3  1  0
  2  1  1  0
  3  5  1  0
  3  4  1  1
  5  7  1  0
  5  6  1  6
  7  8  2  0
  7 15  1  0
  9 10  1  0
 10 11  2  0
 10 12  1  0
 12 13  1  0
 14 13  1  1
 14 16  1  0
 15 14  1  0
 16 17  2  0
 18 16  1  0
 18 19  1  0
 19 27  1  0
 19 20  1  6
 21 26  2  0
 21 20  1  0
 22 21  1  0
 23 24  1  0
 23 22  2  0
 24 25  2  0
 25 26  1  0
 27 28  1  0
 29 27  2  0
M  END
$$$$
