IQF.pdb
     RDKit          3D

 29 29  0  0  1  0  0  0  0  0999 V2000
   27.7513  -16.4146  -19.2971 C   0  0  0  0  0  0  0  0  0  0  0  0
   28.5344  -17.3537  -18.3784 C   0  0  0  0  0  0  0  0  0  0  0  0
   27.5653  -17.9562  -17.4217 C   0  0  2  0  0  0  0  0  0  0  0  0
   26.8279  -16.8568  -16.6731 C   0  0  0  0  0  0  0  0  0  0  0  0
   28.0741  -19.0174  -16.5218 C   0  0  2  0  0  0  0  0  0  0  0  0
   28.5662  -20.1340  -17.3735 N   0  0  0  0  0  0  0  0  0  0  0  0
   27.1886  -19.5866  -15.5207 C   0  0  0  0  0  0  0  0  0  0  0  0
   26.2540  -20.3823  -15.9102 O   0  0  0  0  0  0  0  0  0  0  0  0
   26.6965  -22.0493  -10.9419 N   0  0  0  0  0  0  0  0  0  0  0  0
   25.7097  -21.1893  -10.4232 C   0  0  0  0  0  0  0  0  0  0  0  0
   24.7992  -21.7083   -9.7027 O   0  0  0  0  0  0  0  0  0  0  0  0
   25.7332  -19.7155  -10.7087 C   0  0  0  0  0  0  0  0  0  0  0  0
   26.7149  -19.3906  -11.7889 C   0  0  0  0  0  0  0  0  0  0  0  0
   26.2467  -19.8567  -13.1687 C   0  0  2  0  0  0  0  0  0  0  0  0
   27.2162  -19.3853  -14.1229 N   0  0  0  0  0  0  0  0  0  0  0  0
   24.8610  -19.5264  -13.3902 C   0  0  0  0  0  0  0  0  0  0  0  0
   24.5968  -18.2898  -13.6200 O   0  0  0  0  0  0  0  0  0  0  0  0
   23.7310  -20.3785  -13.3874 N   0  0  0  0  0  0  0  0  0  0  0  0
   22.4957  -19.9514  -14.0257 C   0  0  1  0  0  0  0  0  0  0  0  0
   22.6094  -19.4042  -15.3849 C   0  0  0  0  0  0  0  0  0  0  0  0
   21.3834  -19.0794  -16.1043 C   0  0  0  0  0  0  0  0  0  0  0  0
   20.8579  -17.8054  -15.9969 C   0  0  0  0  0  0  0  0  0  0  0  0
   19.6939  -17.4147  -16.6511 C   0  0  0  0  0  0  0  0  0  0  0  0
   19.0228  -18.3135  -17.4421 C   0  0  0  0  0  0  0  0  0  0  0  0
   19.5306  -19.5876  -17.5626 C   0  0  0  0  0  0  0  0  0  0  0  0
   20.7075  -19.9693  -16.8963 C   0  0  0  0  0  0  0  0  0  0  0  0
   21.4985  -21.0861  -13.9661 C   0  0  0  0  0  0  0  0  0  0  0  0
   21.9607  -22.3504  -13.7958 O   0  0  0  0  0  0  0  0  0  0  0  0
   20.2985  -20.8292  -14.0753 O   0  0  0  0  0  0  0  0  0  0  0  0
  2  3  1  0
  2  1  1  0
  3  5  1  0
  3  4  1  1
  5  7  1  0
  5  6  1  6
  7  8  2  0
  7 15  1  0
  9 10  1  0
 10 11  2  0
 10 12  1  0
 12 13  1  0
 14 13  1  1
 14 16  1  0
 15 14  1  0
 16 17  2  0
 18 16  1  0
 18 19  1  0
 19 27  1  0
 19 20  1  6
 21 26  2  0
 21 20  1  0
 22 21  1  0
 23 24  1  0
 23 22  2  0
 24 25  2  0
 25 26  1  0
 27 28  1  0
 29 27  2  0
M  END
$$$$
