IQF.pdb
     RDKit          3D

 29 29  0  0  1  0  0  0  0  0999 V2000
   26.5713  -22.9942  -19.6624 C   0  0  0  0  0  0  0  0  0  0  0  0
   27.1654  -23.1487  -18.2615 C   0  0  0  0  0  0  0  0  0  0  0  0
   26.0840  -22.8550  -17.2809 C   0  0  2  0  0  0  0  0  0  0  0  0
   25.4797  -21.4902  -17.5725 C   0  0  0  0  0  0  0  0  0  0  0  0
   26.4022  -23.0437  -15.8463 C   0  0  2  0  0  0  0  0  0  0  0  0
   26.7706  -24.4720  -15.6497 N   0  0  0  0  0  0  0  0  0  0  0  0
   25.4048  -22.7062  -14.8457 C   0  0  0  0  0  0  0  0  0  0  0  0
   24.4128  -23.5091  -14.6735 O   0  0  0  0  0  0  0  0  0  0  0  0
   24.2109  -20.8111   -9.4524 N   0  0  0  0  0  0  0  0  0  0  0  0
   25.5212  -21.1329   -9.8549 C   0  0  0  0  0  0  0  0  0  0  0  0
   26.2845  -21.6711   -8.9917 O   0  0  0  0  0  0  0  0  0  0  0  0
   25.9978  -20.8526  -11.2508 C   0  0  0  0  0  0  0  0  0  0  0  0
   24.9151  -20.2352  -12.0770 C   0  0  0  0  0  0  0  0  0  0  0  0
   24.3176  -21.2139  -13.0897 C   0  0  2  0  0  0  0  0  0  0  0  0
   25.3747  -21.5775  -13.9969 N   0  0  0  0  0  0  0  0  0  0  0  0
   23.0900  -20.7046  -13.6480 C   0  0  0  0  0  0  0  0  0  0  0  0
   23.2046  -19.8881  -14.6339 O   0  0  0  0  0  0  0  0  0  0  0  0
   21.7558  -20.9742  -13.2598 N   0  0  0  0  0  0  0  0  0  0  0  0
   20.6513  -20.5395  -14.1004 C   0  0  1  0  0  0  0  0  0  0  0  0
   20.6795  -20.9726  -15.5045 C   0  0  0  0  0  0  0  0  0  0  0  0
   19.5801  -20.5711  -16.3742 C   0  0  0  0  0  0  0  0  0  0  0  0
   18.5475  -21.4600  -16.6071 C   0  0  0  0  0  0  0  0  0  0  0  0
   17.4622  -21.1546  -17.4223 C   0  0  0  0  0  0  0  0  0  0  0  0
   17.3915  -19.9262  -18.0303 C   0  0  0  0  0  0  0  0  0  0  0  0
   18.4101  -19.0263  -17.8103 C   0  0  0  0  0  0  0  0  0  0  0  0
   19.5007  -19.3474  -16.9844 C   0  0  0  0  0  0  0  0  0  0  0  0
   19.3501  -20.9171  -13.4295 C   0  0  0  0  0  0  0  0  0  0  0  0
   18.2082  -20.3060  -13.8339 O   0  0  0  0  0  0  0  0  0  0  0  0
   19.3662  -21.7656  -12.5365 O   0  0  0  0  0  0  0  0  0  0  0  0
  2  3  1  0
  2  1  1  0
  3  5  1  0
  3  4  1  1
  5  7  1  0
  5  6  1  6
  7  8  2  0
  7 15  1  0
  9 10  1  0
 10 11  2  0
 10 12  1  0
 12 13  1  0
 14 13  1  1
 14 16  1  0
 15 14  1  0
 16 17  2  0
 18 16  1  0
 18 19  1  0
 19 27  1  0
 19 20  1  6
 21 26  2  0
 21 20  1  0
 22 21  1  0
 23 24  1  0
 23 22  2  0
 24 25  2  0
 25 26  1  0
 27 28  1  0
 29 27  2  0
M  END
$$$$
