IQF.pdb
     RDKit          3D

 29 29  0  0  1  0  0  0  0  0999 V2000
   28.8477  -16.3470  -16.3866 C   0  0  0  0  0  0  0  0  0  0  0  0
   27.7346  -17.3734  -16.6028 C   0  0  0  0  0  0  0  0  0  0  0  0
   27.1545  -17.6934  -15.2692 C   0  0  2  0  0  0  0  0  0  0  0  0
   28.2704  -17.9784  -14.2761 C   0  0  0  0  0  0  0  0  0  0  0  0
   26.0783  -18.7107  -15.2262 C   0  0  2  0  0  0  0  0  0  0  0  0
   25.0253  -18.2951  -16.1920 N   0  0  0  0  0  0  0  0  0  0  0  0
   25.4241  -19.0016  -13.9623 C   0  0  0  0  0  0  0  0  0  0  0  0
   24.6740  -18.0960  -13.4374 O   0  0  0  0  0  0  0  0  0  0  0  0
   21.5130  -20.9311  -10.9228 N   0  0  0  0  0  0  0  0  0  0  0  0
   21.5857  -20.9705  -12.3284 C   0  0  0  0  0  0  0  0  0  0  0  0
   20.5359  -20.6668  -12.9788 O   0  0  0  0  0  0  0  0  0  0  0  0
   22.8553  -21.3548  -13.0317 C   0  0  0  0  0  0  0  0  0  0  0  0
   23.9575  -21.6111  -12.0542 C   0  0  0  0  0  0  0  0  0  0  0  0
   24.9042  -20.4182  -11.9092 C   0  0  2  0  0  0  0  0  0  0  0  0
   25.4943  -20.1902  -13.2024 N   0  0  0  0  0  0  0  0  0  0  0  0
   25.7860  -20.5841  -10.7809 C   0  0  0  0  0  0  0  0  0  0  0  0
   26.7981  -21.3572  -10.9541 O   0  0  0  0  0  0  0  0  0  0  0  0
   25.6961  -20.0137   -9.4888 N   0  0  0  0  0  0  0  0  0  0  0  0
   26.6644  -20.3740   -8.4650 C   0  0  1  0  0  0  0  0  0  0  0  0
   27.5285  -19.2957   -7.9643 C   0  0  0  0  0  0  0  0  0  0  0  0
   28.3380  -19.5524   -6.7790 C   0  0  0  0  0  0  0  0  0  0  0  0
   27.9126  -19.0685   -5.5561 C   0  0  0  0  0  0  0  0  0  0  0  0
   28.6254  -19.2704   -4.3785 C   0  0  0  0  0  0  0  0  0  0  0  0
   29.8017  -19.9770   -4.4071 C   0  0  0  0  0  0  0  0  0  0  0  0
   30.2422  -20.4680   -5.6157 C   0  0  0  0  0  0  0  0  0  0  0  0
   29.5124  -20.2570   -6.7979 C   0  0  0  0  0  0  0  0  0  0  0  0
   25.9429  -21.0757   -7.3369 C   0  0  0  0  0  0  0  0  0  0  0  0
   26.6723  -21.7880   -6.4415 O   0  0  0  0  0  0  0  0  0  0  0  0
   24.7167  -20.9811   -7.2657 O   0  0  0  0  0  0  0  0  0  0  0  0
  2  3  1  0
  2  1  1  0
  3  5  1  0
  3  4  1  1
  5  7  1  0
  5  6  1  6
  7  8  2  0
  7 15  1  0
  9 10  1  0
 10 11  2  0
 10 12  1  0
 12 13  1  0
 14 13  1  6
 14 16  1  0
 15 14  1  0
 16 17  2  0
 18 16  1  0
 18 19  1  0
 19 27  1  0
 19 20  1  1
 21 26  2  0
 21 20  1  0
 22 21  1  0
 23 24  1  0
 23 22  2  0
 24 25  2  0
 25 26  1  0
 27 28  1  0
 29 27  2  0
M  END
$$$$
