IQF.pdb
     RDKit          3D

 29 29  0  0  1  0  0  0  0  0999 V2000
   28.8249  -20.5463  -11.4890 C   0  0  0  0  0  0  0  0  0  0  0  0
   27.6877  -21.2887  -12.1925 C   0  0  0  0  0  0  0  0  0  0  0  0
   26.4380  -21.0230  -11.4278 C   0  0  2  0  0  0  0  0  0  0  0  0
   26.6202  -21.4458   -9.9784 C   0  0  0  0  0  0  0  0  0  0  0  0
   25.1695  -21.5180  -12.0117 C   0  0  2  0  0  0  0  0  0  0  0  0
   25.3002  -22.9890  -12.1941 N   0  0  0  0  0  0  0  0  0  0  0  0
   24.6988  -20.9603  -13.2676 C   0  0  0  0  0  0  0  0  0  0  0  0
   25.1625  -21.4462  -14.3664 O   0  0  0  0  0  0  0  0  0  0  0  0
   20.9914  -21.1679  -12.9123 N   0  0  0  0  0  0  0  0  0  0  0  0
   20.6794  -21.3413  -14.2743 C   0  0  0  0  0  0  0  0  0  0  0  0
   19.9975  -22.3661  -14.5940 O   0  0  0  0  0  0  0  0  0  0  0  0
   21.1332  -20.3525  -15.3089 C   0  0  0  0  0  0  0  0  0  0  0  0
   21.8402  -19.1963  -14.6770 C   0  0  0  0  0  0  0  0  0  0  0  0
   23.3623  -19.3452  -14.7159 C   0  0  2  0  0  0  0  0  0  0  0  0
   23.7604  -19.9218  -13.4583 N   0  0  0  0  0  0  0  0  0  0  0  0
   23.9975  -18.1197  -15.1315 C   0  0  0  0  0  0  0  0  0  0  0  0
   23.8469  -17.1054  -14.3568 O   0  0  0  0  0  0  0  0  0  0  0  0
   24.7718  -17.8659  -16.2888 N   0  0  0  0  0  0  0  0  0  0  0  0
   25.4010  -16.5676  -16.4733 C   0  0  1  0  0  0  0  0  0  0  0  0
   26.7044  -16.3670  -15.8245 C   0  0  0  0  0  0  0  0  0  0  0  0
   27.4440  -15.1460  -16.1215 C   0  0  0  0  0  0  0  0  0  0  0  0
   27.2366  -14.0264  -15.3378 C   0  0  0  0  0  0  0  0  0  0  0  0
   27.9022  -12.8239  -15.5537 C   0  0  0  0  0  0  0  0  0  0  0  0
   28.8073  -12.7212  -16.5803 C   0  0  0  0  0  0  0  0  0  0  0  0
   29.0285  -13.8257  -17.3720 C   0  0  0  0  0  0  0  0  0  0  0  0
   28.3495  -15.0345  -17.1431 C   0  0  0  0  0  0  0  0  0  0  0  0
   25.4650  -16.2627  -17.9526 C   0  0  0  0  0  0  0  0  0  0  0  0
   25.2886  -14.9808  -18.3610 O   0  0  0  0  0  0  0  0  0  0  0  0
   25.6734  -17.1858  -18.7414 O   0  0  0  0  0  0  0  0  0  0  0  0
  2  3  1  0
  2  1  1  0
  3  5  1  0
  3  4  1  1
  5  7  1  0
  5  6  1  6
  7  8  2  0
  7 15  1  0
  9 10  1  0
 10 11  2  0
 10 12  1  0
 12 13  1  0
 14 13  1  1
 14 16  1  0
 15 14  1  0
 16 17  2  0
 18 16  1  0
 18 19  1  0
 19 27  1  0
 19 20  1  6
 21 26  2  0
 21 20  1  0
 22 21  1  0
 23 24  1  0
 23 22  2  0
 24 25  2  0
 25 26  1  0
 27 28  1  0
 29 27  2  0
M  END
$$$$
