IQF.pdb
     RDKit          3D

 29 29  0  0  1  0  0  0  0  0999 V2000
   17.6689  -25.0970  -22.1112 C   0  0  0  0  0  0  0  0  0  0  0  0
   18.9942  -24.4415  -22.5024 C   0  0  0  0  0  0  0  0  0  0  0  0
   19.7086  -24.0887  -21.2445 C   0  0  2  0  0  0  0  0  0  0  0  0
   18.8066  -23.2436  -20.3585 C   0  0  0  0  0  0  0  0  0  0  0  0
   21.0715  -23.5230  -21.3765 C   0  0  2  0  0  0  0  0  0  0  0  0
   21.8813  -24.4790  -22.1794 N   0  0  0  0  0  0  0  0  0  0  0  0
   21.8290  -23.2046  -20.1786 C   0  0  0  0  0  0  0  0  0  0  0  0
   22.2609  -24.1748  -19.4502 O   0  0  0  0  0  0  0  0  0  0  0  0
   25.4239  -18.1940  -19.0615 N   0  0  0  0  0  0  0  0  0  0  0  0
   25.7104  -19.0588  -17.9879 C   0  0  0  0  0  0  0  0  0  0  0  0
   26.7493  -18.8121  -17.2971 O   0  0  0  0  0  0  0  0  0  0  0  0
   24.8216  -20.2264  -17.6703 C   0  0  0  0  0  0  0  0  0  0  0  0
   23.8825  -20.5123  -18.7983 C   0  0  0  0  0  0  0  0  0  0  0  0
   22.9032  -21.6427  -18.4761 C   0  0  2  0  0  0  0  0  0  0  0  0
   22.1769  -21.9272  -19.6861 N   0  0  0  0  0  0  0  0  0  0  0  0
   22.1471  -21.3556  -17.2827 C   0  0  0  0  0  0  0  0  0  0  0  0
   21.2334  -20.4577  -17.3860 O   0  0  0  0  0  0  0  0  0  0  0  0
   22.2691  -21.9249  -15.9927 N   0  0  0  0  0  0  0  0  0  0  0  0
   21.3553  -21.5284  -14.9328 C   0  0  1  0  0  0  0  0  0  0  0  0
   19.9191  -21.6634  -15.2139 C   0  0  0  0  0  0  0  0  0  0  0  0
   19.3518  -23.0047  -15.2864 C   0  0  0  0  0  0  0  0  0  0  0  0
   19.7702  -23.8587  -16.2895 C   0  0  0  0  0  0  0  0  0  0  0  0
   19.2797  -25.1533  -16.4278 C   0  0  0  0  0  0  0  0  0  0  0  0
   18.3420  -25.6244  -15.5432 C   0  0  0  0  0  0  0  0  0  0  0  0
   17.9128  -24.7891  -14.5363 C   0  0  0  0  0  0  0  0  0  0  0  0
   18.4165  -23.4836  -14.4078 C   0  0  0  0  0  0  0  0  0  0  0  0
   21.7417  -22.2489  -13.6611 C   0  0  0  0  0  0  0  0  0  0  0  0
   21.0165  -22.0199  -12.5374 O   0  0  0  0  0  0  0  0  0  0  0  0
   22.7026  -23.0196  -13.6830 O   0  0  0  0  0  0  0  0  0  0  0  0
  2  3  1  0
  2  1  1  0
  3  5  1  0
  3  4  1  6
  5  7  1  0
  5  6  1  1
  7  8  2  0
  7 15  1  0
  9 10  1  0
 10 11  2  0
 10 12  1  0
 12 13  1  0
 14 13  1  6
 14 16  1  0
 15 14  1  0
 16 17  2  0
 18 16  1  0
 18 19  1  0
 19 27  1  0
 19 20  1  6
 21 26  2  0
 21 20  1  0
 22 21  1  0
 23 24  1  0
 23 22  2  0
 24 25  2  0
 25 26  1  0
 27 28  1  0
 29 27  2  0
M  END
$$$$
