IQF.pdb
     RDKit          3D

 29 29  0  0  1  0  0  0  0  0999 V2000
   29.5419  -17.8204  -17.5820 C   0  0  0  0  0  0  0  0  0  0  0  0
   28.3027  -16.9281  -17.4950 C   0  0  0  0  0  0  0  0  0  0  0  0
   27.7386  -17.0763  -16.1249 C   0  0  2  0  0  0  0  0  0  0  0  0
   28.6814  -16.4514  -15.1083 C   0  0  0  0  0  0  0  0  0  0  0  0
   27.2812  -18.4273  -15.7242 C   0  0  2  0  0  0  0  0  0  0  0  0
   26.4833  -18.9859  -16.8493 N   0  0  0  0  0  0  0  0  0  0  0  0
   26.4975  -18.5826  -14.5110 C   0  0  0  0  0  0  0  0  0  0  0  0
   26.2335  -17.5331  -13.8131 O   0  0  0  0  0  0  0  0  0  0  0  0
   21.6791  -22.2317  -13.6316 N   0  0  0  0  0  0  0  0  0  0  0  0
   21.8482  -21.7517  -12.3187 C   0  0  0  0  0  0  0  0  0  0  0  0
   20.9780  -22.0883  -11.4545 O   0  0  0  0  0  0  0  0  0  0  0  0
   23.0128  -20.8775  -11.9534 C   0  0  0  0  0  0  0  0  0  0  0  0
   23.8917  -20.6268  -13.1370 C   0  0  0  0  0  0  0  0  0  0  0  0
   25.1821  -19.8933  -12.7664 C   0  0  2  0  0  0  0  0  0  0  0  0
   25.9579  -19.7720  -13.9731 N   0  0  0  0  0  0  0  0  0  0  0  0
   25.8099  -20.4889  -11.6134 C   0  0  0  0  0  0  0  0  0  0  0  0
   26.5776  -21.4954  -11.8355 O   0  0  0  0  0  0  0  0  0  0  0  0
   25.6990  -20.1232  -10.2507 N   0  0  0  0  0  0  0  0  0  0  0  0
   26.3181  -20.9462   -9.2235 C   0  0  1  0  0  0  0  0  0  0  0  0
   27.6954  -20.6025   -8.8429 C   0  0  0  0  0  0  0  0  0  0  0  0
   27.9618  -20.2529   -7.4526 C   0  0  0  0  0  0  0  0  0  0  0  0
   27.5709  -19.0127   -6.9841 C   0  0  0  0  0  0  0  0  0  0  0  0
   27.7866  -18.6024   -5.6723 C   0  0  0  0  0  0  0  0  0  0  0  0
   28.4104  -19.4470   -4.7884 C   0  0  0  0  0  0  0  0  0  0  0  0
   28.8069  -20.6874   -5.2356 C   0  0  0  0  0  0  0  0  0  0  0  0
   28.5828  -21.0895   -6.5633 C   0  0  0  0  0  0  0  0  0  0  0  0
   25.4050  -20.9921   -8.0195 C   0  0  0  0  0  0  0  0  0  0  0  0
   25.6740  -21.8833   -7.0324 O   0  0  0  0  0  0  0  0  0  0  0  0
   24.4449  -20.2215   -7.9719 O   0  0  0  0  0  0  0  0  0  0  0  0
  2  3  1  0
  2  1  1  0
  3  5  1  0
  3  4  1  1
  5  7  1  0
  5  6  1  6
  7  8  2  0
  7 15  1  0
  9 10  1  0
 10 11  2  0
 10 12  1  0
 12 13  1  0
 14 13  1  6
 14 16  1  0
 15 14  1  0
 16 17  2  0
 18 16  1  0
 18 19  1  0
 19 27  1  0
 19 20  1  1
 21 26  2  0
 21 20  1  0
 22 21  1  0
 23 24  1  0
 23 22  2  0
 24 25  2  0
 25 26  1  0
 27 28  1  0
 29 27  2  0
M  END
$$$$
