IQF.pdb
     RDKit          3D

 29 29  0  0  1  0  0  0  0  0999 V2000
   30.8159  -14.7372  -19.2343 C   0  0  0  0  0  0  0  0  0  0  0  0
   29.8620  -15.7634  -18.6208 C   0  0  0  0  0  0  0  0  0  0  0  0
   28.5631  -15.0778  -18.3755 C   0  0  2  0  0  0  0  0  0  0  0  0
   28.7812  -13.8611  -17.4895 C   0  0  0  0  0  0  0  0  0  0  0  0
   27.4297  -15.9177  -17.9231 C   0  0  2  0  0  0  0  0  0  0  0  0
   27.2472  -17.0056  -18.9218 N   0  0  0  0  0  0  0  0  0  0  0  0
   26.1322  -15.3031  -17.7018 C   0  0  0  0  0  0  0  0  0  0  0  0
   25.5307  -14.7631  -18.7043 O   0  0  0  0  0  0  0  0  0  0  0  0
   21.1668  -17.3869  -15.0960 N   0  0  0  0  0  0  0  0  0  0  0  0
   20.7595  -16.0651  -15.3596 C   0  0  0  0  0  0  0  0  0  0  0  0
   19.5173  -15.8062  -15.2750 O   0  0  0  0  0  0  0  0  0  0  0  0
   21.7548  -15.0020  -15.7247 C   0  0  0  0  0  0  0  0  0  0  0  0
   23.1164  -15.5849  -15.9299 C   0  0  0  0  0  0  0  0  0  0  0  0
   24.1620  -14.5262  -16.2852 C   0  0  2  0  0  0  0  0  0  0  0  0
   25.4073  -15.2182  -16.4925 N   0  0  0  0  0  0  0  0  0  0  0  0
   24.1414  -13.4341  -15.3445 C   0  0  0  0  0  0  0  0  0  0  0  0
   24.5648  -13.6917  -14.1587 O   0  0  0  0  0  0  0  0  0  0  0  0
   23.7124  -12.0993  -15.5387 N   0  0  0  0  0  0  0  0  0  0  0  0
   23.8347  -11.1313  -14.4601 C   0  0  1  0  0  0  0  0  0  0  0  0
   25.1940  -10.6846  -14.1243 C   0  0  0  0  0  0  0  0  0  0  0  0
   26.0547  -10.2168  -15.2043 C   0  0  0  0  0  0  0  0  0  0  0  0
   25.7892   -8.9957  -15.7952 C   0  0  0  0  0  0  0  0  0  0  0  0
   26.5617   -8.4773  -16.8296 C   0  0  0  0  0  0  0  0  0  0  0  0
   27.6374   -9.1890  -17.2989 C   0  0  0  0  0  0  0  0  0  0  0  0
   27.9188  -10.4075  -16.7230 C   0  0  0  0  0  0  0  0  0  0  0  0
   27.1304  -10.9196  -15.6785 C   0  0  0  0  0  0  0  0  0  0  0  0
   22.9219   -9.9613  -14.7492 C   0  0  0  0  0  0  0  0  0  0  0  0
   22.7824   -8.9961  -13.8058 O   0  0  0  0  0  0  0  0  0  0  0  0
   22.3321   -9.9205  -15.8301 O   0  0  0  0  0  0  0  0  0  0  0  0
  2  3  1  0
  2  1  1  0
  3  5  1  0
  3  4  1  1
  5  7  1  0
  5  6  1  6
  7  8  2  0
  7 15  1  0
  9 10  1  0
 10 11  2  0
 10 12  1  0
 12 13  1  0
 14 13  1  1
 14 16  1  0
 15 14  1  0
 16 17  2  0
 18 16  1  0
 18 19  1  0
 19 27  1  0
 19 20  1  6
 21 26  2  0
 21 20  1  0
 22 21  1  0
 23 24  1  0
 23 22  2  0
 24 25  2  0
 25 26  1  0
 27 28  1  0
 29 27  2  0
M  END
$$$$
