IQF.pdb
     RDKit          3D

 29 29  0  0  1  0  0  0  0  0999 V2000
   28.2314  -19.8118  -13.3993 C   0  0  0  0  0  0  0  0  0  0  0  0
   27.7707  -21.1551  -13.9673 C   0  0  0  0  0  0  0  0  0  0  0  0
   26.2907  -21.2213  -13.8177 C   0  0  2  0  0  0  0  0  0  0  0  0
   25.6367  -20.1515  -14.6782 C   0  0  0  0  0  0  0  0  0  0  0  0
   25.7510  -21.2534  -12.4384 C   0  0  2  0  0  0  0  0  0  0  0  0
   26.3336  -22.4388  -11.7531 N   0  0  0  0  0  0  0  0  0  0  0  0
   24.3129  -21.2934  -12.2376 C   0  0  0  0  0  0  0  0  0  0  0  0
   23.6869  -22.3870  -12.5029 O   0  0  0  0  0  0  0  0  0  0  0  0
   20.6340  -20.8765   -8.5963 N   0  0  0  0  0  0  0  0  0  0  0  0
   19.7042  -20.1282   -9.3433 C   0  0  0  0  0  0  0  0  0  0  0  0
   18.4724  -20.2768   -9.0646 O   0  0  0  0  0  0  0  0  0  0  0  0
   20.1512  -19.1894  -10.4264 C   0  0  0  0  0  0  0  0  0  0  0  0
   21.6319  -19.2588  -10.6237 C   0  0  0  0  0  0  0  0  0  0  0  0
   22.0374  -20.2955  -11.6731 C   0  0  2  0  0  0  0  0  0  0  0  0
   23.4735  -20.2595  -11.7664 N   0  0  0  0  0  0  0  0  0  0  0  0
   21.2747  -20.1380  -12.8862 C   0  0  0  0  0  0  0  0  0  0  0  0
   21.5548  -19.1134  -13.6097 O   0  0  0  0  0  0  0  0  0  0  0  0
   20.2434  -20.9584  -13.4026 N   0  0  0  0  0  0  0  0  0  0  0  0
   19.5679  -20.5883  -14.6365 C   0  0  1  0  0  0  0  0  0  0  0  0
   19.8735  -21.3969  -15.8250 C   0  0  0  0  0  0  0  0  0  0  0  0
   21.2432  -21.8607  -16.0124 C   0  0  0  0  0  0  0  0  0  0  0  0
   22.0678  -21.1849  -16.8922 C   0  0  0  0  0  0  0  0  0  0  0  0
   23.3862  -21.5618  -17.1270 C   0  0  0  0  0  0  0  0  0  0  0  0
   23.9124  -22.6452  -16.4690 C   0  0  0  0  0  0  0  0  0  0  0  0
   23.1071  -23.3314  -15.5877 C   0  0  0  0  0  0  0  0  0  0  0  0
   21.7769  -22.9401  -15.3596 C   0  0  0  0  0  0  0  0  0  0  0  0
   18.0799  -20.5236  -14.3772 C   0  0  0  0  0  0  0  0  0  0  0  0
   17.2630  -20.1040  -15.3760 O   0  0  0  0  0  0  0  0  0  0  0  0
   17.6550  -20.8516  -13.2684 O   0  0  0  0  0  0  0  0  0  0  0  0
  2  3  1  0
  2  1  1  0
  3  5  1  0
  3  4  1  1
  5  7  1  0
  5  6  1  6
  7  8  2  0
  7 15  1  0
  9 10  1  0
 10 11  2  0
 10 12  1  0
 12 13  1  0
 14 13  1  1
 14 16  1  0
 15 14  1  0
 16 17  2  0
 18 16  1  0
 18 19  1  0
 19 27  1  0
 19 20  1  6
 21 26  2  0
 21 20  1  0
 22 21  1  0
 23 24  1  0
 23 22  2  0
 24 25  2  0
 25 26  1  0
 27 28  1  0
 29 27  2  0
M  END
$$$$
