IQF.pdb
     RDKit          3D

 29 29  0  0  1  0  0  0  0  0999 V2000
   28.2848  -20.3206  -19.2833 C   0  0  0  0  0  0  0  0  0  0  0  0
   28.6304  -21.1436  -18.0414 C   0  0  0  0  0  0  0  0  0  0  0  0
   27.4318  -21.1475  -17.1580 C   0  0  2  0  0  0  0  0  0  0  0  0
   26.9424  -19.7233  -16.9460 C   0  0  0  0  0  0  0  0  0  0  0  0
   27.5262  -21.9129  -15.8930 C   0  0  2  0  0  0  0  0  0  0  0  0
   27.8251  -23.3281  -16.2430 N   0  0  0  0  0  0  0  0  0  0  0  0
   26.3986  -21.9162  -14.9773 C   0  0  0  0  0  0  0  0  0  0  0  0
   25.3006  -22.4707  -15.3586 O   0  0  0  0  0  0  0  0  0  0  0  0
   26.5155  -20.6514   -8.7659 N   0  0  0  0  0  0  0  0  0  0  0  0
   25.1450  -20.8848   -8.9892 C   0  0  0  0  0  0  0  0  0  0  0  0
   24.3863  -20.9430   -7.9702 O   0  0  0  0  0  0  0  0  0  0  0  0
   24.6008  -21.0566  -10.3778 C   0  0  0  0  0  0  0  0  0  0  0  0
   25.7032  -21.1124  -11.3866 C   0  0  0  0  0  0  0  0  0  0  0  0
   25.1886  -21.3504  -12.8075 C   0  0  2  0  0  0  0  0  0  0  0  0
   26.3395  -21.3798  -13.6719 N   0  0  0  0  0  0  0  0  0  0  0  0
   24.1175  -20.4428  -13.1350 C   0  0  0  0  0  0  0  0  0  0  0  0
   24.4204  -19.1949  -13.1876 O   0  0  0  0  0  0  0  0  0  0  0  0
   22.7587  -20.7301  -13.4074 N   0  0  0  0  0  0  0  0  0  0  0  0
   21.8433  -19.6551  -13.7569 C   0  0  1  0  0  0  0  0  0  0  0  0
   22.2491  -18.7750  -14.8617 C   0  0  0  0  0  0  0  0  0  0  0  0
   22.2933  -19.3316  -16.2087 C   0  0  0  0  0  0  0  0  0  0  0  0
   21.1090  -19.5324  -16.8927 C   0  0  0  0  0  0  0  0  0  0  0  0
   21.0643  -20.0575  -18.1803 C   0  0  0  0  0  0  0  0  0  0  0  0
   22.2312  -20.3965  -18.8184 C   0  0  0  0  0  0  0  0  0  0  0  0
   23.4217  -20.2034  -18.1541 C   0  0  0  0  0  0  0  0  0  0  0  0
   23.4527  -19.6720  -16.8535 C   0  0  0  0  0  0  0  0  0  0  0  0
   20.4695  -20.2413  -13.9905 C   0  0  0  0  0  0  0  0  0  0  0  0
   20.3296  -21.5909  -13.9926 O   0  0  0  0  0  0  0  0  0  0  0  0
   19.5205  -19.4772  -14.1733 O   0  0  0  0  0  0  0  0  0  0  0  0
  2  3  1  0
  2  1  1  0
  3  5  1  0
  3  4  1  1
  5  7  1  0
  5  6  1  6
  7  8  2  0
  7 15  1  0
  9 10  1  0
 10 11  2  0
 10 12  1  0
 12 13  1  0
 14 13  1  1
 14 16  1  0
 15 14  1  0
 16 17  2  0
 18 16  1  0
 18 19  1  0
 19 27  1  0
 19 20  1  6
 21 26  2  0
 21 20  1  0
 22 21  1  0
 23 24  1  0
 23 22  2  0
 24 25  2  0
 25 26  1  0
 27 28  1  0
 29 27  2  0
M  END
$$$$
