WIF.pdb
     RDKit          3D

 34 36  0  0  1  0  0  0  0  0999 V2000
    6.0218  -17.7715   24.9675 N   0  0  0  0  0  0  0  0  0  0  0  0
    6.5955  -16.4724   24.7462 C   0  0  1  0  0  0  0  0  0  0  0  0
    6.8581  -15.6978   25.9786 C   0  0  0  0  0  0  0  0  0  0  0  0
    5.8522  -14.7009   26.3323 C   0  0  0  0  0  0  0  0  0  0  0  0
    4.6192  -14.9018   26.9072 C   0  0  0  0  0  0  0  0  0  0  0  0
    4.0521  -13.6986   27.0418 N   0  0  0  0  0  0  0  0  0  0  0  0
    4.8664  -12.7239   26.5778 C   0  0  0  0  0  0  0  0  0  0  0  0
    4.7188  -11.3450   26.5060 C   0  0  0  0  0  0  0  0  0  0  0  0
    5.7304  -10.6065   25.9768 C   0  0  0  0  0  0  0  0  0  0  0  0
    6.9008  -11.1736   25.5070 C   0  0  0  0  0  0  0  0  0  0  0  0
    7.0168  -12.5451   25.5923 C   0  0  0  0  0  0  0  0  0  0  0  0
    6.0047  -13.3442   26.1278 C   0  0  0  0  0  0  0  0  0  0  0  0
    7.7497  -16.5938   23.8319 C   0  0  0  0  0  0  0  0  0  0  0  0
    8.4619  -17.6225   23.8333 O   0  0  0  0  0  0  0  0  0  0  0  0
    7.5761  -12.8098   19.8918 C   0  0  0  0  0  0  0  0  0  0  0  0
    7.6893  -14.0235   20.7882 C   0  0  0  0  0  0  0  0  0  0  0  0
    9.1271  -14.3357   21.1309 C   0  0  2  0  0  0  0  0  0  0  0  0
    9.9304  -14.6834   19.8867 C   0  0  0  0  0  0  0  0  0  0  0  0
    9.1634  -15.5596   22.0213 C   0  0  2  0  0  0  0  0  0  0  0  0
    8.0363  -15.5100   22.9444 N   0  0  0  0  0  0  0  0  0  0  0  0
   10.4544  -15.6477   22.7709 C   0  0  0  0  0  0  0  0  0  0  0  0
   11.2140  -14.6207   22.7962 O   0  0  0  0  0  0  0  0  0  0  0  0
   10.8544  -16.8105   23.4407 N   0  0  0  0  0  0  0  0  0  0  0  0
   12.2398  -16.9229   23.9462 C   0  0  1  0  0  0  0  0  0  0  0  0
   12.2193  -17.4196   25.3491 C   0  0  0  0  0  0  0  0  0  0  0  0
   12.0220  -16.3130   26.2996 C   0  0  0  0  0  0  0  0  0  0  0  0
   12.2020  -14.9782   25.9276 C   0  0  0  0  0  0  0  0  0  0  0  0
   11.9967  -13.9327   26.7995 C   0  0  0  0  0  0  0  0  0  0  0  0
   11.5971  -14.1805   28.0982 C   0  0  0  0  0  0  0  0  0  0  0  0
   11.4083  -15.4844   28.5049 C   0  0  0  0  0  0  0  0  0  0  0  0
   11.6197  -16.5143   27.6148 C   0  0  0  0  0  0  0  0  0  0  0  0
   13.0011  -17.8275   23.0784 C   0  0  0  0  0  0  0  0  0  0  0  0
   12.3937  -18.5311   22.0650 O   0  0  0  0  0  0  0  0  0  0  0  0
   14.2317  -17.9685   23.2612 O   0  0  0  0  0  0  0  0  0  0  0  0
  2  1  1  1
  3  2  1  0
  4  3  1  0
  5  4  2  0
  6  5  1  0
  7  6  1  0
  7 12  2  0
  8  7  1  0
  9  8  2  0
  9 10  1  0
 10 11  2  0
 11 12  1  0
 12  4  1  0
 13  2  1  0
 14 13  2  0
 15 16  1  0
 16 17  1  0
 17 19  1  0
 17 18  1  6
 19 21  1  0
 19 20  1  1
 20 13  1  0
 21 23  1  0
 22 21  2  0
 23 24  1  0
 24 25  1  1
 25 26  1  0
 26 27  2  0
 27 28  1  0
 29 28  2  0
 30 29  1  0
 31 26  1  0
 31 30  2  0
 32 24  1  0
 32 33  1  0
 34 32  2  0
M  END
$$$$
