WIF.pdb
     RDKit          3D

 34 36  0  0  1  0  0  0  0  0999 V2000
    6.4186  -19.8239   21.2328 N   0  0  0  0  0  0  0  0  0  0  0  0
    6.1199  -18.4782   21.6393 C   0  0  1  0  0  0  0  0  0  0  0  0
    5.2851  -18.3738   22.8559 C   0  0  0  0  0  0  0  0  0  0  0  0
    4.0991  -19.2240   22.8910 C   0  0  0  0  0  0  0  0  0  0  0  0
    3.6958  -20.0827   23.8866 C   0  0  0  0  0  0  0  0  0  0  0  0
    2.5545  -20.6453   23.4764 N   0  0  0  0  0  0  0  0  0  0  0  0
    2.1996  -20.1871   22.2546 C   0  0  0  0  0  0  0  0  0  0  0  0
    1.1163  -20.4714   21.4337 C   0  0  0  0  0  0  0  0  0  0  0  0
    1.0239  -19.8411   20.2324 C   0  0  0  0  0  0  0  0  0  0  0  0
    1.9658  -18.9281   19.7952 C   0  0  0  0  0  0  0  0  0  0  0  0
    3.0295  -18.6674   20.6333 C   0  0  0  0  0  0  0  0  0  0  0  0
    3.1664  -19.2902   21.8755 C   0  0  0  0  0  0  0  0  0  0  0  0
    7.3667  -17.6862   21.6727 C   0  0  0  0  0  0  0  0  0  0  0  0
    8.4813  -18.2422   21.5542 O   0  0  0  0  0  0  0  0  0  0  0  0
    7.1468  -12.4420   19.9607 C   0  0  0  0  0  0  0  0  0  0  0  0
    7.6059  -13.8513   20.2649 C   0  0  0  0  0  0  0  0  0  0  0  0
    8.0771  -13.9919   21.6933 C   0  0  2  0  0  0  0  0  0  0  0  0
    9.3252  -13.1606   21.9494 C   0  0  0  0  0  0  0  0  0  0  0  0
    8.4638  -15.4345   21.9414 C   0  0  2  0  0  0  0  0  0  0  0  0
    7.2731  -16.2697   21.8433 N   0  0  0  0  0  0  0  0  0  0  0  0
    9.1144  -15.6001   23.2777 C   0  0  0  0  0  0  0  0  0  0  0  0
   10.3511  -15.3005   23.3931 O   0  0  0  0  0  0  0  0  0  0  0  0
    8.4173  -16.0694   24.3979 N   0  0  0  0  0  0  0  0  0  0  0  0
    9.1090  -16.1656   25.7017 C   0  0  1  0  0  0  0  0  0  0  0  0
    8.1570  -15.8323   26.7961 C   0  0  0  0  0  0  0  0  0  0  0  0
    7.7523  -14.4183   26.7334 C   0  0  0  0  0  0  0  0  0  0  0  0
    6.4904  -14.0304   26.2756 C   0  0  0  0  0  0  0  0  0  0  0  0
    6.0903  -12.7138   26.2354 C   0  0  0  0  0  0  0  0  0  0  0  0
    6.9463  -11.7151   26.6567 C   0  0  0  0  0  0  0  0  0  0  0  0
    8.2009  -12.0564   27.1158 C   0  0  0  0  0  0  0  0  0  0  0  0
    8.5793  -13.3806   27.1471 C   0  0  0  0  0  0  0  0  0  0  0  0
    9.6475  -17.5198   25.8663 C   0  0  0  0  0  0  0  0  0  0  0  0
    9.5212  -18.4681   24.8786 O   0  0  0  0  0  0  0  0  0  0  0  0
   10.2344  -17.8259   26.9291 O   0  0  0  0  0  0  0  0  0  0  0  0
  2  1  1  1
  3  2  1  0
  4  3  1  0
  5  4  2  0
  6  5  1  0
  7  6  1  0
  7 12  2  0
  8  7  1  0
  9  8  2  0
  9 10  1  0
 10 11  2  0
 11 12  1  0
 12  4  1  0
 13  2  1  0
 14 13  2  0
 15 16  1  0
 16 17  1  0
 17 19  1  0
 17 18  1  6
 19 21  1  0
 19 20  1  1
 20 13  1  0
 21 23  1  0
 22 21  2  0
 23 24  1  0
 24 25  1  1
 25 26  1  0
 26 27  2  0
 27 28  1  0
 29 28  2  0
 30 29  1  0
 31 26  1  0
 31 30  2  0
 32 24  1  0
 32 33  1  0
 34 32  2  0
M  END
$$$$
