WIF.pdb
     RDKit          3D

 34 36  0  0  1  0  0  0  0  0999 V2000
    6.1157  -17.9604   24.8550 N   0  0  0  0  0  0  0  0  0  0  0  0
    6.7289  -16.6818   24.6212 C   0  0  1  0  0  0  0  0  0  0  0  0
    7.1209  -15.9539   25.8477 C   0  0  0  0  0  0  0  0  0  0  0  0
    6.2449  -14.8563   26.2459 C   0  0  0  0  0  0  0  0  0  0  0  0
    4.9488  -14.9229   26.7007 C   0  0  0  0  0  0  0  0  0  0  0  0
    4.5552  -13.6677   26.9391 N   0  0  0  0  0  0  0  0  0  0  0  0
    5.5429  -12.7879   26.6577 C   0  0  0  0  0  0  0  0  0  0  0  0
    5.6070  -11.4034   26.7438 C   0  0  0  0  0  0  0  0  0  0  0  0
    6.7601  -10.7794   26.3836 C   0  0  0  0  0  0  0  0  0  0  0  0
    7.8719  -11.4683   25.9349 C   0  0  0  0  0  0  0  0  0  0  0  0
    7.7764  -12.8420   25.8608 C   0  0  0  0  0  0  0  0  0  0  0  0
    6.6134  -13.5262   26.2198 C   0  0  0  0  0  0  0  0  0  0  0  0
    7.8024  -16.8275   23.6165 C   0  0  0  0  0  0  0  0  0  0  0  0
    8.4173  -17.9098   23.4893 O   0  0  0  0  0  0  0  0  0  0  0  0
    7.5487  -13.0850   19.6585 C   0  0  0  0  0  0  0  0  0  0  0  0
    7.6966  -14.2811   20.5734 C   0  0  0  0  0  0  0  0  0  0  0  0
    9.1417  -14.5388   20.9307 C   0  0  2  0  0  0  0  0  0  0  0  0
    9.9691  -14.8603   19.6953 C   0  0  0  0  0  0  0  0  0  0  0  0
    9.2146  -15.7579   21.8255 C   0  0  2  0  0  0  0  0  0  0  0  0
    8.1243  -15.7049   22.7916 N   0  0  0  0  0  0  0  0  0  0  0  0
   10.5340  -15.8401   22.5246 C   0  0  0  0  0  0  0  0  0  0  0  0
   11.5119  -15.1619   22.0595 O   0  0  0  0  0  0  0  0  0  0  0  0
   10.7308  -16.6303   23.6638 N   0  0  0  0  0  0  0  0  0  0  0  0
   12.0854  -16.7493   24.2457 C   0  0  1  0  0  0  0  0  0  0  0  0
   11.9784  -17.0855   25.6916 C   0  0  0  0  0  0  0  0  0  0  0  0
   11.4070  -15.9639   26.4549 C   0  0  0  0  0  0  0  0  0  0  0  0
   11.9923  -14.6951   26.4543 C   0  0  0  0  0  0  0  0  0  0  0  0
   11.4546  -13.6316   27.1434 C   0  0  0  0  0  0  0  0  0  0  0  0
   10.2927  -13.7933   27.8726 C   0  0  0  0  0  0  0  0  0  0  0  0
    9.6837  -15.0302   27.8989 C   0  0  0  0  0  0  0  0  0  0  0  0
   10.2402  -16.0797   27.2014 C   0  0  0  0  0  0  0  0  0  0  0  0
   12.8364  -17.7789   23.5198 C   0  0  0  0  0  0  0  0  0  0  0  0
   12.2419  -18.5531   22.5513 O   0  0  0  0  0  0  0  0  0  0  0  0
   14.0460  -17.9635   23.7855 O   0  0  0  0  0  0  0  0  0  0  0  0
  2  1  1  1
  3  2  1  0
  4  3  1  0
  5  4  2  0
  6  5  1  0
  7  6  1  0
  7 12  2  0
  8  7  1  0
  9  8  2  0
  9 10  1  0
 10 11  2  0
 11 12  1  0
 12  4  1  0
 13  2  1  0
 14 13  2  0
 15 16  1  0
 16 17  1  0
 17 19  1  0
 17 18  1  6
 19 21  1  0
 19 20  1  1
 20 13  1  0
 21 23  1  0
 22 21  2  0
 23 24  1  0
 24 25  1  1
 25 26  1  0
 26 27  2  0
 27 28  1  0
 29 28  2  0
 30 29  1  0
 31 26  1  0
 31 30  2  0
 32 24  1  0
 32 33  1  0
 34 32  2  0
M  END
$$$$
