WIF.pdb
     RDKit          3D

 34 36  0  0  1  0  0  0  0  0999 V2000
    6.7824  -19.5636   19.9465 N   0  0  0  0  0  0  0  0  0  0  0  0
    6.7344  -18.8212   21.1762 C   0  0  1  0  0  0  0  0  0  0  0  0
    6.6370  -19.6544   22.3945 C   0  0  0  0  0  0  0  0  0  0  0  0
    6.4410  -18.9321   23.6477 C   0  0  0  0  0  0  0  0  0  0  0  0
    5.5681  -17.9023   23.9098 C   0  0  0  0  0  0  0  0  0  0  0  0
    5.7437  -17.5597   25.1900 N   0  0  0  0  0  0  0  0  0  0  0  0
    6.6953  -18.3251   25.7708 C   0  0  0  0  0  0  0  0  0  0  0  0
    7.2157  -18.3438   27.0581 C   0  0  0  0  0  0  0  0  0  0  0  0
    8.1875  -19.2467   27.3566 C   0  0  0  0  0  0  0  0  0  0  0  0
    8.6785  -20.1475   26.4295 C   0  0  0  0  0  0  0  0  0  0  0  0
    8.1412  -20.1037   25.1602 C   0  0  0  0  0  0  0  0  0  0  0  0
    7.1422  -19.1942   24.8075 C   0  0  0  0  0  0  0  0  0  0  0  0
    7.8249  -17.8244   21.1918 C   0  0  0  0  0  0  0  0  0  0  0  0
    8.9664  -18.1181   20.7720 O   0  0  0  0  0  0  0  0  0  0  0  0
    6.5627  -12.8162   19.6169 C   0  0  0  0  0  0  0  0  0  0  0  0
    7.2540  -14.1216   19.9447 C   0  0  0  0  0  0  0  0  0  0  0  0
    7.7926  -14.1322   21.3562 C   0  0  2  0  0  0  0  0  0  0  0  0
    8.8116  -13.0229   21.5688 C   0  0  0  0  0  0  0  0  0  0  0  0
    8.5231  -15.4372   21.5914 C   0  0  2  0  0  0  0  0  0  0  0  0
    7.5483  -16.5158   21.6972 N   0  0  0  0  0  0  0  0  0  0  0  0
    9.3705  -15.3709   22.8218 C   0  0  0  0  0  0  0  0  0  0  0  0
   10.4864  -14.7517   22.7589 O   0  0  0  0  0  0  0  0  0  0  0  0
    8.9835  -15.9610   24.0313 N   0  0  0  0  0  0  0  0  0  0  0  0
    9.8273  -15.7853   25.2332 C   0  0  1  0  0  0  0  0  0  0  0  0
    8.9595  -15.5993   26.4280 C   0  0  0  0  0  0  0  0  0  0  0  0
    8.2997  -14.2836   26.4033 C   0  0  0  0  0  0  0  0  0  0  0  0
    8.9534  -13.1211   26.8202 C   0  0  0  0  0  0  0  0  0  0  0  0
    8.3566  -11.8811   26.7788 C   0  0  0  0  0  0  0  0  0  0  0  0
    7.0633  -11.7486   26.3126 C   0  0  0  0  0  0  0  0  0  0  0  0
    6.3835  -12.8720   25.8916 C   0  0  0  0  0  0  0  0  0  0  0  0
    7.0011  -14.1023   25.9421 C   0  0  0  0  0  0  0  0  0  0  0  0
   10.6967  -16.9559   25.3910 C   0  0  0  0  0  0  0  0  0  0  0  0
   10.6733  -17.9947   24.4903 O   0  0  0  0  0  0  0  0  0  0  0  0
   11.4782  -17.0176   26.3673 O   0  0  0  0  0  0  0  0  0  0  0  0
  2  1  1  6
  3  2  1  0
  4  3  1  0
  5  4  2  0
  6  5  1  0
  7  6  1  0
  7 12  2  0
  8  7  1  0
  9  8  2  0
  9 10  1  0
 10 11  2  0
 11 12  1  0
 12  4  1  0
 13  2  1  0
 14 13  2  0
 15 16  1  0
 16 17  1  0
 17 19  1  0
 17 18  1  6
 19 21  1  0
 19 20  1  1
 20 13  1  0
 21 23  1  0
 22 21  2  0
 23 24  1  0
 24 25  1  1
 25 26  1  0
 26 27  2  0
 27 28  1  0
 29 28  2  0
 30 29  1  0
 31 26  1  0
 31 30  2  0
 32 24  1  0
 32 33  1  0
 34 32  2  0
M  END
$$$$
