WIF.pdb
     RDKit          3D

 34 36  0  0  1  0  0  0  0  0999 V2000
    5.4551  -19.8936   20.4082 N   0  0  0  0  0  0  0  0  0  0  0  0
    5.3829  -18.6570   21.1370 C   0  0  1  0  0  0  0  0  0  0  0  0
    4.7076  -18.7548   22.4493 C   0  0  0  0  0  0  0  0  0  0  0  0
    3.3360  -19.2537   22.4257 C   0  0  0  0  0  0  0  0  0  0  0  0
    2.6445  -19.8922   23.4283 C   0  0  0  0  0  0  0  0  0  0  0  0
    1.4258  -20.1621   22.9495 N   0  0  0  0  0  0  0  0  0  0  0  0
    1.2971  -19.7248   21.6763 C   0  0  0  0  0  0  0  0  0  0  0  0
    0.2390  -19.7754   20.7785 C   0  0  0  0  0  0  0  0  0  0  0  0
    0.4076  -19.2410   19.5396 C   0  0  0  0  0  0  0  0  0  0  0  0
    1.5908  -18.6489   19.1377 C   0  0  0  0  0  0  0  0  0  0  0  0
    2.6224  -18.6144   20.0523 C   0  0  0  0  0  0  0  0  0  0  0  0
    2.4957  -19.1502   21.3354 C   0  0  0  0  0  0  0  0  0  0  0  0
    6.7194  -18.0282   21.1724 C   0  0  0  0  0  0  0  0  0  0  0  0
    7.7425  -18.6820   20.8701 O   0  0  0  0  0  0  0  0  0  0  0  0
    6.9218  -12.4836   20.8627 C   0  0  0  0  0  0  0  0  0  0  0  0
    7.2981  -13.9381   20.6829 C   0  0  0  0  0  0  0  0  0  0  0  0
    7.8973  -14.5222   21.9407 C   0  0  2  0  0  0  0  0  0  0  0  0
    9.2651  -13.9237   22.2325 C   0  0  0  0  0  0  0  0  0  0  0  0
    8.1129  -16.0068   21.7364 C   0  0  2  0  0  0  0  0  0  0  0  0
    6.8195  -16.6554   21.5595 N   0  0  0  0  0  0  0  0  0  0  0  0
    8.8522  -16.6114   22.8871 C   0  0  0  0  0  0  0  0  0  0  0  0
    8.2575  -16.6965   24.0147 O   0  0  0  0  0  0  0  0  0  0  0  0
   10.1652  -17.0837   22.7696 N   0  0  0  0  0  0  0  0  0  0  0  0
   10.8410  -17.6658   23.9494 C   0  0  1  0  0  0  0  0  0  0  0  0
   11.2649  -19.0593   23.6434 C   0  0  0  0  0  0  0  0  0  0  0  0
   12.0220  -19.1174   22.3822 C   0  0  0  0  0  0  0  0  0  0  0  0
   13.3966  -18.8714   22.3334 C   0  0  0  0  0  0  0  0  0  0  0  0
   14.1209  -18.9469   21.1652 C   0  0  0  0  0  0  0  0  0  0  0  0
   13.4934  -19.2761   19.9796 C   0  0  0  0  0  0  0  0  0  0  0  0
   12.1375  -19.5265   19.9852 C   0  0  0  0  0  0  0  0  0  0  0  0
   11.4333  -19.4450   21.1664 C   0  0  0  0  0  0  0  0  0  0  0  0
   11.9927  -16.8321   24.3093 C   0  0  0  0  0  0  0  0  0  0  0  0
   12.7433  -17.0900   25.4322 O   0  0  0  0  0  0  0  0  0  0  0  0
   12.3028  -15.8606   23.5828 O   0  0  0  0  0  0  0  0  0  0  0  0
  2  1  1  1
  3  2  1  0
  4  3  1  0
  5  4  2  0
  6  5  1  0
  7  6  1  0
  7 12  2  0
  8  7  1  0
  9  8  2  0
  9 10  1  0
 10 11  2  0
 11 12  1  0
 12  4  1  0
 13  2  1  0
 14 13  2  0
 15 16  1  0
 16 17  1  0
 17 19  1  0
 17 18  1  6
 19 21  1  0
 19 20  1  1
 20 13  1  0
 21 23  1  0
 22 21  2  0
 23 24  1  0
 24 25  1  6
 25 26  1  0
 26 27  2  0
 27 28  1  0
 29 28  2  0
 30 29  1  0
 31 26  1  0
 31 30  2  0
 32 24  1  0
 32 33  1  0
 34 32  2  0
M  END
$$$$
