WIF.pdb
     RDKit          3D

 34 36  0  0  1  0  0  0  0  0999 V2000
    5.9050  -17.6535   25.1029 N   0  0  0  0  0  0  0  0  0  0  0  0
    6.6152  -16.4368   24.8184 C   0  0  1  0  0  0  0  0  0  0  0  0
    7.0669  -15.6938   26.0150 C   0  0  0  0  0  0  0  0  0  0  0  0
    6.3105  -14.4887   26.3411 C   0  0  0  0  0  0  0  0  0  0  0  0
    4.9923  -14.3866   26.7194 C   0  0  0  0  0  0  0  0  0  0  0  0
    4.7423  -13.0875   26.9118 N   0  0  0  0  0  0  0  0  0  0  0  0
    5.8445  -12.3410   26.6739 C   0  0  0  0  0  0  0  0  0  0  0  0
    6.0725  -10.9728   26.7392 C   0  0  0  0  0  0  0  0  0  0  0  0
    7.3118  -10.5020   26.4370 C   0  0  0  0  0  0  0  0  0  0  0  0
    8.3546  -11.3313   26.0671 C   0  0  0  0  0  0  0  0  0  0  0  0
    8.0962  -12.6848   26.0118 C   0  0  0  0  0  0  0  0  0  0  0  0
    6.8398  -13.2141   26.3133 C   0  0  0  0  0  0  0  0  0  0  0  0
    7.6707  -16.7054   23.8199 C   0  0  0  0  0  0  0  0  0  0  0  0
    8.2478  -17.8149   23.7815 O   0  0  0  0  0  0  0  0  0  0  0  0
    7.4901  -13.6262   19.3637 C   0  0  0  0  0  0  0  0  0  0  0  0
    7.6708  -14.6959   20.4184 C   0  0  0  0  0  0  0  0  0  0  0  0
    9.0893  -14.7390   20.9365 C   0  0  2  0  0  0  0  0  0  0  0  0
   10.0643  -15.1612   19.8477 C   0  0  0  0  0  0  0  0  0  0  0  0
    9.1811  -15.7872   22.0251 C   0  0  2  0  0  0  0  0  0  0  0  0
    8.0192  -15.6701   22.8975 N   0  0  0  0  0  0  0  0  0  0  0  0
   10.4457  -15.6449   22.8105 C   0  0  0  0  0  0  0  0  0  0  0  0
   10.9258  -14.4735   22.9831 O   0  0  0  0  0  0  0  0  0  0  0  0
   11.1155  -16.7457   23.3587 N   0  0  0  0  0  0  0  0  0  0  0  0
   12.3525  -16.5332   24.1411 C   0  0  1  0  0  0  0  0  0  0  0  0
   12.1425  -16.9955   25.5401 C   0  0  0  0  0  0  0  0  0  0  0  0
   11.1306  -16.1729   26.2232 C   0  0  0  0  0  0  0  0  0  0  0  0
    9.8618  -16.6689   26.5337 C   0  0  0  0  0  0  0  0  0  0  0  0
    8.9151  -15.9187   27.1943 C   0  0  0  0  0  0  0  0  0  0  0  0
    9.2005  -14.6229   27.5778 C   0  0  0  0  0  0  0  0  0  0  0  0
   10.4418  -14.0959   27.2900 C   0  0  0  0  0  0  0  0  0  0  0  0
   11.3731  -14.8655   26.6282 C   0  0  0  0  0  0  0  0  0  0  0  0
   13.4582  -17.2589   23.5071 C   0  0  0  0  0  0  0  0  0  0  0  0
   14.7470  -17.1564   23.9756 O   0  0  0  0  0  0  0  0  0  0  0  0
   13.2301  -17.9877   22.5150 O   0  0  0  0  0  0  0  0  0  0  0  0
  2  1  1  1
  3  2  1  0
  4  3  1  0
  5  4  2  0
  6  5  1  0
  7  6  1  0
  7 12  2  0
  8  7  1  0
  9  8  2  0
  9 10  1  0
 10 11  2  0
 11 12  1  0
 12  4  1  0
 13  2  1  0
 14 13  2  0
 15 16  1  0
 16 17  1  0
 17 19  1  0
 17 18  1  6
 19 21  1  0
 19 20  1  1
 20 13  1  0
 21 23  1  0
 22 21  2  0
 23 24  1  0
 24 25  1  1
 25 26  1  0
 26 27  2  0
 27 28  1  0
 29 28  2  0
 30 29  1  0
 31 26  1  0
 31 30  2  0
 32 24  1  0
 32 33  1  0
 34 32  2  0
M  END
$$$$
