WIF.pdb
     RDKit          3D

 34 36  0  0  1  0  0  0  0  0999 V2000
    6.7983  -18.1490   22.4649 N   0  0  0  0  0  0  0  0  0  0  0  0
    7.8004  -17.1441   22.6921 C   0  0  1  0  0  0  0  0  0  0  0  0
    7.2661  -15.8129   23.0531 C   0  0  0  0  0  0  0  0  0  0  0  0
    6.9222  -14.9388   21.9358 C   0  0  0  0  0  0  0  0  0  0  0  0
    5.6765  -14.6607   21.4239 C   0  0  0  0  0  0  0  0  0  0  0  0
    5.8545  -13.8113   20.4070 N   0  0  0  0  0  0  0  0  0  0  0  0
    7.1654  -13.5260   20.2371 C   0  0  0  0  0  0  0  0  0  0  0  0
    7.8295  -12.7114   19.3295 C   0  0  0  0  0  0  0  0  0  0  0  0
    9.1842  -12.6202   19.4034 C   0  0  0  0  0  0  0  0  0  0  0  0
    9.9273  -13.3062   20.3463 C   0  0  0  0  0  0  0  0  0  0  0  0
    9.2385  -14.1066   21.2332 C   0  0  0  0  0  0  0  0  0  0  0  0
    7.8483  -14.2315   21.1957 C   0  0  0  0  0  0  0  0  0  0  0  0
    8.8260  -17.6722   23.6154 C   0  0  0  0  0  0  0  0  0  0  0  0
    8.5355  -18.5463   24.4622 O   0  0  0  0  0  0  0  0  0  0  0  0
   13.5508  -18.0279   21.1799 C   0  0  0  0  0  0  0  0  0  0  0  0
   12.3495  -18.2473   22.0734 C   0  0  0  0  0  0  0  0  0  0  0  0
   12.5356  -17.6097   23.4302 C   0  0  2  0  0  0  0  0  0  0  0  0
   13.6439  -18.2936   24.2165 C   0  0  0  0  0  0  0  0  0  0  0  0
   11.2652  -17.7894   24.2339 C   0  0  2  0  0  0  0  0  0  0  0  0
   10.1587  -17.1630   23.5209 N   0  0  0  0  0  0  0  0  0  0  0  0
   11.4036  -17.2093   25.6052 C   0  0  0  0  0  0  0  0  0  0  0  0
   12.1907  -17.7835   26.4317 O   0  0  0  0  0  0  0  0  0  0  0  0
   10.7036  -16.0659   26.0096 N   0  0  0  0  0  0  0  0  0  0  0  0
   10.9174  -15.5201   27.3676 C   0  0  1  0  0  0  0  0  0  0  0  0
   10.6899  -14.0493   27.3546 C   0  0  0  0  0  0  0  0  0  0  0  0
    9.3839  -13.7209   26.7601 C   0  0  0  0  0  0  0  0  0  0  0  0
    8.3400  -13.1854   27.5190 C   0  0  0  0  0  0  0  0  0  0  0  0
    7.1224  -12.8506   26.9706 C   0  0  0  0  0  0  0  0  0  0  0  0
    6.8933  -13.0395   25.6217 C   0  0  0  0  0  0  0  0  0  0  0  0
    7.8982  -13.5657   24.8377 C   0  0  0  0  0  0  0  0  0  0  0  0
    9.1085  -13.8932   25.4086 C   0  0  0  0  0  0  0  0  0  0  0  0
   10.0082  -16.1854   28.3065 C   0  0  0  0  0  0  0  0  0  0  0  0
   10.0979  -15.9774   29.6628 O   0  0  0  0  0  0  0  0  0  0  0  0
    9.1300  -16.9634   27.8694 O   0  0  0  0  0  0  0  0  0  0  0  0
  2  1  1  1
  3  2  1  0
  4  3  1  0
  5  4  2  0
  6  5  1  0
  7  6  1  0
  7 12  2  0
  8  7  1  0
  9  8  2  0
  9 10  1  0
 10 11  2  0
 11 12  1  0
 12  4  1  0
 13  2  1  0
 14 13  2  0
 15 16  1  0
 16 17  1  0
 17 19  1  0
 17 18  1  1
 19 21  1  0
 19 20  1  6
 20 13  1  0
 21 23  1  0
 22 21  2  0
 23 24  1  0
 24 25  1  6
 25 26  1  0
 26 27  2  0
 27 28  1  0
 29 28  2  0
 30 29  1  0
 31 26  1  0
 31 30  2  0
 32 24  1  0
 32 33  1  0
 34 32  2  0
M  END
$$$$
