WIF.pdb
     RDKit          3D

 34 36  0  0  1  0  0  0  0  0999 V2000
    5.6966  -18.2086   24.2348 N   0  0  0  0  0  0  0  0  0  0  0  0
    6.5421  -17.0469   24.1999 C   0  0  1  0  0  0  0  0  0  0  0  0
    7.1459  -16.6861   25.5011 C   0  0  0  0  0  0  0  0  0  0  0  0
    6.5981  -15.5000   26.1520 C   0  0  0  0  0  0  0  0  0  0  0  0
    5.3537  -15.3346   26.7135 C   0  0  0  0  0  0  0  0  0  0  0  0
    5.3030  -14.0850   27.1858 N   0  0  0  0  0  0  0  0  0  0  0  0
    6.4639  -13.4313   26.9540 C   0  0  0  0  0  0  0  0  0  0  0  0
    6.8798  -12.1406   27.2530 C   0  0  0  0  0  0  0  0  0  0  0  0
    8.1317  -11.7565   26.8869 C   0  0  0  0  0  0  0  0  0  0  0  0
    9.0077  -12.6000   26.2287 C   0  0  0  0  0  0  0  0  0  0  0  0
    8.5649  -13.8751   25.9463 C   0  0  0  0  0  0  0  0  0  0  0  0
    7.2882  -14.3139   26.3025 C   0  0  0  0  0  0  0  0  0  0  0  0
    7.5020  -17.1706   23.0836 C   0  0  0  0  0  0  0  0  0  0  0  0
    7.9574  -18.2878   22.7519 O   0  0  0  0  0  0  0  0  0  0  0  0
    8.9237  -12.3822   20.1721 C   0  0  0  0  0  0  0  0  0  0  0  0
    9.1390  -13.5864   21.0626 C   0  0  0  0  0  0  0  0  0  0  0  0
    8.6903  -14.8652   20.3949 C   0  0  2  0  0  0  0  0  0  0  0  0
    7.1989  -14.8405   20.0960 C   0  0  0  0  0  0  0  0  0  0  0  0
    8.9184  -16.0203   21.3467 C   0  0  2  0  0  0  0  0  0  0  0  0
    7.9003  -15.9858   22.3893 N   0  0  0  0  0  0  0  0  0  0  0  0
   10.2875  -15.9679   21.9458 C   0  0  0  0  0  0  0  0  0  0  0  0
   11.2953  -16.1069   21.1727 O   0  0  0  0  0  0  0  0  0  0  0  0
   10.4991  -15.7730   23.3163 N   0  0  0  0  0  0  0  0  0  0  0  0
   11.8709  -15.8555   23.8630 C   0  0  1  0  0  0  0  0  0  0  0  0
   12.1597  -14.6381   24.6691 C   0  0  0  0  0  0  0  0  0  0  0  0
   11.0973  -14.3940   25.6584 C   0  0  0  0  0  0  0  0  0  0  0  0
   11.3206  -14.5286   27.0312 C   0  0  0  0  0  0  0  0  0  0  0  0
   10.3431  -14.2792   27.9680 C   0  0  0  0  0  0  0  0  0  0  0  0
    9.0835  -13.8790   27.5669 C   0  0  0  0  0  0  0  0  0  0  0  0
    8.8224  -13.7341   26.2207 C   0  0  0  0  0  0  0  0  0  0  0  0
    9.8163  -13.9892   25.3015 C   0  0  0  0  0  0  0  0  0  0  0  0
   11.9963  -17.0685   24.6778 C   0  0  0  0  0  0  0  0  0  0  0  0
   13.2103  -17.4738   25.1807 O   0  0  0  0  0  0  0  0  0  0  0  0
   10.9789  -17.7561   24.9223 O   0  0  0  0  0  0  0  0  0  0  0  0
  2  1  1  1
  3  2  1  0
  4  3  1  0
  5  4  2  0
  6  5  1  0
  7  6  1  0
  7 12  2  0
  8  7  1  0
  9  8  2  0
  9 10  1  0
 10 11  2  0
 11 12  1  0
 12  4  1  0
 13  2  1  0
 14 13  2  0
 15 16  1  0
 16 17  1  0
 17 19  1  0
 17 18  1  1
 19 21  1  0
 19 20  1  1
 20 13  1  0
 21 23  1  0
 22 21  2  0
 23 24  1  0
 24 25  1  1
 25 26  1  0
 26 27  2  0
 27 28  1  0
 29 28  2  0
 30 29  1  0
 31 26  1  0
 31 30  2  0
 32 24  1  0
 32 33  1  0
 34 32  2  0
M  END
$$$$
