WIF.pdb
     RDKit          3D

 34 36  0  0  1  0  0  0  0  0999 V2000
    5.6889  -17.6435   24.5052 N   0  0  0  0  0  0  0  0  0  0  0  0
    6.4453  -16.4230   24.4446 C   0  0  1  0  0  0  0  0  0  0  0  0
    6.8781  -15.9015   25.7593 C   0  0  0  0  0  0  0  0  0  0  0  0
    6.0582  -14.8340   26.3239 C   0  0  0  0  0  0  0  0  0  0  0  0
    4.9042  -14.9466   27.0632 C   0  0  0  0  0  0  0  0  0  0  0  0
    4.5088  -13.7042   27.3590 N   0  0  0  0  0  0  0  0  0  0  0  0
    5.3590  -12.7886   26.8419 C   0  0  0  0  0  0  0  0  0  0  0  0
    5.3675  -11.4006   26.8825 C   0  0  0  0  0  0  0  0  0  0  0  0
    6.3744  -10.7350   26.2562 C   0  0  0  0  0  0  0  0  0  0  0  0
    7.3905  -11.3851   25.5803 C   0  0  0  0  0  0  0  0  0  0  0  0
    7.3537  -12.7635   25.5583 C   0  0  0  0  0  0  0  0  0  0  0  0
    6.3402  -13.4895   26.1869 C   0  0  0  0  0  0  0  0  0  0  0  0
    7.5257  -16.5630   23.4465 C   0  0  0  0  0  0  0  0  0  0  0  0
    8.1653  -17.6332   23.3416 O   0  0  0  0  0  0  0  0  0  0  0  0
    7.4268  -12.7879   19.4847 C   0  0  0  0  0  0  0  0  0  0  0  0
    7.5783  -14.0727   20.2694 C   0  0  0  0  0  0  0  0  0  0  0  0
    8.9615  -14.2087   20.8616 C   0  0  2  0  0  0  0  0  0  0  0  0
   10.0098  -14.4161   19.7789 C   0  0  0  0  0  0  0  0  0  0  0  0
    8.9995  -15.4426   21.7380 C   0  0  2  0  0  0  0  0  0  0  0  0
    7.8255  -15.4488   22.6020 N   0  0  0  0  0  0  0  0  0  0  0  0
   10.2528  -15.4917   22.5524 C   0  0  0  0  0  0  0  0  0  0  0  0
   10.6529  -14.4182   23.1180 O   0  0  0  0  0  0  0  0  0  0  0  0
   10.9963  -16.6673   22.7138 N   0  0  0  0  0  0  0  0  0  0  0  0
   12.0510  -16.7288   23.7489 C   0  0  1  0  0  0  0  0  0  0  0  0
   11.4861  -17.2994   25.0021 C   0  0  0  0  0  0  0  0  0  0  0  0
   11.1289  -16.2352   25.9544 C   0  0  0  0  0  0  0  0  0  0  0  0
   11.8327  -16.0431   27.1462 C   0  0  0  0  0  0  0  0  0  0  0  0
   11.5250  -15.0363   28.0333 C   0  0  0  0  0  0  0  0  0  0  0  0
   10.4864  -14.1667   27.7632 C   0  0  0  0  0  0  0  0  0  0  0  0
    9.7670  -14.3225   26.5971 C   0  0  0  0  0  0  0  0  0  0  0  0
   10.0932  -15.3371   25.7244 C   0  0  0  0  0  0  0  0  0  0  0  0
   13.1674  -17.5423   23.2562 C   0  0  0  0  0  0  0  0  0  0  0  0
   13.0109  -18.4161   22.2060 O   0  0  0  0  0  0  0  0  0  0  0  0
   14.2901  -17.4453   23.8019 O   0  0  0  0  0  0  0  0  0  0  0  0
  2  1  1  1
  3  2  1  0
  4  3  1  0
  5  4  2  0
  6  5  1  0
  7  6  1  0
  7 12  2  0
  8  7  1  0
  9  8  2  0
  9 10  1  0
 10 11  2  0
 11 12  1  0
 12  4  1  0
 13  2  1  0
 14 13  2  0
 15 16  1  0
 16 17  1  0
 17 19  1  0
 17 18  1  6
 19 21  1  0
 19 20  1  1
 20 13  1  0
 21 23  1  0
 22 21  2  0
 23 24  1  0
 24 25  1  1
 25 26  1  0
 26 27  2  0
 27 28  1  0
 29 28  2  0
 30 29  1  0
 31 26  1  0
 31 30  2  0
 32 24  1  0
 32 33  1  0
 34 32  2  0
M  END
$$$$
