WIF.pdb
     RDKit          3D

 34 36  0  0  1  0  0  0  0  0999 V2000
    6.9148  -18.0230   21.1974 N   0  0  0  0  0  0  0  0  0  0  0  0
    7.5938  -16.9377   21.8507 C   0  0  1  0  0  0  0  0  0  0  0  0
    6.7068  -15.8527   22.3236 C   0  0  0  0  0  0  0  0  0  0  0  0
    6.9300  -14.5397   21.7262 C   0  0  0  0  0  0  0  0  0  0  0  0
    6.3349  -13.3434   22.0515 C   0  0  0  0  0  0  0  0  0  0  0  0
    6.8516  -12.4176   21.2372 N   0  0  0  0  0  0  0  0  0  0  0  0
    7.7586  -12.9636   20.3957 C   0  0  0  0  0  0  0  0  0  0  0  0
    8.5434  -12.4136   19.3908 C   0  0  0  0  0  0  0  0  0  0  0  0
    9.3818  -13.2288   18.6969 C   0  0  0  0  0  0  0  0  0  0  0  0
    9.4843  -14.5840   18.9519 C   0  0  0  0  0  0  0  0  0  0  0  0
    8.6919  -15.0996   19.9559 C   0  0  0  0  0  0  0  0  0  0  0  0
    7.8163  -14.3015   20.6949 C   0  0  0  0  0  0  0  0  0  0  0  0
    8.5134  -17.4774   22.8735 C   0  0  0  0  0  0  0  0  0  0  0  0
    8.1360  -18.3677   23.6675 O   0  0  0  0  0  0  0  0  0  0  0  0
   13.5350  -18.2761   21.4344 C   0  0  0  0  0  0  0  0  0  0  0  0
   12.1873  -18.2843   22.1223 C   0  0  0  0  0  0  0  0  0  0  0  0
   12.1838  -17.4177   23.3598 C   0  0  2  0  0  0  0  0  0  0  0  0
   13.1052  -17.9793   24.4321 C   0  0  0  0  0  0  0  0  0  0  0  0
   10.7898  -17.4137   23.9505 C   0  0  2  0  0  0  0  0  0  0  0  0
    9.8450  -16.9606   22.9371 N   0  0  0  0  0  0  0  0  0  0  0  0
   10.7171  -16.5438   25.1646 C   0  0  0  0  0  0  0  0  0  0  0  0
   11.3037  -15.4091   25.1356 O   0  0  0  0  0  0  0  0  0  0  0  0
   10.0322  -16.9297   26.3234 N   0  0  0  0  0  0  0  0  0  0  0  0
   10.1809  -16.1322   27.5602 C   0  0  1  0  0  0  0  0  0  0  0  0
    8.8527  -15.6037   27.9746 C   0  0  0  0  0  0  0  0  0  0  0  0
    8.3745  -14.5773   27.0339 C   0  0  0  0  0  0  0  0  0  0  0  0
    7.2948  -14.8058   26.1769 C   0  0  0  0  0  0  0  0  0  0  0  0
    6.8218  -13.8463   25.3103 C   0  0  0  0  0  0  0  0  0  0  0  0
    7.4160  -12.6004   25.2629 C   0  0  0  0  0  0  0  0  0  0  0  0
    8.4847  -12.3348   26.0929 C   0  0  0  0  0  0  0  0  0  0  0  0
    8.9406  -13.3104   26.9519 C   0  0  0  0  0  0  0  0  0  0  0  0
   10.7649  -16.9717   28.6114 C   0  0  0  0  0  0  0  0  0  0  0  0
   11.1156  -16.4508   29.8348 O   0  0  0  0  0  0  0  0  0  0  0  0
   10.9532  -18.1905   28.3951 O   0  0  0  0  0  0  0  0  0  0  0  0
  2  1  1  1
  3  2  1  0
  4  3  1  0
  5  4  2  0
  6  5  1  0
  7  6  1  0
  7 12  2  0
  8  7  1  0
  9  8  2  0
  9 10  1  0
 10 11  2  0
 11 12  1  0
 12  4  1  0
 13  2  1  0
 14 13  2  0
 15 16  1  0
 16 17  1  0
 17 19  1  0
 17 18  1  1
 19 21  1  0
 19 20  1  6
 20 13  1  0
 21 23  1  0
 22 21  2  0
 23 24  1  0
 24 25  1  1
 25 26  1  0
 26 27  2  0
 27 28  1  0
 29 28  2  0
 30 29  1  0
 31 26  1  0
 31 30  2  0
 32 24  1  0
 32 33  1  0
 34 32  2  0
M  END
$$$$
