WIF.pdb
     RDKit          3D

 34 36  0  0  1  0  0  0  0  0999 V2000
    5.8923  -18.0748   24.1921 N   0  0  0  0  0  0  0  0  0  0  0  0
    6.5524  -16.7985   24.1647 C   0  0  1  0  0  0  0  0  0  0  0  0
    6.8767  -16.2447   25.4973 C   0  0  0  0  0  0  0  0  0  0  0  0
    5.9605  -15.2288   26.0065 C   0  0  0  0  0  0  0  0  0  0  0  0
    4.7563  -15.4110   26.6452 C   0  0  0  0  0  0  0  0  0  0  0  0
    4.2762  -14.1949   26.9246 N   0  0  0  0  0  0  0  0  0  0  0  0
    5.1195  -13.2297   26.4933 C   0  0  0  0  0  0  0  0  0  0  0  0
    5.0552  -11.8439   26.5541 C   0  0  0  0  0  0  0  0  0  0  0  0
    6.0758  -11.1188   26.0236 C   0  0  0  0  0  0  0  0  0  0  0  0
    7.1756  -11.7062   25.4258 C   0  0  0  0  0  0  0  0  0  0  0  0
    7.2097  -13.0841   25.3813 C   0  0  0  0  0  0  0  0  0  0  0  0
    6.1852  -13.8700   25.9127 C   0  0  0  0  0  0  0  0  0  0  0  0
    7.6890  -16.8528   23.2221 C   0  0  0  0  0  0  0  0  0  0  0  0
    8.2465  -17.9403   22.9539 O   0  0  0  0  0  0  0  0  0  0  0  0
    7.8478  -12.4846   19.9116 C   0  0  0  0  0  0  0  0  0  0  0  0
    7.8818  -13.8860   20.4810 C   0  0  0  0  0  0  0  0  0  0  0  0
    9.2592  -14.2559   20.9793 C   0  0  2  0  0  0  0  0  0  0  0  0
   10.2537  -14.3600   19.8328 C   0  0  0  0  0  0  0  0  0  0  0  0
    9.1965  -15.6266   21.6190 C   0  0  2  0  0  0  0  0  0  0  0  0
    8.1390  -15.6354   22.6223 N   0  0  0  0  0  0  0  0  0  0  0  0
   10.5080  -15.9997   22.2332 C   0  0  0  0  0  0  0  0  0  0  0  0
   11.5480  -16.0026   21.4910 O   0  0  0  0  0  0  0  0  0  0  0  0
   10.6319  -16.3433   23.5850 N   0  0  0  0  0  0  0  0  0  0  0  0
   11.9478  -16.7616   24.1151 C   0  0  1  0  0  0  0  0  0  0  0  0
   11.8330  -17.0352   25.5735 C   0  0  0  0  0  0  0  0  0  0  0  0
   11.4016  -15.8330   26.3053 C   0  0  0  0  0  0  0  0  0  0  0  0
   12.2036  -14.6919   26.3903 C   0  0  0  0  0  0  0  0  0  0  0  0
   11.8020  -13.5524   27.0501 C   0  0  0  0  0  0  0  0  0  0  0  0
   10.5644  -13.5042   27.6615 C   0  0  0  0  0  0  0  0  0  0  0  0
    9.7424  -14.6097   27.6005 C   0  0  0  0  0  0  0  0  0  0  0  0
   10.1657  -15.7389   26.9345 C   0  0  0  0  0  0  0  0  0  0  0  0
   12.4068  -17.9514   23.3906 C   0  0  0  0  0  0  0  0  0  0  0  0
   13.6287  -18.5251   23.6526 O   0  0  0  0  0  0  0  0  0  0  0  0
   11.6749  -18.4591   22.5108 O   0  0  0  0  0  0  0  0  0  0  0  0
  2  1  1  1
  3  2  1  0
  4  3  1  0
  5  4  2  0
  6  5  1  0
  7  6  1  0
  7 12  2  0
  8  7  1  0
  9  8  2  0
  9 10  1  0
 10 11  2  0
 11 12  1  0
 12  4  1  0
 13  2  1  0
 14 13  2  0
 15 16  1  0
 16 17  1  0
 17 19  1  0
 17 18  1  6
 19 21  1  0
 19 20  1  1
 20 13  1  0
 21 23  1  0
 22 21  2  0
 23 24  1  0
 24 25  1  1
 25 26  1  0
 26 27  2  0
 27 28  1  0
 29 28  2  0
 30 29  1  0
 31 26  1  0
 31 30  2  0
 32 24  1  0
 32 33  1  0
 34 32  2  0
M  END
$$$$
