WIF.pdb
     RDKit          3D

 34 36  0  0  1  0  0  0  0  0999 V2000
    5.9265  -18.0730   25.0558 N   0  0  0  0  0  0  0  0  0  0  0  0
    6.6063  -16.8169   24.8960 C   0  0  1  0  0  0  0  0  0  0  0  0
    7.1140  -16.2276   26.1541 C   0  0  0  0  0  0  0  0  0  0  0  0
    6.5110  -14.9599   26.5541 C   0  0  0  0  0  0  0  0  0  0  0  0
    5.2953  -14.7489   27.1612 C   0  0  0  0  0  0  0  0  0  0  0  0
    5.1700  -13.4290   27.3329 N   0  0  0  0  0  0  0  0  0  0  0  0
    6.2550  -12.7735   26.8619 C   0  0  0  0  0  0  0  0  0  0  0  0
    6.5794  -11.4240   26.8180 C   0  0  0  0  0  0  0  0  0  0  0  0
    7.7690  -11.0556   26.2720 C   0  0  0  0  0  0  0  0  0  0  0  0
    8.6691  -11.9711   25.7587 C   0  0  0  0  0  0  0  0  0  0  0  0
    8.3177  -13.3034   25.8172 C   0  0  0  0  0  0  0  0  0  0  0  0
    7.1074  -13.7288   26.3683 C   0  0  0  0  0  0  0  0  0  0  0  0
    7.6088  -16.9339   23.8169 C   0  0  0  0  0  0  0  0  0  0  0  0
    8.2738  -17.9838   23.6724 O   0  0  0  0  0  0  0  0  0  0  0  0
    6.9391  -13.7154   19.4945 C   0  0  0  0  0  0  0  0  0  0  0  0
    7.2699  -14.7905   20.5064 C   0  0  0  0  0  0  0  0  0  0  0  0
    8.6922  -14.6754   21.0027 C   0  0  2  0  0  0  0  0  0  0  0  0
    9.6915  -14.9090   19.8797 C   0  0  0  0  0  0  0  0  0  0  0  0
    8.9409  -15.7583   22.0310 C   0  0  2  0  0  0  0  0  0  0  0  0
    7.8033  -15.8212   22.9403 N   0  0  0  0  0  0  0  0  0  0  0  0
   10.2064  -15.5083   22.7875 C   0  0  0  0  0  0  0  0  0  0  0  0
   10.5885  -14.3001   22.9510 O   0  0  0  0  0  0  0  0  0  0  0  0
   10.9803  -16.5477   23.3183 N   0  0  0  0  0  0  0  0  0  0  0  0
   12.1485  -16.2289   24.1676 C   0  0  1  0  0  0  0  0  0  0  0  0
   11.9878  -16.8755   25.4984 C   0  0  0  0  0  0  0  0  0  0  0  0
   10.8977  -16.2483   26.2635 C   0  0  0  0  0  0  0  0  0  0  0  0
   10.0169  -16.9993   27.0463 C   0  0  0  0  0  0  0  0  0  0  0  0
    9.0091  -16.4232   27.7862 C   0  0  0  0  0  0  0  0  0  0  0  0
    8.8364  -15.0529   27.7751 C   0  0  0  0  0  0  0  0  0  0  0  0
    9.6851  -14.2758   27.0153 C   0  0  0  0  0  0  0  0  0  0  0  0
   10.6865  -14.8746   26.2830 C   0  0  0  0  0  0  0  0  0  0  0  0
   13.3718  -16.6896   23.5026 C   0  0  0  0  0  0  0  0  0  0  0  0
   14.6167  -16.4135   24.0172 O   0  0  0  0  0  0  0  0  0  0  0  0
   13.2872  -17.3474   22.4406 O   0  0  0  0  0  0  0  0  0  0  0  0
  2  1  1  1
  3  2  1  0
  4  3  1  0
  5  4  2  0
  6  5  1  0
  7  6  1  0
  7 12  2  0
  8  7  1  0
  9  8  2  0
  9 10  1  0
 10 11  2  0
 11 12  1  0
 12  4  1  0
 13  2  1  0
 14 13  2  0
 15 16  1  0
 16 17  1  0
 17 19  1  0
 17 18  1  6
 19 21  1  0
 19 20  1  1
 20 13  1  0
 21 23  1  0
 22 21  2  0
 23 24  1  0
 24 25  1  1
 25 26  1  0
 26 27  2  0
 27 28  1  0
 29 28  2  0
 30 29  1  0
 31 26  1  0
 31 30  2  0
 32 24  1  0
 32 33  1  0
 34 32  2  0
M  END
$$$$
