WIF.pdb
     RDKit          3D

 34 36  0  0  1  0  0  0  0  0999 V2000
    6.1334  -18.2786   24.7969 N   0  0  0  0  0  0  0  0  0  0  0  0
    7.1662  -17.3039   24.5762 C   0  0  1  0  0  0  0  0  0  0  0  0
    7.5023  -16.4846   25.7609 C   0  0  0  0  0  0  0  0  0  0  0  0
    6.7140  -15.2693   25.9411 C   0  0  0  0  0  0  0  0  0  0  0  0
    5.4566  -15.1421   26.4830 C   0  0  0  0  0  0  0  0  0  0  0  0
    5.1433  -13.8432   26.4387 N   0  0  0  0  0  0  0  0  0  0  0  0
    6.1462  -13.1209   25.8898 C   0  0  0  0  0  0  0  0  0  0  0  0
    6.2828  -11.7624   25.6367 C   0  0  0  0  0  0  0  0  0  0  0  0
    7.4320  -11.3174   25.0619 C   0  0  0  0  0  0  0  0  0  0  0  0
    8.4704  -12.1637   24.7192 C   0  0  0  0  0  0  0  0  0  0  0  0
    8.3041  -13.5069   24.9834 C   0  0  0  0  0  0  0  0  0  0  0  0
    7.1421  -14.0098   25.5721 C   0  0  0  0  0  0  0  0  0  0  0  0
    8.3217  -17.9512   23.9215 C   0  0  0  0  0  0  0  0  0  0  0  0
    8.6758  -19.1069   24.2450 O   0  0  0  0  0  0  0  0  0  0  0  0
    9.6351  -17.3093   18.7266 C   0  0  0  0  0  0  0  0  0  0  0  0
    9.4896  -17.7515   20.1663 C   0  0  0  0  0  0  0  0  0  0  0  0
   10.5696  -17.1653   21.0451 C   0  0  2  0  0  0  0  0  0  0  0  0
   11.9485  -17.6562   20.6305 C   0  0  0  0  0  0  0  0  0  0  0  0
   10.3546  -17.6392   22.4668 C   0  0  2  0  0  0  0  0  0  0  0  0
    9.0277  -17.2289   22.9095 N   0  0  0  0  0  0  0  0  0  0  0  0
   11.4056  -17.0999   23.3837 C   0  0  0  0  0  0  0  0  0  0  0  0
   12.1207  -16.1210   22.9799 O   0  0  0  0  0  0  0  0  0  0  0  0
   11.6297  -17.6290   24.6607 N   0  0  0  0  0  0  0  0  0  0  0  0
   12.8119  -17.1932   25.4353 C   0  0  1  0  0  0  0  0  0  0  0  0
   12.8577  -15.7063   25.4795 C   0  0  0  0  0  0  0  0  0  0  0  0
   11.8197  -15.1711   26.3757 C   0  0  0  0  0  0  0  0  0  0  0  0
   10.6568  -14.5716   25.8849 C   0  0  0  0  0  0  0  0  0  0  0  0
    9.6671  -14.0897   26.7115 C   0  0  0  0  0  0  0  0  0  0  0  0
    9.7993  -14.1878   28.0828 C   0  0  0  0  0  0  0  0  0  0  0  0
   10.9323  -14.7730   28.6074 C   0  0  0  0  0  0  0  0  0  0  0  0
   11.9095  -15.2482   27.7607 C   0  0  0  0  0  0  0  0  0  0  0  0
   12.7416  -17.7583   26.7869 C   0  0  0  0  0  0  0  0  0  0  0  0
   11.6735  -18.5247   27.1903 O   0  0  0  0  0  0  0  0  0  0  0  0
   13.6708  -17.5393   27.5969 O   0  0  0  0  0  0  0  0  0  0  0  0
  2  1  1  1
  3  2  1  0
  4  3  1  0
  5  4  2  0
  6  5  1  0
  7  6  1  0
  7 12  2  0
  8  7  1  0
  9  8  2  0
  9 10  1  0
 10 11  2  0
 11 12  1  0
 12  4  1  0
 13  2  1  0
 14 13  2  0
 15 16  1  0
 16 17  1  0
 17 19  1  0
 17 18  1  6
 19 21  1  0
 19 20  1  1
 20 13  1  0
 21 23  1  0
 22 21  2  0
 23 24  1  0
 24 25  1  1
 25 26  1  0
 26 27  2  0
 27 28  1  0
 29 28  2  0
 30 29  1  0
 31 26  1  0
 31 30  2  0
 32 24  1  0
 32 33  1  0
 34 32  2  0
M  END
$$$$
