WIF.pdb
     RDKit          3D

 34 36  0  0  1  0  0  0  0  0999 V2000
    5.7068  -17.8471   24.8126 N   0  0  0  0  0  0  0  0  0  0  0  0
    6.4539  -16.6207   24.7537 C   0  0  1  0  0  0  0  0  0  0  0  0
    6.8360  -16.0691   26.0718 C   0  0  0  0  0  0  0  0  0  0  0  0
    6.1819  -14.8220   26.4558 C   0  0  0  0  0  0  0  0  0  0  0  0
    4.9152  -14.6449   26.9609 C   0  0  0  0  0  0  0  0  0  0  0  0
    4.7559  -13.3326   27.1607 N   0  0  0  0  0  0  0  0  0  0  0  0
    5.8677  -12.6495   26.8059 C   0  0  0  0  0  0  0  0  0  0  0  0
    6.1745  -11.2954   26.8311 C   0  0  0  0  0  0  0  0  0  0  0  0
    7.4013  -10.8956   26.4021 C   0  0  0  0  0  0  0  0  0  0  0  0
    8.3560  -11.7836   25.9417 C   0  0  0  0  0  0  0  0  0  0  0  0
    8.0208  -13.1212   25.9292 C   0  0  0  0  0  0  0  0  0  0  0  0
    6.7738  -13.5785   26.3598 C   0  0  0  0  0  0  0  0  0  0  0  0
    7.5695  -16.7699   23.7965 C   0  0  0  0  0  0  0  0  0  0  0  0
    8.2589  -17.8137   23.7749 O   0  0  0  0  0  0  0  0  0  0  0  0
    7.3846  -13.3499   19.5375 C   0  0  0  0  0  0  0  0  0  0  0  0
    7.5696  -14.5166   20.4831 C   0  0  0  0  0  0  0  0  0  0  0  0
    8.9564  -14.5388   21.0819 C   0  0  2  0  0  0  0  0  0  0  0  0
   10.0143  -14.7997   20.0203 C   0  0  0  0  0  0  0  0  0  0  0  0
    9.0456  -15.6846   22.0675 C   0  0  2  0  0  0  0  0  0  0  0  0
    7.8451  -15.6954   22.8943 N   0  0  0  0  0  0  0  0  0  0  0  0
   10.2702  -15.5745   22.9188 C   0  0  0  0  0  0  0  0  0  0  0  0
   10.6464  -14.4131   23.2955 O   0  0  0  0  0  0  0  0  0  0  0  0
   11.0121  -16.6947   23.3132 N   0  0  0  0  0  0  0  0  0  0  0  0
   12.2285  -16.5134   24.1348 C   0  0  1  0  0  0  0  0  0  0  0  0
   11.9968  -17.0676   25.4965 C   0  0  0  0  0  0  0  0  0  0  0  0
   11.1204  -16.1858   26.2849 C   0  0  0  0  0  0  0  0  0  0  0  0
   11.5029  -14.8897   26.6404 C   0  0  0  0  0  0  0  0  0  0  0  0
   10.6832  -14.0461   27.3557 C   0  0  0  0  0  0  0  0  0  0  0  0
    9.4290  -14.4680   27.7516 C   0  0  0  0  0  0  0  0  0  0  0  0
    9.0136  -15.7405   27.4205 C   0  0  0  0  0  0  0  0  0  0  0  0
    9.8511  -16.5669   26.7039 C   0  0  0  0  0  0  0  0  0  0  0  0
   13.3596  -17.1796   23.4806 C   0  0  0  0  0  0  0  0  0  0  0  0
   13.1774  -18.0061   22.3969 O   0  0  0  0  0  0  0  0  0  0  0  0
   14.5193  -16.9975   23.9159 O   0  0  0  0  0  0  0  0  0  0  0  0
  2  1  1  1
  3  2  1  0
  4  3  1  0
  5  4  2  0
  6  5  1  0
  7  6  1  0
  7 12  2  0
  8  7  1  0
  9  8  2  0
  9 10  1  0
 10 11  2  0
 11 12  1  0
 12  4  1  0
 13  2  1  0
 14 13  2  0
 15 16  1  0
 16 17  1  0
 17 19  1  0
 17 18  1  6
 19 21  1  0
 19 20  1  1
 20 13  1  0
 21 23  1  0
 22 21  2  0
 23 24  1  0
 24 25  1  1
 25 26  1  0
 26 27  2  0
 27 28  1  0
 29 28  2  0
 30 29  1  0
 31 26  1  0
 31 30  2  0
 32 24  1  0
 32 33  1  0
 34 32  2  0
M  END
$$$$
