HKT.pdb
     RDKit          3D

 27 27  0  0  1  0  0  0  0  0999 V2000
   23.6196  -12.6740  -18.0000 N   0  0  0  0  0  0  0  0  0  0  0  0
   23.4140  -12.1698  -16.6595 C   0  0  1  0  0  0  0  0  0  0  0  0
   24.7390  -11.6292  -16.1743 C   0  0  0  0  0  0  0  0  0  0  0  0
   25.6367  -12.7865  -15.9609 C   0  0  0  0  0  0  0  0  0  0  0  0
   25.4064  -13.8084  -15.0671 C   0  0  0  0  0  0  0  0  0  0  0  0
   26.4419  -14.6858  -15.1501 N   0  0  0  0  0  0  0  0  0  0  0  0
   27.2991  -14.2258  -16.0721 C   0  0  0  0  0  0  0  0  0  0  0  0
   26.7953  -13.0774  -16.5507 N   0  0  0  0  0  0  0  0  0  0  0  0
   22.3542  -11.1582  -16.6774 C   0  0  0  0  0  0  0  0  0  0  0  0
   22.3731  -10.2806  -17.5693 O   0  0  0  0  0  0  0  0  0  0  0  0
   21.2887  -11.0909  -15.7492 N   0  0  0  0  0  0  0  0  0  0  0  0
   20.2499  -10.1549  -15.8865 C   0  0  1  0  0  0  0  0  0  0  0  0
   18.8833  -10.4750  -15.4557 C   0  0  0  0  0  0  0  0  0  0  0  0
   17.9186   -9.3646  -15.7128 C   0  0  0  0  0  0  0  0  0  0  0  0
   16.5371   -9.5250  -15.2089 C   0  0  0  0  0  0  0  0  0  0  0  0
   15.6255   -8.3879  -15.6388 C   0  0  0  0  0  0  0  0  0  0  0  0
   14.3485   -8.5526  -15.0147 N   0  0  0  0  0  0  0  0  0  0  0  0
   20.6876   -8.9429  -15.0905 C   0  0  0  0  0  0  0  0  0  0  0  0
   21.4162   -9.0456  -14.0921 O   0  0  0  0  0  0  0  0  0  0  0  0
   22.5079   -6.3243  -16.5181 C   0  0  0  0  0  0  0  0  0  0  0  0
   22.1828   -6.3817  -15.0594 C   0  0  1  0  0  0  0  0  0  0  0  0
   22.5846   -5.1858  -14.4438 O   0  0  0  0  0  0  0  0  0  0  0  0
   20.6828   -6.4913  -14.8105 C   0  0  2  0  0  0  0  0  0  0  0  0
   20.2426   -7.6837  -15.5177 N   0  0  0  0  0  0  0  0  0  0  0  0
   19.9678   -5.2967  -15.2823 C   0  0  0  0  0  0  0  0  0  0  0  0
   19.3045   -5.3843  -16.3479 O   0  0  0  0  0  0  0  0  0  0  0  0
   19.9710   -4.0704  -14.6336 O   0  0  0  0  0  0  0  0  0  0  0  0
  2  1  1  6
  2  9  1  0
  2  3  1  0
  3  4  1  0
  4  8  1  0
  4  5  2  0
  5  6  1  0
  7  6  1  0
  8  7  2  0
  9 11  1  0
 10  9  2  0
 11 12  1  0
 12 13  1  1
 13 14  1  0
 14 15  1  0
 15 16  1  0
 16 17  1  0
 18 19  2  0
 18 12  1  0
 21 20  1  6
 21 23  1  0
 22 21  1  0
 23 24  1  6
 23 25  1  0
 24 18  1  0
 25 27  1  0
 26 25  2  0
M  END
$$$$
