HKT.pdb
     RDKit          3D

 27 27  0  0  1  0  0  0  0  0999 V2000
   27.0215  -22.1313  -16.2246 N   0  0  0  0  0  0  0  0  0  0  0  0
   26.2867  -20.8882  -16.1354 C   0  0  1  0  0  0  0  0  0  0  0  0
   26.1159  -20.3649  -17.5427 C   0  0  0  0  0  0  0  0  0  0  0  0
   27.3946  -19.7321  -17.9368 C   0  0  0  0  0  0  0  0  0  0  0  0
   28.2812  -19.1379  -17.0665 C   0  0  0  0  0  0  0  0  0  0  0  0
   29.3347  -18.6705  -17.7880 N   0  0  0  0  0  0  0  0  0  0  0  0
   29.1143  -18.9641  -19.0770 C   0  0  0  0  0  0  0  0  0  0  0  0
   27.9372  -19.6054  -19.1469 N   0  0  0  0  0  0  0  0  0  0  0  0
   25.0117  -21.1246  -15.4532 C   0  0  0  0  0  0  0  0  0  0  0  0
   24.4369  -22.2245  -15.6132 O   0  0  0  0  0  0  0  0  0  0  0  0
   24.3635  -20.1911  -14.6105 N   0  0  0  0  0  0  0  0  0  0  0  0
   23.1964  -20.5239  -13.9027 C   0  0  1  0  0  0  0  0  0  0  0  0
   23.0198  -20.1159  -12.5034 C   0  0  0  0  0  0  0  0  0  0  0  0
   21.7305  -20.5908  -11.9186 C   0  0  0  0  0  0  0  0  0  0  0  0
   21.4594  -20.2677  -10.5008 C   0  0  0  0  0  0  0  0  0  0  0  0
   20.0770  -20.7149  -10.0563 C   0  0  0  0  0  0  0  0  0  0  0  0
   19.8031  -20.1674   -8.7631 N   0  0  0  0  0  0  0  0  0  0  0  0
   22.0565  -19.9066  -14.6862 C   0  0  0  0  0  0  0  0  0  0  0  0
   22.0306  -18.6968  -14.9577 O   0  0  0  0  0  0  0  0  0  0  0  0
   20.6854  -20.8013  -18.0395 C   0  0  0  0  0  0  0  0  0  0  0  0
   19.6195  -21.0169  -17.0128 C   0  0  1  0  0  0  0  0  0  0  0  0
   19.6453  -22.3540  -16.5862 O   0  0  0  0  0  0  0  0  0  0  0  0
   19.8520  -20.1787  -15.7608 C   0  0  2  0  0  0  0  0  0  0  0  0
   21.0170  -20.7500  -15.1035 N   0  0  0  0  0  0  0  0  0  0  0  0
   18.6789  -20.1931  -14.8750 C   0  0  0  0  0  0  0  0  0  0  0  0
   18.7443  -20.8671  -13.8146 O   0  0  0  0  0  0  0  0  0  0  0  0
   17.4960  -19.5127  -15.1248 O   0  0  0  0  0  0  0  0  0  0  0  0
  2  1  1  6
  2  9  1  0
  2  3  1  0
  3  4  1  0
  4  8  1  0
  4  5  2  0
  5  6  1  0
  7  6  1  0
  8  7  2  0
  9 11  1  0
 10  9  2  0
 11 12  1  0
 12 13  1  1
 13 14  1  0
 14 15  1  0
 15 16  1  0
 16 17  1  0
 18 19  2  0
 18 12  1  0
 21 20  1  6
 21 23  1  0
 22 21  1  0
 23 24  1  1
 23 25  1  0
 24 18  1  0
 25 27  1  0
 26 25  2  0
M  END
$$$$
