HKT.pdb
     RDKit          3D

 27 27  0  0  1  0  0  0  0  0999 V2000
   16.5583  -17.9871    4.2354 N   0  0  0  0  0  0  0  0  0  0  0  0
   16.2739  -17.2449    5.4443 C   0  0  1  0  0  0  0  0  0  0  0  0
   15.7774  -18.2342    6.4730 C   0  0  0  0  0  0  0  0  0  0  0  0
   14.4295  -18.6740    6.0482 C   0  0  0  0  0  0  0  0  0  0  0  0
   14.1345  -19.9099    5.5172 C   0  0  0  0  0  0  0  0  0  0  0  0
   12.8019  -19.9492    5.2493 N   0  0  0  0  0  0  0  0  0  0  0  0
   12.2753  -18.7686    5.6031 C   0  0  0  0  0  0  0  0  0  0  0  0
   13.2741  -18.0116    6.0835 N   0  0  0  0  0  0  0  0  0  0  0  0
   17.4796  -16.5303    5.8716 C   0  0  0  0  0  0  0  0  0  0  0  0
   18.5944  -17.0721    5.6997 O   0  0  0  0  0  0  0  0  0  0  0  0
   17.4866  -15.2509    6.4754 N   0  0  0  0  0  0  0  0  0  0  0  0
   18.6814  -14.6370    6.8870 C   0  0  1  0  0  0  0  0  0  0  0  0
   18.7521  -13.1851    7.0935 C   0  0  0  0  0  0  0  0  0  0  0  0
   20.1478  -12.6951    7.2974 C   0  0  0  0  0  0  0  0  0  0  0  0
   20.3445  -11.2410    7.4849 C   0  0  0  0  0  0  0  0  0  0  0  0
   21.8112  -10.8449    7.4641 C   0  0  0  0  0  0  0  0  0  0  0  0
   21.9104   -9.4193    7.5352 N   0  0  0  0  0  0  0  0  0  0  0  0
   19.0365  -15.2853    8.2090 C   0  0  0  0  0  0  0  0  0  0  0  0
   18.1986  -15.9114    8.8752 O   0  0  0  0  0  0  0  0  0  0  0  0
   21.8821  -18.0864   10.0996 C   0  0  0  0  0  0  0  0  0  0  0  0
   20.7084  -17.3433    9.5456 C   0  0  1  0  0  0  0  0  0  0  0  0
   19.5298  -17.8215   10.1397 O   0  0  0  0  0  0  0  0  0  0  0  0
   20.7640  -15.8560    9.8760 C   0  0  2  0  0  0  0  0  0  0  0  0
   20.3558  -15.1586    8.6666 N   0  0  0  0  0  0  0  0  0  0  0  0
   22.1108  -15.4463   10.2995 C   0  0  0  0  0  0  0  0  0  0  0  0
   22.5792  -15.9472   11.3544 O   0  0  0  0  0  0  0  0  0  0  0  0
   22.9091  -14.5408    9.6158 O   0  0  0  0  0  0  0  0  0  0  0  0
  2  1  1  6
  2  9  1  0
  2  3  1  0
  3  4  1  0
  4  8  1  0
  4  5  2  0
  5  6  1  0
  7  6  1  0
  8  7  2  0
  9 11  1  0
 10  9  2  0
 11 12  1  0
 12 13  1  1
 13 14  1  0
 14 15  1  0
 15 16  1  0
 16 17  1  0
 18 19  2  0
 18 12  1  0
 21 20  1  1
 21 23  1  0
 22 21  1  0
 23 24  1  6
 23 25  1  0
 24 18  1  0
 25 27  1  0
 26 25  2  0
M  END
$$$$
