HKT.pdb
     RDKit          3D

 27 27  0  0  1  0  0  0  0  0999 V2000
   20.7957   -7.1734  -14.5916 N   0  0  0  0  0  0  0  0  0  0  0  0
   20.0546   -7.7052  -15.7147 C   0  0  1  0  0  0  0  0  0  0  0  0
   20.9583   -8.6850  -16.4263 C   0  0  0  0  0  0  0  0  0  0  0  0
   21.9881   -7.8976  -17.1405 C   0  0  0  0  0  0  0  0  0  0  0  0
   22.0382   -6.5221  -17.1854 C   0  0  0  0  0  0  0  0  0  0  0  0
   23.1171   -6.1612  -17.9302 N   0  0  0  0  0  0  0  0  0  0  0  0
   23.7274   -7.2812  -18.3415 C   0  0  0  0  0  0  0  0  0  0  0  0
   23.0307   -8.3199  -17.8544 N   0  0  0  0  0  0  0  0  0  0  0  0
   18.8131   -8.3163  -15.2328 C   0  0  0  0  0  0  0  0  0  0  0  0
   18.7985   -8.8347  -14.0939 O   0  0  0  0  0  0  0  0  0  0  0  0
   17.6039   -8.3694  -15.9653 N   0  0  0  0  0  0  0  0  0  0  0  0
   16.4307   -8.9098  -15.4125 C   0  0  1  0  0  0  0  0  0  0  0  0
   15.1596   -8.1777  -15.4753 C   0  0  0  0  0  0  0  0  0  0  0  0
   14.0602   -8.8585  -14.7288 C   0  0  0  0  0  0  0  0  0  0  0  0
   12.6908   -8.3204  -14.8815 C   0  0  0  0  0  0  0  0  0  0  0  0
   11.6947   -8.9922  -13.9515 C   0  0  0  0  0  0  0  0  0  0  0  0
   10.3730   -8.5682  -14.2988 N   0  0  0  0  0  0  0  0  0  0  0  0
   16.2137  -10.2267  -16.1286 C   0  0  0  0  0  0  0  0  0  0  0  0
   16.1844  -10.2999  -17.3663 O   0  0  0  0  0  0  0  0  0  0  0  0
   18.1392  -13.1085  -16.4097 C   0  0  0  0  0  0  0  0  0  0  0  0
   16.8925  -13.5703  -15.7246 C   0  0  1  0  0  0  0  0  0  0  0  0
   17.0886  -13.5507  -14.3348 O   0  0  0  0  0  0  0  0  0  0  0  0
   15.7148  -12.6393  -15.9894 C   0  0  2  0  0  0  0  0  0  0  0  0
   16.0453  -11.3775  -15.3455 N   0  0  0  0  0  0  0  0  0  0  0  0
   14.4587  -13.1935  -15.4640 C   0  0  0  0  0  0  0  0  0  0  0  0
   13.8885  -12.5831  -14.5231 O   0  0  0  0  0  0  0  0  0  0  0  0
   13.8515  -14.3492  -15.9334 O   0  0  0  0  0  0  0  0  0  0  0  0
  2  1  1  1
  2  9  1  0
  2  3  1  0
  3  4  1  0
  4  8  1  0
  4  5  2  0
  5  6  1  0
  7  6  1  0
  8  7  2  0
  9 11  1  0
 10  9  2  0
 11 12  1  0
 12 13  1  6
 13 14  1  0
 14 15  1  0
 15 16  1  0
 16 17  1  0
 18 19  2  0
 18 12  1  0
 21 20  1  6
 21 23  1  0
 22 21  1  0
 23 24  1  1
 23 25  1  0
 24 18  1  0
 25 27  1  0
 26 25  2  0
M  END
$$$$
