HKT.pdb
     RDKit          3D

 27 27  0  0  1  0  0  0  0  0999 V2000
   34.1509  -27.4793  -19.0792 N   0  0  0  0  0  0  0  0  0  0  0  0
   33.7129  -28.7186  -19.6840 C   0  0  1  0  0  0  0  0  0  0  0  0
   34.9518  -29.4948  -20.0660 C   0  0  0  0  0  0  0  0  0  0  0  0
   35.3665  -29.0317  -21.4092 C   0  0  0  0  0  0  0  0  0  0  0  0
   34.5582  -29.0226  -22.5242 C   0  0  0  0  0  0  0  0  0  0  0  0
   35.2801  -28.5327  -23.5672 N   0  0  0  0  0  0  0  0  0  0  0  0
   36.5089  -28.2423  -23.1177 C   0  0  0  0  0  0  0  0  0  0  0  0
   36.5418  -28.5506  -21.8118 N   0  0  0  0  0  0  0  0  0  0  0  0
   32.8512  -29.4406  -18.7443 C   0  0  0  0  0  0  0  0  0  0  0  0
   32.9847  -29.2282  -17.5183 O   0  0  0  0  0  0  0  0  0  0  0  0
   31.8596  -30.3781  -19.1175 N   0  0  0  0  0  0  0  0  0  0  0  0
   31.0094  -30.9689  -18.1677 C   0  0  1  0  0  0  0  0  0  0  0  0
   29.5593  -30.7426  -18.2081 C   0  0  0  0  0  0  0  0  0  0  0  0
   28.8274  -31.4748  -17.1320 C   0  0  0  0  0  0  0  0  0  0  0  0
   27.3534  -31.3550  -17.1004 C   0  0  0  0  0  0  0  0  0  0  0  0
   26.7294  -32.1495  -15.9655 C   0  0  0  0  0  0  0  0  0  0  0  0
   25.3236  -31.8852  -15.9289 N   0  0  0  0  0  0  0  0  0  0  0  0
   31.2238  -32.4620  -18.3040 C   0  0  0  0  0  0  0  0  0  0  0  0
   31.1332  -33.0376  -19.3988 O   0  0  0  0  0  0  0  0  0  0  0  0
   34.0954  -34.3295  -16.4837 C   0  0  0  0  0  0  0  0  0  0  0  0
   32.7796  -34.9765  -16.1885 C   0  0  1  0  0  0  0  0  0  0  0  0
   32.2850  -34.4931  -14.9670 O   0  0  0  0  0  0  0  0  0  0  0  0
   31.7228  -34.6269  -17.2301 C   0  0  2  0  0  0  0  0  0  0  0  0
   31.5325  -33.1874  -17.1444 N   0  0  0  0  0  0  0  0  0  0  0  0
   30.4646  -35.3469  -16.9864 C   0  0  0  0  0  0  0  0  0  0  0  0
   29.4342  -34.6715  -16.7315 O   0  0  0  0  0  0  0  0  0  0  0  0
   30.3293  -36.7273  -17.0173 O   0  0  0  0  0  0  0  0  0  0  0  0
  2  1  1  1
  2  9  1  0
  2  3  1  0
  3  4  1  0
  4  8  1  0
  4  5  2  0
  5  6  1  0
  7  6  1  0
  8  7  2  0
  9 11  1  0
 10  9  2  0
 11 12  1  0
 12 13  1  6
 13 14  1  0
 14 15  1  0
 15 16  1  0
 16 17  1  0
 18 19  2  0
 18 12  1  0
 21 20  1  6
 21 23  1  0
 22 21  1  0
 23 24  1  1
 23 25  1  0
 24 18  1  0
 25 27  1  0
 26 25  2  0
M  END
$$$$
