HKT.pdb
     RDKit          3D

 27 27  0  0  1  0  0  0  0  0999 V2000
   23.8099  -12.2528  -17.1498 N   0  0  0  0  0  0  0  0  0  0  0  0
   23.8221  -11.0102  -16.4087 C   0  0  1  0  0  0  0  0  0  0  0  0
   24.9964  -10.2006  -16.9077 C   0  0  0  0  0  0  0  0  0  0  0  0
   26.2273  -10.9378  -16.5440 C   0  0  0  0  0  0  0  0  0  0  0  0
   26.7517  -11.0179  -15.2732 C   0  0  0  0  0  0  0  0  0  0  0  0
   27.8801  -11.7748  -15.3270 N   0  0  0  0  0  0  0  0  0  0  0  0
   28.0583  -12.1591  -16.5986 C   0  0  0  0  0  0  0  0  0  0  0  0
   27.0497  -11.6437  -17.3187 N   0  0  0  0  0  0  0  0  0  0  0  0
   22.5383  -10.3262  -16.5847 C   0  0  0  0  0  0  0  0  0  0  0  0
   22.0140  -10.3106  -17.7208 O   0  0  0  0  0  0  0  0  0  0  0  0
   21.8280   -9.6679  -15.5534 N   0  0  0  0  0  0  0  0  0  0  0  0
   20.5328   -9.1629  -15.7570 C   0  0  1  0  0  0  0  0  0  0  0  0
   19.4117   -9.5976  -14.9144 C   0  0  0  0  0  0  0  0  0  0  0  0
   18.0980   -9.0537  -15.3704 C   0  0  0  0  0  0  0  0  0  0  0  0
   16.8834   -9.5035  -14.6558 C   0  0  0  0  0  0  0  0  0  0  0  0
   15.6077   -8.9631  -15.2796 C   0  0  0  0  0  0  0  0  0  0  0  0
   14.4834   -9.4618  -14.5485 N   0  0  0  0  0  0  0  0  0  0  0  0
   20.6511   -7.6623  -15.5889 C   0  0  0  0  0  0  0  0  0  0  0  0
   21.1946   -7.1573  -14.5951 O   0  0  0  0  0  0  0  0  0  0  0  0
   21.8767   -4.9790  -18.1600 C   0  0  0  0  0  0  0  0  0  0  0  0
   20.4361   -4.8107  -17.7945 C   0  0  1  0  0  0  0  0  0  0  0  0
   19.6369   -5.5152  -18.7086 O   0  0  0  0  0  0  0  0  0  0  0  0
   20.1193   -5.4028  -16.4259 C   0  0  2  0  0  0  0  0  0  0  0  0
   20.1237   -6.8468  -16.6003 N   0  0  0  0  0  0  0  0  0  0  0  0
   18.8227   -4.9303  -15.9195 C   0  0  0  0  0  0  0  0  0  0  0  0
   17.8479   -5.7251  -15.9514 O   0  0  0  0  0  0  0  0  0  0  0  0
   18.5936   -3.6624  -15.4050 O   0  0  0  0  0  0  0  0  0  0  0  0
  2  1  1  6
  2  9  1  0
  2  3  1  0
  3  4  1  0
  4  8  1  0
  4  5  2  0
  5  6  1  0
  7  6  1  0
  8  7  2  0
  9 11  1  0
 10  9  2  0
 11 12  1  0
 12 13  1  1
 13 14  1  0
 14 15  1  0
 15 16  1  0
 16 17  1  0
 18 19  2  0
 18 12  1  0
 21 20  1  6
 21 23  1  0
 22 21  1  0
 23 24  1  6
 23 25  1  0
 24 18  1  0
 25 27  1  0
 26 25  2  0
M  END
$$$$
