HKT.pdb
     RDKit          3D

 27 27  0  0  1  0  0  0  0  0999 V2000
   25.1491  -20.0775  -16.0331 N   0  0  0  0  0  0  0  0  0  0  0  0
   23.9795  -19.2817  -16.3366 C   0  0  1  0  0  0  0  0  0  0  0  0
   23.9540  -19.0725  -17.8329 C   0  0  0  0  0  0  0  0  0  0  0  0
   25.1794  -18.3257  -18.1953 C   0  0  0  0  0  0  0  0  0  0  0  0
   26.1823  -18.8038  -19.0089 C   0  0  0  0  0  0  0  0  0  0  0  0
   27.1387  -17.8428  -19.1124 N   0  0  0  0  0  0  0  0  0  0  0  0
   26.7455  -16.7896  -18.3827 C   0  0  0  0  0  0  0  0  0  0  0  0
   25.5596  -17.1003  -17.8364 N   0  0  0  0  0  0  0  0  0  0  0  0
   22.7838  -19.9623  -15.8326 C   0  0  0  0  0  0  0  0  0  0  0  0
   22.0755  -20.6106  -16.6350 O   0  0  0  0  0  0  0  0  0  0  0  0
   22.3555  -19.9461  -14.4843 N   0  0  0  0  0  0  0  0  0  0  0  0
   21.2680  -20.7209  -14.0473 C   0  0  1  0  0  0  0  0  0  0  0  0
   21.1749  -21.1735  -12.6537 C   0  0  0  0  0  0  0  0  0  0  0  0
   20.0544  -22.1346  -12.4291 C   0  0  0  0  0  0  0  0  0  0  0  0
   19.8189  -22.6035  -11.0461 C   0  0  0  0  0  0  0  0  0  0  0  0
   18.7774  -23.7077  -10.9757 C   0  0  0  0  0  0  0  0  0  0  0  0
   18.5674  -24.0641   -9.6059 N   0  0  0  0  0  0  0  0  0  0  0  0
   20.0366  -19.8818  -14.3187 C   0  0  0  0  0  0  0  0  0  0  0  0
   19.9077  -18.7408  -13.8502 O   0  0  0  0  0  0  0  0  0  0  0  0
   18.4947  -19.2140  -17.7638 C   0  0  0  0  0  0  0  0  0  0  0  0
   17.5044  -19.8867  -16.8673 C   0  0  1  0  0  0  0  0  0  0  0  0
   17.5601  -21.2749  -17.0679 O   0  0  0  0  0  0  0  0  0  0  0  0
   17.8255  -19.6685  -15.3931 C   0  0  2  0  0  0  0  0  0  0  0  0
   19.0321  -20.4354  -15.1253 N   0  0  0  0  0  0  0  0  0  0  0  0
   16.7169  -20.0988  -14.5288 C   0  0  0  0  0  0  0  0  0  0  0  0
   16.8748  -21.1350  -13.8329 O   0  0  0  0  0  0  0  0  0  0  0  0
   15.5001  -19.4408  -14.4238 O   0  0  0  0  0  0  0  0  0  0  0  0
  2  1  1  6
  2  9  1  0
  2  3  1  0
  3  4  1  0
  4  8  1  0
  4  5  2  0
  5  6  1  0
  7  6  1  0
  8  7  2  0
  9 11  1  0
 10  9  2  0
 11 12  1  0
 12 13  1  1
 13 14  1  0
 14 15  1  0
 15 16  1  0
 16 17  1  0
 18 19  2  0
 18 12  1  0
 21 20  1  6
 21 23  1  0
 22 21  1  0
 23 24  1  1
 23 25  1  0
 24 18  1  0
 25 27  1  0
 26 25  2  0
M  END
$$$$
