HKT.pdb
     RDKit          3D

 27 27  0  0  1  0  0  0  0  0999 V2000
   17.1348  -11.4921  -15.8640 N   0  0  0  0  0  0  0  0  0  0  0  0
   18.3765  -10.9490  -15.3575 C   0  0  1  0  0  0  0  0  0  0  0  0
   19.3402  -10.8715  -16.5188 C   0  0  0  0  0  0  0  0  0  0  0  0
   19.6198  -12.2583  -16.9539 C   0  0  0  0  0  0  0  0  0  0  0  0
   19.9018  -13.3080  -16.1084 C   0  0  0  0  0  0  0  0  0  0  0  0
   20.1016  -14.4200  -16.8650 N   0  0  0  0  0  0  0  0  0  0  0  0
   19.9489  -14.0763  -18.1514 C   0  0  0  0  0  0  0  0  0  0  0  0
   19.6582  -12.7663  -18.1849 N   0  0  0  0  0  0  0  0  0  0  0  0
   18.1206   -9.6465  -14.7372 C   0  0  0  0  0  0  0  0  0  0  0  0
   17.6098   -8.7383  -15.4302 O   0  0  0  0  0  0  0  0  0  0  0  0
   18.4099   -9.3247  -13.3902 N   0  0  0  0  0  0  0  0  0  0  0  0
   18.1227   -8.0567  -12.8575 C   0  0  1  0  0  0  0  0  0  0  0  0
   17.3998   -7.9174  -11.5873 C   0  0  0  0  0  0  0  0  0  0  0  0
   16.0123   -8.4662  -11.6458 C   0  0  0  0  0  0  0  0  0  0  0  0
   15.1265   -8.2181  -10.4875 C   0  0  0  0  0  0  0  0  0  0  0  0
   13.8114   -8.9725  -10.5888 C   0  0  0  0  0  0  0  0  0  0  0  0
   13.0621   -8.7671   -9.3873 N   0  0  0  0  0  0  0  0  0  0  0  0
   19.4652   -7.3798  -12.6741 C   0  0  0  0  0  0  0  0  0  0  0  0
   20.2400   -7.7026  -11.7611 O   0  0  0  0  0  0  0  0  0  0  0  0
   22.2804   -7.6748  -14.5583 C   0  0  0  0  0  0  0  0  0  0  0  0
   21.9233   -6.2271  -14.6748 C   0  0  1  0  0  0  0  0  0  0  0  0
   21.0913   -6.0394  -15.7897 O   0  0  0  0  0  0  0  0  0  0  0  0
   21.1228   -5.7361  -13.4739 C   0  0  2  0  0  0  0  0  0  0  0  0
   19.8152   -6.3650  -13.5763 N   0  0  0  0  0  0  0  0  0  0  0  0
   21.0104   -4.2704  -13.4618 C   0  0  0  0  0  0  0  0  0  0  0  0
   19.8913   -3.7589  -13.7243 O   0  0  0  0  0  0  0  0  0  0  0  0
   22.0562   -3.4035  -13.1799 O   0  0  0  0  0  0  0  0  0  0  0  0
  2  1  1  6
  2  9  1  0
  2  3  1  0
  3  4  1  0
  4  8  1  0
  4  5  2  0
  5  6  1  0
  7  6  1  0
  8  7  2  0
  9 11  1  0
 10  9  2  0
 11 12  1  0
 12 13  1  1
 13 14  1  0
 14 15  1  0
 15 16  1  0
 16 17  1  0
 18 19  2  0
 18 12  1  0
 21 20  1  1
 21 23  1  0
 22 21  1  0
 23 24  1  6
 23 25  1  0
 24 18  1  0
 25 27  1  0
 26 25  2  0
M  END
$$$$
