HKT.pdb
     RDKit          3D

 27 27  0  0  1  0  0  0  0  0999 V2000
   25.6269  -21.9103  -12.8629 N   0  0  0  0  0  0  0  0  0  0  0  0
   24.7574  -20.7545  -12.8270 C   0  0  1  0  0  0  0  0  0  0  0  0
   25.2920  -19.8225  -11.7644 C   0  0  0  0  0  0  0  0  0  0  0  0
   24.9525  -20.4110  -10.4494 C   0  0  0  0  0  0  0  0  0  0  0  0
   25.8608  -20.9681   -9.5770 C   0  0  0  0  0  0  0  0  0  0  0  0
   25.1842  -21.4013   -8.4799 N   0  0  0  0  0  0  0  0  0  0  0  0
   23.8856  -21.1229   -8.6599 C   0  0  0  0  0  0  0  0  0  0  0  0
   23.7654  -20.5248   -9.8555 N   0  0  0  0  0  0  0  0  0  0  0  0
   24.7093  -20.1404  -14.1564 C   0  0  0  0  0  0  0  0  0  0  0  0
   25.7014  -20.2556  -14.9103 O   0  0  0  0  0  0  0  0  0  0  0  0
   23.6095  -19.4124  -14.6684 N   0  0  0  0  0  0  0  0  0  0  0  0
   23.5586  -19.0017  -16.0111 C   0  0  1  0  0  0  0  0  0  0  0  0
   22.3785  -19.2761  -16.8403 C   0  0  0  0  0  0  0  0  0  0  0  0
   22.5479  -18.8324  -18.2560 C   0  0  0  0  0  0  0  0  0  0  0  0
   21.4295  -19.0805  -19.1918 C   0  0  0  0  0  0  0  0  0  0  0  0
   21.7607  -18.6687  -20.6164 C   0  0  0  0  0  0  0  0  0  0  0  0
   20.5910  -18.8135  -21.4276 N   0  0  0  0  0  0  0  0  0  0  0  0
   23.7339  -17.4976  -15.9826 C   0  0  0  0  0  0  0  0  0  0  0  0
   23.0560  -16.7751  -15.2365 O   0  0  0  0  0  0  0  0  0  0  0  0
   26.7134  -15.5132  -15.2042 C   0  0  0  0  0  0  0  0  0  0  0  0
   26.3280  -15.2136  -16.6180 C   0  0  1  0  0  0  0  0  0  0  0  0
   27.0338  -16.0630  -17.4846 O   0  0  0  0  0  0  0  0  0  0  0  0
   24.8517  -15.4892  -16.8801 C   0  0  2  0  0  0  0  0  0  0  0  0
   24.6965  -16.9346  -16.8326 N   0  0  0  0  0  0  0  0  0  0  0  0
   24.4231  -14.9489  -18.1783 C   0  0  0  0  0  0  0  0  0  0  0  0
   23.9916  -15.7545  -19.0430 O   0  0  0  0  0  0  0  0  0  0  0  0
   24.4599  -13.6053  -18.5222 O   0  0  0  0  0  0  0  0  0  0  0  0
  2  1  1  6
  2  9  1  0
  2  3  1  0
  3  4  1  0
  4  8  1  0
  4  5  2  0
  5  6  1  0
  7  6  1  0
  8  7  2  0
  9 11  1  0
 10  9  2  0
 11 12  1  0
 12 13  1  1
 13 14  1  0
 14 15  1  0
 15 16  1  0
 16 17  1  0
 18 19  2  0
 18 12  1  0
 21 20  1  1
 21 23  1  0
 22 21  1  0
 23 24  1  6
 23 25  1  0
 24 18  1  0
 25 27  1  0
 26 25  2  0
M  END
$$$$
