HKT.pdb
     RDKit          3D

 27 27  0  0  1  0  0  0  0  0999 V2000
   26.6302  -22.0616  -14.3013 N   0  0  0  0  0  0  0  0  0  0  0  0
   25.9334  -21.1032  -13.4712 C   0  0  1  0  0  0  0  0  0  0  0  0
   26.7491  -19.8312  -13.4714 C   0  0  0  0  0  0  0  0  0  0  0  0
   27.9199  -20.0572  -12.5946 C   0  0  0  0  0  0  0  0  0  0  0  0
   28.1492  -21.2027  -11.8654 C   0  0  0  0  0  0  0  0  0  0  0  0
   29.3160  -21.0458  -11.1850 N   0  0  0  0  0  0  0  0  0  0  0  0
   29.8053  -19.8334  -11.4799 C   0  0  0  0  0  0  0  0  0  0  0  0
   28.9480  -19.2513  -12.3329 N   0  0  0  0  0  0  0  0  0  0  0  0
   24.5742  -20.9125  -13.9842 C   0  0  0  0  0  0  0  0  0  0  0  0
   24.3726  -21.0247  -15.2141 O   0  0  0  0  0  0  0  0  0  0  0  0
   23.4473  -20.6054  -13.1859 N   0  0  0  0  0  0  0  0  0  0  0  0
   22.1391  -20.7045  -13.6888 C   0  0  1  0  0  0  0  0  0  0  0  0
   21.0281  -21.1239  -12.8254 C   0  0  0  0  0  0  0  0  0  0  0  0
   19.7546  -21.3300  -13.5773 C   0  0  0  0  0  0  0  0  0  0  0  0
   18.5879  -21.8404  -12.8247 C   0  0  0  0  0  0  0  0  0  0  0  0
   17.3949  -22.1229  -13.7224 C   0  0  0  0  0  0  0  0  0  0  0  0
   16.3160  -22.6165  -12.9226 N   0  0  0  0  0  0  0  0  0  0  0  0
   21.7963  -19.3219  -14.2035 C   0  0  0  0  0  0  0  0  0  0  0  0
   21.7818  -18.3320  -13.4566 O   0  0  0  0  0  0  0  0  0  0  0  0
   23.3586  -17.2488  -16.8637 C   0  0  0  0  0  0  0  0  0  0  0  0
   21.9655  -17.6018  -17.2778 C   0  0  1  0  0  0  0  0  0  0  0  0
   21.9884  -18.7839  -18.0345 O   0  0  0  0  0  0  0  0  0  0  0  0
   21.0686  -17.8946  -16.0803 C   0  0  2  0  0  0  0  0  0  0  0  0
   21.4921  -19.1875  -15.5657 N   0  0  0  0  0  0  0  0  0  0  0  0
   19.6484  -17.9104  -16.4595 C   0  0  0  0  0  0  0  0  0  0  0  0
   19.0196  -18.9955  -16.3595 O   0  0  0  0  0  0  0  0  0  0  0  0
   18.9456  -16.8077  -16.9231 O   0  0  0  0  0  0  0  0  0  0  0  0
  2  1  1  6
  2  9  1  0
  2  3  1  0
  3  4  1  0
  4  8  1  0
  4  5  2  0
  5  6  1  0
  7  6  1  0
  8  7  2  0
  9 11  1  0
 10  9  2  0
 11 12  1  0
 12 13  1  1
 13 14  1  0
 14 15  1  0
 15 16  1  0
 16 17  1  0
 18 19  2  0
 18 12  1  0
 21 20  1  1
 21 23  1  0
 22 21  1  0
 23 24  1  6
 23 25  1  0
 24 18  1  0
 25 27  1  0
 26 25  2  0
M  END
$$$$
