HKT.pdb
     RDKit          3D

 27 27  0  0  1  0  0  0  0  0999 V2000
   27.7956  -25.2842  -17.7286 N   0  0  0  0  0  0  0  0  0  0  0  0
   26.9082  -26.2643  -17.1410 C   0  0  1  0  0  0  0  0  0  0  0  0
   25.5084  -25.6989  -17.2052 C   0  0  0  0  0  0  0  0  0  0  0  0
   25.4561  -24.5434  -16.2817 C   0  0  0  0  0  0  0  0  0  0  0  0
   25.1013  -24.6118  -14.9528 C   0  0  0  0  0  0  0  0  0  0  0  0
   25.1687  -23.3580  -14.4309 N   0  0  0  0  0  0  0  0  0  0  0  0
   25.5557  -22.5253  -15.4073 C   0  0  0  0  0  0  0  0  0  0  0  0
   25.7243  -23.2600  -16.5178 N   0  0  0  0  0  0  0  0  0  0  0  0
   27.0460  -27.5359  -17.8558 C   0  0  0  0  0  0  0  0  0  0  0  0
   27.3933  -27.5175  -19.0579 O   0  0  0  0  0  0  0  0  0  0  0  0
   26.8137  -28.8098  -17.2861 N   0  0  0  0  0  0  0  0  0  0  0  0
   27.0000  -29.9916  -18.0228 C   0  0  1  0  0  0  0  0  0  0  0  0
   28.3481  -30.4797  -18.3391 C   0  0  0  0  0  0  0  0  0  0  0  0
   29.3170  -30.2736  -17.2217 C   0  0  0  0  0  0  0  0  0  0  0  0
   30.7186  -30.6919  -17.4424 C   0  0  0  0  0  0  0  0  0  0  0  0
   31.5924  -29.5554  -17.9461 C   0  0  0  0  0  0  0  0  0  0  0  0
   32.9313  -30.0332  -18.1083 N   0  0  0  0  0  0  0  0  0  0  0  0
   26.3161  -31.0808  -17.2228 C   0  0  0  0  0  0  0  0  0  0  0  0
   26.3240  -31.0829  -15.9827 O   0  0  0  0  0  0  0  0  0  0  0  0
   23.0579  -31.6600  -16.5742 C   0  0  0  0  0  0  0  0  0  0  0  0
   23.4832  -32.8637  -17.3534 C   0  0  1  0  0  0  0  0  0  0  0  0
   23.2815  -32.6291  -18.7227 O   0  0  0  0  0  0  0  0  0  0  0  0
   24.9724  -33.1502  -17.1978 C   0  0  2  0  0  0  0  0  0  0  0  0
   25.6638  -32.1008  -17.9301 N   0  0  0  0  0  0  0  0  0  0  0  0
   25.3237  -34.4812  -17.7136 C   0  0  0  0  0  0  0  0  0  0  0  0
   25.9697  -34.5485  -18.7912 O   0  0  0  0  0  0  0  0  0  0  0  0
   24.9925  -35.6776  -17.0943 O   0  0  0  0  0  0  0  0  0  0  0  0
  2  1  1  6
  2  9  1  0
  2  3  1  0
  3  4  1  0
  4  8  1  0
  4  5  2  0
  5  6  1  0
  7  6  1  0
  8  7  2  0
  9 11  1  0
 10  9  2  0
 11 12  1  0
 12 13  1  1
 13 14  1  0
 14 15  1  0
 15 16  1  0
 16 17  1  0
 18 19  2  0
 18 12  1  0
 21 20  1  1
 21 23  1  0
 22 21  1  0
 23 24  1  6
 23 25  1  0
 24 18  1  0
 25 27  1  0
 26 25  2  0
M  END
$$$$
