HKT.pdb
     RDKit          3D

 27 27  0  0  1  0  0  0  0  0999 V2000
   22.0127  -10.3072    7.1631 N   0  0  0  0  0  0  0  0  0  0  0  0
   21.1732  -11.0134    8.1065 C   0  0  1  0  0  0  0  0  0  0  0  0
   19.7745  -11.0349    7.5352 C   0  0  0  0  0  0  0  0  0  0  0  0
   18.8500  -10.6231    8.6153 C   0  0  0  0  0  0  0  0  0  0  0  0
   18.7337  -11.2510    9.8354 C   0  0  0  0  0  0  0  0  0  0  0  0
   17.7899  -10.5947   10.5617 N   0  0  0  0  0  0  0  0  0  0  0  0
   17.3266   -9.5818    9.8163 C   0  0  0  0  0  0  0  0  0  0  0  0
   17.9791   -9.6153    8.6438 N   0  0  0  0  0  0  0  0  0  0  0  0
   21.7194  -12.3536    8.3355 C   0  0  0  0  0  0  0  0  0  0  0  0
   21.9557  -13.0853    7.3482 O   0  0  0  0  0  0  0  0  0  0  0  0
   22.0077  -12.8996    9.6084 N   0  0  0  0  0  0  0  0  0  0  0  0
   22.4776  -14.2154    9.7565 C   0  0  1  0  0  0  0  0  0  0  0  0
   23.2520  -14.6119   10.9392 C   0  0  0  0  0  0  0  0  0  0  0  0
   23.8433  -15.9774   10.8147 C   0  0  0  0  0  0  0  0  0  0  0  0
   24.7058  -16.4552   11.9174 C   0  0  0  0  0  0  0  0  0  0  0  0
   25.3446  -17.8003   11.6153 C   0  0  0  0  0  0  0  0  0  0  0  0
   26.1440  -18.1986   12.7332 N   0  0  0  0  0  0  0  0  0  0  0  0
   21.2436  -15.0930    9.7263 C   0  0  0  0  0  0  0  0  0  0  0  0
   20.1025  -14.6192    9.8332 O   0  0  0  0  0  0  0  0  0  0  0  0
   18.5962  -17.9759    7.6860 C   0  0  0  0  0  0  0  0  0  0  0  0
   19.5907  -16.9516    8.1319 C   0  0  1  0  0  0  0  0  0  0  0  0
   18.9303  -15.7397    8.3882 O   0  0  0  0  0  0  0  0  0  0  0  0
   20.2651  -17.3404    9.4427 C   0  0  2  0  0  0  0  0  0  0  0  0
   21.4267  -16.4745    9.5712 N   0  0  0  0  0  0  0  0  0  0  0  0
   20.6529  -18.7584    9.4514 C   0  0  0  0  0  0  0  0  0  0  0  0
   20.0339  -19.5382   10.2206 O   0  0  0  0  0  0  0  0  0  0  0  0
   21.6592  -19.3036    8.6673 O   0  0  0  0  0  0  0  0  0  0  0  0
  2  1  1  6
  2  9  1  0
  2  3  1  0
  3  4  1  0
  4  8  1  0
  4  5  2  0
  5  6  1  0
  7  6  1  0
  8  7  2  0
  9 11  1  0
 10  9  2  0
 11 12  1  0
 12 13  1  1
 13 14  1  0
 14 15  1  0
 15 16  1  0
 16 17  1  0
 18 19  2  0
 18 12  1  0
 21 20  1  1
 21 23  1  0
 22 21  1  0
 23 24  1  6
 23 25  1  0
 24 18  1  0
 25 27  1  0
 26 25  2  0
M  END
$$$$
