HKT.pdb
     RDKit          3D

 27 27  0  0  1  0  0  0  0  0999 V2000
   26.3422  -19.4515  -10.5522 N   0  0  0  0  0  0  0  0  0  0  0  0
   25.9651  -20.8477  -10.5908 C   0  0  1  0  0  0  0  0  0  0  0  0
   25.3916  -21.1960   -9.2369 C   0  0  0  0  0  0  0  0  0  0  0  0
   26.2697  -20.5840   -8.2146 C   0  0  0  0  0  0  0  0  0  0  0  0
   27.3790  -19.8148   -8.4867 C   0  0  0  0  0  0  0  0  0  0  0  0
   27.9288  -19.4303   -7.3039 N   0  0  0  0  0  0  0  0  0  0  0  0
   27.1835  -19.9450   -6.3161 C   0  0  0  0  0  0  0  0  0  0  0  0
   26.1858  -20.6388   -6.8861 N   0  0  0  0  0  0  0  0  0  0  0  0
   25.0184  -21.0659  -11.6876 C   0  0  0  0  0  0  0  0  0  0  0  0
   24.7599  -22.2395  -12.0367 O   0  0  0  0  0  0  0  0  0  0  0  0
   24.3587  -20.0365  -12.3993 N   0  0  0  0  0  0  0  0  0  0  0  0
   23.5234  -20.3160  -13.4940 C   0  0  1  0  0  0  0  0  0  0  0  0
   22.0635  -20.2143  -13.3752 C   0  0  0  0  0  0  0  0  0  0  0  0
   21.4753  -21.2836  -12.5148 C   0  0  0  0  0  0  0  0  0  0  0  0
   20.0006  -21.3830  -12.4551 C   0  0  0  0  0  0  0  0  0  0  0  0
   19.5227  -22.8056  -12.2171 C   0  0  0  0  0  0  0  0  0  0  0  0
   18.1012  -22.7989  -12.0540 N   0  0  0  0  0  0  0  0  0  0  0  0
   23.9429  -19.3494  -14.5819 C   0  0  0  0  0  0  0  0  0  0  0  0
   23.6582  -18.1434  -14.5293 O   0  0  0  0  0  0  0  0  0  0  0  0
   27.2302  -18.4774  -15.5768 C   0  0  0  0  0  0  0  0  0  0  0  0
   26.5907  -19.0341  -16.8089 C   0  0  1  0  0  0  0  0  0  0  0  0
   26.9087  -20.3964  -16.9256 O   0  0  0  0  0  0  0  0  0  0  0  0
   25.0690  -18.9686  -16.7442 C   0  0  2  0  0  0  0  0  0  0  0  0
   24.6724  -19.8597  -15.6652 N   0  0  0  0  0  0  0  0  0  0  0  0
   24.4560  -19.3685  -18.0191 C   0  0  0  0  0  0  0  0  0  0  0  0
   23.6928  -20.3688  -18.0226 O   0  0  0  0  0  0  0  0  0  0  0  0
   24.6590  -18.7185  -19.2278 O   0  0  0  0  0  0  0  0  0  0  0  0
  2  1  1  1
  2  9  1  0
  2  3  1  0
  3  4  1  0
  4  8  1  0
  4  5  2  0
  5  6  1  0
  7  6  1  0
  8  7  2  0
  9 11  1  0
 10  9  2  0
 11 12  1  0
 12 13  1  1
 13 14  1  0
 14 15  1  0
 15 16  1  0
 16 17  1  0
 18 19  2  0
 18 12  1  0
 21 20  1  1
 21 23  1  0
 22 21  1  0
 23 24  1  1
 23 25  1  0
 24 18  1  0
 25 27  1  0
 26 25  2  0
M  END
$$$$
