FQS.pdb
     RDKit          3D

 27 27  0  0  1  0  0  0  0  0999 V2000
    5.6675  -17.7029   25.6178 N   0  0  0  0  0  0  0  0  0  0  0  0
    6.3136  -16.4335   25.4073 C   0  0  1  0  0  0  0  0  0  0  0  0
    6.9287  -15.9549   26.7447 C   0  0  0  0  0  0  0  0  0  0  0  0
    6.9690  -14.4636   26.6560 C   0  0  0  0  0  0  0  0  0  0  0  0
    8.0710  -13.7392   26.3124 C   0  0  0  0  0  0  0  0  0  0  0  0
    8.0222  -12.3399   26.2785 C   0  0  0  0  0  0  0  0  0  0  0  0
    6.8733  -11.6430   26.5852 C   0  0  0  0  0  0  0  0  0  0  0  0
    5.7579  -12.3686   26.9325 C   0  0  0  0  0  0  0  0  0  0  0  0
    5.8064  -13.7381   26.9667 C   0  0  0  0  0  0  0  0  0  0  0  0
    7.2746  -16.3596   24.3265 C   0  0  0  0  0  0  0  0  0  0  0  0
    8.1822  -17.2710   24.3131 O   0  0  0  0  0  0  0  0  0  0  0  0
    7.0783  -12.6756   19.4052 N   0  0  0  0  0  0  0  0  0  0  0  0
    8.1581  -13.5035   19.0004 C   0  0  0  0  0  0  0  0  0  0  0  0
    8.5648  -13.4356   17.8222 O   0  0  0  0  0  0  0  0  0  0  0  0
    8.7907  -14.4305   19.9647 C   0  0  0  0  0  0  0  0  0  0  0  0
    7.9647  -14.4359   21.2091 C   0  0  0  0  0  0  0  0  0  0  0  0
    8.3352  -15.5202   22.2037 C   0  0  2  0  0  0  0  0  0  0  0  0
    7.3513  -15.4167   23.2802 N   0  0  0  0  0  0  0  0  0  0  0  0
    9.7079  -15.4097   22.6830 C   0  0  0  0  0  0  0  0  0  0  0  0
   10.1098  -14.4918   23.4443 O   0  0  0  0  0  0  0  0  0  0  0  0
   12.0351  -18.4338   23.3483 O   0  0  0  0  0  0  0  0  0  0  0  0
   12.5478  -17.1997   23.7681 C   0  0  0  0  0  0  0  0  0  0  0  0
   12.1210  -16.1791   22.7378 C   0  0  2  0  0  0  0  0  0  0  0  0
   10.7508  -16.3477   22.3340 N   0  0  0  0  0  0  0  0  0  0  0  0
   13.0410  -16.2912   21.6030 C   0  0  0  0  0  0  0  0  0  0  0  0
   14.4026  -16.0440   21.7219 O   0  0  0  0  0  0  0  0  0  0  0  0
   12.5976  -16.6252   20.4708 O   0  0  0  0  0  0  0  0  0  0  0  0
  2  1  1  1
  3  2  1  0
  4  9  2  0
  4  3  1  0
  5  4  1  0
  6  7  1  0
  6  5  2  0
  7  8  2  0
  8  9  1  0
 10 11  2  0
 10  2  1  0
 13 12  1  0
 14 13  2  0
 15 13  1  0
 17 16  1  6
 16 15  1  0
 17 18  1  0
 18 10  1  0
 19 17  1  0
 20 19  2  0
 22 21  1  0
 23 22  1  1
 23 24  1  0
 24 19  1  0
 25 26  1  0
 25 23  1  0
 27 25  2  0
M  END
$$$$
