FQS.pdb
     RDKit          3D

 27 27  0  0  1  0  0  0  0  0999 V2000
    6.4621  -17.2079   26.1971 N   0  0  0  0  0  0  0  0  0  0  0  0
    6.9029  -16.0656   25.4396 C   0  0  1  0  0  0  0  0  0  0  0  0
    7.9132  -15.2583   26.2902 C   0  0  0  0  0  0  0  0  0  0  0  0
    7.3044  -13.9035   26.4563 C   0  0  0  0  0  0  0  0  0  0  0  0
    6.3693  -13.3686   25.6216 C   0  0  0  0  0  0  0  0  0  0  0  0
    5.8713  -12.0784   25.8425 C   0  0  0  0  0  0  0  0  0  0  0  0
    6.2973  -11.3037   26.8998 C   0  0  0  0  0  0  0  0  0  0  0  0
    7.2407  -11.8382   27.7458 C   0  0  0  0  0  0  0  0  0  0  0  0
    7.7288  -13.1005   27.5285 C   0  0  0  0  0  0  0  0  0  0  0  0
    7.4157  -16.3205   24.1096 C   0  0  0  0  0  0  0  0  0  0  0  0
    7.6629  -17.5503   23.8246 O   0  0  0  0  0  0  0  0  0  0  0  0
    7.6429  -12.5004   19.3084 N   0  0  0  0  0  0  0  0  0  0  0  0
    8.3292  -13.5906   18.7118 C   0  0  0  0  0  0  0  0  0  0  0  0
    8.6658  -13.5111   17.5125 O   0  0  0  0  0  0  0  0  0  0  0  0
    8.6407  -14.8007   19.5042 C   0  0  0  0  0  0  0  0  0  0  0  0
    8.0373  -14.6322   20.8601 C   0  0  0  0  0  0  0  0  0  0  0  0
    8.2748  -15.7976   21.8022 C   0  0  2  0  0  0  0  0  0  0  0  0
    7.6834  -15.3967   23.0777 N   0  0  0  0  0  0  0  0  0  0  0  0
    9.6832  -16.1560   21.9224 C   0  0  0  0  0  0  0  0  0  0  0  0
   10.5424  -15.4306   22.4873 O   0  0  0  0  0  0  0  0  0  0  0  0
   11.1092  -19.4507   20.0353 O   0  0  0  0  0  0  0  0  0  0  0  0
   11.9069  -19.1647   21.1506 C   0  0  0  0  0  0  0  0  0  0  0  0
   11.6309  -17.7264   21.5245 C   0  0  2  0  0  0  0  0  0  0  0  0
   10.2384  -17.3865   21.4057 N   0  0  0  0  0  0  0  0  0  0  0  0
   12.4721  -16.8829   20.6714 C   0  0  0  0  0  0  0  0  0  0  0  0
   13.8591  -16.9556   20.6893 O   0  0  0  0  0  0  0  0  0  0  0  0
   11.9337  -16.0571   19.8852 O   0  0  0  0  0  0  0  0  0  0  0  0
  2  1  1  1
  3  2  1  0
  4  9  2  0
  4  3  1  0
  5  4  1  0
  6  7  1  0
  6  5  2  0
  7  8  2  0
  8  9  1  0
 10 11  2  0
 10  2  1  0
 13 12  1  0
 14 13  2  0
 15 13  1  0
 17 16  1  6
 16 15  1  0
 17 18  1  0
 18 10  1  0
 19 17  1  0
 20 19  2  0
 22 21  1  0
 23 22  1  6
 23 24  1  0
 24 19  1  0
 25 26  1  0
 25 23  1  0
 27 25  2  0
M  END
$$$$
