FQS.pdb
     RDKit          3D

 27 27  0  0  1  0  0  0  0  0999 V2000
    7.5211  -17.5789   18.9221 N   0  0  0  0  0  0  0  0  0  0  0  0
    7.8724  -16.4443   19.7360 C   0  0  1  0  0  0  0  0  0  0  0  0
    6.5795  -15.6923   20.1344 C   0  0  0  0  0  0  0  0  0  0  0  0
    7.0333  -14.5006   20.9138 C   0  0  0  0  0  0  0  0  0  0  0  0
    6.9737  -14.3963   22.2714 C   0  0  0  0  0  0  0  0  0  0  0  0
    7.4010  -13.2288   22.9161 C   0  0  0  0  0  0  0  0  0  0  0  0
    7.8953  -12.1490   22.2165 C   0  0  0  0  0  0  0  0  0  0  0  0
    7.9582  -12.2484   20.8463 C   0  0  0  0  0  0  0  0  0  0  0  0
    7.5387  -13.3909   20.2156 C   0  0  0  0  0  0  0  0  0  0  0  0
    8.7121  -16.6999   20.8877 C   0  0  0  0  0  0  0  0  0  0  0  0
    8.3207  -17.6376   21.6764 O   0  0  0  0  0  0  0  0  0  0  0  0
   14.8494  -15.7460   21.6621 N   0  0  0  0  0  0  0  0  0  0  0  0
   14.2709  -16.5051   22.7130 C   0  0  0  0  0  0  0  0  0  0  0  0
   14.8356  -17.5547   23.0839 O   0  0  0  0  0  0  0  0  0  0  0  0
   13.0178  -16.0542   23.3578 C   0  0  0  0  0  0  0  0  0  0  0  0
   12.0299  -15.7460   22.2809 C   0  0  0  0  0  0  0  0  0  0  0  0
   10.7264  -16.5156   22.3857 C   0  0  2  0  0  0  0  0  0  0  0  0
    9.9087  -16.0550   21.2648 N   0  0  0  0  0  0  0  0  0  0  0  0
   10.0646  -16.3436   23.6736 C   0  0  0  0  0  0  0  0  0  0  0  0
    9.7580  -15.2229   24.1569 O   0  0  0  0  0  0  0  0  0  0  0  0
    7.6494  -18.8895   25.5341 O   0  0  0  0  0  0  0  0  0  0  0  0
    7.8504  -17.6424   26.1393 C   0  0  0  0  0  0  0  0  0  0  0  0
    9.2968  -17.2727   25.9020 C   0  0  2  0  0  0  0  0  0  0  0  0
    9.6890  -17.4466   24.5291 N   0  0  0  0  0  0  0  0  0  0  0  0
   10.1112  -18.0863   26.8083 C   0  0  0  0  0  0  0  0  0  0  0  0
    9.9632  -18.0367   28.1885 O   0  0  0  0  0  0  0  0  0  0  0  0
   10.9812  -18.8667   26.3348 O   0  0  0  0  0  0  0  0  0  0  0  0
  2  1  1  1
  3  2  1  0
  4  9  2  0
  4  3  1  0
  5  4  1  0
  6  7  1  0
  6  5  2  0
  7  8  2  0
  8  9  1  0
 10 11  2  0
 10  2  1  0
 13 12  1  0
 14 13  2  0
 15 13  1  0
 17 16  1  1
 16 15  1  0
 17 18  1  0
 18 10  1  0
 19 17  1  0
 20 19  2  0
 22 21  1  0
 23 22  1  6
 23 24  1  0
 24 19  1  0
 25 26  1  0
 25 23  1  0
 27 25  2  0
M  END
$$$$
