FQS.pdb
     RDKit          3D

 27 27  0  0  1  0  0  0  0  0999 V2000
    8.8081  -14.9173   26.7581 N   0  0  0  0  0  0  0  0  0  0  0  0
    7.8404  -15.5826   25.9250 C   0  0  1  0  0  0  0  0  0  0  0  0
    7.4023  -14.6185   24.7959 C   0  0  0  0  0  0  0  0  0  0  0  0
    6.9285  -13.3811   25.4872 C   0  0  0  0  0  0  0  0  0  0  0  0
    5.8740  -13.3328   26.3493 C   0  0  0  0  0  0  0  0  0  0  0  0
    5.4859  -12.1206   26.9335 C   0  0  0  0  0  0  0  0  0  0  0  0
    6.1445  -10.9395   26.6677 C   0  0  0  0  0  0  0  0  0  0  0  0
    7.2096  -10.9819   25.7988 C   0  0  0  0  0  0  0  0  0  0  0  0
    7.5884  -12.1684   25.2262 C   0  0  0  0  0  0  0  0  0  0  0  0
    8.2112  -16.8797   25.3989 C   0  0  0  0  0  0  0  0  0  0  0  0
    9.4004  -16.9764   24.9180 O   0  0  0  0  0  0  0  0  0  0  0  0
    5.1650  -23.4673   24.3525 N   0  0  0  0  0  0  0  0  0  0  0  0
    5.8106  -22.4187   25.0589 C   0  0  0  0  0  0  0  0  0  0  0  0
    5.7761  -22.4180   26.3067 O   0  0  0  0  0  0  0  0  0  0  0  0
    6.5145  -21.3453   24.3230 C   0  0  0  0  0  0  0  0  0  0  0  0
    7.1021  -20.4072   25.3258 C   0  0  0  0  0  0  0  0  0  0  0  0
    7.9358  -19.2898   24.7271 C   0  0  2  0  0  0  0  0  0  0  0  0
    7.4397  -18.0592   25.3412 N   0  0  0  0  0  0  0  0  0  0  0  0
    7.8800  -19.2543   23.2704 C   0  0  0  0  0  0  0  0  0  0  0  0
    6.8413  -18.9730   22.6181 O   0  0  0  0  0  0  0  0  0  0  0  0
   11.1704  -18.7373   20.9900 O   0  0  0  0  0  0  0  0  0  0  0  0
    9.9236  -18.4763   20.4074 C   0  0  0  0  0  0  0  0  0  0  0  0
    8.9545  -19.4809   20.9874 C   0  0  2  0  0  0  0  0  0  0  0  0
    9.0166  -19.5369   22.4233 N   0  0  0  0  0  0  0  0  0  0  0  0
    9.2531  -20.7796   20.3783 C   0  0  0  0  0  0  0  0  0  0  0  0
    9.2694  -20.9700   19.0024 O   0  0  0  0  0  0  0  0  0  0  0  0
    9.5087  -21.7705   21.1151 O   0  0  0  0  0  0  0  0  0  0  0  0
  2  1  1  6
  3  2  1  0
  4  9  2  0
  4  3  1  0
  5  4  1  0
  6  7  1  0
  6  5  2  0
  7  8  2  0
  8  9  1  0
 10 11  2  0
 10  2  1  0
 13 12  1  0
 14 13  2  0
 15 13  1  0
 17 16  1  1
 16 15  1  0
 17 18  1  0
 18 10  1  0
 19 17  1  0
 20 19  2  0
 22 21  1  0
 23 22  1  6
 23 24  1  0
 24 19  1  0
 25 26  1  0
 25 23  1  0
 27 25  2  0
M  END
$$$$
