FQS.pdb
     RDKit          3D

 27 27  0  0  1  0  0  0  0  0999 V2000
    6.0908  -16.1835   25.2050 N   0  0  0  0  0  0  0  0  0  0  0  0
    7.3661  -15.5810   24.9154 C   0  0  1  0  0  0  0  0  0  0  0  0
    7.9511  -14.9910   26.2214 C   0  0  0  0  0  0  0  0  0  0  0  0
    7.2455  -13.6893   26.4241 C   0  0  0  0  0  0  0  0  0  0  0  0
    6.1658  -13.5137   27.2370 C   0  0  0  0  0  0  0  0  0  0  0  0
    5.5529  -12.2592   27.3470 C   0  0  0  0  0  0  0  0  0  0  0  0
    6.0087  -11.1615   26.6492 C   0  0  0  0  0  0  0  0  0  0  0  0
    7.0980  -11.3324   25.8275 C   0  0  0  0  0  0  0  0  0  0  0  0
    7.6969  -12.5607   25.7191 C   0  0  0  0  0  0  0  0  0  0  0  0
    8.3371  -16.4042   24.2252 C   0  0  0  0  0  0  0  0  0  0  0  0
    8.4815  -17.6025   24.6702 O   0  0  0  0  0  0  0  0  0  0  0  0
   11.0223  -14.7183   19.1072 N   0  0  0  0  0  0  0  0  0  0  0  0
   11.8676  -14.5108   20.2288 C   0  0  0  0  0  0  0  0  0  0  0  0
   12.9450  -13.9007   20.0706 O   0  0  0  0  0  0  0  0  0  0  0  0
   11.4724  -15.0104   21.5643 C   0  0  0  0  0  0  0  0  0  0  0  0
   10.7398  -16.2984   21.3768 C   0  0  0  0  0  0  0  0  0  0  0  0
   10.2396  -16.9291   22.6629 C   0  0  2  0  0  0  0  0  0  0  0  0
    9.1522  -16.0675   23.1242 N   0  0  0  0  0  0  0  0  0  0  0  0
   11.2886  -17.0956   23.6621 C   0  0  0  0  0  0  0  0  0  0  0  0
   11.6756  -16.1752   24.4280 O   0  0  0  0  0  0  0  0  0  0  0  0
   11.7317  -20.1983   25.7802 O   0  0  0  0  0  0  0  0  0  0  0  0
   12.5297  -19.1061   26.1439 C   0  0  0  0  0  0  0  0  0  0  0  0
   13.0331  -18.4891   24.8590 C   0  0  2  0  0  0  0  0  0  0  0  0
   11.9920  -18.3397   23.8779 N   0  0  0  0  0  0  0  0  0  0  0  0
   14.1273  -19.3310   24.3683 C   0  0  0  0  0  0  0  0  0  0  0  0
   15.2609  -19.5944   25.1265 O   0  0  0  0  0  0  0  0  0  0  0  0
   14.0525  -19.8444   23.2190 O   0  0  0  0  0  0  0  0  0  0  0  0
  2  1  1  1
  3  2  1  0
  4  9  2  0
  4  3  1  0
  5  4  1  0
  6  7  1  0
  6  5  2  0
  7  8  2  0
  8  9  1  0
 10 11  2  0
 10  2  1  0
 13 12  1  0
 14 13  2  0
 15 13  1  0
 17 16  1  6
 16 15  1  0
 17 18  1  0
 18 10  1  0
 19 17  1  0
 20 19  2  0
 22 21  1  0
 23 22  1  1
 23 24  1  0
 24 19  1  0
 25 26  1  0
 25 23  1  0
 27 25  2  0
M  END
$$$$
