FQS.pdb
     RDKit          3D

 27 27  0  0  1  0  0  0  0  0999 V2000
    6.1018  -16.3293   25.7551 N   0  0  0  0  0  0  0  0  0  0  0  0
    7.4883  -15.9630   25.6275 C   0  0  1  0  0  0  0  0  0  0  0  0
    7.8392  -14.9331   26.7285 C   0  0  0  0  0  0  0  0  0  0  0  0
    7.1451  -13.6704   26.3317 C   0  0  0  0  0  0  0  0  0  0  0  0
    7.4966  -12.8972   25.2658 C   0  0  0  0  0  0  0  0  0  0  0  0
    6.8017  -11.7146   24.9832 C   0  0  0  0  0  0  0  0  0  0  0  0
    5.7454  -11.2868   25.7583 C   0  0  0  0  0  0  0  0  0  0  0  0
    5.3858  -12.0629   26.8351 C   0  0  0  0  0  0  0  0  0  0  0  0
    6.0670  -13.2198   27.1121 C   0  0  0  0  0  0  0  0  0  0  0  0
    8.4502  -17.0447   25.5890 C   0  0  0  0  0  0  0  0  0  0  0  0
    8.6925  -17.6267   26.7103 O   0  0  0  0  0  0  0  0  0  0  0  0
   10.6106  -20.2284   20.8403 N   0  0  0  0  0  0  0  0  0  0  0  0
    9.3186  -20.3008   21.4242 C   0  0  0  0  0  0  0  0  0  0  0  0
    8.3934  -20.8399   20.7826 O   0  0  0  0  0  0  0  0  0  0  0  0
    9.0770  -19.7460   22.7744 C   0  0  0  0  0  0  0  0  0  0  0  0
   10.3712  -19.2074   23.2901 C   0  0  0  0  0  0  0  0  0  0  0  0
   10.2673  -18.4965   24.6265 C   0  0  2  0  0  0  0  0  0  0  0  0
    9.1629  -17.5495   24.4812 N   0  0  0  0  0  0  0  0  0  0  0  0
   11.5122  -17.8522   25.0281 C   0  0  0  0  0  0  0  0  0  0  0  0
   11.9221  -17.8050   26.2169 O   0  0  0  0  0  0  0  0  0  0  0  0
   15.7556  -18.5771   24.3964 O   0  0  0  0  0  0  0  0  0  0  0  0
   14.3778  -18.6600   24.1583 C   0  0  0  0  0  0  0  0  0  0  0  0
   13.8394  -17.2492   24.2287 C   0  0  2  0  0  0  0  0  0  0  0  0
   12.4077  -17.2016   24.0984 N   0  0  0  0  0  0  0  0  0  0  0  0
   14.5077  -16.4727   23.1813 C   0  0  0  0  0  0  0  0  0  0  0  0
   15.5524  -15.5991   23.4548 O   0  0  0  0  0  0  0  0  0  0  0  0
   14.1348  -16.5911   21.9825 O   0  0  0  0  0  0  0  0  0  0  0  0
  2  1  1  1
  3  2  1  0
  4  9  2  0
  4  3  1  0
  5  4  1  0
  6  7  1  0
  6  5  2  0
  7  8  2  0
  8  9  1  0
 10 11  2  0
 10  2  1  0
 13 12  1  0
 14 13  2  0
 15 13  1  0
 17 16  1  6
 16 15  1  0
 17 18  1  0
 18 10  1  0
 19 17  1  0
 20 19  2  0
 22 21  1  0
 23 22  1  6
 23 24  1  0
 24 19  1  0
 25 26  1  0
 25 23  1  0
 27 25  2  0
M  END
$$$$
