FQS.pdb
     RDKit          3D

 27 27  0  0  1  0  0  0  0  0999 V2000
    6.0458  -16.6019   22.9430 N   0  0  0  0  0  0  0  0  0  0  0  0
    6.9898  -15.9862   23.8390 C   0  0  1  0  0  0  0  0  0  0  0  0
    6.3147  -15.7809   25.2166 C   0  0  0  0  0  0  0  0  0  0  0  0
    6.5984  -14.3630   25.5944 C   0  0  0  0  0  0  0  0  0  0  0  0
    7.8392  -13.7993   25.6049 C   0  0  0  0  0  0  0  0  0  0  0  0
    8.0131  -12.4661   25.9970 C   0  0  0  0  0  0  0  0  0  0  0  0
    6.9521  -11.6754   26.3827 C   0  0  0  0  0  0  0  0  0  0  0  0
    5.6975  -12.2385   26.3739 C   0  0  0  0  0  0  0  0  0  0  0  0
    5.5279  -13.5438   25.9912 C   0  0  0  0  0  0  0  0  0  0  0  0
    8.2804  -16.6292   23.9728 C   0  0  0  0  0  0  0  0  0  0  0  0
    8.2756  -17.8039   24.4971 O   0  0  0  0  0  0  0  0  0  0  0  0
   14.3774  -14.8986   22.1524 N   0  0  0  0  0  0  0  0  0  0  0  0
   14.1584  -15.9252   23.1081 C   0  0  0  0  0  0  0  0  0  0  0  0
   14.8428  -15.9371   24.1519 O   0  0  0  0  0  0  0  0  0  0  0  0
   13.1316  -16.9630   22.8674 C   0  0  0  0  0  0  0  0  0  0  0  0
   11.7955  -16.2957   22.8542 C   0  0  0  0  0  0  0  0  0  0  0  0
   10.7741  -16.9172   23.7885 C   0  0  2  0  0  0  0  0  0  0  0  0
    9.5505  -16.1384   23.6045 N   0  0  0  0  0  0  0  0  0  0  0  0
   11.2171  -16.9499   25.1773 C   0  0  0  0  0  0  0  0  0  0  0  0
   11.4606  -15.9192   25.8570 O   0  0  0  0  0  0  0  0  0  0  0  0
   10.2969  -19.7156   27.7586 O   0  0  0  0  0  0  0  0  0  0  0  0
   11.0090  -18.6339   28.2922 C   0  0  0  0  0  0  0  0  0  0  0  0
   12.0001  -18.2028   27.2353 C   0  0  2  0  0  0  0  0  0  0  0  0
   11.4203  -18.1737   25.9193 N   0  0  0  0  0  0  0  0  0  0  0  0
   13.1424  -19.1176   27.3070 C   0  0  0  0  0  0  0  0  0  0  0  0
   13.8620  -19.3188   28.4780 O   0  0  0  0  0  0  0  0  0  0  0  0
   13.4974  -19.7546   26.2783 O   0  0  0  0  0  0  0  0  0  0  0  0
  2  1  1  6
  3  2  1  0
  4  9  2  0
  4  3  1  0
  5  4  1  0
  6  7  1  0
  6  5  2  0
  7  8  2  0
  8  9  1  0
 10 11  2  0
 10  2  1  0
 13 12  1  0
 14 13  2  0
 15 13  1  0
 17 16  1  6
 16 15  1  0
 17 18  1  0
 18 10  1  0
 19 17  1  0
 20 19  2  0
 22 21  1  0
 23 22  1  1
 23 24  1  0
 24 19  1  0
 25 26  1  0
 25 23  1  0
 27 25  2  0
M  END
$$$$
