FQS.pdb
     RDKit          3D

 27 27  0  0  1  0  0  0  0  0999 V2000
    5.9249  -17.6164   25.7332 N   0  0  0  0  0  0  0  0  0  0  0  0
    6.5381  -16.3635   25.3764 C   0  0  1  0  0  0  0  0  0  0  0  0
    7.2506  -15.7805   26.6208 C   0  0  0  0  0  0  0  0  0  0  0  0
    6.9514  -14.3164   26.6044 C   0  0  0  0  0  0  0  0  0  0  0  0
    5.7390  -13.7716   26.9054 C   0  0  0  0  0  0  0  0  0  0  0  0
    5.5439  -12.3863   26.8401 C   0  0  0  0  0  0  0  0  0  0  0  0
    6.5554  -11.5241   26.4753 C   0  0  0  0  0  0  0  0  0  0  0  0
    7.7813  -12.0679   26.1706 C   0  0  0  0  0  0  0  0  0  0  0  0
    7.9715  -13.4239   26.2335 C   0  0  0  0  0  0  0  0  0  0  0  0
    7.4104  -16.3674   24.2206 C   0  0  0  0  0  0  0  0  0  0  0  0
    8.3221  -17.2747   24.2029 O   0  0  0  0  0  0  0  0  0  0  0  0
    7.2752  -12.5753   19.3624 N   0  0  0  0  0  0  0  0  0  0  0  0
    8.3961  -13.3520   18.9678 C   0  0  0  0  0  0  0  0  0  0  0  0
    8.9604  -13.0945   17.8846 O   0  0  0  0  0  0  0  0  0  0  0  0
    8.8861  -14.4487   19.8318 C   0  0  0  0  0  0  0  0  0  0  0  0
    7.9907  -14.5316   21.0244 C   0  0  0  0  0  0  0  0  0  0  0  0
    8.3512  -15.6321   22.0048 C   0  0  2  0  0  0  0  0  0  0  0  0
    7.3964  -15.5047   23.1046 N   0  0  0  0  0  0  0  0  0  0  0  0
    9.7375  -15.5659   22.4522 C   0  0  0  0  0  0  0  0  0  0  0  0
   10.2564  -14.5422   22.9682 O   0  0  0  0  0  0  0  0  0  0  0  0
   11.5792  -18.4986   23.9684 O   0  0  0  0  0  0  0  0  0  0  0  0
   12.6009  -17.8861   23.2317 C   0  0  0  0  0  0  0  0  0  0  0  0
   12.0453  -16.5743   22.7261 C   0  0  2  0  0  0  0  0  0  0  0  0
   10.6603  -16.6738   22.3508 N   0  0  0  0  0  0  0  0  0  0  0  0
   12.8844  -16.1469   21.6035 C   0  0  0  0  0  0  0  0  0  0  0  0
   14.2495  -15.9272   21.7365 O   0  0  0  0  0  0  0  0  0  0  0  0
   12.3649  -15.9692   20.4684 O   0  0  0  0  0  0  0  0  0  0  0  0
  2  1  1  1
  3  2  1  0
  4  9  2  0
  4  3  1  0
  5  4  1  0
  6  7  1  0
  6  5  2  0
  7  8  2  0
  8  9  1  0
 10 11  2  0
 10  2  1  0
 13 12  1  0
 14 13  2  0
 15 13  1  0
 17 16  1  6
 16 15  1  0
 17 18  1  0
 18 10  1  0
 19 17  1  0
 20 19  2  0
 22 21  1  0
 23 22  1  6
 23 24  1  0
 24 19  1  0
 25 26  1  0
 25 23  1  0
 27 25  2  0
M  END
$$$$
