FQS.pdb
     RDKit          3D

 27 27  0  0  1  0  0  0  0  0999 V2000
    5.5292  -17.7366   24.5269 N   0  0  0  0  0  0  0  0  0  0  0  0
    6.1920  -16.4586   24.5503 C   0  0  1  0  0  0  0  0  0  0  0  0
    6.5005  -16.0796   26.0190 C   0  0  0  0  0  0  0  0  0  0  0  0
    6.4467  -14.5869   26.0672 C   0  0  0  0  0  0  0  0  0  0  0  0
    5.2997  -13.8526   26.0153 C   0  0  0  0  0  0  0  0  0  0  0  0
    5.3473  -12.4532   26.0428 C   0  0  0  0  0  0  0  0  0  0  0  0
    6.5392  -11.7658   26.1240 C   0  0  0  0  0  0  0  0  0  0  0  0
    7.7000  -12.5013   26.1769 C   0  0  0  0  0  0  0  0  0  0  0  0
    7.6531  -13.8710   26.1488 C   0  0  0  0  0  0  0  0  0  0  0  0
    7.3616  -16.3124   23.7092 C   0  0  0  0  0  0  0  0  0  0  0  0
    8.1191  -17.3472   23.6085 O   0  0  0  0  0  0  0  0  0  0  0  0
    9.2188  -12.5913   18.9446 N   0  0  0  0  0  0  0  0  0  0  0  0
    7.9280  -13.1736   19.0453 C   0  0  0  0  0  0  0  0  0  0  0  0
    7.1080  -12.9923   18.1217 O   0  0  0  0  0  0  0  0  0  0  0  0
    7.5646  -13.9844   20.2285 C   0  0  0  0  0  0  0  0  0  0  0  0
    8.7291  -13.9831   21.1638 C   0  0  0  0  0  0  0  0  0  0  0  0
    8.8660  -15.2433   21.9976 C   0  0  2  0  0  0  0  0  0  0  0  0
    7.7861  -15.1812   22.9812 N   0  0  0  0  0  0  0  0  0  0  0  0
   10.1809  -15.3801   22.6129 C   0  0  0  0  0  0  0  0  0  0  0  0
   11.2629  -15.2665   21.9806 O   0  0  0  0  0  0  0  0  0  0  0  0
   10.6828  -17.0088   26.3992 O   0  0  0  0  0  0  0  0  0  0  0  0
   11.6232  -16.0150   26.0990 C   0  0  0  0  0  0  0  0  0  0  0  0
   11.6726  -15.9049   24.5922 C   0  0  2  0  0  0  0  0  0  0  0  0
   10.3772  -15.6583   24.0177 N   0  0  0  0  0  0  0  0  0  0  0  0
   12.2680  -17.1426   24.0819 C   0  0  0  0  0  0  0  0  0  0  0  0
   13.5390  -17.5641   24.4511 O   0  0  0  0  0  0  0  0  0  0  0  0
   11.6160  -17.8641   23.2793 O   0  0  0  0  0  0  0  0  0  0  0  0
  2  1  1  1
  3  2  1  0
  4  9  2  0
  4  3  1  0
  5  4  1  0
  6  7  1  0
  6  5  2  0
  7  8  2  0
  8  9  1  0
 10 11  2  0
 10  2  1  0
 13 12  1  0
 14 13  2  0
 15 13  1  0
 17 16  1  1
 16 15  1  0
 17 18  1  0
 18 10  1  0
 19 17  1  0
 20 19  2  0
 22 21  1  0
 23 22  1  1
 23 24  1  0
 24 19  1  0
 25 26  1  0
 25 23  1  0
 27 25  2  0
M  END
$$$$
