FQS.pdb
     RDKit          3D

 27 27  0  0  1  0  0  0  0  0999 V2000
    5.7919  -16.8857   25.5131 N   0  0  0  0  0  0  0  0  0  0  0  0
    6.7068  -15.8593   25.0858 C   0  0  1  0  0  0  0  0  0  0  0  0
    7.3701  -15.2265   26.3330 C   0  0  0  0  0  0  0  0  0  0  0  0
    6.8696  -13.8191   26.3821 C   0  0  0  0  0  0  0  0  0  0  0  0
    5.6000  -13.4616   26.7252 C   0  0  0  0  0  0  0  0  0  0  0  0
    5.2125  -12.1158   26.7204 C   0  0  0  0  0  0  0  0  0  0  0  0
    6.0858  -11.1070   26.3751 C   0  0  0  0  0  0  0  0  0  0  0  0
    7.3685  -11.4615   26.0282 C   0  0  0  0  0  0  0  0  0  0  0  0
    7.7470  -12.7790   26.0318 C   0  0  0  0  0  0  0  0  0  0  0  0
    7.6936  -16.2337   24.0943 C   0  0  0  0  0  0  0  0  0  0  0  0
    8.2022  -17.4088   24.2179 O   0  0  0  0  0  0  0  0  0  0  0  0
    6.8072  -13.6052   18.5954 N   0  0  0  0  0  0  0  0  0  0  0  0
    7.8370  -13.4458   19.5595 C   0  0  0  0  0  0  0  0  0  0  0  0
    8.7564  -12.6318   19.3348 O   0  0  0  0  0  0  0  0  0  0  0  0
    7.8162  -14.2335   20.8118 C   0  0  0  0  0  0  0  0  0  0  0  0
    9.0067  -15.1355   20.8092 C   0  0  0  0  0  0  0  0  0  0  0  0
    9.1235  -16.0243   22.0334 C   0  0  2  0  0  0  0  0  0  0  0  0
    8.1765  -15.4791   23.0048 N   0  0  0  0  0  0  0  0  0  0  0  0
   10.4831  -16.1013   22.5547 C   0  0  0  0  0  0  0  0  0  0  0  0
   11.1382  -15.1010   22.9470 O   0  0  0  0  0  0  0  0  0  0  0  0
   12.0910  -19.7008   23.2607 O   0  0  0  0  0  0  0  0  0  0  0  0
   12.8012  -18.7114   23.9527 C   0  0  0  0  0  0  0  0  0  0  0  0
   12.5455  -17.4082   23.2308 C   0  0  2  0  0  0  0  0  0  0  0  0
   11.2197  -17.3390   22.6772 N   0  0  0  0  0  0  0  0  0  0  0  0
   13.5750  -17.2706   22.1974 C   0  0  0  0  0  0  0  0  0  0  0  0
   14.9323  -17.3246   22.4876 O   0  0  0  0  0  0  0  0  0  0  0  0
   13.2340  -17.0985   20.9957 O   0  0  0  0  0  0  0  0  0  0  0  0
  2  1  1  1
  3  2  1  0
  4  9  2  0
  4  3  1  0
  5  4  1  0
  6  7  1  0
  6  5  2  0
  7  8  2  0
  8  9  1  0
 10 11  2  0
 10  2  1  0
 13 12  1  0
 14 13  2  0
 15 13  1  0
 17 16  1  6
 16 15  1  0
 17 18  1  0
 18 10  1  0
 19 17  1  0
 20 19  2  0
 22 21  1  0
 23 22  1  6
 23 24  1  0
 24 19  1  0
 25 26  1  0
 25 23  1  0
 27 25  2  0
M  END
$$$$
