FQS.pdb
     RDKit          3D

 27 27  0  0  1  0  0  0  0  0999 V2000
    5.8362  -17.8607   25.2290 N   0  0  0  0  0  0  0  0  0  0  0  0
    6.2787  -16.4947   25.1225 C   0  0  1  0  0  0  0  0  0  0  0  0
    6.9378  -16.0745   26.4585 C   0  0  0  0  0  0  0  0  0  0  0  0
    6.7112  -14.6016   26.5712 C   0  0  0  0  0  0  0  0  0  0  0  0
    5.4846  -14.0098   26.6221 C   0  0  0  0  0  0  0  0  0  0  0  0
    5.3681  -12.6166   26.7038 C   0  0  0  0  0  0  0  0  0  0  0  0
    6.4731  -11.7935   26.7375 C   0  0  0  0  0  0  0  0  0  0  0  0
    7.7137  -12.3848   26.6866 C   0  0  0  0  0  0  0  0  0  0  0  0
    7.8272  -13.7484   26.6054 C   0  0  0  0  0  0  0  0  0  0  0  0
    7.1202  -16.1656   23.9909 C   0  0  0  0  0  0  0  0  0  0  0  0
    8.0748  -16.9897   23.7371 O   0  0  0  0  0  0  0  0  0  0  0  0
    9.4845  -13.8045   18.2319 N   0  0  0  0  0  0  0  0  0  0  0  0
    8.4137  -13.7058   19.1588 C   0  0  0  0  0  0  0  0  0  0  0  0
    7.3204  -14.2398   18.8803 O   0  0  0  0  0  0  0  0  0  0  0  0
    8.5958  -12.9811   20.4359 C   0  0  0  0  0  0  0  0  0  0  0  0
    7.5996  -13.5123   21.4137 C   0  0  0  0  0  0  0  0  0  0  0  0
    7.9635  -14.8582   22.0122 C   0  0  2  0  0  0  0  0  0  0  0  0
    7.0349  -15.0561   23.1240 N   0  0  0  0  0  0  0  0  0  0  0  0
    9.3600  -14.9406   22.4236 C   0  0  0  0  0  0  0  0  0  0  0  0
    9.9386  -14.0595   23.1109 O   0  0  0  0  0  0  0  0  0  0  0  0
   11.4071  -18.3877   22.2546 O   0  0  0  0  0  0  0  0  0  0  0  0
   12.0764  -17.3886   22.9728 C   0  0  0  0  0  0  0  0  0  0  0  0
   11.6300  -16.0652   22.3947 C   0  0  2  0  0  0  0  0  0  0  0  0
   10.2254  -16.0479   22.0853 N   0  0  0  0  0  0  0  0  0  0  0  0
   12.4518  -15.8052   21.2099 C   0  0  0  0  0  0  0  0  0  0  0  0
   13.8308  -15.6540   21.2796 O   0  0  0  0  0  0  0  0  0  0  0  0
   11.9038  -15.7145   20.0778 O   0  0  0  0  0  0  0  0  0  0  0  0
  2  1  1  1
  3  2  1  0
  4  9  2  0
  4  3  1  0
  5  4  1  0
  6  7  1  0
  6  5  2  0
  7  8  2  0
  8  9  1  0
 10 11  2  0
 10  2  1  0
 13 12  1  0
 14 13  2  0
 15 13  1  0
 17 16  1  1
 16 15  1  0
 17 18  1  0
 18 10  1  0
 19 17  1  0
 20 19  2  0
 22 21  1  0
 23 22  1  6
 23 24  1  0
 24 19  1  0
 25 26  1  0
 25 23  1  0
 27 25  2  0
M  END
$$$$
