FQS.pdb
     RDKit          3D

 27 27  0  0  1  0  0  0  0  0999 V2000
    5.4594  -17.3680   25.4479 N   0  0  0  0  0  0  0  0  0  0  0  0
    6.3292  -16.2626   25.1405 C   0  0  1  0  0  0  0  0  0  0  0  0
    7.2002  -15.9487   26.3810 C   0  0  0  0  0  0  0  0  0  0  0  0
    7.1078  -14.4692   26.5712 C   0  0  0  0  0  0  0  0  0  0  0  0
    8.1502  -13.6700   26.9349 C   0  0  0  0  0  0  0  0  0  0  0  0
    7.9645  -12.2934   27.1132 C   0  0  0  0  0  0  0  0  0  0  0  0
    6.7371  -11.6936   26.9299 C   0  0  0  0  0  0  0  0  0  0  0  0
    5.6815  -12.4949   26.5626 C   0  0  0  0  0  0  0  0  0  0  0  0
    5.8634  -13.8424   26.3893 C   0  0  0  0  0  0  0  0  0  0  0  0
    7.1356  -16.3775   23.9433 C   0  0  0  0  0  0  0  0  0  0  0  0
    6.6999  -17.1867   23.0431 O   0  0  0  0  0  0  0  0  0  0  0  0
    6.5843  -13.3508   19.2063 N   0  0  0  0  0  0  0  0  0  0  0  0
    7.8125  -13.3060   19.9168 C   0  0  0  0  0  0  0  0  0  0  0  0
    8.8340  -12.8865   19.3347 O   0  0  0  0  0  0  0  0  0  0  0  0
    7.8762  -13.7493   21.3270 C   0  0  0  0  0  0  0  0  0  0  0  0
    7.9482  -15.2411   21.3387 C   0  0  0  0  0  0  0  0  0  0  0  0
    8.9648  -15.8130   22.3090 C   0  0  2  0  0  0  0  0  0  0  0  0
    8.3426  -15.7187   23.6287 N   0  0  0  0  0  0  0  0  0  0  0  0
   10.2559  -15.1381   22.2459 C   0  0  0  0  0  0  0  0  0  0  0  0
   10.3879  -13.8886   22.1763 O   0  0  0  0  0  0  0  0  0  0  0  0
   11.5092  -17.5144   24.6638 O   0  0  0  0  0  0  0  0  0  0  0  0
   11.7476  -16.1342   24.6826 C   0  0  0  0  0  0  0  0  0  0  0  0
   12.4267  -15.7930   23.3759 C   0  0  2  0  0  0  0  0  0  0  0  0
   11.5210  -15.8372   22.2594 N   0  0  0  0  0  0  0  0  0  0  0  0
   13.5450  -16.7245   23.2072 C   0  0  0  0  0  0  0  0  0  0  0  0
   14.5870  -16.8093   24.1218 O   0  0  0  0  0  0  0  0  0  0  0  0
   13.5774  -17.4853   22.2022 O   0  0  0  0  0  0  0  0  0  0  0  0
  2  1  1  1
  3  2  1  0
  4  9  2  0
  4  3  1  0
  5  4  1  0
  6  7  1  0
  6  5  2  0
  7  8  2  0
  8  9  1  0
 10 11  2  0
 10  2  1  0
 13 12  1  0
 14 13  2  0
 15 13  1  0
 17 16  1  6
 16 15  1  0
 17 18  1  0
 18 10  1  0
 19 17  1  0
 20 19  2  0
 22 21  1  0
 23 22  1  1
 23 24  1  0
 24 19  1  0
 25 26  1  0
 25 23  1  0
 27 25  2  0
M  END
$$$$
