DTA.pdb
     RDKit          3D

 21 20  0  0  1  0  0  0  0  0999 V2000
   18.1237  -12.2415  -17.3149 N   0  0  0  0  0  0  0  0  0  0  0  0
   19.3047  -11.7540  -16.5595 C   0  0  1  0  0  0  0  0  0  0  0  0
   20.5430  -12.3787  -17.1055 C   0  0  0  0  0  0  0  0  0  0  0  0
   20.5869  -13.8179  -16.8944 C   0  0  0  0  0  0  0  0  0  0  0  0
   19.7396  -14.4329  -16.2370 O   0  0  0  0  0  0  0  0  0  0  0  0
   19.3036  -10.2684  -16.6444 C   0  0  0  0  0  0  0  0  0  0  0  0
   19.2017   -9.6433  -17.7095 O   0  0  0  0  0  0  0  0  0  0  0  0
   21.6270  -14.5863  -17.4481 O   0  0  0  0  0  0  0  0  0  0  0  0
   16.7584   -8.3467  -15.0795 C   0  0  0  0  0  0  0  0  0  0  0  0
   18.0405   -7.8152  -14.5390 C   0  0  1  0  0  0  0  0  0  0  0  0
   18.2870   -8.5027  -13.3274 O   0  0  0  0  0  0  0  0  0  0  0  0
   19.2420   -8.0358  -15.4346 C   0  0  2  0  0  0  0  0  0  0  0  0
   19.4246   -9.4912  -15.4570 N   0  0  0  0  0  0  0  0  0  0  0  0
   20.4649   -7.3962  -14.9466 C   0  0  0  0  0  0  0  0  0  0  0  0
   21.0970   -7.9253  -13.9677 O   0  0  0  0  0  0  0  0  0  0  0  0
   22.7478   -4.4745  -15.7371 C   0  0  0  0  0  0  0  0  0  0  0  0
   22.2440   -5.6137  -14.9042 C   0  0  2  0  0  0  0  0  0  0  0  0
   21.0487   -6.2201  -15.4510 N   0  0  0  0  0  0  0  0  0  0  0  0
   21.9134   -5.1081  -13.5503 C   0  0  0  0  0  0  0  0  0  0  0  0
   22.8890   -4.8760  -12.5717 O   0  0  0  0  0  0  0  0  0  0  0  0
   20.7294   -4.8599  -13.2093 O   0  0  0  0  0  0  0  0  0  0  0  0
  2  1  1  6
  3  2  1  0
  4  3  1  0
  5  4  2  0
  6  2  1  0
  7  6  2  0
  8  4  1  0
 10  9  1  6
 10 12  1  0
 11 10  1  0
 12 14  1  0
 12 13  1  1
 13  6  1  0
 14 18  1  0
 15 14  2  0
 17 16  1  6
 17 19  1  0
 18 17  1  0
 19 21  2  0
 19 20  1  0
M  END
$$$$
