DTA.pdb
     RDKit          3D

 21 20  0  0  1  0  0  0  0  0999 V2000
   17.2050  -11.7321  -16.3509 N   0  0  0  0  0  0  0  0  0  0  0  0
   16.9572  -10.3777  -15.7964 C   0  0  1  0  0  0  0  0  0  0  0  0
   16.5700  -10.4857  -14.3611 C   0  0  0  0  0  0  0  0  0  0  0  0
   15.2859  -11.1442  -14.1731 C   0  0  0  0  0  0  0  0  0  0  0  0
   14.6246  -11.6186  -15.1036 O   0  0  0  0  0  0  0  0  0  0  0  0
   18.1901   -9.5748  -16.0187 C   0  0  0  0  0  0  0  0  0  0  0  0
   19.3279  -10.0639  -16.0597 O   0  0  0  0  0  0  0  0  0  0  0  0
   14.7330  -11.2696  -12.8857 O   0  0  0  0  0  0  0  0  0  0  0  0
   18.6270   -7.2437  -18.9504 C   0  0  0  0  0  0  0  0  0  0  0  0
   18.8146   -6.4809  -17.6849 C   0  0  1  0  0  0  0  0  0  0  0  0
   17.5578   -5.9192  -17.3587 O   0  0  0  0  0  0  0  0  0  0  0  0
   19.2537   -7.3194  -16.5024 C   0  0  2  0  0  0  0  0  0  0  0  0
   18.0944   -8.1649  -16.1974 N   0  0  0  0  0  0  0  0  0  0  0  0
   19.6090   -6.5308  -15.3214 C   0  0  0  0  0  0  0  0  0  0  0  0
   18.6818   -5.9479  -14.6593 O   0  0  0  0  0  0  0  0  0  0  0  0
   22.5922   -5.7818  -13.1179 C   0  0  0  0  0  0  0  0  0  0  0  0
   21.1910   -5.5781  -13.6086 C   0  0  2  0  0  0  0  0  0  0  0  0
   20.9042   -6.3331  -14.8100 N   0  0  0  0  0  0  0  0  0  0  0  0
   20.9968   -4.1422  -13.9221 C   0  0  0  0  0  0  0  0  0  0  0  0
   20.7343   -3.1825  -12.9354 O   0  0  0  0  0  0  0  0  0  0  0  0
   21.0588   -3.7096  -15.1006 O   0  0  0  0  0  0  0  0  0  0  0  0
  2  1  1  1
  3  2  1  0
  4  3  1  0
  5  4  2  0
  6  2  1  0
  7  6  2  0
  8  4  1  0
 10  9  1  6
 10 12  1  0
 11 10  1  0
 12 14  1  0
 12 13  1  1
 13  6  1  0
 14 18  1  0
 15 14  2  0
 17 16  1  6
 17 19  1  0
 18 17  1  0
 19 21  2  0
 19 20  1  0
M  END
$$$$
