DTA.pdb
     RDKit          3D

 21 20  0  0  1  0  0  0  0  0999 V2000
   16.5786  -10.9264  -17.3788 N   0  0  0  0  0  0  0  0  0  0  0  0
   17.2191  -10.4295  -16.1355 C   0  0  1  0  0  0  0  0  0  0  0  0
   18.0327  -11.5165  -15.5206 C   0  0  0  0  0  0  0  0  0  0  0  0
   17.2174  -12.5192  -14.8513 C   0  0  0  0  0  0  0  0  0  0  0  0
   16.0076  -12.3783  -14.6397 O   0  0  0  0  0  0  0  0  0  0  0  0
   18.0154   -9.2256  -16.4971 C   0  0  0  0  0  0  0  0  0  0  0  0
   18.6139   -9.0986  -17.5747 O   0  0  0  0  0  0  0  0  0  0  0  0
   17.7937  -13.7231  -14.4071 O   0  0  0  0  0  0  0  0  0  0  0  0
   16.5795   -5.9516  -16.8106 C   0  0  0  0  0  0  0  0  0  0  0  0
   17.6570   -5.8371  -15.7888 C   0  0  1  0  0  0  0  0  0  0  0  0
   17.0445   -6.0316  -14.5285 O   0  0  0  0  0  0  0  0  0  0  0  0
   18.7599   -6.8674  -15.9172 C   0  0  2  0  0  0  0  0  0  0  0  0
   18.1171   -8.1418  -15.5785 N   0  0  0  0  0  0  0  0  0  0  0  0
   19.8904   -6.6346  -15.0168 C   0  0  0  0  0  0  0  0  0  0  0  0
   19.7095   -6.7247  -13.7532 O   0  0  0  0  0  0  0  0  0  0  0  0
   23.6343   -6.0721  -15.1511 C   0  0  0  0  0  0  0  0  0  0  0  0
   22.3067   -6.1854  -14.4654 C   0  0  2  0  0  0  0  0  0  0  0  0
   21.2055   -6.3110  -15.3966 N   0  0  0  0  0  0  0  0  0  0  0  0
   22.0775   -4.9623  -13.6596 C   0  0  0  0  0  0  0  0  0  0  0  0
   22.7088   -4.7396  -12.4286 O   0  0  0  0  0  0  0  0  0  0  0  0
   21.2977   -4.0547  -14.0444 O   0  0  0  0  0  0  0  0  0  0  0  0
  2  1  1  6
  3  2  1  0
  4  3  1  0
  5  4  2  0
  6  2  1  0
  7  6  2  0
  8  4  1  0
 10  9  1  6
 10 12  1  0
 11 10  1  0
 12 14  1  0
 12 13  1  1
 13  6  1  0
 14 18  1  0
 15 14  2  0
 17 16  1  6
 17 19  1  0
 18 17  1  0
 19 21  2  0
 19 20  1  0
M  END
$$$$
