DTA.pdb
     RDKit          3D

 21 20  0  0  1  0  0  0  0  0999 V2000
   17.4816  -11.6358  -16.3838 N   0  0  0  0  0  0  0  0  0  0  0  0
   17.5866  -10.1560  -16.4318 C   0  0  1  0  0  0  0  0  0  0  0  0
   16.3245   -9.5462  -15.9250 C   0  0  0  0  0  0  0  0  0  0  0  0
   15.2121   -9.7054  -16.8498 C   0  0  0  0  0  0  0  0  0  0  0  0
   15.3022  -10.3187  -17.9194 O   0  0  0  0  0  0  0  0  0  0  0  0
   18.7888   -9.7706  -15.6441 C   0  0  0  0  0  0  0  0  0  0  0  0
   18.9494  -10.0652  -14.4512 O   0  0  0  0  0  0  0  0  0  0  0  0
   13.9544   -9.1506  -16.5513 O   0  0  0  0  0  0  0  0  0  0  0  0
   22.4779  -10.4863  -16.2493 C   0  0  0  0  0  0  0  0  0  0  0  0
   22.1879   -9.0300  -16.3661 C   0  0  1  0  0  0  0  0  0  0  0  0
   21.8698   -8.7863  -17.7229 O   0  0  0  0  0  0  0  0  0  0  0  0
   21.0149   -8.5521  -15.5356 C   0  0  2  0  0  0  0  0  0  0  0  0
   19.8307   -9.0220  -16.2628 N   0  0  0  0  0  0  0  0  0  0  0  0
   20.9530   -7.0971  -15.3871 C   0  0  0  0  0  0  0  0  0  0  0  0
   20.4021   -6.3996  -16.3078 O   0  0  0  0  0  0  0  0  0  0  0  0
   21.5364   -4.4181  -12.7934 C   0  0  0  0  0  0  0  0  0  0  0  0
   21.3201   -4.9104  -14.1921 C   0  0  2  0  0  0  0  0  0  0  0  0
   21.4488   -6.3479  -14.3048 N   0  0  0  0  0  0  0  0  0  0  0  0
   22.3372   -4.2965  -15.0789 C   0  0  0  0  0  0  0  0  0  0  0  0
   22.2593   -2.9652  -15.5092 O   0  0  0  0  0  0  0  0  0  0  0  0
   23.3303   -4.9461  -15.4933 O   0  0  0  0  0  0  0  0  0  0  0  0
  2  1  1  1
  3  2  1  0
  4  3  1  0
  5  4  2  0
  6  2  1  0
  7  6  2  0
  8  4  1  0
 10  9  1  6
 10 12  1  0
 11 10  1  0
 12 14  1  0
 12 13  1  6
 13  6  1  0
 14 18  1  0
 15 14  2  0
 17 16  1  1
 17 19  1  0
 18 17  1  0
 19 21  2  0
 19 20  1  0
M  END
$$$$
