DTA.pdb
     RDKit          3D

 21 20  0  0  1  0  0  0  0  0999 V2000
   17.0851  -11.8554  -16.7358 N   0  0  0  0  0  0  0  0  0  0  0  0
   16.9823  -10.6303  -15.9041 C   0  0  1  0  0  0  0  0  0  0  0  0
   16.8927  -11.0066  -14.4646 C   0  0  0  0  0  0  0  0  0  0  0  0
   15.7069  -11.7941  -14.1619 C   0  0  0  0  0  0  0  0  0  0  0  0
   14.7083  -11.8230  -14.8900 O   0  0  0  0  0  0  0  0  0  0  0  0
   18.1601   -9.7782  -16.2216 C   0  0  0  0  0  0  0  0  0  0  0  0
   19.2328  -10.2252  -16.6519 O   0  0  0  0  0  0  0  0  0  0  0  0
   15.6519  -12.5760  -12.9939 O   0  0  0  0  0  0  0  0  0  0  0  0
   18.2807   -7.0474  -18.6713 C   0  0  0  0  0  0  0  0  0  0  0  0
   18.6074   -6.4727  -17.3367 C   0  0  1  0  0  0  0  0  0  0  0  0
   17.3913   -6.0027  -16.7876 O   0  0  0  0  0  0  0  0  0  0  0  0
   19.1942   -7.4618  -16.3508 C   0  0  2  0  0  0  0  0  0  0  0  0
   18.0858   -8.3685  -16.0322 N   0  0  0  0  0  0  0  0  0  0  0  0
   19.6895   -6.8426  -15.1203 C   0  0  0  0  0  0  0  0  0  0  0  0
   18.8489   -6.3866  -14.2700 O   0  0  0  0  0  0  0  0  0  0  0  0
   22.8723   -6.2942  -13.1704 C   0  0  0  0  0  0  0  0  0  0  0  0
   21.4735   -5.9497  -13.5826 C   0  0  2  0  0  0  0  0  0  0  0  0
   21.0375   -6.6858  -14.7503 N   0  0  0  0  0  0  0  0  0  0  0  0
   21.4128   -4.5055  -13.9122 C   0  0  0  0  0  0  0  0  0  0  0  0
   21.4295   -3.5055  -12.9308 O   0  0  0  0  0  0  0  0  0  0  0  0
   21.3428   -4.1020  -15.1006 O   0  0  0  0  0  0  0  0  0  0  0  0
  2  1  1  6
  3  2  1  0
  4  3  1  0
  5  4  2  0
  6  2  1  0
  7  6  2  0
  8  4  1  0
 10  9  1  6
 10 12  1  0
 11 10  1  0
 12 14  1  0
 12 13  1  1
 13  6  1  0
 14 18  1  0
 15 14  2  0
 17 16  1  6
 17 19  1  0
 18 17  1  0
 19 21  2  0
 19 20  1  0
M  END
$$$$
