DTA.pdb
     RDKit          3D

 21 20  0  0  1  0  0  0  0  0999 V2000
   18.4103  -11.9364  -16.4686 N   0  0  0  0  0  0  0  0  0  0  0  0
   18.4945  -10.4850  -16.7681 C   0  0  1  0  0  0  0  0  0  0  0  0
   17.1316   -9.9498  -17.0466 C   0  0  0  0  0  0  0  0  0  0  0  0
   16.5201  -10.5523  -18.2218 C   0  0  0  0  0  0  0  0  0  0  0  0
   17.1463  -10.8064  -19.2569 O   0  0  0  0  0  0  0  0  0  0  0  0
   19.1628   -9.8311  -15.6106 C   0  0  0  0  0  0  0  0  0  0  0  0
   18.8079   -9.9921  -14.4343 O   0  0  0  0  0  0  0  0  0  0  0  0
   15.1517  -10.8781  -18.2231 O   0  0  0  0  0  0  0  0  0  0  0  0
   22.4975  -10.4516  -14.6342 C   0  0  0  0  0  0  0  0  0  0  0  0
   22.4346   -8.9845  -14.8832 C   0  0  1  0  0  0  0  0  0  0  0  0
   22.8423   -8.7816  -16.2227 O   0  0  0  0  0  0  0  0  0  0  0  0
   21.0542   -8.3786  -14.7361 C   0  0  2  0  0  0  0  0  0  0  0  0
   20.2734   -8.9666  -15.8299 N   0  0  0  0  0  0  0  0  0  0  0  0
   21.0367   -6.9194  -14.8512 C   0  0  0  0  0  0  0  0  0  0  0  0
   21.3184   -6.3797  -15.9769 O   0  0  0  0  0  0  0  0  0  0  0  0
   19.8757   -3.8582  -13.0080 C   0  0  0  0  0  0  0  0  0  0  0  0
   20.7537   -4.5682  -13.9931 C   0  0  2  0  0  0  0  0  0  0  0  0
   20.7330   -6.0059  -13.8256 N   0  0  0  0  0  0  0  0  0  0  0  0
   22.1519   -4.1131  -13.8040 C   0  0  0  0  0  0  0  0  0  0  0  0
   22.6447   -2.9308  -14.3721 O   0  0  0  0  0  0  0  0  0  0  0  0
   22.9734   -4.7718  -13.1177 O   0  0  0  0  0  0  0  0  0  0  0  0
  2  1  1  1
  3  2  1  0
  4  3  1  0
  5  4  2  0
  6  2  1  0
  7  6  2  0
  8  4  1  0
 10  9  1  6
 10 12  1  0
 11 10  1  0
 12 14  1  0
 12 13  1  6
 13  6  1  0
 14 18  1  0
 15 14  2  0
 17 16  1  1
 17 19  1  0
 18 17  1  0
 19 21  2  0
 19 20  1  0
M  END
$$$$
