DTA.pdb
     RDKit          3D

 21 20  0  0  1  0  0  0  0  0999 V2000
   18.3640  -12.0789  -16.2035 N   0  0  0  0  0  0  0  0  0  0  0  0
   18.0777  -10.6228  -16.1712 C   0  0  1  0  0  0  0  0  0  0  0  0
   16.6762  -10.3965  -15.7171 C   0  0  0  0  0  0  0  0  0  0  0  0
   15.6905  -10.8720  -16.6764 C   0  0  0  0  0  0  0  0  0  0  0  0
   15.8747  -10.8625  -17.8988 O   0  0  0  0  0  0  0  0  0  0  0  0
   19.0956   -9.9897  -15.2896 C   0  0  0  0  0  0  0  0  0  0  0  0
   19.2244  -10.2610  -14.0874 O   0  0  0  0  0  0  0  0  0  0  0  0
   14.4537  -11.3758  -16.2344 O   0  0  0  0  0  0  0  0  0  0  0  0
   22.5462  -10.5125  -15.4951 C   0  0  0  0  0  0  0  0  0  0  0  0
   22.3441   -9.0567  -15.7366 C   0  0  1  0  0  0  0  0  0  0  0  0
   22.1776   -8.8954  -17.1322 O   0  0  0  0  0  0  0  0  0  0  0  0
   21.1190   -8.4705  -15.0661 C   0  0  2  0  0  0  0  0  0  0  0  0
   19.9866   -9.0149  -15.8233 N   0  0  0  0  0  0  0  0  0  0  0  0
   21.0729   -7.0077  -15.1000 C   0  0  0  0  0  0  0  0  0  0  0  0
   20.7314   -6.4200  -16.1843 O   0  0  0  0  0  0  0  0  0  0  0  0
   21.5076   -4.0254  -12.7983 C   0  0  0  0  0  0  0  0  0  0  0  0
   21.2772   -4.6974  -14.1177 C   0  0  2  0  0  0  0  0  0  0  0  0
   21.3720   -6.1395  -14.0346 N   0  0  0  0  0  0  0  0  0  0  0  0
   22.3066   -4.2332  -15.0783 C   0  0  0  0  0  0  0  0  0  0  0  0
   23.4194   -5.0100  -15.4268 O   0  0  0  0  0  0  0  0  0  0  0  0
   22.2316   -3.1081  -15.6337 O   0  0  0  0  0  0  0  0  0  0  0  0
  2  1  1  1
  3  2  1  0
  4  3  1  0
  5  4  2  0
  6  2  1  0
  7  6  2  0
  8  4  1  0
 10  9  1  6
 10 12  1  0
 11 10  1  0
 12 14  1  0
 12 13  1  6
 13  6  1  0
 14 18  1  0
 15 14  2  0
 17 16  1  1
 17 19  1  0
 18 17  1  0
 19 21  2  0
 19 20  1  0
M  END
$$$$
