DTA.pdb
     RDKit          3D

 21 20  0  0  1  0  0  0  0  0999 V2000
   15.8457  -10.8594  -15.9604 N   0  0  0  0  0  0  0  0  0  0  0  0
   17.1597  -10.6632  -15.2986 C   0  0  1  0  0  0  0  0  0  0  0  0
   18.1540  -11.6195  -15.8630 C   0  0  0  0  0  0  0  0  0  0  0  0
   17.9959  -12.9687  -15.3409 C   0  0  0  0  0  0  0  0  0  0  0  0
   17.1520  -13.2717  -14.4899 O   0  0  0  0  0  0  0  0  0  0  0  0
   17.5400   -9.2363  -15.4813 C   0  0  0  0  0  0  0  0  0  0  0  0
   17.4301   -8.6305  -16.5567 O   0  0  0  0  0  0  0  0  0  0  0  0
   18.8226  -14.0101  -15.8001 O   0  0  0  0  0  0  0  0  0  0  0  0
   15.8974   -6.6424  -13.7908 C   0  0  0  0  0  0  0  0  0  0  0  0
   17.3332   -6.4599  -13.4395 C   0  0  1  0  0  0  0  0  0  0  0  0
   17.5382   -7.1251  -12.2079 O   0  0  0  0  0  0  0  0  0  0  0  0
   18.3067   -7.0510  -14.4381 C   0  0  2  0  0  0  0  0  0  0  0  0
   18.0624   -8.4964  -14.3821 N   0  0  0  0  0  0  0  0  0  0  0  0
   19.7103   -6.7789  -14.1233 C   0  0  0  0  0  0  0  0  0  0  0  0
   20.2117   -7.2573  -13.0475 O   0  0  0  0  0  0  0  0  0  0  0  0
   22.7673   -5.1384  -15.6526 C   0  0  0  0  0  0  0  0  0  0  0  0
   22.0060   -5.8452  -14.5726 C   0  0  2  0  0  0  0  0  0  0  0  0
   20.6070   -6.0225  -14.8993 N   0  0  0  0  0  0  0  0  0  0  0  0
   22.0797   -5.0410  -13.3293 C   0  0  0  0  0  0  0  0  0  0  0  0
   23.1857   -5.0787  -12.4698 O   0  0  0  0  0  0  0  0  0  0  0  0
   21.1442   -4.2773  -12.9807 O   0  0  0  0  0  0  0  0  0  0  0  0
  2  1  1  6
  3  2  1  0
  4  3  1  0
  5  4  2  0
  6  2  1  0
  7  6  2  0
  8  4  1  0
 10  9  1  6
 10 12  1  0
 11 10  1  0
 12 14  1  0
 12 13  1  1
 13  6  1  0
 14 18  1  0
 15 14  2  0
 17 16  1  6
 17 19  1  0
 18 17  1  0
 19 21  2  0
 19 20  1  0
M  END
$$$$
