DTA.pdb
     RDKit          3D

 21 20  0  0  1  0  0  0  0  0999 V2000
   15.6781  -12.6015  -16.8911 N   0  0  0  0  0  0  0  0  0  0  0  0
   15.8602  -11.4786  -15.9376 C   0  0  1  0  0  0  0  0  0  0  0  0
   15.5643  -11.9429  -14.5525 C   0  0  0  0  0  0  0  0  0  0  0  0
   14.1374  -12.0115  -14.2750 C   0  0  0  0  0  0  0  0  0  0  0  0
   13.2727  -11.6305  -15.0721 O   0  0  0  0  0  0  0  0  0  0  0  0
   17.2487  -10.9718  -16.1088 C   0  0  0  0  0  0  0  0  0  0  0  0
   18.2285  -11.7076  -16.2936 O   0  0  0  0  0  0  0  0  0  0  0  0
   13.6751  -12.5303  -13.0519 O   0  0  0  0  0  0  0  0  0  0  0  0
   18.0546   -8.6226  -18.7600 C   0  0  0  0  0  0  0  0  0  0  0  0
   18.5330   -8.0027  -17.4930 C   0  0  1  0  0  0  0  0  0  0  0  0
   17.5035   -7.1403  -17.0483 O   0  0  0  0  0  0  0  0  0  0  0  0
   18.8106   -8.9865  -16.3753 C   0  0  2  0  0  0  0  0  0  0  0  0
   17.5018   -9.5708  -16.0630 N   0  0  0  0  0  0  0  0  0  0  0  0
   19.3704   -8.3679  -15.1724 C   0  0  0  0  0  0  0  0  0  0  0  0
   18.6087   -7.6665  -14.4203 O   0  0  0  0  0  0  0  0  0  0  0  0
   22.4522   -8.5431  -13.0135 C   0  0  0  0  0  0  0  0  0  0  0  0
   21.1782   -7.9070  -13.4802 C   0  0  2  0  0  0  0  0  0  0  0  0
   20.7024   -8.4604  -14.7304 N   0  0  0  0  0  0  0  0  0  0  0  0
   21.4145   -6.4585  -13.6900 C   0  0  0  0  0  0  0  0  0  0  0  0
   21.6021   -5.5625  -12.6292 O   0  0  0  0  0  0  0  0  0  0  0  0
   21.4589   -5.9569  -14.8416 O   0  0  0  0  0  0  0  0  0  0  0  0
  2  1  1  6
  3  2  1  0
  4  3  1  0
  5  4  2  0
  6  2  1  0
  7  6  2  0
  8  4  1  0
 10  9  1  6
 10 12  1  0
 11 10  1  0
 12 14  1  0
 12 13  1  1
 13  6  1  0
 14 18  1  0
 15 14  2  0
 17 16  1  6
 17 19  1  0
 18 17  1  0
 19 21  2  0
 19 20  1  0
M  END
$$$$
