DTA.pdb
     RDKit          3D

 21 20  0  0  1  0  0  0  0  0999 V2000
   18.6473  -11.2343  -15.6465 N   0  0  0  0  0  0  0  0  0  0  0  0
   18.2422   -9.8068  -15.6839 C   0  0  1  0  0  0  0  0  0  0  0  0
   16.9176   -9.6431  -15.0203 C   0  0  0  0  0  0  0  0  0  0  0  0
   15.8062  -10.0100  -15.8851 C   0  0  0  0  0  0  0  0  0  0  0  0
   15.9442  -10.3082  -17.0768 O   0  0  0  0  0  0  0  0  0  0  0  0
   19.3288   -9.0202  -15.0400 C   0  0  0  0  0  0  0  0  0  0  0  0
   19.7936   -9.2821  -13.9216 O   0  0  0  0  0  0  0  0  0  0  0  0
   14.4932  -10.0403  -15.3811 O   0  0  0  0  0  0  0  0  0  0  0  0
   22.0350   -7.4520  -17.5262 C   0  0  0  0  0  0  0  0  0  0  0  0
   22.2095   -7.6548  -16.0610 C   0  0  1  0  0  0  0  0  0  0  0  0
   23.3534   -6.9139  -15.6814 O   0  0  0  0  0  0  0  0  0  0  0  0
   21.0535   -7.1636  -15.2144 C   0  0  2  0  0  0  0  0  0  0  0  0
   19.8879   -7.8988  -15.7173 N   0  0  0  0  0  0  0  0  0  0  0  0
   20.8110   -5.7244  -15.3277 C   0  0  0  0  0  0  0  0  0  0  0  0
   20.2879   -5.2632  -16.4007 O   0  0  0  0  0  0  0  0  0  0  0  0
   20.8588   -2.5905  -13.2179 C   0  0  0  0  0  0  0  0  0  0  0  0
   20.8180   -3.3405  -14.5146 C   0  0  2  0  0  0  0  0  0  0  0  0
   21.0977   -4.7516  -14.3531 N   0  0  0  0  0  0  0  0  0  0  0  0
   21.8443   -2.7794  -15.4254 C   0  0  0  0  0  0  0  0  0  0  0  0
   21.6423   -1.6012  -16.1566 O   0  0  0  0  0  0  0  0  0  0  0  0
   22.9583   -3.3382  -15.5889 O   0  0  0  0  0  0  0  0  0  0  0  0
  2  1  1  1
  3  2  1  0
  4  3  1  0
  5  4  2  0
  6  2  1  0
  7  6  2  0
  8  4  1  0
 10  9  1  6
 10 12  1  0
 11 10  1  0
 12 14  1  0
 12 13  1  6
 13  6  1  0
 14 18  1  0
 15 14  2  0
 17 16  1  1
 17 19  1  0
 18 17  1  0
 19 21  2  0
 19 20  1  0
M  END
$$$$
