DTA.pdb
     RDKit          3D

 21 20  0  0  1  0  0  0  0  0999 V2000
   15.6296  -12.2770  -16.4557 N   0  0  0  0  0  0  0  0  0  0  0  0
   15.9427  -10.9170  -15.9502 C   0  0  1  0  0  0  0  0  0  0  0  0
   15.5769  -10.8205  -14.5086 C   0  0  0  0  0  0  0  0  0  0  0  0
   14.1605  -11.0551  -14.2708 C   0  0  0  0  0  0  0  0  0  0  0  0
   13.7378  -11.8665  -13.4394 O   0  0  0  0  0  0  0  0  0  0  0  0
   17.3857  -10.6670  -16.2134 C   0  0  0  0  0  0  0  0  0  0  0  0
   18.2236  -11.5698  -16.3493 O   0  0  0  0  0  0  0  0  0  0  0  0
   13.1899  -10.3449  -15.0005 O   0  0  0  0  0  0  0  0  0  0  0  0
   18.8172   -8.7302  -19.0363 C   0  0  0  0  0  0  0  0  0  0  0  0
   19.2512   -8.0833  -17.7668 C   0  0  1  0  0  0  0  0  0  0  0  0
   18.3159   -7.0580  -17.4925 O   0  0  0  0  0  0  0  0  0  0  0  0
   19.2742   -9.0051  -16.5651 C   0  0  2  0  0  0  0  0  0  0  0  0
   17.8647   -9.3299  -16.3208 N   0  0  0  0  0  0  0  0  0  0  0  0
   19.8512   -8.3947  -15.3662 C   0  0  0  0  0  0  0  0  0  0  0  0
   19.1273   -7.6166  -14.6532 O   0  0  0  0  0  0  0  0  0  0  0  0
   22.9091   -8.5809  -13.1669 C   0  0  0  0  0  0  0  0  0  0  0  0
   21.6942   -7.9014  -13.7218 C   0  0  2  0  0  0  0  0  0  0  0  0
   21.1620   -8.5731  -14.8885 N   0  0  0  0  0  0  0  0  0  0  0  0
   22.0582   -6.5216  -14.1235 C   0  0  0  0  0  0  0  0  0  0  0  0
   22.3242   -5.5091  -13.1921 O   0  0  0  0  0  0  0  0  0  0  0  0
   22.1473   -6.1877  -15.3320 O   0  0  0  0  0  0  0  0  0  0  0  0
  2  1  1  1
  3  2  1  0
  4  3  1  0
  5  4  2  0
  6  2  1  0
  7  6  2  0
  8  4  1  0
 10  9  1  6
 10 12  1  0
 11 10  1  0
 12 14  1  0
 12 13  1  1
 13  6  1  0
 14 18  1  0
 15 14  2  0
 17 16  1  6
 17 19  1  0
 18 17  1  0
 19 21  2  0
 19 20  1  0
M  END
$$$$
