DTA.pdb
     RDKit          3D

 21 20  0  0  1  0  0  0  0  0999 V2000
   16.9336  -11.6232  -16.4632 N   0  0  0  0  0  0  0  0  0  0  0  0
   18.1320  -11.2391  -15.6760 C   0  0  1  0  0  0  0  0  0  0  0  0
   19.3347  -11.9286  -16.2235 C   0  0  0  0  0  0  0  0  0  0  0  0
   19.3176  -13.3640  -15.9845 C   0  0  0  0  0  0  0  0  0  0  0  0
   18.3997  -13.9416  -15.3911 O   0  0  0  0  0  0  0  0  0  0  0  0
   18.2311   -9.7549  -15.7143 C   0  0  0  0  0  0  0  0  0  0  0  0
   18.0557   -9.0830  -16.7406 O   0  0  0  0  0  0  0  0  0  0  0  0
   20.3773  -14.1723  -16.4344 O   0  0  0  0  0  0  0  0  0  0  0  0
   16.2245   -7.4860  -13.6505 C   0  0  0  0  0  0  0  0  0  0  0  0
   17.6547   -7.1804  -13.3688 C   0  0  1  0  0  0  0  0  0  0  0  0
   18.0114   -7.9264  -12.2209 O   0  0  0  0  0  0  0  0  0  0  0  0
   18.6127   -7.5707  -14.4751 C   0  0  2  0  0  0  0  0  0  0  0  0
   18.5431   -9.0352  -14.5254 N   0  0  0  0  0  0  0  0  0  0  0  0
   19.9947   -7.1542  -14.2310 C   0  0  0  0  0  0  0  0  0  0  0  0
   20.6952   -7.7926  -13.3710 O   0  0  0  0  0  0  0  0  0  0  0  0
   22.5545   -4.6626  -15.5051 C   0  0  0  0  0  0  0  0  0  0  0  0
   22.0507   -5.7473  -14.6022 C   0  0  2  0  0  0  0  0  0  0  0  0
   20.6681   -6.0909  -14.8589 N   0  0  0  0  0  0  0  0  0  0  0  0
   22.1461   -5.2843  -13.1971 C   0  0  0  0  0  0  0  0  0  0  0  0
   23.3498   -5.2910  -12.4798 O   0  0  0  0  0  0  0  0  0  0  0  0
   21.1419   -4.8582  -12.5728 O   0  0  0  0  0  0  0  0  0  0  0  0
  2  1  1  6
  3  2  1  0
  4  3  1  0
  5  4  2  0
  6  2  1  0
  7  6  2  0
  8  4  1  0
 10  9  1  6
 10 12  1  0
 11 10  1  0
 12 14  1  0
 12 13  1  1
 13  6  1  0
 14 18  1  0
 15 14  2  0
 17 16  1  6
 17 19  1  0
 18 17  1  0
 19 21  2  0
 19 20  1  0
M  END
$$$$
