PKQ.pdb
     RDKit          3D

 26 26  0  0  1  0  0  0  0  0999 V2000
    8.4969  -14.8521   19.1105 N   0  0  0  0  0  0  0  0  0  0  0  0
    8.5031  -13.9583   17.9556 C   0  0  0  0  0  0  0  0  0  0  0  0
    7.4721  -12.9362   18.3372 C   0  0  0  0  0  0  0  0  0  0  0  0
    7.7407  -12.7346   19.8188 C   0  0  0  0  0  0  0  0  0  0  0  0
    8.6392  -13.8922   20.1914 C   0  0  1  0  0  0  0  0  0  0  0  0
    8.1570  -14.4867   21.4419 C   0  0  0  0  0  0  0  0  0  0  0  0
    8.1577  -13.8797   22.5539 O   0  0  0  0  0  0  0  0  0  0  0  0
    7.6457  -15.8211   21.4740 N   0  0  0  0  0  0  0  0  0  0  0  0
    7.2945  -16.4656   22.7055 C   0  0  1  0  0  0  0  0  0  0  0  0
    6.4063  -17.6570   22.4547 C   0  0  0  0  0  0  0  0  0  0  0  0
    6.8585  -18.5636   21.3678 C   0  0  0  0  0  0  0  0  0  0  0  0
    5.8121  -19.6633   21.2230 C   0  0  0  0  0  0  0  0  0  0  0  0
    6.0464  -20.5423   20.0381 C   0  0  0  0  0  0  0  0  0  0  0  0
    5.1001  -21.6235   19.9305 N   0  0  0  0  0  0  0  0  0  0  0  0
    8.5257  -16.7668   23.4546 C   0  0  0  0  0  0  0  0  0  0  0  0
    9.6632  -16.7658   22.9254 O   0  0  0  0  0  0  0  0  0  0  0  0
   10.6515  -12.8146   28.3954 N   0  0  0  0  0  0  0  0  0  0  0  0
    9.8180  -13.9661   28.3848 C   0  0  0  0  0  0  0  0  0  0  0  0
    8.7536  -13.8899   29.0827 O   0  0  0  0  0  0  0  0  0  0  0  0
   10.1754  -15.1513   27.6093 C   0  0  0  0  0  0  0  0  0  0  0  0
    9.2224  -15.6142   26.5886 C   0  0  0  0  0  0  0  0  0  0  0  0
    9.5470  -16.8095   25.7835 C   0  0  2  0  0  0  0  0  0  0  0  0
    8.4418  -17.0726   24.8305 N   0  0  0  0  0  0  0  0  0  0  0  0
    9.9692  -18.0248   26.4592 C   0  0  0  0  0  0  0  0  0  0  0  0
    9.2627  -19.2250   26.5036 O   0  0  0  0  0  0  0  0  0  0  0  0
   11.0849  -18.0399   27.0919 O   0  0  0  0  0  0  0  0  0  0  0  0
  1  5  1  0
  1  2  1  0
  2  3  1  0
  4  3  1  0
  5  4  1  0
  6  7  2  0
  5  6  1  1
  8  6  1  0
  9  8  1  0
  9 10  1  6
 11 10  1  0
 11 12  1  0
 12 13  1  0
 13 14  1  0
 15  9  1  0
 16 15  2  0
 18 20  1  0
 18 17  1  0
 19 18  2  0
 21 20  1  0
 22 21  1  1
 22 23  1  0
 23 15  1  0
 24 22  1  0
 24 25  1  0
 26 24  2  0
M  END
$$$$
