PKQ.pdb
     RDKit          3D

 26 26  0  0  1  0  0  0  0  0999 V2000
    8.6706  -14.8885   18.8729 N   0  0  0  0  0  0  0  0  0  0  0  0
    8.7005  -14.1106   17.6374 C   0  0  0  0  0  0  0  0  0  0  0  0
    7.5147  -13.2049   17.8015 C   0  0  0  0  0  0  0  0  0  0  0  0
    7.5836  -12.8354   19.2734 C   0  0  0  0  0  0  0  0  0  0  0  0
    8.5683  -13.8240   19.8559 C   0  0  1  0  0  0  0  0  0  0  0  0
    8.0215  -14.3614   21.1057 C   0  0  0  0  0  0  0  0  0  0  0  0
    7.6047  -13.6375   22.0582 O   0  0  0  0  0  0  0  0  0  0  0  0
    7.9265  -15.7710   21.3222 N   0  0  0  0  0  0  0  0  0  0  0  0
    7.3699  -16.3141   22.5266 C   0  0  1  0  0  0  0  0  0  0  0  0
    7.1343  -17.7963   22.3894 C   0  0  0  0  0  0  0  0  0  0  0  0
    6.0310  -18.1775   21.4702 C   0  0  0  0  0  0  0  0  0  0  0  0
    6.0261  -19.6988   21.3660 C   0  0  0  0  0  0  0  0  0  0  0  0
    4.9925  -20.2178   20.4205 C   0  0  0  0  0  0  0  0  0  0  0  0
    5.0392  -21.6475   20.2486 N   0  0  0  0  0  0  0  0  0  0  0  0
    8.2259  -15.9328   23.6622 C   0  0  0  0  0  0  0  0  0  0  0  0
    9.4790  -15.9695   23.6138 O   0  0  0  0  0  0  0  0  0  0  0  0
    6.2114  -11.8678   27.9702 N   0  0  0  0  0  0  0  0  0  0  0  0
    6.7783  -11.6637   26.6826 C   0  0  0  0  0  0  0  0  0  0  0  0
    6.6027  -10.5081   26.1733 O   0  0  0  0  0  0  0  0  0  0  0  0
    7.5186  -12.7254   26.0053 C   0  0  0  0  0  0  0  0  0  0  0  0
    7.7362  -13.9825   26.7377 C   0  0  0  0  0  0  0  0  0  0  0  0
    8.4130  -15.1075   26.0607 C   0  0  2  0  0  0  0  0  0  0  0  0
    7.6275  -15.5044   24.8672 N   0  0  0  0  0  0  0  0  0  0  0  0
    8.8169  -16.2643   26.8420 C   0  0  0  0  0  0  0  0  0  0  0  0
    9.8986  -16.3238   27.7182 O   0  0  0  0  0  0  0  0  0  0  0  0
    8.1503  -17.3558   26.7440 O   0  0  0  0  0  0  0  0  0  0  0  0
  1  5  1  0
  1  2  1  0
  2  3  1  0
  4  3  1  0
  5  4  1  0
  6  7  2  0
  5  6  1  1
  8  6  1  0
  9  8  1  0
  9 10  1  6
 11 10  1  0
 11 12  1  0
 12 13  1  0
 13 14  1  0
 15  9  1  0
 16 15  2  0
 18 20  1  0
 18 17  1  0
 19 18  2  0
 21 20  1  0
 22 21  1  1
 22 23  1  0
 23 15  1  0
 24 22  1  0
 24 25  1  0
 26 24  2  0
M  END
$$$$
