PKQ.pdb
     RDKit          3D

 26 26  0  0  1  0  0  0  0  0999 V2000
    7.5540  -15.1480   19.6923 N   0  0  0  0  0  0  0  0  0  0  0  0
    7.1386  -14.6425   18.3868 C   0  0  0  0  0  0  0  0  0  0  0  0
    7.1751  -13.1561   18.5934 C   0  0  0  0  0  0  0  0  0  0  0  0
    8.4239  -12.9717   19.4387 C   0  0  0  0  0  0  0  0  0  0  0  0
    8.7609  -14.3688   19.9083 C   0  0  1  0  0  0  0  0  0  0  0  0
    9.0689  -14.3289   21.3411 C   0  0  0  0  0  0  0  0  0  0  0  0
   10.2455  -14.3818   21.8079 O   0  0  0  0  0  0  0  0  0  0  0  0
    8.0286  -14.2252   22.3157 N   0  0  0  0  0  0  0  0  0  0  0  0
    8.3147  -14.0700   23.7119 C   0  0  1  0  0  0  0  0  0  0  0  0
    7.2165  -13.3044   24.4040 C   0  0  0  0  0  0  0  0  0  0  0  0
    7.4262  -13.0747   25.8569 C   0  0  0  0  0  0  0  0  0  0  0  0
    6.2060  -12.3273   26.3837 C   0  0  0  0  0  0  0  0  0  0  0  0
    6.2885  -12.0275   27.8449 C   0  0  0  0  0  0  0  0  0  0  0  0
    5.1331  -11.3331   28.3537 N   0  0  0  0  0  0  0  0  0  0  0  0
    8.5970  -15.3937   24.2913 C   0  0  0  0  0  0  0  0  0  0  0  0
    7.9043  -16.4093   24.0411 O   0  0  0  0  0  0  0  0  0  0  0  0
   13.1551  -18.5678   23.0526 N   0  0  0  0  0  0  0  0  0  0  0  0
   13.5252  -17.5579   23.9821 C   0  0  0  0  0  0  0  0  0  0  0  0
   14.7468  -17.1939   23.9524 O   0  0  0  0  0  0  0  0  0  0  0  0
   12.5476  -16.9816   24.9019 C   0  0  0  0  0  0  0  0  0  0  0  0
   11.1513  -17.4301   24.7856 C   0  0  0  0  0  0  0  0  0  0  0  0
   10.1306  -16.8632   25.6905 C   0  0  2  0  0  0  0  0  0  0  0  0
    9.6921  -15.5459   25.1696 N   0  0  0  0  0  0  0  0  0  0  0  0
   10.4009  -16.8093   27.1173 C   0  0  0  0  0  0  0  0  0  0  0  0
   10.7133  -17.8946   27.9334 O   0  0  0  0  0  0  0  0  0  0  0  0
   10.3528  -15.6815   27.7264 O   0  0  0  0  0  0  0  0  0  0  0  0
  1  5  1  0
  1  2  1  0
  2  3  1  0
  4  3  1  0
  5  4  1  0
  6  7  2  0
  5  6  1  1
  8  6  1  0
  9  8  1  0
  9 10  1  1
 11 10  1  0
 11 12  1  0
 12 13  1  0
 13 14  1  0
 15  9  1  0
 16 15  2  0
 18 20  1  0
 18 17  1  0
 19 18  2  0
 21 20  1  0
 22 21  1  6
 22 23  1  0
 23 15  1  0
 24 22  1  0
 24 25  1  0
 26 24  2  0
M  END
$$$$
