PKQ.pdb
     RDKit          3D

 26 26  0  0  1  0  0  0  0  0999 V2000
    7.0636  -14.7486   18.6881 N   0  0  0  0  0  0  0  0  0  0  0  0
    7.0803  -13.6983   17.6737 C   0  0  0  0  0  0  0  0  0  0  0  0
    7.8657  -12.6128   18.3506 C   0  0  0  0  0  0  0  0  0  0  0  0
    8.9541  -13.3926   19.0686 C   0  0  0  0  0  0  0  0  0  0  0  0
    8.4769  -14.8263   19.0149 C   0  0  1  0  0  0  0  0  0  0  0  0
    8.6414  -15.4335   20.3392 C   0  0  0  0  0  0  0  0  0  0  0  0
    8.9274  -14.7747   21.3829 O   0  0  0  0  0  0  0  0  0  0  0  0
    8.4831  -16.8413   20.5290 N   0  0  0  0  0  0  0  0  0  0  0  0
    8.6716  -17.4564   21.8102 C   0  0  1  0  0  0  0  0  0  0  0  0
    7.8747  -18.7310   21.9172 C   0  0  0  0  0  0  0  0  0  0  0  0
    6.4049  -18.5706   21.7706 C   0  0  0  0  0  0  0  0  0  0  0  0
    5.7823  -19.9605   21.8454 C   0  0  0  0  0  0  0  0  0  0  0  0
    4.2960  -19.9454   21.6966 C   0  0  0  0  0  0  0  0  0  0  0  0
    3.7069  -21.2602   21.6926 N   0  0  0  0  0  0  0  0  0  0  0  0
   10.1146  -17.6141   22.0562 C   0  0  0  0  0  0  0  0  0  0  0  0
   10.9518  -17.7584   21.1331 O   0  0  0  0  0  0  0  0  0  0  0  0
   13.9278  -14.4545   21.2696 N   0  0  0  0  0  0  0  0  0  0  0  0
   14.6728  -15.0815   22.3053 C   0  0  0  0  0  0  0  0  0  0  0  0
   15.8638  -14.6571   22.4703 O   0  0  0  0  0  0  0  0  0  0  0  0
   14.0875  -16.1411   23.1229 C   0  0  0  0  0  0  0  0  0  0  0  0
   12.6768  -16.4862   22.8884 C   0  0  0  0  0  0  0  0  0  0  0  0
   12.0386  -17.5291   23.7175 C   0  0  2  0  0  0  0  0  0  0  0  0
   10.5958  -17.6048   23.3837 N   0  0  0  0  0  0  0  0  0  0  0  0
   12.2538  -17.5210   25.1546 C   0  0  0  0  0  0  0  0  0  0  0  0
   13.3050  -18.1385   25.8290 O   0  0  0  0  0  0  0  0  0  0  0  0
   11.4217  -16.9071   25.9137 O   0  0  0  0  0  0  0  0  0  0  0  0
  1  5  1  0
  1  2  1  0
  2  3  1  0
  4  3  1  0
  5  4  1  0
  6  7  2  0
  5  6  1  1
  8  6  1  0
  9  8  1  0
  9 10  1  6
 11 10  1  0
 11 12  1  0
 12 13  1  0
 13 14  1  0
 15  9  1  0
 16 15  2  0
 18 20  1  0
 18 17  1  0
 19 18  2  0
 21 20  1  0
 22 21  1  1
 22 23  1  0
 23 15  1  0
 24 22  1  0
 24 25  1  0
 26 24  2  0
M  END
$$$$
