PKQ.pdb
     RDKit          3D

 26 26  0  0  1  0  0  0  0  0999 V2000
    7.1728  -15.1013   19.6323 N   0  0  0  0  0  0  0  0  0  0  0  0
    6.7723  -14.7136   18.2826 C   0  0  0  0  0  0  0  0  0  0  0  0
    7.0825  -13.2449   18.2668 C   0  0  0  0  0  0  0  0  0  0  0  0
    8.3944  -13.1772   19.0299 C   0  0  0  0  0  0  0  0  0  0  0  0
    8.5089  -14.5339   19.6874 C   0  0  1  0  0  0  0  0  0  0  0  0
    8.9078  -14.3535   21.0867 C   0  0  0  0  0  0  0  0  0  0  0  0
   10.0867  -14.0634   21.4488 O   0  0  0  0  0  0  0  0  0  0  0  0
    7.9607  -14.4992   22.1473 N   0  0  0  0  0  0  0  0  0  0  0  0
    8.3123  -14.2449   23.5137 C   0  0  1  0  0  0  0  0  0  0  0  0
    7.1347  -13.6988   24.2793 C   0  0  0  0  0  0  0  0  0  0  0  0
    7.4070  -13.3630   25.7008 C   0  0  0  0  0  0  0  0  0  0  0  0
    6.1445  -12.7261   26.2714 C   0  0  0  0  0  0  0  0  0  0  0  0
    6.2879  -12.3212   27.7022 C   0  0  0  0  0  0  0  0  0  0  0  0
    5.0674  -11.8198   28.2811 N   0  0  0  0  0  0  0  0  0  0  0  0
    8.9043  -15.4640   24.0890 C   0  0  0  0  0  0  0  0  0  0  0  0
    8.3083  -16.5678   24.1083 O   0  0  0  0  0  0  0  0  0  0  0  0
   14.9490  -16.8340   23.3893 N   0  0  0  0  0  0  0  0  0  0  0  0
   14.6628  -17.4684   24.6288 C   0  0  0  0  0  0  0  0  0  0  0  0
   15.6640  -17.9575   25.2487 O   0  0  0  0  0  0  0  0  0  0  0  0
   13.2982  -17.5386   25.1451 C   0  0  0  0  0  0  0  0  0  0  0  0
   12.3334  -16.5357   24.6678 C   0  0  0  0  0  0  0  0  0  0  0  0
   10.9283  -16.6106   25.1174 C   0  0  2  0  0  0  0  0  0  0  0  0
   10.1996  -15.4073   24.6483 N   0  0  0  0  0  0  0  0  0  0  0  0
   10.6463  -16.8939   26.5145 C   0  0  0  0  0  0  0  0  0  0  0  0
   10.0961  -16.0051   27.4358 O   0  0  0  0  0  0  0  0  0  0  0  0
   10.9181  -18.0537   26.9904 O   0  0  0  0  0  0  0  0  0  0  0  0
  1  5  1  0
  1  2  1  0
  2  3  1  0
  4  3  1  0
  5  4  1  0
  6  7  2  0
  5  6  1  1
  8  6  1  0
  9  8  1  0
  9 10  1  1
 11 10  1  0
 11 12  1  0
 12 13  1  0
 13 14  1  0
 15  9  1  0
 16 15  2  0
 18 20  1  0
 18 17  1  0
 19 18  2  0
 21 20  1  0
 22 21  1  1
 22 23  1  0
 23 15  1  0
 24 22  1  0
 24 25  1  0
 26 24  2  0
M  END
$$$$
