PKQ.pdb
     RDKit          3D

 26 26  0  0  1  0  0  0  0  0999 V2000
    8.4363  -14.9808   19.1145 N   0  0  0  0  0  0  0  0  0  0  0  0
    8.2643  -14.0852   17.9739 C   0  0  0  0  0  0  0  0  0  0  0  0
    7.2286  -13.1222   18.4773 C   0  0  0  0  0  0  0  0  0  0  0  0
    7.6505  -12.9098   19.9212 C   0  0  0  0  0  0  0  0  0  0  0  0
    8.6467  -14.0172   20.1809 C   0  0  1  0  0  0  0  0  0  0  0  0
    8.3409  -14.6404   21.4723 C   0  0  0  0  0  0  0  0  0  0  0  0
    8.3846  -14.0229   22.5777 O   0  0  0  0  0  0  0  0  0  0  0  0
    7.9662  -16.0172   21.5555 N   0  0  0  0  0  0  0  0  0  0  0  0
    7.7412  -16.6637   22.8152 C   0  0  1  0  0  0  0  0  0  0  0  0
    7.0151  -17.9708   22.6267 C   0  0  0  0  0  0  0  0  0  0  0  0
    6.8557  -18.7873   23.8578 C   0  0  0  0  0  0  0  0  0  0  0  0
    6.1024  -20.0558   23.4722 C   0  0  0  0  0  0  0  0  0  0  0  0
    5.8271  -20.9504   24.6365 C   0  0  0  0  0  0  0  0  0  0  0  0
    5.0649  -22.1232   24.2906 N   0  0  0  0  0  0  0  0  0  0  0  0
    9.0230  -16.7731   23.5312 C   0  0  0  0  0  0  0  0  0  0  0  0
   10.0961  -17.0894   22.9635 O   0  0  0  0  0  0  0  0  0  0  0  0
    9.6700  -12.9615   28.2209 N   0  0  0  0  0  0  0  0  0  0  0  0
    9.7882  -14.2641   28.7778 C   0  0  0  0  0  0  0  0  0  0  0  0
    9.9259  -14.3183   30.0442 O   0  0  0  0  0  0  0  0  0  0  0  0
    9.7455  -15.4547   27.9324 C   0  0  0  0  0  0  0  0  0  0  0  0
   10.3657  -15.3713   26.6010 C   0  0  0  0  0  0  0  0  0  0  0  0
   10.3214  -16.5459   25.7064 C   0  0  2  0  0  0  0  0  0  0  0  0
    9.0655  -16.5141   24.9186 N   0  0  0  0  0  0  0  0  0  0  0  0
   10.5709  -17.8665   26.2591 C   0  0  0  0  0  0  0  0  0  0  0  0
   11.7946  -18.3409   26.7271 O   0  0  0  0  0  0  0  0  0  0  0  0
    9.6077  -18.7100   26.3373 O   0  0  0  0  0  0  0  0  0  0  0  0
  1  5  1  0
  1  2  1  0
  2  3  1  0
  4  3  1  0
  5  4  1  0
  6  7  2  0
  5  6  1  1
  8  6  1  0
  9  8  1  0
  9 10  1  6
 11 10  1  0
 11 12  1  0
 12 13  1  0
 13 14  1  0
 15  9  1  0
 16 15  2  0
 18 20  1  0
 18 17  1  0
 19 18  2  0
 21 20  1  0
 22 21  1  1
 22 23  1  0
 23 15  1  0
 24 22  1  0
 24 25  1  0
 26 24  2  0
M  END
$$$$
