PKQ.pdb
     RDKit          3D

 26 26  0  0  1  0  0  0  0  0999 V2000
    7.1561  -14.9855   19.5841 N   0  0  0  0  0  0  0  0  0  0  0  0
    6.8545  -14.6126   18.2048 C   0  0  0  0  0  0  0  0  0  0  0  0
    7.3311  -13.1904   18.1469 C   0  0  0  0  0  0  0  0  0  0  0  0
    8.6119  -13.2387   18.9624 C   0  0  0  0  0  0  0  0  0  0  0  0
    8.5452  -14.5706   19.6749 C   0  0  1  0  0  0  0  0  0  0  0  0
    8.9083  -14.3772   21.0822 C   0  0  0  0  0  0  0  0  0  0  0  0
   10.0839  -14.1137   21.4741 O   0  0  0  0  0  0  0  0  0  0  0  0
    7.9272  -14.4784   22.1167 N   0  0  0  0  0  0  0  0  0  0  0  0
    8.2527  -14.2384   23.4921 C   0  0  1  0  0  0  0  0  0  0  0  0
    7.0943  -13.6015   24.2157 C   0  0  0  0  0  0  0  0  0  0  0  0
    7.3543  -13.2480   25.6352 C   0  0  0  0  0  0  0  0  0  0  0  0
    6.1029  -12.5631   26.1737 C   0  0  0  0  0  0  0  0  0  0  0  0
    6.2444  -12.1156   27.5919 C   0  0  0  0  0  0  0  0  0  0  0  0
    5.0580  -11.4882   28.1161 N   0  0  0  0  0  0  0  0  0  0  0  0
    8.7358  -15.4922   24.0941 C   0  0  0  0  0  0  0  0  0  0  0  0
    8.1195  -16.5800   23.9903 O   0  0  0  0  0  0  0  0  0  0  0  0
   14.6550  -16.8127   23.5678 N   0  0  0  0  0  0  0  0  0  0  0  0
   14.2478  -17.8381   24.4642 C   0  0  0  0  0  0  0  0  0  0  0  0
   15.1385  -18.6979   24.7690 O   0  0  0  0  0  0  0  0  0  0  0  0
   12.8881  -17.8811   24.9966 C   0  0  0  0  0  0  0  0  0  0  0  0
   11.9922  -16.7588   24.6771 C   0  0  0  0  0  0  0  0  0  0  0  0
   10.6313  -16.7322   25.2509 C   0  0  2  0  0  0  0  0  0  0  0  0
    9.9444  -15.4892   24.8240 N   0  0  0  0  0  0  0  0  0  0  0  0
   10.4577  -16.9759   26.6729 C   0  0  0  0  0  0  0  0  0  0  0  0
   10.5344  -18.2142   27.3072 O   0  0  0  0  0  0  0  0  0  0  0  0
   10.2023  -15.9919   27.4551 O   0  0  0  0  0  0  0  0  0  0  0  0
  1  5  1  0
  1  2  1  0
  2  3  1  0
  4  3  1  0
  5  4  1  0
  6  7  2  0
  5  6  1  1
  8  6  1  0
  9  8  1  0
  9 10  1  1
 11 10  1  0
 11 12  1  0
 12 13  1  0
 13 14  1  0
 15  9  1  0
 16 15  2  0
 18 20  1  0
 18 17  1  0
 19 18  2  0
 21 20  1  0
 22 21  1  1
 22 23  1  0
 23 15  1  0
 24 22  1  0
 24 25  1  0
 26 24  2  0
M  END
$$$$
