PKQ.pdb
     RDKit          3D

 26 26  0  0  1  0  0  0  0  0999 V2000
    7.7275  -14.7117   18.4606 N   0  0  0  0  0  0  0  0  0  0  0  0
    7.2399  -13.6691   17.5619 C   0  0  0  0  0  0  0  0  0  0  0  0
    6.9501  -12.5410   18.5089 C   0  0  0  0  0  0  0  0  0  0  0  0
    8.1116  -12.6234   19.4846 C   0  0  0  0  0  0  0  0  0  0  0  0
    8.7327  -13.9733   19.2053 C   0  0  1  0  0  0  0  0  0  0  0  0
    8.9950  -14.6503   20.4791 C   0  0  0  0  0  0  0  0  0  0  0  0
    9.8157  -14.2237   21.3448 O   0  0  0  0  0  0  0  0  0  0  0  0
    8.3193  -15.8623   20.8220 N   0  0  0  0  0  0  0  0  0  0  0  0
    8.5557  -16.5322   22.0673 C   0  0  1  0  0  0  0  0  0  0  0  0
    7.5246  -17.6052   22.3049 C   0  0  0  0  0  0  0  0  0  0  0  0
    7.7176  -18.4028   23.5435 C   0  0  0  0  0  0  0  0  0  0  0  0
    6.6279  -19.4688   23.5769 C   0  0  0  0  0  0  0  0  0  0  0  0
    6.7204  -20.3639   24.7693 C   0  0  0  0  0  0  0  0  0  0  0  0
    5.7421  -21.4216   24.7693 N   0  0  0  0  0  0  0  0  0  0  0  0
    9.9497  -17.0052   22.0977 C   0  0  0  0  0  0  0  0  0  0  0  0
   10.4873  -17.6046   21.1356 O   0  0  0  0  0  0  0  0  0  0  0  0
   14.2478  -14.5743   20.2051 N   0  0  0  0  0  0  0  0  0  0  0  0
   14.9057  -14.9655   21.4030 C   0  0  0  0  0  0  0  0  0  0  0  0
   16.0290  -14.4065   21.6297 O   0  0  0  0  0  0  0  0  0  0  0  0
   14.3098  -15.9452   22.3079 C   0  0  0  0  0  0  0  0  0  0  0  0
   12.8417  -16.0257   22.3587 C   0  0  0  0  0  0  0  0  0  0  0  0
   12.2002  -16.9835   23.2824 C   0  0  2  0  0  0  0  0  0  0  0  0
   10.7312  -16.7832   23.2525 N   0  0  0  0  0  0  0  0  0  0  0  0
   12.6957  -17.0941   24.6439 C   0  0  0  0  0  0  0  0  0  0  0  0
   12.1343  -16.4975   25.7710 O   0  0  0  0  0  0  0  0  0  0  0  0
   13.7481  -17.7892   24.8778 O   0  0  0  0  0  0  0  0  0  0  0  0
  1  5  1  0
  1  2  1  0
  2  3  1  0
  4  3  1  0
  5  4  1  0
  6  7  2  0
  5  6  1  1
  8  6  1  0
  9  8  1  0
  9 10  1  6
 11 10  1  0
 11 12  1  0
 12 13  1  0
 13 14  1  0
 15  9  1  0
 16 15  2  0
 18 20  1  0
 18 17  1  0
 19 18  2  0
 21 20  1  0
 22 21  1  1
 22 23  1  0
 23 15  1  0
 24 22  1  0
 24 25  1  0
 26 24  2  0
M  END
$$$$
