PKQ.pdb
     RDKit          3D

 26 26  0  0  1  0  0  0  0  0999 V2000
    7.1130  -14.8831   19.4745 N   0  0  0  0  0  0  0  0  0  0  0  0
    6.7937  -14.4125   18.1295 C   0  0  0  0  0  0  0  0  0  0  0  0
    7.3340  -13.0120   18.1444 C   0  0  0  0  0  0  0  0  0  0  0  0
    8.6317  -13.1679   18.9187 C   0  0  0  0  0  0  0  0  0  0  0  0
    8.5217  -14.5370   19.5508 C   0  0  1  0  0  0  0  0  0  0  0  0
    8.9293  -14.4475   20.9563 C   0  0  0  0  0  0  0  0  0  0  0  0
   10.1216  -14.2374   21.3295 O   0  0  0  0  0  0  0  0  0  0  0  0
    7.9759  -14.5965   22.0107 N   0  0  0  0  0  0  0  0  0  0  0  0
    8.2974  -14.2752   23.3704 C   0  0  1  0  0  0  0  0  0  0  0  0
    7.1114  -13.6677   24.0743 C   0  0  0  0  0  0  0  0  0  0  0  0
    7.3704  -13.2046   25.4621 C   0  0  0  0  0  0  0  0  0  0  0  0
    6.0933  -12.5449   25.9711 C   0  0  0  0  0  0  0  0  0  0  0  0
    6.2403  -11.9615   27.3385 C   0  0  0  0  0  0  0  0  0  0  0  0
    5.0186  -11.4001   27.8565 N   0  0  0  0  0  0  0  0  0  0  0  0
    8.8511  -15.4718   24.0255 C   0  0  0  0  0  0  0  0  0  0  0  0
    8.2349  -16.5629   24.0855 O   0  0  0  0  0  0  0  0  0  0  0  0
   15.0269  -16.4722   23.9974 N   0  0  0  0  0  0  0  0  0  0  0  0
   14.5738  -17.4967   24.8726 C   0  0  0  0  0  0  0  0  0  0  0  0
   15.4603  -18.3227   25.2695 O   0  0  0  0  0  0  0  0  0  0  0  0
   13.1745  -17.5754   25.2843 C   0  0  0  0  0  0  0  0  0  0  0  0
   12.2527  -16.5478   24.7760 C   0  0  0  0  0  0  0  0  0  0  0  0
   10.8280  -16.5970   25.1633 C   0  0  2  0  0  0  0  0  0  0  0  0
   10.1312  -15.4071   24.6180 N   0  0  0  0  0  0  0  0  0  0  0  0
   10.4804  -16.8272   26.5554 C   0  0  0  0  0  0  0  0  0  0  0  0
   10.6125  -18.0309   27.2445 O   0  0  0  0  0  0  0  0  0  0  0  0
    9.9977  -15.8647   27.2525 O   0  0  0  0  0  0  0  0  0  0  0  0
  1  5  1  0
  1  2  1  0
  2  3  1  0
  4  3  1  0
  5  4  1  0
  6  7  2  0
  5  6  1  1
  8  6  1  0
  9  8  1  0
  9 10  1  1
 11 10  1  0
 11 12  1  0
 12 13  1  0
 13 14  1  0
 15  9  1  0
 16 15  2  0
 18 20  1  0
 18 17  1  0
 19 18  2  0
 21 20  1  0
 22 21  1  1
 22 23  1  0
 23 15  1  0
 24 22  1  0
 24 25  1  0
 26 24  2  0
M  END
$$$$
