PKQ.pdb
     RDKit          3D

 26 26  0  0  1  0  0  0  0  0999 V2000
    8.9227  -14.4772   18.9774 N   0  0  0  0  0  0  0  0  0  0  0  0
    8.7645  -13.4406   17.9610 C   0  0  0  0  0  0  0  0  0  0  0  0
    7.5305  -12.7232   18.4258 C   0  0  0  0  0  0  0  0  0  0  0  0
    7.7157  -12.6920   19.9333 C   0  0  0  0  0  0  0  0  0  0  0  0
    8.8319  -13.6796   20.1881 C   0  0  1  0  0  0  0  0  0  0  0  0
    8.4591  -14.5400   21.3153 C   0  0  0  0  0  0  0  0  0  0  0  0
    8.0609  -14.0982   22.4339 O   0  0  0  0  0  0  0  0  0  0  0  0
    8.5269  -15.9638   21.2091 N   0  0  0  0  0  0  0  0  0  0  0  0
    8.1628  -16.8203   22.2996 C   0  0  1  0  0  0  0  0  0  0  0  0
    7.9558  -18.2359   21.8255 C   0  0  0  0  0  0  0  0  0  0  0  0
    6.8982  -18.4084   20.7963 C   0  0  0  0  0  0  0  0  0  0  0  0
    6.9673  -19.8504   20.3053 C   0  0  0  0  0  0  0  0  0  0  0  0
    5.8579  -20.2042   19.3695 C   0  0  0  0  0  0  0  0  0  0  0  0
    5.9599  -21.5398   18.8386 N   0  0  0  0  0  0  0  0  0  0  0  0
    9.1583  -16.6741   23.3744 C   0  0  0  0  0  0  0  0  0  0  0  0
   10.3820  -16.5093   23.1524 O   0  0  0  0  0  0  0  0  0  0  0  0
    9.6707  -13.1066   27.8384 N   0  0  0  0  0  0  0  0  0  0  0  0
   10.0842  -14.2297   28.6055 C   0  0  0  0  0  0  0  0  0  0  0  0
   10.7641  -13.9696   29.6523 O   0  0  0  0  0  0  0  0  0  0  0  0
    9.7346  -15.5899   28.2038 C   0  0  0  0  0  0  0  0  0  0  0  0
    9.0423  -15.7672   26.9179 C   0  0  0  0  0  0  0  0  0  0  0  0
    9.6707  -16.5900   25.8642 C   0  0  2  0  0  0  0  0  0  0  0  0
    8.7353  -16.7187   24.7208 N   0  0  0  0  0  0  0  0  0  0  0  0
   10.2559  -17.8713   26.2213 C   0  0  0  0  0  0  0  0  0  0  0  0
   11.5438  -18.0753   26.7123 O   0  0  0  0  0  0  0  0  0  0  0  0
    9.5632  -18.9419   26.0824 O   0  0  0  0  0  0  0  0  0  0  0  0
  1  5  1  0
  1  2  1  0
  2  3  1  0
  4  3  1  0
  5  4  1  0
  6  7  2  0
  5  6  1  1
  8  6  1  0
  9  8  1  0
  9 10  1  6
 11 10  1  0
 11 12  1  0
 12 13  1  0
 13 14  1  0
 15  9  1  0
 16 15  2  0
 18 20  1  0
 18 17  1  0
 19 18  2  0
 21 20  1  0
 22 21  1  1
 22 23  1  0
 23 15  1  0
 24 22  1  0
 24 25  1  0
 26 24  2  0
M  END
$$$$
