PKQ.pdb
     RDKit          3D

 26 26  0  0  1  0  0  0  0  0999 V2000
    8.8911  -14.3387   18.8832 N   0  0  0  0  0  0  0  0  0  0  0  0
    8.4575  -13.2680   17.9898 C   0  0  0  0  0  0  0  0  0  0  0  0
    7.1964  -12.7919   18.6503 C   0  0  0  0  0  0  0  0  0  0  0  0
    7.5573  -12.8433   20.1251 C   0  0  0  0  0  0  0  0  0  0  0  0
    8.8308  -13.6575   20.1648 C   0  0  1  0  0  0  0  0  0  0  0  0
    8.7306  -14.6472   21.2419 C   0  0  0  0  0  0  0  0  0  0  0  0
    8.5333  -14.3453   22.4564 O   0  0  0  0  0  0  0  0  0  0  0  0
    8.8536  -16.0453   20.9715 N   0  0  0  0  0  0  0  0  0  0  0  0
    8.7656  -17.0264   22.0132 C   0  0  1  0  0  0  0  0  0  0  0  0
    8.8710  -18.4201   21.4495 C   0  0  0  0  0  0  0  0  0  0  0  0
    8.1576  -19.4692   22.2229 C   0  0  0  0  0  0  0  0  0  0  0  0
    8.4021  -20.8012   21.5222 C   0  0  0  0  0  0  0  0  0  0  0  0
    7.7269  -21.9505   22.1967 C   0  0  0  0  0  0  0  0  0  0  0  0
    8.0809  -23.2309   21.6389 N   0  0  0  0  0  0  0  0  0  0  0  0
    9.7592  -16.7095   23.0524 C   0  0  0  0  0  0  0  0  0  0  0  0
   10.7658  -15.9923   22.8372 O   0  0  0  0  0  0  0  0  0  0  0  0
    8.6355  -13.2026   27.2951 N   0  0  0  0  0  0  0  0  0  0  0  0
    9.6205  -13.9398   28.0072 C   0  0  0  0  0  0  0  0  0  0  0  0
    9.8476  -13.5567   29.2020 O   0  0  0  0  0  0  0  0  0  0  0  0
   10.3134  -15.0682   27.3904 C   0  0  0  0  0  0  0  0  0  0  0  0
    9.7565  -15.6142   26.1430 C   0  0  0  0  0  0  0  0  0  0  0  0
   10.4023  -16.7834   25.5121 C   0  0  2  0  0  0  0  0  0  0  0  0
    9.5880  -17.2271   24.3549 N   0  0  0  0  0  0  0  0  0  0  0  0
   10.8027  -17.9056   26.3440 C   0  0  0  0  0  0  0  0  0  0  0  0
   10.0369  -19.0372   26.6170 O   0  0  0  0  0  0  0  0  0  0  0  0
   11.9561  -17.8950   26.9051 O   0  0  0  0  0  0  0  0  0  0  0  0
  1  5  1  0
  1  2  1  0
  2  3  1  0
  4  3  1  0
  5  4  1  0
  6  7  2  0
  5  6  1  1
  8  6  1  0
  9  8  1  0
  9 10  1  6
 11 10  1  0
 11 12  1  0
 12 13  1  0
 13 14  1  0
 15  9  1  0
 16 15  2  0
 18 20  1  0
 18 17  1  0
 19 18  2  0
 21 20  1  0
 22 21  1  1
 22 23  1  0
 23 15  1  0
 24 22  1  0
 24 25  1  0
 26 24  2  0
M  END
$$$$
