PKQ.pdb
     RDKit          3D

 26 26  0  0  1  0  0  0  0  0999 V2000
    7.2795  -14.9432   19.5412 N   0  0  0  0  0  0  0  0  0  0  0  0
    7.0309  -14.4700   18.1823 C   0  0  0  0  0  0  0  0  0  0  0  0
    7.5268  -13.0544   18.2413 C   0  0  0  0  0  0  0  0  0  0  0  0
    8.7777  -13.1788   19.0943 C   0  0  0  0  0  0  0  0  0  0  0  0
    8.6696  -14.5563   19.7083 C   0  0  1  0  0  0  0  0  0  0  0  0
    8.9857  -14.4676   21.1372 C   0  0  0  0  0  0  0  0  0  0  0  0
   10.1620  -14.3368   21.5892 O   0  0  0  0  0  0  0  0  0  0  0  0
    7.9541  -14.5254   22.1248 N   0  0  0  0  0  0  0  0  0  0  0  0
    8.2338  -14.3500   23.5199 C   0  0  1  0  0  0  0  0  0  0  0  0
    7.1451  -13.5523   24.1905 C   0  0  0  0  0  0  0  0  0  0  0  0
    7.3793  -13.2468   25.6256 C   0  0  0  0  0  0  0  0  0  0  0  0
    6.1645  -12.4786   26.1349 C   0  0  0  0  0  0  0  0  0  0  0  0
    6.2718  -12.1022   27.5766 C   0  0  0  0  0  0  0  0  0  0  0  0
    5.1480  -11.3376   28.0545 N   0  0  0  0  0  0  0  0  0  0  0  0
    8.4883  -15.6678   24.1251 C   0  0  0  0  0  0  0  0  0  0  0  0
    7.7724  -16.6725   23.8970 O   0  0  0  0  0  0  0  0  0  0  0  0
   10.8310  -19.6896   22.1797 N   0  0  0  0  0  0  0  0  0  0  0  0
   11.4236  -20.0231   23.4281 C   0  0  0  0  0  0  0  0  0  0  0  0
   11.8311  -21.2253   23.5479 O   0  0  0  0  0  0  0  0  0  0  0  0
   11.5534  -19.0313   24.4927 C   0  0  0  0  0  0  0  0  0  0  0  0
   10.8870  -17.7334   24.3038 C   0  0  0  0  0  0  0  0  0  0  0  0
   10.1013  -17.1543   25.4126 C   0  0  2  0  0  0  0  0  0  0  0  0
    9.5823  -15.8268   25.0035 N   0  0  0  0  0  0  0  0  0  0  0  0
   10.6805  -17.1131   26.7446 C   0  0  0  0  0  0  0  0  0  0  0  0
   10.8507  -15.9741   27.5290 O   0  0  0  0  0  0  0  0  0  0  0  0
   11.0936  -18.1996   27.2869 O   0  0  0  0  0  0  0  0  0  0  0  0
  1  5  1  0
  1  2  1  0
  2  3  1  0
  4  3  1  0
  5  4  1  0
  6  7  2  0
  5  6  1  1
  8  6  1  0
  9  8  1  0
  9 10  1  1
 11 10  1  0
 11 12  1  0
 12 13  1  0
 13 14  1  0
 15  9  1  0
 16 15  2  0
 18 20  1  0
 18 17  1  0
 19 18  2  0
 21 20  1  0
 22 21  1  6
 22 23  1  0
 23 15  1  0
 24 22  1  0
 24 25  1  0
 26 24  2  0
M  END
$$$$
