PKQ.pdb
     RDKit          3D

 26 26  0  0  1  0  0  0  0  0999 V2000
    8.2580  -14.9046   18.8671 N   0  0  0  0  0  0  0  0  0  0  0  0
    8.1040  -13.9462   17.7761 C   0  0  0  0  0  0  0  0  0  0  0  0
    7.3036  -12.8528   18.4221 C   0  0  0  0  0  0  0  0  0  0  0  0
    7.9177  -12.7706   19.8092 C   0  0  0  0  0  0  0  0  0  0  0  0
    8.7437  -14.0320   19.9220 C   0  0  1  0  0  0  0  0  0  0  0  0
    8.4912  -14.6521   21.2264 C   0  0  0  0  0  0  0  0  0  0  0  0
    8.7479  -14.0900   22.3324 O   0  0  0  0  0  0  0  0  0  0  0  0
    7.9257  -15.9613   21.3226 N   0  0  0  0  0  0  0  0  0  0  0  0
    7.6708  -16.5824   22.5893 C   0  0  1  0  0  0  0  0  0  0  0  0
    7.0024  -17.9208   22.4072 C   0  0  0  0  0  0  0  0  0  0  0  0
    6.7936  -18.6972   23.6567 C   0  0  0  0  0  0  0  0  0  0  0  0
    6.1365  -20.0181   23.2713 C   0  0  0  0  0  0  0  0  0  0  0  0
    5.8844  -20.9105   24.4425 C   0  0  0  0  0  0  0  0  0  0  0  0
    5.2864  -22.1714   24.0840 N   0  0  0  0  0  0  0  0  0  0  0  0
    8.9239  -16.6240   23.3612 C   0  0  0  0  0  0  0  0  0  0  0  0
   10.0244  -16.9537   22.8573 O   0  0  0  0  0  0  0  0  0  0  0  0
    9.3773  -12.9993   28.4144 N   0  0  0  0  0  0  0  0  0  0  0  0
    9.8195  -14.2707   28.8715 C   0  0  0  0  0  0  0  0  0  0  0  0
   10.1192  -14.3446   30.1086 O   0  0  0  0  0  0  0  0  0  0  0  0
    9.9111  -15.4110   27.9632 C   0  0  0  0  0  0  0  0  0  0  0  0
   10.0403  -15.1315   26.5247 C   0  0  0  0  0  0  0  0  0  0  0  0
   10.1257  -16.2577   25.5726 C   0  0  2  0  0  0  0  0  0  0  0  0
    8.9052  -16.2806   24.7307 N   0  0  0  0  0  0  0  0  0  0  0  0
   10.4547  -17.5825   26.0709 C   0  0  0  0  0  0  0  0  0  0  0  0
    9.5557  -18.6270   26.2764 O   0  0  0  0  0  0  0  0  0  0  0  0
   11.6710  -17.8605   26.3688 O   0  0  0  0  0  0  0  0  0  0  0  0
  1  5  1  0
  1  2  1  0
  2  3  1  0
  4  3  1  0
  5  4  1  0
  6  7  2  0
  5  6  1  1
  8  6  1  0
  9  8  1  0
  9 10  1  6
 11 10  1  0
 11 12  1  0
 12 13  1  0
 13 14  1  0
 15  9  1  0
 16 15  2  0
 18 20  1  0
 18 17  1  0
 19 18  2  0
 21 20  1  0
 22 21  1  1
 22 23  1  0
 23 15  1  0
 24 22  1  0
 24 25  1  0
 26 24  2  0
M  END
$$$$
