PKQ.pdb
     RDKit          3D

 26 26  0  0  1  0  0  0  0  0999 V2000
    9.0140  -14.4510   19.2780 N   0  0  0  0  0  0  0  0  0  0  0  0
    8.8091  -13.5790   18.1247 C   0  0  0  0  0  0  0  0  0  0  0  0
    7.3684  -13.1847   18.2743 C   0  0  0  0  0  0  0  0  0  0  0  0
    7.2355  -12.9854   19.7745 C   0  0  0  0  0  0  0  0  0  0  0  0
    8.4881  -13.6138   20.3422 C   0  0  1  0  0  0  0  0  0  0  0  0
    8.1238  -14.4505   21.4898 C   0  0  0  0  0  0  0  0  0  0  0  0
    7.3381  -14.0759   22.4103 O   0  0  0  0  0  0  0  0  0  0  0  0
    8.6506  -15.7712   21.6353 N   0  0  0  0  0  0  0  0  0  0  0  0
    8.4050  -16.5569   22.8090 C   0  0  1  0  0  0  0  0  0  0  0  0
    8.8020  -17.9937   22.5870 C   0  0  0  0  0  0  0  0  0  0  0  0
    7.9064  -18.7638   21.6855 C   0  0  0  0  0  0  0  0  0  0  0  0
    8.4924  -20.1644   21.5443 C   0  0  0  0  0  0  0  0  0  0  0  0
    7.6458  -21.0725   20.7134 C   0  0  0  0  0  0  0  0  0  0  0  0
    8.2694  -22.3409   20.4337 N   0  0  0  0  0  0  0  0  0  0  0  0
    9.0583  -15.9122   23.9603 C   0  0  0  0  0  0  0  0  0  0  0  0
   10.2092  -15.4165   23.9015 O   0  0  0  0  0  0  0  0  0  0  0  0
    5.5786  -12.7433   26.4284 N   0  0  0  0  0  0  0  0  0  0  0  0
    6.8191  -12.1073   26.7071 C   0  0  0  0  0  0  0  0  0  0  0  0
    6.8120  -10.8328   26.6724 O   0  0  0  0  0  0  0  0  0  0  0  0
    8.0151  -12.8861   27.0183 C   0  0  0  0  0  0  0  0  0  0  0  0
    7.8927  -14.3521   27.0326 C   0  0  0  0  0  0  0  0  0  0  0  0
    8.9400  -15.1728   26.3909 C   0  0  2  0  0  0  0  0  0  0  0  0
    8.3741  -15.8395   25.1933 N   0  0  0  0  0  0  0  0  0  0  0  0
    9.7099  -16.0996   27.2033 C   0  0  0  0  0  0  0  0  0  0  0  0
   10.6161  -15.7543   28.2038 O   0  0  0  0  0  0  0  0  0  0  0  0
    9.5817  -17.3617   27.0135 O   0  0  0  0  0  0  0  0  0  0  0  0
  1  5  1  0
  1  2  1  0
  2  3  1  0
  4  3  1  0
  5  4  1  0
  6  7  2  0
  5  6  1  1
  8  6  1  0
  9  8  1  0
  9 10  1  6
 11 10  1  0
 11 12  1  0
 12 13  1  0
 13 14  1  0
 15  9  1  0
 16 15  2  0
 18 20  1  0
 18 17  1  0
 19 18  2  0
 21 20  1  0
 22 21  1  1
 22 23  1  0
 23 15  1  0
 24 22  1  0
 24 25  1  0
 26 24  2  0
M  END
$$$$
