IDP.pdb
     RDKit          3D

 24 24  0  0  1  0  0  0  0  0999 V2000
    8.1986  -12.0987   18.1767 C   0  0  0  0  0  0  0  0  0  0  0  0
    8.4562  -13.5215   18.6553 C   0  0  0  0  0  0  0  0  0  0  0  0
    7.6945  -13.7981   19.9286 C   0  0  2  0  0  0  0  0  0  0  0  0
    8.1164  -12.7859   20.9532 C   0  0  0  0  0  0  0  0  0  0  0  0
    7.8478  -15.2199   20.3159 C   0  0  2  0  0  0  0  0  0  0  0  0
    7.3704  -16.1407   19.2986 N   0  0  0  0  0  0  0  0  0  0  0  0
    7.2986  -15.6004   21.6307 C   0  0  0  0  0  0  0  0  0  0  0  0
    6.0718  -15.8380   21.8274 O   0  0  0  0  0  0  0  0  0  0  0  0
    8.1700  -15.7142   22.7558 N   0  0  0  0  0  0  0  0  0  0  0  0
    7.6229  -15.9818   24.1182 C   0  0  1  0  0  0  0  0  0  0  0  0
    7.9206  -17.4698   24.3494 C   0  0  0  0  0  0  0  0  0  0  0  0
    7.6391  -17.9268   25.6994 C   0  0  0  0  0  0  0  0  0  0  0  0
    8.5652  -18.2295   26.5296 O   0  0  0  0  0  0  0  0  0  0  0  0
    8.4061  -15.1490   25.0496 C   0  0  0  0  0  0  0  0  0  0  0  0
    9.6654  -15.0453   24.7637 O   0  0  0  0  0  0  0  0  0  0  0  0
    6.3289  -18.0492   26.1372 O   0  0  0  0  0  0  0  0  0  0  0  0
    7.9257  -14.4700   26.1866 N   0  0  0  0  0  0  0  0  0  0  0  0
    6.5642  -14.5291   26.6949 C   0  0  0  0  0  0  0  0  0  0  0  0
    6.4213  -13.3875   27.6850 C   0  0  0  0  0  0  0  0  0  0  0  0
    7.6167  -12.4959   27.3133 C   0  0  0  0  0  0  0  0  0  0  0  0
    8.6502  -13.6039   27.0640 C   0  0  1  0  0  0  0  0  0  0  0  0
    8.7976  -14.2738   28.4203 C   0  0  0  0  0  0  0  0  0  0  0  0
    9.4293  -13.7007   29.3403 O   0  0  0  0  0  0  0  0  0  0  0  0
    8.2474  -15.5158   28.6760 O   0  0  0  0  0  0  0  0  0  0  0  0
  2  1  1  0
  3  2  1  0
  3  4  1  1
  5  3  1  0
  5  6  1  6
  7  5  1  0
  7  8  2  0
  9  7  1  0
 10  9  1  0
 10 11  1  1
 12 11  1  0
 13 12  2  0
 14 10  1  0
 15 14  2  0
 16 12  1  0
 17 14  1  0
 17 21  1  0
 18 17  1  0
 18 19  1  0
 19 20  1  0
 21 20  1  0
 22 24  1  0
 21 22  1  1
 23 22  2  0
M  END
$$$$
