IDP.pdb
     RDKit          3D

 24 24  0  0  1  0  0  0  0  0999 V2000
    7.9798  -11.9043   19.5537 C   0  0  0  0  0  0  0  0  0  0  0  0
    7.4746  -13.2899   19.9344 C   0  0  0  0  0  0  0  0  0  0  0  0
    8.6155  -14.2772   19.9743 C   0  0  2  0  0  0  0  0  0  0  0  0
    9.3147  -14.2354   18.6470 C   0  0  0  0  0  0  0  0  0  0  0  0
    8.1254  -15.6054   20.4109 C   0  0  2  0  0  0  0  0  0  0  0  0
    7.2218  -16.2205   19.4540 N   0  0  0  0  0  0  0  0  0  0  0  0
    7.5409  -15.6725   21.7633 C   0  0  0  0  0  0  0  0  0  0  0  0
    6.3048  -15.5322   21.9924 O   0  0  0  0  0  0  0  0  0  0  0  0
    8.3870  -15.9059   22.8894 N   0  0  0  0  0  0  0  0  0  0  0  0
    7.8145  -16.0050   24.2639 C   0  0  1  0  0  0  0  0  0  0  0  0
    7.7590  -17.5153   24.5323 C   0  0  0  0  0  0  0  0  0  0  0  0
    6.6290  -18.1855   23.9121 C   0  0  0  0  0  0  0  0  0  0  0  0
    6.7325  -18.8315   22.8119 O   0  0  0  0  0  0  0  0  0  0  0  0
    8.7859  -15.3572   25.1645 C   0  0  0  0  0  0  0  0  0  0  0  0
   10.0212  -15.4322   24.7813 O   0  0  0  0  0  0  0  0  0  0  0  0
    5.3781  -18.1447   24.5094 O   0  0  0  0  0  0  0  0  0  0  0  0
    8.5041  -14.6786   26.3665 N   0  0  0  0  0  0  0  0  0  0  0  0
    7.1924  -14.5604   26.9837 C   0  0  0  0  0  0  0  0  0  0  0  0
    7.3034  -13.4677   28.0316 C   0  0  0  0  0  0  0  0  0  0  0  0
    8.5907  -12.7471   27.6008 C   0  0  0  0  0  0  0  0  0  0  0  0
    9.4183  -13.9824   27.2175 C   0  0  1  0  0  0  0  0  0  0  0  0
    9.5628  -14.7421   28.5259 C   0  0  0  0  0  0  0  0  0  0  0  0
    8.8566  -15.7552   28.7471 O   0  0  0  0  0  0  0  0  0  0  0  0
   10.4639  -14.3450   29.4959 O   0  0  0  0  0  0  0  0  0  0  0  0
  2  1  1  0
  3  2  1  0
  3  4  1  6
  5  3  1  0
  5  6  1  6
  7  5  1  0
  7  8  2  0
  9  7  1  0
 10  9  1  0
 10 11  1  1
 12 11  1  0
 13 12  2  0
 14 10  1  0
 15 14  2  0
 16 12  1  0
 17 14  1  0
 17 21  1  0
 18 17  1  0
 18 19  1  0
 19 20  1  0
 21 20  1  0
 22 24  1  0
 21 22  1  1
 23 22  2  0
M  END
$$$$
