IDP.pdb
     RDKit          3D

 24 24  0  0  1  0  0  0  0  0999 V2000
    7.9190  -12.0452   19.5440 C   0  0  0  0  0  0  0  0  0  0  0  0
    7.3322  -13.3783   19.9894 C   0  0  0  0  0  0  0  0  0  0  0  0
    8.3943  -14.4507   19.9906 C   0  0  2  0  0  0  0  0  0  0  0  0
    9.0576  -14.4512   18.6444 C   0  0  0  0  0  0  0  0  0  0  0  0
    7.8156  -15.7410   20.4322 C   0  0  2  0  0  0  0  0  0  0  0  0
    6.8424  -16.2774   19.4964 N   0  0  0  0  0  0  0  0  0  0  0  0
    7.2639  -15.7743   21.7996 C   0  0  0  0  0  0  0  0  0  0  0  0
    6.0520  -15.5267   22.0647 O   0  0  0  0  0  0  0  0  0  0  0  0
    8.1154  -16.0985   22.8988 N   0  0  0  0  0  0  0  0  0  0  0  0
    7.5878  -16.1024   24.2947 C   0  0  1  0  0  0  0  0  0  0  0  0
    7.8407  -17.5364   24.7804 C   0  0  0  0  0  0  0  0  0  0  0  0
    6.7654  -18.4637   24.4730 C   0  0  0  0  0  0  0  0  0  0  0  0
    5.5325  -18.1707   24.6538 O   0  0  0  0  0  0  0  0  0  0  0  0
    8.4174  -15.1479   25.0532 C   0  0  0  0  0  0  0  0  0  0  0  0
    9.6455  -15.0517   24.6522 O   0  0  0  0  0  0  0  0  0  0  0  0
    7.0510  -19.7208   23.9616 O   0  0  0  0  0  0  0  0  0  0  0  0
    8.0095  -14.3489   26.1395 N   0  0  0  0  0  0  0  0  0  0  0  0
    6.6737  -14.3205   26.7142 C   0  0  0  0  0  0  0  0  0  0  0  0
    6.6064  -13.0849   27.5934 C   0  0  0  0  0  0  0  0  0  0  0  0
    7.8025  -12.2673   27.0807 C   0  0  0  0  0  0  0  0  0  0  0  0
    8.7963  -13.4228   26.8931 C   0  0  1  0  0  0  0  0  0  0  0  0
    8.9947  -13.9623   28.3000 C   0  0  0  0  0  0  0  0  0  0  0  0
    9.6757  -13.3158   29.1321 O   0  0  0  0  0  0  0  0  0  0  0  0
    8.4383  -15.1633   28.6981 O   0  0  0  0  0  0  0  0  0  0  0  0
  2  1  1  0
  3  2  1  0
  3  4  1  6
  5  3  1  0
  5  6  1  6
  7  5  1  0
  7  8  2  0
  9  7  1  0
 10  9  1  0
 10 11  1  1
 12 11  1  0
 13 12  2  0
 14 10  1  0
 15 14  2  0
 16 12  1  0
 17 14  1  0
 17 21  1  0
 18 17  1  0
 18 19  1  0
 19 20  1  0
 21 20  1  0
 22 24  1  0
 21 22  1  1
 23 22  2  0
M  END
$$$$
