IDP.pdb
     RDKit          3D

 24 24  0  0  1  0  0  0  0  0999 V2000
    7.6612  -11.9437   19.5335 C   0  0  0  0  0  0  0  0  0  0  0  0
    7.2220  -13.3691   19.8419 C   0  0  0  0  0  0  0  0  0  0  0  0
    8.4159  -14.2907   19.8991 C   0  0  2  0  0  0  0  0  0  0  0  0
    9.1877  -14.1333   18.6217 C   0  0  0  0  0  0  0  0  0  0  0  0
    7.9819  -15.6674   20.2327 C   0  0  2  0  0  0  0  0  0  0  0  0
    7.1569  -16.2693   19.1995 N   0  0  0  0  0  0  0  0  0  0  0  0
    7.3433  -15.8486   21.5497 C   0  0  0  0  0  0  0  0  0  0  0  0
    6.1063  -16.0685   21.6963 O   0  0  0  0  0  0  0  0  0  0  0  0
    8.1347  -15.7776   22.7359 N   0  0  0  0  0  0  0  0  0  0  0  0
    7.4990  -15.8800   24.0821 C   0  0  1  0  0  0  0  0  0  0  0  0
    7.4773  -17.3884   24.3659 C   0  0  0  0  0  0  0  0  0  0  0  0
    7.1222  -17.7284   25.7330 C   0  0  0  0  0  0  0  0  0  0  0  0
    6.1322  -17.1900   26.3400 O   0  0  0  0  0  0  0  0  0  0  0  0
    8.4047  -15.1924   25.0209 C   0  0  0  0  0  0  0  0  0  0  0  0
    9.6667  -15.3990   24.8136 O   0  0  0  0  0  0  0  0  0  0  0  0
    7.8620  -18.6688   26.4343 O   0  0  0  0  0  0  0  0  0  0  0  0
    8.0368  -14.3507   26.0890 N   0  0  0  0  0  0  0  0  0  0  0  0
    6.6748  -14.0773   26.5202 C   0  0  0  0  0  0  0  0  0  0  0  0
    6.7446  -12.8687   27.4360 C   0  0  0  0  0  0  0  0  0  0  0  0
    8.1229  -12.2863   27.0853 C   0  0  0  0  0  0  0  0  0  0  0  0
    8.8955  -13.6072   26.9577 C   0  0  1  0  0  0  0  0  0  0  0  0
    8.8308  -14.2014   28.3551 C   0  0  0  0  0  0  0  0  0  0  0  0
    9.5163  -13.7065   29.2821 O   0  0  0  0  0  0  0  0  0  0  0  0
    8.0261  -15.2881   28.6413 O   0  0  0  0  0  0  0  0  0  0  0  0
  2  1  1  0
  3  2  1  0
  3  4  1  6
  5  3  1  0
  5  6  1  6
  7  5  1  0
  7  8  2  0
  9  7  1  0
 10  9  1  0
 10 11  1  1
 12 11  1  0
 13 12  2  0
 14 10  1  0
 15 14  2  0
 16 12  1  0
 17 14  1  0
 17 21  1  0
 18 17  1  0
 18 19  1  0
 19 20  1  0
 21 20  1  0
 22 24  1  0
 21 22  1  1
 23 22  2  0
M  END
$$$$
