IDP.pdb
     RDKit          3D

 24 24  0  0  1  0  0  0  0  0999 V2000
    7.7331  -11.8517   27.8578 C   0  0  0  0  0  0  0  0  0  0  0  0
    7.7033  -13.1337   27.0359 C   0  0  0  0  0  0  0  0  0  0  0  0
    6.4293  -13.2173   26.2309 C   0  0  2  0  0  0  0  0  0  0  0  0
    5.2722  -13.1980   27.1864 C   0  0  0  0  0  0  0  0  0  0  0  0
    6.4878  -14.3698   25.3018 C   0  0  2  0  0  0  0  0  0  0  0  0
    6.6958  -15.6372   25.9808 N   0  0  0  0  0  0  0  0  0  0  0  0
    7.4276  -14.2491   24.1716 C   0  0  0  0  0  0  0  0  0  0  0  0
    7.5930  -13.1785   23.5184 O   0  0  0  0  0  0  0  0  0  0  0  0
    8.2026  -15.3796   23.7716 N   0  0  0  0  0  0  0  0  0  0  0  0
    9.1085  -15.3009   22.5884 C   0  0  1  0  0  0  0  0  0  0  0  0
   10.0152  -16.5307   22.7358 C   0  0  0  0  0  0  0  0  0  0  0  0
   11.1264  -16.3403   23.6521 C   0  0  0  0  0  0  0  0  0  0  0  0
   12.0465  -15.4746   23.4459 O   0  0  0  0  0  0  0  0  0  0  0  0
    8.2477  -15.4354   21.3986 C   0  0  0  0  0  0  0  0  0  0  0  0
    7.2302  -16.2236   21.5460 O   0  0  0  0  0  0  0  0  0  0  0  0
   11.2228  -17.1077   24.8032 O   0  0  0  0  0  0  0  0  0  0  0  0
    8.4202  -14.8004   20.1529 N   0  0  0  0  0  0  0  0  0  0  0  0
    9.4995  -13.8873   19.8111 C   0  0  0  0  0  0  0  0  0  0  0  0
    9.0855  -13.1876   18.5292 C   0  0  0  0  0  0  0  0  0  0  0  0
    7.5734  -13.4600   18.4953 C   0  0  0  0  0  0  0  0  0  0  0  0
    7.5992  -14.9142   18.9877 C   0  0  1  0  0  0  0  0  0  0  0  0
    8.3680  -15.6506   17.9029 C   0  0  0  0  0  0  0  0  0  0  0  0
    9.5961  -15.8683   18.0387 O   0  0  0  0  0  0  0  0  0  0  0  0
    7.7453  -16.0959   16.7520 O   0  0  0  0  0  0  0  0  0  0  0  0
  2  1  1  0
  3  2  1  0
  3  4  1  1
  5  3  1  0
  5  6  1  1
  7  5  1  0
  7  8  2  0
  9  7  1  0
 10  9  1  0
 10 11  1  1
 12 11  1  0
 13 12  2  0
 14 10  1  0
 15 14  2  0
 16 12  1  0
 17 14  1  0
 17 21  1  0
 18 17  1  0
 18 19  1  0
 19 20  1  0
 21 20  1  0
 22 24  1  0
 21 22  1  6
 23 22  2  0
M  END
$$$$
