IDP.pdb
     RDKit          3D

 24 24  0  0  1  0  0  0  0  0999 V2000
    7.8376  -11.6849   19.8054 C   0  0  0  0  0  0  0  0  0  0  0  0
    7.5158  -13.1582   20.0191 C   0  0  0  0  0  0  0  0  0  0  0  0
    8.7625  -13.9979   19.8830 C   0  0  2  0  0  0  0  0  0  0  0  0
    9.3507  -13.7421   18.5262 C   0  0  0  0  0  0  0  0  0  0  0  0
    8.4627  -15.4121   20.2070 C   0  0  2  0  0  0  0  0  0  0  0  0
    7.5915  -16.0461   19.2326 N   0  0  0  0  0  0  0  0  0  0  0  0
    7.9638  -15.6773   21.5694 C   0  0  0  0  0  0  0  0  0  0  0  0
    6.7337  -15.7398   21.8575 O   0  0  0  0  0  0  0  0  0  0  0  0
    8.8912  -15.8771   22.6364 N   0  0  0  0  0  0  0  0  0  0  0  0
    8.4099  -16.1793   24.0162 C   0  0  1  0  0  0  0  0  0  0  0  0
    9.1299  -17.4852   24.3802 C   0  0  0  0  0  0  0  0  0  0  0  0
    8.7114  -18.6313   23.5917 C   0  0  0  0  0  0  0  0  0  0  0  0
    7.4853  -18.9851   23.4904 O   0  0  0  0  0  0  0  0  0  0  0  0
    8.8835  -15.0747   24.8708 C   0  0  0  0  0  0  0  0  0  0  0  0
   10.0563  -14.6143   24.5693 O   0  0  0  0  0  0  0  0  0  0  0  0
    9.6500  -19.3909   22.9095 O   0  0  0  0  0  0  0  0  0  0  0  0
    8.1969  -14.4858   25.9508 N   0  0  0  0  0  0  0  0  0  0  0  0
    6.8583  -14.8397   26.3963 C   0  0  0  0  0  0  0  0  0  0  0  0
    6.4024  -13.7282   27.3242 C   0  0  0  0  0  0  0  0  0  0  0  0
    7.3815  -12.5984   26.9680 C   0  0  0  0  0  0  0  0  0  0  0  0
    8.6533  -13.4461   26.8200 C   0  0  1  0  0  0  0  0  0  0  0  0
    8.8727  -14.0165   28.2116 C   0  0  0  0  0  0  0  0  0  0  0  0
    9.3322  -13.2894   29.1248 O   0  0  0  0  0  0  0  0  0  0  0  0
    8.5761  -15.3338   28.5071 O   0  0  0  0  0  0  0  0  0  0  0  0
  2  1  1  0
  3  2  1  0
  3  4  1  6
  5  3  1  0
  5  6  1  6
  7  5  1  0
  7  8  2  0
  9  7  1  0
 10  9  1  0
 10 11  1  1
 12 11  1  0
 13 12  2  0
 14 10  1  0
 15 14  2  0
 16 12  1  0
 17 14  1  0
 17 21  1  0
 18 17  1  0
 18 19  1  0
 19 20  1  0
 21 20  1  0
 22 24  1  0
 21 22  1  1
 23 22  2  0
M  END
$$$$
