IDP.pdb
     RDKit          3D

 24 24  0  0  1  0  0  0  0  0999 V2000
    8.1534  -11.9377   20.1129 C   0  0  0  0  0  0  0  0  0  0  0  0
    7.4067  -13.2322   20.4070 C   0  0  0  0  0  0  0  0  0  0  0  0
    8.3186  -14.4217   20.2294 C   0  0  2  0  0  0  0  0  0  0  0  0
    8.9214  -14.3461   18.8571 C   0  0  0  0  0  0  0  0  0  0  0  0
    7.5944  -15.6725   20.5547 C   0  0  2  0  0  0  0  0  0  0  0  0
    6.5044  -15.9535   19.6362 N   0  0  0  0  0  0  0  0  0  0  0  0
    7.1228  -15.8102   21.9454 C   0  0  0  0  0  0  0  0  0  0  0  0
    5.9700  -15.4541   22.3253 O   0  0  0  0  0  0  0  0  0  0  0  0
    7.9879  -16.3692   22.9341 N   0  0  0  0  0  0  0  0  0  0  0  0
    7.5884  -16.3880   24.3718 C   0  0  1  0  0  0  0  0  0  0  0  0
    7.7177  -17.8645   24.7711 C   0  0  0  0  0  0  0  0  0  0  0  0
    7.4104  -18.1294   26.1661 C   0  0  0  0  0  0  0  0  0  0  0  0
    6.4086  -17.6001   26.7617 O   0  0  0  0  0  0  0  0  0  0  0  0
    8.5851  -15.5714   25.0889 C   0  0  0  0  0  0  0  0  0  0  0  0
    9.8080  -15.7265   24.6905 O   0  0  0  0  0  0  0  0  0  0  0  0
    8.2114  -18.9844   26.9083 O   0  0  0  0  0  0  0  0  0  0  0  0
    8.3384  -14.6596   26.1341 N   0  0  0  0  0  0  0  0  0  0  0  0
    7.0341  -14.3563   26.7019 C   0  0  0  0  0  0  0  0  0  0  0  0
    7.2019  -13.0891   27.5206 C   0  0  0  0  0  0  0  0  0  0  0  0
    8.5262  -12.5331   26.9735 C   0  0  0  0  0  0  0  0  0  0  0  0
    9.2874  -13.8605   26.8452 C   0  0  1  0  0  0  0  0  0  0  0  0
    9.3898  -14.3595   28.2771 C   0  0  0  0  0  0  0  0  0  0  0  0
   10.1682  -13.7983   29.0853 O   0  0  0  0  0  0  0  0  0  0  0  0
    8.6388  -15.4303   28.7242 O   0  0  0  0  0  0  0  0  0  0  0  0
  2  1  1  0
  3  2  1  0
  3  4  1  6
  5  3  1  0
  5  6  1  6
  7  5  1  0
  7  8  2  0
  9  7  1  0
 10  9  1  0
 10 11  1  1
 12 11  1  0
 13 12  2  0
 14 10  1  0
 15 14  2  0
 16 12  1  0
 17 14  1  0
 17 21  1  0
 18 17  1  0
 18 19  1  0
 19 20  1  0
 21 20  1  0
 22 24  1  0
 21 22  1  1
 23 22  2  0
M  END
$$$$
