IDP.pdb
     RDKit          3D

 24 24  0  0  1  0  0  0  0  0999 V2000
    8.3836  -12.4020   18.0395 C   0  0  0  0  0  0  0  0  0  0  0  0
    8.5100  -13.8120   18.6014 C   0  0  0  0  0  0  0  0  0  0  0  0
    7.7725  -13.9276   19.9132 C   0  0  2  0  0  0  0  0  0  0  0  0
    8.3234  -12.8928   20.8502 C   0  0  0  0  0  0  0  0  0  0  0  0
    7.8070  -15.3278   20.3959 C   0  0  2  0  0  0  0  0  0  0  0  0
    7.2274  -16.2686   19.4528 N   0  0  0  0  0  0  0  0  0  0  0  0
    7.2547  -15.5671   21.7424 C   0  0  0  0  0  0  0  0  0  0  0  0
    6.0163  -15.6802   21.9740 O   0  0  0  0  0  0  0  0  0  0  0  0
    8.1368  -15.6810   22.8593 N   0  0  0  0  0  0  0  0  0  0  0  0
    7.5976  -15.8442   24.2412 C   0  0  1  0  0  0  0  0  0  0  0  0
    7.7104  -17.3521   24.5054 C   0  0  0  0  0  0  0  0  0  0  0  0
    6.5997  -18.1292   23.9830 C   0  0  0  0  0  0  0  0  0  0  0  0
    5.3901  -17.9344   24.3537 O   0  0  0  0  0  0  0  0  0  0  0  0
    8.5053  -15.0962   25.1305 C   0  0  0  0  0  0  0  0  0  0  0  0
    9.7526  -15.1158   24.7807 O   0  0  0  0  0  0  0  0  0  0  0  0
    6.8238  -19.1260   23.0451 O   0  0  0  0  0  0  0  0  0  0  0  0
    8.1526  -14.3776   26.2897 N   0  0  0  0  0  0  0  0  0  0  0  0
    6.8165  -14.2920   26.8582 C   0  0  0  0  0  0  0  0  0  0  0  0
    6.8429  -13.1491   27.8569 C   0  0  0  0  0  0  0  0  0  0  0  0
    8.1108  -12.3902   27.4346 C   0  0  0  0  0  0  0  0  0  0  0  0
    9.0052  -13.6023   27.1363 C   0  0  1  0  0  0  0  0  0  0  0  0
    9.1384  -14.2946   28.4828 C   0  0  0  0  0  0  0  0  0  0  0  0
    9.8611  -13.7956   29.3786 O   0  0  0  0  0  0  0  0  0  0  0  0
    8.4761  -15.4768   28.7556 O   0  0  0  0  0  0  0  0  0  0  0  0
  2  1  1  0
  3  2  1  0
  3  4  1  1
  5  3  1  0
  5  6  1  6
  7  5  1  0
  7  8  2  0
  9  7  1  0
 10  9  1  0
 10 11  1  1
 12 11  1  0
 13 12  2  0
 14 10  1  0
 15 14  2  0
 16 12  1  0
 17 14  1  0
 17 21  1  0
 18 17  1  0
 18 19  1  0
 19 20  1  0
 21 20  1  0
 22 24  1  0
 21 22  1  1
 23 22  2  0
M  END
$$$$
