IDP.pdb
     RDKit          3D

 24 24  0  0  1  0  0  0  0  0999 V2000
    8.2773  -12.2976   18.4173 C   0  0  0  0  0  0  0  0  0  0  0  0
    8.3614  -13.7610   18.8312 C   0  0  0  0  0  0  0  0  0  0  0  0
    7.7506  -13.9612   20.1968 C   0  0  2  0  0  0  0  0  0  0  0  0
    8.4583  -13.0549   21.1613 C   0  0  0  0  0  0  0  0  0  0  0  0
    7.7395  -15.4013   20.5444 C   0  0  2  0  0  0  0  0  0  0  0  0
    7.0367  -16.2162   19.5684 N   0  0  0  0  0  0  0  0  0  0  0  0
    7.2771  -15.7406   21.9032 C   0  0  0  0  0  0  0  0  0  0  0  0
    6.0570  -15.8832   22.2052 O   0  0  0  0  0  0  0  0  0  0  0  0
    8.2303  -15.9230   22.9503 N   0  0  0  0  0  0  0  0  0  0  0  0
    7.7834  -16.1172   24.3608 C   0  0  1  0  0  0  0  0  0  0  0  0
    7.5306  -17.6278   24.4629 C   0  0  0  0  0  0  0  0  0  0  0  0
    7.3470  -18.1067   25.8221 C   0  0  0  0  0  0  0  0  0  0  0  0
    6.5866  -17.5127   26.6632 O   0  0  0  0  0  0  0  0  0  0  0  0
    8.9217  -15.7268   25.2131 C   0  0  0  0  0  0  0  0  0  0  0  0
   10.0761  -16.1602   24.8158 O   0  0  0  0  0  0  0  0  0  0  0  0
    8.0043  -19.2482   26.2560 O   0  0  0  0  0  0  0  0  0  0  0  0
    8.8737  -14.9439   26.3833 N   0  0  0  0  0  0  0  0  0  0  0  0
    7.6645  -14.4368   27.0128 C   0  0  0  0  0  0  0  0  0  0  0  0
    8.1046  -13.3733   28.0026 C   0  0  0  0  0  0  0  0  0  0  0  0
    9.5289  -13.0607   27.5173 C   0  0  0  0  0  0  0  0  0  0  0  0
    9.9691  -14.4937   27.1847 C   0  0  1  0  0  0  0  0  0  0  0  0
    9.9331  -15.2048   28.5275 C   0  0  0  0  0  0  0  0  0  0  0  0
    8.9796  -15.9697   28.8096 O   0  0  0  0  0  0  0  0  0  0  0  0
   10.9358  -15.0323   29.4631 O   0  0  0  0  0  0  0  0  0  0  0  0
  2  1  1  0
  3  2  1  0
  3  4  1  1
  5  3  1  0
  5  6  1  6
  7  5  1  0
  7  8  2  0
  9  7  1  0
 10  9  1  0
 10 11  1  6
 12 11  1  0
 13 12  2  0
 14 10  1  0
 15 14  2  0
 16 12  1  0
 17 14  1  0
 17 21  1  0
 18 17  1  0
 18 19  1  0
 19 20  1  0
 21 20  1  0
 22 24  1  0
 21 22  1  1
 23 22  2  0
M  END
$$$$
