IDP.pdb
     RDKit          3D

 24 24  0  0  1  0  0  0  0  0999 V2000
    7.9888  -12.1132   18.5246 C   0  0  0  0  0  0  0  0  0  0  0  0
    8.2687  -13.5440   18.9652 C   0  0  0  0  0  0  0  0  0  0  0  0
    7.7076  -13.7931   20.3440 C   0  0  2  0  0  0  0  0  0  0  0  0
    8.3790  -12.8490   21.2980 C   0  0  0  0  0  0  0  0  0  0  0  0
    7.7996  -15.2332   20.6796 C   0  0  2  0  0  0  0  0  0  0  0  0
    7.1511  -16.0877   19.6999 N   0  0  0  0  0  0  0  0  0  0  0  0
    7.3690  -15.6151   22.0375 C   0  0  0  0  0  0  0  0  0  0  0  0
    6.1547  -15.7123   22.3784 O   0  0  0  0  0  0  0  0  0  0  0  0
    8.3483  -15.8947   23.0382 N   0  0  0  0  0  0  0  0  0  0  0  0
    7.9420  -16.1393   24.4531 C   0  0  1  0  0  0  0  0  0  0  0  0
    7.6489  -17.6454   24.4976 C   0  0  0  0  0  0  0  0  0  0  0  0
    7.4906  -18.1781   25.8399 C   0  0  0  0  0  0  0  0  0  0  0  0
    6.4512  -17.9504   26.5515 O   0  0  0  0  0  0  0  0  0  0  0  0
    9.1183  -15.8188   25.2827 C   0  0  0  0  0  0  0  0  0  0  0  0
   10.2523  -16.2197   24.8016 O   0  0  0  0  0  0  0  0  0  0  0  0
    8.4834  -18.9679   26.4003 O   0  0  0  0  0  0  0  0  0  0  0  0
    9.1249  -15.1317   26.5125 N   0  0  0  0  0  0  0  0  0  0  0  0
    7.9458  -14.7157   27.2555 C   0  0  0  0  0  0  0  0  0  0  0  0
    8.4196  -13.7189   28.2977 C   0  0  0  0  0  0  0  0  0  0  0  0
    9.7999  -13.3223   27.7504 C   0  0  0  0  0  0  0  0  0  0  0  0
   10.2573  -14.7096   27.2770 C   0  0  1  0  0  0  0  0  0  0  0  0
   10.3291  -15.5243   28.5581 C   0  0  0  0  0  0  0  0  0  0  0  0
    9.4527  -16.3872   28.8054 O   0  0  0  0  0  0  0  0  0  0  0  0
   11.3476  -15.3410   29.4743 O   0  0  0  0  0  0  0  0  0  0  0  0
  2  1  1  0
  3  2  1  0
  3  4  1  1
  5  3  1  0
  5  6  1  6
  7  5  1  0
  7  8  2  0
  9  7  1  0
 10  9  1  0
 10 11  1  6
 12 11  1  0
 13 12  2  0
 14 10  1  0
 15 14  2  0
 16 12  1  0
 17 14  1  0
 17 21  1  0
 18 17  1  0
 18 19  1  0
 19 20  1  0
 21 20  1  0
 22 24  1  0
 21 22  1  1
 23 22  2  0
M  END
$$$$
