IDP.pdb
     RDKit          3D

 24 24  0  0  1  0  0  0  0  0999 V2000
    7.9885  -12.0410   19.4790 C   0  0  0  0  0  0  0  0  0  0  0  0
    7.4695  -13.4465   19.7528 C   0  0  0  0  0  0  0  0  0  0  0  0
    8.6172  -14.4151   19.9035 C   0  0  2  0  0  0  0  0  0  0  0  0
    9.4073  -14.4035   18.6275 C   0  0  0  0  0  0  0  0  0  0  0  0
    8.1146  -15.7364   20.3465 C   0  0  2  0  0  0  0  0  0  0  0  0
    7.2947  -16.3973   19.3457 N   0  0  0  0  0  0  0  0  0  0  0  0
    7.4307  -15.7694   21.6528 C   0  0  0  0  0  0  0  0  0  0  0  0
    6.1760  -15.6726   21.7813 O   0  0  0  0  0  0  0  0  0  0  0  0
    8.1961  -15.9165   22.8490 N   0  0  0  0  0  0  0  0  0  0  0  0
    7.5328  -15.8857   24.1854 C   0  0  1  0  0  0  0  0  0  0  0  0
    7.6141  -17.3395   24.6711 C   0  0  0  0  0  0  0  0  0  0  0  0
    6.5607  -18.1960   24.1543 C   0  0  0  0  0  0  0  0  0  0  0  0
    5.3279  -18.0264   24.4543 O   0  0  0  0  0  0  0  0  0  0  0  0
    8.3595  -15.0110   25.0375 C   0  0  0  0  0  0  0  0  0  0  0  0
    9.6140  -14.9630   24.7176 O   0  0  0  0  0  0  0  0  0  0  0  0
    6.8680  -19.2446   23.3003 O   0  0  0  0  0  0  0  0  0  0  0  0
    7.9242  -14.2397   26.1331 N   0  0  0  0  0  0  0  0  0  0  0  0
    6.5616  -14.1817   26.6386 C   0  0  0  0  0  0  0  0  0  0  0  0
    6.4933  -12.9797   27.5632 C   0  0  0  0  0  0  0  0  0  0  0  0
    7.7443  -12.1899   27.1469 C   0  0  0  0  0  0  0  0  0  0  0  0
    8.7034  -13.3750   26.9637 C   0  0  1  0  0  0  0  0  0  0  0  0
    8.8066  -13.9764   28.3557 C   0  0  0  0  0  0  0  0  0  0  0  0
    8.1095  -14.9726   28.6645 O   0  0  0  0  0  0  0  0  0  0  0  0
    9.6597  -13.4510   29.3079 O   0  0  0  0  0  0  0  0  0  0  0  0
  2  1  1  0
  3  2  1  0
  3  4  1  6
  5  3  1  0
  5  6  1  6
  7  5  1  0
  7  8  2  0
  9  7  1  0
 10  9  1  0
 10 11  1  1
 12 11  1  0
 13 12  2  0
 14 10  1  0
 15 14  2  0
 16 12  1  0
 17 14  1  0
 17 21  1  0
 18 17  1  0
 18 19  1  0
 19 20  1  0
 21 20  1  0
 22 24  1  0
 21 22  1  1
 23 22  2  0
M  END
$$$$
