LRQ.pdb
     RDKit          3D

 29 28  0  0  1  0  0  0  0  0999 V2000
    5.6667  -12.3588   26.5035 C   0  0  0  0  0  0  0  0  0  0  0  0
    6.7462  -13.2283   27.1214 C   0  0  2  0  0  0  0  0  0  0  0  0
    7.6451  -12.4211   28.0230 C   0  0  0  0  0  0  0  0  0  0  0  0
    7.5382  -13.9529   26.0519 C   0  0  0  0  0  0  0  0  0  0  0  0
    6.6534  -14.8185   25.2108 C   0  0  2  0  0  0  0  0  0  0  0  0
    5.9828  -15.8631   25.9443 N   0  0  0  0  0  0  0  0  0  0  0  0
    7.4291  -15.3585   24.0562 C   0  0  0  0  0  0  0  0  0  0  0  0
    7.8063  -16.5578   24.0690 O   0  0  0  0  0  0  0  0  0  0  0  0
    7.3068  -15.2915   17.1687 N   0  0  0  0  0  0  0  0  0  0  0  0
    8.1097  -14.1074   17.0269 C   0  0  0  0  0  0  0  0  0  0  0  0
    8.9396  -13.9836   16.0520 N   0  0  0  0  0  0  0  0  0  0  0  0
    7.9608  -13.0799   17.9934 N   0  0  0  0  0  0  0  0  0  0  0  0
    6.9912  -13.1262   19.0503 C   0  0  0  0  0  0  0  0  0  0  0  0
    7.2672  -14.3424   19.9131 C   0  0  0  0  0  0  0  0  0  0  0  0
    8.5360  -14.2268   20.7002 C   0  0  0  0  0  0  0  0  0  0  0  0
    8.6521  -15.1519   21.8845 C   0  0  2  0  0  0  0  0  0  0  0  0
    7.7668  -14.5845   22.9353 N   0  0  0  0  0  0  0  0  0  0  0  0
   10.0073  -15.1565   22.4754 C   0  0  0  0  0  0  0  0  0  0  0  0
   10.3318  -14.2667   23.3276 O   0  0  0  0  0  0  0  0  0  0  0  0
    9.5200  -13.1300   15.9525 N   0  0  0  0  0  0  0  0  0  0  0  0
   10.0265  -18.0471   26.6995 C   0  0  0  0  0  0  0  0  0  0  0  0
   11.4010  -17.7427   26.7605 O   0  0  0  0  0  0  0  0  0  0  0  0
   11.9950  -17.8548   27.8663 C   0  0  0  0  0  0  0  0  0  0  0  0
   12.1295  -17.3091   25.5567 C   0  0  0  0  0  0  0  0  0  0  0  0
   11.2743  -16.8787   24.4135 C   0  0  2  0  0  0  0  0  0  0  0  0
   11.9814  -16.5452   23.1486 N   0  0  0  0  0  0  0  0  0  0  0  0
   10.9766  -16.1329   22.1275 C   0  0  0  0  0  0  0  0  0  0  0  0
   12.9391  -17.4481   22.5694 O   0  0  0  0  0  0  0  0  0  0  0  0
   14.1004  -17.7687   23.2924 O   0  0  0  0  0  0  0  0  0  0  0  0
  2  1  1  6
  2  3  1  0
  2  4  1  0
  5  4  1  0
  5  6  1  1
  7  8  2  0
  7  5  1  0
 10  9  1  0
 10 12  1  0
 11 10  2  0
 12 13  1  0
 13 14  1  0
 14 15  1  0
 16 15  1  6
 16 17  1  0
 17  7  1  0
 18 16  1  0
 18 19  2  0
 20 21  1  0
 21 23  1  0
 21 22  2  0
 23 24  1  0
 25 24  1  1
 25 26  1  0
 25 27  1  0
 26 18  1  0
 27 29  2  0
 27 28  1  0
M  END
$$$$
