LRQ.pdb
     RDKit          3D

 29 28  0  0  1  0  0  0  0  0999 V2000
    7.2539  -11.1697   26.4928 C   0  0  0  0  0  0  0  0  0  0  0  0
    6.1215  -12.1621   26.3036 C   0  0  2  0  0  0  0  0  0  0  0  0
    5.1604  -12.1187   27.4641 C   0  0  0  0  0  0  0  0  0  0  0  0
    6.6578  -13.5615   26.0787 C   0  0  0  0  0  0  0  0  0  0  0  0
    7.7251  -13.5743   25.0298 C   0  0  2  0  0  0  0  0  0  0  0  0
    7.4234  -12.7674   23.8735 N   0  0  0  0  0  0  0  0  0  0  0  0
    8.0470  -14.9828   24.6574 C   0  0  0  0  0  0  0  0  0  0  0  0
    8.0241  -15.8783   25.5396 O   0  0  0  0  0  0  0  0  0  0  0  0
    7.6773  -14.7105   17.1522 N   0  0  0  0  0  0  0  0  0  0  0  0
    8.8297  -14.0989   17.7560 C   0  0  0  0  0  0  0  0  0  0  0  0
    9.0992  -12.8567   17.5587 N   0  0  0  0  0  0  0  0  0  0  0  0
    9.6614  -14.9048   18.5750 N   0  0  0  0  0  0  0  0  0  0  0  0
    9.1908  -16.0644   19.2771 C   0  0  0  0  0  0  0  0  0  0  0  0
    9.2177  -15.7779   20.7661 C   0  0  0  0  0  0  0  0  0  0  0  0
    8.7748  -16.9439   21.5952 C   0  0  0  0  0  0  0  0  0  0  0  0
    8.8629  -16.7503   23.0873 C   0  0  2  0  0  0  0  0  0  0  0  0
    8.3805  -15.3689   23.3500 N   0  0  0  0  0  0  0  0  0  0  0  0
   10.2542  -16.7803   23.5864 C   0  0  0  0  0  0  0  0  0  0  0  0
   10.9452  -15.7101   23.6061 O   0  0  0  0  0  0  0  0  0  0  0  0
    9.9514  -12.4262   17.9636 N   0  0  0  0  0  0  0  0  0  0  0  0
    9.2096  -16.6500   28.8141 C   0  0  0  0  0  0  0  0  0  0  0  0
   10.5978  -16.4258   28.7221 O   0  0  0  0  0  0  0  0  0  0  0  0
   11.1291  -15.6010   29.5129 C   0  0  0  0  0  0  0  0  0  0  0  0
   11.4115  -17.1447   27.7277 C   0  0  0  0  0  0  0  0  0  0  0  0
   10.7915  -17.2886   26.3792 C   0  0  2  0  0  0  0  0  0  0  0  0
   11.6265  -17.9382   25.3342 N   0  0  0  0  0  0  0  0  0  0  0  0
   10.8595  -17.9746   24.0565 C   0  0  0  0  0  0  0  0  0  0  0  0
   12.2630  -19.2060   25.5700 O   0  0  0  0  0  0  0  0  0  0  0  0
   13.5079  -19.2352   26.2206 O   0  0  0  0  0  0  0  0  0  0  0  0
  2  1  1  1
  2  3  1  0
  2  4  1  0
  5  4  1  0
  5  6  1  6
  7  8  2  0
  7  5  1  0
 10  9  1  0
 10 12  1  0
 11 10  2  0
 12 13  1  0
 13 14  1  0
 14 15  1  0
 16 15  1  6
 16 17  1  0
 17  7  1  0
 18 16  1  0
 18 19  2  0
 20 21  1  0
 21 23  1  0
 21 22  2  0
 23 24  1  0
 25 24  1  6
 25 26  1  0
 25 27  1  0
 26 18  1  0
 27 29  2  0
 27 28  1  0
M  END
$$$$
