LRQ.pdb
     RDKit          3D

 29 28  0  0  1  0  0  0  0  0999 V2000
    7.1675  -11.1842   27.3841 C   0  0  0  0  0  0  0  0  0  0  0  0
    6.1777  -11.5513   26.2939 C   0  0  2  0  0  0  0  0  0  0  0  0
    4.7800  -11.1221   26.6611 C   0  0  0  0  0  0  0  0  0  0  0  0
    6.2395  -13.0326   25.9806 C   0  0  0  0  0  0  0  0  0  0  0  0
    7.6543  -13.5110   25.8851 C   0  0  2  0  0  0  0  0  0  0  0  0
    8.6310  -12.4519   25.8279 N   0  0  0  0  0  0  0  0  0  0  0  0
    7.7891  -14.4555   24.7379 C   0  0  0  0  0  0  0  0  0  0  0  0
    7.0573  -15.4765   24.6858 O   0  0  0  0  0  0  0  0  0  0  0  0
    8.0125  -13.0377   16.8558 N   0  0  0  0  0  0  0  0  0  0  0  0
    8.7577  -14.1584   17.3613 C   0  0  0  0  0  0  0  0  0  0  0  0
    9.5619  -14.8149   16.6018 N   0  0  0  0  0  0  0  0  0  0  0  0
    8.5802  -14.5197   18.7214 N   0  0  0  0  0  0  0  0  0  0  0  0
    7.4973  -14.0378   19.5302 C   0  0  0  0  0  0  0  0  0  0  0  0
    8.0383  -13.6593   20.8954 C   0  0  0  0  0  0  0  0  0  0  0  0
    9.1367  -14.5642   21.3618 C   0  0  0  0  0  0  0  0  0  0  0  0
    8.8667  -15.3044   22.6467 C   0  0  2  0  0  0  0  0  0  0  0  0
    8.7068  -14.2614   23.6940 N   0  0  0  0  0  0  0  0  0  0  0  0
   10.0149  -16.1261   23.0851 C   0  0  0  0  0  0  0  0  0  0  0  0
   10.9818  -15.5832   23.7126 O   0  0  0  0  0  0  0  0  0  0  0  0
   10.0402  -15.6687   16.9450 N   0  0  0  0  0  0  0  0  0  0  0  0
   10.0362  -21.2884   26.1684 C   0  0  0  0  0  0  0  0  0  0  0  0
   11.3853  -21.2573   25.7627 O   0  0  0  0  0  0  0  0  0  0  0  0
   12.1779  -22.1139   26.2382 C   0  0  0  0  0  0  0  0  0  0  0  0
   11.8577  -20.2497   24.7987 C   0  0  0  0  0  0  0  0  0  0  0  0
   10.8118  -19.3208   24.2821 C   0  0  1  0  0  0  0  0  0  0  0  0
   11.2671  -18.2839   23.3184 N   0  0  0  0  0  0  0  0  0  0  0  0
   10.0816  -17.5211   22.8336 C   0  0  0  0  0  0  0  0  0  0  0  0
   12.1300  -18.6170   22.2173 O   0  0  0  0  0  0  0  0  0  0  0  0
   13.5159  -18.6953   22.4344 O   0  0  0  0  0  0  0  0  0  0  0  0
  2  1  1  1
  2  3  1  0
  2  4  1  0
  5  4  1  0
  5  6  1  6
  7  8  2  0
  7  5  1  0
 10  9  1  0
 10 12  1  0
 11 10  2  0
 12 13  1  0
 13 14  1  0
 14 15  1  0
 16 15  1  6
 16 17  1  0
 17  7  1  0
 18 16  1  0
 18 19  2  0
 20 21  1  0
 21 23  1  0
 21 22  2  0
 23 24  1  0
 25 24  1  1
 25 26  1  0
 25 27  1  0
 26 18  1  0
 27 29  2  0
 27 28  1  0
M  END
$$$$
