LRQ.pdb
     RDKit          3D

 29 28  0  0  1  0  0  0  0  0999 V2000
    6.2125  -11.6214   25.6536 C   0  0  0  0  0  0  0  0  0  0  0  0
    6.6258  -12.4633   26.8467 C   0  0  2  0  0  0  0  0  0  0  0  0
    7.5545  -11.6996   27.7559 C   0  0  0  0  0  0  0  0  0  0  0  0
    7.2403  -13.7743   26.3994 C   0  0  0  0  0  0  0  0  0  0  0  0
    6.2948  -14.5548   25.5413 C   0  0  2  0  0  0  0  0  0  0  0  0
    5.2108  -15.1683   26.2675 N   0  0  0  0  0  0  0  0  0  0  0  0
    7.0561  -15.5501   24.7313 C   0  0  0  0  0  0  0  0  0  0  0  0
    7.2191  -16.7155   25.1740 O   0  0  0  0  0  0  0  0  0  0  0  0
    7.4975  -18.7268   18.2584 N   0  0  0  0  0  0  0  0  0  0  0  0
    8.7972  -18.4864   17.6931 C   0  0  0  0  0  0  0  0  0  0  0  0
    9.3667  -19.3652   16.9461 N   0  0  0  0  0  0  0  0  0  0  0  0
    9.4340  -17.2526   17.9833 N   0  0  0  0  0  0  0  0  0  0  0  0
    8.8719  -16.2614   18.8557 C   0  0  0  0  0  0  0  0  0  0  0  0
    8.9319  -16.7753   20.2813 C   0  0  0  0  0  0  0  0  0  0  0  0
    8.3237  -15.8300   21.2709 C   0  0  0  0  0  0  0  0  0  0  0  0
    8.2977  -16.3126   22.6986 C   0  0  2  0  0  0  0  0  0  0  0  0
    7.6106  -15.2492   23.4777 N   0  0  0  0  0  0  0  0  0  0  0  0
    9.6484  -16.4202   23.2901 C   0  0  0  0  0  0  0  0  0  0  0  0
   10.1806  -15.4054   23.8471 O   0  0  0  0  0  0  0  0  0  0  0  0
   10.3116  -19.1976   16.5530 N   0  0  0  0  0  0  0  0  0  0  0  0
    9.8363  -18.4377   28.2015 C   0  0  0  0  0  0  0  0  0  0  0  0
   11.2294  -18.5584   28.0272 O   0  0  0  0  0  0  0  0  0  0  0  0
   11.9422  -18.8232   29.0321 C   0  0  0  0  0  0  0  0  0  0  0  0
   11.8388  -18.3853   26.6981 C   0  0  0  0  0  0  0  0  0  0  0  0
   10.8859  -18.0719   25.5948 C   0  0  1  0  0  0  0  0  0  0  0  0
   11.4836  -17.8269   24.2555 N   0  0  0  0  0  0  0  0  0  0  0  0
   10.3866  -17.6319   23.2651 C   0  0  0  0  0  0  0  0  0  0  0  0
   12.4913  -18.7006   23.7176 O   0  0  0  0  0  0  0  0  0  0  0  0
   13.7683  -18.7132   24.3034 O   0  0  0  0  0  0  0  0  0  0  0  0
  2  1  1  6
  2  3  1  0
  2  4  1  0
  5  4  1  0
  5  6  1  1
  7  8  2  0
  7  5  1  0
 10  9  1  0
 10 12  1  0
 11 10  2  0
 12 13  1  0
 13 14  1  0
 14 15  1  0
 16 15  1  6
 16 17  1  0
 17  7  1  0
 18 16  1  0
 18 19  2  0
 20 21  1  0
 21 23  1  0
 21 22  2  0
 23 24  1  0
 25 24  1  1
 25 26  1  0
 25 27  1  0
 26 18  1  0
 27 29  2  0
 27 28  1  0
M  END
$$$$
