LRQ.pdb
     RDKit          3D

 29 28  0  0  1  0  0  0  0  0999 V2000
    9.0082  -12.2290   19.2144 C   0  0  0  0  0  0  0  0  0  0  0  0
    7.8361  -13.1708   19.0088 C   0  0  2  0  0  0  0  0  0  0  0  0
    6.5535  -12.4060   18.8022 C   0  0  0  0  0  0  0  0  0  0  0  0
    7.7191  -14.1512   20.1583 C   0  0  0  0  0  0  0  0  0  0  0  0
    9.0405  -14.3679   20.8265 C   0  0  2  0  0  0  0  0  0  0  0  0
   10.0314  -14.9893   19.9833 N   0  0  0  0  0  0  0  0  0  0  0  0
    8.8424  -15.1197   22.1000 C   0  0  0  0  0  0  0  0  0  0  0  0
    7.8945  -14.8065   22.8642 O   0  0  0  0  0  0  0  0  0  0  0  0
   10.3215  -23.3044   22.8799 N   0  0  0  0  0  0  0  0  0  0  0  0
    9.6561  -22.6357   21.7952 C   0  0  0  0  0  0  0  0  0  0  0  0
    8.7021  -23.2088   21.1502 N   0  0  0  0  0  0  0  0  0  0  0  0
   10.0820  -21.3259   21.4562 N   0  0  0  0  0  0  0  0  0  0  0  0
   10.6362  -20.4061   22.4081 C   0  0  0  0  0  0  0  0  0  0  0  0
    9.6705  -19.2511   22.5903 C   0  0  0  0  0  0  0  0  0  0  0  0
   10.1398  -18.2485   23.5990 C   0  0  0  0  0  0  0  0  0  0  0  0
    9.3182  -16.9884   23.6928 C   0  0  2  0  0  0  0  0  0  0  0  0
    9.6737  -16.1781   22.4981 N   0  0  0  0  0  0  0  0  0  0  0  0
    9.6848  -16.1523   24.8556 C   0  0  0  0  0  0  0  0  0  0  0  0
   10.8361  -15.6092   24.9099 O   0  0  0  0  0  0  0  0  0  0  0  0
    8.1993  -22.7122   20.3912 N   0  0  0  0  0  0  0  0  0  0  0  0
    6.2592  -12.0705   27.8457 C   0  0  0  0  0  0  0  0  0  0  0  0
    6.5971  -12.3637   26.5094 O   0  0  0  0  0  0  0  0  0  0  0  0
    6.0160  -11.7306   25.5876 C   0  0  0  0  0  0  0  0  0  0  0  0
    7.6123  -13.3832   26.1966 C   0  0  0  0  0  0  0  0  0  0  0  0
    8.2171  -14.0649   27.3768 C   0  0  2  0  0  0  0  0  0  0  0  0
    9.2441  -15.1004   27.0868 N   0  0  0  0  0  0  0  0  0  0  0  0
    8.7874  -15.9235   25.9309 C   0  0  0  0  0  0  0  0  0  0  0  0
    9.7640  -15.9467   28.1268 O   0  0  0  0  0  0  0  0  0  0  0  0
   10.4897  -15.3668   29.1809 O   0  0  0  0  0  0  0  0  0  0  0  0
  2  1  1  1
  2  3  1  0
  2  4  1  0
  5  4  1  0
  5  6  1  6
  7  8  2  0
  7  5  1  0
 10  9  1  0
 10 12  1  0
 11 10  2  0
 12 13  1  0
 13 14  1  0
 14 15  1  0
 16 15  1  1
 16 17  1  0
 17  7  1  0
 18 16  1  0
 18 19  2  0
 20 21  1  0
 21 23  1  0
 21 22  2  0
 23 24  1  0
 25 24  1  6
 25 26  1  0
 25 27  1  0
 26 18  1  0
 27 29  2  0
 27 28  1  0
M  END
$$$$
