LRQ.pdb
     RDKit          3D

 29 28  0  0  1  0  0  0  0  0999 V2000
    6.1440  -11.8470   25.1020 C   0  0  0  0  0  0  0  0  0  0  0  0
    6.5204  -12.5813   26.3756 C   0  0  2  0  0  0  0  0  0  0  0  0
    7.1443  -11.6453   27.3792 C   0  0  0  0  0  0  0  0  0  0  0  0
    7.4265  -13.7585   26.0762 C   0  0  0  0  0  0  0  0  0  0  0  0
    6.7847  -14.7097   25.1154 C   0  0  2  0  0  0  0  0  0  0  0  0
    5.6059  -15.3606   25.6307 N   0  0  0  0  0  0  0  0  0  0  0  0
    7.7967  -15.6929   24.6301 C   0  0  0  0  0  0  0  0  0  0  0  0
    7.8652  -16.8282   25.1662 O   0  0  0  0  0  0  0  0  0  0  0  0
    7.8852  -20.3329   19.5236 N   0  0  0  0  0  0  0  0  0  0  0  0
    7.3131  -19.1338   18.9746 C   0  0  0  0  0  0  0  0  0  0  0  0
    6.3820  -19.1903   18.0889 N   0  0  0  0  0  0  0  0  0  0  0  0
    7.8052  -17.8865   19.4372 N   0  0  0  0  0  0  0  0  0  0  0  0
    8.8741  -17.7639   20.3868 C   0  0  0  0  0  0  0  0  0  0  0  0
    9.0787  -16.2953   20.7048 C   0  0  0  0  0  0  0  0  0  0  0  0
   10.1047  -16.0640   21.7710 C   0  0  0  0  0  0  0  0  0  0  0  0
    9.6843  -16.4390   23.1690 C   0  0  2  0  0  0  0  0  0  0  0  0
    8.6933  -15.4130   23.5874 N   0  0  0  0  0  0  0  0  0  0  0  0
   10.7898  -16.3361   24.1452 C   0  0  0  0  0  0  0  0  0  0  0  0
   11.0173  -15.2287   24.7329 O   0  0  0  0  0  0  0  0  0  0  0  0
    6.0412  -18.3307   17.6194 N   0  0  0  0  0  0  0  0  0  0  0  0
   10.9230  -15.1362   29.4768 C   0  0  0  0  0  0  0  0  0  0  0  0
   11.0003  -16.5264   29.2597 O   0  0  0  0  0  0  0  0  0  0  0  0
   10.2749  -17.2867   29.9553 C   0  0  0  0  0  0  0  0  0  0  0  0
   11.9045  -17.0788   28.2373 C   0  0  0  0  0  0  0  0  0  0  0  0
   11.3796  -17.0566   26.8418 C   0  0  1  0  0  0  0  0  0  0  0  0
   12.3313  -17.4572   25.7718 N   0  0  0  0  0  0  0  0  0  0  0  0
   11.6196  -17.4428   24.4620 C   0  0  0  0  0  0  0  0  0  0  0  0
   13.1305  -18.6466   25.8919 O   0  0  0  0  0  0  0  0  0  0  0  0
   14.4424  -18.5417   26.3839 O   0  0  0  0  0  0  0  0  0  0  0  0
  2  1  1  6
  2  3  1  0
  2  4  1  0
  5  4  1  0
  5  6  1  1
  7  8  2  0
  7  5  1  0
 10  9  1  0
 10 12  1  0
 11 10  2  0
 12 13  1  0
 13 14  1  0
 14 15  1  0
 16 15  1  6
 16 17  1  0
 17  7  1  0
 18 16  1  0
 18 19  2  0
 20 21  1  0
 21 23  1  0
 21 22  2  0
 23 24  1  0
 25 24  1  6
 25 26  1  0
 25 27  1  0
 26 18  1  0
 27 29  2  0
 27 28  1  0
M  END
$$$$
