LRQ.pdb
     RDKit          3D

 29 28  0  0  1  0  0  0  0  0999 V2000
    8.9783  -12.8825   19.2416 C   0  0  0  0  0  0  0  0  0  0  0  0
    7.5917  -13.4764   19.0752 C   0  0  2  0  0  0  0  0  0  0  0  0
    6.5975  -12.4261   18.6500 C   0  0  0  0  0  0  0  0  0  0  0  0
    7.1476  -14.1817   20.3407 C   0  0  0  0  0  0  0  0  0  0  0  0
    8.1969  -15.1276   20.8346 C   0  0  2  0  0  0  0  0  0  0  0  0
    8.6876  -16.0385   19.8304 N   0  0  0  0  0  0  0  0  0  0  0  0
    7.6968  -15.8468   22.0424 C   0  0  0  0  0  0  0  0  0  0  0  0
    7.1306  -15.1997   22.9597 O   0  0  0  0  0  0  0  0  0  0  0  0
    3.6225  -22.2208   24.0048 N   0  0  0  0  0  0  0  0  0  0  0  0
    4.5715  -22.7834   24.9266 C   0  0  0  0  0  0  0  0  0  0  0  0
    4.1858  -23.5336   25.8977 N   0  0  0  0  0  0  0  0  0  0  0  0
    5.9453  -22.4869   24.7348 N   0  0  0  0  0  0  0  0  0  0  0  0
    6.4373  -21.7053   23.6365 C   0  0  0  0  0  0  0  0  0  0  0  0
    6.5281  -20.2553   24.0713 C   0  0  0  0  0  0  0  0  0  0  0  0
    7.0290  -19.3493   22.9890 C   0  0  0  0  0  0  0  0  0  0  0  0
    7.1813  -17.9001   23.3741 C   0  0  2  0  0  0  0  0  0  0  0  0
    7.8272  -17.2338   22.2127 N   0  0  0  0  0  0  0  0  0  0  0  0
    8.1128  -17.7042   24.5053 C   0  0  0  0  0  0  0  0  0  0  0  0
    9.3539  -17.9508   24.3562 O   0  0  0  0  0  0  0  0  0  0  0  0
    4.8639  -23.8896   26.5969 N   0  0  0  0  0  0  0  0  0  0  0  0
    9.4076  -12.6509   26.9335 C   0  0  0  0  0  0  0  0  0  0  0  0
    8.0816  -13.1088   26.8005 O   0  0  0  0  0  0  0  0  0  0  0  0
    7.1605  -12.2590   26.6681 C   0  0  0  0  0  0  0  0  0  0  0  0
    7.7791  -14.5497   26.8094 C   0  0  0  0  0  0  0  0  0  0  0  0
    8.9660  -15.4514   26.7696 C   0  0  1  0  0  0  0  0  0  0  0  0
    8.6879  -16.9116   26.8117 N   0  0  0  0  0  0  0  0  0  0  0  0
    7.6717  -17.2401   25.7717 C   0  0  0  0  0  0  0  0  0  0  0  0
    8.3688  -17.5744   28.0474 O   0  0  0  0  0  0  0  0  0  0  0  0
    7.2368  -18.4046   28.1051 O   0  0  0  0  0  0  0  0  0  0  0  0
  2  1  1  1
  2  3  1  0
  2  4  1  0
  5  4  1  0
  5  6  1  6
  7  8  2  0
  7  5  1  0
 10  9  1  0
 10 12  1  0
 11 10  2  0
 12 13  1  0
 13 14  1  0
 14 15  1  0
 16 15  1  6
 16 17  1  0
 17  7  1  0
 18 16  1  0
 18 19  2  0
 20 21  1  0
 21 23  1  0
 21 22  2  0
 23 24  1  0
 25 24  1  6
 25 26  1  0
 25 27  1  0
 26 18  1  0
 27 29  2  0
 27 28  1  0
M  END
$$$$
