LRQ.pdb
     RDKit          3D

 29 28  0  0  1  0  0  0  0  0999 V2000
    9.5198  -13.4846   19.3262 C   0  0  0  0  0  0  0  0  0  0  0  0
    8.0252  -13.2256   19.2784 C   0  0  2  0  0  0  0  0  0  0  0  0
    7.7290  -11.7476   19.2775 C   0  0  0  0  0  0  0  0  0  0  0  0
    7.3148  -13.9337   20.4143 C   0  0  0  0  0  0  0  0  0  0  0  0
    7.6826  -15.3834   20.4679 C   0  0  2  0  0  0  0  0  0  0  0  0
    7.0674  -16.1849   19.4392 N   0  0  0  0  0  0  0  0  0  0  0  0
    7.4078  -15.9215   21.8321 C   0  0  0  0  0  0  0  0  0  0  0  0
    6.2209  -16.0062   22.2381 O   0  0  0  0  0  0  0  0  0  0  0  0
    7.0414  -22.2270   26.3800 N   0  0  0  0  0  0  0  0  0  0  0  0
    7.2918  -21.3157   27.4633 C   0  0  0  0  0  0  0  0  0  0  0  0
    7.4681  -21.7461   28.6626 N   0  0  0  0  0  0  0  0  0  0  0  0
    7.3381  -19.9283   27.1718 N   0  0  0  0  0  0  0  0  0  0  0  0
    7.2834  -19.4007   25.8385 C   0  0  0  0  0  0  0  0  0  0  0  0
    8.6696  -18.9302   25.4423 C   0  0  0  0  0  0  0  0  0  0  0  0
    8.7017  -18.2661   24.1004 C   0  0  0  0  0  0  0  0  0  0  0  0
    8.0692  -16.8995   24.0369 C   0  0  2  0  0  0  0  0  0  0  0  0
    8.4229  -16.3463   22.7031 N   0  0  0  0  0  0  0  0  0  0  0  0
    8.6472  -15.9560   25.0175 C   0  0  0  0  0  0  0  0  0  0  0  0
    9.8231  -15.4981   24.8415 O   0  0  0  0  0  0  0  0  0  0  0  0
    7.5913  -21.0853   29.4524 N   0  0  0  0  0  0  0  0  0  0  0  0
    5.9129  -11.4151   28.0078 C   0  0  0  0  0  0  0  0  0  0  0  0
    6.4903  -11.5006   26.7253 O   0  0  0  0  0  0  0  0  0  0  0  0
    6.2279  -10.5993   25.8844 C   0  0  0  0  0  0  0  0  0  0  0  0
    7.3866  -12.6155   26.3768 C   0  0  0  0  0  0  0  0  0  0  0  0
    7.7494  -13.5197   27.5057 C   0  0  2  0  0  0  0  0  0  0  0  0
    8.6227  -14.6759   27.1714 N   0  0  0  0  0  0  0  0  0  0  0  0
    7.9296  -15.5299   26.1652 C   0  0  0  0  0  0  0  0  0  0  0  0
    9.2054  -15.4925   28.2017 O   0  0  0  0  0  0  0  0  0  0  0  0
    8.9258  -16.8692   28.2225 O   0  0  0  0  0  0  0  0  0  0  0  0
  2  1  1  1
  2  3  1  0
  2  4  1  0
  5  4  1  0
  5  6  1  6
  7  8  2  0
  7  5  1  0
 10  9  1  0
 10 12  1  0
 11 10  2  0
 12 13  1  0
 13 14  1  0
 14 15  1  0
 16 15  1  1
 16 17  1  0
 17  7  1  0
 18 16  1  0
 18 19  2  0
 20 21  1  0
 21 23  1  0
 21 22  2  0
 23 24  1  0
 25 24  1  6
 25 26  1  0
 25 27  1  0
 26 18  1  0
 27 29  2  0
 27 28  1  0
M  END
$$$$
