LRQ.pdb
     RDKit          3D

 29 28  0  0  1  0  0  0  0  0999 V2000
    5.9532  -12.6013   26.8422 C   0  0  0  0  0  0  0  0  0  0  0  0
    6.9652  -13.4167   27.6258 C   0  0  2  0  0  0  0  0  0  0  0  0
    7.9726  -12.5252   28.3062 C   0  0  0  0  0  0  0  0  0  0  0  0
    7.6411  -14.4419   26.7378 C   0  0  0  0  0  0  0  0  0  0  0  0
    6.6369  -15.2906   26.0230 C   0  0  2  0  0  0  0  0  0  0  0  0
    6.2232  -16.4590   26.7595 N   0  0  0  0  0  0  0  0  0  0  0  0
    7.1494  -15.6402   24.6660 C   0  0  0  0  0  0  0  0  0  0  0  0
    7.5751  -16.8022   24.4441 O   0  0  0  0  0  0  0  0  0  0  0  0
    9.1028  -12.5872   18.0193 N   0  0  0  0  0  0  0  0  0  0  0  0
    8.7558  -13.6929   17.1685 C   0  0  0  0  0  0  0  0  0  0  0  0
    9.3334  -13.8593   16.0312 N   0  0  0  0  0  0  0  0  0  0  0  0
    7.7578  -14.5946   17.6188 N   0  0  0  0  0  0  0  0  0  0  0  0
    7.0148  -14.4064   18.8319 C   0  0  0  0  0  0  0  0  0  0  0  0
    7.9880  -14.1418   19.9645 C   0  0  0  0  0  0  0  0  0  0  0  0
    7.3238  -14.0804   21.3054 C   0  0  0  0  0  0  0  0  0  0  0  0
    7.7631  -15.1278   22.2962 C   0  0  2  0  0  0  0  0  0  0  0  0
    7.1823  -14.7237   23.6036 N   0  0  0  0  0  0  0  0  0  0  0  0
    9.2267  -15.1389   22.5050 C   0  0  0  0  0  0  0  0  0  0  0  0
    9.7175  -14.6786   23.5869 O   0  0  0  0  0  0  0  0  0  0  0  0
    9.0558  -14.6355   15.4020 N   0  0  0  0  0  0  0  0  0  0  0  0
   10.6958  -18.8017   25.4100 C   0  0  0  0  0  0  0  0  0  0  0  0
   11.6668  -17.7857   25.5136 O   0  0  0  0  0  0  0  0  0  0  0  0
   12.2861  -17.6522   26.6031 C   0  0  0  0  0  0  0  0  0  0  0  0
   11.9567  -16.9030   24.3714 C   0  0  0  0  0  0  0  0  0  0  0  0
   11.1337  -17.1460   23.1520 C   0  0  2  0  0  0  0  0  0  0  0  0
   11.4046  -16.2640   21.9858 N   0  0  0  0  0  0  0  0  0  0  0  0
   10.1218  -15.6550   21.5322 C   0  0  0  0  0  0  0  0  0  0  0  0
   12.1607  -16.7331   20.8560 O   0  0  0  0  0  0  0  0  0  0  0  0
   13.5618  -16.6315   20.8816 O   0  0  0  0  0  0  0  0  0  0  0  0
  2  1  1  6
  2  3  1  0
  2  4  1  0
  5  4  1  0
  5  6  1  1
  7  8  2  0
  7  5  1  0
 10  9  1  0
 10 12  1  0
 11 10  2  0
 12 13  1  0
 13 14  1  0
 14 15  1  0
 16 15  1  6
 16 17  1  0
 17  7  1  0
 18 16  1  0
 18 19  2  0
 20 21  1  0
 21 23  1  0
 21 22  2  0
 23 24  1  0
 25 24  1  1
 25 26  1  0
 25 27  1  0
 26 18  1  0
 27 29  2  0
 27 28  1  0
M  END
$$$$
