LRQ.pdb
     RDKit          3D

 29 28  0  0  1  0  0  0  0  0999 V2000
    9.0745  -12.0217   19.6889 C   0  0  0  0  0  0  0  0  0  0  0  0
    7.9940  -12.9828   19.2285 C   0  0  2  0  0  0  0  0  0  0  0  0
    6.6350  -12.3316   19.2649 C   0  0  0  0  0  0  0  0  0  0  0  0
    8.0200  -14.2599   20.0438 C   0  0  0  0  0  0  0  0  0  0  0  0
    9.4157  -14.6235   20.4430 C   0  0  2  0  0  0  0  0  0  0  0  0
   10.2886  -14.9139   19.3327 N   0  0  0  0  0  0  0  0  0  0  0  0
    9.3808  -15.7411   21.4310 C   0  0  0  0  0  0  0  0  0  0  0  0
    8.5455  -15.7128   22.3703 O   0  0  0  0  0  0  0  0  0  0  0  0
   12.3139  -24.0375   23.1646 N   0  0  0  0  0  0  0  0  0  0  0  0
   11.1969  -23.6844   22.3315 C   0  0  0  0  0  0  0  0  0  0  0  0
   10.2917  -24.5495   22.0367 N   0  0  0  0  0  0  0  0  0  0  0  0
   11.1218  -22.3547   21.8432 N   0  0  0  0  0  0  0  0  0  0  0  0
   12.0272  -21.3158   22.2433 C   0  0  0  0  0  0  0  0  0  0  0  0
   11.2274  -20.1750   22.8421 C   0  0  0  0  0  0  0  0  0  0  0  0
   10.9683  -19.0667   21.8687 C   0  0  0  0  0  0  0  0  0  0  0  0
   10.1709  -17.9052   22.4043 C   0  0  2  0  0  0  0  0  0  0  0  0
   10.2473  -16.8432   21.3668 N   0  0  0  0  0  0  0  0  0  0  0  0
   10.7714  -17.3107   23.6175 C   0  0  0  0  0  0  0  0  0  0  0  0
   11.9117  -16.7461   23.5506 O   0  0  0  0  0  0  0  0  0  0  0  0
    9.4579  -24.2795   21.4824 N   0  0  0  0  0  0  0  0  0  0  0  0
    8.3093  -13.5086   27.6042 C   0  0  0  0  0  0  0  0  0  0  0  0
    9.4199  -13.9332   28.3605 O   0  0  0  0  0  0  0  0  0  0  0  0
    9.6280  -13.3950   29.4809 C   0  0  0  0  0  0  0  0  0  0  0  0
   10.3147  -14.9879   27.8558 C   0  0  0  0  0  0  0  0  0  0  0  0
    9.8522  -15.6790   26.6181 C   0  0  1  0  0  0  0  0  0  0  0  0
   10.7730  -16.6975   26.0470 N   0  0  0  0  0  0  0  0  0  0  0  0
   10.1143  -17.3413   24.8748 C   0  0  0  0  0  0  0  0  0  0  0  0
   11.3924  -17.6929   26.8797 O   0  0  0  0  0  0  0  0  0  0  0  0
   10.7393  -18.9211   27.0775 O   0  0  0  0  0  0  0  0  0  0  0  0
  2  1  1  1
  2  3  1  0
  2  4  1  0
  5  4  1  0
  5  6  1  6
  7  8  2  0
  7  5  1  0
 10  9  1  0
 10 12  1  0
 11 10  2  0
 12 13  1  0
 13 14  1  0
 14 15  1  0
 16 15  1  6
 16 17  1  0
 17  7  1  0
 18 16  1  0
 18 19  2  0
 20 21  1  0
 21 23  1  0
 21 22  2  0
 23 24  1  0
 25 24  1  6
 25 26  1  0
 25 27  1  0
 26 18  1  0
 27 29  2  0
 27 28  1  0
M  END
$$$$
