LRQ.pdb
     RDKit          3D

 29 28  0  0  1  0  0  0  0  0999 V2000
    6.0035  -12.4906   26.1702 C   0  0  0  0  0  0  0  0  0  0  0  0
    6.7572  -13.3315   27.1840 C   0  0  2  0  0  0  0  0  0  0  0  0
    7.7904  -12.5099   27.9118 C   0  0  0  0  0  0  0  0  0  0  0  0
    7.3772  -14.5481   26.5269 C   0  0  0  0  0  0  0  0  0  0  0  0
    6.4070  -15.2276   25.6122 C   0  0  2  0  0  0  0  0  0  0  0  0
    5.7304  -16.3547   26.2045 N   0  0  0  0  0  0  0  0  0  0  0  0
    7.0905  -15.5950   24.3379 C   0  0  0  0  0  0  0  0  0  0  0  0
    7.4940  -16.7736   24.1679 O   0  0  0  0  0  0  0  0  0  0  0  0
    6.9841  -14.9836   17.7292 N   0  0  0  0  0  0  0  0  0  0  0  0
    8.0965  -14.4484   16.9924 C   0  0  0  0  0  0  0  0  0  0  0  0
    8.3718  -14.8720   15.8094 N   0  0  0  0  0  0  0  0  0  0  0  0
    8.8820  -13.4402   17.6075 N   0  0  0  0  0  0  0  0  0  0  0  0
    8.6157  -12.9244   18.9199 C   0  0  0  0  0  0  0  0  0  0  0  0
    8.8801  -14.0176   19.9371 C   0  0  0  0  0  0  0  0  0  0  0  0
    7.9414  -13.9725   21.1032 C   0  0  0  0  0  0  0  0  0  0  0  0
    8.0958  -15.0883   22.1046 C   0  0  2  0  0  0  0  0  0  0  0  0
    7.3113  -14.6779   23.2988 N   0  0  0  0  0  0  0  0  0  0  0  0
    9.4866  -15.2386   22.5830 C   0  0  0  0  0  0  0  0  0  0  0  0
   10.0171  -14.3223   23.2918 O   0  0  0  0  0  0  0  0  0  0  0  0
    9.1061  -14.4142   15.2378 N   0  0  0  0  0  0  0  0  0  0  0  0
   11.7326  -19.7093   25.6858 C   0  0  0  0  0  0  0  0  0  0  0  0
   11.0281  -18.5344   26.0161 O   0  0  0  0  0  0  0  0  0  0  0  0
   10.4404  -18.4764   27.1293 C   0  0  0  0  0  0  0  0  0  0  0  0
   10.9850  -17.3961   25.0833 C   0  0  0  0  0  0  0  0  0  0  0  0
   11.7169  -17.5947   23.7994 C   0  0  2  0  0  0  0  0  0  0  0  0
   11.6525  -16.4756   22.8225 N   0  0  0  0  0  0  0  0  0  0  0  0
   10.2662  -16.3854   22.2817 C   0  0  0  0  0  0  0  0  0  0  0  0
   12.6117  -16.3596   21.7573 O   0  0  0  0  0  0  0  0  0  0  0  0
   12.1586  -16.3527   20.4274 O   0  0  0  0  0  0  0  0  0  0  0  0
  2  1  1  6
  2  3  1  0
  2  4  1  0
  5  4  1  0
  5  6  1  1
  7  8  2  0
  7  5  1  0
 10  9  1  0
 10 12  1  0
 11 10  2  0
 12 13  1  0
 13 14  1  0
 14 15  1  0
 16 15  1  6
 16 17  1  0
 17  7  1  0
 18 16  1  0
 18 19  2  0
 20 21  1  0
 21 23  1  0
 21 22  2  0
 23 24  1  0
 25 24  1  1
 25 26  1  0
 25 27  1  0
 26 18  1  0
 27 29  2  0
 27 28  1  0
M  END
$$$$
