LRQ.pdb
     RDKit          3D

 29 28  0  0  1  0  0  0  0  0999 V2000
    7.7573  -12.5295   27.3313 C   0  0  0  0  0  0  0  0  0  0  0  0
    6.6875  -12.6185   26.2585 C   0  0  2  0  0  0  0  0  0  0  0  0
    5.7316  -11.4562   26.3457 C   0  0  0  0  0  0  0  0  0  0  0  0
    5.9574  -13.9445   26.3284 C   0  0  0  0  0  0  0  0  0  0  0  0
    6.9041  -15.0958   26.1946 C   0  0  2  0  0  0  0  0  0  0  0  0
    8.0968  -14.9730   26.9955 N   0  0  0  0  0  0  0  0  0  0  0  0
    7.2212  -15.3209   24.7541 C   0  0  0  0  0  0  0  0  0  0  0  0
    6.3587  -15.8437   24.0034 O   0  0  0  0  0  0  0  0  0  0  0  0
    8.4330  -12.7939   17.5815 N   0  0  0  0  0  0  0  0  0  0  0  0
    8.0402  -14.1343   17.2415 C   0  0  0  0  0  0  0  0  0  0  0  0
    7.5862  -14.4140   16.0710 N   0  0  0  0  0  0  0  0  0  0  0  0
    8.1672  -15.1396   18.2342 N   0  0  0  0  0  0  0  0  0  0  0  0
    7.6108  -15.0212   19.5516 C   0  0  0  0  0  0  0  0  0  0  0  0
    8.6441  -14.3873   20.4628 C   0  0  0  0  0  0  0  0  0  0  0  0
    8.2054  -14.3266   21.8935 C   0  0  0  0  0  0  0  0  0  0  0  0
    8.7697  -15.3974   22.7917 C   0  0  2  0  0  0  0  0  0  0  0  0
    8.4545  -14.9738   24.1814 N   0  0  0  0  0  0  0  0  0  0  0  0
   10.2449  -15.4748   22.7315 C   0  0  0  0  0  0  0  0  0  0  0  0
   10.9521  -14.6497   23.3965 O   0  0  0  0  0  0  0  0  0  0  0  0
    7.3531  -15.3902   15.8098 N   0  0  0  0  0  0  0  0  0  0  0  0
    9.9217  -19.4885   25.8927 C   0  0  0  0  0  0  0  0  0  0  0  0
   11.3277  -19.4784   25.7989 O   0  0  0  0  0  0  0  0  0  0  0  0
   11.9997  -19.9366   26.7615 C   0  0  0  0  0  0  0  0  0  0  0  0
   11.9977  -18.9500   24.5990 C   0  0  0  0  0  0  0  0  0  0  0  0
   11.2764  -17.8493   23.8977 C   0  0  1  0  0  0  0  0  0  0  0  0
   11.8761  -17.3739   22.6228 N   0  0  0  0  0  0  0  0  0  0  0  0
   10.9159  -16.4521   21.9514 C   0  0  0  0  0  0  0  0  0  0  0  0
   12.4303  -18.2971   21.6696 O   0  0  0  0  0  0  0  0  0  0  0  0
   13.8198  -18.3135   21.4625 O   0  0  0  0  0  0  0  0  0  0  0  0
  2  1  1  1
  2  3  1  0
  2  4  1  0
  5  4  1  0
  5  6  1  1
  7  8  2  0
  7  5  1  0
 10  9  1  0
 10 12  1  0
 11 10  2  0
 12 13  1  0
 13 14  1  0
 14 15  1  0
 16 15  1  6
 16 17  1  0
 17  7  1  0
 18 16  1  0
 18 19  2  0
 20 21  1  0
 21 23  1  0
 21 22  2  0
 23 24  1  0
 25 24  1  1
 25 26  1  0
 25 27  1  0
 26 18  1  0
 27 29  2  0
 27 28  1  0
M  END
$$$$
