LRQ.pdb
     RDKit          3D

 29 28  0  0  1  0  0  0  0  0999 V2000
    6.2215  -12.2265   26.3318 C   0  0  0  0  0  0  0  0  0  0  0  0
    7.1822  -13.1052   27.1115 C   0  0  2  0  0  0  0  0  0  0  0  0
    8.1705  -12.2742   27.8893 C   0  0  0  0  0  0  0  0  0  0  0  0
    7.8826  -14.0892   26.1963 C   0  0  0  0  0  0  0  0  0  0  0  0
    6.8992  -14.8874   25.3992 C   0  0  2  0  0  0  0  0  0  0  0  0
    6.0703  -15.7612   26.1919 N   0  0  0  0  0  0  0  0  0  0  0  0
    7.6119  -15.6267   24.3167 C   0  0  0  0  0  0  0  0  0  0  0  0
    7.7971  -16.8651   24.4294 O   0  0  0  0  0  0  0  0  0  0  0  0
    6.0983  -13.2255   17.3400 N   0  0  0  0  0  0  0  0  0  0  0  0
    7.4557  -13.6919   17.2586 C   0  0  0  0  0  0  0  0  0  0  0  0
    8.1985  -13.3938   16.2516 N   0  0  0  0  0  0  0  0  0  0  0  0
    7.9522  -14.4907   18.3204 N   0  0  0  0  0  0  0  0  0  0  0  0
    9.3201  -14.9139   18.4154 C   0  0  0  0  0  0  0  0  0  0  0  0
    9.5070  -15.6736   19.7145 C   0  0  0  0  0  0  0  0  0  0  0  0
    8.7718  -15.0575   20.8646 C   0  0  0  0  0  0  0  0  0  0  0  0
    8.9058  -15.7779   22.1817 C   0  0  2  0  0  0  0  0  0  0  0  0
    8.0959  -15.0015   23.1571 N   0  0  0  0  0  0  0  0  0  0  0  0
   10.2863  -15.7508   22.7102 C   0  0  0  0  0  0  0  0  0  0  0  0
   10.6302  -14.8497   23.5427 O   0  0  0  0  0  0  0  0  0  0  0  0
    9.1607  -13.7720   16.1696 N   0  0  0  0  0  0  0  0  0  0  0  0
   15.3901  -14.3979   20.8049 C   0  0  0  0  0  0  0  0  0  0  0  0
   14.1596  -14.4096   20.1184 O   0  0  0  0  0  0  0  0  0  0  0  0
   14.1490  -14.1100   18.8943 C   0  0  0  0  0  0  0  0  0  0  0  0
   12.9134  -14.7706   20.8145 C   0  0  0  0  0  0  0  0  0  0  0  0
   13.0611  -15.0896   22.2636 C   0  0  2  0  0  0  0  0  0  0  0  0
   12.6870  -16.4678   22.6779 N   0  0  0  0  0  0  0  0  0  0  0  0
   11.2593  -16.7084   22.3229 C   0  0  0  0  0  0  0  0  0  0  0  0
   12.9577  -16.9462   24.0068 O   0  0  0  0  0  0  0  0  0  0  0  0
   11.8933  -17.4178   24.7934 O   0  0  0  0  0  0  0  0  0  0  0  0
  2  1  1  6
  2  3  1  0
  2  4  1  0
  5  4  1  0
  5  6  1  1
  7  8  2  0
  7  5  1  0
 10  9  1  0
 10 12  1  0
 11 10  2  0
 12 13  1  0
 13 14  1  0
 14 15  1  0
 16 15  1  6
 16 17  1  0
 17  7  1  0
 18 16  1  0
 18 19  2  0
 20 21  1  0
 21 23  1  0
 21 22  2  0
 23 24  1  0
 25 24  1  6
 25 26  1  0
 25 27  1  0
 26 18  1  0
 27 29  2  0
 27 28  1  0
M  END
$$$$
