LRQ.pdb
     RDKit          3D

 29 28  0  0  1  0  0  0  0  0999 V2000
    7.6614  -12.1315   27.1264 C   0  0  0  0  0  0  0  0  0  0  0  0
    6.5730  -12.4375   26.1141 C   0  0  2  0  0  0  0  0  0  0  0  0
    5.4175  -11.4792   26.2514 C   0  0  0  0  0  0  0  0  0  0  0  0
    6.1162  -13.8780   26.2266 C   0  0  0  0  0  0  0  0  0  0  0  0
    7.2299  -14.8287   25.9175 C   0  0  2  0  0  0  0  0  0  0  0  0
    8.5139  -14.4168   26.4280 N   0  0  0  0  0  0  0  0  0  0  0  0
    7.2728  -15.0925   24.4496 C   0  0  0  0  0  0  0  0  0  0  0  0
    6.3044  -15.6715   23.8949 O   0  0  0  0  0  0  0  0  0  0  0  0
    7.7019  -15.5705   18.0104 N   0  0  0  0  0  0  0  0  0  0  0  0
    8.1627  -14.4533   17.2319 C   0  0  0  0  0  0  0  0  0  0  0  0
    8.7498  -14.6318   16.1014 N   0  0  0  0  0  0  0  0  0  0  0  0
    7.9520  -13.1484   17.7465 N   0  0  0  0  0  0  0  0  0  0  0  0
    8.0757  -12.8202   19.1379 C   0  0  0  0  0  0  0  0  0  0  0  0
    8.3515  -14.0919   19.9168 C   0  0  0  0  0  0  0  0  0  0  0  0
    8.1579  -13.9286   21.3929 C   0  0  0  0  0  0  0  0  0  0  0  0
    8.4052  -15.1636   22.2208 C   0  0  2  0  0  0  0  0  0  0  0  0
    8.3571  -14.7217   23.6394 N   0  0  0  0  0  0  0  0  0  0  0  0
    9.7624  -15.7176   22.0294 C   0  0  0  0  0  0  0  0  0  0  0  0
   10.7701  -15.1151   22.5244 O   0  0  0  0  0  0  0  0  0  0  0  0
    9.1397  -13.8300   15.5717 N   0  0  0  0  0  0  0  0  0  0  0  0
   10.7155  -21.1694   23.8909 C   0  0  0  0  0  0  0  0  0  0  0  0
   11.9841  -20.9383   23.3226 O   0  0  0  0  0  0  0  0  0  0  0  0
   12.8892  -21.7975   23.4982 C   0  0  0  0  0  0  0  0  0  0  0  0
   12.2451  -19.7221   22.5349 C   0  0  0  0  0  0  0  0  0  0  0  0
   11.0723  -18.8212   22.3442 C   0  0  1  0  0  0  0  0  0  0  0  0
   11.2890  -17.6282   21.4834 N   0  0  0  0  0  0  0  0  0  0  0  0
    9.9905  -16.9175   21.3069 C   0  0  0  0  0  0  0  0  0  0  0  0
   11.9756  -17.7322   20.2242 O   0  0  0  0  0  0  0  0  0  0  0  0
   13.3798  -17.7787   20.2132 O   0  0  0  0  0  0  0  0  0  0  0  0
  2  1  1  1
  2  3  1  0
  2  4  1  0
  5  4  1  0
  5  6  1  6
  7  8  2  0
  7  5  1  0
 10  9  1  0
 10 12  1  0
 11 10  2  0
 12 13  1  0
 13 14  1  0
 14 15  1  0
 16 15  1  6
 16 17  1  0
 17  7  1  0
 18 16  1  0
 18 19  2  0
 20 21  1  0
 21 23  1  0
 21 22  2  0
 23 24  1  0
 25 24  1  1
 25 26  1  0
 25 27  1  0
 26 18  1  0
 27 29  2  0
 27 28  1  0
M  END
$$$$
