QDV.pdb
     RDKit          3D

 25 24  0  0  1  0  0  0  0  0999 V2000
    9.4626  -12.0142   18.6427 N   0  0  0  0  0  0  0  0  0  0  0  0
    8.5377  -13.0412   18.2247 C   0  0  0  0  0  0  0  0  0  0  0  0
    8.8692  -13.8878   17.3771 O   0  0  0  0  0  0  0  0  0  0  0  0
    7.1795  -13.0832   18.8118 C   0  0  0  0  0  0  0  0  0  0  0  0
    7.1869  -13.7134   20.1538 C   0  0  0  0  0  0  0  0  0  0  0  0
    7.7603  -15.1032   20.1188 C   0  0  2  0  0  0  0  0  0  0  0  0
    6.7622  -15.8990   19.3729 N   0  0  0  0  0  0  0  0  0  0  0  0
    7.8869  -15.6201   21.5020 C   0  0  0  0  0  0  0  0  0  0  0  0
    6.8937  -15.9050   22.2131 O   0  0  0  0  0  0  0  0  0  0  0  0
    9.1690  -15.8293   22.1213 N   0  0  0  0  0  0  0  0  0  0  0  0
    9.2629  -16.3753   23.4586 C   0  0  1  0  0  0  0  0  0  0  0  0
   10.4124  -17.3410   23.5087 C   0  0  0  0  0  0  0  0  0  0  0  0
   10.5337  -18.0550   24.7810 C   0  0  0  0  0  0  0  0  0  0  0  0
   10.6601  -17.3584   25.8268 O   0  0  0  0  0  0  0  0  0  0  0  0
    9.3314  -15.3267   24.4940 C   0  0  0  0  0  0  0  0  0  0  0  0
   10.3469  -14.5887   24.5309 O   0  0  0  0  0  0  0  0  0  0  0  0
   10.5228  -19.4235   24.9447 O   0  0  0  0  0  0  0  0  0  0  0  0
    6.8563  -12.5164   25.4517 C   0  0  0  0  0  0  0  0  0  0  0  0
    7.1459  -13.3089   26.7172 C   0  0  2  0  0  0  0  0  0  0  0  0
    7.3087  -12.2517   27.8085 C   0  0  0  0  0  0  0  0  0  0  0  0
    8.3818  -14.0862   26.4848 C   0  0  2  0  0  0  0  0  0  0  0  0
    8.3515  -15.0734   25.4568 N   0  0  0  0  0  0  0  0  0  0  0  0
    8.8314  -14.7317   27.7384 C   0  0  0  0  0  0  0  0  0  0  0  0
    9.5518  -14.0468   28.6977 O   0  0  0  0  0  0  0  0  0  0  0  0
    8.5646  -15.9324   27.9609 O   0  0  0  0  0  0  0  0  0  0  0  0
  1  2  1  0
  2  3  2  0
  4  2  1  0
  4  5  1  0
  6  5  1  0
  6  8  1  0
  6  7  1  6
  8  9  2  0
  8 10  1  0
 10 11  1  0
 11 12  1  6
 12 13  1  0
 13 14  2  0
 15 11  1  0
 15 22  1  0
 16 15  2  0
 17 13  1  0
 19 21  1  0
 19 18  1  6
 20 19  1  0
 21 23  1  0
 21 22  1  6
 23 25  2  0
 23 24  1  0
M  END
$$$$
