QDV.pdb
     RDKit          3D

 25 24  0  0  1  0  0  0  0  0999 V2000
    8.6452  -14.5104   16.2354 N   0  0  0  0  0  0  0  0  0  0  0  0
    7.7544  -13.7441   17.0746 C   0  0  0  0  0  0  0  0  0  0  0  0
    6.5592  -13.5983   16.7658 O   0  0  0  0  0  0  0  0  0  0  0  0
    8.2728  -13.1242   18.3149 C   0  0  0  0  0  0  0  0  0  0  0  0
    9.6860  -13.4998   18.5603 C   0  0  0  0  0  0  0  0  0  0  0  0
   10.1393  -13.1109   19.9405 C   0  0  2  0  0  0  0  0  0  0  0  0
   11.5658  -13.4964   19.9862 N   0  0  0  0  0  0  0  0  0  0  0  0
    9.3746  -13.8841   20.9474 C   0  0  0  0  0  0  0  0  0  0  0  0
    8.1634  -13.6683   21.1916 O   0  0  0  0  0  0  0  0  0  0  0  0
    9.9797  -14.9404   21.7149 N   0  0  0  0  0  0  0  0  0  0  0  0
    9.2290  -15.6296   22.7429 C   0  0  1  0  0  0  0  0  0  0  0  0
    9.6948  -17.0562   22.8097 C   0  0  0  0  0  0  0  0  0  0  0  0
    9.1817  -17.7954   23.9646 C   0  0  0  0  0  0  0  0  0  0  0  0
    9.9374  -17.8945   24.9715 O   0  0  0  0  0  0  0  0  0  0  0  0
    9.2797  -14.9338   24.0428 C   0  0  0  0  0  0  0  0  0  0  0  0
   10.3971  -14.5589   24.4767 O   0  0  0  0  0  0  0  0  0  0  0  0
    7.9446  -18.3962   24.0557 O   0  0  0  0  0  0  0  0  0  0  0  0
    5.7789  -13.6747   26.1645 C   0  0  0  0  0  0  0  0  0  0  0  0
    7.1194  -12.9821   26.3560 C   0  0  2  0  0  0  0  0  0  0  0  0
    7.1250  -11.8551   25.3240 C   0  0  0  0  0  0  0  0  0  0  0  0
    8.1789  -13.9845   26.1142 C   0  0  2  0  0  0  0  0  0  0  0  0
    8.1779  -14.6476   24.8522 N   0  0  0  0  0  0  0  0  0  0  0  0
    8.1744  -15.0108   27.1805 C   0  0  0  0  0  0  0  0  0  0  0  0
    8.4416  -14.6984   28.4993 O   0  0  0  0  0  0  0  0  0  0  0  0
    7.9244  -16.2045   26.9064 O   0  0  0  0  0  0  0  0  0  0  0  0
  1  2  1  0
  2  3  2  0
  4  2  1  0
  4  5  1  0
  6  5  1  0
  6  8  1  0
  6  7  1  6
  8  9  2  0
  8 10  1  0
 10 11  1  0
 11 12  1  1
 12 13  1  0
 13 14  2  0
 15 11  1  0
 15 22  1  0
 16 15  2  0
 17 13  1  0
 19 21  1  0
 19 18  1  6
 20 19  1  0
 21 23  1  0
 21 22  1  6
 23 25  2  0
 23 24  1  0
M  END
$$$$
