QDV.pdb
     RDKit          3D

 25 24  0  0  1  0  0  0  0  0999 V2000
    7.7051  -15.7263   17.2393 N   0  0  0  0  0  0  0  0  0  0  0  0
    7.7582  -14.3876   16.7008 C   0  0  0  0  0  0  0  0  0  0  0  0
    7.9128  -14.1989   15.4820 O   0  0  0  0  0  0  0  0  0  0  0  0
    7.6292  -13.2284   17.6124 C   0  0  0  0  0  0  0  0  0  0  0  0
    7.2659  -13.6547   18.9852 C   0  0  0  0  0  0  0  0  0  0  0  0
    8.3806  -13.4073   19.9639 C   0  0  2  0  0  0  0  0  0  0  0  0
    9.5980  -13.8754   19.2676 N   0  0  0  0  0  0  0  0  0  0  0  0
    8.1544  -14.2164   21.1848 C   0  0  0  0  0  0  0  0  0  0  0  0
    7.1357  -14.0872   21.9050 O   0  0  0  0  0  0  0  0  0  0  0  0
    9.0981  -15.2101   21.6242 N   0  0  0  0  0  0  0  0  0  0  0  0
    8.9053  -15.9087   22.8772 C   0  0  1  0  0  0  0  0  0  0  0  0
    9.7053  -17.1799   22.8519 C   0  0  0  0  0  0  0  0  0  0  0  0
    9.6535  -17.9396   24.1023 C   0  0  0  0  0  0  0  0  0  0  0  0
   10.7477  -18.3646   24.5680 O   0  0  0  0  0  0  0  0  0  0  0  0
    9.1910  -15.0585   24.0485 C   0  0  0  0  0  0  0  0  0  0  0  0
   10.3571  -14.6160   24.1956 O   0  0  0  0  0  0  0  0  0  0  0  0
    8.5160  -18.2358   24.8222 O   0  0  0  0  0  0  0  0  0  0  0  0
    6.1749  -13.5357   26.6904 C   0  0  0  0  0  0  0  0  0  0  0  0
    7.5441  -12.8849   26.5676 C   0  0  2  0  0  0  0  0  0  0  0  0
    7.3812  -11.8439   25.4607 C   0  0  0  0  0  0  0  0  0  0  0  0
    8.5131  -13.9451   26.2176 C   0  0  2  0  0  0  0  0  0  0  0  0
    8.2659  -14.6926   25.0290 N   0  0  0  0  0  0  0  0  0  0  0  0
    8.6705  -14.8949   27.3416 C   0  0  0  0  0  0  0  0  0  0  0  0
    9.1917  -14.5074   28.5609 O   0  0  0  0  0  0  0  0  0  0  0  0
    8.3292  -16.0902   27.2104 O   0  0  0  0  0  0  0  0  0  0  0  0
  1  2  1  0
  2  3  2  0
  4  2  1  0
  4  5  1  0
  6  5  1  0
  6  8  1  0
  6  7  1  6
  8  9  2  0
  8 10  1  0
 10 11  1  0
 11 12  1  6
 12 13  1  0
 13 14  2  0
 15 11  1  0
 15 22  1  0
 16 15  2  0
 17 13  1  0
 19 21  1  0
 19 18  1  6
 20 19  1  0
 21 23  1  0
 21 22  1  6
 23 25  2  0
 23 24  1  0
M  END
$$$$
