QDV.pdb
     RDKit          3D

 25 24  0  0  1  0  0  0  0  0999 V2000
    9.5305  -11.6680   19.1878 N   0  0  0  0  0  0  0  0  0  0  0  0
    9.0019  -12.7917   18.4511 C   0  0  0  0  0  0  0  0  0  0  0  0
    9.7259  -13.4411   17.6771 O   0  0  0  0  0  0  0  0  0  0  0  0
    7.5810  -13.1716   18.6193 C   0  0  0  0  0  0  0  0  0  0  0  0
    7.3632  -13.9140   19.8841 C   0  0  0  0  0  0  0  0  0  0  0  0
    8.2781  -15.1017   20.0033 C   0  0  2  0  0  0  0  0  0  0  0  0
    7.7372  -16.0860   19.0418 N   0  0  0  0  0  0  0  0  0  0  0  0
    8.2034  -15.6463   21.3796 C   0  0  0  0  0  0  0  0  0  0  0  0
    7.1172  -15.8191   21.9826 O   0  0  0  0  0  0  0  0  0  0  0  0
    9.3832  -16.0143   22.1168 N   0  0  0  0  0  0  0  0  0  0  0  0
    9.2846  -16.4792   23.4841 C   0  0  1  0  0  0  0  0  0  0  0  0
   10.3507  -17.5101   23.7240 C   0  0  0  0  0  0  0  0  0  0  0  0
   10.2221  -18.7039   22.8864 C   0  0  0  0  0  0  0  0  0  0  0  0
   11.1908  -18.9861   22.1269 O   0  0  0  0  0  0  0  0  0  0  0  0
    9.3068  -15.3735   24.4604 C   0  0  0  0  0  0  0  0  0  0  0  0
   10.3169  -14.6280   24.4961 O   0  0  0  0  0  0  0  0  0  0  0  0
    9.1368  -19.5527   22.8492 O   0  0  0  0  0  0  0  0  0  0  0  0
    6.8466  -12.5014   25.1608 C   0  0  0  0  0  0  0  0  0  0  0  0
    7.0531  -13.2305   26.4796 C   0  0  2  0  0  0  0  0  0  0  0  0
    7.1834  -12.1197   27.5210 C   0  0  0  0  0  0  0  0  0  0  0  0
    8.2815  -14.0432   26.3533 C   0  0  2  0  0  0  0  0  0  0  0  0
    8.2877  -15.0728   25.3672 N   0  0  0  0  0  0  0  0  0  0  0  0
    8.6418  -14.6439   27.6571 C   0  0  0  0  0  0  0  0  0  0  0  0
    9.1011  -13.8813   28.7134 O   0  0  0  0  0  0  0  0  0  0  0  0
    8.5365  -15.8768   27.8345 O   0  0  0  0  0  0  0  0  0  0  0  0
  1  2  1  0
  2  3  2  0
  4  2  1  0
  4  5  1  0
  6  5  1  0
  6  8  1  0
  6  7  1  6
  8  9  2  0
  8 10  1  0
 10 11  1  0
 11 12  1  1
 12 13  1  0
 13 14  2  0
 15 11  1  0
 15 22  1  0
 16 15  2  0
 17 13  1  0
 19 21  1  0
 19 18  1  6
 20 19  1  0
 21 23  1  0
 21 22  1  6
 23 25  2  0
 23 24  1  0
M  END
$$$$
