QDV.pdb
     RDKit          3D

 25 24  0  0  1  0  0  0  0  0999 V2000
   10.1699  -12.4413   18.9970 N   0  0  0  0  0  0  0  0  0  0  0  0
    9.0803  -12.9671   18.2087 C   0  0  0  0  0  0  0  0  0  0  0  0
    9.2876  -13.4566   17.0851 O   0  0  0  0  0  0  0  0  0  0  0  0
    7.7016  -12.9195   18.7456 C   0  0  0  0  0  0  0  0  0  0  0  0
    7.6293  -13.4974   20.1091 C   0  0  0  0  0  0  0  0  0  0  0  0
    8.1879  -14.8928   20.1583 C   0  0  2  0  0  0  0  0  0  0  0  0
    7.2569  -15.6957   19.3370 N   0  0  0  0  0  0  0  0  0  0  0  0
    8.1759  -15.3804   21.5578 C   0  0  0  0  0  0  0  0  0  0  0  0
    7.1196  -15.5116   22.2212 O   0  0  0  0  0  0  0  0  0  0  0  0
    9.3865  -15.7370   22.2492 N   0  0  0  0  0  0  0  0  0  0  0  0
    9.3408  -16.2482   23.6027 C   0  0  1  0  0  0  0  0  0  0  0  0
   10.3545  -17.3483   23.7402 C   0  0  0  0  0  0  0  0  0  0  0  0
   10.2087  -18.4177   22.7511 C   0  0  0  0  0  0  0  0  0  0  0  0
    9.0760  -18.9677   22.6548 O   0  0  0  0  0  0  0  0  0  0  0  0
    9.4878  -15.1845   24.6143 C   0  0  0  0  0  0  0  0  0  0  0  0
   10.5127  -14.4598   24.5748 O   0  0  0  0  0  0  0  0  0  0  0  0
   11.1975  -18.8825   21.9109 O   0  0  0  0  0  0  0  0  0  0  0  0
    6.2898  -13.5741   26.7907 C   0  0  0  0  0  0  0  0  0  0  0  0
    7.6313  -12.8648   26.6873 C   0  0  2  0  0  0  0  0  0  0  0  0
    7.5437  -12.0552   25.3942 C   0  0  0  0  0  0  0  0  0  0  0  0
    8.6832  -13.9026   26.6423 C   0  0  2  0  0  0  0  0  0  0  0  0
    8.5741  -14.9031   25.6326 N   0  0  0  0  0  0  0  0  0  0  0  0
    8.8036  -14.5756   27.9549 C   0  0  0  0  0  0  0  0  0  0  0  0
    9.1551  -13.8891   29.1009 O   0  0  0  0  0  0  0  0  0  0  0  0
    8.5860  -15.8023   28.0574 O   0  0  0  0  0  0  0  0  0  0  0  0
  1  2  1  0
  2  3  2  0
  4  2  1  0
  4  5  1  0
  6  5  1  0
  6  8  1  0
  6  7  1  6
  8  9  2  0
  8 10  1  0
 10 11  1  0
 11 12  1  6
 12 13  1  0
 13 14  2  0
 15 11  1  0
 15 22  1  0
 16 15  2  0
 17 13  1  0
 19 21  1  0
 19 18  1  6
 20 19  1  0
 21 23  1  0
 21 22  1  6
 23 25  2  0
 23 24  1  0
M  END
$$$$
