QDV.pdb
     RDKit          3D

 25 24  0  0  1  0  0  0  0  0999 V2000
    9.2999  -12.5500   18.4177 N   0  0  0  0  0  0  0  0  0  0  0  0
    8.4793  -13.4901   17.6913 C   0  0  0  0  0  0  0  0  0  0  0  0
    7.9331  -13.1639   16.6235 O   0  0  0  0  0  0  0  0  0  0  0  0
    8.2859  -14.8564   18.2271 C   0  0  0  0  0  0  0  0  0  0  0  0
    8.9737  -15.0319   19.5289 C   0  0  0  0  0  0  0  0  0  0  0  0
    8.8307  -16.4333   20.0555 C   0  0  2  0  0  0  0  0  0  0  0  0
    7.9538  -17.1110   19.0770 N   0  0  0  0  0  0  0  0  0  0  0  0
    8.1729  -16.3970   21.3831 C   0  0  0  0  0  0  0  0  0  0  0  0
    6.9467  -16.1757   21.5266 O   0  0  0  0  0  0  0  0  0  0  0  0
    8.9067  -16.6156   22.6016 N   0  0  0  0  0  0  0  0  0  0  0  0
    8.2288  -16.6240   23.8805 C   0  0  1  0  0  0  0  0  0  0  0  0
    8.6079  -17.8741   24.6222 C   0  0  0  0  0  0  0  0  0  0  0  0
    7.6308  -18.9574   24.4993 C   0  0  0  0  0  0  0  0  0  0  0  0
    6.4592  -18.6440   24.1473 O   0  0  0  0  0  0  0  0  0  0  0  0
    8.4631  -15.3891   24.6529 C   0  0  0  0  0  0  0  0  0  0  0  0
    9.6480  -15.0175   24.8407 O   0  0  0  0  0  0  0  0  0  0  0  0
    7.8717  -20.2942   24.7331 O   0  0  0  0  0  0  0  0  0  0  0  0
    6.9312  -11.2544   26.8665 C   0  0  0  0  0  0  0  0  0  0  0  0
    6.4779  -12.4865   26.0986 C   0  0  2  0  0  0  0  0  0  0  0  0
    5.3696  -13.0935   26.9580 C   0  0  0  0  0  0  0  0  0  0  0  0
    7.6470  -13.3804   25.9578 C   0  0  2  0  0  0  0  0  0  0  0  0
    7.4690  -14.5785   25.2059 N   0  0  0  0  0  0  0  0  0  0  0  0
    8.1874  -13.7402   27.2877 C   0  0  0  0  0  0  0  0  0  0  0  0
    8.8195  -12.8157   28.0964 O   0  0  0  0  0  0  0  0  0  0  0  0
    8.0821  -14.9097   27.7164 O   0  0  0  0  0  0  0  0  0  0  0  0
  1  2  1  0
  2  3  2  0
  4  2  1  0
  4  5  1  0
  6  5  1  0
  6  8  1  0
  6  7  1  6
  8  9  2  0
  8 10  1  0
 10 11  1  0
 11 12  1  1
 12 13  1  0
 13 14  2  0
 15 11  1  0
 15 22  1  0
 16 15  2  0
 17 13  1  0
 19 21  1  0
 19 18  1  1
 20 19  1  0
 21 23  1  0
 21 22  1  1
 23 25  2  0
 23 24  1  0
M  END
$$$$
