QDV.pdb
     RDKit          3D

 25 24  0  0  1  0  0  0  0  0999 V2000
    7.5013  -15.5951   17.1242 N   0  0  0  0  0  0  0  0  0  0  0  0
    7.7206  -14.2760   16.5794 C   0  0  0  0  0  0  0  0  0  0  0  0
    7.8559  -14.1088   15.3552 O   0  0  0  0  0  0  0  0  0  0  0  0
    7.7868  -13.1115   17.4910 C   0  0  0  0  0  0  0  0  0  0  0  0
    7.4013  -13.4816   18.8740 C   0  0  0  0  0  0  0  0  0  0  0  0
    8.5474  -13.3317   19.8361 C   0  0  2  0  0  0  0  0  0  0  0  0
    9.6817  -14.0086   19.1719 N   0  0  0  0  0  0  0  0  0  0  0  0
    8.2200  -14.0227   21.1056 C   0  0  0  0  0  0  0  0  0  0  0  0
    7.2071  -13.7410   21.7895 O   0  0  0  0  0  0  0  0  0  0  0  0
    9.0515  -15.0698   21.6377 N   0  0  0  0  0  0  0  0  0  0  0  0
    8.6756  -15.7677   22.8489 C   0  0  1  0  0  0  0  0  0  0  0  0
    9.2683  -17.1477   22.8174 C   0  0  0  0  0  0  0  0  0  0  0  0
    9.0354  -17.9225   24.0376 C   0  0  0  0  0  0  0  0  0  0  0  0
    9.9753  -17.9744   24.8794 O   0  0  0  0  0  0  0  0  0  0  0  0
    9.0171  -15.0097   24.0676 C   0  0  0  0  0  0  0  0  0  0  0  0
   10.1979  -14.6060   24.2090 O   0  0  0  0  0  0  0  0  0  0  0  0
    7.8801  -18.6040   24.3547 O   0  0  0  0  0  0  0  0  0  0  0  0
    6.0533  -13.5655   26.7410 C   0  0  0  0  0  0  0  0  0  0  0  0
    7.4100  -12.8856   26.6391 C   0  0  2  0  0  0  0  0  0  0  0  0
    7.2301  -11.8203   25.5583 C   0  0  0  0  0  0  0  0  0  0  0  0
    8.4002  -13.9179   26.2656 C   0  0  2  0  0  0  0  0  0  0  0  0
    8.1309  -14.6930   25.0998 N   0  0  0  0  0  0  0  0  0  0  0  0
    8.6362  -14.8429   27.3965 C   0  0  0  0  0  0  0  0  0  0  0  0
    9.1352  -14.4063   28.6084 O   0  0  0  0  0  0  0  0  0  0  0  0
    8.3847  -16.0616   27.2780 O   0  0  0  0  0  0  0  0  0  0  0  0
  1  2  1  0
  2  3  2  0
  4  2  1  0
  4  5  1  0
  6  5  1  0
  6  8  1  0
  6  7  1  6
  8  9  2  0
  8 10  1  0
 10 11  1  0
 11 12  1  1
 12 13  1  0
 13 14  2  0
 15 11  1  0
 15 22  1  0
 16 15  2  0
 17 13  1  0
 19 21  1  0
 19 18  1  6
 20 19  1  0
 21 23  1  0
 21 22  1  6
 23 25  2  0
 23 24  1  0
M  END
$$$$
