QDV.pdb
     RDKit          3D

 25 24  0  0  1  0  0  0  0  0999 V2000
   10.2176  -13.0174   18.9494 N   0  0  0  0  0  0  0  0  0  0  0  0
    9.1532  -13.0792   17.9757 C   0  0  0  0  0  0  0  0  0  0  0  0
    9.4040  -13.0599   16.7584 O   0  0  0  0  0  0  0  0  0  0  0  0
    7.7483  -13.1641   18.4344 C   0  0  0  0  0  0  0  0  0  0  0  0
    7.6673  -13.4028   19.8955 C   0  0  0  0  0  0  0  0  0  0  0  0
    8.2673  -14.7264   20.2827 C   0  0  2  0  0  0  0  0  0  0  0  0
    7.5760  -15.7133   19.4259 N   0  0  0  0  0  0  0  0  0  0  0  0
    7.9744  -15.0028   21.7090 C   0  0  0  0  0  0  0  0  0  0  0  0
    7.1073  -14.3706   22.3582 O   0  0  0  0  0  0  0  0  0  0  0  0
    8.6731  -16.0233   22.4448 N   0  0  0  0  0  0  0  0  0  0  0  0
    8.2894  -16.3489   23.8020 C   0  0  1  0  0  0  0  0  0  0  0  0
    8.7763  -17.7328   24.1250 C   0  0  0  0  0  0  0  0  0  0  0  0
    8.2005  -18.7783   23.2772 C   0  0  0  0  0  0  0  0  0  0  0  0
    7.0131  -18.6138   22.8801 O   0  0  0  0  0  0  0  0  0  0  0  0
    8.7292  -15.3299   24.7740 C   0  0  0  0  0  0  0  0  0  0  0  0
    9.9362  -14.9828   24.7709 O   0  0  0  0  0  0  0  0  0  0  0  0
    8.8369  -19.9311   22.8701 O   0  0  0  0  0  0  0  0  0  0  0  0
    6.0590  -13.0298   27.2278 C   0  0  0  0  0  0  0  0  0  0  0  0
    7.4734  -12.5710   26.9081 C   0  0  2  0  0  0  0  0  0  0  0  0
    7.3353  -11.7525   25.6250 C   0  0  0  0  0  0  0  0  0  0  0  0
    8.3055  -13.7797   26.7287 C   0  0  2  0  0  0  0  0  0  0  0  0
    7.9110  -14.7027   25.7164 N   0  0  0  0  0  0  0  0  0  0  0  0
    8.4332  -14.5153   28.0066 C   0  0  0  0  0  0  0  0  0  0  0  0
    9.0507  -13.9626   29.1118 O   0  0  0  0  0  0  0  0  0  0  0  0
    7.9768  -15.6739   28.1162 O   0  0  0  0  0  0  0  0  0  0  0  0
  1  2  1  0
  2  3  2  0
  4  2  1  0
  4  5  1  0
  6  5  1  0
  6  8  1  0
  6  7  1  6
  8  9  2  0
  8 10  1  0
 10 11  1  0
 11 12  1  1
 12 13  1  0
 13 14  2  0
 15 11  1  0
 15 22  1  0
 16 15  2  0
 17 13  1  0
 19 21  1  0
 19 18  1  6
 20 19  1  0
 21 23  1  0
 21 22  1  6
 23 25  2  0
 23 24  1  0
M  END
$$$$
