QVM.pdb
     RDKit          3D

 25 24  0  0  1  0  0  0  0  0999 V2000
   13.1754  -19.4777   19.2575 N   0  0  0  0  0  0  0  0  0  0  0  0
   12.2763  -20.1853   18.4209 C   0  0  0  0  0  0  0  0  0  0  0  0
   12.5554  -21.3734   18.0349 O   0  0  0  0  0  0  0  0  0  0  0  0
   11.0047  -19.5932   17.9771 C   0  0  0  0  0  0  0  0  0  0  0  0
   10.7533  -18.2095   18.4332 C   0  0  0  0  0  0  0  0  0  0  0  0
    9.9172  -18.0554   19.6351 C   0  0  2  0  0  0  0  0  0  0  0  0
    8.5508  -18.4919   19.2427 N   0  0  0  0  0  0  0  0  0  0  0  0
    9.8539  -16.7349   20.2586 C   0  0  0  0  0  0  0  0  0  0  0  0
   10.8895  -16.0170   20.2820 O   0  0  0  0  0  0  0  0  0  0  0  0
    7.7427  -12.6667   21.9185 C   0  0  0  0  0  0  0  0  0  0  0  0
    7.6176  -13.9971   21.1844 C   0  0  1  0  0  0  0  0  0  0  0  0
    7.5358  -13.7702   19.6865 C   0  0  0  0  0  0  0  0  0  0  0  0
    8.7579  -14.9325   21.5343 C   0  0  2  0  0  0  0  0  0  0  0  0
    8.6732  -16.2019   20.8545 N   0  0  0  0  0  0  0  0  0  0  0  0
    8.6404  -15.1848   23.0007 C   0  0  0  0  0  0  0  0  0  0  0  0
    7.6171  -15.7806   23.4000 O   0  0  0  0  0  0  0  0  0  0  0  0
    5.9097  -10.9425   26.4528 C   0  0  0  0  0  0  0  0  0  0  0  0
    7.0933  -12.1023   27.1147 S   0  0  0  0  0  0  0  0  0  0  0  0
    8.2476  -12.8018   25.9564 C   0  0  0  0  0  0  0  0  0  0  0  0
    8.2337  -14.2892   25.8453 C   0  0  0  0  0  0  0  0  0  0  0  0
    9.4903  -14.9303   25.3664 C   0  0  2  0  0  0  0  0  0  0  0  0
    9.6459  -14.7711   23.9148 N   0  0  0  0  0  0  0  0  0  0  0  0
    9.4389  -16.4169   25.5781 C   0  0  0  0  0  0  0  0  0  0  0  0
    8.9627  -17.2657   24.5775 O   0  0  0  0  0  0  0  0  0  0  0  0
    9.8168  -16.9576   26.6521 O   0  0  0  0  0  0  0  0  0  0  0  0
  1  2  1  0
  2  3  2  0
  4  5  1  0
  4  2  1  0
  5  6  1  0
  6  8  1  0
  6  7  1  6
  8  9  2  0
 11 10  1  1
 11 12  1  0
 11 13  1  0
 13 14  1  6
 14  8  1  0
 15 13  1  0
 15 16  2  0
 17 18  1  0
 19 20  1  0
 19 18  1  0
 21 20  1  6
 21 22  1  0
 21 23  1  0
 22 15  1  0
 23 25  2  0
 23 24  1  0
M  END
$$$$
