QVM.pdb
     RDKit          3D

 25 24  0  0  1  0  0  0  0  0999 V2000
   13.6946  -19.5915   18.3427 N   0  0  0  0  0  0  0  0  0  0  0  0
   12.4475  -19.1947   17.7985 C   0  0  0  0  0  0  0  0  0  0  0  0
   11.6541  -20.0682   17.3025 O   0  0  0  0  0  0  0  0  0  0  0  0
   12.0209  -17.7866   17.7897 C   0  0  0  0  0  0  0  0  0  0  0  0
   10.7880  -17.4901   18.5498 C   0  0  0  0  0  0  0  0  0  0  0  0
   10.8051  -17.8203   19.9844 C   0  0  2  0  0  0  0  0  0  0  0  0
    9.7851  -18.8862   20.1720 N   0  0  0  0  0  0  0  0  0  0  0  0
   10.5691  -16.7375   20.9375 C   0  0  0  0  0  0  0  0  0  0  0  0
   11.4096  -15.8024   21.0246 O   0  0  0  0  0  0  0  0  0  0  0  0
    7.7641  -13.7992   23.6494 C   0  0  0  0  0  0  0  0  0  0  0  0
    7.8735  -14.9962   22.7116 C   0  0  1  0  0  0  0  0  0  0  0  0
    7.3883  -14.6270   21.3223 C   0  0  0  0  0  0  0  0  0  0  0  0
    9.2877  -15.5403   22.6703 C   0  0  2  0  0  0  0  0  0  0  0  0
    9.4285  -16.6752   21.7910 N   0  0  0  0  0  0  0  0  0  0  0  0
    9.5893  -15.9925   24.0604 C   0  0  0  0  0  0  0  0  0  0  0  0
    8.6657  -16.5422   24.6979 O   0  0  0  0  0  0  0  0  0  0  0  0
    8.4818  -12.3286   27.9420 C   0  0  0  0  0  0  0  0  0  0  0  0
    9.1032  -13.6149   29.0114 S   0  0  0  0  0  0  0  0  0  0  0  0
   10.1080  -14.8652   28.2429 C   0  0  0  0  0  0  0  0  0  0  0  0
   10.2303  -14.7772   26.7590 C   0  0  0  0  0  0  0  0  0  0  0  0
   11.0702  -15.8162   26.0999 C   0  0  2  0  0  0  0  0  0  0  0  0
   10.8715  -15.8128   24.6448 N   0  0  0  0  0  0  0  0  0  0  0  0
   10.6469  -17.1910   26.5339 C   0  0  0  0  0  0  0  0  0  0  0  0
   11.3339  -17.8649   27.5450 O   0  0  0  0  0  0  0  0  0  0  0  0
    9.6679  -17.7899   26.0129 O   0  0  0  0  0  0  0  0  0  0  0  0
  1  2  1  0
  2  3  2  0
  4  5  1  0
  4  2  1  0
  5  6  1  0
  6  8  1  0
  6  7  1  6
  8  9  2  0
 11 10  1  1
 11 12  1  0
 11 13  1  0
 13 14  1  6
 14  8  1  0
 15 13  1  0
 15 16  2  0
 17 18  1  0
 19 20  1  0
 19 18  1  0
 21 20  1  1
 21 22  1  0
 21 23  1  0
 22 15  1  0
 23 25  2  0
 23 24  1  0
M  END
$$$$
