QVM.pdb
     RDKit          3D

 25 24  0  0  1  0  0  0  0  0999 V2000
    6.7769  -21.0625   23.3433 N   0  0  0  0  0  0  0  0  0  0  0  0
    8.1454  -20.7113   23.2301 C   0  0  0  0  0  0  0  0  0  0  0  0
    8.9944  -21.1455   24.0840 O   0  0  0  0  0  0  0  0  0  0  0  0
    8.6356  -19.8536   22.1398 C   0  0  0  0  0  0  0  0  0  0  0  0
    7.6069  -19.3844   21.1873 C   0  0  0  0  0  0  0  0  0  0  0  0
    8.0841  -18.5907   20.0429 C   0  0  2  0  0  0  0  0  0  0  0  0
    9.1033  -19.4301   19.3584 N   0  0  0  0  0  0  0  0  0  0  0  0
    8.6372  -17.2651   20.3139 C   0  0  0  0  0  0  0  0  0  0  0  0
    9.8861  -17.1011   20.2729 O   0  0  0  0  0  0  0  0  0  0  0  0
    6.1759  -13.8530   21.0100 C   0  0  0  0  0  0  0  0  0  0  0  0
    7.5065  -13.7089   20.2799 C   0  0  1  0  0  0  0  0  0  0  0  0
    8.1216  -12.3510   20.5623 C   0  0  0  0  0  0  0  0  0  0  0  0
    8.4620  -14.8282   20.6431 C   0  0  2  0  0  0  0  0  0  0  0  0
    7.8367  -16.1282   20.6299 N   0  0  0  0  0  0  0  0  0  0  0  0
    8.9080  -14.5441   22.0389 C   0  0  0  0  0  0  0  0  0  0  0  0
    9.4985  -13.4619   22.2432 O   0  0  0  0  0  0  0  0  0  0  0  0
    7.0964  -11.4891   27.7542 C   0  0  0  0  0  0  0  0  0  0  0  0
    6.8336  -12.0366   26.0763 S   0  0  0  0  0  0  0  0  0  0  0  0
    6.6201  -13.7864   25.8398 C   0  0  0  0  0  0  0  0  0  0  0  0
    7.0432  -14.3176   24.5118 C   0  0  0  0  0  0  0  0  0  0  0  0
    8.3637  -15.0054   24.4626 C   0  0  2  0  0  0  0  0  0  0  0  0
    8.6743  -15.4584   23.1006 N   0  0  0  0  0  0  0  0  0  0  0  0
    8.3337  -16.2656   25.2801 C   0  0  0  0  0  0  0  0  0  0  0  0
    8.5722  -17.5074   24.6890 O   0  0  0  0  0  0  0  0  0  0  0  0
    8.0951  -16.2599   26.5177 O   0  0  0  0  0  0  0  0  0  0  0  0
  1  2  1  0
  2  3  2  0
  4  5  1  0
  4  2  1  0
  5  6  1  0
  6  8  1  0
  6  7  1  1
  8  9  2  0
 11 10  1  1
 11 12  1  0
 11 13  1  0
 13 14  1  1
 14  8  1  0
 15 13  1  0
 15 16  2  0
 17 18  1  0
 19 20  1  0
 19 18  1  0
 21 20  1  6
 21 22  1  0
 21 23  1  0
 22 15  1  0
 23 25  2  0
 23 24  1  0
M  END
$$$$
