QVM.pdb
     RDKit          3D

 25 24  0  0  1  0  0  0  0  0999 V2000
   12.0944  -20.0349   22.0730 N   0  0  0  0  0  0  0  0  0  0  0  0
   11.3932  -20.8284   21.1309 C   0  0  0  0  0  0  0  0  0  0  0  0
   11.1567  -22.0621   21.3772 O   0  0  0  0  0  0  0  0  0  0  0  0
   10.9119  -20.2713   19.8571 C   0  0  0  0  0  0  0  0  0  0  0  0
   11.2141  -18.8416   19.6329 C   0  0  0  0  0  0  0  0  0  0  0  0
   10.0743  -17.9748   19.2908 C   0  0  2  0  0  0  0  0  0  0  0  0
   10.1602  -17.7446   17.8240 N   0  0  0  0  0  0  0  0  0  0  0  0
    9.9571  -16.6942   19.9857 C   0  0  0  0  0  0  0  0  0  0  0  0
   11.0050  -16.0864   20.3333 O   0  0  0  0  0  0  0  0  0  0  0  0
    7.6043  -12.5548   21.2079 C   0  0  0  0  0  0  0  0  0  0  0  0
    7.6407  -13.8620   20.4240 C   0  0  1  0  0  0  0  0  0  0  0  0
    7.8251  -13.5870   18.9434 C   0  0  0  0  0  0  0  0  0  0  0  0
    8.7185  -14.7913   20.9460 C   0  0  2  0  0  0  0  0  0  0  0  0
    8.7087  -16.0821   20.3021 N   0  0  0  0  0  0  0  0  0  0  0  0
    8.4135  -14.9943   22.3929 C   0  0  0  0  0  0  0  0  0  0  0  0
    7.4522  -15.7405   22.6773 O   0  0  0  0  0  0  0  0  0  0  0  0
    7.5206  -11.2458   27.5704 C   0  0  0  0  0  0  0  0  0  0  0  0
    6.2020  -12.1704   26.8019 S   0  0  0  0  0  0  0  0  0  0  0  0
    6.6255  -13.7807   26.1768 C   0  0  0  0  0  0  0  0  0  0  0  0
    7.2794  -13.8045   24.8364 C   0  0  0  0  0  0  0  0  0  0  0  0
    8.6943  -14.2688   24.7968 C   0  0  2  0  0  0  0  0  0  0  0  0
    9.1793  -14.3716   23.4144 N   0  0  0  0  0  0  0  0  0  0  0  0
    8.8074  -15.6653   25.3395 C   0  0  0  0  0  0  0  0  0  0  0  0
    8.9892  -15.8892   26.7053 O   0  0  0  0  0  0  0  0  0  0  0  0
    8.7449  -16.6829   24.5985 O   0  0  0  0  0  0  0  0  0  0  0  0
  1  2  1  0
  2  3  2  0
  4  5  1  0
  4  2  1  0
  5  6  1  0
  6  8  1  0
  6  7  1  6
  8  9  2  0
 11 10  1  1
 11 12  1  0
 11 13  1  0
 13 14  1  6
 14  8  1  0
 15 13  1  0
 15 16  2  0
 17 18  1  0
 19 20  1  0
 19 18  1  0
 21 20  1  6
 21 22  1  0
 21 23  1  0
 22 15  1  0
 23 25  2  0
 23 24  1  0
M  END
$$$$
