QVM.pdb
     RDKit          3D

 25 24  0  0  1  0  0  0  0  0999 V2000
   11.0990  -20.4920   18.1736 N   0  0  0  0  0  0  0  0  0  0  0  0
   11.3237  -20.4911   19.5730 C   0  0  0  0  0  0  0  0  0  0  0  0
   10.4952  -21.0699   20.3586 O   0  0  0  0  0  0  0  0  0  0  0  0
   12.5029  -19.8413   20.1662 C   0  0  0  0  0  0  0  0  0  0  0  0
   12.2270  -18.6275   20.9639 C   0  0  0  0  0  0  0  0  0  0  0  0
   11.6499  -17.4827   20.2403 C   0  0  2  0  0  0  0  0  0  0  0  0
   12.7830  -16.8349   19.5274 N   0  0  0  0  0  0  0  0  0  0  0  0
   10.9180  -16.4829   21.0158 C   0  0  0  0  0  0  0  0  0  0  0  0
   11.5635  -15.6268   21.6781 O   0  0  0  0  0  0  0  0  0  0  0  0
    6.8749  -13.8654   22.1279 C   0  0  0  0  0  0  0  0  0  0  0  0
    7.5010  -14.9840   21.3027 C   0  0  1  0  0  0  0  0  0  0  0  0
    7.5405  -14.6015   19.8350 C   0  0  0  0  0  0  0  0  0  0  0  0
    8.8832  -15.3414   21.8121 C   0  0  2  0  0  0  0  0  0  0  0  0
    9.4947  -16.4181   21.0719 N   0  0  0  0  0  0  0  0  0  0  0  0
    8.6912  -15.7990   23.2197 C   0  0  0  0  0  0  0  0  0  0  0  0
    9.0001  -16.9803   23.4861 O   0  0  0  0  0  0  0  0  0  0  0  0
    5.7237  -11.5403   26.6741 C   0  0  0  0  0  0  0  0  0  0  0  0
    7.4451  -11.5695   27.1432 S   0  0  0  0  0  0  0  0  0  0  0  0
    8.3483  -13.0489   26.7446 C   0  0  0  0  0  0  0  0  0  0  0  0
    7.5213  -14.2607   26.4754 C   0  0  0  0  0  0  0  0  0  0  0  0
    8.1518  -15.3220   25.6415 C   0  0  2  0  0  0  0  0  0  0  0  0
    8.1809  -14.9350   24.2251 N   0  0  0  0  0  0  0  0  0  0  0  0
    7.3264  -16.5772   25.6713 C   0  0  0  0  0  0  0  0  0  0  0  0
    7.6442  -17.6216   26.5411 O   0  0  0  0  0  0  0  0  0  0  0  0
    6.3252  -16.7426   24.9238 O   0  0  0  0  0  0  0  0  0  0  0  0
  1  2  1  0
  2  3  2  0
  4  5  1  0
  4  2  1  0
  5  6  1  0
  6  8  1  0
  6  7  1  1
  8  9  2  0
 11 10  1  1
 11 12  1  0
 11 13  1  0
 13 14  1  6
 14  8  1  0
 15 13  1  0
 15 16  2  0
 17 18  1  0
 19 20  1  0
 19 18  1  0
 21 20  1  1
 21 22  1  0
 21 23  1  0
 22 15  1  0
 23 25  2  0
 23 24  1  0
M  END
$$$$
