QVM.pdb
     RDKit          3D

 25 24  0  0  1  0  0  0  0  0999 V2000
   13.7752  -18.0964   15.8887 N   0  0  0  0  0  0  0  0  0  0  0  0
   14.2994  -17.9100   17.1923 C   0  0  0  0  0  0  0  0  0  0  0  0
   15.5592  -18.0027   17.3991 O   0  0  0  0  0  0  0  0  0  0  0  0
   13.4298  -17.6008   18.3382 C   0  0  0  0  0  0  0  0  0  0  0  0
   12.0111  -17.3457   18.0100 C   0  0  0  0  0  0  0  0  0  0  0  0
   11.0120  -18.1114   18.7736 C   0  0  2  0  0  0  0  0  0  0  0  0
   10.2726  -18.9298   17.7760 N   0  0  0  0  0  0  0  0  0  0  0  0
   10.0648  -17.3652   19.5998 C   0  0  0  0  0  0  0  0  0  0  0  0
    9.7537  -16.1900   19.2675 O   0  0  0  0  0  0  0  0  0  0  0  0
    6.0664  -17.2923   22.3770 C   0  0  0  0  0  0  0  0  0  0  0  0
    7.1271  -18.0214   21.5600 C   0  0  1  0  0  0  0  0  0  0  0  0
    6.5594  -18.4553   20.2215 C   0  0  0  0  0  0  0  0  0  0  0  0
    8.3681  -17.1702   21.3776 C   0  0  2  0  0  0  0  0  0  0  0  0
    9.4637  -17.8937   20.7799 N   0  0  0  0  0  0  0  0  0  0  0  0
    8.7819  -16.7566   22.7507 C   0  0  0  0  0  0  0  0  0  0  0  0
    9.6378  -17.4604   23.3283 O   0  0  0  0  0  0  0  0  0  0  0  0
    6.0888  -11.3659   25.9296 C   0  0  0  0  0  0  0  0  0  0  0  0
    7.3458  -11.9973   27.0275 S   0  0  0  0  0  0  0  0  0  0  0  0
    8.0667  -13.5624   26.5871 C   0  0  0  0  0  0  0  0  0  0  0  0
    7.9307  -13.9590   25.1556 C   0  0  0  0  0  0  0  0  0  0  0  0
    8.6109  -15.2205   24.7494 C   0  0  2  0  0  0  0  0  0  0  0  0
    8.2334  -15.6098   23.3846 N   0  0  0  0  0  0  0  0  0  0  0  0
    8.1544  -16.3667   25.6069 C   0  0  0  0  0  0  0  0  0  0  0  0
    8.9338  -16.8163   26.6740 O   0  0  0  0  0  0  0  0  0  0  0  0
    7.0640  -16.9659   25.4054 O   0  0  0  0  0  0  0  0  0  0  0  0
  1  2  1  0
  2  3  2  0
  4  5  1  0
  4  2  1  0
  5  6  1  0
  6  8  1  0
  6  7  1  6
  8  9  2  0
 11 10  1  6
 11 12  1  0
 11 13  1  0
 13 14  1  1
 14  8  1  0
 15 13  1  0
 15 16  2  0
 17 18  1  0
 19 20  1  0
 19 18  1  0
 21 20  1  1
 21 22  1  0
 21 23  1  0
 22 15  1  0
 23 25  2  0
 23 24  1  0
M  END
$$$$
