QVM.pdb
     RDKit          3D

 25 24  0  0  1  0  0  0  0  0999 V2000
    6.4244  -19.4668   19.8014 N   0  0  0  0  0  0  0  0  0  0  0  0
    5.3373  -19.9008   20.6008 C   0  0  0  0  0  0  0  0  0  0  0  0
    4.7671  -21.0209   20.3589 O   0  0  0  0  0  0  0  0  0  0  0  0
    4.8355  -19.0962   21.7258 C   0  0  0  0  0  0  0  0  0  0  0  0
    5.5090  -17.7958   21.9286 C   0  0  0  0  0  0  0  0  0  0  0  0
    6.6104  -17.7714   22.9051 C   0  0  2  0  0  0  0  0  0  0  0  0
    6.0331  -18.2574   24.1866 N   0  0  0  0  0  0  0  0  0  0  0  0
    7.3011  -16.5020   23.1245 C   0  0  0  0  0  0  0  0  0  0  0  0
    8.0596  -16.0524   22.2240 O   0  0  0  0  0  0  0  0  0  0  0  0
    8.3326  -12.3798   25.7004 C   0  0  0  0  0  0  0  0  0  0  0  0
    7.4787  -13.6374   25.5848 C   0  0  1  0  0  0  0  0  0  0  0  0
    6.0135  -13.2715   25.4385 C   0  0  0  0  0  0  0  0  0  0  0  0
    7.9396  -14.5168   24.4393 C   0  0  2  0  0  0  0  0  0  0  0  0
    7.1690  -15.7301   24.3160 N   0  0  0  0  0  0  0  0  0  0  0  0
    9.3479  -14.8943   24.7589 C   0  0  0  0  0  0  0  0  0  0  0  0
   10.2319  -14.0343   24.5580 O   0  0  0  0  0  0  0  0  0  0  0  0
   10.0003  -13.5433   29.9619 C   0  0  0  0  0  0  0  0  0  0  0  0
   10.9765  -15.0205   30.1841 S   0  0  0  0  0  0  0  0  0  0  0  0
   11.2584  -16.0078   28.7318 C   0  0  0  0  0  0  0  0  0  0  0  0
   10.3658  -15.7233   27.5711 C   0  0  0  0  0  0  0  0  0  0  0  0
   10.7378  -16.3599   26.2767 C   0  0  2  0  0  0  0  0  0  0  0  0
    9.6815  -16.1757   25.2732 N   0  0  0  0  0  0  0  0  0  0  0  0
   10.8511  -17.8498   26.4340 C   0  0  0  0  0  0  0  0  0  0  0  0
    9.8879  -18.7016   25.8907 O   0  0  0  0  0  0  0  0  0  0  0  0
   11.8055  -18.3908   27.0544 O   0  0  0  0  0  0  0  0  0  0  0  0
  1  2  1  0
  2  3  2  0
  4  5  1  0
  4  2  1  0
  5  6  1  0
  6  8  1  0
  6  7  1  1
  8  9  2  0
 11 10  1  6
 11 12  1  0
 11 13  1  0
 13 14  1  1
 14  8  1  0
 15 13  1  0
 15 16  2  0
 17 18  1  0
 19 20  1  0
 19 18  1  0
 21 20  1  1
 21 22  1  0
 21 23  1  0
 22 15  1  0
 23 25  2  0
 23 24  1  0
M  END
$$$$
