QVM.pdb
     RDKit          3D

 25 24  0  0  1  0  0  0  0  0999 V2000
   11.2082  -20.9357   21.8772 N   0  0  0  0  0  0  0  0  0  0  0  0
   12.4334  -21.1792   21.2074 C   0  0  0  0  0  0  0  0  0  0  0  0
   12.7233  -22.3588   20.8037 O   0  0  0  0  0  0  0  0  0  0  0  0
   13.4003  -20.1009   20.9483 C   0  0  0  0  0  0  0  0  0  0  0  0
   12.9569  -18.7431   21.3297 C   0  0  0  0  0  0  0  0  0  0  0  0
   11.9598  -18.1070   20.4530 C   0  0  2  0  0  0  0  0  0  0  0  0
   12.7053  -17.6444   19.2522 N   0  0  0  0  0  0  0  0  0  0  0  0
   11.1729  -17.0039   21.0011 C   0  0  0  0  0  0  0  0  0  0  0  0
   11.7181  -15.8780   21.1546 O   0  0  0  0  0  0  0  0  0  0  0  0
    6.8872  -14.7747   22.0368 C   0  0  0  0  0  0  0  0  0  0  0  0
    7.6327  -15.9576   21.4291 C   0  0  1  0  0  0  0  0  0  0  0  0
    7.4589  -15.9759   19.9220 C   0  0  0  0  0  0  0  0  0  0  0  0
    9.0999  -15.9430   21.8102 C   0  0  2  0  0  0  0  0  0  0  0  0
    9.8043  -17.1268   21.3819 N   0  0  0  0  0  0  0  0  0  0  0  0
    9.1313  -15.9008   23.3018 C   0  0  0  0  0  0  0  0  0  0  0  0
    9.3467  -16.9757   23.9016 O   0  0  0  0  0  0  0  0  0  0  0  0
    5.9964  -11.0559   26.6280 C   0  0  0  0  0  0  0  0  0  0  0  0
    6.7080  -12.0576   27.9220 S   0  0  0  0  0  0  0  0  0  0  0  0
    7.6861  -13.4477   27.3984 C   0  0  0  0  0  0  0  0  0  0  0  0
    7.9992  -13.5080   25.9412 C   0  0  0  0  0  0  0  0  0  0  0  0
    8.8122  -14.6700   25.4851 C   0  0  2  0  0  0  0  0  0  0  0  0
    8.9283  -14.6930   24.0213 N   0  0  0  0  0  0  0  0  0  0  0  0
    8.1259  -15.9619   25.8280 C   0  0  0  0  0  0  0  0  0  0  0  0
    8.6340  -16.7998   26.8221 O   0  0  0  0  0  0  0  0  0  0  0  0
    7.0766  -16.3430   25.2428 O   0  0  0  0  0  0  0  0  0  0  0  0
  1  2  1  0
  2  3  2  0
  4  5  1  0
  4  2  1  0
  5  6  1  0
  6  8  1  0
  6  7  1  6
  8  9  2  0
 11 10  1  6
 11 12  1  0
 11 13  1  0
 13 14  1  1
 14  8  1  0
 15 13  1  0
 15 16  2  0
 17 18  1  0
 19 20  1  0
 19 18  1  0
 21 20  1  6
 21 22  1  0
 21 23  1  0
 22 15  1  0
 23 25  2  0
 23 24  1  0
M  END
$$$$
