QVM.pdb
     RDKit          3D

 25 24  0  0  1  0  0  0  0  0999 V2000
   11.9459  -19.0098   19.4378 N   0  0  0  0  0  0  0  0  0  0  0  0
   13.1975  -18.7730   18.8162 C   0  0  0  0  0  0  0  0  0  0  0  0
   13.6581  -19.6042   17.9585 O   0  0  0  0  0  0  0  0  0  0  0  0
   13.9992  -17.5781   19.1230 C   0  0  0  0  0  0  0  0  0  0  0  0
   13.4017  -16.6447   20.1016 C   0  0  0  0  0  0  0  0  0  0  0  0
   12.5868  -15.5488   19.5516 C   0  0  2  0  0  0  0  0  0  0  0  0
   13.5504  -14.5462   19.0243 N   0  0  0  0  0  0  0  0  0  0  0  0
   11.6311  -14.8943   20.4431 C   0  0  0  0  0  0  0  0  0  0  0  0
   12.0457  -14.0238   21.2547 O   0  0  0  0  0  0  0  0  0  0  0  0
    7.0760  -13.3427   21.4985 C   0  0  0  0  0  0  0  0  0  0  0  0
    8.0132  -14.1259   20.5860 C   0  0  1  0  0  0  0  0  0  0  0  0
    8.1634  -13.4218   19.2505 C   0  0  0  0  0  0  0  0  0  0  0  0
    9.3620  -14.3521   21.2397 C   0  0  2  0  0  0  0  0  0  0  0  0
   10.2357  -15.1875   20.4525 N   0  0  0  0  0  0  0  0  0  0  0  0
    9.0776  -15.0601   22.5225 C   0  0  0  0  0  0  0  0  0  0  0  0
    9.5194  -16.2225   22.6462 O   0  0  0  0  0  0  0  0  0  0  0  0
    6.4883  -10.5548   26.2314 C   0  0  0  0  0  0  0  0  0  0  0  0
    7.0483  -11.9098   27.2486 S   0  0  0  0  0  0  0  0  0  0  0  0
    8.0630  -13.1321   26.4488 C   0  0  0  0  0  0  0  0  0  0  0  0
    7.3305  -14.2472   25.7818 C   0  0  0  0  0  0  0  0  0  0  0  0
    8.1268  -15.1077   24.8628 C   0  0  2  0  0  0  0  0  0  0  0  0
    8.3378  -14.4467   23.5685 N   0  0  0  0  0  0  0  0  0  0  0  0
    7.3708  -16.3617   24.5256 C   0  0  0  0  0  0  0  0  0  0  0  0
    7.6461  -17.5615   25.1837 O   0  0  0  0  0  0  0  0  0  0  0  0
    6.4679  -16.3878   23.6466 O   0  0  0  0  0  0  0  0  0  0  0  0
  1  2  1  0
  2  3  2  0
  4  5  1  0
  4  2  1  0
  5  6  1  0
  6  8  1  0
  6  7  1  1
  8  9  2  0
 11 10  1  1
 11 12  1  0
 11 13  1  0
 13 14  1  6
 14  8  1  0
 15 13  1  0
 15 16  2  0
 17 18  1  0
 19 20  1  0
 19 18  1  0
 21 20  1  1
 21 22  1  0
 21 23  1  0
 22 15  1  0
 23 25  2  0
 23 24  1  0
M  END
$$$$
