QVM.pdb
     RDKit          3D

 25 24  0  0  1  0  0  0  0  0999 V2000
   11.0242  -21.0669   21.7497 N   0  0  0  0  0  0  0  0  0  0  0  0
   11.7223  -21.2396   20.5283 C   0  0  0  0  0  0  0  0  0  0  0  0
   11.8501  -22.4071   20.0191 O   0  0  0  0  0  0  0  0  0  0  0  0
   12.3113  -20.1006   19.8069 C   0  0  0  0  0  0  0  0  0  0  0  0
   12.0720  -18.7724   20.4103 C   0  0  0  0  0  0  0  0  0  0  0  0
   11.1342  -17.8871   19.7001 C   0  0  2  0  0  0  0  0  0  0  0  0
   11.8189  -17.4902   18.4410 N   0  0  0  0  0  0  0  0  0  0  0  0
   10.6567  -16.6957   20.3994 C   0  0  0  0  0  0  0  0  0  0  0  0
   11.4664  -15.7611   20.6427 O   0  0  0  0  0  0  0  0  0  0  0  0
    7.1911  -13.5735   21.9616 C   0  0  0  0  0  0  0  0  0  0  0  0
    7.6015  -14.7656   21.1043 C   0  0  1  0  0  0  0  0  0  0  0  0
    7.5885  -14.3907   19.6342 C   0  0  0  0  0  0  0  0  0  0  0  0
    8.9557  -15.3062   21.5189 C   0  0  2  0  0  0  0  0  0  0  0  0
    9.3090  -16.5250   20.8327 N   0  0  0  0  0  0  0  0  0  0  0  0
    8.8420  -15.6121   22.9753 C   0  0  0  0  0  0  0  0  0  0  0  0
    9.0658  -16.7882   23.3336 O   0  0  0  0  0  0  0  0  0  0  0  0
    5.5242  -11.2313   26.9591 C   0  0  0  0  0  0  0  0  0  0  0  0
    6.7003  -12.2014   27.8864 S   0  0  0  0  0  0  0  0  0  0  0  0
    7.2481  -13.7149   27.1298 C   0  0  0  0  0  0  0  0  0  0  0  0
    8.3466  -13.5793   26.1299 C   0  0  0  0  0  0  0  0  0  0  0  0
    8.7037  -14.8076   25.3664 C   0  0  2  0  0  0  0  0  0  0  0  0
    8.4962  -14.6144   23.9254 N   0  0  0  0  0  0  0  0  0  0  0  0
    7.7864  -15.9408   25.7295 C   0  0  0  0  0  0  0  0  0  0  0  0
    6.6585  -16.2235   24.9572 O   0  0  0  0  0  0  0  0  0  0  0  0
    7.9893  -16.6765   26.7326 O   0  0  0  0  0  0  0  0  0  0  0  0
  1  2  1  0
  2  3  2  0
  4  5  1  0
  4  2  1  0
  5  6  1  0
  6  8  1  0
  6  7  1  6
  8  9  2  0
 11 10  1  1
 11 12  1  0
 11 13  1  0
 13 14  1  6
 14  8  1  0
 15 13  1  0
 15 16  2  0
 17 18  1  0
 19 20  1  0
 19 18  1  0
 21 20  1  1
 21 22  1  0
 21 23  1  0
 22 15  1  0
 23 25  2  0
 23 24  1  0
M  END
$$$$
