QVM.pdb
     RDKit          3D

 25 24  0  0  1  0  0  0  0  0999 V2000
   12.4181  -20.1517   21.9709 N   0  0  0  0  0  0  0  0  0  0  0  0
   13.1146  -20.1153   20.7369 C   0  0  0  0  0  0  0  0  0  0  0  0
   14.0370  -20.9685   20.4926 O   0  0  0  0  0  0  0  0  0  0  0  0
   12.8039  -19.1154   19.7032 C   0  0  0  0  0  0  0  0  0  0  0  0
   11.3707  -18.9655   19.3730 C   0  0  0  0  0  0  0  0  0  0  0  0
   10.8958  -17.5963   19.1136 C   0  0  2  0  0  0  0  0  0  0  0  0
   11.9372  -16.9545   18.2680 N   0  0  0  0  0  0  0  0  0  0  0  0
   10.6013  -16.7457   20.2653 C   0  0  0  0  0  0  0  0  0  0  0  0
   11.5160  -16.0232   20.7445 O   0  0  0  0  0  0  0  0  0  0  0  0
    7.4899  -14.4983   23.4068 C   0  0  0  0  0  0  0  0  0  0  0  0
    7.6845  -15.3298   22.1439 C   0  0  1  0  0  0  0  0  0  0  0  0
    7.1934  -14.5682   20.9270 C   0  0  0  0  0  0  0  0  0  0  0  0
    9.1302  -15.7539   21.9769 C   0  0  2  0  0  0  0  0  0  0  0  0
    9.3218  -16.6848   20.8917 N   0  0  0  0  0  0  0  0  0  0  0  0
    9.5004  -16.4432   23.2479 C   0  0  0  0  0  0  0  0  0  0  0  0
    9.3753  -17.6860   23.2839 O   0  0  0  0  0  0  0  0  0  0  0  0
   10.9481  -12.8386   29.6047 C   0  0  0  0  0  0  0  0  0  0  0  0
   10.3168  -13.1489   27.9648 S   0  0  0  0  0  0  0  0  0  0  0  0
   10.0519  -14.8527   27.5288 C   0  0  0  0  0  0  0  0  0  0  0  0
   11.0269  -15.4334   26.5608 C   0  0  0  0  0  0  0  0  0  0  0  0
   10.4823  -16.4091   25.5756 C   0  0  2  0  0  0  0  0  0  0  0  0
    9.9789  -15.7262   24.3769 N   0  0  0  0  0  0  0  0  0  0  0  0
    9.2810  -17.1140   26.1390 C   0  0  0  0  0  0  0  0  0  0  0  0
    9.4290  -18.2114   26.9889 O   0  0  0  0  0  0  0  0  0  0  0  0
    8.1028  -16.7531   25.8741 O   0  0  0  0  0  0  0  0  0  0  0  0
  1  2  1  0
  2  3  2  0
  4  5  1  0
  4  2  1  0
  5  6  1  0
  6  8  1  0
  6  7  1  6
  8  9  2  0
 11 10  1  1
 11 12  1  0
 11 13  1  0
 13 14  1  6
 14  8  1  0
 15 13  1  0
 15 16  2  0
 17 18  1  0
 19 20  1  0
 19 18  1  0
 21 20  1  1
 21 22  1  0
 21 23  1  0
 22 15  1  0
 23 25  2  0
 23 24  1  0
M  END
$$$$
