QVM.pdb
     RDKit          3D

 25 24  0  0  1  0  0  0  0  0999 V2000
   11.5490  -21.5165   19.4751 N   0  0  0  0  0  0  0  0  0  0  0  0
   10.7754  -20.6104   18.7072 C   0  0  0  0  0  0  0  0  0  0  0  0
   11.2417  -20.1291   17.6166 O   0  0  0  0  0  0  0  0  0  0  0  0
    9.4252  -20.2006   19.1242 C   0  0  0  0  0  0  0  0  0  0  0  0
    9.3559  -18.9620   19.9284 C   0  0  0  0  0  0  0  0  0  0  0  0
    8.7966  -17.7752   19.2604 C   0  0  2  0  0  0  0  0  0  0  0  0
    9.1408  -17.9149   17.8203 N   0  0  0  0  0  0  0  0  0  0  0  0
    9.2134  -16.4598   19.7425 C   0  0  0  0  0  0  0  0  0  0  0  0
   10.3642  -16.0360   19.4520 O   0  0  0  0  0  0  0  0  0  0  0  0
    7.5327  -13.1274   19.0399 C   0  0  0  0  0  0  0  0  0  0  0  0
    7.8204  -13.2128   20.5347 C   0  0  1  0  0  0  0  0  0  0  0  0
    6.5373  -13.4506   21.3086 C   0  0  0  0  0  0  0  0  0  0  0  0
    8.8498  -14.2828   20.8406 C   0  0  2  0  0  0  0  0  0  0  0  0
    8.3847  -15.6142   20.5371 N   0  0  0  0  0  0  0  0  0  0  0  0
    9.0940  -14.2024   22.3108 C   0  0  0  0  0  0  0  0  0  0  0  0
    9.3825  -13.0824   22.7840 O   0  0  0  0  0  0  0  0  0  0  0  0
    6.2298  -11.5619   26.4150 C   0  0  0  0  0  0  0  0  0  0  0  0
    7.4302  -12.6772   27.1215 S   0  0  0  0  0  0  0  0  0  0  0  0
    7.4461  -14.3343   26.4755 C   0  0  0  0  0  0  0  0  0  0  0  0
    7.7005  -14.4567   25.0109 C   0  0  0  0  0  0  0  0  0  0  0  0
    8.9069  -15.2333   24.6099 C   0  0  2  0  0  0  0  0  0  0  0  0
    9.0026  -15.3458   23.1488 N   0  0  0  0  0  0  0  0  0  0  0  0
    8.8048  -16.6533   25.0903 C   0  0  0  0  0  0  0  0  0  0  0  0
    9.1229  -16.9873   26.4077 O   0  0  0  0  0  0  0  0  0  0  0  0
    8.4335  -17.5937   24.3377 O   0  0  0  0  0  0  0  0  0  0  0  0
  1  2  1  0
  2  3  2  0
  4  5  1  0
  4  2  1  0
  5  6  1  0
  6  8  1  0
  6  7  1  6
  8  9  2  0
 11 10  1  6
 11 12  1  0
 11 13  1  0
 13 14  1  1
 14  8  1  0
 15 13  1  0
 15 16  2  0
 17 18  1  0
 19 20  1  0
 19 18  1  0
 21 20  1  6
 21 22  1  0
 21 23  1  0
 22 15  1  0
 23 25  2  0
 23 24  1  0
M  END
$$$$
