QVM.pdb
     RDKit          3D

 25 24  0  0  1  0  0  0  0  0999 V2000
    7.0410  -19.5705   24.3829 N   0  0  0  0  0  0  0  0  0  0  0  0
    6.4626  -20.1273   23.2148 C   0  0  0  0  0  0  0  0  0  0  0  0
    5.1940  -20.2770   23.1329 O   0  0  0  0  0  0  0  0  0  0  0  0
    7.2849  -20.5413   22.0671 C   0  0  0  0  0  0  0  0  0  0  0  0
    8.2181  -19.5177   21.5503 C   0  0  0  0  0  0  0  0  0  0  0  0
    7.6296  -18.4459   20.7304 C   0  0  2  0  0  0  0  0  0  0  0  0
    7.7084  -18.9170   19.3220 N   0  0  0  0  0  0  0  0  0  0  0  0
    8.2086  -17.1080   20.8369 C   0  0  0  0  0  0  0  0  0  0  0  0
    9.4190  -16.9370   20.5302 O   0  0  0  0  0  0  0  0  0  0  0  0
    7.8974  -12.2017   20.9693 C   0  0  0  0  0  0  0  0  0  0  0  0
    7.2607  -13.5681   20.7417 C   0  0  1  0  0  0  0  0  0  0  0  0
    6.9550  -13.7717   19.2696 C   0  0  0  0  0  0  0  0  0  0  0  0
    8.1360  -14.6836   21.2778 C   0  0  2  0  0  0  0  0  0  0  0  0
    7.4762  -15.9664   21.2768 N   0  0  0  0  0  0  0  0  0  0  0  0
    8.4359  -14.3193   22.6938 C   0  0  0  0  0  0  0  0  0  0  0  0
    8.4785  -13.1027   22.9763 O   0  0  0  0  0  0  0  0  0  0  0  0
    7.0839  -11.4468   27.7580 C   0  0  0  0  0  0  0  0  0  0  0  0
    6.2641  -11.9916   26.2696 S   0  0  0  0  0  0  0  0  0  0  0  0
    7.2254  -12.9950   25.1595 C   0  0  0  0  0  0  0  0  0  0  0  0
    7.5814  -14.3550   25.6583 C   0  0  0  0  0  0  0  0  0  0  0  0
    8.8264  -14.9589   25.1066 C   0  0  2  0  0  0  0  0  0  0  0  0
    8.6631  -15.3068   23.6892 N   0  0  0  0  0  0  0  0  0  0  0  0
    9.1235  -16.2673   25.7829 C   0  0  0  0  0  0  0  0  0  0  0  0
    9.8072  -16.3046   26.9993 O   0  0  0  0  0  0  0  0  0  0  0  0
    8.7751  -17.3741   25.2907 O   0  0  0  0  0  0  0  0  0  0  0  0
  1  2  1  0
  2  3  2  0
  4  5  1  0
  4  2  1  0
  5  6  1  0
  6  8  1  0
  6  7  1  6
  8  9  2  0
 11 10  1  6
 11 12  1  0
 11 13  1  0
 13 14  1  1
 14  8  1  0
 15 13  1  0
 15 16  2  0
 17 18  1  0
 19 20  1  0
 19 18  1  0
 21 20  1  1
 21 22  1  0
 21 23  1  0
 22 15  1  0
 23 25  2  0
 23 24  1  0
M  END
$$$$
