QVM.pdb
     RDKit          3D

 25 24  0  0  1  0  0  0  0  0999 V2000
   12.1848  -14.9560   20.1162 N   0  0  0  0  0  0  0  0  0  0  0  0
   12.3788  -14.0594   19.0357 C   0  0  0  0  0  0  0  0  0  0  0  0
   13.4514  -14.1129   18.3391 O   0  0  0  0  0  0  0  0  0  0  0  0
   11.3675  -13.0534   18.6750 C   0  0  0  0  0  0  0  0  0  0  0  0
   10.0590  -13.1966   19.3479 C   0  0  0  0  0  0  0  0  0  0  0  0
    9.2689  -14.3896   19.0015 C   0  0  2  0  0  0  0  0  0  0  0  0
    8.3524  -13.9710   17.9077 N   0  0  0  0  0  0  0  0  0  0  0  0
    8.5043  -15.0356   20.0666 C   0  0  0  0  0  0  0  0  0  0  0  0
    7.3764  -14.5698   20.3816 O   0  0  0  0  0  0  0  0  0  0  0  0
    7.3569  -18.8003   23.0267 C   0  0  0  0  0  0  0  0  0  0  0  0
    8.2202  -18.2493   21.8974 C   0  0  1  0  0  0  0  0  0  0  0  0
    7.8520  -18.9060   20.5801 C   0  0  0  0  0  0  0  0  0  0  0  0
    8.1140  -16.7400   21.8044 C   0  0  2  0  0  0  0  0  0  0  0  0
    8.9656  -16.1777   20.7849 N   0  0  0  0  0  0  0  0  0  0  0  0
    8.5701  -16.2189   23.1266 C   0  0  0  0  0  0  0  0  0  0  0  0
    9.7768  -16.3664   23.4160 O   0  0  0  0  0  0  0  0  0  0  0  0
    5.9568  -10.7121   26.5224 C   0  0  0  0  0  0  0  0  0  0  0  0
    6.1857  -12.1070   27.6115 S   0  0  0  0  0  0  0  0  0  0  0  0
    7.3514  -13.3412   27.0812 C   0  0  0  0  0  0  0  0  0  0  0  0
    7.1009  -13.9341   25.7356 C   0  0  0  0  0  0  0  0  0  0  0  0
    8.1574  -14.8388   25.2023 C   0  0  2  0  0  0  0  0  0  0  0  0
    7.6781  -15.5774   24.0270 N   0  0  0  0  0  0  0  0  0  0  0  0
    8.4947  -15.9058   26.2049 C   0  0  0  0  0  0  0  0  0  0  0  0
    7.7644  -17.0942   26.2576 O   0  0  0  0  0  0  0  0  0  0  0  0
    9.4372  -15.7789   27.0320 O   0  0  0  0  0  0  0  0  0  0  0  0
  1  2  1  0
  2  3  2  0
  4  5  1  0
  4  2  1  0
  5  6  1  0
  6  8  1  0
  6  7  1  6
  8  9  2  0
 11 10  1  1
 11 12  1  0
 11 13  1  0
 13 14  1  6
 14  8  1  0
 15 13  1  0
 15 16  2  0
 17 18  1  0
 19 20  1  0
 19 18  1  0
 21 20  1  1
 21 22  1  0
 21 23  1  0
 22 15  1  0
 23 25  2  0
 23 24  1  0
M  END
$$$$
