QVM.pdb
     RDKit          3D

 25 24  0  0  1  0  0  0  0  0999 V2000
    2.9165  -17.6804   20.9695 N   0  0  0  0  0  0  0  0  0  0  0  0
    2.9197  -18.9336   21.6316 C   0  0  0  0  0  0  0  0  0  0  0  0
    1.8821  -19.6825   21.5978 O   0  0  0  0  0  0  0  0  0  0  0  0
    4.0998  -19.4171   22.3654 C   0  0  0  0  0  0  0  0  0  0  0  0
    5.2308  -18.4687   22.4477 C   0  0  0  0  0  0  0  0  0  0  0  0
    5.8460  -18.0672   21.1719 C   0  0  2  0  0  0  0  0  0  0  0  0
    6.3481  -19.3198   20.5468 N   0  0  0  0  0  0  0  0  0  0  0  0
    6.9160  -17.0722   21.2125 C   0  0  0  0  0  0  0  0  0  0  0  0
    8.1025  -17.4541   21.3989 O   0  0  0  0  0  0  0  0  0  0  0  0
    8.7952  -12.5929   20.2790 C   0  0  0  0  0  0  0  0  0  0  0  0
    7.5601  -13.4862   20.3084 C   0  0  1  0  0  0  0  0  0  0  0  0
    7.0478  -13.7285   18.9009 C   0  0  0  0  0  0  0  0  0  0  0  0
    7.8392  -14.7944   21.0215 C   0  0  2  0  0  0  0  0  0  0  0  0
    6.6951  -15.6724   21.0544 N   0  0  0  0  0  0  0  0  0  0  0  0
    8.1794  -14.4257   22.4273 C   0  0  0  0  0  0  0  0  0  0  0  0
    7.8809  -13.2729   22.8062 O   0  0  0  0  0  0  0  0  0  0  0  0
    6.2014  -11.1623   27.4314 C   0  0  0  0  0  0  0  0  0  0  0  0
    6.3508  -12.8380   26.8365 S   0  0  0  0  0  0  0  0  0  0  0  0
    7.8634  -13.2462   25.9947 C   0  0  0  0  0  0  0  0  0  0  0  0
    7.9663  -14.6454   25.4882 C   0  0  0  0  0  0  0  0  0  0  0  0
    9.1766  -14.9721   24.6835 C   0  0  2  0  0  0  0  0  0  0  0  0
    8.8147  -15.3406   23.3087 N   0  0  0  0  0  0  0  0  0  0  0  0
    9.8619  -16.1918   25.2315 C   0  0  0  0  0  0  0  0  0  0  0  0
    9.9133  -17.3755   24.4935 O   0  0  0  0  0  0  0  0  0  0  0  0
   10.4128  -16.2025   26.3650 O   0  0  0  0  0  0  0  0  0  0  0  0
  1  2  1  0
  2  3  2  0
  4  5  1  0
  4  2  1  0
  5  6  1  0
  6  8  1  0
  6  7  1  1
  8  9  2  0
 11 10  1  6
 11 12  1  0
 11 13  1  0
 13 14  1  1
 14  8  1  0
 15 13  1  0
 15 16  2  0
 17 18  1  0
 19 20  1  0
 19 18  1  0
 21 20  1  1
 21 22  1  0
 21 23  1  0
 22 15  1  0
 23 25  2  0
 23 24  1  0
M  END
$$$$
