QVM.pdb
     RDKit          3D

 25 24  0  0  1  0  0  0  0  0999 V2000
    6.7522  -18.7304   21.7558 N   0  0  0  0  0  0  0  0  0  0  0  0
    6.8869  -18.3123   20.4081 C   0  0  0  0  0  0  0  0  0  0  0  0
    6.1911  -18.8683   19.4888 O   0  0  0  0  0  0  0  0  0  0  0  0
    7.8120  -17.2354   20.0217 C   0  0  0  0  0  0  0  0  0  0  0  0
    8.5180  -16.5716   21.1382 C   0  0  0  0  0  0  0  0  0  0  0  0
    7.9279  -15.3182   21.6363 C   0  0  2  0  0  0  0  0  0  0  0  0
    8.1606  -14.3046   20.5732 N   0  0  0  0  0  0  0  0  0  0  0  0
    8.3997  -14.8040   22.9207 C   0  0  0  0  0  0  0  0  0  0  0  0
    9.6395  -14.7067   23.1248 O   0  0  0  0  0  0  0  0  0  0  0  0
    7.7505  -12.9013   27.4650 C   0  0  0  0  0  0  0  0  0  0  0  0
    7.1465  -13.2063   26.0989 C   0  0  1  0  0  0  0  0  0  0  0  0
    6.7104  -11.9246   25.4140 C   0  0  0  0  0  0  0  0  0  0  0  0
    8.1097  -13.9903   25.2297 C   0  0  2  0  0  0  0  0  0  0  0  0
    7.5283  -14.4020   23.9753 N   0  0  0  0  0  0  0  0  0  0  0  0
    8.4497  -15.2186   26.0066 C   0  0  0  0  0  0  0  0  0  0  0  0
    7.5512  -16.0756   26.1470 O   0  0  0  0  0  0  0  0  0  0  0  0
   14.2993  -17.0408   24.9774 C   0  0  0  0  0  0  0  0  0  0  0  0
   13.0157  -18.2733   24.8445 S   0  0  0  0  0  0  0  0  0  0  0  0
   11.4142  -17.8173   25.4693 C   0  0  0  0  0  0  0  0  0  0  0  0
   11.4010  -17.1864   26.8209 C   0  0  0  0  0  0  0  0  0  0  0  0
   10.0936  -16.6466   27.2881 C   0  0  2  0  0  0  0  0  0  0  0  0
    9.7400  -15.4173   26.5665 N   0  0  0  0  0  0  0  0  0  0  0  0
   10.1800  -16.2255   28.7278 C   0  0  0  0  0  0  0  0  0  0  0  0
   10.0536  -17.1616   29.7555 O   0  0  0  0  0  0  0  0  0  0  0  0
   10.3671  -15.0266   29.0687 O   0  0  0  0  0  0  0  0  0  0  0  0
  1  2  1  0
  2  3  2  0
  4  5  1  0
  4  2  1  0
  5  6  1  0
  6  8  1  0
  6  7  1  6
  8  9  2  0
 11 10  1  1
 11 12  1  0
 11 13  1  0
 13 14  1  6
 14  8  1  0
 15 13  1  0
 15 16  2  0
 17 18  1  0
 19 20  1  0
 19 18  1  0
 21 20  1  6
 21 22  1  0
 21 23  1  0
 22 15  1  0
 23 25  2  0
 23 24  1  0
M  END
$$$$
