ARP.pdb
     RDKit          3D

 24 24  0  0  1  0  0  0  0  0999 V2000
   13.2494  -17.2943   22.1819 C   0  0  0  0  0  0  0  0  0  0  0  0
   12.3416  -17.4056   23.3603 C   0  0  2  0  0  0  0  0  0  0  0  0
   11.7516  -18.7254   23.4875 N   0  0  0  0  0  0  0  0  0  0  0  0
   11.2850  -16.3500   23.3796 C   0  0  0  0  0  0  0  0  0  0  0  0
   11.5920  -15.1321   23.4523 O   0  0  0  0  0  0  0  0  0  0  0  0
    8.6877  -11.4977   19.1172 N   0  0  0  0  0  0  0  0  0  0  0  0
    8.0783  -12.7471   18.8541 C   0  0  0  0  0  0  0  0  0  0  0  0
    8.0923  -13.3108   17.6699 N   0  0  0  0  0  0  0  0  0  0  0  0
    7.3960  -13.4974   19.8623 N   0  0  0  0  0  0  0  0  0  0  0  0
    8.0534  -14.4946   20.6860 C   0  0  0  0  0  0  0  0  0  0  0  0
    7.0923  -15.1008   21.6899 C   0  0  0  0  0  0  0  0  0  0  0  0
    7.7201  -16.0914   22.5767 C   0  0  0  0  0  0  0  0  0  0  0  0
    8.8626  -15.5903   23.4268 C   0  0  2  0  0  0  0  0  0  0  0  0
    9.9139  -16.6756   23.3176 N   0  0  0  0  0  0  0  0  0  0  0  0
    8.5608  -15.4496   24.8513 C   0  0  0  0  0  0  0  0  0  0  0  0
    8.7329  -16.5742   25.5081 O   0  0  0  0  0  0  0  0  0  0  0  0
    7.7941  -14.3102   17.6520 N   0  0  0  0  0  0  0  0  0  0  0  0
    8.1393  -14.3608   25.6125 C   0  0  0  0  0  0  0  0  0  0  0  0
    7.9410  -13.0210   24.9965 C   0  0  0  0  0  0  0  0  0  0  0  0
    6.7504  -12.4953   25.8144 C   0  0  0  0  0  0  0  0  0  0  0  0
    7.2657  -12.8114   27.2002 C   0  0  1  0  0  0  0  0  0  0  0  0
    7.7712  -14.2612   26.9874 C   0  0  0  0  0  0  0  0  0  0  0  0
    6.5416  -15.0985   27.2646 O   0  0  0  0  0  0  0  0  0  0  0  0
    5.8000  -15.4157   26.3004 O   0  0  0  0  0  0  0  0  0  0  0  0
  2  1  1  6
  2  3  1  0
  4  2  1  0
  4  5  2  0
  6  7  1  0
  7  9  1  0
  8  7  2  0
  9 10  1  0
 10 11  1  0
 11 12  1  0
 13 12  1  6
 13 14  1  0
 14  4  1  0
 15 13  1  0
 16 15  2  0
 17 15  1  0
 18 19  1  0
 18 17  1  0
 19 20  1  0
 20 21  1  0
 21 17  1  0
 21 22  1  1
 23 22  2  0
 24 22  1  0
M  END
$$$$
