ARP.pdb
     RDKit          3D

 24 24  0  0  1  0  0  0  0  0999 V2000
   13.8592  -17.4143   21.1944 C   0  0  0  0  0  0  0  0  0  0  0  0
   13.4275  -17.7810   22.5744 C   0  0  2  0  0  0  0  0  0  0  0  0
   12.7817  -19.0794   22.6305 N   0  0  0  0  0  0  0  0  0  0  0  0
   12.5702  -16.7362   23.2104 C   0  0  0  0  0  0  0  0  0  0  0  0
   12.9799  -15.5530   23.3324 O   0  0  0  0  0  0  0  0  0  0  0  0
    6.6922  -14.0526   19.6969 N   0  0  0  0  0  0  0  0  0  0  0  0
    7.4076  -13.3010   20.6586 C   0  0  0  0  0  0  0  0  0  0  0  0
    7.6095  -12.0099   20.5468 N   0  0  0  0  0  0  0  0  0  0  0  0
    7.9696  -13.8917   21.8334 N   0  0  0  0  0  0  0  0  0  0  0  0
    7.2002  -14.7094   22.7524 C   0  0  0  0  0  0  0  0  0  0  0  0
    8.0368  -15.1374   23.9422 C   0  0  0  0  0  0  0  0  0  0  0  0
    9.0726  -16.1247   23.6046 C   0  0  0  0  0  0  0  0  0  0  0  0
   10.4096  -15.9407   24.2811 C   0  0  2  0  0  0  0  0  0  0  0  0
   11.2790  -17.0338   23.6944 N   0  0  0  0  0  0  0  0  0  0  0  0
   10.4061  -16.1484   25.7292 C   0  0  0  0  0  0  0  0  0  0  0  0
   10.3294  -17.4207   26.0475 O   0  0  0  0  0  0  0  0  0  0  0  0
    8.1939  -11.5865   21.2999 N   0  0  0  0  0  0  0  0  0  0  0  0
   10.4727  -15.2582   26.7995 C   0  0  0  0  0  0  0  0  0  0  0  0
   10.1945  -13.8084   26.6139 C   0  0  0  0  0  0  0  0  0  0  0  0
    9.5257  -13.4639   27.9544 C   0  0  0  0  0  0  0  0  0  0  0  0
   10.5317  -14.1032   28.8844 C   0  0  1  0  0  0  0  0  0  0  0  0
   10.7274  -15.4735   28.1868 C   0  0  0  0  0  0  0  0  0  0  0  0
    9.6369  -16.3282   28.7952 O   0  0  0  0  0  0  0  0  0  0  0  0
    8.5719  -16.4946   28.1485 O   0  0  0  0  0  0  0  0  0  0  0  0
  2  1  1  6
  2  3  1  0
  4  2  1  0
  4  5  2  0
  6  7  1  0
  7  9  1  0
  8  7  2  0
  9 10  1  0
 10 11  1  0
 11 12  1  0
 13 12  1  6
 13 14  1  0
 14  4  1  0
 15 13  1  0
 16 15  2  0
 17 15  1  0
 18 19  1  0
 18 17  1  0
 19 20  1  0
 20 21  1  0
 21 17  1  0
 21 22  1  6
 23 22  2  0
 24 22  1  0
M  END
$$$$
