ARP.pdb
     RDKit          3D

 24 24  0  0  1  0  0  0  0  0999 V2000
    9.6277  -12.8751   20.0811 C   0  0  0  0  0  0  0  0  0  0  0  0
    8.4188  -13.7438   19.9853 C   0  0  2  0  0  0  0  0  0  0  0  0
    7.4900  -13.2966   18.9638 N   0  0  0  0  0  0  0  0  0  0  0  0
    7.7222  -13.9141   21.2955 C   0  0  0  0  0  0  0  0  0  0  0  0
    6.8126  -13.1204   21.6497 O   0  0  0  0  0  0  0  0  0  0  0  0
    7.4406  -21.5081   24.8037 N   0  0  0  0  0  0  0  0  0  0  0  0
    8.3550  -20.4968   25.1816 C   0  0  0  0  0  0  0  0  0  0  0  0
    9.5649  -20.7569   25.6160 N   0  0  0  0  0  0  0  0  0  0  0  0
    8.0313  -19.1052   25.1197 N   0  0  0  0  0  0  0  0  0  0  0  0
    6.6673  -18.6113   25.0955 C   0  0  0  0  0  0  0  0  0  0  0  0
    6.6294  -17.1051   24.9263 C   0  0  0  0  0  0  0  0  0  0  0  0
    7.2725  -16.6387   23.6891 C   0  0  0  0  0  0  0  0  0  0  0  0
    7.2918  -15.1445   23.4745 C   0  0  2  0  0  0  0  0  0  0  0  0
    8.0548  -14.9627   22.1785 N   0  0  0  0  0  0  0  0  0  0  0  0
    8.0160  -14.3810   24.4907 C   0  0  0  0  0  0  0  0  0  0  0  0
    9.2865  -14.7104   24.5465 O   0  0  0  0  0  0  0  0  0  0  0  0
   10.1396  -19.9193   25.8528 N   0  0  0  0  0  0  0  0  0  0  0  0
    7.6064  -13.3902   25.3812 C   0  0  0  0  0  0  0  0  0  0  0  0
    6.2453  -12.7949   25.2983 C   0  0  0  0  0  0  0  0  0  0  0  0
    5.9444  -12.5424   26.7844 C   0  0  0  0  0  0  0  0  0  0  0  0
    7.2353  -11.8546   27.1670 C   0  0  2  0  0  0  0  0  0  0  0  0
    8.2658  -12.8023   26.5017 C   0  0  0  0  0  0  0  0  0  0  0  0
    8.5157  -13.8438   27.5707 O   0  0  0  0  0  0  0  0  0  0  0  0
    7.9334  -14.9539   27.4767 O   0  0  0  0  0  0  0  0  0  0  0  0
  2  1  1  1
  2  3  1  0
  4  2  1  0
  4  5  2  0
  6  7  1  0
  7  9  1  0
  8  7  2  0
  9 10  1  0
 10 11  1  0
 11 12  1  0
 13 12  1  1
 13 14  1  0
 14  4  1  0
 15 13  1  0
 16 15  2  0
 17 15  1  0
 18 19  1  0
 18 17  1  0
 19 20  1  0
 20 21  1  0
 21 17  1  0
 21 22  1  1
 23 22  2  0
 24 22  1  0
M  END
$$$$
