ARP.pdb
     RDKit          3D

 24 24  0  0  1  0  0  0  0  0999 V2000
    9.2617  -12.8996   19.8839 C   0  0  0  0  0  0  0  0  0  0  0  0
    8.2516  -13.9972   19.8670 C   0  0  2  0  0  0  0  0  0  0  0  0
    7.2916  -13.8554   18.7879 N   0  0  0  0  0  0  0  0  0  0  0  0
    7.5537  -14.1628   21.1771 C   0  0  0  0  0  0  0  0  0  0  0  0
    6.5460  -13.4660   21.4632 O   0  0  0  0  0  0  0  0  0  0  0  0
    7.7885  -21.2851   24.1927 N   0  0  0  0  0  0  0  0  0  0  0  0
    8.4539  -20.3292   24.9958 C   0  0  0  0  0  0  0  0  0  0  0  0
    9.7434  -20.3718   25.2323 N   0  0  0  0  0  0  0  0  0  0  0  0
    7.7710  -19.2365   25.6157 N   0  0  0  0  0  0  0  0  0  0  0  0
    6.5338  -18.6822   25.0988 C   0  0  0  0  0  0  0  0  0  0  0  0
    6.6214  -17.1750   24.9583 C   0  0  0  0  0  0  0  0  0  0  0  0
    7.1896  -16.7389   23.6744 C   0  0  0  0  0  0  0  0  0  0  0  0
    7.2639  -15.2471   23.4548 C   0  0  2  0  0  0  0  0  0  0  0  0
    7.9942  -15.0992   22.1358 N   0  0  0  0  0  0  0  0  0  0  0  0
    8.0494  -14.5123   24.4464 C   0  0  0  0  0  0  0  0  0  0  0  0
    9.2773  -14.9693   24.5439 O   0  0  0  0  0  0  0  0  0  0  0  0
   10.1073  -19.6059   25.8396 N   0  0  0  0  0  0  0  0  0  0  0  0
    7.7333  -13.4400   25.2786 C   0  0  0  0  0  0  0  0  0  0  0  0
    6.4521  -12.6988   25.1268 C   0  0  0  0  0  0  0  0  0  0  0  0
    6.1436  -12.3429   26.5900 C   0  0  0  0  0  0  0  0  0  0  0  0
    7.4946  -11.7886   26.9817 C   0  0  2  0  0  0  0  0  0  0  0  0
    8.4264  -12.8778   26.3919 C   0  0  0  0  0  0  0  0  0  0  0  0
    8.5272  -13.8886   27.5135 O   0  0  0  0  0  0  0  0  0  0  0  0
    7.8040  -14.9156   27.4645 O   0  0  0  0  0  0  0  0  0  0  0  0
  2  1  1  1
  2  3  1  0
  4  2  1  0
  4  5  2  0
  6  7  1  0
  7  9  1  0
  8  7  2  0
  9 10  1  0
 10 11  1  0
 11 12  1  0
 13 12  1  1
 13 14  1  0
 14  4  1  0
 15 13  1  0
 16 15  2  0
 17 15  1  0
 18 19  1  0
 18 17  1  0
 19 20  1  0
 20 21  1  0
 21 17  1  0
 21 22  1  1
 23 22  2  0
 24 22  1  0
M  END
$$$$
