ARP.pdb
     RDKit          3D

 24 24  0  0  1  0  0  0  0  0999 V2000
    9.9919  -12.7288   19.9518 C   0  0  0  0  0  0  0  0  0  0  0  0
    8.8825  -13.6811   19.6562 C   0  0  2  0  0  0  0  0  0  0  0  0
    8.2206  -13.3933   18.3971 N   0  0  0  0  0  0  0  0  0  0  0  0
    7.8882  -13.7754   20.7668 C   0  0  0  0  0  0  0  0  0  0  0  0
    6.7604  -13.2264   20.6704 O   0  0  0  0  0  0  0  0  0  0  0  0
    7.6007  -19.0508   26.3920 N   0  0  0  0  0  0  0  0  0  0  0  0
    8.4382  -19.5411   25.3625 C   0  0  0  0  0  0  0  0  0  0  0  0
    9.5373  -20.2164   25.5996 N   0  0  0  0  0  0  0  0  0  0  0  0
    8.1517  -19.3385   23.9762 N   0  0  0  0  0  0  0  0  0  0  0  0
    7.1488  -18.4019   23.5050 C   0  0  0  0  0  0  0  0  0  0  0  0
    7.6863  -16.9844   23.4814 C   0  0  0  0  0  0  0  0  0  0  0  0
    6.6900  -15.9876   23.0625 C   0  0  0  0  0  0  0  0  0  0  0  0
    7.1481  -14.5490   23.0692 C   0  0  2  0  0  0  0  0  0  0  0  0
    8.1735  -14.4779   21.9564 N   0  0  0  0  0  0  0  0  0  0  0  0
    7.8325  -14.1215   24.2894 C   0  0  0  0  0  0  0  0  0  0  0  0
    9.0588  -14.5875   24.3592 O   0  0  0  0  0  0  0  0  0  0  0  0
   10.0604  -20.5226   24.7508 N   0  0  0  0  0  0  0  0  0  0  0  0
    7.4243  -13.3252   25.3579 C   0  0  0  0  0  0  0  0  0  0  0  0
    6.0567  -12.7411   25.4047 C   0  0  0  0  0  0  0  0  0  0  0  0
    5.7714  -12.7824   26.9146 C   0  0  0  0  0  0  0  0  0  0  0  0
    7.0602  -12.1659   27.4092 C   0  0  2  0  0  0  0  0  0  0  0  0
    8.0916  -12.9559   26.5638 C   0  0  0  0  0  0  0  0  0  0  0  0
    8.3644  -14.1804   27.4100 O   0  0  0  0  0  0  0  0  0  0  0  0
    7.7765  -15.2536   27.1222 O   0  0  0  0  0  0  0  0  0  0  0  0
  2  1  1  1
  2  3  1  0
  4  2  1  0
  4  5  2  0
  6  7  1  0
  7  9  1  0
  8  7  2  0
  9 10  1  0
 10 11  1  0
 11 12  1  0
 13 12  1  1
 13 14  1  0
 14  4  1  0
 15 13  1  0
 16 15  2  0
 17 15  1  0
 18 19  1  0
 18 17  1  0
 19 20  1  0
 20 21  1  0
 21 17  1  0
 21 22  1  1
 23 22  2  0
 24 22  1  0
M  END
$$$$
