ARP.pdb
     RDKit          3D

 24 24  0  0  1  0  0  0  0  0999 V2000
   12.4706  -19.3381   23.1717 C   0  0  0  0  0  0  0  0  0  0  0  0
   12.1589  -18.1995   22.2597 C   0  0  2  0  0  0  0  0  0  0  0  0
   13.2601  -17.8794   21.3702 N   0  0  0  0  0  0  0  0  0  0  0  0
   11.6983  -16.9810   22.9905 C   0  0  0  0  0  0  0  0  0  0  0  0
   12.4883  -16.0288   23.2181 O   0  0  0  0  0  0  0  0  0  0  0  0
    8.9038  -14.4285   19.6735 N   0  0  0  0  0  0  0  0  0  0  0  0
    7.9416  -13.4786   20.0897 C   0  0  0  0  0  0  0  0  0  0  0  0
    8.0155  -12.2067   19.7780 N   0  0  0  0  0  0  0  0  0  0  0  0
    6.8075  -13.8310   20.8864 N   0  0  0  0  0  0  0  0  0  0  0  0
    6.9218  -14.4315   22.2022 C   0  0  0  0  0  0  0  0  0  0  0  0
    8.3711  -14.6847   22.5685 C   0  0  0  0  0  0  0  0  0  0  0  0
    8.5374  -15.3766   23.8551 C   0  0  0  0  0  0  0  0  0  0  0  0
    9.9593  -15.6539   24.2799 C   0  0  2  0  0  0  0  0  0  0  0  0
   10.3706  -16.8524   23.4495 N   0  0  0  0  0  0  0  0  0  0  0  0
   10.1236  -16.0455   25.6798 C   0  0  0  0  0  0  0  0  0  0  0  0
    9.9966  -17.3419   25.8502 O   0  0  0  0  0  0  0  0  0  0  0  0
    7.2794  -11.6031   20.2043 N   0  0  0  0  0  0  0  0  0  0  0  0
   10.3883  -15.3052   26.8306 C   0  0  0  0  0  0  0  0  0  0  0  0
   10.1495  -13.8372   26.8741 C   0  0  0  0  0  0  0  0  0  0  0  0
    9.7041  -13.6554   28.3340 C   0  0  0  0  0  0  0  0  0  0  0  0
   10.8086  -14.4355   29.0104 C   0  0  1  0  0  0  0  0  0  0  0  0
   10.8374  -15.7068   28.1240 C   0  0  0  0  0  0  0  0  0  0  0  0
    9.8134  -16.6071   28.7802 O   0  0  0  0  0  0  0  0  0  0  0  0
    8.6775  -16.7111   28.2519 O   0  0  0  0  0  0  0  0  0  0  0  0
  2  1  1  1
  2  3  1  0
  4  2  1  0
  4  5  2  0
  6  7  1  0
  7  9  1  0
  8  7  2  0
  9 10  1  0
 10 11  1  0
 11 12  1  0
 13 12  1  1
 13 14  1  0
 14  4  1  0
 15 13  1  0
 16 15  2  0
 17 15  1  0
 18 19  1  0
 18 17  1  0
 19 20  1  0
 20 21  1  0
 21 17  1  0
 21 22  1  6
 23 22  2  0
 24 22  1  0
M  END
$$$$
