ARP.pdb
     RDKit          3D

 24 24  0  0  1  0  0  0  0  0999 V2000
    8.7531  -12.7018   19.5632 C   0  0  0  0  0  0  0  0  0  0  0  0
    8.4267  -14.1517   19.6913 C   0  0  2  0  0  0  0  0  0  0  0  0
    7.8180  -14.6948   18.4910 N   0  0  0  0  0  0  0  0  0  0  0  0
    7.5903  -14.4536   20.8914 C   0  0  0  0  0  0  0  0  0  0  0  0
    6.4788  -15.0311   20.7736 O   0  0  0  0  0  0  0  0  0  0  0  0
    8.6100  -18.6055   27.0330 N   0  0  0  0  0  0  0  0  0  0  0  0
    7.6332  -19.4955   26.5279 C   0  0  0  0  0  0  0  0  0  0  0  0
    7.4822  -20.7178   26.9790 N   0  0  0  0  0  0  0  0  0  0  0  0
    6.7292  -19.1317   25.4813 N   0  0  0  0  0  0  0  0  0  0  0  0
    7.1456  -18.4136   24.2913 C   0  0  0  0  0  0  0  0  0  0  0  0
    6.9933  -16.9156   24.4699 C   0  0  0  0  0  0  0  0  0  0  0  0
    7.4277  -16.1395   23.2992 C   0  0  0  0  0  0  0  0  0  0  0  0
    7.2771  -14.6410   23.4042 C   0  0  2  0  0  0  0  0  0  0  0  0
    8.0112  -14.1056   22.1920 N   0  0  0  0  0  0  0  0  0  0  0  0
    7.9128  -14.0339   24.5735 C   0  0  0  0  0  0  0  0  0  0  0  0
    9.1501  -14.4450   24.7346 O   0  0  0  0  0  0  0  0  0  0  0  0
    6.6820  -21.2456   26.5679 N   0  0  0  0  0  0  0  0  0  0  0  0
    7.4501  -13.1182   25.5168 C   0  0  0  0  0  0  0  0  0  0  0  0
    6.0435  -12.6336   25.4945 C   0  0  0  0  0  0  0  0  0  0  0  0
    5.7658  -12.4691   26.9973 C   0  0  0  0  0  0  0  0  0  0  0  0
    7.0073  -11.6943   27.3772 C   0  0  2  0  0  0  0  0  0  0  0  0
    8.0916  -12.5256   26.6452 C   0  0  0  0  0  0  0  0  0  0  0  0
    8.4554  -13.5869   27.6606 O   0  0  0  0  0  0  0  0  0  0  0  0
    7.9486  -14.7312   27.5426 O   0  0  0  0  0  0  0  0  0  0  0  0
  2  1  1  6
  2  3  1  0
  4  2  1  0
  4  5  2  0
  6  7  1  0
  7  9  1  0
  8  7  2  0
  9 10  1  0
 10 11  1  0
 11 12  1  0
 13 12  1  1
 13 14  1  0
 14  4  1  0
 15 13  1  0
 16 15  2  0
 17 15  1  0
 18 19  1  0
 18 17  1  0
 19 20  1  0
 20 21  1  0
 21 17  1  0
 21 22  1  1
 23 22  2  0
 24 22  1  0
M  END
$$$$
