ARP.pdb
     RDKit          3D

 24 24  0  0  1  0  0  0  0  0999 V2000
   12.2725  -18.6023   21.9158 C   0  0  0  0  0  0  0  0  0  0  0  0
   11.5031  -17.3987   21.4861 C   0  0  2  0  0  0  0  0  0  0  0  0
   12.2150  -16.6028   20.5033 N   0  0  0  0  0  0  0  0  0  0  0  0
   11.0636  -16.5513   22.6348 C   0  0  0  0  0  0  0  0  0  0  0  0
   11.7420  -15.5560   22.9981 O   0  0  0  0  0  0  0  0  0  0  0  0
    6.9391  -10.9879   25.2148 N   0  0  0  0  0  0  0  0  0  0  0  0
    5.9562  -11.9141   25.6365 C   0  0  0  0  0  0  0  0  0  0  0  0
    4.8223  -11.5486   26.1853 N   0  0  0  0  0  0  0  0  0  0  0  0
    6.1216  -13.3276   25.4974 N   0  0  0  0  0  0  0  0  0  0  0  0
    7.3473  -14.0187   25.8512 C   0  0  0  0  0  0  0  0  0  0  0  0
    7.2208  -15.5134   25.6304 C   0  0  0  0  0  0  0  0  0  0  0  0
    7.9248  -15.9894   24.4307 C   0  0  0  0  0  0  0  0  0  0  0  0
    9.4323  -15.9238   24.4768 C   0  0  2  0  0  0  0  0  0  0  0  0
    9.8807  -16.8321   23.3503 N   0  0  0  0  0  0  0  0  0  0  0  0
   10.0393  -16.4511   25.6989 C   0  0  0  0  0  0  0  0  0  0  0  0
   10.2049  -17.7533   25.6483 O   0  0  0  0  0  0  0  0  0  0  0  0
    4.2014  -12.3324   26.4820 N   0  0  0  0  0  0  0  0  0  0  0  0
   10.4647  -15.8305   26.8720 C   0  0  0  0  0  0  0  0  0  0  0  0
   10.2206  -14.3821   27.1094 C   0  0  0  0  0  0  0  0  0  0  0  0
    9.9953  -14.3677   28.6299 C   0  0  0  0  0  0  0  0  0  0  0  0
   11.1956  -15.1862   29.0481 C   0  0  2  0  0  0  0  0  0  0  0  0
   11.1050  -16.3552   28.0342 C   0  0  0  0  0  0  0  0  0  0  0  0
   10.1989  -17.3462   28.7316 O   0  0  0  0  0  0  0  0  0  0  0  0
    9.0277  -17.4971   28.3006 O   0  0  0  0  0  0  0  0  0  0  0  0
  2  1  1  1
  2  3  1  0
  4  2  1  0
  4  5  2  0
  6  7  1  0
  7  9  1  0
  8  7  2  0
  9 10  1  0
 10 11  1  0
 11 12  1  0
 13 12  1  1
 13 14  1  0
 14  4  1  0
 15 13  1  0
 16 15  2  0
 17 15  1  0
 18 19  1  0
 18 17  1  0
 19 20  1  0
 20 21  1  0
 21 17  1  0
 21 22  1  1
 23 22  2  0
 24 22  1  0
M  END
$$$$
