ARP.pdb
     RDKit          3D

 24 24  0  0  1  0  0  0  0  0999 V2000
   12.5443  -18.1482   25.0345 C   0  0  0  0  0  0  0  0  0  0  0  0
   12.3985  -17.4877   23.7050 C   0  0  2  0  0  0  0  0  0  0  0  0
   13.6734  -17.0910   23.1362 N   0  0  0  0  0  0  0  0  0  0  0  0
   11.4497  -16.3344   23.7318 C   0  0  0  0  0  0  0  0  0  0  0  0
   11.8644  -15.1630   23.9282 O   0  0  0  0  0  0  0  0  0  0  0  0
    7.9089  -14.7379   17.6831 N   0  0  0  0  0  0  0  0  0  0  0  0
    7.9996  -13.7547   18.6963 C   0  0  0  0  0  0  0  0  0  0  0  0
    8.1020  -12.4729   18.4376 N   0  0  0  0  0  0  0  0  0  0  0  0
    7.9867  -14.0815   20.0884 N   0  0  0  0  0  0  0  0  0  0  0  0
    6.7636  -14.2175   20.8570 C   0  0  0  0  0  0  0  0  0  0  0  0
    7.0534  -14.6420   22.2834 C   0  0  0  0  0  0  0  0  0  0  0  0
    8.1912  -15.5659   22.3995 C   0  0  0  0  0  0  0  0  0  0  0  0
    9.1273  -15.3225   23.5587 C   0  0  2  0  0  0  0  0  0  0  0  0
   10.0637  -16.5132   23.5394 N   0  0  0  0  0  0  0  0  0  0  0  0
    8.4937  -15.3167   24.8772 C   0  0  0  0  0  0  0  0  0  0  0  0
    8.2959  -16.5310   25.3377 O   0  0  0  0  0  0  0  0  0  0  0  0
    8.2843  -12.2364   17.4382 N   0  0  0  0  0  0  0  0  0  0  0  0
    8.0794  -14.2776   25.7086 C   0  0  0  0  0  0  0  0  0  0  0  0
    8.0840  -12.8661   25.2379 C   0  0  0  0  0  0  0  0  0  0  0  0
    6.8517  -12.3090   25.9687 C   0  0  0  0  0  0  0  0  0  0  0  0
    7.1552  -12.8243   27.3573 C   0  0  1  0  0  0  0  0  0  0  0  0
    7.5496  -14.2879   27.0334 C   0  0  0  0  0  0  0  0  0  0  0  0
    6.2237  -15.0164   27.0638 O   0  0  0  0  0  0  0  0  0  0  0  0
    5.7399  -15.3388   28.1784 O   0  0  0  0  0  0  0  0  0  0  0  0
  2  1  1  1
  2  3  1  0
  4  2  1  0
  4  5  2  0
  6  7  1  0
  7  9  1  0
  8  7  2  0
  9 10  1  0
 10 11  1  0
 11 12  1  0
 13 12  1  6
 13 14  1  0
 14  4  1  0
 15 13  1  0
 16 15  2  0
 17 15  1  0
 18 19  1  0
 18 17  1  0
 19 20  1  0
 20 21  1  0
 21 17  1  0
 21 22  1  6
 23 22  2  0
 24 22  1  0
M  END
$$$$
