ARP.pdb
     RDKit          3D

 24 24  0  0  1  0  0  0  0  0999 V2000
    9.9753  -18.6101   16.4977 C   0  0  0  0  0  0  0  0  0  0  0  0
    8.5128  -18.3785   16.3165 C   0  0  2  0  0  0  0  0  0  0  0  0
    8.1567  -18.1146   14.9345 N   0  0  0  0  0  0  0  0  0  0  0  0
    7.9798  -17.3095   17.2132 C   0  0  0  0  0  0  0  0  0  0  0  0
    8.0306  -16.0991   16.8740 O   0  0  0  0  0  0  0  0  0  0  0  0
    6.8667  -17.3470   25.2562 N   0  0  0  0  0  0  0  0  0  0  0  0
    6.8119  -18.7183   24.9125 C   0  0  0  0  0  0  0  0  0  0  0  0
    6.8124  -19.6772   25.8074 N   0  0  0  0  0  0  0  0  0  0  0  0
    6.7514  -19.1695   23.5569 N   0  0  0  0  0  0  0  0  0  0  0  0
    5.9491  -18.5144   22.5409 C   0  0  0  0  0  0  0  0  0  0  0  0
    6.8199  -17.7885   21.5342 C   0  0  0  0  0  0  0  0  0  0  0  0
    6.0650  -17.2279   20.4039 C   0  0  0  0  0  0  0  0  0  0  0  0
    6.8782  -16.5073   19.3558 C   0  0  2  0  0  0  0  0  0  0  0  0
    7.4039  -17.6138   18.4645 N   0  0  0  0  0  0  0  0  0  0  0  0
    8.0501  -15.7931   19.8622 C   0  0  0  0  0  0  0  0  0  0  0  0
    9.0288  -16.6094   20.1812 O   0  0  0  0  0  0  0  0  0  0  0  0
    6.7083  -20.6412   25.4231 N   0  0  0  0  0  0  0  0  0  0  0  0
    8.3042  -14.4365   20.0556 C   0  0  0  0  0  0  0  0  0  0  0  0
    7.3269  -13.4007   19.6247 C   0  0  0  0  0  0  0  0  0  0  0  0
    7.5177  -12.3422   20.7229 C   0  0  0  0  0  0  0  0  0  0  0  0
    9.0271  -12.2583   20.7019 C   0  0  2  0  0  0  0  0  0  0  0  0
    9.3915  -13.7649   20.6902 C   0  0  0  0  0  0  0  0  0  0  0  0
    9.4416  -14.1182   22.1607 O   0  0  0  0  0  0  0  0  0  0  0  0
   10.4610  -13.7967   22.8222 O   0  0  0  0  0  0  0  0  0  0  0  0
  2  1  1  6
  2  3  1  0
  4  2  1  0
  4  5  2  0
  6  7  1  0
  7  9  1  0
  8  7  2  0
  9 10  1  0
 10 11  1  0
 11 12  1  0
 13 12  1  1
 13 14  1  0
 14  4  1  0
 15 13  1  0
 16 15  2  0
 17 15  1  0
 18 19  1  0
 18 17  1  0
 19 20  1  0
 20 21  1  0
 21 17  1  0
 21 22  1  1
 23 22  2  0
 24 22  1  0
M  END
$$$$
