RWN.pdb
     RDKit          3D

 34 35  0  0  1  0  0  0  0  0999 V2000
   27.0463  -21.1121  -18.6976 N   0  0  0  0  0  0  0  0  0  0  0  0
   26.2362  -19.9437  -18.6599 C   0  0  0  0  0  0  0  0  0  0  0  0
   25.2125  -19.8216  -19.4303 N   0  0  0  0  0  0  0  0  0  0  0  0
   26.5134  -18.8577  -17.7795 N   0  0  0  0  0  0  0  0  0  0  0  0
   27.5573  -18.9702  -16.8015 C   0  0  0  0  0  0  0  0  0  0  0  0
   27.4128  -20.0701  -15.8187 C   0  0  0  0  0  0  0  0  0  0  0  0
   26.7465  -19.7820  -14.5330 C   0  0  0  0  0  0  0  0  0  0  0  0
   27.5187  -20.2705  -13.3518 C   0  0  2  0  0  0  0  0  0  0  0  0
   28.4978  -21.2394  -13.7914 N   0  0  0  0  0  0  0  0  0  0  0  0
   26.6103  -20.8683  -12.3124 C   0  0  0  0  0  0  0  0  0  0  0  0
   25.9622  -21.8990  -12.6068 O   0  0  0  0  0  0  0  0  0  0  0  0
   24.6821  -18.9270  -19.3953 N   0  0  0  0  0  0  0  0  0  0  0  0
   26.4853  -20.2962  -11.0456 C   0  0  2  0  0  0  0  0  0  0  0  0
   25.6515  -20.7751   -9.9627 C   0  0  0  0  0  0  0  0  0  0  0  0
   25.9899  -20.0822   -8.6399 C   0  0  0  0  0  0  0  0  0  0  0  0
   27.3715  -20.4237   -8.2263 C   0  0  0  0  0  0  0  0  0  0  0  0
   28.3209  -21.1785   -8.8608 N   0  0  0  0  0  0  0  0  0  0  0  0
   29.4253  -21.2139   -8.0906 C   0  0  0  0  0  0  0  0  0  0  0  0
   29.2298  -20.4968   -6.9553 C   0  0  0  0  0  0  0  0  0  0  0  0
   30.0219  -20.2237   -5.8683 C   0  0  0  0  0  0  0  0  0  0  0  0
   29.5317  -19.4442   -4.8429 C   0  0  0  0  0  0  0  0  0  0  0  0
   28.2578  -18.9269   -4.8785 C   0  0  0  0  0  0  0  0  0  0  0  0
   27.4803  -19.2215   -5.9930 C   0  0  0  0  0  0  0  0  0  0  0  0
   27.9467  -19.9994   -7.0337 C   0  0  0  0  0  0  0  0  0  0  0  0
   24.2356  -20.5802  -10.2349 O   0  0  0  0  0  0  0  0  0  0  0  0
   23.7845  -19.4211  -10.5285 N   0  0  0  0  0  0  0  0  0  0  0  0
   19.7856  -21.9352  -13.4005 C   0  0  0  0  0  0  0  0  0  0  0  0
   20.0654  -22.3937  -12.0952 O   0  0  0  0  0  0  0  0  0  0  0  0
   19.1181  -22.6629  -11.3280 C   0  0  0  0  0  0  0  0  0  0  0  0
   21.4506  -22.5627  -11.6129 C   0  0  1  0  0  0  0  0  0  0  0  0
   21.9167  -21.3967  -10.7616 N   0  0  0  0  0  0  0  0  0  0  0  0
   23.2373  -21.6156  -10.2064 C   0  0  0  0  0  0  0  0  0  0  0  0
   20.9135  -21.1781   -9.6953 O   0  0  0  0  0  0  0  0  0  0  0  0
   21.1803  -21.5375   -8.5267 O   0  0  0  0  0  0  0  0  0  0  0  0
  2  3  2  0
  2  1  1  0
  4  2  1  0
  5  6  1  0
  5  4  1  0
  7  6  1  0
  8  9  1  6
  8  7  1  0
 10  8  1  0
 11 10  2  0
 12 10  1  0
 13 24  1  0
 13 12  1  0
 13 14  1  6
 15 14  1  0
 16 15  2  0
 17 18  1  0
 17 16  1  0
 18 23  2  0
 19 20  2  0
 19 18  1  0
 20 21  1  0
 21 22  2  0
 23 22  1  0
 23 15  1  0
 24 31  1  0
 25 24  2  0
 27 28  2  0
 27 26  1  0
 30 29  1  6
 29 27  1  0
 30 32  1  0
 31 30  1  0
 32 33  2  0
 32 34  1  0
M  END
$$$$
