RWN.pdb
     RDKit          3D

 34 35  0  0  1  0  0  0  0  0999 V2000
   27.2186  -22.1760  -19.1130 N   0  0  0  0  0  0  0  0  0  0  0  0
   28.3627  -21.3581  -19.3254 C   0  0  0  0  0  0  0  0  0  0  0  0
   28.7973  -21.1217  -20.5135 N   0  0  0  0  0  0  0  0  0  0  0  0
   29.0817  -20.7662  -18.2464 N   0  0  0  0  0  0  0  0  0  0  0  0
   28.5628  -20.8342  -16.9104 C   0  0  0  0  0  0  0  0  0  0  0  0
   28.4030  -22.1937  -16.3425 C   0  0  0  0  0  0  0  0  0  0  0  0
   27.7373  -22.3353  -15.0322 C   0  0  0  0  0  0  0  0  0  0  0  0
   26.8656  -21.1718  -14.6904 C   0  0  2  0  0  0  0  0  0  0  0  0
   27.6953  -20.0576  -14.2896 N   0  0  0  0  0  0  0  0  0  0  0  0
   25.8860  -21.5217  -13.6038 C   0  0  0  0  0  0  0  0  0  0  0  0
   25.2456  -22.5941  -13.6991 O   0  0  0  0  0  0  0  0  0  0  0  0
   29.6616  -20.5501  -20.6098 N   0  0  0  0  0  0  0  0  0  0  0  0
   25.6876  -20.6783  -12.5097 C   0  0  1  0  0  0  0  0  0  0  0  0
   24.7496  -20.8809  -11.4251 C   0  0  0  0  0  0  0  0  0  0  0  0
   25.2321  -20.2215  -10.1301 C   0  0  0  0  0  0  0  0  0  0  0  0
   26.6085  -20.6708   -9.8134 C   0  0  0  0  0  0  0  0  0  0  0  0
   27.4513  -21.4913  -10.5134 N   0  0  0  0  0  0  0  0  0  0  0  0
   28.6000  -21.6167   -9.8212 C   0  0  0  0  0  0  0  0  0  0  0  0
   28.5384  -20.8951   -8.6736 C   0  0  0  0  0  0  0  0  0  0  0  0
   29.4219  -20.6913   -7.6433 C   0  0  0  0  0  0  0  0  0  0  0  0
   29.0644  -19.8841   -6.5849 C   0  0  0  0  0  0  0  0  0  0  0  0
   27.8347  -19.2707   -6.5316 C   0  0  0  0  0  0  0  0  0  0  0  0
   26.9622  -19.4967   -7.5905 C   0  0  0  0  0  0  0  0  0  0  0  0
   27.2950  -20.3004   -8.6624 C   0  0  0  0  0  0  0  0  0  0  0  0
   23.4276  -20.3617  -11.7406 O   0  0  0  0  0  0  0  0  0  0  0  0
   23.2911  -19.3810  -12.5487 N   0  0  0  0  0  0  0  0  0  0  0  0
   19.8056  -20.7019  -15.1795 C   0  0  0  0  0  0  0  0  0  0  0  0
   19.8667  -21.5958  -14.0888 O   0  0  0  0  0  0  0  0  0  0  0  0
   18.8803  -22.3185  -13.8375 C   0  0  0  0  0  0  0  0  0  0  0  0
   21.0678  -21.6979  -13.2363 C   0  0  1  0  0  0  0  0  0  0  0  0
   20.9716  -20.8383  -11.9900 N   0  0  0  0  0  0  0  0  0  0  0  0
   22.1909  -20.8675  -11.2074 C   0  0  0  0  0  0  0  0  0  0  0  0
   19.8120  -21.3073  -11.1983 O   0  0  0  0  0  0  0  0  0  0  0  0
   19.8931  -22.3971  -10.5885 O   0  0  0  0  0  0  0  0  0  0  0  0
  2  3  2  0
  2  1  1  0
  4  2  1  0
  5  6  1  0
  5  4  1  0
  7  6  1  0
  8  9  1  1
  8  7  1  0
 10  8  1  0
 11 10  2  0
 12 10  1  0
 13 24  1  0
 13 12  1  0
 13 14  1  1
 15 14  1  0
 16 15  2  0
 17 18  1  0
 17 16  1  0
 18 23  2  0
 19 20  2  0
 19 18  1  0
 20 21  1  0
 21 22  2  0
 23 22  1  0
 23 15  1  0
 24 31  1  0
 25 24  2  0
 27 28  2  0
 27 26  1  0
 30 29  1  6
 29 27  1  0
 30 32  1  0
 31 30  1  0
 32 33  2  0
 32 34  1  0
M  END
$$$$
