RWN.pdb
     RDKit          3D

 34 35  0  0  1  0  0  0  0  0999 V2000
   23.7605  -38.7272  -15.5637 N   0  0  0  0  0  0  0  0  0  0  0  0
   24.8442  -39.5927  -15.2484 C   0  0  0  0  0  0  0  0  0  0  0  0
   24.9210  -40.7718  -15.7584 N   0  0  0  0  0  0  0  0  0  0  0  0
   25.8890  -39.2057  -14.3595 N   0  0  0  0  0  0  0  0  0  0  0  0
   25.8548  -37.9206  -13.7221 C   0  0  0  0  0  0  0  0  0  0  0  0
   26.8301  -36.9214  -14.2189 C   0  0  0  0  0  0  0  0  0  0  0  0
   26.8827  -35.6012  -13.5597 C   0  0  0  0  0  0  0  0  0  0  0  0
   25.7432  -34.7131  -13.9377 C   0  0  2  0  0  0  0  0  0  0  0  0
   26.0452  -34.0597  -15.1917 N   0  0  0  0  0  0  0  0  0  0  0  0
   25.4609  -33.6973  -12.8647 C   0  0  0  0  0  0  0  0  0  0  0  0
   26.2154  -32.7017  -12.7709 O   0  0  0  0  0  0  0  0  0  0  0  0
   25.7455  -41.3560  -15.5097 N   0  0  0  0  0  0  0  0  0  0  0  0
   24.3854  -33.8503  -11.9887 C   0  0  2  0  0  0  0  0  0  0  0  0
   24.0496  -32.9842  -10.8776 C   0  0  0  0  0  0  0  0  0  0  0  0
   22.5346  -32.8223  -10.7251 C   0  0  0  0  0  0  0  0  0  0  0  0
   22.0063  -31.9487  -11.7995 C   0  0  0  0  0  0  0  0  0  0  0  0
   21.6341  -32.2536  -13.0809 N   0  0  0  0  0  0  0  0  0  0  0  0
   21.2235  -31.1236  -13.6883 C   0  0  0  0  0  0  0  0  0  0  0  0
   21.3149  -30.0719  -12.8357 C   0  0  0  0  0  0  0  0  0  0  0  0
   21.0285  -28.7353  -12.9583 C   0  0  0  0  0  0  0  0  0  0  0  0
   21.2312  -27.8910  -11.8880 C   0  0  0  0  0  0  0  0  0  0  0  0
   21.7174  -28.3549  -10.6880 C   0  0  0  0  0  0  0  0  0  0  0  0
   21.9977  -29.7137  -10.5955 C   0  0  0  0  0  0  0  0  0  0  0  0
   21.8040  -30.5810  -11.6518 C   0  0  0  0  0  0  0  0  0  0  0  0
   24.5886  -33.4753   -9.6186 O   0  0  0  0  0  0  0  0  0  0  0  0
   24.5782  -34.7250   -9.3513 N   0  0  0  0  0  0  0  0  0  0  0  0
   28.3534  -33.1233   -5.1099 C   0  0  0  0  0  0  0  0  0  0  0  0
   26.9829  -32.8349   -5.2859 O   0  0  0  0  0  0  0  0  0  0  0  0
   26.1842  -33.0839   -4.3594 C   0  0  0  0  0  0  0  0  0  0  0  0
   26.4690  -32.2465   -6.5388 C   0  0  1  0  0  0  0  0  0  0  0  0
   25.6583  -33.2345   -7.3560 N   0  0  0  0  0  0  0  0  0  0  0  0
   25.1640  -32.6530   -8.5879 C   0  0  0  0  0  0  0  0  0  0  0  0
   24.5483  -33.7273   -6.5096 O   0  0  0  0  0  0  0  0  0  0  0  0
   23.5501  -32.9945   -6.3289 O   0  0  0  0  0  0  0  0  0  0  0  0
  2  3  2  0
  2  1  1  0
  4  2  1  0
  5  6  1  0
  5  4  1  0
  7  6  1  0
  8  9  1  6
  8  7  1  0
 10  8  1  0
 11 10  2  0
 12 10  1  0
 13 24  1  0
 13 12  1  0
 13 14  1  6
 15 14  1  0
 16 15  2  0
 17 18  1  0
 17 16  1  0
 18 23  2  0
 19 20  2  0
 19 18  1  0
 20 21  1  0
 21 22  2  0
 23 22  1  0
 23 15  1  0
 24 31  1  0
 25 24  2  0
 27 28  2  0
 27 26  1  0
 30 29  1  6
 29 27  1  0
 30 32  1  0
 31 30  1  0
 32 33  2  0
 32 34  1  0
M  END
$$$$
