RWN.pdb
     RDKit          3D

 34 35  0  0  1  0  0  0  0  0999 V2000
   22.1698  -19.9785  -15.6696 N   0  0  0  0  0  0  0  0  0  0  0  0
   22.7805  -18.8847  -16.3430 C   0  0  0  0  0  0  0  0  0  0  0  0
   22.5488  -18.6604  -17.5889 N   0  0  0  0  0  0  0  0  0  0  0  0
   23.6730  -17.9911  -15.6824 N   0  0  0  0  0  0  0  0  0  0  0  0
   24.6090  -18.4898  -14.7159 C   0  0  0  0  0  0  0  0  0  0  0  0
   24.8869  -19.9446  -14.7692 C   0  0  0  0  0  0  0  0  0  0  0  0
   24.7735  -20.7289  -13.5234 C   0  0  0  0  0  0  0  0  0  0  0  0
   26.0288  -20.7263  -12.7145 C   0  0  2  0  0  0  0  0  0  0  0  0
   27.0268  -21.5315  -13.3826 N   0  0  0  0  0  0  0  0  0  0  0  0
   25.7833  -21.2349  -11.3202 C   0  0  0  0  0  0  0  0  0  0  0  0
   25.7649  -22.4730  -11.1304 O   0  0  0  0  0  0  0  0  0  0  0  0
   23.0407  -17.8610  -18.0383 N   0  0  0  0  0  0  0  0  0  0  0  0
   25.5800  -20.3565  -10.2550 C   0  0  2  0  0  0  0  0  0  0  0  0
   25.2824  -20.7186   -8.8848 C   0  0  0  0  0  0  0  0  0  0  0  0
   25.8236  -19.6823   -7.8961 C   0  0  0  0  0  0  0  0  0  0  0  0
   27.2401  -19.9775   -7.5753 C   0  0  0  0  0  0  0  0  0  0  0  0
   28.2381  -20.4774   -8.3676 N   0  0  0  0  0  0  0  0  0  0  0  0
   29.3597  -20.5822   -7.6291 C   0  0  0  0  0  0  0  0  0  0  0  0
   29.1278  -20.1613   -6.3600 C   0  0  0  0  0  0  0  0  0  0  0  0
   29.9184  -20.0675   -5.2420 C   0  0  0  0  0  0  0  0  0  0  0  0
   29.3848  -19.5889   -4.0648 C   0  0  0  0  0  0  0  0  0  0  0  0
   28.0689  -19.1984   -3.9780 C   0  0  0  0  0  0  0  0  0  0  0  0
   27.2943  -19.3054   -5.1278 C   0  0  0  0  0  0  0  0  0  0  0  0
   27.8035  -19.7813   -6.3193 C   0  0  0  0  0  0  0  0  0  0  0  0
   23.8533  -20.8693   -8.6567 O   0  0  0  0  0  0  0  0  0  0  0  0
   23.0145  -20.1436   -9.2915 N   0  0  0  0  0  0  0  0  0  0  0  0
   19.0739  -22.5478   -7.5494 C   0  0  0  0  0  0  0  0  0  0  0  0
   19.9560  -23.4101   -6.8632 O   0  0  0  0  0  0  0  0  0  0  0  0
   19.4901  -24.3803   -6.2307 C   0  0  0  0  0  0  0  0  0  0  0  0
   21.4165  -23.1939   -6.8737 C   0  0  2  0  0  0  0  0  0  0  0  0
   21.8174  -21.9677   -7.6718 N   0  0  0  0  0  0  0  0  0  0  0  0
   23.2556  -21.8031   -7.7401 C   0  0  0  0  0  0  0  0  0  0  0  0
   21.1689  -20.7880   -7.0560 O   0  0  0  0  0  0  0  0  0  0  0  0
   21.8075  -20.1109   -6.2194 O   0  0  0  0  0  0  0  0  0  0  0  0
  2  3  2  0
  2  1  1  0
  4  2  1  0
  5  6  1  0
  5  4  1  0
  7  6  1  0
  8  9  1  6
  8  7  1  0
 10  8  1  0
 11 10  2  0
 12 10  1  0
 13 24  1  0
 13 12  1  0
 13 14  1  6
 15 14  1  0
 16 15  2  0
 17 18  1  0
 17 16  1  0
 18 23  2  0
 19 20  2  0
 19 18  1  0
 20 21  1  0
 21 22  2  0
 23 22  1  0
 23 15  1  0
 24 31  1  0
 25 24  2  0
 27 28  2  0
 27 26  1  0
 30 29  1  6
 29 27  1  0
 30 32  1  0
 31 30  1  0
 32 33  2  0
 32 34  1  0
M  END
$$$$
