RWN.pdb
     RDKit          3D

 34 35  0  0  1  0  0  0  0  0999 V2000
   30.0457  -26.2438  -15.6926 N   0  0  0  0  0  0  0  0  0  0  0  0
   30.1393  -26.0247  -17.0948 C   0  0  0  0  0  0  0  0  0  0  0  0
   30.3985  -26.9936  -17.9013 N   0  0  0  0  0  0  0  0  0  0  0  0
   29.9559  -24.7355  -17.6741 N   0  0  0  0  0  0  0  0  0  0  0  0
   29.5543  -23.6274  -16.8557 C   0  0  0  0  0  0  0  0  0  0  0  0
   28.3516  -22.8877  -17.3060 C   0  0  0  0  0  0  0  0  0  0  0  0
   27.0405  -23.2660  -16.7420 C   0  0  0  0  0  0  0  0  0  0  0  0
   26.2528  -22.0938  -16.2563 C   0  0  2  0  0  0  0  0  0  0  0  0
   27.0948  -20.9184  -16.2652 N   0  0  0  0  0  0  0  0  0  0  0  0
   25.6985  -22.3388  -14.8795 C   0  0  0  0  0  0  0  0  0  0  0  0
   25.0955  -23.4149  -14.6608 O   0  0  0  0  0  0  0  0  0  0  0  0
   30.4372  -26.7812  -18.9193 N   0  0  0  0  0  0  0  0  0  0  0  0
   25.8472  -21.3960  -13.8614 C   0  0  1  0  0  0  0  0  0  0  0  0
   25.0417  -21.2884  -12.6627 C   0  0  0  0  0  0  0  0  0  0  0  0
   25.7863  -20.5520  -11.5456 C   0  0  0  0  0  0  0  0  0  0  0  0
   27.2041  -20.3502  -11.9273 C   0  0  0  0  0  0  0  0  0  0  0  0
   27.7429  -19.7332  -13.0238 N   0  0  0  0  0  0  0  0  0  0  0  0
   29.0853  -19.8056  -12.9399 C   0  0  0  0  0  0  0  0  0  0  0  0
   29.4508  -20.4589  -11.8080 C   0  0  0  0  0  0  0  0  0  0  0  0
   30.6672  -20.7909  -11.2660 C   0  0  0  0  0  0  0  0  0  0  0  0
   30.7200  -21.4751  -10.0709 C   0  0  0  0  0  0  0  0  0  0  0  0
   29.5762  -21.8384   -9.3990 C   0  0  0  0  0  0  0  0  0  0  0  0
   28.3597  -21.4874   -9.9738 C   0  0  0  0  0  0  0  0  0  0  0  0
   28.2786  -20.8024  -11.1695 C   0  0  0  0  0  0  0  0  0  0  0  0
   23.7839  -20.5996  -12.9087 O   0  0  0  0  0  0  0  0  0  0  0  0
   23.6741  -19.3470  -12.6800 N   0  0  0  0  0  0  0  0  0  0  0  0
   19.7367  -18.0283  -15.4244 C   0  0  0  0  0  0  0  0  0  0  0  0
   19.8412  -19.4284  -15.2786 O   0  0  0  0  0  0  0  0  0  0  0  0
   18.8075  -20.1258  -15.3376 C   0  0  0  0  0  0  0  0  0  0  0  0
   21.1424  -20.0901  -15.0573 C   0  0  1  0  0  0  0  0  0  0  0  0
   21.3716  -20.4509  -13.6018 N   0  0  0  0  0  0  0  0  0  0  0  0
   22.5861  -21.2182  -13.4110 C   0  0  0  0  0  0  0  0  0  0  0  0
   20.1844  -21.1932  -13.1213 O   0  0  0  0  0  0  0  0  0  0  0  0
   20.1304  -22.4314  -13.2947 O   0  0  0  0  0  0  0  0  0  0  0  0
  2  3  2  0
  2  1  1  0
  4  2  1  0
  5  6  1  0
  5  4  1  0
  7  6  1  0
  8  9  1  1
  8  7  1  0
 10  8  1  0
 11 10  2  0
 12 10  1  0
 13 24  1  0
 13 12  1  0
 13 14  1  1
 15 14  1  0
 16 15  2  0
 17 18  1  0
 17 16  1  0
 18 23  2  0
 19 20  2  0
 19 18  1  0
 20 21  1  0
 21 22  2  0
 23 22  1  0
 23 15  1  0
 24 31  1  0
 25 24  2  0
 27 28  2  0
 27 26  1  0
 30 29  1  1
 29 27  1  0
 30 32  1  0
 31 30  1  0
 32 33  2  0
 32 34  1  0
M  END
$$$$
