RWN.pdb
     RDKit          3D

 34 35  0  0  1  0  0  0  0  0999 V2000
   29.8462  -23.9036  -19.8614 N   0  0  0  0  0  0  0  0  0  0  0  0
   29.6606  -22.6800  -20.5622 C   0  0  0  0  0  0  0  0  0  0  0  0
   30.0839  -22.5365  -21.7691 N   0  0  0  0  0  0  0  0  0  0  0  0
   29.0062  -21.5601  -19.9714 N   0  0  0  0  0  0  0  0  0  0  0  0
   28.3193  -21.7037  -18.7198 C   0  0  0  0  0  0  0  0  0  0  0  0
   27.0187  -22.4124  -18.7686 C   0  0  0  0  0  0  0  0  0  0  0  0
   26.2491  -22.5579  -17.5169 C   0  0  0  0  0  0  0  0  0  0  0  0
   27.0878  -22.9995  -16.3628 C   0  0  2  0  0  0  0  0  0  0  0  0
   27.4393  -24.3914  -16.5355 N   0  0  0  0  0  0  0  0  0  0  0  0
   26.3739  -22.7910  -15.0552 C   0  0  0  0  0  0  0  0  0  0  0  0
   25.6778  -23.7269  -14.5985 O   0  0  0  0  0  0  0  0  0  0  0  0
   29.9899  -21.5979  -22.2086 N   0  0  0  0  0  0  0  0  0  0  0  0
   26.4783  -21.5865  -14.3582 C   0  0  2  0  0  0  0  0  0  0  0  0
   25.8570  -21.2692  -13.0891 C   0  0  0  0  0  0  0  0  0  0  0  0
   26.4672  -20.0140  -12.4593 C   0  0  0  0  0  0  0  0  0  0  0  0
   27.5583  -20.3910  -11.5298 C   0  0  0  0  0  0  0  0  0  0  0  0
   28.8356  -20.8073  -11.7920 N   0  0  0  0  0  0  0  0  0  0  0  0
   29.4580  -21.0439  -10.6211 C   0  0  0  0  0  0  0  0  0  0  0  0
   28.6196  -20.7928   -9.5841 C   0  0  0  0  0  0  0  0  0  0  0  0
   28.7601  -20.8748   -8.2213 C   0  0  0  0  0  0  0  0  0  0  0  0
   27.7010  -20.5453   -7.4032 C   0  0  0  0  0  0  0  0  0  0  0  0
   26.4949  -20.1323   -7.9192 C   0  0  0  0  0  0  0  0  0  0  0  0
   26.3844  -20.0595   -9.3034 C   0  0  0  0  0  0  0  0  0  0  0  0
   27.4291  -20.3837  -10.1454 C   0  0  0  0  0  0  0  0  0  0  0  0
   24.4218  -21.0680  -13.2175 O   0  0  0  0  0  0  0  0  0  0  0  0
   23.9475  -20.3678  -14.1757 N   0  0  0  0  0  0  0  0  0  0  0  0
   19.0008  -22.6727  -12.9691 C   0  0  0  0  0  0  0  0  0  0  0  0
   19.6975  -22.0194  -11.9298 O   0  0  0  0  0  0  0  0  0  0  0  0
   19.0823  -21.2241  -11.1900 C   0  0  0  0  0  0  0  0  0  0  0  0
   21.1365  -22.2522  -11.6950 C   0  0  1  0  0  0  0  0  0  0  0  0
   22.0171  -21.3515  -12.5403 N   0  0  0  0  0  0  0  0  0  0  0  0
   23.4277  -21.6067  -12.3280 C   0  0  0  0  0  0  0  0  0  0  0  0
   21.6707  -19.9468  -12.2268 O   0  0  0  0  0  0  0  0  0  0  0  0
   22.2146  -19.3908  -11.2464 O   0  0  0  0  0  0  0  0  0  0  0  0
  2  3  2  0
  2  1  1  0
  4  2  1  0
  5  6  1  0
  5  4  1  0
  7  6  1  0
  8  9  1  6
  8  7  1  0
 10  8  1  0
 11 10  2  0
 12 10  1  0
 13 24  1  0
 13 12  1  0
 13 14  1  1
 15 14  1  0
 16 15  2  0
 17 18  1  0
 17 16  1  0
 18 23  2  0
 19 20  2  0
 19 18  1  0
 20 21  1  0
 21 22  2  0
 23 22  1  0
 23 15  1  0
 24 31  1  0
 25 24  2  0
 27 28  2  0
 27 26  1  0
 30 29  1  6
 29 27  1  0
 30 32  1  0
 31 30  1  0
 32 33  2  0
 32 34  1  0
M  END
$$$$
