RWN.pdb
     RDKit          3D

 34 35  0  0  1  0  0  0  0  0999 V2000
   10.7379  -15.6839    4.6078 N   0  0  0  0  0  0  0  0  0  0  0  0
   10.2772  -16.4107    3.4753 C   0  0  0  0  0  0  0  0  0  0  0  0
    9.4819  -15.8706    2.6197 N   0  0  0  0  0  0  0  0  0  0  0  0
   10.6651  -17.7604    3.2322 N   0  0  0  0  0  0  0  0  0  0  0  0
   12.0113  -18.1825    3.4939 C   0  0  0  0  0  0  0  0  0  0  0  0
   12.2847  -19.6291    3.3240 C   0  0  0  0  0  0  0  0  0  0  0  0
   13.6529  -20.1216    3.5799 C   0  0  0  0  0  0  0  0  0  0  0  0
   14.6353  -19.6836    2.5438 C   0  0  2  0  0  0  0  0  0  0  0  0
   14.4930  -20.5173    1.3710 N   0  0  0  0  0  0  0  0  0  0  0  0
   16.0447  -19.7396    3.0667 C   0  0  0  0  0  0  0  0  0  0  0  0
   16.8343  -20.5744    2.5680 O   0  0  0  0  0  0  0  0  0  0  0  0
    9.1419  -16.4605    1.8326 N   0  0  0  0  0  0  0  0  0  0  0  0
   16.4735  -18.8853    4.0835 C   0  0  2  0  0  0  0  0  0  0  0  0
   17.8170  -18.7849    4.6146 C   0  0  0  0  0  0  0  0  0  0  0  0
   18.1622  -17.3466    5.0105 C   0  0  0  0  0  0  0  0  0  0  0  0
   18.1914  -16.4815    3.8074 C   0  0  0  0  0  0  0  0  0  0  0  0
   17.2589  -15.5989    3.3330 N   0  0  0  0  0  0  0  0  0  0  0  0
   17.7288  -15.0484    2.1970 C   0  0  0  0  0  0  0  0  0  0  0  0
   18.9567  -15.5474    1.9059 C   0  0  0  0  0  0  0  0  0  0  0  0
   19.8446  -15.3214    0.8841 C   0  0  0  0  0  0  0  0  0  0  0  0
   21.0453  -15.9975    0.8588 C   0  0  0  0  0  0  0  0  0  0  0  0
   21.3823  -16.9017    1.8388 C   0  0  0  0  0  0  0  0  0  0  0  0
   20.4618  -17.1084    2.8603 C   0  0  0  0  0  0  0  0  0  0  0  0
   19.2524  -16.4447    2.9096 C   0  0  0  0  0  0  0  0  0  0  0  0
   18.0122  -19.6406    5.7750 O   0  0  0  0  0  0  0  0  0  0  0  0
   17.1235  -19.7049    6.6911 N   0  0  0  0  0  0  0  0  0  0  0  0
   20.4761  -23.8481    4.9598 C   0  0  0  0  0  0  0  0  0  0  0  0
   19.6732  -23.3936    6.0280 O   0  0  0  0  0  0  0  0  0  0  0  0
   18.4946  -23.7951    6.1178 C   0  0  0  0  0  0  0  0  0  0  0  0
   20.1913  -22.4543    7.0425 C   0  0  2  0  0  0  0  0  0  0  0  0
   19.2958  -21.2436    7.2257 N   0  0  0  0  0  0  0  0  0  0  0  0
   19.1660  -20.4674    6.0087 C   0  0  0  0  0  0  0  0  0  0  0  0
   19.8496  -20.4268    8.3290 O   0  0  0  0  0  0  0  0  0  0  0  0
   20.2232  -19.2564    8.0907 O   0  0  0  0  0  0  0  0  0  0  0  0
  2  3  2  0
  2  1  1  0
  4  2  1  0
  5  6  1  0
  5  4  1  0
  7  6  1  0
  8  9  1  6
  8  7  1  0
 10  8  1  0
 11 10  2  0
 12 10  1  0
 13 24  1  0
 13 12  1  0
 13 14  1  6
 15 14  1  0
 16 15  2  0
 17 18  1  0
 17 16  1  0
 18 23  2  0
 19 20  2  0
 19 18  1  0
 20 21  1  0
 21 22  2  0
 23 22  1  0
 23 15  1  0
 24 31  1  0
 25 24  2  0
 27 28  2  0
 27 26  1  0
 30 29  1  6
 29 27  1  0
 30 32  1  0
 31 30  1  0
 32 33  2  0
 32 34  1  0
M  END
$$$$
