RWN.pdb
     RDKit          3D

 34 35  0  0  1  0  0  0  0  0999 V2000
   24.6318  -20.2384  -17.4443 N   0  0  0  0  0  0  0  0  0  0  0  0
   24.1168  -19.0944  -16.7742 C   0  0  0  0  0  0  0  0  0  0  0  0
   23.1424  -18.4170  -17.2724 N   0  0  0  0  0  0  0  0  0  0  0  0
   24.6478  -18.6412  -15.5317 N   0  0  0  0  0  0  0  0  0  0  0  0
   25.3513  -19.5505  -14.6731 C   0  0  0  0  0  0  0  0  0  0  0  0
   24.8042  -20.9256  -14.5934 C   0  0  0  0  0  0  0  0  0  0  0  0
   25.4431  -21.8847  -13.6704 C   0  0  0  0  0  0  0  0  0  0  0  0
   26.3695  -21.2319  -12.6978 C   0  0  2  0  0  0  0  0  0  0  0  0
   27.7284  -21.6228  -12.9996 N   0  0  0  0  0  0  0  0  0  0  0  0
   26.0169  -21.5902  -11.2800 C   0  0  0  0  0  0  0  0  0  0  0  0
   26.2001  -22.7691  -10.8984 O   0  0  0  0  0  0  0  0  0  0  0  0
   22.8131  -17.5812  -16.7471 N   0  0  0  0  0  0  0  0  0  0  0  0
   25.4973  -20.6387  -10.4012 C   0  0  2  0  0  0  0  0  0  0  0  0
   25.1275  -20.8550   -9.0179 C   0  0  0  0  0  0  0  0  0  0  0  0
   25.4655  -19.6423   -8.1463 C   0  0  0  0  0  0  0  0  0  0  0  0
   26.9098  -19.6422   -7.8139 C   0  0  0  0  0  0  0  0  0  0  0  0
   28.0030  -19.5465   -8.6320 N   0  0  0  0  0  0  0  0  0  0  0  0
   29.1135  -19.6008   -7.8715 C   0  0  0  0  0  0  0  0  0  0  0  0
   28.7806  -19.7304   -6.5624 C   0  0  0  0  0  0  0  0  0  0  0  0
   29.5199  -19.8281   -5.4102 C   0  0  0  0  0  0  0  0  0  0  0  0
   28.8808  -19.9542   -4.1957 C   0  0  0  0  0  0  0  0  0  0  0  0
   27.5088  -19.9851   -4.1048 C   0  0  0  0  0  0  0  0  0  0  0  0
   26.7882  -19.8839   -5.2897 C   0  0  0  0  0  0  0  0  0  0  0  0
   27.4032  -19.7569   -6.5190 C   0  0  0  0  0  0  0  0  0  0  0  0
   23.7100  -21.1471   -8.8695 O   0  0  0  0  0  0  0  0  0  0  0  0
   22.8719  -20.7632   -9.7547 N   0  0  0  0  0  0  0  0  0  0  0  0
   19.0160  -22.9476   -7.5495 C   0  0  0  0  0  0  0  0  0  0  0  0
   19.8707  -23.2699   -6.4734 O   0  0  0  0  0  0  0  0  0  0  0  0
   19.4153  -23.9131   -5.5054 C   0  0  0  0  0  0  0  0  0  0  0  0
   21.2906  -22.8651   -6.4628 C   0  0  2  0  0  0  0  0  0  0  0  0
   21.7077  -22.1723   -7.7463 N   0  0  0  0  0  0  0  0  0  0  0  0
   23.1235  -21.8638   -7.7686 C   0  0  0  0  0  0  0  0  0  0  0  0
   20.8874  -20.9490   -7.8942 O   0  0  0  0  0  0  0  0  0  0  0  0
   21.3008  -19.8764   -7.3994 O   0  0  0  0  0  0  0  0  0  0  0  0
  2  3  2  0
  2  1  1  0
  4  2  1  0
  5  6  1  0
  5  4  1  0
  7  6  1  0
  8  9  1  6
  8  7  1  0
 10  8  1  0
 11 10  2  0
 12 10  1  0
 13 24  1  0
 13 12  1  0
 13 14  1  6
 15 14  1  0
 16 15  2  0
 17 18  1  0
 17 16  1  0
 18 23  2  0
 19 20  2  0
 19 18  1  0
 20 21  1  0
 21 22  2  0
 23 22  1  0
 23 15  1  0
 24 31  1  0
 25 24  2  0
 27 28  2  0
 27 26  1  0
 30 29  1  6
 29 27  1  0
 30 32  1  0
 31 30  1  0
 32 33  2  0
 32 34  1  0
M  END
$$$$
