RWN.pdb
     RDKit          3D

 34 35  0  0  1  0  0  0  0  0999 V2000
   31.2230  -25.3083  -15.2333 N   0  0  0  0  0  0  0  0  0  0  0  0
   30.3667  -25.7843  -16.2644 C   0  0  0  0  0  0  0  0  0  0  0  0
   30.0593  -27.0312  -16.3479 N   0  0  0  0  0  0  0  0  0  0  0  0
   29.8122  -24.9164  -17.2496 N   0  0  0  0  0  0  0  0  0  0  0  0
   29.5915  -23.5309  -16.9487 C   0  0  0  0  0  0  0  0  0  0  0  0
   28.7480  -23.2486  -15.7633 C   0  0  0  0  0  0  0  0  0  0  0  0
   28.4515  -21.8411  -15.4297 C   0  0  0  0  0  0  0  0  0  0  0  0
   27.8761  -21.0770  -16.5765 C   0  0  2  0  0  0  0  0  0  0  0  0
   28.9306  -20.7596  -17.5135 N   0  0  0  0  0  0  0  0  0  0  0  0
   27.1866  -19.8243  -16.1095 C   0  0  0  0  0  0  0  0  0  0  0  0
   27.8342  -19.0107  -15.4109 O   0  0  0  0  0  0  0  0  0  0  0  0
   29.5319  -27.3464  -17.1878 N   0  0  0  0  0  0  0  0  0  0  0  0
   25.8563  -19.5640  -16.4414 C   0  0  1  0  0  0  0  0  0  0  0  0
   25.1011  -18.3753  -16.1037 C   0  0  0  0  0  0  0  0  0  0  0  0
   25.0114  -17.4077  -17.2870 C   0  0  0  0  0  0  0  0  0  0  0  0
   26.3215  -16.7503  -17.5062 C   0  0  0  0  0  0  0  0  0  0  0  0
   27.3090  -17.0319  -18.4111 N   0  0  0  0  0  0  0  0  0  0  0  0
   28.3219  -16.1638  -18.2241 C   0  0  0  0  0  0  0  0  0  0  0  0
   28.0276  -15.3092  -17.2120 C   0  0  0  0  0  0  0  0  0  0  0  0
   28.7058  -14.2629  -16.6386 C   0  0  0  0  0  0  0  0  0  0  0  0
   28.1330  -13.5644  -15.5977 C   0  0  0  0  0  0  0  0  0  0  0  0
   26.8878  -13.8895  -15.1125 C   0  0  0  0  0  0  0  0  0  0  0  0
   26.2263  -14.9542  -15.7146 C   0  0  0  0  0  0  0  0  0  0  0  0
   26.7771  -15.6703  -16.7582 C   0  0  0  0  0  0  0  0  0  0  0  0
   23.7505  -18.6914  -15.6647 O   0  0  0  0  0  0  0  0  0  0  0  0
   23.0227  -19.5006  -16.3346 N   0  0  0  0  0  0  0  0  0  0  0  0
   19.1287  -19.1984  -13.4363 C   0  0  0  0  0  0  0  0  0  0  0  0
   19.3824  -17.9254  -13.9908 O   0  0  0  0  0  0  0  0  0  0  0  0
   18.4288  -17.1421  -14.1791 C   0  0  0  0  0  0  0  0  0  0  0  0
   20.7473  -17.4961  -14.3548 C   0  0  1  0  0  0  0  0  0  0  0  0
   21.7833  -18.5753  -14.1032 N   0  0  0  0  0  0  0  0  0  0  0  0
   23.1162  -18.1575  -14.4890 C   0  0  0  0  0  0  0  0  0  0  0  0
   21.3662  -19.7910  -14.8376 O   0  0  0  0  0  0  0  0  0  0  0  0
   21.0888  -19.7009  -16.0546 O   0  0  0  0  0  0  0  0  0  0  0  0
  2  3  2  0
  2  1  1  0
  4  2  1  0
  5  6  1  0
  5  4  1  0
  7  6  1  0
  8  9  1  6
  8  7  1  0
 10  8  1  0
 11 10  2  0
 12 10  1  0
 13 24  1  0
 13 12  1  0
 13 14  1  1
 15 14  1  0
 16 15  2  0
 17 18  1  0
 17 16  1  0
 18 23  2  0
 19 20  2  0
 19 18  1  0
 20 21  1  0
 21 22  2  0
 23 22  1  0
 23 15  1  0
 24 31  1  0
 25 24  2  0
 27 28  2  0
 27 26  1  0
 30 29  1  1
 29 27  1  0
 30 32  1  0
 31 30  1  0
 32 33  2  0
 32 34  1  0
M  END
$$$$
