RWN.pdb
     RDKit          3D

 34 35  0  0  1  0  0  0  0  0999 V2000
   30.5791  -22.9498  -17.4744 N   0  0  0  0  0  0  0  0  0  0  0  0
   29.5041  -22.8941  -18.4041 C   0  0  0  0  0  0  0  0  0  0  0  0
   29.5787  -23.4935  -19.5405 N   0  0  0  0  0  0  0  0  0  0  0  0
   28.3025  -22.1779  -18.1309 N   0  0  0  0  0  0  0  0  0  0  0  0
   28.0901  -21.5915  -16.8386 C   0  0  0  0  0  0  0  0  0  0  0  0
   28.9439  -22.1062  -15.7420 C   0  0  0  0  0  0  0  0  0  0  0  0
   28.3688  -22.1950  -14.3849 C   0  0  0  0  0  0  0  0  0  0  0  0
   27.4648  -21.0525  -14.0570 C   0  0  2  0  0  0  0  0  0  0  0  0
   28.2637  -19.8963  -13.7172 N   0  0  0  0  0  0  0  0  0  0  0  0
   26.5288  -21.3999  -12.9317 C   0  0  0  0  0  0  0  0  0  0  0  0
   25.9174  -22.4923  -12.9786 O   0  0  0  0  0  0  0  0  0  0  0  0
   28.7483  -23.4534  -20.1664 N   0  0  0  0  0  0  0  0  0  0  0  0
   26.3388  -20.5327  -11.8550 C   0  0  1  0  0  0  0  0  0  0  0  0
   25.4090  -20.7111  -10.7591 C   0  0  0  0  0  0  0  0  0  0  0  0
   25.8423  -19.9274   -9.5170 C   0  0  0  0  0  0  0  0  0  0  0  0
   27.1257  -20.4605   -9.0020 C   0  0  0  0  0  0  0  0  0  0  0  0
   28.0347  -21.2955   -9.5937 N   0  0  0  0  0  0  0  0  0  0  0  0
   29.0463  -21.5086   -8.7302 C   0  0  0  0  0  0  0  0  0  0  0  0
   28.8285  -20.8311   -7.5748 C   0  0  0  0  0  0  0  0  0  0  0  0
   29.5379  -20.7152   -6.4056 C   0  0  0  0  0  0  0  0  0  0  0  0
   29.0472  -19.9333   -5.3822 C   0  0  0  0  0  0  0  0  0  0  0  0
   27.8546  -19.2588   -5.5008 C   0  0  0  0  0  0  0  0  0  0  0  0
   27.1598  -19.3964   -6.6974 C   0  0  0  0  0  0  0  0  0  0  0  0
   27.6285  -20.1730   -7.7380 C   0  0  0  0  0  0  0  0  0  0  0  0
   24.0592  -20.3004  -11.1142 O   0  0  0  0  0  0  0  0  0  0  0  0
   23.8476  -19.1600  -11.6511 N   0  0  0  0  0  0  0  0  0  0  0  0
   19.7474  -22.3750  -14.4028 C   0  0  0  0  0  0  0  0  0  0  0  0
   20.4999  -21.3232  -13.8372 O   0  0  0  0  0  0  0  0  0  0  0  0
   20.1385  -20.1439  -14.0293 C   0  0  0  0  0  0  0  0  0  0  0  0
   21.7049  -21.5819  -13.0241 C   0  0  2  0  0  0  0  0  0  0  0  0
   21.6761  -20.8541  -11.6934 N   0  0  0  0  0  0  0  0  0  0  0  0
   22.8738  -21.0901  -10.9125 C   0  0  0  0  0  0  0  0  0  0  0  0
   20.4629  -21.2841  -10.9622 O   0  0  0  0  0  0  0  0  0  0  0  0
   19.3386  -20.9604  -11.4065 O   0  0  0  0  0  0  0  0  0  0  0  0
  2  3  2  0
  2  1  1  0
  4  2  1  0
  5  6  1  0
  5  4  1  0
  7  6  1  0
  8  9  1  1
  8  7  1  0
 10  8  1  0
 11 10  2  0
 12 10  1  0
 13 24  1  0
 13 12  1  0
 13 14  1  1
 15 14  1  0
 16 15  2  0
 17 18  1  0
 17 16  1  0
 18 23  2  0
 19 20  2  0
 19 18  1  0
 20 21  1  0
 21 22  2  0
 23 22  1  0
 23 15  1  0
 24 31  1  0
 25 24  2  0
 27 28  2  0
 27 26  1  0
 30 29  1  6
 29 27  1  0
 30 32  1  0
 31 30  1  0
 32 33  2  0
 32 34  1  0
M  END
$$$$
