RWN.pdb
     RDKit          3D

 34 35  0  0  1  0  0  0  0  0999 V2000
   25.9956  -23.5118  -21.3288 N   0  0  0  0  0  0  0  0  0  0  0  0
   26.8576  -24.6428  -21.3012 C   0  0  0  0  0  0  0  0  0  0  0  0
   26.6691  -25.6395  -22.0934 N   0  0  0  0  0  0  0  0  0  0  0  0
   27.9611  -24.7326  -20.4036 N   0  0  0  0  0  0  0  0  0  0  0  0
   28.2916  -23.6249  -19.5536 C   0  0  0  0  0  0  0  0  0  0  0  0
   27.2171  -23.1573  -18.6463 C   0  0  0  0  0  0  0  0  0  0  0  0
   27.3041  -23.5058  -17.2141 C   0  0  0  0  0  0  0  0  0  0  0  0
   27.7384  -22.3610  -16.3591 C   0  0  2  0  0  0  0  0  0  0  0  0
   29.1524  -22.4833  -16.0830 N   0  0  0  0  0  0  0  0  0  0  0  0
   26.9508  -22.3038  -15.0787 C   0  0  0  0  0  0  0  0  0  0  0  0
   26.2692  -23.3024  -14.7513 O   0  0  0  0  0  0  0  0  0  0  0  0
   27.3502  -26.4254  -22.0560 N   0  0  0  0  0  0  0  0  0  0  0  0
   26.9723  -21.1692  -14.2663 C   0  0  1  0  0  0  0  0  0  0  0  0
   26.2892  -21.0036  -13.0001 C   0  0  0  0  0  0  0  0  0  0  0  0
   26.8793  -19.8484  -12.1865 C   0  0  0  0  0  0  0  0  0  0  0  0
   27.8738  -20.3659  -11.2171 C   0  0  0  0  0  0  0  0  0  0  0  0
   29.0963  -20.9431  -11.4310 N   0  0  0  0  0  0  0  0  0  0  0  0
   29.6346  -21.2613  -10.2380 C   0  0  0  0  0  0  0  0  0  0  0  0
   28.7940  -20.9068   -9.2335 C   0  0  0  0  0  0  0  0  0  0  0  0
   28.8669  -21.0099   -7.8668 C   0  0  0  0  0  0  0  0  0  0  0  0
   27.8267  -20.5484   -7.0893 C   0  0  0  0  0  0  0  0  0  0  0  0
   26.7061  -19.9816   -7.6501 C   0  0  0  0  0  0  0  0  0  0  0  0
   26.6625  -19.8914   -9.0370 C   0  0  0  0  0  0  0  0  0  0  0  0
   27.6902  -20.3456   -9.8390 C   0  0  0  0  0  0  0  0  0  0  0  0
   24.8648  -20.7629  -13.1741 O   0  0  0  0  0  0  0  0  0  0  0  0
   24.4520  -19.8735  -13.9937 N   0  0  0  0  0  0  0  0  0  0  0  0
   19.5814  -21.4227  -13.9150 C   0  0  0  0  0  0  0  0  0  0  0  0
   20.0898  -21.9980  -12.7306 O   0  0  0  0  0  0  0  0  0  0  0  0
   19.3125  -22.2214  -11.7796 C   0  0  0  0  0  0  0  0  0  0  0  0
   21.5183  -22.3423  -12.5868 C   0  0  1  0  0  0  0  0  0  0  0  0
   22.4232  -21.1300  -12.6995 N   0  0  0  0  0  0  0  0  0  0  0  0
   23.8166  -21.4626  -12.4805 C   0  0  0  0  0  0  0  0  0  0  0  0
   21.9528  -20.1153  -11.7298 O   0  0  0  0  0  0  0  0  0  0  0  0
   22.4977  -20.0507  -10.6051 O   0  0  0  0  0  0  0  0  0  0  0  0
  2  3  2  0
  2  1  1  0
  4  2  1  0
  5  6  1  0
  5  4  1  0
  7  6  1  0
  8  9  1  1
  8  7  1  0
 10  8  1  0
 11 10  2  0
 12 10  1  0
 13 24  1  0
 13 12  1  0
 13 14  1  1
 15 14  1  0
 16 15  2  0
 17 18  1  0
 17 16  1  0
 18 23  2  0
 19 20  2  0
 19 18  1  0
 20 21  1  0
 21 22  2  0
 23 22  1  0
 23 15  1  0
 24 31  1  0
 25 24  2  0
 27 28  2  0
 27 26  1  0
 30 29  1  6
 29 27  1  0
 30 32  1  0
 31 30  1  0
 32 33  2  0
 32 34  1  0
M  END
$$$$
