VCV.pdb
     RDKit          3D

 21 20  0  0  1  0  0  0  0  0999 V2000
    7.4046  -17.4159   20.2420 C   0  0  0  0  0  0  0  0  0  0  0  0
    7.8493  -16.7115   21.4845 C   0  0  2  0  0  0  0  0  0  0  0  0
    7.1306  -17.2807   22.6621 C   0  0  0  0  0  0  0  0  0  0  0  0
    7.7225  -15.2103   21.3879 C   0  0  2  0  0  0  0  0  0  0  0  0
    8.4649  -14.7744   20.2445 N   0  0  0  0  0  0  0  0  0  0  0  0
    8.1148  -14.5303   22.6362 C   0  0  0  0  0  0  0  0  0  0  0  0
    9.3715  -14.4381   22.8478 O   0  0  0  0  0  0  0  0  0  0  0  0
    7.1842  -14.0010   23.5643 N   0  0  0  0  0  0  0  0  0  0  0  0
    7.7174  -13.3883   24.7818 C   0  0  1  0  0  0  0  0  0  0  0  0
    6.5112  -12.6392   25.3696 C   0  0  0  0  0  0  0  0  0  0  0  0
    6.9181  -12.0605   27.0225 S   0  0  0  0  0  0  0  0  0  0  0  0
    8.1319  -14.4080   25.7519 C   0  0  0  0  0  0  0  0  0  0  0  0
    7.3070  -15.3568   25.9898 O   0  0  0  0  0  0  0  0  0  0  0  0
   10.6970  -16.9798   25.5453 C   0  0  0  0  0  0  0  0  0  0  0  0
   10.9266  -16.3002   26.8545 C   0  0  1  0  0  0  0  0  0  0  0  0
   12.1373  -15.4289   26.7623 C   0  0  0  0  0  0  0  0  0  0  0  0
    9.7074  -15.5559   27.3527 C   0  0  2  0  0  0  0  0  0  0  0  0
    9.3393  -14.4745   26.4609 N   0  0  0  0  0  0  0  0  0  0  0  0
    9.9882  -14.9798   28.6780 C   0  0  0  0  0  0  0  0  0  0  0  0
   10.2635  -15.7907   29.7600 O   0  0  0  0  0  0  0  0  0  0  0  0
    9.9804  -13.7452   28.8390 O   0  0  0  0  0  0  0  0  0  0  0  0
  2  3  1  1
  2  1  1  0
  4  6  1  0
  4  2  1  0
  4  5  1  6
  6  8  1  0
  7  6  2  0
  8  9  1  0
  9 12  1  0
 10 11  1  0
  9 10  1  1
 12 18  1  0
 12 13  2  0
 15 14  1  6
 16 15  1  0
 17 15  1  0
 17 19  1  0
 17 18  1  6
 19 20  1  0
 21 19  2  0
M  END
$$$$
