VCV.pdb
     RDKit          3D

 21 20  0  0  1  0  0  0  0  0999 V2000
    9.8326  -18.4556   20.1626 C   0  0  0  0  0  0  0  0  0  0  0  0
    9.7572  -17.5833   21.3756 C   0  0  2  0  0  0  0  0  0  0  0  0
    9.1348  -18.3458   22.4975 C   0  0  0  0  0  0  0  0  0  0  0  0
    9.0728  -16.2641   21.1107 C   0  0  2  0  0  0  0  0  0  0  0  0
    9.7305  -15.6364   20.0052 N   0  0  0  0  0  0  0  0  0  0  0  0
    9.0052  -15.4130   22.3131 C   0  0  0  0  0  0  0  0  0  0  0  0
   10.0791  -14.7896   22.6142 O   0  0  0  0  0  0  0  0  0  0  0  0
    7.8402  -15.2723   23.1073 N   0  0  0  0  0  0  0  0  0  0  0  0
    7.9250  -14.4072   24.2847 C   0  0  1  0  0  0  0  0  0  0  0  0
    6.4559  -14.1755   24.6715 C   0  0  0  0  0  0  0  0  0  0  0  0
    6.3840  -13.3445   26.2642 S   0  0  0  0  0  0  0  0  0  0  0  0
    8.5830  -15.0937   25.4020 C   0  0  0  0  0  0  0  0  0  0  0  0
    8.5137  -16.3712   25.4244 O   0  0  0  0  0  0  0  0  0  0  0  0
    9.7436  -13.7202   29.2289 C   0  0  0  0  0  0  0  0  0  0  0  0
   10.8083  -14.3334   28.3810 C   0  0  1  0  0  0  0  0  0  0  0  0
   11.7979  -15.0394   29.2502 C   0  0  0  0  0  0  0  0  0  0  0  0
   10.2525  -15.2202   27.2886 C   0  0  2  0  0  0  0  0  0  0  0  0
    9.2912  -14.5154   26.4645 N   0  0  0  0  0  0  0  0  0  0  0  0
    9.5746  -16.3797   27.8913 C   0  0  0  0  0  0  0  0  0  0  0  0
    8.1981  -16.4327   27.9736 O   0  0  0  0  0  0  0  0  0  0  0  0
   10.2403  -17.3328   28.3369 O   0  0  0  0  0  0  0  0  0  0  0  0
  2  3  1  1
  2  1  1  0
  4  6  1  0
  4  2  1  0
  4  5  1  6
  6  8  1  0
  7  6  2  0
  8  9  1  0
  9 12  1  0
 10 11  1  0
  9 10  1  1
 12 18  1  0
 12 13  2  0
 15 14  1  1
 16 15  1  0
 17 15  1  0
 17 19  1  0
 17 18  1  1
 19 20  1  0
 21 19  2  0
M  END
$$$$
