VCV.pdb
     RDKit          3D

 21 20  0  0  1  0  0  0  0  0999 V2000
    7.0870  -12.9020   19.6650 C   0  0  0  0  0  0  0  0  0  0  0  0
    8.3479  -13.6776   19.4500 C   0  0  2  0  0  0  0  0  0  0  0  0
    8.9718  -13.2630   18.1593 C   0  0  0  0  0  0  0  0  0  0  0  0
    8.1460  -15.1702   19.5524 C   0  0  2  0  0  0  0  0  0  0  0  0
    7.4618  -15.6078   18.3738 N   0  0  0  0  0  0  0  0  0  0  0  0
    7.4701  -15.5628   20.8029 C   0  0  0  0  0  0  0  0  0  0  0  0
    6.1963  -15.4630   20.8015 O   0  0  0  0  0  0  0  0  0  0  0  0
    8.1582  -16.0256   21.9518 N   0  0  0  0  0  0  0  0  0  0  0  0
    7.3820  -16.2002   23.1802 C   0  0  1  0  0  0  0  0  0  0  0  0
    7.5645  -17.6885   23.5166 C   0  0  0  0  0  0  0  0  0  0  0  0
    8.8403  -17.8628   24.7714 S   0  0  0  0  0  0  0  0  0  0  0  0
    7.9488  -15.4155   24.2827 C   0  0  0  0  0  0  0  0  0  0  0  0
    9.1848  -15.0959   24.1966 O   0  0  0  0  0  0  0  0  0  0  0  0
    7.3326  -12.0892   27.8959 C   0  0  0  0  0  0  0  0  0  0  0  0
    6.8101  -13.0252   26.8570 C   0  0  1  0  0  0  0  0  0  0  0  0
    6.1948  -12.2442   25.7413 C   0  0  0  0  0  0  0  0  0  0  0  0
    7.8521  -14.0106   26.3755 C   0  0  2  0  0  0  0  0  0  0  0  0
    7.2941  -14.9633   25.4368 N   0  0  0  0  0  0  0  0  0  0  0  0
    8.3898  -14.7605   27.5224 C   0  0  0  0  0  0  0  0  0  0  0  0
    9.4932  -14.3040   28.2139 O   0  0  0  0  0  0  0  0  0  0  0  0
    7.8512  -15.8230   27.8845 O   0  0  0  0  0  0  0  0  0  0  0  0
  2  3  1  6
  2  1  1  0
  4  6  1  0
  4  2  1  0
  4  5  1  6
  6  8  1  0
  7  6  2  0
  8  9  1  0
  9 12  1  0
 10 11  1  0
  9 10  1  1
 12 18  1  0
 12 13  2  0
 15 14  1  1
 16 15  1  0
 17 15  1  0
 17 19  1  0
 17 18  1  6
 19 20  1  0
 21 19  2  0
M  END
$$$$
