VCV.pdb
     RDKit          3D

 21 20  0  0  1  0  0  0  0  0999 V2000
    8.4222  -13.2710   17.5555 C   0  0  0  0  0  0  0  0  0  0  0  0
    7.7431  -13.6817   18.8235 C   0  0  2  0  0  0  0  0  0  0  0  0
    7.9563  -12.6324   19.8632 C   0  0  0  0  0  0  0  0  0  0  0  0
    8.1471  -15.0600   19.2883 C   0  0  2  0  0  0  0  0  0  0  0  0
    7.8305  -15.9903   18.2476 N   0  0  0  0  0  0  0  0  0  0  0  0
    7.5523  -15.4123   20.5909 C   0  0  0  0  0  0  0  0  0  0  0  0
    6.4201  -16.0026   20.5437 O   0  0  0  0  0  0  0  0  0  0  0  0
    8.1693  -15.1292   21.8346 N   0  0  0  0  0  0  0  0  0  0  0  0
    7.4248  -15.4618   23.0499 C   0  0  1  0  0  0  0  0  0  0  0  0
    7.5096  -16.9946   23.1197 C   0  0  0  0  0  0  0  0  0  0  0  0
    9.2364  -17.4935   23.1647 S   0  0  0  0  0  0  0  0  0  0  0  0
    8.0846  -14.9185   24.2424 C   0  0  0  0  0  0  0  0  0  0  0  0
    9.3640  -14.8994   24.2440 O   0  0  0  0  0  0  0  0  0  0  0  0
    7.3599  -11.3923   25.8880 C   0  0  0  0  0  0  0  0  0  0  0  0
    7.4055  -12.4795   26.9100 C   0  0  1  0  0  0  0  0  0  0  0  0
    6.0167  -12.8154   27.3478 C   0  0  0  0  0  0  0  0  0  0  0  0
    8.1811  -13.6922   26.4446 C   0  0  2  0  0  0  0  0  0  0  0  0
    7.4783  -14.4076   25.3985 N   0  0  0  0  0  0  0  0  0  0  0  0
    8.3801  -14.6144   27.5746 C   0  0  0  0  0  0  0  0  0  0  0  0
    9.2930  -14.3302   28.5697 O   0  0  0  0  0  0  0  0  0  0  0  0
    7.7224  -15.6690   27.6460 O   0  0  0  0  0  0  0  0  0  0  0  0
  2  3  1  1
  2  1  1  0
  4  6  1  0
  4  2  1  0
  4  5  1  6
  6  8  1  0
  7  6  2  0
  8  9  1  0
  9 12  1  0
 10 11  1  0
  9 10  1  1
 12 18  1  0
 12 13  2  0
 15 14  1  6
 16 15  1  0
 17 15  1  0
 17 19  1  0
 17 18  1  6
 19 20  1  0
 21 19  2  0
M  END
$$$$
