VCV.pdb
     RDKit          3D

 21 20  0  0  1  0  0  0  0  0999 V2000
    7.8572  -12.8262   18.9825 C   0  0  0  0  0  0  0  0  0  0  0  0
    7.6500  -13.4333   20.3339 C   0  0  2  0  0  0  0  0  0  0  0  0
    8.4523  -12.6824   21.3437 C   0  0  0  0  0  0  0  0  0  0  0  0
    7.9157  -14.9191   20.3591 C   0  0  2  0  0  0  0  0  0  0  0  0
    7.1572  -15.5241   19.3067 N   0  0  0  0  0  0  0  0  0  0  0  0
    7.6600  -15.5148   21.6836 C   0  0  0  0  0  0  0  0  0  0  0  0
    6.4503  -15.4642   22.0919 O   0  0  0  0  0  0  0  0  0  0  0  0
    8.6677  -16.1134   22.4797 N   0  0  0  0  0  0  0  0  0  0  0  0
    8.2919  -16.5630   23.8208 C   0  0  1  0  0  0  0  0  0  0  0  0
    8.5348  -18.0798   23.7766 C   0  0  0  0  0  0  0  0  0  0  0  0
   10.1388  -18.4042   23.0318 S   0  0  0  0  0  0  0  0  0  0  0  0
    9.1800  -15.9933   24.8403 C   0  0  0  0  0  0  0  0  0  0  0  0
   10.3095  -15.5413   24.4439 O   0  0  0  0  0  0  0  0  0  0  0  0
   10.0268  -13.5851   29.0223 C   0  0  0  0  0  0  0  0  0  0  0  0
    9.1395  -14.1994   27.9909 C   0  0  1  0  0  0  0  0  0  0  0  0
    8.5140  -13.1245   27.1622 C   0  0  0  0  0  0  0  0  0  0  0  0
    9.8447  -15.2453   27.1557 C   0  0  2  0  0  0  0  0  0  0  0  0
    8.9408  -15.8789   26.2168 N   0  0  0  0  0  0  0  0  0  0  0  0
   10.3961  -16.2895   28.0348 C   0  0  0  0  0  0  0  0  0  0  0  0
   11.6290  -16.1333   28.6347 O   0  0  0  0  0  0  0  0  0  0  0  0
    9.7518  -17.3331   28.2487 O   0  0  0  0  0  0  0  0  0  0  0  0
  2  3  1  1
  2  1  1  0
  4  6  1  0
  4  2  1  0
  4  5  1  6
  6  8  1  0
  7  6  2  0
  8  9  1  0
  9 12  1  0
 10 11  1  0
  9 10  1  6
 12 18  1  0
 12 13  2  0
 15 14  1  1
 16 15  1  0
 17 15  1  0
 17 19  1  0
 17 18  1  6
 19 20  1  0
 21 19  2  0
M  END
$$$$
