VCV.pdb
     RDKit          3D

 21 20  0  0  1  0  0  0  0  0999 V2000
    8.7074  -13.4075   17.6888 C   0  0  0  0  0  0  0  0  0  0  0  0
    8.0051  -13.6359   18.9897 C   0  0  2  0  0  0  0  0  0  0  0  0
    8.4492  -12.6118   19.9802 C   0  0  0  0  0  0  0  0  0  0  0  0
    8.1535  -15.0493   19.4990 C   0  0  2  0  0  0  0  0  0  0  0  0
    7.6761  -15.9394   18.4849 N   0  0  0  0  0  0  0  0  0  0  0  0
    7.5030  -15.2479   20.8075 C   0  0  0  0  0  0  0  0  0  0  0  0
    6.2308  -15.3636   20.7841 O   0  0  0  0  0  0  0  0  0  0  0  0
    8.2128  -15.3112   22.0322 N   0  0  0  0  0  0  0  0  0  0  0  0
    7.4425  -15.5814   23.2468 C   0  0  1  0  0  0  0  0  0  0  0  0
    7.6616  -17.0830   23.4893 C   0  0  0  0  0  0  0  0  0  0  0  0
    6.9278  -17.5447   25.0644 S   0  0  0  0  0  0  0  0  0  0  0  0
    7.9913  -14.8538   24.3966 C   0  0  0  0  0  0  0  0  0  0  0  0
    9.2655  -14.8038   24.5017 O   0  0  0  0  0  0  0  0  0  0  0  0
    6.4704  -11.3870   26.1061 C   0  0  0  0  0  0  0  0  0  0  0  0
    6.9209  -12.4308   27.0736 C   0  0  1  0  0  0  0  0  0  0  0  0
    5.7305  -13.0991   27.6816 C   0  0  0  0  0  0  0  0  0  0  0  0
    7.8965  -13.4144   26.4659 C   0  0  2  0  0  0  0  0  0  0  0  0
    7.2822  -14.1942   25.4102 N   0  0  0  0  0  0  0  0  0  0  0  0
    8.3711  -14.3442   27.5038 C   0  0  0  0  0  0  0  0  0  0  0  0
    9.3192  -13.9528   28.4269 O   0  0  0  0  0  0  0  0  0  0  0  0
    7.9192  -15.5029   27.5612 O   0  0  0  0  0  0  0  0  0  0  0  0
  2  3  1  1
  2  1  1  0
  4  6  1  0
  4  2  1  0
  4  5  1  6
  6  8  1  0
  7  6  2  0
  8  9  1  0
  9 12  1  0
 10 11  1  0
  9 10  1  1
 12 18  1  0
 12 13  2  0
 15 14  1  6
 16 15  1  0
 17 15  1  0
 17 19  1  0
 17 18  1  6
 19 20  1  0
 21 19  2  0
M  END
$$$$
