VCV.pdb
     RDKit          3D

 21 20  0  0  1  0  0  0  0  0999 V2000
    7.1890  -12.8864   19.7162 C   0  0  0  0  0  0  0  0  0  0  0  0
    8.5123  -13.5527   19.5093 C   0  0  2  0  0  0  0  0  0  0  0  0
    9.1187  -13.0671   18.2350 C   0  0  0  0  0  0  0  0  0  0  0  0
    8.4320  -15.0582   19.5856 C   0  0  2  0  0  0  0  0  0  0  0  0
    7.7238  -15.5245   18.4324 N   0  0  0  0  0  0  0  0  0  0  0  0
    7.8540  -15.5278   20.8585 C   0  0  0  0  0  0  0  0  0  0  0  0
    6.5842  -15.6689   20.8740 O   0  0  0  0  0  0  0  0  0  0  0  0
    8.6277  -15.8137   22.0105 N   0  0  0  0  0  0  0  0  0  0  0  0
    7.9099  -16.1509   23.2405 C   0  0  1  0  0  0  0  0  0  0  0  0
    8.4521  -17.5412   23.6077 C   0  0  0  0  0  0  0  0  0  0  0  0
    7.8937  -17.9803   25.2594 S   0  0  0  0  0  0  0  0  0  0  0  0
    8.2573  -15.2293   24.3279 C   0  0  0  0  0  0  0  0  0  0  0  0
    9.4882  -14.8988   24.4421 O   0  0  0  0  0  0  0  0  0  0  0  0
    7.0386  -11.9059   27.8473 C   0  0  0  0  0  0  0  0  0  0  0  0
    6.6520  -12.8586   26.7649 C   0  0  1  0  0  0  0  0  0  0  0  0
    5.9939  -12.1118   25.6502 C   0  0  0  0  0  0  0  0  0  0  0  0
    7.8076  -13.7137   26.2934 C   0  0  2  0  0  0  0  0  0  0  0  0
    7.3947  -14.6549   25.2719 N   0  0  0  0  0  0  0  0  0  0  0  0
    8.3503  -14.4791   27.4277 C   0  0  0  0  0  0  0  0  0  0  0  0
    9.3677  -13.9673   28.2068 O   0  0  0  0  0  0  0  0  0  0  0  0
    7.8942  -15.6054   27.6990 O   0  0  0  0  0  0  0  0  0  0  0  0
  2  3  1  6
  2  1  1  0
  4  6  1  0
  4  2  1  0
  4  5  1  6
  6  8  1  0
  7  6  2  0
  8  9  1  0
  9 12  1  0
 10 11  1  0
  9 10  1  1
 12 18  1  0
 12 13  2  0
 15 14  1  1
 16 15  1  0
 17 15  1  0
 17 19  1  0
 17 18  1  6
 19 20  1  0
 21 19  2  0
M  END
$$$$
