VCV.pdb
     RDKit          3D

 21 20  0  0  1  0  0  0  0  0999 V2000
    8.5321  -13.1066   17.6718 C   0  0  0  0  0  0  0  0  0  0  0  0
    7.8770  -13.5808   18.9302 C   0  0  2  0  0  0  0  0  0  0  0  0
    7.9407  -12.5024   19.9599 C   0  0  0  0  0  0  0  0  0  0  0  0
    8.4297  -14.8966   19.4223 C   0  0  2  0  0  0  0  0  0  0  0  0
    8.2428  -15.8708   18.3904 N   0  0  0  0  0  0  0  0  0  0  0  0
    7.8558  -15.2990   20.7197 C   0  0  0  0  0  0  0  0  0  0  0  0
    6.9209  -16.1684   20.6685 O   0  0  0  0  0  0  0  0  0  0  0  0
    8.2893  -14.7752   21.9628 N   0  0  0  0  0  0  0  0  0  0  0  0
    7.6026  -15.2399   23.1688 C   0  0  1  0  0  0  0  0  0  0  0  0
    7.9114  -16.7449   23.2054 C   0  0  0  0  0  0  0  0  0  0  0  0
    9.6930  -16.9865   23.2208 S   0  0  0  0  0  0  0  0  0  0  0  0
    8.1765  -14.6320   24.3744 C   0  0  0  0  0  0  0  0  0  0  0  0
    9.4306  -14.3784   24.3600 O   0  0  0  0  0  0  0  0  0  0  0  0
    6.9436  -11.3233   25.9649 C   0  0  0  0  0  0  0  0  0  0  0  0
    7.1303  -12.3590   27.0237 C   0  0  1  0  0  0  0  0  0  0  0  0
    5.7980  -12.8768   27.4599 C   0  0  0  0  0  0  0  0  0  0  0  0
    8.0781  -13.4621   26.6070 C   0  0  2  0  0  0  0  0  0  0  0  0
    7.5112  -14.2871   25.5591 N   0  0  0  0  0  0  0  0  0  0  0  0
    8.3681  -14.3266   27.7627 C   0  0  0  0  0  0  0  0  0  0  0  0
    9.1213  -13.8646   28.8226 O   0  0  0  0  0  0  0  0  0  0  0  0
    7.9339  -15.4929   27.7974 O   0  0  0  0  0  0  0  0  0  0  0  0
  2  3  1  1
  2  1  1  0
  4  6  1  0
  4  2  1  0
  4  5  1  6
  6  8  1  0
  7  6  2  0
  8  9  1  0
  9 12  1  0
 10 11  1  0
  9 10  1  1
 12 18  1  0
 12 13  2  0
 15 14  1  6
 16 15  1  0
 17 15  1  0
 17 19  1  0
 17 18  1  6
 19 20  1  0
 21 19  2  0
M  END
$$$$
