VCV.pdb
     RDKit          3D

 21 20  0  0  1  0  0  0  0  0999 V2000
    7.7392  -15.5822   18.9943 C   0  0  0  0  0  0  0  0  0  0  0  0
    8.1301  -15.1778   20.3804 C   0  0  2  0  0  0  0  0  0  0  0  0
    7.9802  -16.3445   21.2989 C   0  0  0  0  0  0  0  0  0  0  0  0
    7.3967  -13.9504   20.8648 C   0  0  2  0  0  0  0  0  0  0  0  0
    7.4947  -12.9451   19.8507 N   0  0  0  0  0  0  0  0  0  0  0  0
    7.8676  -13.4978   22.1869 C   0  0  0  0  0  0  0  0  0  0  0  0
    8.1367  -12.2526   22.2850 O   0  0  0  0  0  0  0  0  0  0  0  0
    8.0234  -14.3613   23.2994 N   0  0  0  0  0  0  0  0  0  0  0  0
    7.9891  -13.7591   24.6328 C   0  0  1  0  0  0  0  0  0  0  0  0
    6.5201  -13.3423   24.8054 C   0  0  0  0  0  0  0  0  0  0  0  0
    6.2473  -12.8125   26.5018 S   0  0  0  0  0  0  0  0  0  0  0  0
    8.3026  -14.7478   25.6705 C   0  0  0  0  0  0  0  0  0  0  0  0
    7.5303  -15.7640   25.7609 O   0  0  0  0  0  0  0  0  0  0  0  0
   12.2544  -15.4182   26.2107 C   0  0  0  0  0  0  0  0  0  0  0  0
   11.4529  -15.6667   27.4453 C   0  0  1  0  0  0  0  0  0  0  0  0
   11.6833  -14.5613   28.4244 C   0  0  0  0  0  0  0  0  0  0  0  0
    9.9854  -15.8962   27.1578 C   0  0  2  0  0  0  0  0  0  0  0  0
    9.3610  -14.7186   26.5892 N   0  0  0  0  0  0  0  0  0  0  0  0
    9.2831  -16.2271   28.4085 C   0  0  0  0  0  0  0  0  0  0  0  0
    9.4973  -17.4327   29.0447 O   0  0  0  0  0  0  0  0  0  0  0  0
    8.4820  -15.4169   28.9105 O   0  0  0  0  0  0  0  0  0  0  0  0
  2  3  1  1
  2  1  1  0
  4  6  1  0
  4  2  1  0
  4  5  1  6
  6  8  1  0
  7  6  2  0
  8  9  1  0
  9 12  1  0
 10 11  1  0
  9 10  1  1
 12 18  1  0
 12 13  2  0
 15 14  1  6
 16 15  1  0
 17 15  1  0
 17 19  1  0
 17 18  1  1
 19 20  1  0
 21 19  2  0
M  END
$$$$
