VCV.pdb
     RDKit          3D

 21 20  0  0  1  0  0  0  0  0999 V2000
    7.0931  -12.8415   19.3931 C   0  0  0  0  0  0  0  0  0  0  0  0
    8.4860  -13.3701   19.2584 C   0  0  2  0  0  0  0  0  0  0  0  0
    9.0563  -12.9387   17.9485 C   0  0  0  0  0  0  0  0  0  0  0  0
    8.5735  -14.8616   19.4747 C   0  0  2  0  0  0  0  0  0  0  0  0
    8.0108  -15.5104   18.3297 N   0  0  0  0  0  0  0  0  0  0  0  0
    7.9606  -15.2832   20.7480 C   0  0  0  0  0  0  0  0  0  0  0  0
    6.7210  -15.5885   20.6942 O   0  0  0  0  0  0  0  0  0  0  0  0
    8.6712  -15.3564   21.9717 N   0  0  0  0  0  0  0  0  0  0  0  0
    7.9082  -15.6782   23.1784 C   0  0  1  0  0  0  0  0  0  0  0  0
    8.2844  -17.1401   23.4667 C   0  0  0  0  0  0  0  0  0  0  0  0
   10.0746  -17.3060   23.4608 S   0  0  0  0  0  0  0  0  0  0  0  0
    8.3487  -14.8657   24.3178 C   0  0  0  0  0  0  0  0  0  0  0  0
    9.5744  -14.4985   24.3337 O   0  0  0  0  0  0  0  0  0  0  0  0
    6.9165  -11.4933   25.8273 C   0  0  0  0  0  0  0  0  0  0  0  0
    7.0922  -12.5359   26.8812 C   0  0  1  0  0  0  0  0  0  0  0  0
    5.7594  -13.0944   27.2621 C   0  0  0  0  0  0  0  0  0  0  0  0
    8.0846  -13.6081   26.4884 C   0  0  2  0  0  0  0  0  0  0  0  0
    7.5815  -14.4329   25.4082 N   0  0  0  0  0  0  0  0  0  0  0  0
    8.3516  -14.4807   27.6434 C   0  0  0  0  0  0  0  0  0  0  0  0
    9.1256  -14.0434   28.6989 O   0  0  0  0  0  0  0  0  0  0  0  0
    7.8787  -15.6318   27.6817 O   0  0  0  0  0  0  0  0  0  0  0  0
  2  3  1  6
  2  1  1  0
  4  6  1  0
  4  2  1  0
  4  5  1  6
  6  8  1  0
  7  6  2  0
  8  9  1  0
  9 12  1  0
 10 11  1  0
  9 10  1  1
 12 18  1  0
 12 13  2  0
 15 14  1  6
 16 15  1  0
 17 15  1  0
 17 19  1  0
 17 18  1  6
 19 20  1  0
 21 19  2  0
M  END
$$$$
