VCV.pdb
     RDKit          3D

 21 20  0  0  1  0  0  0  0  0999 V2000
    6.7405  -14.7782   18.8600 C   0  0  0  0  0  0  0  0  0  0  0  0
    7.2507  -14.8225   20.2655 C   0  0  2  0  0  0  0  0  0  0  0  0
    6.3861  -15.7266   21.0793 C   0  0  0  0  0  0  0  0  0  0  0  0
    7.4085  -13.4518   20.8783 C   0  0  2  0  0  0  0  0  0  0  0  0
    8.2481  -12.6746   20.0183 N   0  0  0  0  0  0  0  0  0  0  0  0
    7.8887  -13.5094   22.2714 C   0  0  0  0  0  0  0  0  0  0  0  0
    9.1243  -13.7978   22.4221 O   0  0  0  0  0  0  0  0  0  0  0  0
    7.0604  -13.2661   23.3949 N   0  0  0  0  0  0  0  0  0  0  0  0
    7.6915  -13.2770   24.7153 C   0  0  1  0  0  0  0  0  0  0  0  0
    6.5941  -12.7390   25.6468 C   0  0  0  0  0  0  0  0  0  0  0  0
    7.1752  -12.7985   27.3472 S   0  0  0  0  0  0  0  0  0  0  0  0
    8.0128  -14.6444   25.1391 C   0  0  0  0  0  0  0  0  0  0  0  0
    7.0801  -15.5163   25.0540 O   0  0  0  0  0  0  0  0  0  0  0  0
   11.1341  -18.3923   25.7066 C   0  0  0  0  0  0  0  0  0  0  0  0
   10.7598  -17.0102   25.2842 C   0  0  1  0  0  0  0  0  0  0  0  0
   10.6832  -16.9444   23.7932 C   0  0  0  0  0  0  0  0  0  0  0  0
    9.5002  -16.5104   25.9568 C   0  0  2  0  0  0  0  0  0  0  0  0
    9.2346  -15.1233   25.6320 N   0  0  0  0  0  0  0  0  0  0  0  0
    9.6446  -16.6181   27.4178 C   0  0  0  0  0  0  0  0  0  0  0  0
    9.8850  -15.5007   28.1910 O   0  0  0  0  0  0  0  0  0  0  0  0
    9.5509  -17.7266   27.9767 O   0  0  0  0  0  0  0  0  0  0  0  0
  2  3  1  1
  2  1  1  0
  4  6  1  0
  4  2  1  0
  4  5  1  6
  6  8  1  0
  7  6  2  0
  8  9  1  0
  9 12  1  0
 10 11  1  0
  9 10  1  1
 12 18  1  0
 12 13  2  0
 15 14  1  6
 16 15  1  0
 17 15  1  0
 17 19  1  0
 17 18  1  1
 19 20  1  0
 21 19  2  0
M  END
$$$$
