VCV.pdb
     RDKit          3D

 21 20  0  0  1  0  0  0  0  0999 V2000
    8.1449  -13.2079   18.2141 C   0  0  0  0  0  0  0  0  0  0  0  0
    7.6782  -13.5574   19.5916 C   0  0  2  0  0  0  0  0  0  0  0  0
    8.3385  -12.6579   20.5827 C   0  0  0  0  0  0  0  0  0  0  0  0
    7.8522  -15.0208   19.9189 C   0  0  2  0  0  0  0  0  0  0  0  0
    7.2431  -15.7854   18.8735 N   0  0  0  0  0  0  0  0  0  0  0  0
    7.3505  -15.3611   21.2632 C   0  0  0  0  0  0  0  0  0  0  0  0
    6.1395  -15.7650   21.3189 O   0  0  0  0  0  0  0  0  0  0  0  0
    8.1337  -15.2585   22.4395 N   0  0  0  0  0  0  0  0  0  0  0  0
    7.5602  -15.7791   23.6812 C   0  0  1  0  0  0  0  0  0  0  0  0
    7.5858  -17.3027   23.4823 C   0  0  0  0  0  0  0  0  0  0  0  0
    7.2147  -18.1130   25.0438 S   0  0  0  0  0  0  0  0  0  0  0  0
    8.4103  -15.4601   24.8336 C   0  0  0  0  0  0  0  0  0  0  0  0
    9.6437  -15.7922   24.7589 O   0  0  0  0  0  0  0  0  0  0  0  0
    8.0921  -11.8915   26.6290 C   0  0  0  0  0  0  0  0  0  0  0  0
    8.3737  -12.9835   27.6071 C   0  0  1  0  0  0  0  0  0  0  0  0
    7.1408  -13.2792   28.3982 C   0  0  0  0  0  0  0  0  0  0  0  0
    8.9617  -14.2172   26.9583 C   0  0  2  0  0  0  0  0  0  0  0  0
    8.0341  -14.8247   26.0252 N   0  0  0  0  0  0  0  0  0  0  0  0
    9.2862  -15.2123   27.9934 C   0  0  0  0  0  0  0  0  0  0  0  0
   10.3667  -15.0356   28.8333 O   0  0  0  0  0  0  0  0  0  0  0  0
    8.5843  -16.2323   28.1240 O   0  0  0  0  0  0  0  0  0  0  0  0
  2  3  1  1
  2  1  1  0
  4  6  1  0
  4  2  1  0
  4  5  1  6
  6  8  1  0
  7  6  2  0
  8  9  1  0
  9 12  1  0
 10 11  1  0
  9 10  1  6
 12 18  1  0
 12 13  2  0
 15 14  1  6
 16 15  1  0
 17 15  1  0
 17 19  1  0
 17 18  1  6
 19 20  1  0
 21 19  2  0
M  END
$$$$
