VCV.pdb
     RDKit          3D

 21 20  0  0  1  0  0  0  0  0999 V2000
    7.6239  -17.2028   19.9238 C   0  0  0  0  0  0  0  0  0  0  0  0
    8.0413  -16.5846   21.2204 C   0  0  2  0  0  0  0  0  0  0  0  0
    7.4117  -17.3287   22.3506 C   0  0  0  0  0  0  0  0  0  0  0  0
    7.7786  -15.0990   21.2763 C   0  0  2  0  0  0  0  0  0  0  0  0
    8.4657  -14.4849   20.1811 N   0  0  0  0  0  0  0  0  0  0  0  0
    8.1221  -14.5149   22.5860 C   0  0  0  0  0  0  0  0  0  0  0  0
    9.3690  -14.3504   22.8116 O   0  0  0  0  0  0  0  0  0  0  0  0
    7.1568  -14.1479   23.5561 N   0  0  0  0  0  0  0  0  0  0  0  0
    7.6452  -13.6010   24.8227 C   0  0  1  0  0  0  0  0  0  0  0  0
    6.3723  -13.0798   25.5081 C   0  0  0  0  0  0  0  0  0  0  0  0
    6.7819  -12.4953   27.1583 S   0  0  0  0  0  0  0  0  0  0  0  0
    8.2158  -14.6535   25.6709 C   0  0  0  0  0  0  0  0  0  0  0  0
    7.5179  -15.7134   25.8349 O   0  0  0  0  0  0  0  0  0  0  0  0
   11.9905  -16.0606   25.6598 C   0  0  0  0  0  0  0  0  0  0  0  0
   11.4827  -15.8171   27.0423 C   0  0  1  0  0  0  0  0  0  0  0  0
   12.1417  -14.6031   27.6126 C   0  0  0  0  0  0  0  0  0  0  0  0
    9.9729  -15.7493   27.1111 C   0  0  2  0  0  0  0  0  0  0  0  0
    9.4511  -14.6434   26.3334 N   0  0  0  0  0  0  0  0  0  0  0  0
    9.5503  -15.5646   28.5090 C   0  0  0  0  0  0  0  0  0  0  0  0
    9.6574  -16.5920   29.4240 O   0  0  0  0  0  0  0  0  0  0  0  0
    9.0879  -14.4714   28.8846 O   0  0  0  0  0  0  0  0  0  0  0  0
  2  3  1  1
  2  1  1  0
  4  6  1  0
  4  2  1  0
  4  5  1  6
  6  8  1  0
  7  6  2  0
  8  9  1  0
  9 12  1  0
 10 11  1  0
  9 10  1  1
 12 18  1  0
 12 13  2  0
 15 14  1  6
 16 15  1  0
 17 15  1  0
 17 19  1  0
 17 18  1  6
 19 20  1  0
 21 19  2  0
M  END
$$$$
