VCV.pdb
     RDKit          3D

 21 20  0  0  1  0  0  0  0  0999 V2000
   10.2826  -17.4535   18.5341 C   0  0  0  0  0  0  0  0  0  0  0  0
    9.4707  -16.9991   19.7055 C   0  0  2  0  0  0  0  0  0  0  0  0
   10.3618  -16.3277   20.6966 C   0  0  0  0  0  0  0  0  0  0  0  0
    8.6438  -18.1060   20.3138 C   0  0  2  0  0  0  0  0  0  0  0  0
    7.8342  -18.6754   19.2799 N   0  0  0  0  0  0  0  0  0  0  0  0
    7.8684  -17.6524   21.4833 C   0  0  0  0  0  0  0  0  0  0  0  0
    6.7315  -17.1284   21.2274 O   0  0  0  0  0  0  0  0  0  0  0  0
    8.3245  -17.7743   22.8193 N   0  0  0  0  0  0  0  0  0  0  0  0
    7.4354  -17.3049   23.8827 C   0  0  1  0  0  0  0  0  0  0  0  0
    7.4332  -18.4636   24.8921 C   0  0  0  0  0  0  0  0  0  0  0  0
    6.6140  -17.9351   26.4028 S   0  0  0  0  0  0  0  0  0  0  0  0
    7.9880  -16.1229   24.5538 C   0  0  0  0  0  0  0  0  0  0  0  0
    9.2406  -16.1320   24.8147 O   0  0  0  0  0  0  0  0  0  0  0  0
    5.6906  -12.9634   26.3974 C   0  0  0  0  0  0  0  0  0  0  0  0
    6.9868  -12.6605   25.7216 C   0  0  1  0  0  0  0  0  0  0  0  0
    7.6235  -11.4722   26.3665 C   0  0  0  0  0  0  0  0  0  0  0  0
    7.9111  -13.8566   25.6586 C   0  0  2  0  0  0  0  0  0  0  0  0
    7.3039  -14.9651   24.9497 N   0  0  0  0  0  0  0  0  0  0  0  0
    8.2298  -14.3066   27.0235 C   0  0  0  0  0  0  0  0  0  0  0  0
    7.6508  -15.4437   27.5488 O   0  0  0  0  0  0  0  0  0  0  0  0
    9.0313  -13.6616   27.7247 O   0  0  0  0  0  0  0  0  0  0  0  0
  2  3  1  1
  2  1  1  0
  4  6  1  0
  4  2  1  0
  4  5  1  6
  6  8  1  0
  7  6  2  0
  8  9  1  0
  9 12  1  0
 10 11  1  0
  9 10  1  1
 12 18  1  0
 12 13  2  0
 15 14  1  1
 16 15  1  0
 17 15  1  0
 17 19  1  0
 17 18  1  6
 19 20  1  0
 21 19  2  0
M  END
$$$$
