VCV.pdb
     RDKit          3D

 21 20  0  0  1  0  0  0  0  0999 V2000
    9.9572  -16.7144   21.2337 C   0  0  0  0  0  0  0  0  0  0  0  0
    8.4961  -16.5406   20.9636 C   0  0  2  0  0  0  0  0  0  0  0  0
    8.1448  -17.2157   19.6798 C   0  0  0  0  0  0  0  0  0  0  0  0
    8.0565  -15.0971   21.0081 C   0  0  2  0  0  0  0  0  0  0  0  0
    8.7714  -14.3835   19.9939 N   0  0  0  0  0  0  0  0  0  0  0  0
    8.1982  -14.5061   22.3517 C   0  0  0  0  0  0  0  0  0  0  0  0
    9.2373  -13.7855   22.5354 O   0  0  0  0  0  0  0  0  0  0  0  0
    7.2611  -14.7037   23.3959 N   0  0  0  0  0  0  0  0  0  0  0  0
    7.5101  -14.0208   24.6661 C   0  0  1  0  0  0  0  0  0  0  0  0
    6.1263  -13.9784   25.3330 C   0  0  0  0  0  0  0  0  0  0  0  0
    6.2334  -13.0470   26.8671 S   0  0  0  0  0  0  0  0  0  0  0  0
    8.4016  -14.8071   25.5260 C   0  0  0  0  0  0  0  0  0  0  0  0
    8.5274  -16.0511   25.2541 O   0  0  0  0  0  0  0  0  0  0  0  0
   11.5921  -15.2527   29.3648 C   0  0  0  0  0  0  0  0  0  0  0  0
   10.4761  -14.5392   28.6764 C   0  0  1  0  0  0  0  0  0  0  0  0
   10.8070  -13.0868   28.5567 C   0  0  0  0  0  0  0  0  0  0  0  0
   10.1069  -15.1658   27.3498 C   0  0  2  0  0  0  0  0  0  0  0  0
    9.1464  -14.3579   26.6254 N   0  0  0  0  0  0  0  0  0  0  0  0
    9.5085  -16.4911   27.5794 C   0  0  0  0  0  0  0  0  0  0  0  0
   10.2734  -17.6372   27.5050 O   0  0  0  0  0  0  0  0  0  0  0  0
    8.2965  -16.5938   27.8452 O   0  0  0  0  0  0  0  0  0  0  0  0
  2  3  1  6
  2  1  1  0
  4  6  1  0
  4  2  1  0
  4  5  1  6
  6  8  1  0
  7  6  2  0
  8  9  1  0
  9 12  1  0
 10 11  1  0
  9 10  1  1
 12 18  1  0
 12 13  2  0
 15 14  1  6
 16 15  1  0
 17 15  1  0
 17 19  1  0
 17 18  1  1
 19 20  1  0
 21 19  2  0
M  END
$$$$
