VCV.pdb
     RDKit          3D

 21 20  0  0  1  0  0  0  0  0999 V2000
    6.5286  -14.6165   18.9861 C   0  0  0  0  0  0  0  0  0  0  0  0
    7.2465  -14.6814   20.2968 C   0  0  2  0  0  0  0  0  0  0  0  0
    6.6143  -15.7236   21.1580 C   0  0  0  0  0  0  0  0  0  0  0  0
    7.3496  -13.3387   20.9791 C   0  0  2  0  0  0  0  0  0  0  0  0
    7.9303  -12.4137   20.0540 N   0  0  0  0  0  0  0  0  0  0  0  0
    8.0695  -13.4133   22.2639 C   0  0  0  0  0  0  0  0  0  0  0  0
    9.3400  -13.5226   22.1838 O   0  0  0  0  0  0  0  0  0  0  0  0
    7.4253  -13.3696   23.5252 N   0  0  0  0  0  0  0  0  0  0  0  0
    8.2513  -13.5836   24.7141 C   0  0  1  0  0  0  0  0  0  0  0  0
    7.3838  -13.0424   25.8613 C   0  0  0  0  0  0  0  0  0  0  0  0
    5.6860  -13.5879   25.6318 S   0  0  0  0  0  0  0  0  0  0  0  0
    8.4763  -15.0134   24.9543 C   0  0  0  0  0  0  0  0  0  0  0  0
    7.5360  -15.8158   24.6237 O   0  0  0  0  0  0  0  0  0  0  0  0
   11.3434  -18.9403   24.9843 C   0  0  0  0  0  0  0  0  0  0  0  0
   11.0171  -17.4964   24.7915 C   0  0  1  0  0  0  0  0  0  0  0  0
   10.8751  -17.2042   23.3328 C   0  0  0  0  0  0  0  0  0  0  0  0
    9.8154  -17.0523   25.5962 C   0  0  2  0  0  0  0  0  0  0  0  0
    9.6121  -15.6202   25.5081 N   0  0  0  0  0  0  0  0  0  0  0  0
   10.0143  -17.3994   27.0129 C   0  0  0  0  0  0  0  0  0  0  0  0
    9.9142  -18.7065   27.4437 O   0  0  0  0  0  0  0  0  0  0  0  0
   10.2771  -16.5111   27.8447 O   0  0  0  0  0  0  0  0  0  0  0  0
  2  3  1  1
  2  1  1  0
  4  6  1  0
  4  2  1  0
  4  5  1  6
  6  8  1  0
  7  6  2  0
  8  9  1  0
  9 12  1  0
 10 11  1  0
  9 10  1  1
 12 18  1  0
 12 13  2  0
 15 14  1  6
 16 15  1  0
 17 15  1  0
 17 19  1  0
 17 18  1  1
 19 20  1  0
 21 19  2  0
M  END
$$$$
