VCV.pdb
     RDKit          3D

 21 20  0  0  1  0  0  0  0  0999 V2000
    7.0692  -12.9475   19.4577 C   0  0  0  0  0  0  0  0  0  0  0  0
    8.4305  -13.5597   19.3590 C   0  0  2  0  0  0  0  0  0  0  0  0
    9.0969  -13.0895   18.1090 C   0  0  0  0  0  0  0  0  0  0  0  0
    8.4104  -15.0640   19.4840 C   0  0  2  0  0  0  0  0  0  0  0  0
    7.8372  -15.6016   18.2878 N   0  0  0  0  0  0  0  0  0  0  0  0
    7.7348  -15.5181   20.7137 C   0  0  0  0  0  0  0  0  0  0  0  0
    6.7137  -16.2670   20.5429 O   0  0  0  0  0  0  0  0  0  0  0  0
    8.1635  -15.1657   22.0174 N   0  0  0  0  0  0  0  0  0  0  0  0
    7.4276  -15.7336   23.1477 C   0  0  1  0  0  0  0  0  0  0  0  0
    7.6897  -17.2433   23.0299 C   0  0  0  0  0  0  0  0  0  0  0  0
    7.0815  -18.0697   24.5063 S   0  0  0  0  0  0  0  0  0  0  0  0
    7.9836  -15.2775   24.4266 C   0  0  0  0  0  0  0  0  0  0  0  0
    9.2490  -15.3834   24.5839 O   0  0  0  0  0  0  0  0  0  0  0  0
    7.3828  -11.9008   28.0260 C   0  0  0  0  0  0  0  0  0  0  0  0
    6.8280  -12.8429   27.0096 C   0  0  1  0  0  0  0  0  0  0  0  0
    6.1404  -12.0700   25.9311 C   0  0  0  0  0  0  0  0  0  0  0  0
    7.8648  -13.8035   26.4701 C   0  0  2  0  0  0  0  0  0  0  0  0
    7.2904  -14.7295   25.5148 N   0  0  0  0  0  0  0  0  0  0  0  0
    8.4368  -14.5860   27.5780 C   0  0  0  0  0  0  0  0  0  0  0  0
    9.5157  -14.1136   28.2970 O   0  0  0  0  0  0  0  0  0  0  0  0
    7.9500  -15.6911   27.8813 O   0  0  0  0  0  0  0  0  0  0  0  0
  2  3  1  6
  2  1  1  0
  4  6  1  0
  4  2  1  0
  4  5  1  6
  6  8  1  0
  7  6  2  0
  8  9  1  0
  9 12  1  0
 10 11  1  0
  9 10  1  1
 12 18  1  0
 12 13  2  0
 15 14  1  1
 16 15  1  0
 17 15  1  0
 17 19  1  0
 17 18  1  6
 19 20  1  0
 21 19  2  0
M  END
$$$$
