LGI.pdb
     RDKit          3D

 21 20  0  0  1  0  0  0  0  0999 V2000
   19.0767  -15.1234  -19.5433 C   0  0  0  0  0  0  0  0  0  0  0  0
   17.6279  -14.7120  -19.3874 C   0  0  2  0  0  0  0  0  0  0  0  0
   16.8337  -15.0796  -20.6256 C   0  0  0  0  0  0  0  0  0  0  0  0
   17.5818  -13.2039  -19.1592 C   0  0  0  0  0  0  0  0  0  0  0  0
   18.3367  -12.9467  -17.8704 C   0  0  2  0  0  0  0  0  0  0  0  0
   17.6881  -13.6907  -16.8161 N   0  0  0  0  0  0  0  0  0  0  0  0
   18.3378  -11.5005  -17.5957 C   0  0  0  0  0  0  0  0  0  0  0  0
   18.9125  -10.7027  -18.3711 O   0  0  0  0  0  0  0  0  0  0  0  0
   17.6757  -11.0230  -16.4351 N   0  0  0  0  0  0  0  0  0  0  0  0
   17.5637   -9.6190  -16.1147 C   0  0  0  0  0  0  0  0  0  0  0  0
   18.6659   -9.2728  -15.1841 C   0  0  0  0  0  0  0  0  0  0  0  0
   18.4328   -8.7339  -14.0748 O   0  0  0  0  0  0  0  0  0  0  0  0
   22.8575  -12.5218  -14.5998 C   0  0  0  0  0  0  0  0  0  0  0  0
   21.7546  -11.4851  -14.4692 C   0  0  0  0  0  0  0  0  0  0  0  0
   22.2463  -10.1036  -14.7641 C   0  0  2  0  0  0  0  0  0  0  0  0
   23.4558   -9.7203  -13.9734 C   0  0  0  0  0  0  0  0  0  0  0  0
   21.1170   -9.1330  -14.7472 C   0  0  2  0  0  0  0  0  0  0  0  0
   19.9963   -9.5609  -15.5667 N   0  0  0  0  0  0  0  0  0  0  0  0
   21.4971   -7.7281  -15.0556 C   0  0  0  0  0  0  0  0  0  0  0  0
   21.7465   -6.8044  -14.0187 O   0  0  0  0  0  0  0  0  0  0  0  0
   21.6235   -7.2621  -16.2120 O   0  0  0  0  0  0  0  0  0  0  0  0
  2  4  1  0
  2  1  1  6
  3  2  1  0
  5  7  1  0
  5  4  1  0
  5  6  1  1
  7  9  1  0
  8  7  2  0
  9 10  1  0
 10 11  1  0
 11 12  2  0
 11 18  1  0
 14 13  1  0
 15 16  1  1
 15 14  1  0
 17 15  1  0
 17 18  1  6
 19 20  1  0
 19 17  1  0
 21 19  2  0
M  END
$$$$
