LGI.pdb
     RDKit          3D

 21 20  0  0  1  0  0  0  0  0999 V2000
   29.6997  -16.6686  -17.1831 C   0  0  0  0  0  0  0  0  0  0  0  0
   28.3062  -17.0992  -17.5898 C   0  0  2  0  0  0  0  0  0  0  0  0
   27.8756  -16.3834  -18.8551 C   0  0  0  0  0  0  0  0  0  0  0  0
   27.3518  -16.7693  -16.4457 C   0  0  0  0  0  0  0  0  0  0  0  0
   26.8558  -18.0977  -15.9107 C   0  0  2  0  0  0  0  0  0  0  0  0
   25.9096  -18.6367  -16.8594 N   0  0  0  0  0  0  0  0  0  0  0  0
   26.2416  -17.8836  -14.5901 C   0  0  0  0  0  0  0  0  0  0  0  0
   25.0423  -17.5374  -14.4912 O   0  0  0  0  0  0  0  0  0  0  0  0
   27.0319  -18.0763  -13.4276 N   0  0  0  0  0  0  0  0  0  0  0  0
   26.5367  -17.8396  -12.0914 C   0  0  0  0  0  0  0  0  0  0  0  0
   26.3181  -19.1566  -11.4445 C   0  0  0  0  0  0  0  0  0  0  0  0
   26.5187  -20.2268  -12.0687 O   0  0  0  0  0  0  0  0  0  0  0  0
   27.6906  -19.3062   -6.3767 C   0  0  0  0  0  0  0  0  0  0  0  0
   27.4389  -19.7754   -7.7996 C   0  0  0  0  0  0  0  0  0  0  0  0
   26.0745  -20.3665   -7.9617 C   0  0  2  0  0  0  0  0  0  0  0  0
   25.8623  -21.6057   -7.1528 C   0  0  0  0  0  0  0  0  0  0  0  0
   25.7117  -20.4542   -9.4033 C   0  0  2  0  0  0  0  0  0  0  0  0
   25.8763  -19.1910  -10.1018 N   0  0  0  0  0  0  0  0  0  0  0  0
   24.3727  -21.0429   -9.6750 C   0  0  0  0  0  0  0  0  0  0  0  0
   24.1674  -22.4364   -9.5925 O   0  0  0  0  0  0  0  0  0  0  0  0
   23.3544  -20.3825   -9.9871 O   0  0  0  0  0  0  0  0  0  0  0  0
  2  4  1  0
  2  1  1  1
  3  2  1  0
  5  7  1  0
  5  4  1  0
  5  6  1  6
  7  9  1  0
  8  7  2  0
  9 10  1  0
 10 11  1  0
 11 12  2  0
 11 18  1  0
 14 13  1  0
 15 16  1  6
 15 14  1  0
 17 15  1  0
 17 18  1  1
 19 20  1  0
 19 17  1  0
 21 19  2  0
M  END
$$$$
