LGI.pdb
     RDKit          3D

 21 20  0  0  1  0  0  0  0  0999 V2000
   21.1310  -20.0033  -13.2633 C   0  0  0  0  0  0  0  0  0  0  0  0
   21.9581  -21.1279  -13.8496 C   0  0  2  0  0  0  0  0  0  0  0  0
   21.1708  -22.4237  -13.8502 C   0  0  0  0  0  0  0  0  0  0  0  0
   23.2227  -21.2789  -13.0090 C   0  0  0  0  0  0  0  0  0  0  0  0
   24.0024  -19.9906  -13.1807 C   0  0  2  0  0  0  0  0  0  0  0  0
   24.0473  -19.6796  -14.5903 N   0  0  0  0  0  0  0  0  0  0  0  0
   25.3512  -20.1679  -12.6184 C   0  0  0  0  0  0  0  0  0  0  0  0
   26.2121  -20.8469  -13.2233 O   0  0  0  0  0  0  0  0  0  0  0  0
   25.6618  -19.5557  -11.3767 N   0  0  0  0  0  0  0  0  0  0  0  0
   26.9519  -19.6803  -10.7389 C   0  0  0  0  0  0  0  0  0  0  0  0
   26.7789  -20.4962   -9.5121 C   0  0  0  0  0  0  0  0  0  0  0  0
   26.6051  -21.7375   -9.5780 O   0  0  0  0  0  0  0  0  0  0  0  0
   29.5651  -18.5964   -5.2944 C   0  0  0  0  0  0  0  0  0  0  0  0
   28.8827  -19.4467   -6.3525 C   0  0  0  0  0  0  0  0  0  0  0  0
   27.5300  -19.9095   -5.9129 C   0  0  2  0  0  0  0  0  0  0  0  0
   27.5394  -20.6048   -4.5895 C   0  0  0  0  0  0  0  0  0  0  0  0
   26.8356  -20.6200   -7.0222 C   0  0  2  0  0  0  0  0  0  0  0  0
   26.8125  -19.8508   -8.2544 N   0  0  0  0  0  0  0  0  0  0  0  0
   25.4783  -21.1274   -6.6851 C   0  0  0  0  0  0  0  0  0  0  0  0
   25.3107  -22.3893   -6.0765 O   0  0  0  0  0  0  0  0  0  0  0  0
   24.4117  -20.5064   -6.9021 O   0  0  0  0  0  0  0  0  0  0  0  0
  2  4  1  0
  2  1  1  1
  3  2  1  0
  5  7  1  0
  5  4  1  0
  5  6  1  6
  7  9  1  0
  8  7  2  0
  9 10  1  0
 10 11  1  0
 11 12  2  0
 11 18  1  0
 14 13  1  0
 15 16  1  1
 15 14  1  0
 17 15  1  0
 17 18  1  6
 19 20  1  0
 19 17  1  0
 21 19  2  0
M  END
$$$$
