LGI.pdb
     RDKit          3D

 21 20  0  0  1  0  0  0  0  0999 V2000
   24.2400  -21.2883   -9.1864 C   0  0  0  0  0  0  0  0  0  0  0  0
   25.7232  -21.5346   -9.3655 C   0  0  2  0  0  0  0  0  0  0  0  0
   26.5142  -20.8383   -8.2754 C   0  0  0  0  0  0  0  0  0  0  0  0
   26.1331  -21.0039  -10.7362 C   0  0  0  0  0  0  0  0  0  0  0  0
   25.3432  -21.8023  -11.7538 C   0  0  2  0  0  0  0  0  0  0  0  0
   25.7508  -23.1840  -11.6521 N   0  0  0  0  0  0  0  0  0  0  0  0
   25.6000  -21.2557  -13.0963 C   0  0  0  0  0  0  0  0  0  0  0  0
   26.7526  -21.2760  -13.5853 O   0  0  0  0  0  0  0  0  0  0  0  0
   24.5182  -20.7037  -13.8298 N   0  0  0  0  0  0  0  0  0  0  0  0
   24.6696  -20.1409  -15.1516 C   0  0  0  0  0  0  0  0  0  0  0  0
   24.6864  -18.6633  -15.0205 C   0  0  0  0  0  0  0  0  0  0  0  0
   24.2949  -18.1012  -13.9688 O   0  0  0  0  0  0  0  0  0  0  0  0
   28.7007  -16.0727  -17.1262 C   0  0  0  0  0  0  0  0  0  0  0  0
   27.4867  -16.5983  -16.3792 C   0  0  0  0  0  0  0  0  0  0  0  0
   26.2672  -15.7724  -16.6403 C   0  0  2  0  0  0  0  0  0  0  0  0
   26.4406  -14.3283  -16.2950 C   0  0  0  0  0  0  0  0  0  0  0  0
   25.0569  -16.4389  -16.0848 C   0  0  2  0  0  0  0  0  0  0  0  0
   25.1538  -17.8883  -16.1068 N   0  0  0  0  0  0  0  0  0  0  0  0
   23.7683  -15.9819  -16.6715 C   0  0  0  0  0  0  0  0  0  0  0  0
   22.9840  -15.0076  -16.0186 O   0  0  0  0  0  0  0  0  0  0  0  0
   23.2874  -16.4033  -17.7493 O   0  0  0  0  0  0  0  0  0  0  0  0
  2  4  1  0
  2  1  1  1
  3  2  1  0
  5  7  1  0
  5  4  1  0
  5  6  1  6
  7  9  1  0
  8  7  2  0
  9 10  1  0
 10 11  1  0
 11 12  2  0
 11 18  1  0
 14 13  1  0
 15 16  1  1
 15 14  1  0
 17 15  1  0
 17 18  1  6
 19 20  1  0
 19 17  1  0
 21 19  2  0
M  END
$$$$
