LGI.pdb
     RDKit          3D

 21 20  0  0  1  0  0  0  0  0999 V2000
   23.6319  -21.1051  -10.6432 C   0  0  0  0  0  0  0  0  0  0  0  0
   25.0038  -21.6726  -10.3460 C   0  0  2  0  0  0  0  0  0  0  0  0
   25.4463  -21.2911   -8.9469 C   0  0  0  0  0  0  0  0  0  0  0  0
   25.9826  -21.1203  -11.3782 C   0  0  0  0  0  0  0  0  0  0  0  0
   25.4769  -21.5802  -12.7309 C   0  0  2  0  0  0  0  0  0  0  0  0
   25.4723  -23.0244  -12.7392 N   0  0  0  0  0  0  0  0  0  0  0  0
   26.3505  -21.0319  -13.7813 C   0  0  0  0  0  0  0  0  0  0  0  0
   27.4798  -21.5279  -13.9972 O   0  0  0  0  0  0  0  0  0  0  0  0
   25.8916  -19.9294  -14.5476 N   0  0  0  0  0  0  0  0  0  0  0  0
   26.7258  -19.2293  -15.4965 C   0  0  0  0  0  0  0  0  0  0  0  0
   25.9272  -18.1228  -16.0786 C   0  0  0  0  0  0  0  0  0  0  0  0
   24.7052  -17.9997  -15.8204 O   0  0  0  0  0  0  0  0  0  0  0  0
   27.3107  -13.5181  -15.2065 C   0  0  0  0  0  0  0  0  0  0  0  0
   26.4450  -14.6867  -15.6458 C   0  0  0  0  0  0  0  0  0  0  0  0
   26.3283  -14.7691  -17.1348 C   0  0  2  0  0  0  0  0  0  0  0  0
   25.6388  -13.5911  -17.7444 C   0  0  0  0  0  0  0  0  0  0  0  0
   25.8244  -16.1089  -17.5454 C   0  0  2  0  0  0  0  0  0  0  0  0
   26.5672  -17.1991  -16.9368 N   0  0  0  0  0  0  0  0  0  0  0  0
   25.6985  -16.3047  -19.0148 C   0  0  0  0  0  0  0  0  0  0  0  0
   26.8245  -16.6383  -19.7969 O   0  0  0  0  0  0  0  0  0  0  0  0
   24.6291  -16.1953  -19.6588 O   0  0  0  0  0  0  0  0  0  0  0  0
  2  4  1  0
  2  1  1  6
  3  2  1  0
  5  7  1  0
  5  4  1  0
  5  6  1  1
  7  9  1  0
  8  7  2  0
  9 10  1  0
 10 11  1  0
 11 12  2  0
 11 18  1  0
 14 13  1  0
 15 16  1  1
 15 14  1  0
 17 15  1  0
 17 18  1  6
 19 20  1  0
 19 17  1  0
 21 19  2  0
M  END
$$$$
