LGI.pdb
     RDKit          3D

 21 20  0  0  1  0  0  0  0  0999 V2000
   21.1938  -20.4527  -19.0260 C   0  0  0  0  0  0  0  0  0  0  0  0
   20.1674  -20.1930  -17.9436 C   0  0  2  0  0  0  0  0  0  0  0  0
   19.9356  -18.7040  -17.7757 C   0  0  0  0  0  0  0  0  0  0  0  0
   20.6841  -20.7970  -16.6410 C   0  0  0  0  0  0  0  0  0  0  0  0
   21.7245  -19.8318  -16.1091 C   0  0  2  0  0  0  0  0  0  0  0  0
   23.0118  -20.2314  -16.6277 N   0  0  0  0  0  0  0  0  0  0  0  0
   21.6970  -19.8601  -14.6376 C   0  0  0  0  0  0  0  0  0  0  0  0
   20.6341  -19.6400  -14.0134 O   0  0  0  0  0  0  0  0  0  0  0  0
   22.8974  -20.1415  -13.9353 N   0  0  0  0  0  0  0  0  0  0  0  0
   22.9553  -20.2741  -12.4980 C   0  0  0  0  0  0  0  0  0  0  0  0
   24.3774  -20.1771  -12.0867 C   0  0  0  0  0  0  0  0  0  0  0  0
   25.2750  -19.8959  -12.9176 O   0  0  0  0  0  0  0  0  0  0  0  0
   27.7461  -19.2048   -7.0515 C   0  0  0  0  0  0  0  0  0  0  0  0
   27.6274  -19.7960   -8.4459 C   0  0  0  0  0  0  0  0  0  0  0  0
   26.2050  -20.0679   -8.8202 C   0  0  2  0  0  0  0  0  0  0  0  0
   25.5297  -21.0519   -7.9197 C   0  0  0  0  0  0  0  0  0  0  0  0
   26.0909  -20.3304  -10.2815 C   0  0  2  0  0  0  0  0  0  0  0  0
   24.7119  -20.4078  -10.7323 N   0  0  0  0  0  0  0  0  0  0  0  0
   26.8773  -21.4952  -10.7694 C   0  0  0  0  0  0  0  0  0  0  0  0
   28.2017  -21.3303  -11.2273 O   0  0  0  0  0  0  0  0  0  0  0  0
   26.4518  -22.6731  -10.8147 O   0  0  0  0  0  0  0  0  0  0  0  0
  2  4  1  0
  2  1  1  6
  3  2  1  0
  5  7  1  0
  5  4  1  0
  5  6  1  6
  7  9  1  0
  8  7  2  0
  9 10  1  0
 10 11  1  0
 11 12  2  0
 11 18  1  0
 14 13  1  0
 15 16  1  1
 15 14  1  0
 17 15  1  0
 17 18  1  1
 19 20  1  0
 19 17  1  0
 21 19  2  0
M  END
$$$$
