LGI.pdb
     RDKit          3D

 21 20  0  0  1  0  0  0  0  0999 V2000
   22.1211  -17.8735  -15.4504 C   0  0  0  0  0  0  0  0  0  0  0  0
   23.3847  -18.4092  -16.0899 C   0  0  2  0  0  0  0  0  0  0  0  0
   23.1975  -18.5705  -17.5858 C   0  0  0  0  0  0  0  0  0  0  0  0
   23.7094  -19.7561  -15.4502 C   0  0  0  0  0  0  0  0  0  0  0  0
   24.2679  -19.4489  -14.0752 C   0  0  2  0  0  0  0  0  0  0  0  0
   25.1967  -18.3506  -14.2049 N   0  0  0  0  0  0  0  0  0  0  0  0
   24.9218  -20.6555  -13.5427 C   0  0  0  0  0  0  0  0  0  0  0  0
   24.2865  -21.7282  -13.4252 O   0  0  0  0  0  0  0  0  0  0  0  0
   26.2872  -20.5841  -13.1634 N   0  0  0  0  0  0  0  0  0  0  0  0
   27.0279  -21.7229  -12.6724 C   0  0  0  0  0  0  0  0  0  0  0  0
   26.8526  -21.7826  -11.2005 C   0  0  0  0  0  0  0  0  0  0  0  0
   27.5194  -22.5825  -10.5000 O   0  0  0  0  0  0  0  0  0  0  0  0
   28.5079  -19.1109   -7.6697 C   0  0  0  0  0  0  0  0  0  0  0  0
   27.7664  -20.1806   -8.4533 C   0  0  0  0  0  0  0  0  0  0  0  0
   26.2825  -20.0343   -8.3355 C   0  0  2  0  0  0  0  0  0  0  0  0
   25.8057  -19.9179   -6.9234 C   0  0  0  0  0  0  0  0  0  0  0  0
   25.5897  -21.0460   -9.1805 C   0  0  2  0  0  0  0  0  0  0  0  0
   25.9149  -20.9177  -10.5906 N   0  0  0  0  0  0  0  0  0  0  0  0
   24.1179  -21.1255   -8.9780 C   0  0  0  0  0  0  0  0  0  0  0  0
   23.5806  -21.7335   -7.8237 O   0  0  0  0  0  0  0  0  0  0  0  0
   23.2638  -20.6794   -9.7791 O   0  0  0  0  0  0  0  0  0  0  0  0
  2  4  1  0
  2  1  1  1
  3  2  1  0
  5  7  1  0
  5  4  1  0
  5  6  1  6
  7  9  1  0
  8  7  2  0
  9 10  1  0
 10 11  1  0
 11 12  2  0
 11 18  1  0
 14 13  1  0
 15 16  1  1
 15 14  1  0
 17 15  1  0
 17 18  1  6
 19 20  1  0
 19 17  1  0
 21 19  2  0
M  END
$$$$
