LGI.pdb
     RDKit          3D

 21 20  0  0  1  0  0  0  0  0999 V2000
   23.2568  -22.7345  -12.3607 C   0  0  0  0  0  0  0  0  0  0  0  0
   23.4613  -21.8333  -11.1613 C   0  0  2  0  0  0  0  0  0  0  0  0
   22.1276  -21.3582  -10.6185 C   0  0  0  0  0  0  0  0  0  0  0  0
   24.3080  -20.6415  -11.5986 C   0  0  0  0  0  0  0  0  0  0  0  0
   25.6168  -21.2140  -12.1049 C   0  0  2  0  0  0  0  0  0  0  0  0
   26.3098  -21.8048  -10.9840 N   0  0  0  0  0  0  0  0  0  0  0  0
   26.4038  -20.1358  -12.7254 C   0  0  0  0  0  0  0  0  0  0  0  0
   27.0045  -19.2945  -12.0187 O   0  0  0  0  0  0  0  0  0  0  0  0
   26.4714  -20.0643  -14.1409 N   0  0  0  0  0  0  0  0  0  0  0  0
   27.2349  -19.0584  -14.8422 C   0  0  0  0  0  0  0  0  0  0  0  0
   26.2792  -18.1042  -15.4562 C   0  0  0  0  0  0  0  0  0  0  0  0
   25.0428  -18.3183  -15.4312 O   0  0  0  0  0  0  0  0  0  0  0  0
   23.5636  -13.6732  -16.2371 C   0  0  0  0  0  0  0  0  0  0  0  0
   24.9859  -13.7105  -16.7698 C   0  0  0  0  0  0  0  0  0  0  0  0
   25.8417  -14.6780  -16.0155 C   0  0  2  0  0  0  0  0  0  0  0  0
   27.1572  -14.1064  -15.5937 C   0  0  0  0  0  0  0  0  0  0  0  0
   25.8917  -15.9893  -16.7193 C   0  0  2  0  0  0  0  0  0  0  0  0
   26.7844  -16.9382  -16.0763 N   0  0  0  0  0  0  0  0  0  0  0  0
   26.1663  -15.9039  -18.1789 C   0  0  0  0  0  0  0  0  0  0  0  0
   25.1262  -16.0630  -19.1189 O   0  0  0  0  0  0  0  0  0  0  0  0
   27.2954  -15.6926  -18.6800 O   0  0  0  0  0  0  0  0  0  0  0  0
  2  4  1  0
  2  1  1  6
  3  2  1  0
  5  7  1  0
  5  4  1  0
  5  6  1  1
  7  9  1  0
  8  7  2  0
  9 10  1  0
 10 11  1  0
 11 12  2  0
 11 18  1  0
 14 13  1  0
 15 16  1  6
 15 14  1  0
 17 15  1  0
 17 18  1  1
 19 20  1  0
 19 17  1  0
 21 19  2  0
M  END
$$$$
