LGI.pdb
     RDKit          3D

 21 20  0  0  1  0  0  0  0  0999 V2000
   18.5376  -13.5152  -20.1842 C   0  0  0  0  0  0  0  0  0  0  0  0
   19.7252  -13.9153  -19.3343 C   0  0  2  0  0  0  0  0  0  0  0  0
   19.7328  -15.4135  -19.1014 C   0  0  0  0  0  0  0  0  0  0  0  0
   19.6308  -13.1747  -18.0035 C   0  0  0  0  0  0  0  0  0  0  0  0
   19.5972  -11.6976  -18.3416 C   0  0  2  0  0  0  0  0  0  0  0  0
   20.9161  -11.3101  -18.7844 N   0  0  0  0  0  0  0  0  0  0  0  0
   19.1787  -10.9423  -17.1494 C   0  0  0  0  0  0  0  0  0  0  0  0
   18.0807  -11.1782  -16.5956 O   0  0  0  0  0  0  0  0  0  0  0  0
   20.0414   -9.9395  -16.6359 N   0  0  0  0  0  0  0  0  0  0  0  0
   19.7560   -9.1987  -15.4292 C   0  0  0  0  0  0  0  0  0  0  0  0
   20.8972   -8.2864  -15.1718 C   0  0  0  0  0  0  0  0  0  0  0  0
   22.0815   -8.6989  -15.2232 O   0  0  0  0  0  0  0  0  0  0  0  0
   21.5457   -4.5988  -18.3157 C   0  0  0  0  0  0  0  0  0  0  0  0
   21.6430   -5.6083  -17.1846 C   0  0  0  0  0  0  0  0  0  0  0  0
   21.6786   -4.9460  -15.8439 C   0  0  2  0  0  0  0  0  0  0  0  0
   22.6910   -3.8502  -15.7475 C   0  0  0  0  0  0  0  0  0  0  0  0
   21.7102   -5.9655  -14.7589 C   0  0  2  0  0  0  0  0  0  0  0  0
   20.6308   -6.9321  -14.8648 N   0  0  0  0  0  0  0  0  0  0  0  0
   21.7939   -5.4086  -13.3818 C   0  0  0  0  0  0  0  0  0  0  0  0
   23.0453   -5.1661  -12.7768 O   0  0  0  0  0  0  0  0  0  0  0  0
   20.8044   -5.1188  -12.6696 O   0  0  0  0  0  0  0  0  0  0  0  0
  2  4  1  0
  2  1  1  6
  3  2  1  0
  5  7  1  0
  5  4  1  0
  5  6  1  1
  7  9  1  0
  8  7  2  0
  9 10  1  0
 10 11  1  0
 11 12  2  0
 11 18  1  0
 14 13  1  0
 15 16  1  6
 15 14  1  0
 17 15  1  0
 17 18  1  1
 19 20  1  0
 19 17  1  0
 21 19  2  0
M  END
$$$$
