LGI.pdb
     RDKit          3D

 21 20  0  0  1  0  0  0  0  0999 V2000
   12.3192  -13.0672  -14.6685 C   0  0  0  0  0  0  0  0  0  0  0  0
   13.7162  -13.6493  -14.7137 C   0  0  2  0  0  0  0  0  0  0  0  0
   13.6607  -15.1634  -14.7715 C   0  0  0  0  0  0  0  0  0  0  0  0
   14.4629  -13.1958  -13.4626 C   0  0  0  0  0  0  0  0  0  0  0  0
   14.4033  -11.6814  -13.4586 C   0  0  2  0  0  0  0  0  0  0  0  0
   15.4189  -11.1915  -14.3611 N   0  0  0  0  0  0  0  0  0  0  0  0
   14.6153  -11.1967  -12.0849 C   0  0  0  0  0  0  0  0  0  0  0  0
   13.8433  -11.5382  -11.1600 O   0  0  0  0  0  0  0  0  0  0  0  0
   15.7111  -10.3339  -11.8242 N   0  0  0  0  0  0  0  0  0  0  0  0
   16.0404   -9.8582  -10.5007 C   0  0  0  0  0  0  0  0  0  0  0  0
   15.5979   -8.4458  -10.3989 C   0  0  0  0  0  0  0  0  0  0  0  0
   15.1561   -7.8311  -11.3999 O   0  0  0  0  0  0  0  0  0  0  0  0
   12.1579   -6.5557   -7.1038 C   0  0  0  0  0  0  0  0  0  0  0  0
   13.1674   -6.7861   -8.2155 C   0  0  0  0  0  0  0  0  0  0  0  0
   14.4386   -6.0328   -7.9832 C   0  0  2  0  0  0  0  0  0  0  0  0
   14.2278   -4.5778   -7.7123 C   0  0  0  0  0  0  0  0  0  0  0  0
   15.4418   -6.3661   -9.0319 C   0  0  2  0  0  0  0  0  0  0  0  0
   15.6811   -7.7945   -9.1466 N   0  0  0  0  0  0  0  0  0  0  0  0
   16.7234   -5.6175   -8.9298 C   0  0  0  0  0  0  0  0  0  0  0  0
   16.9214   -4.4242   -9.6562 O   0  0  0  0  0  0  0  0  0  0  0  0
   17.6967   -5.9653   -8.2212 O   0  0  0  0  0  0  0  0  0  0  0  0
  2  4  1  0
  2  1  1  1
  3  2  1  0
  5  7  1  0
  5  4  1  0
  5  6  1  6
  7  9  1  0
  8  7  2  0
  9 10  1  0
 10 11  1  0
 11 12  2  0
 11 18  1  0
 14 13  1  0
 15 16  1  6
 15 14  1  0
 17 15  1  0
 17 18  1  1
 19 20  1  0
 19 17  1  0
 21 19  2  0
M  END
$$$$
