LGI.pdb
     RDKit          3D

 21 20  0  0  1  0  0  0  0  0999 V2000
   22.3876  -21.1377  -16.8098 C   0  0  0  0  0  0  0  0  0  0  0  0
   22.6784  -19.9007  -15.9865 C   0  0  2  0  0  0  0  0  0  0  0  0
   22.5441  -18.6519  -16.8359 C   0  0  0  0  0  0  0  0  0  0  0  0
   24.0974  -20.0155  -15.4373 C   0  0  0  0  0  0  0  0  0  0  0  0
   24.0285  -20.9995  -14.2866 C   0  0  2  0  0  0  0  0  0  0  0  0
   23.0121  -20.5428  -13.3679 N   0  0  0  0  0  0  0  0  0  0  0  0
   25.3499  -21.0775  -13.6426 C   0  0  0  0  0  0  0  0  0  0  0  0
   26.3326  -21.5544  -14.2548 O   0  0  0  0  0  0  0  0  0  0  0  0
   25.4933  -20.6026  -12.3132 N   0  0  0  0  0  0  0  0  0  0  0  0
   26.7410  -20.6598  -11.5876 C   0  0  0  0  0  0  0  0  0  0  0  0
   26.4496  -21.1368  -10.2135 C   0  0  0  0  0  0  0  0  0  0  0  0
   25.7639  -22.1696  -10.0174 O   0  0  0  0  0  0  0  0  0  0  0  0
   29.5261  -19.0403   -6.0953 C   0  0  0  0  0  0  0  0  0  0  0  0
   28.7444  -19.9725   -7.0052 C   0  0  0  0  0  0  0  0  0  0  0  0
   27.2741  -19.9153   -6.7366 C   0  0  2  0  0  0  0  0  0  0  0  0
   26.9181  -20.1881   -5.3105 C   0  0  0  0  0  0  0  0  0  0  0  0
   26.5257  -20.6960   -7.7603 C   0  0  2  0  0  0  0  0  0  0  0  0
   26.9596  -20.4054   -9.1161 N   0  0  0  0  0  0  0  0  0  0  0  0
   25.0446  -20.6161   -7.6460 C   0  0  0  0  0  0  0  0  0  0  0  0
   24.3266  -21.5713   -6.8958 O   0  0  0  0  0  0  0  0  0  0  0  0
   24.3356  -19.7327   -8.1821 O   0  0  0  0  0  0  0  0  0  0  0  0
  2  4  1  0
  2  1  1  6
  3  2  1  0
  5  7  1  0
  5  4  1  0
  5  6  1  1
  7  9  1  0
  8  7  2  0
  9 10  1  0
 10 11  1  0
 11 12  2  0
 11 18  1  0
 14 13  1  0
 15 16  1  1
 15 14  1  0
 17 15  1  0
 17 18  1  6
 19 20  1  0
 19 17  1  0
 21 19  2  0
M  END
$$$$
