LGI.pdb
     RDKit          3D

 21 20  0  0  1  0  0  0  0  0999 V2000
   24.1401  -24.7427  -16.7160 C   0  0  0  0  0  0  0  0  0  0  0  0
   23.7882  -23.2812  -16.5356 C   0  0  2  0  0  0  0  0  0  0  0  0
   23.3221  -22.6797  -17.8470 C   0  0  0  0  0  0  0  0  0  0  0  0
   25.0289  -22.5502  -16.0309 C   0  0  0  0  0  0  0  0  0  0  0  0
   24.5359  -21.5041  -15.0513 C   0  0  2  0  0  0  0  0  0  0  0  0
   23.8103  -20.5013  -15.7955 N   0  0  0  0  0  0  0  0  0  0  0  0
   25.6908  -20.9280  -14.3433 C   0  0  0  0  0  0  0  0  0  0  0  0
   26.4827  -20.1574  -14.9324 O   0  0  0  0  0  0  0  0  0  0  0  0
   25.8934  -21.2603  -12.9788 N   0  0  0  0  0  0  0  0  0  0  0  0
   27.0226  -20.7862  -12.2129 C   0  0  0  0  0  0  0  0  0  0  0  0
   26.8624  -21.2648  -10.8178 C   0  0  0  0  0  0  0  0  0  0  0  0
   26.7317  -22.4866  -10.5624 O   0  0  0  0  0  0  0  0  0  0  0  0
   29.0232  -18.8003   -6.5410 C   0  0  0  0  0  0  0  0  0  0  0  0
   28.3961  -19.8204   -7.4761 C   0  0  0  0  0  0  0  0  0  0  0  0
   26.9045  -19.8386   -7.3666 C   0  0  2  0  0  0  0  0  0  0  0  0
   26.4121  -20.1377   -5.9870 C   0  0  0  0  0  0  0  0  0  0  0  0
   26.3104  -20.6495   -8.4652 C   0  0  2  0  0  0  0  0  0  0  0  0
   26.8589  -20.3168   -9.7687 N   0  0  0  0  0  0  0  0  0  0  0  0
   24.8231  -20.6592   -8.4994 C   0  0  0  0  0  0  0  0  0  0  0  0
   24.1166  -19.8151   -9.3821 O   0  0  0  0  0  0  0  0  0  0  0  0
   24.0990  -21.3856   -7.7795 O   0  0  0  0  0  0  0  0  0  0  0  0
  2  4  1  0
  2  1  1  6
  3  2  1  0
  5  7  1  0
  5  4  1  0
  5  6  1  6
  7  9  1  0
  8  7  2  0
  9 10  1  0
 10 11  1  0
 11 12  2  0
 11 18  1  0
 14 13  1  0
 15 16  1  1
 15 14  1  0
 17 15  1  0
 17 18  1  6
 19 20  1  0
 19 17  1  0
 21 19  2  0
M  END
$$$$
