LGI.pdb
     RDKit          3D

 21 20  0  0  1  0  0  0  0  0999 V2000
   24.3401  -16.6747  -18.9620 C   0  0  0  0  0  0  0  0  0  0  0  0
   23.8360  -17.8813  -18.1987 C   0  0  2  0  0  0  0  0  0  0  0  0
   22.3542  -17.7463  -17.9074 C   0  0  0  0  0  0  0  0  0  0  0  0
   24.6230  -17.9846  -16.8955 C   0  0  0  0  0  0  0  0  0  0  0  0
   25.4901  -19.2214  -17.0205 C   0  0  2  0  0  0  0  0  0  0  0  0
   24.6314  -20.3797  -16.9381 N   0  0  0  0  0  0  0  0  0  0  0  0
   26.4968  -19.2118  -15.9465 C   0  0  0  0  0  0  0  0  0  0  0  0
   27.3313  -18.2822  -15.8604 O   0  0  0  0  0  0  0  0  0  0  0  0
   26.5070  -20.2755  -15.0075 N   0  0  0  0  0  0  0  0  0  0  0  0
   27.4027  -20.3166  -13.8750 C   0  0  0  0  0  0  0  0  0  0  0  0
   26.7229  -21.0519  -12.7805 C   0  0  0  0  0  0  0  0  0  0  0  0
   26.5158  -22.2873  -12.8602 O   0  0  0  0  0  0  0  0  0  0  0  0
   27.2679  -19.7275   -7.6456 C   0  0  0  0  0  0  0  0  0  0  0  0
   26.9899  -20.4703   -8.9414 C   0  0  0  0  0  0  0  0  0  0  0  0
   25.5407  -20.4317   -9.3097 C   0  0  2  0  0  0  0  0  0  0  0  0
   24.6472  -21.0394   -8.2766 C   0  0  0  0  0  0  0  0  0  0  0  0
   25.3447  -20.9063  -10.7075 C   0  0  2  0  0  0  0  0  0  0  0  0
   26.3069  -20.3358  -11.6345 N   0  0  0  0  0  0  0  0  0  0  0  0
   23.9572  -20.7652  -11.2255 C   0  0  0  0  0  0  0  0  0  0  0  0
   23.0215  -21.8104  -11.0748 O   0  0  0  0  0  0  0  0  0  0  0  0
   23.5169  -19.7508  -11.8150 O   0  0  0  0  0  0  0  0  0  0  0  0
  2  4  1  0
  2  1  1  1
  3  2  1  0
  5  7  1  0
  5  4  1  0
  5  6  1  1
  7  9  1  0
  8  7  2  0
  9 10  1  0
 10 11  1  0
 11 12  2  0
 11 18  1  0
 14 13  1  0
 15 16  1  1
 15 14  1  0
 17 15  1  0
 17 18  1  6
 19 20  1  0
 19 17  1  0
 21 19  2  0
M  END
$$$$
