VWQ.pdb
     RDKit          3D

 31 32  0  0  1  0  0  0  0  0999 V2000
    9.1331  -18.4038   20.5875 C   0  0  0  0  0  0  0  0  0  0  0  0
    8.6691  -17.1589   19.8657 C   0  0  1  0  0  0  0  0  0  0  0  0
    7.8310  -17.5853   18.6886 C   0  0  0  0  0  0  0  0  0  0  0  0
    7.8911  -16.3124   20.8437 C   0  0  2  0  0  0  0  0  0  0  0  0
    7.3336  -15.1795   20.1249 N   0  0  0  0  0  0  0  0  0  0  0  0
    8.7327  -15.8720   21.9853 C   0  0  0  0  0  0  0  0  0  0  0  0
    9.6419  -15.0485   21.8108 O   0  0  0  0  0  0  0  0  0  0  0  0
    8.4964  -16.3907   23.2642 N   0  0  0  0  0  0  0  0  0  0  0  0
    9.2780  -16.0715   24.4374 C   0  0  1  0  0  0  0  0  0  0  0  0
    8.4946  -16.1944   25.7158 C   0  0  0  0  0  0  0  0  0  0  0  0
    7.3916  -15.2235   25.8324 C   0  0  0  0  0  0  0  0  0  0  0  0
    6.0543  -15.5706   25.6702 C   0  0  0  0  0  0  0  0  0  0  0  0
    5.3661  -14.4301   25.8488 N   0  0  0  0  0  0  0  0  0  0  0  0
    6.2024  -13.4113   26.1097 C   0  0  0  0  0  0  0  0  0  0  0  0
    5.9318  -12.0781   26.3567 C   0  0  0  0  0  0  0  0  0  0  0  0
    7.0159  -11.2496   26.5978 C   0  0  0  0  0  0  0  0  0  0  0  0
    8.3150  -11.7282   26.5933 C   0  0  0  0  0  0  0  0  0  0  0  0
    8.5734  -13.0505   26.3476 C   0  0  0  0  0  0  0  0  0  0  0  0
    7.4989  -13.8807   26.1068 C   0  0  0  0  0  0  0  0  0  0  0  0
   10.3704  -17.0748   24.5167 C   0  0  0  0  0  0  0  0  0  0  0  0
   10.0913  -18.2777   24.6033 O   0  0  0  0  0  0  0  0  0  0  0  0
   15.8146  -15.1986   23.3145 N   0  0  0  0  0  0  0  0  0  0  0  0
   14.8698  -15.5772   22.3362 C   0  0  0  0  0  0  0  0  0  0  0  0
   14.8454  -15.0408   21.2241 O   0  0  0  0  0  0  0  0  0  0  0  0
   13.8531  -16.6550   22.6165 C   0  0  0  0  0  0  0  0  0  0  0  0
   14.0679  -17.2195   23.9868 C   0  0  0  0  0  0  0  0  0  0  0  0
   12.8199  -17.6958   24.6410 C   0  0  2  0  0  0  0  0  0  0  0  0
   11.7417  -16.7177   24.4981 N   0  0  0  0  0  0  0  0  0  0  0  0
   13.0451  -17.9254   26.0844 C   0  0  0  0  0  0  0  0  0  0  0  0
   13.9315  -18.7732   26.4633 O   0  0  0  0  0  0  0  0  0  0  0  0
   12.3796  -17.2996   27.1172 O   0  0  0  0  0  0  0  0  0  0  0  0
  2  1  1  1
  2  3  1  0
  4  2  1  0
  4  5  1  6
  6  7  2  0
  6  4  1  0
  8  6  1  0
  9  8  1  0
  9 10  1  1
 11 19  1  0
 11 10  1  0
 12 11  2  0
 13 12  1  0
 13 14  1  0
 14 15  1  0
 14 19  2  0
 15 16  2  0
 16 17  1  0
 18 17  2  0
 19 18  1  0
 20  9  1  0
 21 20  2  0
 23 22  1  0
 24 23  2  0
 25 23  1  0
 26 25  1  0
 27 26  1  1
 27 28  1  0
 28 20  1  0
 29 27  1  0
 30 29  2  0
 31 29  1  0
M  END
$$$$
