VWQ.pdb
     RDKit          3D

 31 32  0  0  1  0  0  0  0  0999 V2000
    6.9943  -23.0556   25.7266 C   0  0  0  0  0  0  0  0  0  0  0  0
    7.5552  -21.7106   25.3235 C   0  0  1  0  0  0  0  0  0  0  0  0
    8.7669  -21.9486   24.4604 C   0  0  0  0  0  0  0  0  0  0  0  0
    6.4741  -20.9517   24.5929 C   0  0  2  0  0  0  0  0  0  0  0  0
    5.9964  -21.7779   23.4974 N   0  0  0  0  0  0  0  0  0  0  0  0
    6.9550  -19.6321   24.1101 C   0  0  0  0  0  0  0  0  0  0  0  0
    7.4659  -19.5258   22.9863 O   0  0  0  0  0  0  0  0  0  0  0  0
    6.8295  -18.5040   24.9297 N   0  0  0  0  0  0  0  0  0  0  0  0
    7.2919  -17.1797   24.5809 C   0  0  1  0  0  0  0  0  0  0  0  0
    6.5340  -16.0885   25.2867 C   0  0  0  0  0  0  0  0  0  0  0  0
    6.9407  -14.7289   24.8879 C   0  0  0  0  0  0  0  0  0  0  0  0
    7.6020  -14.4533   23.6954 C   0  0  0  0  0  0  0  0  0  0  0  0
    7.7973  -13.1237   23.6955 N   0  0  0  0  0  0  0  0  0  0  0  0
    7.2954  -12.5740   24.8142 C   0  0  0  0  0  0  0  0  0  0  0  0
    7.2741  -11.2541   25.2255 C   0  0  0  0  0  0  0  0  0  0  0  0
    6.6769  -10.9846   26.4464 C   0  0  0  0  0  0  0  0  0  0  0  0
    6.1242  -11.9868   27.2253 C   0  0  0  0  0  0  0  0  0  0  0  0
    6.1501  -13.2916   26.8095 C   0  0  0  0  0  0  0  0  0  0  0  0
    6.7429  -13.5669   25.5953 C   0  0  0  0  0  0  0  0  0  0  0  0
    8.7005  -17.0771   25.0408 C   0  0  0  0  0  0  0  0  0  0  0  0
    9.0208  -17.5464   26.1406 O   0  0  0  0  0  0  0  0  0  0  0  0
   13.3051  -16.6490   20.9160 N   0  0  0  0  0  0  0  0  0  0  0  0
   13.9889  -16.9620   22.1108 C   0  0  0  0  0  0  0  0  0  0  0  0
   15.0792  -17.5415   22.0949 O   0  0  0  0  0  0  0  0  0  0  0  0
   13.4088  -16.5975   23.4541 C   0  0  0  0  0  0  0  0  0  0  0  0
   11.9492  -16.2922   23.3173 C   0  0  0  0  0  0  0  0  0  0  0  0
   11.1413  -16.6838   24.5032 C   0  0  2  0  0  0  0  0  0  0  0  0
    9.7153  -16.4575   24.2696 N   0  0  0  0  0  0  0  0  0  0  0  0
   11.5442  -15.8974   25.6890 C   0  0  0  0  0  0  0  0  0  0  0  0
   12.7345  -16.0139   26.1555 O   0  0  0  0  0  0  0  0  0  0  0  0
   10.7476  -15.0097   26.3805 O   0  0  0  0  0  0  0  0  0  0  0  0
  2  1  1  6
  2  3  1  0
  4  2  1  0
  4  5  1  6
  6  7  2  0
  6  4  1  0
  8  6  1  0
  9  8  1  0
  9 10  1  1
 11 19  1  0
 11 10  1  0
 12 11  2  0
 13 12  1  0
 13 14  1  0
 14 15  1  0
 14 19  2  0
 15 16  2  0
 16 17  1  0
 18 17  2  0
 19 18  1  0
 20  9  1  0
 21 20  2  0
 23 22  1  0
 24 23  2  0
 25 23  1  0
 26 25  1  0
 27 26  1  6
 27 28  1  0
 28 20  1  0
 29 27  1  0
 30 29  2  0
 31 29  1  0
M  END
$$$$
