VWQ.pdb
     RDKit          3D

 31 32  0  0  1  0  0  0  0  0999 V2000
    8.8155  -17.4184   19.6333 C   0  0  0  0  0  0  0  0  0  0  0  0
    7.6895  -16.4331   19.4157 C   0  0  1  0  0  0  0  0  0  0  0  0
    6.7628  -17.0040   18.3740 C   0  0  0  0  0  0  0  0  0  0  0  0
    6.9958  -16.2141   20.7383 C   0  0  2  0  0  0  0  0  0  0  0  0
    5.8257  -15.3839   20.5088 N   0  0  0  0  0  0  0  0  0  0  0  0
    7.9041  -15.6085   21.7452 C   0  0  0  0  0  0  0  0  0  0  0  0
    8.2298  -14.4163   21.6565 O   0  0  0  0  0  0  0  0  0  0  0  0
    8.3936  -16.3896   22.7991 N   0  0  0  0  0  0  0  0  0  0  0  0
    9.3062  -15.9181   23.8159 C   0  0  1  0  0  0  0  0  0  0  0  0
    8.7668  -16.0826   25.2106 C   0  0  0  0  0  0  0  0  0  0  0  0
    7.6415  -15.1830   25.5224 C   0  0  0  0  0  0  0  0  0  0  0  0
    6.3136  -15.5976   25.5152 C   0  0  0  0  0  0  0  0  0  0  0  0
    5.5986  -14.5082   25.8442 N   0  0  0  0  0  0  0  0  0  0  0  0
    6.4098  -13.4572   26.0510 C   0  0  0  0  0  0  0  0  0  0  0  0
    6.1075  -12.1551   26.4045 C   0  0  0  0  0  0  0  0  0  0  0  0
    7.1710  -11.2788   26.5492 C   0  0  0  0  0  0  0  0  0  0  0  0
    8.4805  -11.6817   26.3505 C   0  0  0  0  0  0  0  0  0  0  0  0
    8.7703  -12.9737   26.0005 C   0  0  0  0  0  0  0  0  0  0  0  0
    7.7165  -13.8512   25.8547 C   0  0  0  0  0  0  0  0  0  0  0  0
   10.5226  -16.7667   23.7338 C   0  0  0  0  0  0  0  0  0  0  0  0
   10.4285  -17.9892   23.9042 O   0  0  0  0  0  0  0  0  0  0  0  0
   15.8436  -15.3789   20.5671 N   0  0  0  0  0  0  0  0  0  0  0  0
   14.5393  -14.8472   20.6622 C   0  0  0  0  0  0  0  0  0  0  0  0
   14.0950  -14.0763   19.8060 O   0  0  0  0  0  0  0  0  0  0  0  0
   13.6391  -15.2041   21.8181 C   0  0  0  0  0  0  0  0  0  0  0  0
   13.8693  -16.6259   22.2281 C   0  0  0  0  0  0  0  0  0  0  0  0
   13.0052  -17.0725   23.3534 C   0  0  2  0  0  0  0  0  0  0  0  0
   11.8095  -16.2373   23.4655 N   0  0  0  0  0  0  0  0  0  0  0  0
   13.7405  -16.9982   24.6343 C   0  0  0  0  0  0  0  0  0  0  0  0
   13.3463  -16.1874   25.5483 O   0  0  0  0  0  0  0  0  0  0  0  0
   14.8529  -17.7388   24.9734 O   0  0  0  0  0  0  0  0  0  0  0  0
  2  1  1  1
  2  3  1  0
  4  2  1  0
  4  5  1  6
  6  7  2  0
  6  4  1  0
  8  6  1  0
  9  8  1  0
  9 10  1  1
 11 19  1  0
 11 10  1  0
 12 11  2  0
 13 12  1  0
 13 14  1  0
 14 15  1  0
 14 19  2  0
 15 16  2  0
 16 17  1  0
 18 17  2  0
 19 18  1  0
 20  9  1  0
 21 20  2  0
 23 22  1  0
 24 23  2  0
 25 23  1  0
 26 25  1  0
 27 26  1  6
 27 28  1  0
 28 20  1  0
 29 27  1  0
 30 29  2  0
 31 29  1  0
M  END
$$$$
