VWQ.pdb
     RDKit          3D

 31 32  0  0  1  0  0  0  0  0999 V2000
    7.5356  -15.2459   16.5383 C   0  0  0  0  0  0  0  0  0  0  0  0
    8.1066  -15.3029   17.9371 C   0  0  1  0  0  0  0  0  0  0  0  0
    9.5990  -15.4775   17.8266 C   0  0  0  0  0  0  0  0  0  0  0  0
    7.7324  -14.0255   18.6487 C   0  0  2  0  0  0  0  0  0  0  0  0
    8.2304  -12.9053   17.8688 N   0  0  0  0  0  0  0  0  0  0  0  0
    8.2526  -13.9947   20.0394 C   0  0  0  0  0  0  0  0  0  0  0  0
    9.3377  -13.4513   20.2892 O   0  0  0  0  0  0  0  0  0  0  0  0
    7.5120  -14.5827   21.0719 N   0  0  0  0  0  0  0  0  0  0  0  0
    7.8808  -14.5496   22.4691 C   0  0  1  0  0  0  0  0  0  0  0  0
    6.7233  -14.8295   23.3885 C   0  0  0  0  0  0  0  0  0  0  0  0
    7.0448  -14.6597   24.8170 C   0  0  0  0  0  0  0  0  0  0  0  0
    7.4962  -15.7001   25.6226 C   0  0  0  0  0  0  0  0  0  0  0  0
    7.6745  -15.1571   26.8390 N   0  0  0  0  0  0  0  0  0  0  0  0
    7.3595  -13.8509   26.8225 C   0  0  0  0  0  0  0  0  0  0  0  0
    7.3943  -12.9138   27.8385 C   0  0  0  0  0  0  0  0  0  0  0  0
    7.0068  -11.6227   27.5178 C   0  0  0  0  0  0  0  0  0  0  0  0
    6.6016  -11.2789   26.2394 C   0  0  0  0  0  0  0  0  0  0  0  0
    6.5704  -12.2142   25.2393 C   0  0  0  0  0  0  0  0  0  0  0  0
    6.9548  -13.5012   25.5516 C   0  0  0  0  0  0  0  0  0  0  0  0
    8.8617  -15.6440   22.6845 C   0  0  0  0  0  0  0  0  0  0  0  0
    8.6747  -16.7466   22.1539 O   0  0  0  0  0  0  0  0  0  0  0  0
   14.1390  -14.0858   21.5038 N   0  0  0  0  0  0  0  0  0  0  0  0
   13.5454  -15.1126   20.7381 C   0  0  0  0  0  0  0  0  0  0  0  0
   13.8178  -15.2632   19.5431 O   0  0  0  0  0  0  0  0  0  0  0  0
   12.5535  -16.0657   21.3559 C   0  0  0  0  0  0  0  0  0  0  0  0
   12.3468  -15.7266   22.7998 C   0  0  0  0  0  0  0  0  0  0  0  0
   11.1663  -16.3956   23.4093 C   0  0  2  0  0  0  0  0  0  0  0  0
   10.0226  -15.4866   23.4820 N   0  0  0  0  0  0  0  0  0  0  0  0
   11.4788  -16.8531   24.7804 C   0  0  0  0  0  0  0  0  0  0  0  0
   10.8474  -16.3499   25.7785 O   0  0  0  0  0  0  0  0  0  0  0  0
   12.4146  -17.8060   25.1223 O   0  0  0  0  0  0  0  0  0  0  0  0
  2  1  1  6
  2  3  1  0
  4  2  1  0
  4  5  1  6
  6  7  2  0
  6  4  1  0
  8  6  1  0
  9  8  1  0
  9 10  1  1
 11 19  1  0
 11 10  1  0
 12 11  2  0
 13 12  1  0
 13 14  1  0
 14 15  1  0
 14 19  2  0
 15 16  2  0
 16 17  1  0
 18 17  2  0
 19 18  1  0
 20  9  1  0
 21 20  2  0
 23 22  1  0
 24 23  2  0
 25 23  1  0
 26 25  1  0
 27 26  1  1
 27 28  1  0
 28 20  1  0
 29 27  1  0
 30 29  2  0
 31 29  1  0
M  END
$$$$
