VWQ.pdb
     RDKit          3D

 31 32  0  0  1  0  0  0  0  0999 V2000
    8.6511  -17.0771   19.7823 C   0  0  0  0  0  0  0  0  0  0  0  0
    8.0900  -15.7240   19.4077 C   0  0  1  0  0  0  0  0  0  0  0  0
    7.2392  -15.8949   18.1760 C   0  0  0  0  0  0  0  0  0  0  0  0
    7.2966  -15.2040   20.5818 C   0  0  2  0  0  0  0  0  0  0  0  0
    6.6112  -13.9912   20.1689 N   0  0  0  0  0  0  0  0  0  0  0  0
    8.1572  -14.9658   21.7685 C   0  0  0  0  0  0  0  0  0  0  0  0
    8.8589  -13.9470   21.8376 O   0  0  0  0  0  0  0  0  0  0  0  0
    8.1745  -15.8979   22.8131 N   0  0  0  0  0  0  0  0  0  0  0  0
    8.9528  -15.7608   24.0234 C   0  0  1  0  0  0  0  0  0  0  0  0
    8.1681  -16.0841   25.2656 C   0  0  0  0  0  0  0  0  0  0  0  0
    7.1812  -15.0517   25.6304 C   0  0  0  0  0  0  0  0  0  0  0  0
    5.8110  -15.2893   25.6640 C   0  0  0  0  0  0  0  0  0  0  0  0
    5.2561  -14.1227   26.0344 N   0  0  0  0  0  0  0  0  0  0  0  0
    6.2045  -13.1907   26.2283 C   0  0  0  0  0  0  0  0  0  0  0  0
    6.0872  -11.8674   26.6118 C   0  0  0  0  0  0  0  0  0  0  0  0
    7.2605  -11.1403   26.7320 C   0  0  0  0  0  0  0  0  0  0  0  0
    8.4987  -11.7066   26.4810 C   0  0  0  0  0  0  0  0  0  0  0  0
    8.6049  -13.0183   26.1015 C   0  0  0  0  0  0  0  0  0  0  0  0
    7.4410  -13.7478   25.9800 C   0  0  0  0  0  0  0  0  0  0  0  0
   10.0500  -16.7593   23.9486 C   0  0  0  0  0  0  0  0  0  0  0  0
    9.7925  -17.9626   24.0835 O   0  0  0  0  0  0  0  0  0  0  0  0
   14.5995  -14.5666   20.6770 N   0  0  0  0  0  0  0  0  0  0  0  0
   14.9538  -15.0191   21.9664 C   0  0  0  0  0  0  0  0  0  0  0  0
   16.1342  -15.0866   22.3225 O   0  0  0  0  0  0  0  0  0  0  0  0
   13.8979  -15.4373   22.9584 C   0  0  0  0  0  0  0  0  0  0  0  0
   13.5986  -16.8966   22.8049 C   0  0  0  0  0  0  0  0  0  0  0  0
   12.4883  -17.3749   23.6714 C   0  0  2  0  0  0  0  0  0  0  0  0
   11.4019  -16.3970   23.7266 N   0  0  0  0  0  0  0  0  0  0  0  0
   12.9688  -17.6079   25.0504 C   0  0  0  0  0  0  0  0  0  0  0  0
   13.8966  -18.4690   25.2640 O   0  0  0  0  0  0  0  0  0  0  0  0
   12.5117  -16.9721   26.1852 O   0  0  0  0  0  0  0  0  0  0  0  0
  2  1  1  1
  2  3  1  0
  4  2  1  0
  4  5  1  6
  6  7  2  0
  6  4  1  0
  8  6  1  0
  9  8  1  0
  9 10  1  1
 11 19  1  0
 11 10  1  0
 12 11  2  0
 13 12  1  0
 13 14  1  0
 14 15  1  0
 14 19  2  0
 15 16  2  0
 16 17  1  0
 18 17  2  0
 19 18  1  0
 20  9  1  0
 21 20  2  0
 23 22  1  0
 24 23  2  0
 25 23  1  0
 26 25  1  0
 27 26  1  6
 27 28  1  0
 28 20  1  0
 29 27  1  0
 30 29  2  0
 31 29  1  0
M  END
$$$$
