VWQ.pdb
     RDKit          3D

 31 32  0  0  1  0  0  0  0  0999 V2000
    8.3082  -16.1884   18.9501 C   0  0  0  0  0  0  0  0  0  0  0  0
    8.1519  -14.7227   18.6137 C   0  0  1  0  0  0  0  0  0  0  0  0
    7.2785  -14.6137   17.3910 C   0  0  0  0  0  0  0  0  0  0  0  0
    7.5477  -14.0289   19.8104 C   0  0  2  0  0  0  0  0  0  0  0  0
    7.2815  -12.6465   19.4509 N   0  0  0  0  0  0  0  0  0  0  0  0
    8.4257  -14.1215   21.0046 C   0  0  0  0  0  0  0  0  0  0  0  0
    9.4504  -13.4292   21.0824 O   0  0  0  0  0  0  0  0  0  0  0  0
    8.0926  -14.9954   22.0465 N   0  0  0  0  0  0  0  0  0  0  0  0
    8.8997  -15.2134   23.2256 C   0  0  1  0  0  0  0  0  0  0  0  0
    8.1681  -15.9590   24.3081 C   0  0  0  0  0  0  0  0  0  0  0  0
    7.2309  -15.1209   25.0776 C   0  0  0  0  0  0  0  0  0  0  0  0
    5.9873  -15.5715   25.5083 C   0  0  0  0  0  0  0  0  0  0  0  0
    5.4400  -14.5339   26.1641 N   0  0  0  0  0  0  0  0  0  0  0  0
    6.2742  -13.4806   26.1588 C   0  0  0  0  0  0  0  0  0  0  0  0
    6.1215  -12.2211   26.7087 C   0  0  0  0  0  0  0  0  0  0  0  0
    7.1686  -11.3294   26.5404 C   0  0  0  0  0  0  0  0  0  0  0  0
    8.3194  -11.6768   25.8536 C   0  0  0  0  0  0  0  0  0  0  0  0
    8.4616  -12.9267   25.3123 C   0  0  0  0  0  0  0  0  0  0  0  0
    7.4232  -13.8193   25.4760 C   0  0  0  0  0  0  0  0  0  0  0  0
   10.0383  -16.0760   22.8180 C   0  0  0  0  0  0  0  0  0  0  0  0
    9.8164  -17.1644   22.2716 O   0  0  0  0  0  0  0  0  0  0  0  0
   14.3394  -14.9626   18.4475 N   0  0  0  0  0  0  0  0  0  0  0  0
   14.0806  -14.5981   19.7866 C   0  0  0  0  0  0  0  0  0  0  0  0
   14.7466  -13.7283   20.3566 O   0  0  0  0  0  0  0  0  0  0  0  0
   12.9766  -15.2613   20.5710 C   0  0  0  0  0  0  0  0  0  0  0  0
   13.5192  -15.8177   21.8511 C   0  0  0  0  0  0  0  0  0  0  0  0
   12.5147  -16.5670   22.6522 C   0  0  2  0  0  0  0  0  0  0  0  0
   11.3910  -15.7090   23.0272 N   0  0  0  0  0  0  0  0  0  0  0  0
   13.1261  -17.0930   23.8916 C   0  0  0  0  0  0  0  0  0  0  0  0
   14.0924  -17.9349   23.8169 O   0  0  0  0  0  0  0  0  0  0  0  0
   12.7587  -16.7629   25.1788 O   0  0  0  0  0  0  0  0  0  0  0  0
  2  1  1  1
  2  3  1  0
  4  2  1  0
  4  5  1  6
  6  7  2  0
  6  4  1  0
  8  6  1  0
  9  8  1  0
  9 10  1  1
 11 19  1  0
 11 10  1  0
 12 11  2  0
 13 12  1  0
 13 14  1  0
 14 15  1  0
 14 19  2  0
 15 16  2  0
 16 17  1  0
 18 17  2  0
 19 18  1  0
 20  9  1  0
 21 20  2  0
 23 22  1  0
 24 23  2  0
 25 23  1  0
 26 25  1  0
 27 26  1  1
 27 28  1  0
 28 20  1  0
 29 27  1  0
 30 29  2  0
 31 29  1  0
M  END
$$$$
