VWQ.pdb
     RDKit          3D

 31 32  0  0  1  0  0  0  0  0999 V2000
    6.5201  -19.4654   18.7251 C   0  0  0  0  0  0  0  0  0  0  0  0
    7.3087  -19.0111   19.9325 C   0  0  1  0  0  0  0  0  0  0  0  0
    8.3926  -20.0248   20.1921 C   0  0  0  0  0  0  0  0  0  0  0  0
    7.8677  -17.6401   19.6387 C   0  0  2  0  0  0  0  0  0  0  0  0
    8.7692  -17.7478   18.5043 N   0  0  0  0  0  0  0  0  0  0  0  0
    8.5489  -17.0557   20.8219 C   0  0  0  0  0  0  0  0  0  0  0  0
    9.7638  -17.2288   20.9927 O   0  0  0  0  0  0  0  0  0  0  0  0
    7.8134  -16.3057   21.7476 N   0  0  0  0  0  0  0  0  0  0  0  0
    8.3763  -15.6509   22.9067 C   0  0  1  0  0  0  0  0  0  0  0  0
    7.4051  -14.7255   23.5875 C   0  0  0  0  0  0  0  0  0  0  0  0
    7.9337  -14.1104   24.8184 C   0  0  0  0  0  0  0  0  0  0  0  0
    9.2193  -14.3475   25.2940 C   0  0  0  0  0  0  0  0  0  0  0  0
    9.3228  -13.6195   26.4189 N   0  0  0  0  0  0  0  0  0  0  0  0
    8.1797  -12.9545   26.6564 C   0  0  0  0  0  0  0  0  0  0  0  0
    7.8463  -12.0973   27.6888 C   0  0  0  0  0  0  0  0  0  0  0  0
    6.5728  -11.5517   27.6679 C   0  0  0  0  0  0  0  0  0  0  0  0
    5.6690  -11.8471   26.6616 C   0  0  0  0  0  0  0  0  0  0  0  0
    6.0082  -12.6974   25.6430 C   0  0  0  0  0  0  0  0  0  0  0  0
    7.2742  -13.2440   25.6576 C   0  0  0  0  0  0  0  0  0  0  0  0
    8.7015  -16.7152   23.8905 C   0  0  0  0  0  0  0  0  0  0  0  0
    7.8112  -17.4829   24.2782 O   0  0  0  0  0  0  0  0  0  0  0  0
   14.5614  -18.9054   24.7394 N   0  0  0  0  0  0  0  0  0  0  0  0
   13.7483  -19.9336   25.2634 C   0  0  0  0  0  0  0  0  0  0  0  0
   14.2038  -21.0569   25.4990 O   0  0  0  0  0  0  0  0  0  0  0  0
   12.2882  -19.6945   25.5551 C   0  0  0  0  0  0  0  0  0  0  0  0
   11.8442  -18.4075   24.9313 C   0  0  0  0  0  0  0  0  0  0  0  0
   10.4041  -18.1031   25.1459 C   0  0  2  0  0  0  0  0  0  0  0  0
   10.0040  -16.8993   24.4177 N   0  0  0  0  0  0  0  0  0  0  0  0
   10.1275  -17.8858   26.5823 C   0  0  0  0  0  0  0  0  0  0  0  0
   10.0862  -18.8897   27.3814 O   0  0  0  0  0  0  0  0  0  0  0  0
    9.9008  -16.6681   27.1878 O   0  0  0  0  0  0  0  0  0  0  0  0
  2  1  1  6
  2  3  1  0
  4  2  1  0
  4  5  1  6
  6  7  2  0
  6  4  1  0
  8  6  1  0
  9  8  1  0
  9 10  1  1
 11 19  1  0
 11 10  1  0
 12 11  2  0
 13 12  1  0
 13 14  1  0
 14 15  1  0
 14 19  2  0
 15 16  2  0
 16 17  1  0
 18 17  2  0
 19 18  1  0
 20  9  1  0
 21 20  2  0
 23 22  1  0
 24 23  2  0
 25 23  1  0
 26 25  1  0
 27 26  1  1
 27 28  1  0
 28 20  1  0
 29 27  1  0
 30 29  2  0
 31 29  1  0
M  END
$$$$
