VWQ.pdb
     RDKit          3D

 31 32  0  0  1  0  0  0  0  0999 V2000
    7.2429  -15.2695   18.2168 C   0  0  0  0  0  0  0  0  0  0  0  0
    7.9641  -14.7670   19.4471 C   0  0  1  0  0  0  0  0  0  0  0  0
    7.7182  -13.2850   19.5610 C   0  0  0  0  0  0  0  0  0  0  0  0
    7.4388  -15.5262   20.6413 C   0  0  2  0  0  0  0  0  0  0  0  0
    5.9954  -15.3665   20.6856 N   0  0  0  0  0  0  0  0  0  0  0  0
    8.0754  -15.0770   21.9056 C   0  0  0  0  0  0  0  0  0  0  0  0
    8.0914  -13.8747   22.2047 O   0  0  0  0  0  0  0  0  0  0  0  0
    8.6596  -16.0176   22.7625 N   0  0  0  0  0  0  0  0  0  0  0  0
    9.4058  -15.6894   23.9561 C   0  0  1  0  0  0  0  0  0  0  0  0
    8.6596  -16.0116   25.2220 C   0  0  0  0  0  0  0  0  0  0  0  0
    7.5396  -15.0948   25.5011 C   0  0  0  0  0  0  0  0  0  0  0  0
    6.2056  -15.4536   25.3364 C   0  0  0  0  0  0  0  0  0  0  0  0
    5.4984  -14.3657   25.6864 N   0  0  0  0  0  0  0  0  0  0  0  0
    6.3199  -13.3680   26.0538 C   0  0  0  0  0  0  0  0  0  0  0  0
    6.0278  -12.0867   26.4839 C   0  0  0  0  0  0  0  0  0  0  0  0
    7.1006  -11.2683   26.7987 C   0  0  0  0  0  0  0  0  0  0  0  0
    8.4093  -11.7066   26.6898 C   0  0  0  0  0  0  0  0  0  0  0  0
    8.6889  -12.9775   26.2628 C   0  0  0  0  0  0  0  0  0  0  0  0
    7.6259  -13.7975   25.9478 C   0  0  0  0  0  0  0  0  0  0  0  0
   10.6208  -16.5440   23.9563 C   0  0  0  0  0  0  0  0  0  0  0  0
   10.5039  -17.7737   23.8762 O   0  0  0  0  0  0  0  0  0  0  0  0
   15.8323  -13.8667   22.4975 N   0  0  0  0  0  0  0  0  0  0  0  0
   14.8541  -14.4339   21.6525 C   0  0  0  0  0  0  0  0  0  0  0  0
   14.4584  -13.8459   20.6412 O   0  0  0  0  0  0  0  0  0  0  0  0
   14.2556  -15.7842   21.9568 C   0  0  0  0  0  0  0  0  0  0  0  0
   14.2868  -16.0388   23.4321 C   0  0  0  0  0  0  0  0  0  0  0  0
   13.1336  -16.8373   23.9270 C   0  0  2  0  0  0  0  0  0  0  0  0
   11.9315  -16.0125   24.0454 N   0  0  0  0  0  0  0  0  0  0  0  0
   13.4314  -17.4110   25.2570 C   0  0  0  0  0  0  0  0  0  0  0  0
   12.7550  -17.0311   26.2799 O   0  0  0  0  0  0  0  0  0  0  0  0
   14.3981  -18.3543   25.5338 O   0  0  0  0  0  0  0  0  0  0  0  0
  2  1  1  6
  2  3  1  0
  4  2  1  0
  4  5  1  1
  6  7  2  0
  6  4  1  0
  8  6  1  0
  9  8  1  0
  9 10  1  1
 11 19  1  0
 11 10  1  0
 12 11  2  0
 13 12  1  0
 13 14  1  0
 14 15  1  0
 14 19  2  0
 15 16  2  0
 16 17  1  0
 18 17  2  0
 19 18  1  0
 20  9  1  0
 21 20  2  0
 23 22  1  0
 24 23  2  0
 25 23  1  0
 26 25  1  0
 27 26  1  1
 27 28  1  0
 28 20  1  0
 29 27  1  0
 30 29  2  0
 31 29  1  0
M  END
$$$$
