VWQ.pdb
     RDKit          3D

 31 32  0  0  1  0  0  0  0  0999 V2000
    8.2027  -17.0319   19.6386 C   0  0  0  0  0  0  0  0  0  0  0  0
    8.0698  -15.5999   19.1722 C   0  0  1  0  0  0  0  0  0  0  0  0
    7.2458  -15.5930   17.9109 C   0  0  0  0  0  0  0  0  0  0  0  0
    7.4240  -14.8039   20.2803 C   0  0  2  0  0  0  0  0  0  0  0  0
    7.1626  -13.4625   19.7868 N   0  0  0  0  0  0  0  0  0  0  0  0
    8.2635  -14.7795   21.5051 C   0  0  0  0  0  0  0  0  0  0  0  0
    9.2422  -14.0230   21.5773 O   0  0  0  0  0  0  0  0  0  0  0  0
    7.9463  -15.6157   22.5823 N   0  0  0  0  0  0  0  0  0  0  0  0
    8.7426  -15.7487   23.7812 C   0  0  1  0  0  0  0  0  0  0  0  0
    7.9224  -16.0869   24.9961 C   0  0  0  0  0  0  0  0  0  0  0  0
    7.0371  -14.9944   25.4383 C   0  0  0  0  0  0  0  0  0  0  0  0
    5.6514  -15.1095   25.4795 C   0  0  0  0  0  0  0  0  0  0  0  0
    5.2086  -13.9226   25.9284 N   0  0  0  0  0  0  0  0  0  0  0  0
    6.2395  -13.0933   26.1628 C   0  0  0  0  0  0  0  0  0  0  0  0
    6.2468  -11.7909   26.6271 C   0  0  0  0  0  0  0  0  0  0  0  0
    7.4824  -11.1810   26.7719 C   0  0  0  0  0  0  0  0  0  0  0  0
    8.6614  -11.8397   26.4674 C   0  0  0  0  0  0  0  0  0  0  0  0
    8.6442  -13.1298   26.0080 C   0  0  0  0  0  0  0  0  0  0  0  0
    7.4178  -13.7430   25.8615 C   0  0  0  0  0  0  0  0  0  0  0  0
    9.6638  -16.8937   23.5650 C   0  0  0  0  0  0  0  0  0  0  0  0
    9.5485  -17.5879   22.5466 O   0  0  0  0  0  0  0  0  0  0  0  0
   14.1467  -16.7745   20.2623 N   0  0  0  0  0  0  0  0  0  0  0  0
   14.5192  -16.3986   21.5711 C   0  0  0  0  0  0  0  0  0  0  0  0
   15.2289  -15.4096   21.7788 O   0  0  0  0  0  0  0  0  0  0  0  0
   14.0610  -17.1954   22.7665 C   0  0  0  0  0  0  0  0  0  0  0  0
   12.6808  -16.7736   23.1661 C   0  0  0  0  0  0  0  0  0  0  0  0
   11.9949  -17.7412   24.0637 C   0  0  2  0  0  0  0  0  0  0  0  0
   10.6871  -17.2379   24.4830 N   0  0  0  0  0  0  0  0  0  0  0  0
   12.8038  -17.9881   25.2768 C   0  0  0  0  0  0  0  0  0  0  0  0
   12.4805  -17.4229   26.3831 O   0  0  0  0  0  0  0  0  0  0  0  0
   13.9173  -18.7972   25.3565 O   0  0  0  0  0  0  0  0  0  0  0  0
  2  1  1  1
  2  3  1  0
  4  2  1  0
  4  5  1  6
  6  7  2  0
  6  4  1  0
  8  6  1  0
  9  8  1  0
  9 10  1  1
 11 19  1  0
 11 10  1  0
 12 11  2  0
 13 12  1  0
 13 14  1  0
 14 15  1  0
 14 19  2  0
 15 16  2  0
 16 17  1  0
 18 17  2  0
 19 18  1  0
 20  9  1  0
 21 20  2  0
 23 22  1  0
 24 23  2  0
 25 23  1  0
 26 25  1  0
 27 26  1  6
 27 28  1  0
 28 20  1  0
 29 27  1  0
 30 29  2  0
 31 29  1  0
M  END
$$$$
