VWQ.pdb
     RDKit          3D

 31 32  0  0  1  0  0  0  0  0999 V2000
    7.1203  -13.5400   18.8456 C   0  0  0  0  0  0  0  0  0  0  0  0
    7.9666  -13.5497   20.0985 C   0  0  1  0  0  0  0  0  0  0  0  0
    7.1771  -12.8945   21.2017 C   0  0  0  0  0  0  0  0  0  0  0  0
    8.3136  -14.9834   20.4187 C   0  0  2  0  0  0  0  0  0  0  0  0
    7.0765  -15.7301   20.5700 N   0  0  0  0  0  0  0  0  0  0  0  0
    9.1647  -15.0885   21.6312 C   0  0  0  0  0  0  0  0  0  0  0  0
   10.3320  -14.6733   21.6137 O   0  0  0  0  0  0  0  0  0  0  0  0
    8.6442  -15.6597   22.7988 N   0  0  0  0  0  0  0  0  0  0  0  0
    9.3896  -15.8519   24.0221 C   0  0  1  0  0  0  0  0  0  0  0  0
    8.5110  -16.1707   25.2009 C   0  0  0  0  0  0  0  0  0  0  0  0
    7.4695  -15.1594   25.4563 C   0  0  0  0  0  0  0  0  0  0  0  0
    6.1272  -15.3575   25.1492 C   0  0  0  0  0  0  0  0  0  0  0  0
    5.5054  -14.2267   25.5244 N   0  0  0  0  0  0  0  0  0  0  0  0
    6.3866  -13.3536   26.0407 C   0  0  0  0  0  0  0  0  0  0  0  0
    6.1882  -12.0822   26.5467 C   0  0  0  0  0  0  0  0  0  0  0  0
    7.3048  -11.4105   27.0177 C   0  0  0  0  0  0  0  0  0  0  0  0
    8.5661  -11.9804   26.9863 C   0  0  0  0  0  0  0  0  0  0  0  0
    8.7530  -13.2404   26.4831 C   0  0  0  0  0  0  0  0  0  0  0  0
    7.6458  -13.9146   26.0126 C   0  0  0  0  0  0  0  0  0  0  0  0
   10.2620  -17.0365   23.8166 C   0  0  0  0  0  0  0  0  0  0  0  0
   10.1504  -17.7064   22.7816 O   0  0  0  0  0  0  0  0  0  0  0  0
   13.9930  -14.7057   21.5263 N   0  0  0  0  0  0  0  0  0  0  0  0
   14.3976  -16.0569   21.5845 C   0  0  0  0  0  0  0  0  0  0  0  0
   15.4881  -16.4218   21.1343 O   0  0  0  0  0  0  0  0  0  0  0  0
   13.5081  -17.1066   22.2017 C   0  0  0  0  0  0  0  0  0  0  0  0
   13.3095  -16.8195   23.6580 C   0  0  0  0  0  0  0  0  0  0  0  0
   12.5751  -17.8893   24.3849 C   0  0  2  0  0  0  0  0  0  0  0  0
   11.2335  -17.4462   24.7635 N   0  0  0  0  0  0  0  0  0  0  0  0
   13.2986  -18.2712   25.6168 C   0  0  0  0  0  0  0  0  0  0  0  0
   14.1168  -19.2602   25.5936 O   0  0  0  0  0  0  0  0  0  0  0  0
   13.1892  -17.6533   26.8445 O   0  0  0  0  0  0  0  0  0  0  0  0
  2  1  1  6
  2  3  1  0
  4  2  1  0
  4  5  1  1
  6  7  2  0
  6  4  1  0
  8  6  1  0
  9  8  1  0
  9 10  1  1
 11 19  1  0
 11 10  1  0
 12 11  2  0
 13 12  1  0
 13 14  1  0
 14 15  1  0
 14 19  2  0
 15 16  2  0
 16 17  1  0
 18 17  2  0
 19 18  1  0
 20  9  1  0
 21 20  2  0
 23 22  1  0
 24 23  2  0
 25 23  1  0
 26 25  1  0
 27 26  1  1
 27 28  1  0
 28 20  1  0
 29 27  1  0
 30 29  2  0
 31 29  1  0
M  END
$$$$
