VWQ.pdb
     RDKit          3D

 31 32  0  0  1  0  0  0  0  0999 V2000
    9.7294  -19.3932   21.1192 C   0  0  0  0  0  0  0  0  0  0  0  0
   10.7611  -18.6217   20.3277 C   0  0  1  0  0  0  0  0  0  0  0  0
   10.8244  -19.2105   18.9423 C   0  0  0  0  0  0  0  0  0  0  0  0
   10.3505  -17.1693   20.3124 C   0  0  2  0  0  0  0  0  0  0  0  0
   11.2657  -16.4448   19.4473 N   0  0  0  0  0  0  0  0  0  0  0  0
   10.3191  -16.5894   21.6792 C   0  0  0  0  0  0  0  0  0  0  0  0
   11.3553  -16.5263   22.3556 O   0  0  0  0  0  0  0  0  0  0  0  0
    9.1122  -16.1120   22.2045 N   0  0  0  0  0  0  0  0  0  0  0  0
    8.9385  -15.6282   23.5554 C   0  0  1  0  0  0  0  0  0  0  0  0
    7.5686  -15.0581   23.8032 C   0  0  0  0  0  0  0  0  0  0  0  0
    7.4736  -14.2539   25.0348 C   0  0  0  0  0  0  0  0  0  0  0  0
    6.3487  -13.5067   25.3689 C   0  0  0  0  0  0  0  0  0  0  0  0
    6.6438  -12.9245   26.5437 N   0  0  0  0  0  0  0  0  0  0  0  0
    7.8785  -13.2717   26.9444 C   0  0  0  0  0  0  0  0  0  0  0  0
    8.5805  -12.9108   28.0796 C   0  0  0  0  0  0  0  0  0  0  0  0
    9.8547  -13.4352   28.2253 C   0  0  0  0  0  0  0  0  0  0  0  0
   10.4070  -14.2833   27.2806 C   0  0  0  0  0  0  0  0  0  0  0  0
    9.7039  -14.6352   26.1591 C   0  0  0  0  0  0  0  0  0  0  0  0
    8.4351  -14.1168   26.0078 C   0  0  0  0  0  0  0  0  0  0  0  0
    9.0740  -16.8011   24.4567 C   0  0  0  0  0  0  0  0  0  0  0  0
    8.5780  -17.8864   24.1273 O   0  0  0  0  0  0  0  0  0  0  0  0
   13.4479  -19.8530   24.2801 N   0  0  0  0  0  0  0  0  0  0  0  0
   12.7545  -20.5835   25.2692 C   0  0  0  0  0  0  0  0  0  0  0  0
   12.9250  -21.7984   25.4095 O   0  0  0  0  0  0  0  0  0  0  0  0
   11.7769  -19.9021   26.1933 C   0  0  0  0  0  0  0  0  0  0  0  0
   11.2497  -18.6549   25.5537 C   0  0  0  0  0  0  0  0  0  0  0  0
   10.2579  -17.9262   26.3890 C   0  0  2  0  0  0  0  0  0  0  0  0
    9.7551  -16.7392   25.6979 N   0  0  0  0  0  0  0  0  0  0  0  0
   10.8704  -17.4925   27.6631 C   0  0  0  0  0  0  0  0  0  0  0  0
   11.4363  -16.3426   27.7382 O   0  0  0  0  0  0  0  0  0  0  0  0
   10.9009  -18.2181   28.8351 O   0  0  0  0  0  0  0  0  0  0  0  0
  2  1  1  1
  2  3  1  0
  4  2  1  0
  4  5  1  6
  6  7  2  0
  6  4  1  0
  8  6  1  0
  9  8  1  0
  9 10  1  6
 11 19  1  0
 11 10  1  0
 12 11  2  0
 13 12  1  0
 13 14  1  0
 14 15  1  0
 14 19  2  0
 15 16  2  0
 16 17  1  0
 18 17  2  0
 19 18  1  0
 20  9  1  0
 21 20  2  0
 23 22  1  0
 24 23  2  0
 25 23  1  0
 26 25  1  0
 27 26  1  6
 27 28  1  0
 28 20  1  0
 29 27  1  0
 30 29  2  0
 31 29  1  0
M  END
$$$$
