VWQ.pdb
     RDKit          3D

 31 32  0  0  1  0  0  0  0  0999 V2000
    8.4017  -16.5873   19.7645 C   0  0  0  0  0  0  0  0  0  0  0  0
    8.3529  -15.1349   19.3473 C   0  0  1  0  0  0  0  0  0  0  0  0
    7.5082  -15.0331   18.1040 C   0  0  0  0  0  0  0  0  0  0  0  0
    7.7801  -14.3369   20.4935 C   0  0  2  0  0  0  0  0  0  0  0  0
    7.5325  -12.9828   20.0287 N   0  0  0  0  0  0  0  0  0  0  0  0
    8.6753  -14.3506   21.6784 C   0  0  0  0  0  0  0  0  0  0  0  0
    9.5746  -13.5060   21.7924 O   0  0  0  0  0  0  0  0  0  0  0  0
    8.5008  -15.3231   22.6704 N   0  0  0  0  0  0  0  0  0  0  0  0
    9.3985  -15.5308   23.7841 C   0  0  1  0  0  0  0  0  0  0  0  0
    8.6786  -15.8365   25.0692 C   0  0  0  0  0  0  0  0  0  0  0  0
    7.6108  -14.8741   25.3954 C   0  0  0  0  0  0  0  0  0  0  0  0
    6.2572  -15.1791   25.2954 C   0  0  0  0  0  0  0  0  0  0  0  0
    5.6117  -14.0622   25.6722 N   0  0  0  0  0  0  0  0  0  0  0  0
    6.4892  -13.0973   25.9953 C   0  0  0  0  0  0  0  0  0  0  0  0
    6.2696  -11.8038   26.4317 C   0  0  0  0  0  0  0  0  0  0  0  0
    7.3881  -11.0283   26.6913 C   0  0  0  0  0  0  0  0  0  0  0  0
    8.6715  -11.5198   26.5236 C   0  0  0  0  0  0  0  0  0  0  0  0
    8.8792  -12.8025   26.0909 C   0  0  0  0  0  0  0  0  0  0  0  0
    7.7703  -13.5798   25.8306 C   0  0  0  0  0  0  0  0  0  0  0  0
   10.2148  -16.7301   23.4650 C   0  0  0  0  0  0  0  0  0  0  0  0
   10.3643  -17.6134   24.3193 O   0  0  0  0  0  0  0  0  0  0  0  0
   14.1566  -13.5560   19.5318 N   0  0  0  0  0  0  0  0  0  0  0  0
   14.4867  -14.8064   20.0977 C   0  0  0  0  0  0  0  0  0  0  0  0
   15.0914  -15.6663   19.4496 O   0  0  0  0  0  0  0  0  0  0  0  0
   14.1108  -15.1371   21.5201 C   0  0  0  0  0  0  0  0  0  0  0  0
   12.6366  -15.3819   21.6178 C   0  0  0  0  0  0  0  0  0  0  0  0
   12.2849  -16.7726   22.0111 C   0  0  2  0  0  0  0  0  0  0  0  0
   10.8429  -16.9174   22.2085 N   0  0  0  0  0  0  0  0  0  0  0  0
   12.9619  -17.1426   23.2727 C   0  0  0  0  0  0  0  0  0  0  0  0
   14.2441  -17.1896   23.3168 O   0  0  0  0  0  0  0  0  0  0  0  0
   12.3408  -17.4552   24.4632 O   0  0  0  0  0  0  0  0  0  0  0  0
  2  1  1  1
  2  3  1  0
  4  2  1  0
  4  5  1  6
  6  7  2  0
  6  4  1  0
  8  6  1  0
  9  8  1  0
  9 10  1  1
 11 19  1  0
 11 10  1  0
 12 11  2  0
 13 12  1  0
 13 14  1  0
 14 15  1  0
 14 19  2  0
 15 16  2  0
 16 17  1  0
 18 17  2  0
 19 18  1  0
 20  9  1  0
 21 20  2  0
 23 22  1  0
 24 23  2  0
 25 23  1  0
 26 25  1  0
 27 26  1  1
 27 28  1  0
 28 20  1  0
 29 27  1  0
 30 29  2  0
 31 29  1  0
M  END
$$$$
