VWQ.pdb
     RDKit          3D

 31 32  0  0  1  0  0  0  0  0999 V2000
    8.9959  -20.9803   19.9280 C   0  0  0  0  0  0  0  0  0  0  0  0
    9.3790  -19.8744   20.8853 C   0  0  1  0  0  0  0  0  0  0  0  0
   10.7848  -20.1336   21.3612 C   0  0  0  0  0  0  0  0  0  0  0  0
    9.2570  -18.5590   20.1550 C   0  0  2  0  0  0  0  0  0  0  0  0
   10.1471  -18.5894   19.0071 N   0  0  0  0  0  0  0  0  0  0  0  0
    9.5517  -17.4049   21.0420 C   0  0  0  0  0  0  0  0  0  0  0  0
   10.7076  -16.9692   21.1378 O   0  0  0  0  0  0  0  0  0  0  0  0
    8.5175  -16.8076   21.7727 N   0  0  0  0  0  0  0  0  0  0  0  0
    8.6936  -15.7162   22.7038 C   0  0  1  0  0  0  0  0  0  0  0  0
    7.4325  -14.9275   22.9291 C   0  0  0  0  0  0  0  0  0  0  0  0
    7.5956  -13.8008   23.8654 C   0  0  0  0  0  0  0  0  0  0  0  0
    8.3907  -12.6931   23.5893 C   0  0  0  0  0  0  0  0  0  0  0  0
    8.2835  -11.8997   24.6687 N   0  0  0  0  0  0  0  0  0  0  0  0
    7.4723  -12.4566   25.5838 C   0  0  0  0  0  0  0  0  0  0  0  0
    7.0831  -11.9943   26.8274 C   0  0  0  0  0  0  0  0  0  0  0  0
    6.2236  -12.7991   27.5577 C   0  0  0  0  0  0  0  0  0  0  0  0
    5.7705  -14.0133   27.0705 C   0  0  0  0  0  0  0  0  0  0  0  0
    6.1616  -14.4630   25.8374 C   0  0  0  0  0  0  0  0  0  0  0  0
    7.0170  -13.6669   25.1052 C   0  0  0  0  0  0  0  0  0  0  0  0
    9.0518  -16.3177   24.0139 C   0  0  0  0  0  0  0  0  0  0  0  0
    8.4396  -17.3152   24.4171 O   0  0  0  0  0  0  0  0  0  0  0  0
   13.9675  -17.7341   23.8085 N   0  0  0  0  0  0  0  0  0  0  0  0
   14.0618  -16.4602   24.4095 C   0  0  0  0  0  0  0  0  0  0  0  0
   14.9907  -15.6910   24.1442 O   0  0  0  0  0  0  0  0  0  0  0  0
   13.0264  -15.9923   25.4010 C   0  0  0  0  0  0  0  0  0  0  0  0
   12.0045  -17.0647   25.6206 C   0  0  0  0  0  0  0  0  0  0  0  0
   10.6530  -16.5441   25.9597 C   0  0  2  0  0  0  0  0  0  0  0  0
   10.0782  -15.7973   24.8410 N   0  0  0  0  0  0  0  0  0  0  0  0
   10.7223  -15.6413   27.1289 C   0  0  0  0  0  0  0  0  0  0  0  0
   10.4726  -14.3906   26.9828 O   0  0  0  0  0  0  0  0  0  0  0  0
   11.0376  -16.0106   28.4193 O   0  0  0  0  0  0  0  0  0  0  0  0
  2  1  1  6
  2  3  1  0
  4  2  1  0
  4  5  1  6
  6  7  2  0
  6  4  1  0
  8  6  1  0
  9  8  1  0
  9 10  1  1
 11 19  1  0
 11 10  1  0
 12 11  2  0
 13 12  1  0
 13 14  1  0
 14 15  1  0
 14 19  2  0
 15 16  2  0
 16 17  1  0
 18 17  2  0
 19 18  1  0
 20  9  1  0
 21 20  2  0
 23 22  1  0
 24 23  2  0
 25 23  1  0
 26 25  1  0
 27 26  1  6
 27 28  1  0
 28 20  1  0
 29 27  1  0
 30 29  2  0
 31 29  1  0
M  END
$$$$
