FYY.pdb
     RDKit          3D

 36 38  0  0  1  0  0  0  0  0999 V2000
   37.9336   -8.6596  -16.1399 N   0  0  0  0  0  0  0  0  0  0  0  0
   36.7140   -9.3194  -16.5533 C   0  0  1  0  0  0  0  0  0  0  0  0
   35.6503   -9.2551  -15.4763 C   0  0  0  0  0  0  0  0  0  0  0  0
   36.1895   -9.9068  -14.2578 C   0  0  0  0  0  0  0  0  0  0  0  0
   36.2437  -11.2853  -14.2447 C   0  0  0  0  0  0  0  0  0  0  0  0
   36.7430  -11.9032  -13.1176 C   0  0  0  0  0  0  0  0  0  0  0  0
   37.1661  -11.1540  -12.0566 C   0  0  0  0  0  0  0  0  0  0  0  0
   37.1090   -9.7796  -12.0768 C   0  0  0  0  0  0  0  0  0  0  0  0
   36.6095   -9.1397  -13.2024 C   0  0  0  0  0  0  0  0  0  0  0  0
   36.1399   -8.6783  -17.7649 C   0  0  0  0  0  0  0  0  0  0  0  0
   36.2571   -7.4466  -18.0056 O   0  0  0  0  0  0  0  0  0  0  0  0
   33.1391   -8.4569  -25.9592 O   0  0  0  0  0  0  0  0  0  0  0  0
   33.5929   -8.8992  -24.7206 C   0  0  0  0  0  0  0  0  0  0  0  0
   33.0535  -10.0027  -24.0961 C   0  0  0  0  0  0  0  0  0  0  0  0
   33.5330  -10.4058  -22.8701 C   0  0  0  0  0  0  0  0  0  0  0  0
   34.5517   -9.7505  -22.2111 C   0  0  0  0  0  0  0  0  0  0  0  0
   35.0278  -10.2293  -20.8928 C   0  0  0  0  0  0  0  0  0  0  0  0
   34.9637   -9.0571  -19.9061 C   0  0  2  0  0  0  0  0  0  0  0  0
   35.4405   -9.5422  -18.6524 N   0  0  0  0  0  0  0  0  0  0  0  0
   33.5251   -8.6754  -19.7403 C   0  0  0  0  0  0  0  0  0  0  0  0
   32.7642   -9.4107  -19.0646 O   0  0  0  0  0  0  0  0  0  0  0  0
   35.0945   -8.6439  -22.8345 C   0  0  0  0  0  0  0  0  0  0  0  0
   34.6129   -8.2340  -24.0725 C   0  0  0  0  0  0  0  0  0  0  0  0
   25.9542   -4.2161  -20.1030 O   0  0  0  0  0  0  0  0  0  0  0  0
   27.2949   -4.5899  -20.0270 C   0  0  0  0  0  0  0  0  0  0  0  0
   27.8603   -5.0857  -18.8652 C   0  0  0  0  0  0  0  0  0  0  0  0
   29.1819   -5.4571  -18.7808 C   0  0  0  0  0  0  0  0  0  0  0  0
   30.0023   -5.3437  -19.8766 C   0  0  0  0  0  0  0  0  0  0  0  0
   31.4228   -5.7140  -19.8556 C   0  0  0  0  0  0  0  0  0  0  0  0
   31.5679   -7.2014  -20.0692 C   0  0  2  0  0  0  0  0  0  0  0  0
   32.9893   -7.5059  -20.3232 N   0  0  0  0  0  0  0  0  0  0  0  0
   30.7475   -7.6024  -21.2282 C   0  0  0  0  0  0  0  0  0  0  0  0
   29.4545   -8.0486  -21.1521 O   0  0  0  0  0  0  0  0  0  0  0  0
   29.4762   -4.8556  -21.0475 C   0  0  0  0  0  0  0  0  0  0  0  0
   28.1506   -4.4912  -21.1056 C   0  0  0  0  0  0  0  0  0  0  0  0
   31.2647   -7.5362  -22.3729 O   0  0  0  0  0  0  0  0  0  0  0  0
  2  1  1  1
  3  2  1  0
  4  9  1  0
  4  3  1  0
  5  4  2  0
  6  7  2  0
  6  5  1  0
  7  8  1  0
  8  9  2  0
 10  2  1  0
 11 10  2  0
 12 13  1  0
 13 14  2  0
 14 15  1  0
 16 17  1  0
 16 15  2  0
 18 17  1  6
 18 19  1  0
 19 10  1  0
 20 21  2  0
 20 18  1  0
 22 16  1  0
 23 22  2  0
 23 13  1  0
 24 25  1  0
 25 35  2  0
 26 25  1  0
 26 27  2  0
 27 28  1  0
 28 34  2  0
 28 29  1  0
 30 29  1  6
 30 31  1  0
 31 20  1  0
 32 33  1  0
 32 30  1  0
 35 34  1  0
 36 32  2  0
M  END
$$$$
