FYY.pdb
     RDKit          3D

 36 38  0  0  1  0  0  0  0  0999 V2000
   26.7960  -19.5161  -18.2418 N   0  0  0  0  0  0  0  0  0  0  0  0
   27.0817  -19.3860  -16.8294 C   0  0  1  0  0  0  0  0  0  0  0  0
   27.0619  -17.9375  -16.3857 C   0  0  0  0  0  0  0  0  0  0  0  0
   28.2337  -17.2559  -16.9877 C   0  0  0  0  0  0  0  0  0  0  0  0
   29.4753  -17.8184  -16.7749 C   0  0  0  0  0  0  0  0  0  0  0  0
   30.5729  -17.1943  -17.3294 C   0  0  0  0  0  0  0  0  0  0  0  0
   30.4133  -16.0538  -18.0643 C   0  0  0  0  0  0  0  0  0  0  0  0
   29.1719  -15.4987  -18.2723 C   0  0  0  0  0  0  0  0  0  0  0  0
   28.0554  -16.1125  -17.7221 C   0  0  0  0  0  0  0  0  0  0  0  0
   26.0712  -20.1022  -16.0082 C   0  0  0  0  0  0  0  0  0  0  0  0
   24.8870  -20.2923  -16.3963 O   0  0  0  0  0  0  0  0  0  0  0  0
   25.8269  -26.0579  -18.1912 O   0  0  0  0  0  0  0  0  0  0  0  0
   25.9612  -25.2363  -17.0765 C   0  0  0  0  0  0  0  0  0  0  0  0
   25.0155  -25.2033  -16.0748 C   0  0  0  0  0  0  0  0  0  0  0  0
   25.1884  -24.3750  -14.9888 C   0  0  0  0  0  0  0  0  0  0  0  0
   26.2849  -23.5522  -14.8403 C   0  0  0  0  0  0  0  0  0  0  0  0
   26.4186  -22.6812  -13.6498 C   0  0  0  0  0  0  0  0  0  0  0  0
   25.6673  -21.3733  -13.9267 C   0  0  2  0  0  0  0  0  0  0  0  0
   26.5183  -20.5692  -14.7412 N   0  0  0  0  0  0  0  0  0  0  0  0
   25.4747  -20.6695  -12.6189 C   0  0  0  0  0  0  0  0  0  0  0  0
   26.4658  -20.1646  -12.0366 O   0  0  0  0  0  0  0  0  0  0  0  0
   27.2346  -23.5830  -15.8428 C   0  0  0  0  0  0  0  0  0  0  0  0
   27.0634  -24.4181  -16.9409 C   0  0  0  0  0  0  0  0  0  0  0  0
   18.7920  -23.1745  -11.6207 O   0  0  0  0  0  0  0  0  0  0  0  0
   19.7639  -22.2138  -11.3458 C   0  0  0  0  0  0  0  0  0  0  0  0
   20.0789  -21.8281  -10.0546 C   0  0  0  0  0  0  0  0  0  0  0  0
   21.0362  -20.8813   -9.7738 C   0  0  0  0  0  0  0  0  0  0  0  0
   21.7266  -20.2738  -10.7941 C   0  0  0  0  0  0  0  0  0  0  0  0
   22.7551  -19.2508  -10.5674 C   0  0  0  0  0  0  0  0  0  0  0  0
   24.1274  -19.8637  -10.7092 C   0  0  2  0  0  0  0  0  0  0  0  0
   24.2049  -20.5526  -12.0119 N   0  0  0  0  0  0  0  0  0  0  0  0
   24.3388  -20.8269   -9.6117 C   0  0  0  0  0  0  0  0  0  0  0  0
   24.4944  -22.1778   -9.7781 O   0  0  0  0  0  0  0  0  0  0  0  0
   21.4411  -20.6312  -12.0890 C   0  0  0  0  0  0  0  0  0  0  0  0
   20.4788  -21.5814  -12.3430 C   0  0  0  0  0  0  0  0  0  0  0  0
   24.3776  -20.3861   -8.4342 O   0  0  0  0  0  0  0  0  0  0  0  0
  2  1  1  6
  3  2  1  0
  4  9  1  0
  4  3  1  0
  5  4  2  0
  6  7  2  0
  6  5  1  0
  7  8  1  0
  8  9  2  0
 10  2  1  0
 11 10  2  0
 12 13  1  0
 13 14  2  0
 14 15  1  0
 16 17  1  0
 16 15  2  0
 18 17  1  1
 18 19  1  0
 19 10  1  0
 20 21  2  0
 20 18  1  0
 22 16  1  0
 23 22  2  0
 23 13  1  0
 24 25  1  0
 25 35  2  0
 26 25  1  0
 26 27  2  0
 27 28  1  0
 28 34  2  0
 28 29  1  0
 30 29  1  1
 30 31  1  0
 31 20  1  0
 32 33  1  0
 32 30  1  0
 35 34  1  0
 36 32  2  0
M  END
$$$$
