FYY.pdb
     RDKit          3D

 36 38  0  0  1  0  0  0  0  0999 V2000
   24.5511  -19.9380  -17.2507 N   0  0  0  0  0  0  0  0  0  0  0  0
   25.4125  -19.9184  -16.0883 C   0  0  1  0  0  0  0  0  0  0  0  0
   26.5100  -18.8826  -16.2226 C   0  0  0  0  0  0  0  0  0  0  0  0
   27.3878  -18.9855  -15.0313 C   0  0  0  0  0  0  0  0  0  0  0  0
   28.3025  -20.0179  -15.0025 C   0  0  0  0  0  0  0  0  0  0  0  0
   29.1245  -20.1244  -13.9004 C   0  0  0  0  0  0  0  0  0  0  0  0
   29.0197  -19.2239  -12.8785 C   0  0  0  0  0  0  0  0  0  0  0  0
   28.1051  -18.1969  -12.9143 C   0  0  0  0  0  0  0  0  0  0  0  0
   27.2691  -18.0734  -14.0152 C   0  0  0  0  0  0  0  0  0  0  0  0
   24.6490  -19.5806  -14.8589 C   0  0  0  0  0  0  0  0  0  0  0  0
   23.9203  -18.5560  -14.7682 O   0  0  0  0  0  0  0  0  0  0  0  0
   18.7250  -21.1130  -15.6889 O   0  0  0  0  0  0  0  0  0  0  0  0
   19.8316  -21.1955  -14.8497 C   0  0  0  0  0  0  0  0  0  0  0  0
   20.8670  -22.0725  -15.0897 C   0  0  0  0  0  0  0  0  0  0  0  0
   21.9435  -22.1213  -14.2329 C   0  0  0  0  0  0  0  0  0  0  0  0
   22.0495  -21.3202  -13.1155 C   0  0  0  0  0  0  0  0  0  0  0  0
   23.2317  -21.4156  -12.2284 C   0  0  0  0  0  0  0  0  0  0  0  0
   24.1500  -20.2237  -12.5246 C   0  0  2  0  0  0  0  0  0  0  0  0
   24.7863  -20.4891  -13.7731 N   0  0  0  0  0  0  0  0  0  0  0  0
   25.2061  -20.1837  -11.4636 C   0  0  0  0  0  0  0  0  0  0  0  0
   25.3670  -19.1361  -10.7905 O   0  0  0  0  0  0  0  0  0  0  0  0
   21.0132  -20.4400  -12.8722 C   0  0  0  0  0  0  0  0  0  0  0  0
   19.9246  -20.3880  -13.7351 C   0  0  0  0  0  0  0  0  0  0  0  0
   23.2952  -19.9744   -5.3720 O   0  0  0  0  0  0  0  0  0  0  0  0
   24.2257  -20.4702   -6.2839 C   0  0  0  0  0  0  0  0  0  0  0  0
   25.4908  -19.9261   -6.4202 C   0  0  0  0  0  0  0  0  0  0  0  0
   26.4153  -20.4086   -7.3169 C   0  0  0  0  0  0  0  0  0  0  0  0
   26.1020  -21.4734   -8.1260 C   0  0  0  0  0  0  0  0  0  0  0  0
   27.0366  -22.0344   -9.1096 C   0  0  0  0  0  0  0  0  0  0  0  0
   27.1775  -21.0903  -10.2791 C   0  0  2  0  0  0  0  0  0  0  0  0
   26.0354  -21.2939  -11.1910 N   0  0  0  0  0  0  0  0  0  0  0  0
   28.4440  -21.3785  -10.9790 C   0  0  0  0  0  0  0  0  0  0  0  0
   28.5364  -21.8812  -12.2500 O   0  0  0  0  0  0  0  0  0  0  0  0
   24.8554  -22.0396   -8.0188 C   0  0  0  0  0  0  0  0  0  0  0  0
   23.9488  -21.5381   -7.1135 C   0  0  0  0  0  0  0  0  0  0  0  0
   29.5224  -21.1526  -10.3720 O   0  0  0  0  0  0  0  0  0  0  0  0
  2  1  1  6
  3  2  1  0
  4  9  1  0
  4  3  1  0
  5  4  2  0
  6  7  2  0
  6  5  1  0
  7  8  1  0
  8  9  2  0
 10  2  1  0
 11 10  2  0
 12 13  1  0
 13 14  2  0
 14 15  1  0
 16 17  1  0
 16 15  2  0
 18 17  1  1
 18 19  1  0
 19 10  1  0
 20 21  2  0
 20 18  1  0
 22 16  1  0
 23 22  2  0
 23 13  1  0
 24 25  1  0
 25 35  2  0
 26 25  1  0
 26 27  2  0
 27 28  1  0
 28 34  2  0
 28 29  1  0
 30 29  1  1
 30 31  1  0
 31 20  1  0
 32 33  1  0
 32 30  1  0
 35 34  1  0
 36 32  2  0
M  END
$$$$
