FYY.pdb
     RDKit          3D

 36 38  0  0  1  0  0  0  0  0999 V2000
   26.4819  -24.3939  -17.0089 N   0  0  0  0  0  0  0  0  0  0  0  0
   25.7615  -23.1539  -16.8163 C   0  0  1  0  0  0  0  0  0  0  0  0
   24.3357  -23.3992  -16.3665 C   0  0  0  0  0  0  0  0  0  0  0  0
   23.5101  -23.6520  -17.5726 C   0  0  0  0  0  0  0  0  0  0  0  0
   23.0321  -22.5542  -18.2579 C   0  0  0  0  0  0  0  0  0  0  0  0
   22.2632  -22.7759  -19.3810 C   0  0  0  0  0  0  0  0  0  0  0  0
   21.9947  -24.0527  -19.7857 C   0  0  0  0  0  0  0  0  0  0  0  0
   22.4749  -25.1427  -19.0973 C   0  0  0  0  0  0  0  0  0  0  0  0
   23.2505  -24.9395  -17.9646 C   0  0  0  0  0  0  0  0  0  0  0  0
   26.4047  -22.3151  -15.7717 C   0  0  0  0  0  0  0  0  0  0  0  0
   27.3675  -22.7218  -15.0671 O   0  0  0  0  0  0  0  0  0  0  0  0
   30.7748  -18.5186  -19.1255 O   0  0  0  0  0  0  0  0  0  0  0  0
   29.7274  -18.5628  -18.2109 C   0  0  0  0  0  0  0  0  0  0  0  0
   29.9163  -18.3056  -16.8704 C   0  0  0  0  0  0  0  0  0  0  0  0
   28.8512  -18.3604  -15.9999 C   0  0  0  0  0  0  0  0  0  0  0  0
   27.5685  -18.6667  -16.4026 C   0  0  0  0  0  0  0  0  0  0  0  0
   26.4600  -18.7113  -15.4212 C   0  0  0  0  0  0  0  0  0  0  0  0
   26.4918  -20.0772  -14.7248 C   0  0  2  0  0  0  0  0  0  0  0  0
   25.8677  -21.0083  -15.6068 N   0  0  0  0  0  0  0  0  0  0  0  0
   25.6570  -19.9794  -13.4853 C   0  0  0  0  0  0  0  0  0  0  0  0
   24.4052  -20.0000  -13.5796 O   0  0  0  0  0  0  0  0  0  0  0  0
   27.3758  -18.9252  -17.7458 C   0  0  0  0  0  0  0  0  0  0  0  0
   28.4490  -18.8707  -18.6278 C   0  0  0  0  0  0  0  0  0  0  0  0
   21.1259  -21.6230   -6.5891 O   0  0  0  0  0  0  0  0  0  0  0  0
   21.9903  -21.5358   -7.6791 C   0  0  0  0  0  0  0  0  0  0  0  0
   21.5563  -21.1668   -8.9403 C   0  0  0  0  0  0  0  0  0  0  0  0
   22.4017  -21.0781  -10.0215 C   0  0  0  0  0  0  0  0  0  0  0  0
   23.7382  -21.3610   -9.8780 C   0  0  0  0  0  0  0  0  0  0  0  0
   24.6951  -21.2939  -10.9894 C   0  0  0  0  0  0  0  0  0  0  0  0
   25.3325  -19.9262  -11.0351 C   0  0  2  0  0  0  0  0  0  0  0  0
   26.2342  -19.8638  -12.2015 N   0  0  0  0  0  0  0  0  0  0  0  0
   26.0956  -19.7103   -9.7910 C   0  0  0  0  0  0  0  0  0  0  0  0
   27.2862  -20.3177   -9.4903 O   0  0  0  0  0  0  0  0  0  0  0  0
   24.2056  -21.7306   -8.6407 C   0  0  0  0  0  0  0  0  0  0  0  0
   23.3389  -21.8117   -7.5751 C   0  0  0  0  0  0  0  0  0  0  0  0
   25.6259  -18.9152   -8.9368 O   0  0  0  0  0  0  0  0  0  0  0  0
  2  1  1  1
  3  2  1  0
  4  9  1  0
  4  3  1  0
  5  4  2  0
  6  7  2  0
  6  5  1  0
  7  8  1  0
  8  9  2  0
 10  2  1  0
 11 10  2  0
 12 13  1  0
 13 14  2  0
 14 15  1  0
 16 17  1  0
 16 15  2  0
 18 17  1  6
 18 19  1  0
 19 10  1  0
 20 21  2  0
 20 18  1  0
 22 16  1  0
 23 22  2  0
 23 13  1  0
 24 25  1  0
 25 35  2  0
 26 25  1  0
 26 27  2  0
 27 28  1  0
 28 34  2  0
 28 29  1  0
 30 29  1  1
 30 31  1  0
 31 20  1  0
 32 33  1  0
 32 30  1  0
 35 34  1  0
 36 32  2  0
M  END
$$$$
