FYY.pdb
     RDKit          3D

 36 38  0  0  1  0  0  0  0  0999 V2000
   19.7205   -5.3824   -9.0901 N   0  0  0  0  0  0  0  0  0  0  0  0
   20.8035   -5.6040  -10.0236 C   0  0  1  0  0  0  0  0  0  0  0  0
   21.5061   -6.9207   -9.7632 C   0  0  0  0  0  0  0  0  0  0  0  0
   22.4264   -6.7319   -8.6153 C   0  0  0  0  0  0  0  0  0  0  0  0
   21.9077   -6.9062   -7.3489 C   0  0  0  0  0  0  0  0  0  0  0  0
   22.7532   -6.7335   -6.2732 C   0  0  0  0  0  0  0  0  0  0  0  0
   24.0619   -6.3997   -6.4778 C   0  0  0  0  0  0  0  0  0  0  0  0
   24.5721   -6.2275   -7.7437 C   0  0  0  0  0  0  0  0  0  0  0  0
   23.7366   -6.3971   -8.8387 C   0  0  0  0  0  0  0  0  0  0  0  0
   20.3059   -5.6504  -11.4232 C   0  0  0  0  0  0  0  0  0  0  0  0
   19.1171   -5.9514  -11.7151 O   0  0  0  0  0  0  0  0  0  0  0  0
   20.3589   -4.2149  -20.0285 O   0  0  0  0  0  0  0  0  0  0  0  0
   20.6983   -4.2281  -18.6793 C   0  0  0  0  0  0  0  0  0  0  0  0
   21.8634   -4.8064  -18.2244 C   0  0  0  0  0  0  0  0  0  0  0  0
   22.1601   -4.7970  -16.8801 C   0  0  0  0  0  0  0  0  0  0  0  0
   21.3354   -4.2258  -15.9341 C   0  0  0  0  0  0  0  0  0  0  0  0
   21.7056   -4.2450  -14.5001 C   0  0  0  0  0  0  0  0  0  0  0  0
   20.8801   -5.3358  -13.8071 C   0  0  2  0  0  0  0  0  0  0  0  0
   21.2572   -5.3320  -12.4316 N   0  0  0  0  0  0  0  0  0  0  0  0
   21.2777   -6.6546  -14.3946 C   0  0  0  0  0  0  0  0  0  0  0  0
   22.3671   -7.1791  -14.0563 O   0  0  0  0  0  0  0  0  0  0  0  0
   20.1667   -3.6452  -16.3869 C   0  0  0  0  0  0  0  0  0  0  0  0
   19.8637   -3.6529  -17.7436 C   0  0  0  0  0  0  0  0  0  0  0  0
   14.9042  -10.3477  -14.9958 O   0  0  0  0  0  0  0  0  0  0  0  0
   16.2880  -10.1853  -14.9532 C   0  0  0  0  0  0  0  0  0  0  0  0
   16.9146   -9.4269  -13.9798 C   0  0  0  0  0  0  0  0  0  0  0  0
   18.2790   -9.2611  -13.9297 C   0  0  0  0  0  0  0  0  0  0  0  0
   19.0821   -9.8591  -14.8699 C   0  0  0  0  0  0  0  0  0  0  0  0
   20.5436   -9.7189  -14.8810 C   0  0  0  0  0  0  0  0  0  0  0  0
   20.9464   -8.6291  -15.8449 C   0  0  2  0  0  0  0  0  0  0  0  0
   20.4622   -7.3357  -15.3251 N   0  0  0  0  0  0  0  0  0  0  0  0
   20.3420   -8.9056  -17.1622 C   0  0  0  0  0  0  0  0  0  0  0  0
   19.3704   -8.1401  -17.7511 O   0  0  0  0  0  0  0  0  0  0  0  0
   18.4957  -10.6198  -15.8515 C   0  0  0  0  0  0  0  0  0  0  0  0
   17.1283  -10.7700  -15.8791 C   0  0  0  0  0  0  0  0  0  0  0  0
   20.7385   -9.9166  -17.7968 O   0  0  0  0  0  0  0  0  0  0  0  0
  2  1  1  1
  3  2  1  0
  4  9  1  0
  4  3  1  0
  5  4  2  0
  6  7  2  0
  6  5  1  0
  7  8  1  0
  8  9  2  0
 10  2  1  0
 11 10  2  0
 12 13  1  0
 13 14  2  0
 14 15  1  0
 16 17  1  0
 16 15  2  0
 18 17  1  6
 18 19  1  0
 19 10  1  0
 20 21  2  0
 20 18  1  0
 22 16  1  0
 23 22  2  0
 23 13  1  0
 24 25  1  0
 25 35  2  0
 26 25  1  0
 26 27  2  0
 27 28  1  0
 28 34  2  0
 28 29  1  0
 30 29  1  1
 30 31  1  0
 31 20  1  0
 32 33  1  0
 32 30  1  0
 35 34  1  0
 36 32  2  0
M  END
$$$$
