FYY.pdb
     RDKit          3D

 36 38  0  0  1  0  0  0  0  0999 V2000
   28.8928  -20.9386   -9.1535 N   0  0  0  0  0  0  0  0  0  0  0  0
   27.4649  -20.7271   -9.0536 C   0  0  1  0  0  0  0  0  0  0  0  0
   27.1387  -19.4691   -8.2749 C   0  0  0  0  0  0  0  0  0  0  0  0
   27.6214  -19.6510   -6.8841 C   0  0  0  0  0  0  0  0  0  0  0  0
   28.8669  -19.1462   -6.5720 C   0  0  0  0  0  0  0  0  0  0  0  0
   29.3270  -19.3088   -5.2823 C   0  0  0  0  0  0  0  0  0  0  0  0
   28.5566  -19.9535   -4.3566 C   0  0  0  0  0  0  0  0  0  0  0  0
   27.3155  -20.4542   -4.6752 C   0  0  0  0  0  0  0  0  0  0  0  0
   26.8354  -20.3003   -5.9681 C   0  0  0  0  0  0  0  0  0  0  0  0
   26.8488  -20.5741  -10.3973 C   0  0  0  0  0  0  0  0  0  0  0  0
   27.3553  -19.8583  -11.3028 O   0  0  0  0  0  0  0  0  0  0  0  0
   22.8944  -23.1272  -17.6011 O   0  0  0  0  0  0  0  0  0  0  0  0
   23.4108  -23.0539  -16.3113 C   0  0  0  0  0  0  0  0  0  0  0  0
   22.6806  -23.4409  -15.2086 C   0  0  0  0  0  0  0  0  0  0  0  0
   23.2309  -23.3515  -13.9498 C   0  0  0  0  0  0  0  0  0  0  0  0
   24.5076  -22.8836  -13.7209 C   0  0  0  0  0  0  0  0  0  0  0  0
   25.0483  -22.8094  -12.3440 C   0  0  0  0  0  0  0  0  0  0  0  0
   25.0476  -21.3391  -11.9080 C   0  0  2  0  0  0  0  0  0  0  0  0
   25.6382  -21.2898  -10.6107 N   0  0  0  0  0  0  0  0  0  0  0  0
   23.6218  -20.8974  -11.7870 C   0  0  0  0  0  0  0  0  0  0  0  0
   22.9644  -21.2037  -10.7622 O   0  0  0  0  0  0  0  0  0  0  0  0
   25.2421  -22.4948  -14.8242 C   0  0  0  0  0  0  0  0  0  0  0  0
   24.6898  -22.5836  -16.0969 C   0  0  0  0  0  0  0  0  0  0  0  0
   23.2509  -18.6004  -18.6003 O   0  0  0  0  0  0  0  0  0  0  0  0
   22.7651  -18.5675  -17.2942 C   0  0  0  0  0  0  0  0  0  0  0  0
   21.5018  -19.0252  -16.9626 C   0  0  0  0  0  0  0  0  0  0  0  0
   21.0141  -18.9967  -15.6770 C   0  0  0  0  0  0  0  0  0  0  0  0
   21.7870  -18.4996  -14.6562 C   0  0  0  0  0  0  0  0  0  0  0  0
   21.3278  -18.4324  -13.2633 C   0  0  0  0  0  0  0  0  0  0  0  0
   21.5774  -19.7537  -12.5771 C   0  0  2  0  0  0  0  0  0  0  0  0
   22.9846  -20.1409  -12.7951 N   0  0  0  0  0  0  0  0  0  0  0  0
   20.6759  -20.7708  -13.1511 C   0  0  0  0  0  0  0  0  0  0  0  0
   21.0852  -21.8459  -13.8950 O   0  0  0  0  0  0  0  0  0  0  0  0
   23.0467  -18.0363  -14.9472 C   0  0  0  0  0  0  0  0  0  0  0  0
   23.5110  -18.0761  -16.2418 C   0  0  0  0  0  0  0  0  0  0  0  0
   19.4399  -20.6492  -12.9513 O   0  0  0  0  0  0  0  0  0  0  0  0
  2  1  1  6
  3  2  1  0
  4  9  1  0
  4  3  1  0
  5  4  2  0
  6  7  2  0
  6  5  1  0
  7  8  1  0
  8  9  2  0
 10  2  1  0
 11 10  2  0
 12 13  1  0
 13 14  2  0
 14 15  1  0
 16 17  1  0
 16 15  2  0
 18 17  1  1
 18 19  1  0
 19 10  1  0
 20 21  2  0
 20 18  1  0
 22 16  1  0
 23 22  2  0
 23 13  1  0
 24 25  1  0
 25 35  2  0
 26 25  1  0
 26 27  2  0
 27 28  1  0
 28 34  2  0
 28 29  1  0
 30 29  1  6
 30 31  1  0
 31 20  1  0
 32 33  1  0
 32 30  1  0
 35 34  1  0
 36 32  2  0
M  END
$$$$
