FYY.pdb
     RDKit          3D

 36 38  0  0  1  0  0  0  0  0999 V2000
   23.6858  -12.1197  -18.0729 N   0  0  0  0  0  0  0  0  0  0  0  0
   23.7730  -11.4871  -16.7745 C   0  0  1  0  0  0  0  0  0  0  0  0
   25.1548  -10.9201  -16.5200 C   0  0  0  0  0  0  0  0  0  0  0  0
   26.1181  -12.0478  -16.5000 C   0  0  0  0  0  0  0  0  0  0  0  0
   26.0334  -12.9383  -15.4496 C   0  0  0  0  0  0  0  0  0  0  0  0
   26.9234  -13.9911  -15.4196 C   0  0  0  0  0  0  0  0  0  0  0  0
   27.8535  -14.1299  -16.4104 C   0  0  0  0  0  0  0  0  0  0  0  0
   27.9320  -13.2379  -17.4548 C   0  0  0  0  0  0  0  0  0  0  0  0
   27.0448  -12.1718  -17.5022 C   0  0  0  0  0  0  0  0  0  0  0  0
   22.8156  -10.3560  -16.6621 C   0  0  0  0  0  0  0  0  0  0  0  0
   22.4389   -9.6795  -17.6567 O   0  0  0  0  0  0  0  0  0  0  0  0
   16.8532  -13.0208  -17.3734 O   0  0  0  0  0  0  0  0  0  0  0  0
   17.6956  -12.2280  -16.6006 C   0  0  0  0  0  0  0  0  0  0  0  0
   18.7839  -12.7499  -15.9357 C   0  0  0  0  0  0  0  0  0  0  0  0
   19.5916  -11.9286  -15.1816 C   0  0  0  0  0  0  0  0  0  0  0  0
   19.3688  -10.5744  -15.0487 C   0  0  0  0  0  0  0  0  0  0  0  0
   20.2714   -9.7388  -14.2237 C   0  0  0  0  0  0  0  0  0  0  0  0
   21.3144   -9.1021  -15.1502 C   0  0  2  0  0  0  0  0  0  0  0  0
   22.3394  -10.0731  -15.3520 N   0  0  0  0  0  0  0  0  0  0  0  0
   21.9153   -7.9344  -14.4304 C   0  0  0  0  0  0  0  0  0  0  0  0
   22.9872   -8.0850  -13.7943 O   0  0  0  0  0  0  0  0  0  0  0  0
   18.2786  -10.0481  -15.7140 C   0  0  0  0  0  0  0  0  0  0  0  0
   17.4608  -10.8743  -16.4763 C   0  0  0  0  0  0  0  0  0  0  0  0
   21.5266   -3.3750  -19.9203 O   0  0  0  0  0  0  0  0  0  0  0  0
   21.9578   -3.8389  -18.6786 C   0  0  0  0  0  0  0  0  0  0  0  0
   22.1895   -2.9895  -17.6108 C   0  0  0  0  0  0  0  0  0  0  0  0
   22.6150   -3.4381  -16.3823 C   0  0  0  0  0  0  0  0  0  0  0  0
   22.8288   -4.7786  -16.1728 C   0  0  0  0  0  0  0  0  0  0  0  0
   23.2895   -5.3256  -14.8906 C   0  0  0  0  0  0  0  0  0  0  0  0
   22.1142   -5.5151  -13.9623 C   0  0  2  0  0  0  0  0  0  0  0  0
   21.3124   -6.6573  -14.4422 N   0  0  0  0  0  0  0  0  0  0  0  0
   21.2984   -4.2857  -13.9634 C   0  0  0  0  0  0  0  0  0  0  0  0
   19.9919   -4.2163  -14.3695 O   0  0  0  0  0  0  0  0  0  0  0  0
   22.6092   -5.6521  -17.2096 C   0  0  0  0  0  0  0  0  0  0  0  0
   22.1834   -5.1776  -18.4289 C   0  0  0  0  0  0  0  0  0  0  0  0
   21.8331   -3.2182  -13.5673 O   0  0  0  0  0  0  0  0  0  0  0  0
  2  1  1  6
  3  2  1  0
  4  9  1  0
  4  3  1  0
  5  4  2  0
  6  7  2  0
  6  5  1  0
  7  8  1  0
  8  9  2  0
 10  2  1  0
 11 10  2  0
 12 13  1  0
 13 14  2  0
 14 15  1  0
 16 17  1  0
 16 15  2  0
 18 17  1  1
 18 19  1  0
 19 10  1  0
 20 21  2  0
 20 18  1  0
 22 16  1  0
 23 22  2  0
 23 13  1  0
 24 25  1  0
 25 35  2  0
 26 25  1  0
 26 27  2  0
 27 28  1  0
 28 34  2  0
 28 29  1  0
 30 29  1  6
 30 31  1  0
 31 20  1  0
 32 33  1  0
 32 30  1  0
 35 34  1  0
 36 32  2  0
M  END
$$$$
