FYY.pdb
     RDKit          3D

 36 38  0  0  1  0  0  0  0  0999 V2000
   26.6139  -11.6627  -18.6070 N   0  0  0  0  0  0  0  0  0  0  0  0
   26.3827  -10.4541  -17.8458 C   0  0  1  0  0  0  0  0  0  0  0  0
   26.8190   -9.2201  -18.6089 C   0  0  0  0  0  0  0  0  0  0  0  0
   28.2532   -9.3759  -18.9539 C   0  0  0  0  0  0  0  0  0  0  0  0
   29.1778   -9.1110  -17.9648 C   0  0  0  0  0  0  0  0  0  0  0  0
   30.5145   -9.2523  -18.2730 C   0  0  0  0  0  0  0  0  0  0  0  0
   30.8904   -9.6439  -19.5265 C   0  0  0  0  0  0  0  0  0  0  0  0
   29.9627   -9.9062  -20.5079 C   0  0  0  0  0  0  0  0  0  0  0  0
   28.6127   -9.7697  -20.2166 C   0  0  0  0  0  0  0  0  0  0  0  0
   24.9395  -10.2815  -17.5362 C   0  0  0  0  0  0  0  0  0  0  0  0
   24.0782  -11.1687  -17.7810 O   0  0  0  0  0  0  0  0  0  0  0  0
   18.0627   -9.0582  -12.7707 O   0  0  0  0  0  0  0  0  0  0  0  0
   19.3197   -9.2252  -13.3431 C   0  0  0  0  0  0  0  0  0  0  0  0
   20.4683   -8.7766  -12.7281 C   0  0  0  0  0  0  0  0  0  0  0  0
   21.6922   -8.9629  -13.3304 C   0  0  0  0  0  0  0  0  0  0  0  0
   21.8404   -9.5908  -14.5491 C   0  0  0  0  0  0  0  0  0  0  0  0
   23.1830   -9.7637  -15.1503 C   0  0  0  0  0  0  0  0  0  0  0  0
   23.2736   -8.8616  -16.3871 C   0  0  2  0  0  0  0  0  0  0  0  0
   24.5761   -9.0426  -16.9393 N   0  0  0  0  0  0  0  0  0  0  0  0
   23.1563   -7.4410  -15.9281 C   0  0  0  0  0  0  0  0  0  0  0  0
   24.0087   -6.9760  -15.1321 O   0  0  0  0  0  0  0  0  0  0  0  0
   20.6909  -10.0416  -15.1682 C   0  0  0  0  0  0  0  0  0  0  0  0
   19.4533   -9.8553  -14.5631 C   0  0  0  0  0  0  0  0  0  0  0  0
   27.6313   -4.4150  -18.6256 O   0  0  0  0  0  0  0  0  0  0  0  0
   26.3112   -4.3571  -18.1817 C   0  0  0  0  0  0  0  0  0  0  0  0
   25.9271   -3.5827  -17.1009 C   0  0  0  0  0  0  0  0  0  0  0  0
   24.6273   -3.5193  -16.6559 C   0  0  0  0  0  0  0  0  0  0  0  0
   23.6451   -4.2424  -17.2877 C   0  0  0  0  0  0  0  0  0  0  0  0
   22.2401   -4.2276  -16.8620 C   0  0  0  0  0  0  0  0  0  0  0  0
   22.0242   -5.2488  -15.7714 C   0  0  2  0  0  0  0  0  0  0  0  0
   22.1104   -6.5978  -16.3635 N   0  0  0  0  0  0  0  0  0  0  0  0
   20.6909   -5.0400  -15.1750 C   0  0  0  0  0  0  0  0  0  0  0  0
   19.6613   -5.9420  -15.2302 O   0  0  0  0  0  0  0  0  0  0  0  0
   23.9888   -5.0225  -18.3644 C   0  0  0  0  0  0  0  0  0  0  0  0
   25.2965   -5.0683  -18.7899 C   0  0  0  0  0  0  0  0  0  0  0  0
   20.4729   -3.9573  -14.5729 O   0  0  0  0  0  0  0  0  0  0  0  0
  2  1  1  6
  3  2  1  0
  4  9  1  0
  4  3  1  0
  5  4  2  0
  6  7  2  0
  6  5  1  0
  7  8  1  0
  8  9  2  0
 10  2  1  0
 11 10  2  0
 12 13  1  0
 13 14  2  0
 14 15  1  0
 16 17  1  0
 16 15  2  0
 18 17  1  1
 18 19  1  0
 19 10  1  0
 20 21  2  0
 20 18  1  0
 22 16  1  0
 23 22  2  0
 23 13  1  0
 24 25  1  0
 25 35  2  0
 26 25  1  0
 26 27  2  0
 27 28  1  0
 28 34  2  0
 28 29  1  0
 30 29  1  6
 30 31  1  0
 31 20  1  0
 32 33  1  0
 32 30  1  0
 35 34  1  0
 36 32  2  0
M  END
$$$$
