FYY.pdb
     RDKit          3D

 36 38  0  0  1  0  0  0  0  0999 V2000
   18.5087  -25.9642  -14.9920 N   0  0  0  0  0  0  0  0  0  0  0  0
   19.0389  -27.3033  -15.1301 C   0  0  1  0  0  0  0  0  0  0  0  0
   20.2480  -27.3351  -16.0426 C   0  0  0  0  0  0  0  0  0  0  0  0
   19.7688  -27.2517  -17.4439 C   0  0  0  0  0  0  0  0  0  0  0  0
   19.7137  -26.0011  -18.0239 C   0  0  0  0  0  0  0  0  0  0  0  0
   19.2700  -25.9101  -19.3264 C   0  0  0  0  0  0  0  0  0  0  0  0
   18.9009  -27.0373  -20.0042 C   0  0  0  0  0  0  0  0  0  0  0  0
   18.9586  -28.2811  -19.4193 C   0  0  0  0  0  0  0  0  0  0  0  0
   19.4025  -28.3926  -18.1092 C   0  0  0  0  0  0  0  0  0  0  0  0
   19.4753  -27.8468  -13.8175 C   0  0  0  0  0  0  0  0  0  0  0  0
   19.7376  -27.1117  -12.8278 O   0  0  0  0  0  0  0  0  0  0  0  0
   14.5190  -27.8837  -10.0063 O   0  0  0  0  0  0  0  0  0  0  0  0
   15.5783  -28.6124  -10.5381 C   0  0  0  0  0  0  0  0  0  0  0  0
   15.7320  -28.7939  -11.8954 C   0  0  0  0  0  0  0  0  0  0  0  0
   16.7954  -29.5224  -12.3787 C   0  0  0  0  0  0  0  0  0  0  0  0
   17.7439  -30.0982  -11.5600 C   0  0  0  0  0  0  0  0  0  0  0  0
   18.8679  -30.8720  -12.1358 C   0  0  0  0  0  0  0  0  0  0  0  0
   19.9805  -29.8881  -12.5177 C   0  0  2  0  0  0  0  0  0  0  0  0
   19.5826  -29.2628  -13.7363 N   0  0  0  0  0  0  0  0  0  0  0  0
   21.2220  -30.6814  -12.7858 C   0  0  0  0  0  0  0  0  0  0  0  0
   21.8705  -30.4771  -13.8413 O   0  0  0  0  0  0  0  0  0  0  0  0
   17.5926  -29.9180  -10.1989 C   0  0  0  0  0  0  0  0  0  0  0  0
   16.5200  -29.1830   -9.7072 C   0  0  0  0  0  0  0  0  0  0  0  0
   28.5828  -34.3185  -14.3249 O   0  0  0  0  0  0  0  0  0  0  0  0
   27.4759  -33.6195  -13.8460 C   0  0  0  0  0  0  0  0  0  0  0  0
   27.3185  -33.3106  -12.5062 C   0  0  0  0  0  0  0  0  0  0  0  0
   26.2300  -32.6215  -12.0247 C   0  0  0  0  0  0  0  0  0  0  0  0
   25.2398  -32.2083  -12.8822 C   0  0  0  0  0  0  0  0  0  0  0  0
   24.0481  -31.4757  -12.4363 C   0  0  0  0  0  0  0  0  0  0  0  0
   22.8910  -32.4313  -12.2717 C   0  0  2  0  0  0  0  0  0  0  0  0
   21.6935  -31.6609  -11.8842 N   0  0  0  0  0  0  0  0  0  0  0  0
   23.2248  -33.4134  -11.2225 C   0  0  0  0  0  0  0  0  0  0  0  0
   22.6661  -33.4396   -9.9719 O   0  0  0  0  0  0  0  0  0  0  0  0
   25.3617  -32.4967  -14.2194 C   0  0  0  0  0  0  0  0  0  0  0  0
   26.4608  -33.1874  -14.6757 C   0  0  0  0  0  0  0  0  0  0  0  0
   24.0857  -34.2923  -11.4843 O   0  0  0  0  0  0  0  0  0  0  0  0
  2  1  1  1
  3  2  1  0
  4  9  1  0
  4  3  1  0
  5  4  2  0
  6  7  2  0
  6  5  1  0
  7  8  1  0
  8  9  2  0
 10  2  1  0
 11 10  2  0
 12 13  1  0
 13 14  2  0
 14 15  1  0
 16 17  1  0
 16 15  2  0
 18 17  1  6
 18 19  1  0
 19 10  1  0
 20 21  2  0
 20 18  1  0
 22 16  1  0
 23 22  2  0
 23 13  1  0
 24 25  1  0
 25 35  2  0
 26 25  1  0
 26 27  2  0
 27 28  1  0
 28 34  2  0
 28 29  1  0
 30 29  1  1
 30 31  1  0
 31 20  1  0
 32 33  1  0
 32 30  1  0
 35 34  1  0
 36 32  2  0
M  END
$$$$
