FYY.pdb
     RDKit          3D

 36 38  0  0  1  0  0  0  0  0999 V2000
   32.4631  -35.0203   -4.5564 N   0  0  0  0  0  0  0  0  0  0  0  0
   31.4376  -35.0431   -5.5768 C   0  0  1  0  0  0  0  0  0  0  0  0
   31.2684  -36.4272   -6.1693 C   0  0  0  0  0  0  0  0  0  0  0  0
   32.5249  -36.7832   -6.8726 C   0  0  0  0  0  0  0  0  0  0  0  0
   33.1292  -37.9755   -6.5312 C   0  0  0  0  0  0  0  0  0  0  0  0
   34.2980  -38.3178   -7.1779 C   0  0  0  0  0  0  0  0  0  0  0  0
   34.8249  -37.4868   -8.1254 C   0  0  0  0  0  0  0  0  0  0  0  0
   34.2167  -36.2992   -8.4607 C   0  0  0  0  0  0  0  0  0  0  0  0
   33.0397  -35.9376   -7.8206 C   0  0  0  0  0  0  0  0  0  0  0  0
   30.1172  -34.6479   -5.0210 C   0  0  0  0  0  0  0  0  0  0  0  0
   29.8728  -34.6376   -3.7844 O   0  0  0  0  0  0  0  0  0  0  0  0
   21.7385  -32.0874   -5.4203 O   0  0  0  0  0  0  0  0  0  0  0  0
   23.0758  -32.3196   -5.7259 C   0  0  0  0  0  0  0  0  0  0  0  0
   23.4587  -32.9955   -6.8640 C   0  0  0  0  0  0  0  0  0  0  0  0
   24.7939  -33.2033   -7.1276 C   0  0  0  0  0  0  0  0  0  0  0  0
   25.8003  -32.7615   -6.2949 C   0  0  0  0  0  0  0  0  0  0  0  0
   27.2210  -33.0136   -6.6291 C   0  0  0  0  0  0  0  0  0  0  0  0
   27.8118  -33.9283   -5.5493 C   0  0  2  0  0  0  0  0  0  0  0  0
   29.1284  -34.2760   -5.9735 N   0  0  0  0  0  0  0  0  0  0  0  0
   26.9905  -35.1799   -5.5091 C   0  0  0  0  0  0  0  0  0  0  0  0
   27.0036  -35.9601   -6.4927 O   0  0  0  0  0  0  0  0  0  0  0  0
   25.4197  -32.0835   -5.1532 C   0  0  0  0  0  0  0  0  0  0  0  0
   24.0725  -31.8719   -4.8837 C   0  0  0  0  0  0  0  0  0  0  0  0
   28.8439  -41.0110   -7.6254 O   0  0  0  0  0  0  0  0  0  0  0  0
   28.1951  -40.2353   -6.6661 C   0  0  0  0  0  0  0  0  0  0  0  0
   28.8002  -39.8707   -5.4761 C   0  0  0  0  0  0  0  0  0  0  0  0
   28.1680  -39.1057   -4.5239 C   0  0  0  0  0  0  0  0  0  0  0  0
   26.8822  -38.6692   -4.7310 C   0  0  0  0  0  0  0  0  0  0  0  0
   26.1451  -37.8566   -3.7554 C   0  0  0  0  0  0  0  0  0  0  0  0
   25.3961  -36.7559   -4.4670 C   0  0  2  0  0  0  0  0  0  0  0  0
   26.1939  -35.5167   -4.3925 N   0  0  0  0  0  0  0  0  0  0  0  0
   24.0905  -36.5598   -3.8081 C   0  0  0  0  0  0  0  0  0  0  0  0
   23.1496  -37.5400   -3.6333 O   0  0  0  0  0  0  0  0  0  0  0  0
   26.2493  -39.0113   -5.9008 C   0  0  0  0  0  0  0  0  0  0  0  0
   26.9041  -39.7776   -6.8374 C   0  0  0  0  0  0  0  0  0  0  0  0
   23.8106  -35.4125   -3.3749 O   0  0  0  0  0  0  0  0  0  0  0  0
  2  1  1  1
  3  2  1  0
  4  9  1  0
  4  3  1  0
  5  4  2  0
  6  7  2  0
  6  5  1  0
  7  8  1  0
  8  9  2  0
 10  2  1  0
 11 10  2  0
 12 13  1  0
 13 14  2  0
 14 15  1  0
 16 17  1  0
 16 15  2  0
 18 17  1  6
 18 19  1  0
 19 10  1  0
 20 21  2  0
 20 18  1  0
 22 16  1  0
 23 22  2  0
 23 13  1  0
 24 25  1  0
 25 35  2  0
 26 25  1  0
 26 27  2  0
 27 28  1  0
 28 34  2  0
 28 29  1  0
 30 29  1  1
 30 31  1  0
 31 20  1  0
 32 33  1  0
 32 30  1  0
 35 34  1  0
 36 32  2  0
M  END
$$$$
