FYY.pdb
     RDKit          3D

 36 38  0  0  1  0  0  0  0  0999 V2000
   27.2276  -19.3605  -10.2074 N   0  0  0  0  0  0  0  0  0  0  0  0
   26.5068  -20.6149  -10.2249 C   0  0  1  0  0  0  0  0  0  0  0  0
   26.0442  -21.0138   -8.8384 C   0  0  0  0  0  0  0  0  0  0  0  0
   27.1794  -20.8244   -7.9026 C   0  0  0  0  0  0  0  0  0  0  0  0
   26.9727  -20.0097   -6.8085 C   0  0  0  0  0  0  0  0  0  0  0  0
   28.0203  -19.8256   -5.9309 C   0  0  0  0  0  0  0  0  0  0  0  0
   29.2189  -20.4408   -6.1568 C   0  0  0  0  0  0  0  0  0  0  0  0
   29.4176  -21.2519   -7.2500 C   0  0  0  0  0  0  0  0  0  0  0  0
   28.3750  -21.4493   -8.1445 C   0  0  0  0  0  0  0  0  0  0  0  0
   25.2914  -20.5249  -11.0754 C   0  0  0  0  0  0  0  0  0  0  0  0
   24.2984  -19.8098  -10.7729 O   0  0  0  0  0  0  0  0  0  0  0  0
   21.4917  -20.4134  -18.9252 O   0  0  0  0  0  0  0  0  0  0  0  0
   22.3627  -20.6778  -17.8730 C   0  0  0  0  0  0  0  0  0  0  0  0
   23.2316  -19.7253  -17.3866 C   0  0  0  0  0  0  0  0  0  0  0  0
   24.0768  -20.0299  -16.3433 C   0  0  0  0  0  0  0  0  0  0  0  0
   24.1056  -21.2688  -15.7387 C   0  0  0  0  0  0  0  0  0  0  0  0
   25.0364  -21.5404  -14.6192 C   0  0  0  0  0  0  0  0  0  0  0  0
   24.3976  -21.0159  -13.3274 C   0  0  2  0  0  0  0  0  0  0  0  0
   25.3087  -21.3005  -12.2676 N   0  0  0  0  0  0  0  0  0  0  0  0
   23.1438  -21.7983  -13.0854 C   0  0  0  0  0  0  0  0  0  0  0  0
   23.1959  -22.8573  -12.4130 O   0  0  0  0  0  0  0  0  0  0  0  0
   23.2357  -22.2258  -16.2241 C   0  0  0  0  0  0  0  0  0  0  0  0
   22.3809  -21.9219  -17.2773 C   0  0  0  0  0  0  0  0  0  0  0  0
   15.9073  -23.9887   -9.3502 O   0  0  0  0  0  0  0  0  0  0  0  0
   17.0205  -23.3672   -9.9138 C   0  0  0  0  0  0  0  0  0  0  0  0
   16.9238  -22.1944  -10.6421 C   0  0  0  0  0  0  0  0  0  0  0  0
   18.0163  -21.5741  -11.2016 C   0  0  0  0  0  0  0  0  0  0  0  0
   19.2699  -22.1148  -11.0505 C   0  0  0  0  0  0  0  0  0  0  0  0
   20.4777  -21.5105  -11.6263 C   0  0  0  0  0  0  0  0  0  0  0  0
   20.6817  -22.0149  -13.0344 C   0  0  2  0  0  0  0  0  0  0  0  0
   21.8928  -21.3826  -13.5921 N   0  0  0  0  0  0  0  0  0  0  0  0
   19.5029  -21.6594  -13.8473 C   0  0  0  0  0  0  0  0  0  0  0  0
   18.4904  -22.5228  -14.1733 O   0  0  0  0  0  0  0  0  0  0  0  0
   19.4049  -23.2784  -10.3336 C   0  0  0  0  0  0  0  0  0  0  0  0
   18.2958  -23.8791   -9.7838 C   0  0  0  0  0  0  0  0  0  0  0  0
   19.4132  -20.4815  -14.2796 O   0  0  0  0  0  0  0  0  0  0  0  0
  2  1  1  1
  3  2  1  0
  4  9  1  0
  4  3  1  0
  5  4  2  0
  6  7  2  0
  6  5  1  0
  7  8  1  0
  8  9  2  0
 10  2  1  0
 11 10  2  0
 12 13  1  0
 13 14  2  0
 14 15  1  0
 16 17  1  0
 16 15  2  0
 18 17  1  6
 18 19  1  0
 19 10  1  0
 20 21  2  0
 20 18  1  0
 22 16  1  0
 23 22  2  0
 23 13  1  0
 24 25  1  0
 25 35  2  0
 26 25  1  0
 26 27  2  0
 27 28  1  0
 28 34  2  0
 28 29  1  0
 30 29  1  1
 30 31  1  0
 31 20  1  0
 32 33  1  0
 32 30  1  0
 35 34  1  0
 36 32  2  0
M  END
$$$$
