FYY.pdb
     RDKit          3D

 36 38  0  0  1  0  0  0  0  0999 V2000
   20.4885  -10.9456  -18.4496 N   0  0  0  0  0  0  0  0  0  0  0  0
   21.2232   -9.7796  -18.0089 C   0  0  1  0  0  0  0  0  0  0  0  0
   21.5054   -8.8299  -19.1551 C   0  0  0  0  0  0  0  0  0  0  0  0
   22.3753   -9.5316  -20.1304 C   0  0  0  0  0  0  0  0  0  0  0  0
   22.4206   -9.0333  -21.4160 C   0  0  0  0  0  0  0  0  0  0  0  0
   23.2257   -9.6768  -22.3321 C   0  0  0  0  0  0  0  0  0  0  0  0
   23.9488  -10.7735  -21.9570 C   0  0  0  0  0  0  0  0  0  0  0  0
   23.8986  -11.2647  -20.6730 C   0  0  0  0  0  0  0  0  0  0  0  0
   23.0939  -10.6304  -19.7369 C   0  0  0  0  0  0  0  0  0  0  0  0
   20.4559   -9.0130  -16.9930 C   0  0  0  0  0  0  0  0  0  0  0  0
   19.2020   -9.0861  -16.8866 O   0  0  0  0  0  0  0  0  0  0  0  0
   18.8518   -5.3236   -9.3611 O   0  0  0  0  0  0  0  0  0  0  0  0
   19.4991   -5.8918  -10.4537 C   0  0  0  0  0  0  0  0  0  0  0  0
   20.3178   -5.1554  -11.2822 C   0  0  0  0  0  0  0  0  0  0  0  0
   20.9392   -5.7582  -12.3527 C   0  0  0  0  0  0  0  0  0  0  0  0
   20.7857   -7.0951  -12.6534 C   0  0  0  0  0  0  0  0  0  0  0  0
   21.4792   -7.6906  -13.8188 C   0  0  0  0  0  0  0  0  0  0  0  0
   20.5995   -7.4817  -15.0575 C   0  0  2  0  0  0  0  0  0  0  0  0
   21.2238   -8.1795  -16.1334 N   0  0  0  0  0  0  0  0  0  0  0  0
   20.6074   -6.0203  -15.3843 C   0  0  0  0  0  0  0  0  0  0  0  0
   21.6908   -5.4583  -15.6788 O   0  0  0  0  0  0  0  0  0  0  0  0
   19.9656   -7.8360  -11.8248 C   0  0  0  0  0  0  0  0  0  0  0  0
   19.3366   -7.2308  -10.7429 C   0  0  0  0  0  0  0  0  0  0  0  0
   13.2619   -4.8670  -15.6596 O   0  0  0  0  0  0  0  0  0  0  0  0
   14.5830   -4.5936  -16.0105 C   0  0  0  0  0  0  0  0  0  0  0  0
   15.4166   -5.5523  -16.5594 C   0  0  0  0  0  0  0  0  0  0  0  0
   16.7211   -5.2918  -16.9086 C   0  0  0  0  0  0  0  0  0  0  0  0
   17.2499   -4.0386  -16.7175 C   0  0  0  0  0  0  0  0  0  0  0  0
   18.6350   -3.6928  -17.0602 C   0  0  0  0  0  0  0  0  0  0  0  0
   19.5178   -3.8496  -15.8457 C   0  0  2  0  0  0  0  0  0  0  0  0
   19.4273   -5.2445  -15.3726 N   0  0  0  0  0  0  0  0  0  0  0  0
   19.0550   -2.9252  -14.7930 C   0  0  0  0  0  0  0  0  0  0  0  0
   18.5177   -3.3137  -13.5941 O   0  0  0  0  0  0  0  0  0  0  0  0
   16.4523   -3.0611  -16.1750 C   0  0  0  0  0  0  0  0  0  0  0  0
   15.1503   -3.3476  -15.8343 C   0  0  0  0  0  0  0  0  0  0  0  0
   19.1537   -1.6889  -15.0032 O   0  0  0  0  0  0  0  0  0  0  0  0
  2  1  1  6
  3  2  1  0
  4  9  1  0
  4  3  1  0
  5  4  2  0
  6  7  2  0
  6  5  1  0
  7  8  1  0
  8  9  2  0
 10  2  1  0
 11 10  2  0
 12 13  1  0
 13 14  2  0
 14 15  1  0
 16 17  1  0
 16 15  2  0
 18 17  1  1
 18 19  1  0
 19 10  1  0
 20 21  2  0
 20 18  1  0
 22 16  1  0
 23 22  2  0
 23 13  1  0
 24 25  1  0
 25 35  2  0
 26 25  1  0
 26 27  2  0
 27 28  1  0
 28 34  2  0
 28 29  1  0
 30 29  1  6
 30 31  1  0
 31 20  1  0
 32 33  1  0
 32 30  1  0
 35 34  1  0
 36 32  2  0
M  END
$$$$
