FYY.pdb
     RDKit          3D

 36 38  0  0  1  0  0  0  0  0999 V2000
   20.5928  -20.2808  -16.5130 N   0  0  0  0  0  0  0  0  0  0  0  0
   21.8653  -19.6622  -16.2106 C   0  0  1  0  0  0  0  0  0  0  0  0
   21.6875  -18.3044  -15.5625 C   0  0  0  0  0  0  0  0  0  0  0  0
   21.2324  -17.3530  -16.6055 C   0  0  0  0  0  0  0  0  0  0  0  0
   19.8761  -17.1218  -16.7074 C   0  0  0  0  0  0  0  0  0  0  0  0
   19.4402  -16.2392  -17.6732 C   0  0  0  0  0  0  0  0  0  0  0  0
   20.3414  -15.6229  -18.4942 C   0  0  0  0  0  0  0  0  0  0  0  0
   21.6925  -15.8584  -18.3867 C   0  0  0  0  0  0  0  0  0  0  0  0
   22.1502  -16.7434  -17.4207 C   0  0  0  0  0  0  0  0  0  0  0  0
   22.6549  -20.4918  -15.2635 C   0  0  0  0  0  0  0  0  0  0  0  0
   22.1494  -21.0272  -14.2404 O   0  0  0  0  0  0  0  0  0  0  0  0
   21.6844  -26.8741  -15.2525 O   0  0  0  0  0  0  0  0  0  0  0  0
   22.6023  -25.8309  -15.3220 C   0  0  0  0  0  0  0  0  0  0  0  0
   23.6536  -25.7223  -14.4379 C   0  0  0  0  0  0  0  0  0  0  0  0
   24.5389  -24.6732  -14.5430 C   0  0  0  0  0  0  0  0  0  0  0  0
   24.4321  -23.6959  -15.5098 C   0  0  0  0  0  0  0  0  0  0  0  0
   25.4144  -22.5893  -15.5756 C   0  0  0  0  0  0  0  0  0  0  0  0
   24.8814  -21.4252  -14.7315 C   0  0  2  0  0  0  0  0  0  0  0  0
   24.0328  -20.6521  -15.5779 N   0  0  0  0  0  0  0  0  0  0  0  0
   26.0478  -20.5722  -14.3382 C   0  0  0  0  0  0  0  0  0  0  0  0
   26.1515  -19.4122  -14.8070 O   0  0  0  0  0  0  0  0  0  0  0  0
   23.3792  -23.8019  -16.3977 C   0  0  0  0  0  0  0  0  0  0  0  0
   22.4833  -24.8598  -16.2946 C   0  0  0  0  0  0  0  0  0  0  0  0
   24.0112  -20.3550   -8.2534 O   0  0  0  0  0  0  0  0  0  0  0  0
   24.8551  -19.9873   -9.3002 C   0  0  0  0  0  0  0  0  0  0  0  0
   24.4180  -19.9098  -10.6110 C   0  0  0  0  0  0  0  0  0  0  0  0
   25.2432  -19.5480  -11.6501 C   0  0  0  0  0  0  0  0  0  0  0  0
   26.5614  -19.2447  -11.4115 C   0  0  0  0  0  0  0  0  0  0  0  0
   27.4993  -18.8585  -12.4729 C   0  0  0  0  0  0  0  0  0  0  0  0
   28.1216  -20.0922  -13.0809 C   0  0  2  0  0  0  0  0  0  0  0  0
   27.0449  -21.0316  -13.4498 N   0  0  0  0  0  0  0  0  0  0  0  0
   29.0212  -20.7141  -12.0906 C   0  0  0  0  0  0  0  0  0  0  0  0
   28.8084  -21.9312  -11.4988 O   0  0  0  0  0  0  0  0  0  0  0  0
   27.0312  -19.3105  -10.1227 C   0  0  0  0  0  0  0  0  0  0  0  0
   26.1849  -19.6751   -9.1009 C   0  0  0  0  0  0  0  0  0  0  0  0
   30.0599  -20.0881  -11.7566 O   0  0  0  0  0  0  0  0  0  0  0  0
  2  1  1  1
  3  2  1  0
  4  9  1  0
  4  3  1  0
  5  4  2  0
  6  7  2  0
  6  5  1  0
  7  8  1  0
  8  9  2  0
 10  2  1  0
 11 10  2  0
 12 13  1  0
 13 14  2  0
 14 15  1  0
 16 17  1  0
 16 15  2  0
 18 17  1  6
 18 19  1  0
 19 10  1  0
 20 21  2  0
 20 18  1  0
 22 16  1  0
 23 22  2  0
 23 13  1  0
 24 25  1  0
 25 35  2  0
 26 25  1  0
 26 27  2  0
 27 28  1  0
 28 34  2  0
 28 29  1  0
 30 29  1  1
 30 31  1  0
 31 20  1  0
 32 33  1  0
 32 30  1  0
 35 34  1  0
 36 32  2  0
M  END
$$$$
