FYY.pdb
     RDKit          3D

 36 38  0  0  1  0  0  0  0  0999 V2000
   22.3346  -19.9846  -22.0113 N   0  0  0  0  0  0  0  0  0  0  0  0
   21.7288  -19.4351  -20.8178 C   0  0  1  0  0  0  0  0  0  0  0  0
   20.3198  -18.9440  -21.0808 C   0  0  0  0  0  0  0  0  0  0  0  0
   20.3952  -17.8340  -22.0618 C   0  0  0  0  0  0  0  0  0  0  0  0
   20.0801  -18.1220  -23.3737 C   0  0  0  0  0  0  0  0  0  0  0  0
   20.1463  -17.0985  -24.2955 C   0  0  0  0  0  0  0  0  0  0  0  0
   20.5153  -15.8440  -23.9003 C   0  0  0  0  0  0  0  0  0  0  0  0
   20.8281  -15.5643  -22.5903 C   0  0  0  0  0  0  0  0  0  0  0  0
   20.7673  -16.5814  -21.6481 C   0  0  0  0  0  0  0  0  0  0  0  0
   21.6354  -20.4569  -19.7428 C   0  0  0  0  0  0  0  0  0  0  0  0
   21.4356  -21.6790  -19.9785 O   0  0  0  0  0  0  0  0  0  0  0  0
   27.9073  -21.8014  -18.8181 O   0  0  0  0  0  0  0  0  0  0  0  0
   26.6948  -21.4756  -18.2186 C   0  0  0  0  0  0  0  0  0  0  0  0
   26.0185  -22.3619  -17.4087 C   0  0  0  0  0  0  0  0  0  0  0  0
   24.8209  -21.9979  -16.8354 C   0  0  0  0  0  0  0  0  0  0  0  0
   24.2414  -20.7619  -17.0298 C   0  0  0  0  0  0  0  0  0  0  0  0
   22.9503  -20.4246  -16.3871 C   0  0  0  0  0  0  0  0  0  0  0  0
   21.8191  -20.8846  -17.3148 C   0  0  2  0  0  0  0  0  0  0  0  0
   21.7861  -19.9751  -18.4130 N   0  0  0  0  0  0  0  0  0  0  0  0
   20.5295  -20.7549  -16.5646 C   0  0  0  0  0  0  0  0  0  0  0  0
   20.0530  -19.6140  -16.3466 O   0  0  0  0  0  0  0  0  0  0  0  0
   24.9170  -19.8712  -17.8412 C   0  0  0  0  0  0  0  0  0  0  0  0
   26.1264  -20.2352  -18.4218 C   0  0  0  0  0  0  0  0  0  0  0  0
   12.3960  -20.5015  -14.1742 O   0  0  0  0  0  0  0  0  0  0  0  0
   13.6732  -20.6213  -14.7198 C   0  0  0  0  0  0  0  0  0  0  0  0
   14.6769  -19.7038  -14.4628 C   0  0  0  0  0  0  0  0  0  0  0  0
   15.9397  -19.8138  -14.9965 C   0  0  0  0  0  0  0  0  0  0  0  0
   16.2507  -20.8658  -15.8231 C   0  0  0  0  0  0  0  0  0  0  0  0
   17.5747  -21.0413  -16.4328 C   0  0  0  0  0  0  0  0  0  0  0  0
   18.5242  -21.6504  -15.4296 C   0  0  2  0  0  0  0  0  0  0  0  0
   19.8238  -21.8820  -16.0892 N   0  0  0  0  0  0  0  0  0  0  0  0
   17.9625  -22.9281  -14.9511 C   0  0  0  0  0  0  0  0  0  0  0  0
   18.2104  -24.1505  -15.5177 O   0  0  0  0  0  0  0  0  0  0  0  0
   15.2798  -21.7965  -16.1009 C   0  0  0  0  0  0  0  0  0  0  0  0
   14.0242  -21.6635  -15.5540 C   0  0  0  0  0  0  0  0  0  0  0  0
   17.1971  -22.9034  -13.9532 O   0  0  0  0  0  0  0  0  0  0  0  0
  2  1  1  6
  3  2  1  0
  4  9  1  0
  4  3  1  0
  5  4  2  0
  6  7  2  0
  6  5  1  0
  7  8  1  0
  8  9  2  0
 10  2  1  0
 11 10  2  0
 12 13  1  0
 13 14  2  0
 14 15  1  0
 16 17  1  0
 16 15  2  0
 18 17  1  1
 18 19  1  0
 19 10  1  0
 20 21  2  0
 20 18  1  0
 22 16  1  0
 23 22  2  0
 23 13  1  0
 24 25  1  0
 25 35  2  0
 26 25  1  0
 26 27  2  0
 27 28  1  0
 28 34  2  0
 28 29  1  0
 30 29  1  6
 30 31  1  0
 31 20  1  0
 32 33  1  0
 32 30  1  0
 35 34  1  0
 36 32  2  0
M  END
$$$$
