FYY.pdb
     RDKit          3D

 36 38  0  0  1  0  0  0  0  0999 V2000
   38.7744   -8.4296  -18.4105 N   0  0  0  0  0  0  0  0  0  0  0  0
   37.6387   -7.7971  -17.7750 C   0  0  1  0  0  0  0  0  0  0  0  0
   36.9885   -6.7728  -18.6825 C   0  0  0  0  0  0  0  0  0  0  0  0
   37.9661   -5.6828  -18.9204 C   0  0  0  0  0  0  0  0  0  0  0  0
   38.7518   -5.7686  -20.0512 C   0  0  0  0  0  0  0  0  0  0  0  0
   39.6645   -4.7614  -20.2837 C   0  0  0  0  0  0  0  0  0  0  0  0
   39.7713   -3.7186  -19.4077 C   0  0  0  0  0  0  0  0  0  0  0  0
   38.9844   -3.6398  -18.2821 C   0  0  0  0  0  0  0  0  0  0  0  0
   38.0600   -4.6441  -18.0311 C   0  0  0  0  0  0  0  0  0  0  0  0
   36.5916   -8.7937  -17.4302 C   0  0  0  0  0  0  0  0  0  0  0  0
   36.5233   -9.9281  -17.9754 O   0  0  0  0  0  0  0  0  0  0  0  0
   39.4556  -11.9272  -12.7440 O   0  0  0  0  0  0  0  0  0  0  0  0
   38.3003  -11.2694  -13.1541 C   0  0  0  0  0  0  0  0  0  0  0  0
   38.1115   -9.9214  -12.9396 C   0  0  0  0  0  0  0  0  0  0  0  0
   36.9524   -9.3105  -13.3622 C   0  0  0  0  0  0  0  0  0  0  0  0
   35.9394   -9.9884  -14.0067 C   0  0  0  0  0  0  0  0  0  0  0  0
   34.7133   -9.2791  -14.4395 C   0  0  0  0  0  0  0  0  0  0  0  0
   34.6616   -9.3039  -15.9720 C   0  0  2  0  0  0  0  0  0  0  0  0
   35.6560   -8.3931  -16.4365 N   0  0  0  0  0  0  0  0  0  0  0  0
   33.3218   -8.7846  -16.3940 C   0  0  0  0  0  0  0  0  0  0  0  0
   33.0144   -7.5928  -16.1459 O   0  0  0  0  0  0  0  0  0  0  0  0
   36.1256  -11.3399  -14.2233 C   0  0  0  0  0  0  0  0  0  0  0  0
   37.2947  -11.9602  -13.7980 C   0  0  0  0  0  0  0  0  0  0  0  0
   26.6539   -5.6821  -20.5913 O   0  0  0  0  0  0  0  0  0  0  0  0
   27.8341   -6.2447  -20.1077 C   0  0  0  0  0  0  0  0  0  0  0  0
   28.4312   -7.3405  -20.7060 C   0  0  0  0  0  0  0  0  0  0  0  0
   29.5953   -7.9022  -20.2360 C   0  0  0  0  0  0  0  0  0  0  0  0
   30.2167   -7.3785  -19.1287 C   0  0  0  0  0  0  0  0  0  0  0  0
   31.4561   -7.9316  -18.5689 C   0  0  0  0  0  0  0  0  0  0  0  0
   31.1276   -8.9650  -17.5185 C   0  0  2  0  0  0  0  0  0  0  0  0
   32.3830   -9.5963  -17.0680 N   0  0  0  0  0  0  0  0  0  0  0  0
   30.2314   -9.9790  -18.1063 C   0  0  0  0  0  0  0  0  0  0  0  0
   28.8748  -10.0228  -17.9212 O   0  0  0  0  0  0  0  0  0  0  0  0
   29.6532   -6.2905  -18.5082 C   0  0  0  0  0  0  0  0  0  0  0  0
   28.4881   -5.7472  -18.9985 C   0  0  0  0  0  0  0  0  0  0  0  0
   30.7407  -10.8741  -18.8287 O   0  0  0  0  0  0  0  0  0  0  0  0
  2  1  1  6
  3  2  1  0
  4  9  1  0
  4  3  1  0
  5  4  2  0
  6  7  2  0
  6  5  1  0
  7  8  1  0
  8  9  2  0
 10  2  1  0
 11 10  2  0
 12 13  1  0
 13 14  2  0
 14 15  1  0
 16 17  1  0
 16 15  2  0
 18 17  1  1
 18 19  1  0
 19 10  1  0
 20 21  2  0
 20 18  1  0
 22 16  1  0
 23 22  2  0
 23 13  1  0
 24 25  1  0
 25 35  2  0
 26 25  1  0
 26 27  2  0
 27 28  1  0
 28 34  2  0
 28 29  1  0
 30 29  1  6
 30 31  1  0
 31 20  1  0
 32 33  1  0
 32 30  1  0
 35 34  1  0
 36 32  2  0
M  END
$$$$
