QWK.pdb
     RDKit          3D

 33 34  0  0  1  0  0  0  0  0999 V2000
    9.9512  -18.6077   30.4203 N   0  0  0  0  0  0  0  0  0  0  0  0
   10.7262  -19.7627   30.0599 C   0  0  0  0  0  0  0  0  0  0  0  0
   11.5929  -20.1816   30.8391 O   0  0  0  0  0  0  0  0  0  0  0  0
   10.4566  -20.3972   28.7713 C   0  0  0  0  0  0  0  0  0  0  0  0
    9.3154  -19.7715   28.0568 C   0  0  0  0  0  0  0  0  0  0  0  0
    9.4500  -19.7101   26.5739 C   0  0  2  0  0  0  0  0  0  0  0  0
   10.5765  -18.9597   26.0884 N   0  0  0  0  0  0  0  0  0  0  0  0
    8.2193  -19.0904   25.9706 C   0  0  0  0  0  0  0  0  0  0  0  0
    7.0853  -19.5681   26.2091 O   0  0  0  0  0  0  0  0  0  0  0  0
    8.3262  -17.9567   25.1236 N   0  0  0  0  0  0  0  0  0  0  0  0
    7.1975  -17.2147   24.6263 C   0  0  1  0  0  0  0  0  0  0  0  0
    6.5208  -16.3522   25.6369 C   0  0  0  0  0  0  0  0  0  0  0  0
    7.3718  -15.3372   26.2847 C   0  0  0  0  0  0  0  0  0  0  0  0
    8.5453  -15.5626   26.9925 C   0  0  0  0  0  0  0  0  0  0  0  0
    9.0174  -14.3954   27.4446 N   0  0  0  0  0  0  0  0  0  0  0  0
    8.1900  -13.3988   27.0563 C   0  0  0  0  0  0  0  0  0  0  0  0
    8.2017  -12.0312   27.2362 C   0  0  0  0  0  0  0  0  0  0  0  0
    7.2069  -11.2393   26.7056 C   0  0  0  0  0  0  0  0  0  0  0  0
    6.1809  -11.7845   25.9862 C   0  0  0  0  0  0  0  0  0  0  0  0
    6.1793  -13.1563   25.8125 C   0  0  0  0  0  0  0  0  0  0  0  0
    7.1664  -13.9764   26.3355 C   0  0  0  0  0  0  0  0  0  0  0  0
    7.5743  -16.5063   23.3752 C   0  0  0  0  0  0  0  0  0  0  0  0
    6.6983  -15.8611   22.7258 O   0  0  0  0  0  0  0  0  0  0  0  0
    8.8847  -16.4953   22.8348 N   0  0  0  0  0  0  0  0  0  0  0  0
    9.1086  -16.1944   21.4454 C   0  0  1  0  0  0  0  0  0  0  0  0
    8.7017  -14.7358   21.2184 C   0  0  0  0  0  0  0  0  0  0  0  0
    9.0195  -14.3525   19.8125 C   0  0  0  0  0  0  0  0  0  0  0  0
    8.2925  -13.1777   19.2776 C   0  0  0  0  0  0  0  0  0  0  0  0
    8.2564  -13.0800   17.7939 C   0  0  0  0  0  0  0  0  0  0  0  0
    7.5454  -11.9252   17.3089 N   0  0  0  0  0  0  0  0  0  0  0  0
   10.5473  -16.3887   21.1472 C   0  0  0  0  0  0  0  0  0  0  0  0
   11.3730  -16.6428   22.0700 O   0  0  0  0  0  0  0  0  0  0  0  0
   11.0492  -16.3026   19.8579 O   0  0  0  0  0  0  0  0  0  0  0  0
  2  3  2  0
  2  1  1  0
  4  2  1  0
  5  4  1  0
  5  6  1  0
  6  7  1  1
  8  9  2  0
  8  6  1  0
 10  8  1  0
 11 12  1  1
 11 10  1  0
 13 12  1  0
 13 14  2  0
 15 14  1  0
 16 15  1  0
 17 16  2  0
 18 17  1  0
 19 18  2  0
 19 20  1  0
 20 21  2  0
 21 16  1  0
 21 13  1  0
 22 11  1  0
 23 22  2  0
 24 22  1  0
 25 24  1  0
 25 26  1  1
 27 26  1  0
 28 29  1  0
 28 27  1  0
 30 29  1  0
 31 25  1  0
 31 33  1  0
 32 31  2  0
M  END
$$$$
