QWK.pdb
     RDKit          3D

 33 34  0  0  1  0  0  0  0  0999 V2000
   13.2645  -15.9922   16.6657 N   0  0  0  0  0  0  0  0  0  0  0  0
   12.0130  -16.1655   15.9817 C   0  0  0  0  0  0  0  0  0  0  0  0
   11.9835  -16.1177   14.7445 O   0  0  0  0  0  0  0  0  0  0  0  0
   10.8141  -16.3888   16.7871 C   0  0  0  0  0  0  0  0  0  0  0  0
   11.1037  -16.4156   18.2430 C   0  0  0  0  0  0  0  0  0  0  0  0
   10.1425  -17.2002   19.0685 C   0  0  2  0  0  0  0  0  0  0  0  0
    8.8097  -17.2956   18.5373 N   0  0  0  0  0  0  0  0  0  0  0  0
   10.0243  -16.5912   20.4388 C   0  0  0  0  0  0  0  0  0  0  0  0
   11.0505  -16.3409   21.1136 O   0  0  0  0  0  0  0  0  0  0  0  0
    8.7492  -16.2921   20.9855 N   0  0  0  0  0  0  0  0  0  0  0  0
    8.5397  -15.8294   22.3322 C   0  0  1  0  0  0  0  0  0  0  0  0
    7.2115  -15.1978   22.5779 C   0  0  0  0  0  0  0  0  0  0  0  0
    6.9394  -14.8019   23.9718 C   0  0  0  0  0  0  0  0  0  0  0  0
    6.3956  -15.5965   24.9726 C   0  0  0  0  0  0  0  0  0  0  0  0
    6.2843  -14.8763   26.0945 N   0  0  0  0  0  0  0  0  0  0  0  0
    6.7400  -13.6236   25.8676 C   0  0  0  0  0  0  0  0  0  0  0  0
    6.8606  -12.4998   26.6585 C   0  0  0  0  0  0  0  0  0  0  0  0
    7.3832  -11.3304   26.1510 C   0  0  0  0  0  0  0  0  0  0  0  0
    7.7969  -11.2493   24.8512 C   0  0  0  0  0  0  0  0  0  0  0  0
    7.6709  -12.3818   24.0677 C   0  0  0  0  0  0  0  0  0  0  0  0
    7.1485  -13.5704   24.5519 C   0  0  0  0  0  0  0  0  0  0  0  0
    8.8885  -16.9080   23.2935 C   0  0  0  0  0  0  0  0  0  0  0  0
    8.5183  -18.0988   23.0691 O   0  0  0  0  0  0  0  0  0  0  0  0
    9.6310  -16.6997   24.4828 N   0  0  0  0  0  0  0  0  0  0  0  0
   10.0829  -17.8119   25.2764 C   0  0  1  0  0  0  0  0  0  0  0  0
   11.5330  -18.1023   24.8793 C   0  0  0  0  0  0  0  0  0  0  0  0
   12.0536  -19.2232   25.7141 C   0  0  0  0  0  0  0  0  0  0  0  0
   13.4585  -19.6223   25.4655 C   0  0  0  0  0  0  0  0  0  0  0  0
   13.9725  -20.7043   26.3473 C   0  0  0  0  0  0  0  0  0  0  0  0
   15.3778  -20.9692   26.1762 N   0  0  0  0  0  0  0  0  0  0  0  0
    9.9976  -17.4353   26.7072 C   0  0  0  0  0  0  0  0  0  0  0  0
    9.9134  -16.2232   27.0555 O   0  0  0  0  0  0  0  0  0  0  0  0
   10.0056  -18.3831   27.7188 O   0  0  0  0  0  0  0  0  0  0  0  0
  2  3  2  0
  2  1  1  0
  4  2  1  0
  5  4  1  0
  5  6  1  0
  6  7  1  6
  8  9  2  0
  8  6  1  0
 10  8  1  0
 11 12  1  6
 11 10  1  0
 13 12  1  0
 13 14  2  0
 15 14  1  0
 16 15  1  0
 17 16  2  0
 18 17  1  0
 19 18  2  0
 19 20  1  0
 20 21  2  0
 21 16  1  0
 21 13  1  0
 22 11  1  0
 23 22  2  0
 24 22  1  0
 25 24  1  0
 25 26  1  6
 27 26  1  0
 28 29  1  0
 28 27  1  0
 30 29  1  0
 31 25  1  0
 31 33  1  0
 32 31  2  0
M  END
$$$$
