QWK.pdb
     RDKit          3D

 33 34  0  0  1  0  0  0  0  0999 V2000
    8.0784  -12.1732   16.9406 N   0  0  0  0  0  0  0  0  0  0  0  0
    7.9006  -13.3574   16.1466 C   0  0  0  0  0  0  0  0  0  0  0  0
    7.4198  -13.2614   15.0093 O   0  0  0  0  0  0  0  0  0  0  0  0
    8.2961  -14.6396   16.7258 C   0  0  0  0  0  0  0  0  0  0  0  0
    8.9146  -14.4913   18.0673 C   0  0  0  0  0  0  0  0  0  0  0  0
    9.2315  -15.7687   18.7664 C   0  0  2  0  0  0  0  0  0  0  0  0
    8.2670  -16.8210   18.5932 N   0  0  0  0  0  0  0  0  0  0  0  0
    9.3554  -15.5285   20.2461 C   0  0  0  0  0  0  0  0  0  0  0  0
   10.3416  -14.9083   20.7088 O   0  0  0  0  0  0  0  0  0  0  0  0
    8.3573  -16.0010   21.1376 N   0  0  0  0  0  0  0  0  0  0  0  0
    8.3226  -15.6924   22.5431 C   0  0  1  0  0  0  0  0  0  0  0  0
    6.9935  -15.2506   23.0545 C   0  0  0  0  0  0  0  0  0  0  0  0
    6.9187  -14.9955   24.5048 C   0  0  0  0  0  0  0  0  0  0  0  0
    6.5217  -15.8914   25.4890 C   0  0  0  0  0  0  0  0  0  0  0  0
    6.5675  -15.2848   26.6804 N   0  0  0  0  0  0  0  0  0  0  0  0
    6.9849  -14.0092   26.5161 C   0  0  0  0  0  0  0  0  0  0  0  0
    7.2133  -12.9654   27.3885 C   0  0  0  0  0  0  0  0  0  0  0  0
    7.6577  -11.7445   26.9302 C   0  0  0  0  0  0  0  0  0  0  0  0
    7.8852  -11.5319   25.5996 C   0  0  0  0  0  0  0  0  0  0  0  0
    7.6525  -12.5851   24.7343 C   0  0  0  0  0  0  0  0  0  0  0  0
    7.2050  -13.8229   25.1678 C   0  0  0  0  0  0  0  0  0  0  0  0
    8.9340  -16.8046   23.3164 C   0  0  0  0  0  0  0  0  0  0  0  0
    8.6396  -18.0051   23.0376 O   0  0  0  0  0  0  0  0  0  0  0  0
    9.8548  -16.6191   24.3780 N   0  0  0  0  0  0  0  0  0  0  0  0
   10.4418  -17.7466   25.0528 C   0  0  1  0  0  0  0  0  0  0  0  0
   11.8534  -17.9363   24.4905 C   0  0  0  0  0  0  0  0  0  0  0  0
   12.5116  -19.0742   25.1949 C   0  0  0  0  0  0  0  0  0  0  0  0
   13.9049  -19.3728   24.7893 C   0  0  0  0  0  0  0  0  0  0  0  0
   14.5400  -20.5116   25.5049 C   0  0  0  0  0  0  0  0  0  0  0  0
   15.9369  -20.6795   25.1972 N   0  0  0  0  0  0  0  0  0  0  0  0
   10.4920  -17.4530   26.5046 C   0  0  0  0  0  0  0  0  0  0  0  0
   10.5169  -16.2614   26.9254 O   0  0  0  0  0  0  0  0  0  0  0  0
   10.5132  -18.4591   27.4579 O   0  0  0  0  0  0  0  0  0  0  0  0
  2  3  2  0
  2  1  1  0
  4  2  1  0
  5  4  1  0
  5  6  1  0
  6  7  1  1
  8  9  2  0
  8  6  1  0
 10  8  1  0
 11 12  1  1
 11 10  1  0
 13 12  1  0
 13 14  2  0
 15 14  1  0
 16 15  1  0
 17 16  2  0
 18 17  1  0
 19 18  2  0
 19 20  1  0
 20 21  2  0
 21 16  1  0
 21 13  1  0
 22 11  1  0
 23 22  2  0
 24 22  1  0
 25 24  1  0
 25 26  1  6
 27 26  1  0
 28 29  1  0
 28 27  1  0
 30 29  1  0
 31 25  1  0
 31 33  1  0
 32 31  2  0
M  END
$$$$
