QWK.pdb
     RDKit          3D

 33 34  0  0  1  0  0  0  0  0999 V2000
    8.4915  -12.4560   18.9623 N   0  0  0  0  0  0  0  0  0  0  0  0
    8.1608  -13.6297   18.2023 C   0  0  0  0  0  0  0  0  0  0  0  0
    7.6826  -13.5050   17.0667 O   0  0  0  0  0  0  0  0  0  0  0  0
    8.4025  -14.9352   18.8129 C   0  0  0  0  0  0  0  0  0  0  0  0
    8.9309  -14.8272   20.1962 C   0  0  0  0  0  0  0  0  0  0  0  0
    9.4643  -16.0931   20.7741 C   0  0  2  0  0  0  0  0  0  0  0  0
    8.6426  -17.2559   20.5729 N   0  0  0  0  0  0  0  0  0  0  0  0
    9.6520  -15.9422   22.2588 C   0  0  0  0  0  0  0  0  0  0  0  0
   10.4115  -15.0562   22.7164 O   0  0  0  0  0  0  0  0  0  0  0  0
    8.9715  -16.8008   23.1610 N   0  0  0  0  0  0  0  0  0  0  0  0
    9.0803  -16.7117   24.5934 C   0  0  1  0  0  0  0  0  0  0  0  0
    7.7958  -16.4500   25.3039 C   0  0  0  0  0  0  0  0  0  0  0  0
    7.1330  -15.1738   24.9782 C   0  0  0  0  0  0  0  0  0  0  0  0
    6.2993  -14.9201   23.8968 C   0  0  0  0  0  0  0  0  0  0  0  0
    5.9100  -13.6408   23.9320 N   0  0  0  0  0  0  0  0  0  0  0  0
    6.4618  -13.0359   25.0082 C   0  0  0  0  0  0  0  0  0  0  0  0
    6.3917  -11.7557   25.5171 C   0  0  0  0  0  0  0  0  0  0  0  0
    7.0691  -11.4133   26.6669 C   0  0  0  0  0  0  0  0  0  0  0  0
    7.8291  -12.3306   27.3363 C   0  0  0  0  0  0  0  0  0  0  0  0
    7.8924  -13.6106   26.8169 C   0  0  0  0  0  0  0  0  0  0  0  0
    7.2221  -13.9819   25.6623 C   0  0  0  0  0  0  0  0  0  0  0  0
    9.8366  -17.8809   25.1131 C   0  0  0  0  0  0  0  0  0  0  0  0
    9.4117  -19.0550   24.8980 O   0  0  0  0  0  0  0  0  0  0  0  0
   11.0399  -17.7797   25.8554 N   0  0  0  0  0  0  0  0  0  0  0  0
   11.7068  -18.9568   26.3462 C   0  0  1  0  0  0  0  0  0  0  0  0
   13.1494  -18.9163   25.8344 C   0  0  0  0  0  0  0  0  0  0  0  0
   13.8921  -20.0929   26.3714 C   0  0  0  0  0  0  0  0  0  0  0  0
   15.3255  -20.1798   26.0071 C   0  0  0  0  0  0  0  0  0  0  0  0
   16.0370  -21.3780   26.5268 C   0  0  0  0  0  0  0  0  0  0  0  0
   17.3627  -21.5407   25.9879 N   0  0  0  0  0  0  0  0  0  0  0  0
   11.6763  -18.9324   27.8277 C   0  0  0  0  0  0  0  0  0  0  0  0
   11.4968  -17.8502   28.4556 O   0  0  0  0  0  0  0  0  0  0  0  0
   11.8408  -20.0815   28.5856 O   0  0  0  0  0  0  0  0  0  0  0  0
  2  3  2  0
  2  1  1  0
  4  2  1  0
  5  4  1  0
  5  6  1  0
  6  7  1  1
  8  9  2  0
  8  6  1  0
 10  8  1  0
 11 12  1  1
 11 10  1  0
 13 12  1  0
 13 14  2  0
 15 14  1  0
 16 15  1  0
 17 16  2  0
 18 17  1  0
 19 18  2  0
 19 20  1  0
 20 21  2  0
 21 16  1  0
 21 13  1  0
 22 11  1  0
 23 22  2  0
 24 22  1  0
 25 24  1  0
 25 26  1  1
 27 26  1  0
 28 29  1  0
 28 27  1  0
 30 29  1  0
 31 25  1  0
 31 33  1  0
 32 31  2  0
M  END
$$$$
