QWK.pdb
     RDKit          3D

 33 34  0  0  1  0  0  0  0  0999 V2000
    9.1201  -12.7980   18.0134 N   0  0  0  0  0  0  0  0  0  0  0  0
    8.2369  -13.9096   17.7926 C   0  0  0  0  0  0  0  0  0  0  0  0
    7.5996  -13.9798   16.7330 O   0  0  0  0  0  0  0  0  0  0  0  0
    8.1251  -14.9186   18.8439 C   0  0  0  0  0  0  0  0  0  0  0  0
    8.9946  -14.6234   20.0106 C   0  0  0  0  0  0  0  0  0  0  0  0
    9.6181  -15.8130   20.6564 C   0  0  2  0  0  0  0  0  0  0  0  0
    8.8744  -17.0381   20.5386 N   0  0  0  0  0  0  0  0  0  0  0  0
    9.8111  -15.5586   22.1263 C   0  0  0  0  0  0  0  0  0  0  0  0
   10.5147  -14.5979   22.5179 O   0  0  0  0  0  0  0  0  0  0  0  0
    9.1990  -16.4028   23.0890 N   0  0  0  0  0  0  0  0  0  0  0  0
    9.3105  -16.2140   24.5115 C   0  0  1  0  0  0  0  0  0  0  0  0
    8.0099  -16.1302   25.2359 C   0  0  0  0  0  0  0  0  0  0  0  0
    7.1931  -14.9369   24.9482 C   0  0  0  0  0  0  0  0  0  0  0  0
    6.2808  -14.7816   23.9127 C   0  0  0  0  0  0  0  0  0  0  0  0
    5.7539  -13.5533   23.9711 N   0  0  0  0  0  0  0  0  0  0  0  0
    6.2906  -12.8868   25.0181 C   0  0  0  0  0  0  0  0  0  0  0  0
    6.1052  -11.6205   25.5327 C   0  0  0  0  0  0  0  0  0  0  0  0
    6.7997  -11.2007   26.6461 C   0  0  0  0  0  0  0  0  0  0  0  0
    7.6912  -12.0252   27.2727 C   0  0  0  0  0  0  0  0  0  0  0  0
    7.8692  -13.2921   26.7479 C   0  0  0  0  0  0  0  0  0  0  0  0
    7.1847  -13.7400   25.6293 C   0  0  0  0  0  0  0  0  0  0  0  0
   10.2598  -17.2081   25.0769 C   0  0  0  0  0  0  0  0  0  0  0  0
   10.5325  -17.1890   26.3141 O   0  0  0  0  0  0  0  0  0  0  0  0
   10.9048  -18.2120   24.3118 N   0  0  0  0  0  0  0  0  0  0  0  0
   11.8026  -19.1508   24.9312 C   0  0  1  0  0  0  0  0  0  0  0  0
   13.2267  -18.7665   24.5201 C   0  0  0  0  0  0  0  0  0  0  0  0
   14.1988  -19.4926   25.3873 C   0  0  0  0  0  0  0  0  0  0  0  0
   14.7367  -20.7609   24.8423 C   0  0  0  0  0  0  0  0  0  0  0  0
   15.7720  -21.4199   25.6826 C   0  0  0  0  0  0  0  0  0  0  0  0
   16.3051  -22.6252   25.1017 N   0  0  0  0  0  0  0  0  0  0  0  0
   11.6396  -19.0589   26.4014 C   0  0  0  0  0  0  0  0  0  0  0  0
   11.5412  -17.9368   26.9748 O   0  0  0  0  0  0  0  0  0  0  0  0
   11.5876  -20.1856   27.2073 O   0  0  0  0  0  0  0  0  0  0  0  0
  2  3  2  0
  2  1  1  0
  4  2  1  0
  5  4  1  0
  5  6  1  0
  6  7  1  1
  8  9  2  0
  8  6  1  0
 10  8  1  0
 11 12  1  1
 11 10  1  0
 13 12  1  0
 13 14  2  0
 15 14  1  0
 16 15  1  0
 17 16  2  0
 18 17  1  0
 19 18  2  0
 19 20  1  0
 20 21  2  0
 21 16  1  0
 21 13  1  0
 22 11  1  0
 23 22  2  0
 24 22  1  0
 25 24  1  0
 25 26  1  1
 27 26  1  0
 28 29  1  0
 28 27  1  0
 30 29  1  0
 31 25  1  0
 31 33  1  0
 32 31  2  0
M  END
$$$$
