QWK.pdb
     RDKit          3D

 33 34  0  0  1  0  0  0  0  0999 V2000
    8.7551  -12.5563   18.8912 N   0  0  0  0  0  0  0  0  0  0  0  0
    7.9802  -13.5926   18.2667 C   0  0  0  0  0  0  0  0  0  0  0  0
    7.6126  -13.4541   17.0921 O   0  0  0  0  0  0  0  0  0  0  0  0
    7.6523  -14.7773   19.0571 C   0  0  0  0  0  0  0  0  0  0  0  0
    8.2774  -14.7538   20.4036 C   0  0  0  0  0  0  0  0  0  0  0  0
    8.7147  -16.0795   20.9251 C   0  0  2  0  0  0  0  0  0  0  0  0
    7.7040  -17.1023   20.9321 N   0  0  0  0  0  0  0  0  0  0  0  0
    9.2049  -15.9397   22.3403 C   0  0  0  0  0  0  0  0  0  0  0  0
   10.0818  -15.0915   22.6281 O   0  0  0  0  0  0  0  0  0  0  0  0
    8.6806  -16.7661   23.3681 N   0  0  0  0  0  0  0  0  0  0  0  0
    9.1224  -16.7250   24.7373 C   0  0  1  0  0  0  0  0  0  0  0  0
    8.0455  -16.4646   25.7352 C   0  0  0  0  0  0  0  0  0  0  0  0
    7.1851  -15.2996   25.4588 C   0  0  0  0  0  0  0  0  0  0  0  0
    5.9932  -15.2946   24.7459 C   0  0  0  0  0  0  0  0  0  0  0  0
    5.5174  -14.0454   24.6932 N   0  0  0  0  0  0  0  0  0  0  0  0
    6.3603  -13.2186   25.3524 C   0  0  0  0  0  0  0  0  0  0  0  0
    6.3527  -11.8633   25.6091 C   0  0  0  0  0  0  0  0  0  0  0  0
    7.3651  -11.2751   26.3352 C   0  0  0  0  0  0  0  0  0  0  0  0
    8.4050  -12.0159   26.8220 C   0  0  0  0  0  0  0  0  0  0  0  0
    8.4024  -13.3734   26.5583 C   0  0  0  0  0  0  0  0  0  0  0  0
    7.3977  -13.9907   25.8305 C   0  0  0  0  0  0  0  0  0  0  0  0
    9.9509  -17.9228   25.0336 C   0  0  0  0  0  0  0  0  0  0  0  0
    9.5133  -19.0788   24.7547 O   0  0  0  0  0  0  0  0  0  0  0  0
   11.2387  -17.8694   25.6234 N   0  0  0  0  0  0  0  0  0  0  0  0
   11.9538  -19.0754   25.9476 C   0  0  1  0  0  0  0  0  0  0  0  0
   13.1848  -19.1396   25.0392 C   0  0  0  0  0  0  0  0  0  0  0  0
   14.1682  -18.1062   25.4744 C   0  0  0  0  0  0  0  0  0  0  0  0
   15.4329  -18.0460   24.7050 C   0  0  0  0  0  0  0  0  0  0  0  0
   16.3862  -16.9904   25.1399 C   0  0  0  0  0  0  0  0  0  0  0  0
   17.6065  -16.9645   24.3753 N   0  0  0  0  0  0  0  0  0  0  0  0
   12.3575  -19.0153   27.3723 C   0  0  0  0  0  0  0  0  0  0  0  0
   12.2255  -17.9502   28.0400 O   0  0  0  0  0  0  0  0  0  0  0  0
   12.8918  -20.1111   28.0321 O   0  0  0  0  0  0  0  0  0  0  0  0
  2  3  2  0
  2  1  1  0
  4  2  1  0
  5  4  1  0
  5  6  1  0
  6  7  1  1
  8  9  2  0
  8  6  1  0
 10  8  1  0
 11 12  1  1
 11 10  1  0
 13 12  1  0
 13 14  2  0
 15 14  1  0
 16 15  1  0
 17 16  2  0
 18 17  1  0
 19 18  2  0
 19 20  1  0
 20 21  2  0
 21 16  1  0
 21 13  1  0
 22 11  1  0
 23 22  2  0
 24 22  1  0
 25 24  1  0
 25 26  1  6
 27 26  1  0
 28 29  1  0
 28 27  1  0
 30 29  1  0
 31 25  1  0
 31 33  1  0
 32 31  2  0
M  END
$$$$
