QWK.pdb
     RDKit          3D

 33 34  0  0  1  0  0  0  0  0999 V2000
    7.3629  -12.1773   19.2733 N   0  0  0  0  0  0  0  0  0  0  0  0
    7.9826  -13.3906   18.8171 C   0  0  0  0  0  0  0  0  0  0  0  0
    8.8776  -13.3333   17.9630 O   0  0  0  0  0  0  0  0  0  0  0  0
    7.5202  -14.6550   19.3857 C   0  0  0  0  0  0  0  0  0  0  0  0
    7.7944  -14.7584   20.8412 C   0  0  0  0  0  0  0  0  0  0  0  0
    8.2402  -16.1006   21.3107 C   0  0  2  0  0  0  0  0  0  0  0  0
    7.1910  -17.0643   21.5063 N   0  0  0  0  0  0  0  0  0  0  0  0
    8.9659  -15.9723   22.6220 C   0  0  0  0  0  0  0  0  0  0  0  0
    9.9157  -15.1638   22.7462 O   0  0  0  0  0  0  0  0  0  0  0  0
    8.5844  -16.7649   23.7358 N   0  0  0  0  0  0  0  0  0  0  0  0
    9.1728  -16.6497   25.0444 C   0  0  1  0  0  0  0  0  0  0  0  0
    8.2038  -16.3796   26.1450 C   0  0  0  0  0  0  0  0  0  0  0  0
    7.2485  -15.2831   25.9016 C   0  0  0  0  0  0  0  0  0  0  0  0
    5.9559  -15.3987   25.4072 C   0  0  0  0  0  0  0  0  0  0  0  0
    5.4121  -14.1805   25.3084 N   0  0  0  0  0  0  0  0  0  0  0  0
    6.3078  -13.2568   25.7243 C   0  0  0  0  0  0  0  0  0  0  0  0
    6.2709  -11.8826   25.8374 C   0  0  0  0  0  0  0  0  0  0  0  0
    7.3575  -11.1825   26.3146 C   0  0  0  0  0  0  0  0  0  0  0  0
    8.5020  -11.8281   26.6895 C   0  0  0  0  0  0  0  0  0  0  0  0
    8.5278  -13.2056   26.5715 C   0  0  0  0  0  0  0  0  0  0  0  0
    7.4501  -13.9345   26.0944 C   0  0  0  0  0  0  0  0  0  0  0  0
   10.0715  -17.8068   25.2943 C   0  0  0  0  0  0  0  0  0  0  0  0
    9.6195  -18.9877   25.2117 O   0  0  0  0  0  0  0  0  0  0  0  0
   11.4438  -17.6866   25.6280 N   0  0  0  0  0  0  0  0  0  0  0  0
   12.2205  -18.8427   25.9901 C   0  0  1  0  0  0  0  0  0  0  0  0
   13.6143  -18.6713   25.3797 C   0  0  0  0  0  0  0  0  0  0  0  0
   13.4812  -18.4534   23.9102 C   0  0  0  0  0  0  0  0  0  0  0  0
   14.7452  -18.4340   23.1377 C   0  0  0  0  0  0  0  0  0  0  0  0
   14.5992  -18.0925   21.6975 C   0  0  0  0  0  0  0  0  0  0  0  0
   15.8535  -18.0084   20.9945 N   0  0  0  0  0  0  0  0  0  0  0  0
   12.3016  -18.9117   27.4683 C   0  0  0  0  0  0  0  0  0  0  0  0
   11.8560  -17.9725   28.1874 O   0  0  0  0  0  0  0  0  0  0  0  0
   12.8625  -19.9965   28.1242 O   0  0  0  0  0  0  0  0  0  0  0  0
  2  3  2  0
  2  1  1  0
  4  2  1  0
  5  4  1  0
  5  6  1  0
  6  7  1  1
  8  9  2  0
  8  6  1  0
 10  8  1  0
 11 12  1  1
 11 10  1  0
 13 12  1  0
 13 14  2  0
 15 14  1  0
 16 15  1  0
 17 16  2  0
 18 17  1  0
 19 18  2  0
 19 20  1  0
 20 21  2  0
 21 16  1  0
 21 13  1  0
 22 11  1  0
 23 22  2  0
 24 22  1  0
 25 24  1  0
 25 26  1  6
 27 26  1  0
 28 29  1  0
 28 27  1  0
 30 29  1  0
 31 25  1  0
 31 33  1  0
 32 31  2  0
M  END
$$$$
