QWK.pdb
     RDKit          3D

 33 34  0  0  1  0  0  0  0  0999 V2000
    8.1621  -12.5750   16.2350 N   0  0  0  0  0  0  0  0  0  0  0  0
    7.2857  -13.7133   16.2149 C   0  0  0  0  0  0  0  0  0  0  0  0
    6.3303  -13.7324   15.4271 O   0  0  0  0  0  0  0  0  0  0  0  0
    7.5617  -14.8102   17.1403 C   0  0  0  0  0  0  0  0  0  0  0  0
    8.7430  -14.5458   17.9999 C   0  0  0  0  0  0  0  0  0  0  0  0
    9.2324  -15.7138   18.7854 C   0  0  2  0  0  0  0  0  0  0  0  0
    8.4327  -16.9044   18.6814 N   0  0  0  0  0  0  0  0  0  0  0  0
    9.3010  -15.3596   20.2457 C   0  0  0  0  0  0  0  0  0  0  0  0
   10.0752  -14.4584   20.6453 O   0  0  0  0  0  0  0  0  0  0  0  0
    8.4901  -16.0413   21.1902 N   0  0  0  0  0  0  0  0  0  0  0  0
    8.4357  -15.7118   22.5902 C   0  0  1  0  0  0  0  0  0  0  0  0
    7.0610  -15.5250   23.1367 C   0  0  0  0  0  0  0  0  0  0  0  0
    6.9816  -15.2089   24.5746 C   0  0  0  0  0  0  0  0  0  0  0  0
    6.6753  -16.0879   25.6053 C   0  0  0  0  0  0  0  0  0  0  0  0
    6.6825  -15.4239   26.7665 N   0  0  0  0  0  0  0  0  0  0  0  0
    6.9860  -14.1264   26.5368 C   0  0  0  0  0  0  0  0  0  0  0  0
    7.1336  -13.0267   27.3565 C   0  0  0  0  0  0  0  0  0  0  0  0
    7.4653  -11.7953   26.8352 C   0  0  0  0  0  0  0  0  0  0  0  0
    7.6577  -11.6271   25.4928 C   0  0  0  0  0  0  0  0  0  0  0  0
    7.5068  -12.7362   24.6808 C   0  0  0  0  0  0  0  0  0  0  0  0
    7.1732  -13.9859   25.1781 C   0  0  0  0  0  0  0  0  0  0  0  0
    9.2742  -16.6649   23.3631 C   0  0  0  0  0  0  0  0  0  0  0  0
    9.0765  -17.9119   23.2555 O   0  0  0  0  0  0  0  0  0  0  0  0
   10.3157  -16.2724   24.2409 N   0  0  0  0  0  0  0  0  0  0  0  0
   11.1110  -17.2542   24.9299 C   0  0  1  0  0  0  0  0  0  0  0  0
   12.5071  -16.6582   25.1302 C   0  0  0  0  0  0  0  0  0  0  0  0
   13.3759  -17.6640   25.8070 C   0  0  0  0  0  0  0  0  0  0  0  0
   14.8221  -17.5910   25.4941 C   0  0  0  0  0  0  0  0  0  0  0  0
   15.6789  -18.5483   26.2436 C   0  0  0  0  0  0  0  0  0  0  0  0
   15.9136  -19.7840   25.5419 N   0  0  0  0  0  0  0  0  0  0  0  0
   10.4736  -17.5446   26.2359 C   0  0  0  0  0  0  0  0  0  0  0  0
    9.8650  -16.6407   26.8765 O   0  0  0  0  0  0  0  0  0  0  0  0
   10.5139  -18.8060   26.8096 O   0  0  0  0  0  0  0  0  0  0  0  0
  2  3  2  0
  2  1  1  0
  4  2  1  0
  5  4  1  0
  5  6  1  0
  6  7  1  1
  8  9  2  0
  8  6  1  0
 10  8  1  0
 11 12  1  1
 11 10  1  0
 13 12  1  0
 13 14  2  0
 15 14  1  0
 16 15  1  0
 17 16  2  0
 18 17  1  0
 19 18  2  0
 19 20  1  0
 20 21  2  0
 21 16  1  0
 21 13  1  0
 22 11  1  0
 23 22  2  0
 24 22  1  0
 25 24  1  0
 25 26  1  1
 27 26  1  0
 28 29  1  0
 28 27  1  0
 30 29  1  0
 31 25  1  0
 31 33  1  0
 32 31  2  0
M  END
$$$$
