QWK.pdb
     RDKit          3D

 33 34  0  0  1  0  0  0  0  0999 V2000
    7.9486  -12.2864   17.7851 N   0  0  0  0  0  0  0  0  0  0  0  0
    7.8704  -13.6946   18.0597 C   0  0  0  0  0  0  0  0  0  0  0  0
    8.4913  -14.4903   17.3419 O   0  0  0  0  0  0  0  0  0  0  0  0
    7.0474  -14.1311   19.1856 C   0  0  0  0  0  0  0  0  0  0  0  0
    7.8253  -14.2569   20.4439 C   0  0  0  0  0  0  0  0  0  0  0  0
    8.1380  -15.6528   20.8615 C   0  0  2  0  0  0  0  0  0  0  0  0
    6.9973  -16.5019   21.0746 N   0  0  0  0  0  0  0  0  0  0  0  0
    8.9212  -15.6426   22.1457 C   0  0  0  0  0  0  0  0  0  0  0  0
    9.9296  -14.9085   22.2692 O   0  0  0  0  0  0  0  0  0  0  0  0
    8.5284  -16.4641   23.2344 N   0  0  0  0  0  0  0  0  0  0  0  0
    9.2198  -16.5129   24.4958 C   0  0  1  0  0  0  0  0  0  0  0  0
    8.3430  -16.3915   25.6957 C   0  0  0  0  0  0  0  0  0  0  0  0
    7.3577  -15.2952   25.6597 C   0  0  0  0  0  0  0  0  0  0  0  0
    6.0157  -15.3920   25.3156 C   0  0  0  0  0  0  0  0  0  0  0  0
    5.4555  -14.1791   25.3835 N   0  0  0  0  0  0  0  0  0  0  0  0
    6.3883  -13.2773   25.7643 C   0  0  0  0  0  0  0  0  0  0  0  0
    6.3558  -11.9176   25.9942 C   0  0  0  0  0  0  0  0  0  0  0  0
    7.4870  -11.2404   26.3943 C   0  0  0  0  0  0  0  0  0  0  0  0
    8.6729  -11.8949   26.5750 C   0  0  0  0  0  0  0  0  0  0  0  0
    8.6938  -13.2576   26.3413 C   0  0  0  0  0  0  0  0  0  0  0  0
    7.5716  -13.9634   25.9378 C   0  0  0  0  0  0  0  0  0  0  0  0
   10.1312  -17.6866   24.5236 C   0  0  0  0  0  0  0  0  0  0  0  0
    9.6601  -18.8559   24.3961 O   0  0  0  0  0  0  0  0  0  0  0  0
   11.5364  -17.5950   24.6858 N   0  0  0  0  0  0  0  0  0  0  0  0
   12.3526  -18.7789   24.7430 C   0  0  1  0  0  0  0  0  0  0  0  0
   13.7334  -18.4137   24.1912 C   0  0  0  0  0  0  0  0  0  0  0  0
   14.6293  -19.6020   24.2895 C   0  0  0  0  0  0  0  0  0  0  0  0
   15.9940  -19.4361   23.7374 C   0  0  0  0  0  0  0  0  0  0  0  0
   16.8215  -20.6719   23.7185 C   0  0  0  0  0  0  0  0  0  0  0  0
   18.1525  -20.4673   23.2076 N   0  0  0  0  0  0  0  0  0  0  0  0
   12.4522  -19.2146   26.1560 C   0  0  0  0  0  0  0  0  0  0  0  0
   12.7864  -20.3981   26.4483 O   0  0  0  0  0  0  0  0  0  0  0  0
   12.1875  -18.3552   27.2110 O   0  0  0  0  0  0  0  0  0  0  0  0
  2  3  2  0
  2  1  1  0
  4  2  1  0
  5  4  1  0
  5  6  1  0
  6  7  1  1
  8  9  2  0
  8  6  1  0
 10  8  1  0
 11 12  1  1
 11 10  1  0
 13 12  1  0
 13 14  2  0
 15 14  1  0
 16 15  1  0
 17 16  2  0
 18 17  1  0
 19 18  2  0
 19 20  1  0
 20 21  2  0
 21 16  1  0
 21 13  1  0
 22 11  1  0
 23 22  2  0
 24 22  1  0
 25 24  1  0
 25 26  1  1
 27 26  1  0
 28 29  1  0
 28 27  1  0
 30 29  1  0
 31 25  1  0
 31 33  1  0
 32 31  2  0
M  END
$$$$
