QWK.pdb
     RDKit          3D

 33 34  0  0  1  0  0  0  0  0999 V2000
    8.6875  -12.5660   18.9492 N   0  0  0  0  0  0  0  0  0  0  0  0
    8.2402  -13.6859   18.1682 C   0  0  0  0  0  0  0  0  0  0  0  0
    7.9500  -13.5195   16.9757 O   0  0  0  0  0  0  0  0  0  0  0  0
    8.1420  -14.9875   18.8255 C   0  0  0  0  0  0  0  0  0  0  0  0
    8.5399  -14.9345   20.2549 C   0  0  0  0  0  0  0  0  0  0  0  0
    8.9298  -16.2414   20.8555 C   0  0  2  0  0  0  0  0  0  0  0  0
    7.9119  -17.2569   20.8341 N   0  0  0  0  0  0  0  0  0  0  0  0
    9.3251  -16.0492   22.2941 C   0  0  0  0  0  0  0  0  0  0  0  0
   10.2364  -15.2450   22.6006 O   0  0  0  0  0  0  0  0  0  0  0  0
    8.6711  -16.7757   23.3230 N   0  0  0  0  0  0  0  0  0  0  0  0
    8.9877  -16.6514   24.7216 C   0  0  1  0  0  0  0  0  0  0  0  0
    7.8204  -16.3685   25.6052 C   0  0  0  0  0  0  0  0  0  0  0  0
    7.0685  -15.1381   25.2975 C   0  0  0  0  0  0  0  0  0  0  0  0
    5.9789  -15.0188   24.4447 C   0  0  0  0  0  0  0  0  0  0  0  0
    5.5841  -13.7411   24.4113 N   0  0  0  0  0  0  0  0  0  0  0  0
    6.3814  -13.0064   25.2195 C   0  0  0  0  0  0  0  0  0  0  0  0
    6.4170  -11.6694   25.5569 C   0  0  0  0  0  0  0  0  0  0  0  0
    7.3603  -11.1869   26.4376 C   0  0  0  0  0  0  0  0  0  0  0  0
    8.2870  -12.0174   27.0021 C   0  0  0  0  0  0  0  0  0  0  0  0
    8.2421  -13.3555   26.6563 C   0  0  0  0  0  0  0  0  0  0  0  0
    7.3050  -13.8675   25.7731 C   0  0  0  0  0  0  0  0  0  0  0  0
    9.8128  -17.8094   25.1544 C   0  0  0  0  0  0  0  0  0  0  0  0
    9.5140  -18.9783   24.7671 O   0  0  0  0  0  0  0  0  0  0  0  0
   10.9489  -17.7027   25.9952 N   0  0  0  0  0  0  0  0  0  0  0  0
   11.6289  -18.8781   26.4716 C   0  0  1  0  0  0  0  0  0  0  0  0
   13.1050  -18.7443   26.0870 C   0  0  0  0  0  0  0  0  0  0  0  0
   13.5398  -19.9820   25.3776 C   0  0  0  0  0  0  0  0  0  0  0  0
   14.9693  -20.0445   24.9936 C   0  0  0  0  0  0  0  0  0  0  0  0
   15.3631  -21.2536   24.2220 C   0  0  0  0  0  0  0  0  0  0  0  0
   16.6976  -21.1857   23.6845 N   0  0  0  0  0  0  0  0  0  0  0  0
   11.4760  -18.9466   27.9441 C   0  0  0  0  0  0  0  0  0  0  0  0
   11.1269  -17.9295   28.6085 O   0  0  0  0  0  0  0  0  0  0  0  0
   11.7052  -20.1152   28.6536 O   0  0  0  0  0  0  0  0  0  0  0  0
  2  3  2  0
  2  1  1  0
  4  2  1  0
  5  4  1  0
  5  6  1  0
  6  7  1  1
  8  9  2  0
  8  6  1  0
 10  8  1  0
 11 12  1  1
 11 10  1  0
 13 12  1  0
 13 14  2  0
 15 14  1  0
 16 15  1  0
 17 16  2  0
 18 17  1  0
 19 18  2  0
 19 20  1  0
 20 21  2  0
 21 16  1  0
 21 13  1  0
 22 11  1  0
 23 22  2  0
 24 22  1  0
 25 24  1  0
 25 26  1  1
 27 26  1  0
 28 29  1  0
 28 27  1  0
 30 29  1  0
 31 25  1  0
 31 33  1  0
 32 31  2  0
M  END
$$$$
