QWK.pdb
     RDKit          3D

 33 34  0  0  1  0  0  0  0  0999 V2000
    7.8997  -12.8061   19.0440 N   0  0  0  0  0  0  0  0  0  0  0  0
    7.5393  -14.0751   18.4747 C   0  0  0  0  0  0  0  0  0  0  0  0
    7.0287  -14.1135   17.3470 O   0  0  0  0  0  0  0  0  0  0  0  0
    7.7905  -15.2793   19.2638 C   0  0  0  0  0  0  0  0  0  0  0  0
    8.3804  -14.9762   20.5922 C   0  0  0  0  0  0  0  0  0  0  0  0
    9.0699  -16.1176   21.2574 C   0  0  2  0  0  0  0  0  0  0  0  0
    8.2282  -17.2338   21.5939 N   0  0  0  0  0  0  0  0  0  0  0  0
    9.7144  -15.6553   22.5355 C   0  0  0  0  0  0  0  0  0  0  0  0
   10.5262  -14.7003   22.5286 O   0  0  0  0  0  0  0  0  0  0  0  0
    9.4116  -16.2945   23.7660 N   0  0  0  0  0  0  0  0  0  0  0  0
    9.9478  -15.8863   25.0378 C   0  0  1  0  0  0  0  0  0  0  0  0
    8.9850  -15.9548   26.1743 C   0  0  0  0  0  0  0  0  0  0  0  0
    7.7108  -15.2395   25.9774 C   0  0  0  0  0  0  0  0  0  0  0  0
    6.5063  -15.7846   25.5523 C   0  0  0  0  0  0  0  0  0  0  0  0
    5.5869  -14.8158   25.4776 N   0  0  0  0  0  0  0  0  0  0  0  0
    6.1468  -13.6402   25.8421 C   0  0  0  0  0  0  0  0  0  0  0  0
    5.6641  -12.3526   25.9516 C   0  0  0  0  0  0  0  0  0  0  0  0
    6.4806  -11.3239   26.3680 C   0  0  0  0  0  0  0  0  0  0  0  0
    7.7908  -11.5486   26.6845 C   0  0  0  0  0  0  0  0  0  0  0  0
    8.2639  -12.8429   26.5708 C   0  0  0  0  0  0  0  0  0  0  0  0
    7.4652  -13.8959   26.1540 C   0  0  0  0  0  0  0  0  0  0  0  0
   11.2355  -16.5853   25.2874 C   0  0  0  0  0  0  0  0  0  0  0  0
   12.3281  -15.9509   25.1910 O   0  0  0  0  0  0  0  0  0  0  0  0
   11.3387  -17.9546   25.6388 N   0  0  0  0  0  0  0  0  0  0  0  0
   12.6132  -18.5418   25.9578 C   0  0  1  0  0  0  0  0  0  0  0  0
   12.3438  -19.8928   26.6263 C   0  0  0  0  0  0  0  0  0  0  0  0
   11.5807  -19.6706   27.8882 C   0  0  0  0  0  0  0  0  0  0  0  0
   11.2412  -20.8847   28.6664 C   0  0  0  0  0  0  0  0  0  0  0  0
   10.4045  -20.6474   29.8729 C   0  0  0  0  0  0  0  0  0  0  0  0
   10.0241  -21.8558   30.5581 N   0  0  0  0  0  0  0  0  0  0  0  0
   13.3764  -18.7230   24.7004 C   0  0  0  0  0  0  0  0  0  0  0  0
   14.6403  -18.7059   24.7000 O   0  0  0  0  0  0  0  0  0  0  0  0
   12.7480  -18.9181   23.4804 O   0  0  0  0  0  0  0  0  0  0  0  0
  2  3  2  0
  2  1  1  0
  4  2  1  0
  5  4  1  0
  5  6  1  0
  6  7  1  1
  8  9  2  0
  8  6  1  0
 10  8  1  0
 11 12  1  1
 11 10  1  0
 13 12  1  0
 13 14  2  0
 15 14  1  0
 16 15  1  0
 17 16  2  0
 18 17  1  0
 19 18  2  0
 19 20  1  0
 20 21  2  0
 21 16  1  0
 21 13  1  0
 22 11  1  0
 23 22  2  0
 24 22  1  0
 25 24  1  0
 25 26  1  6
 27 26  1  0
 28 29  1  0
 28 27  1  0
 30 29  1  0
 31 25  1  0
 31 33  1  0
 32 31  2  0
M  END
$$$$
