QWK.pdb
     RDKit          3D

 33 34  0  0  1  0  0  0  0  0999 V2000
    9.1200  -13.0790   17.7098 N   0  0  0  0  0  0  0  0  0  0  0  0
    7.8078  -13.5911   17.9930 C   0  0  0  0  0  0  0  0  0  0  0  0
    6.8228  -13.0789   17.4440 O   0  0  0  0  0  0  0  0  0  0  0  0
    7.6920  -14.7051   18.9318 C   0  0  0  0  0  0  0  0  0  0  0  0
    9.0038  -15.1138   19.4942 C   0  0  0  0  0  0  0  0  0  0  0  0
    8.9631  -16.2804   20.4207 C   0  0  2  0  0  0  0  0  0  0  0  0
    7.6627  -16.6106   20.9381 N   0  0  0  0  0  0  0  0  0  0  0  0
    9.8538  -16.0275   21.6061 C   0  0  0  0  0  0  0  0  0  0  0  0
   11.0703  -15.7724   21.4439 O   0  0  0  0  0  0  0  0  0  0  0  0
    9.3284  -16.0742   22.9237 N   0  0  0  0  0  0  0  0  0  0  0  0
   10.1205  -15.8976   24.1124 C   0  0  1  0  0  0  0  0  0  0  0  0
    9.7949  -14.6783   24.9065 C   0  0  0  0  0  0  0  0  0  0  0  0
    8.3799  -14.5242   25.2911 C   0  0  0  0  0  0  0  0  0  0  0  0
    7.4035  -15.5118   25.2884 C   0  0  0  0  0  0  0  0  0  0  0  0
    6.2402  -14.9815   25.6823 N   0  0  0  0  0  0  0  0  0  0  0  0
    6.4160  -13.6673   25.9477 C   0  0  0  0  0  0  0  0  0  0  0  0
    5.5735  -12.6663   26.3846 C   0  0  0  0  0  0  0  0  0  0  0  0
    6.0402  -11.3853   26.5834 C   0  0  0  0  0  0  0  0  0  0  0  0
    7.3497  -11.0691   26.3541 C   0  0  0  0  0  0  0  0  0  0  0  0
    8.1850  -12.0803   25.9160 C   0  0  0  0  0  0  0  0  0  0  0  0
    7.7422  -13.3767   25.7072 C   0  0  0  0  0  0  0  0  0  0  0  0
   10.1264  -17.1560   24.9032 C   0  0  0  0  0  0  0  0  0  0  0  0
    9.1129  -17.9164   24.8888 O   0  0  0  0  0  0  0  0  0  0  0  0
   11.2176  -17.5869   25.6986 N   0  0  0  0  0  0  0  0  0  0  0  0
   11.2401  -18.9078   26.2694 C   0  0  1  0  0  0  0  0  0  0  0  0
   12.5736  -19.5540   25.8832 C   0  0  0  0  0  0  0  0  0  0  0  0
   12.6603  -20.9063   26.5062 C   0  0  0  0  0  0  0  0  0  0  0  0
   13.8329  -21.7262   26.1221 C   0  0  0  0  0  0  0  0  0  0  0  0
   13.9137  -23.0583   26.7788 C   0  0  0  0  0  0  0  0  0  0  0  0
   13.2362  -24.1015   26.0528 N   0  0  0  0  0  0  0  0  0  0  0  0
   11.1243  -18.7869   27.7419 C   0  0  0  0  0  0  0  0  0  0  0  0
   10.7761  -19.7751   28.4490 O   0  0  0  0  0  0  0  0  0  0  0  0
   11.3895  -17.5990   28.4053 O   0  0  0  0  0  0  0  0  0  0  0  0
  2  3  2  0
  2  1  1  0
  4  2  1  0
  5  4  1  0
  5  6  1  0
  6  7  1  1
  8  9  2  0
  8  6  1  0
 10  8  1  0
 11 12  1  1
 11 10  1  0
 13 12  1  0
 13 14  2  0
 15 14  1  0
 16 15  1  0
 17 16  2  0
 18 17  1  0
 19 18  2  0
 19 20  1  0
 20 21  2  0
 21 16  1  0
 21 13  1  0
 22 11  1  0
 23 22  2  0
 24 22  1  0
 25 24  1  0
 25 26  1  1
 27 26  1  0
 28 29  1  0
 28 27  1  0
 30 29  1  0
 31 25  1  0
 31 33  1  0
 32 31  2  0
M  END
$$$$
