QWK.pdb
     RDKit          3D

 33 34  0  0  1  0  0  0  0  0999 V2000
    8.3154  -12.5261   18.3464 N   0  0  0  0  0  0  0  0  0  0  0  0
    7.5442  -13.7114   18.6007 C   0  0  0  0  0  0  0  0  0  0  0  0
    7.2527  -14.4618   17.6595 O   0  0  0  0  0  0  0  0  0  0  0  0
    7.1289  -13.9799   19.9759 C   0  0  0  0  0  0  0  0  0  0  0  0
    8.2778  -14.0514   20.9136 C   0  0  0  0  0  0  0  0  0  0  0  0
    8.7642  -15.4263   21.2200 C   0  0  2  0  0  0  0  0  0  0  0  0
    7.7973  -16.4755   21.0413 N   0  0  0  0  0  0  0  0  0  0  0  0
    9.2311  -15.5007   22.6479 C   0  0  0  0  0  0  0  0  0  0  0  0
   10.0371  -14.6527   23.0979 O   0  0  0  0  0  0  0  0  0  0  0  0
    8.7650  -16.5320   23.5043 N   0  0  0  0  0  0  0  0  0  0  0  0
    9.0890  -16.6234   24.9038 C   0  0  1  0  0  0  0  0  0  0  0  0
    7.9289  -16.4636   25.8268 C   0  0  0  0  0  0  0  0  0  0  0  0
    7.1421  -15.2282   25.6575 C   0  0  0  0  0  0  0  0  0  0  0  0
    5.9356  -15.0947   24.9828 C   0  0  0  0  0  0  0  0  0  0  0  0
    5.5436  -13.8166   25.0309 N   0  0  0  0  0  0  0  0  0  0  0  0
    6.4565  -13.0955   25.7201 C   0  0  0  0  0  0  0  0  0  0  0  0
    6.5466  -11.7642   26.0701 C   0  0  0  0  0  0  0  0  0  0  0  0
    7.6143  -11.2965   26.8046 C   0  0  0  0  0  0  0  0  0  0  0  0
    8.6140  -12.1363   27.2076 C   0  0  0  0  0  0  0  0  0  0  0  0
    8.5135  -13.4685   26.8508 C   0  0  0  0  0  0  0  0  0  0  0  0
    7.4515  -13.9656   26.1124 C   0  0  0  0  0  0  0  0  0  0  0  0
    9.9017  -17.8427   25.1522 C   0  0  0  0  0  0  0  0  0  0  0  0
    9.3658  -18.9877   25.0674 O   0  0  0  0  0  0  0  0  0  0  0  0
   11.2790  -17.8223   25.4869 N   0  0  0  0  0  0  0  0  0  0  0  0
   11.9344  -18.9997   25.9920 C   0  0  1  0  0  0  0  0  0  0  0  0
   13.4222  -18.8815   25.6498 C   0  0  0  0  0  0  0  0  0  0  0  0
   13.5809  -18.8337   24.1676 C   0  0  0  0  0  0  0  0  0  0  0  0
   14.9723  -18.8728   23.6601 C   0  0  0  0  0  0  0  0  0  0  0  0
   15.1185  -18.6277   22.2004 C   0  0  0  0  0  0  0  0  0  0  0  0
   16.4796  -18.7053   21.7359 N   0  0  0  0  0  0  0  0  0  0  0  0
   11.7378  -19.0554   27.4598 C   0  0  0  0  0  0  0  0  0  0  0  0
   11.2815  -18.0604   28.0919 O   0  0  0  0  0  0  0  0  0  0  0  0
   12.0410  -20.1877   28.1999 O   0  0  0  0  0  0  0  0  0  0  0  0
  2  3  2  0
  2  1  1  0
  4  2  1  0
  5  4  1  0
  5  6  1  0
  6  7  1  1
  8  9  2  0
  8  6  1  0
 10  8  1  0
 11 12  1  1
 11 10  1  0
 13 12  1  0
 13 14  2  0
 15 14  1  0
 16 15  1  0
 17 16  2  0
 18 17  1  0
 19 18  2  0
 19 20  1  0
 20 21  2  0
 21 16  1  0
 21 13  1  0
 22 11  1  0
 23 22  2  0
 24 22  1  0
 25 24  1  0
 25 26  1  1
 27 26  1  0
 28 29  1  0
 28 27  1  0
 30 29  1  0
 31 25  1  0
 31 33  1  0
 32 31  2  0
M  END
$$$$
