QWK.pdb
     RDKit          3D

 33 34  0  0  1  0  0  0  0  0999 V2000
    8.5973  -12.3145   18.5981 N   0  0  0  0  0  0  0  0  0  0  0  0
    8.2755  -13.4180   17.7360 C   0  0  0  0  0  0  0  0  0  0  0  0
    7.8009  -13.1958   16.6139 O   0  0  0  0  0  0  0  0  0  0  0  0
    8.5216  -14.7712   18.2300 C   0  0  0  0  0  0  0  0  0  0  0  0
    9.0137  -14.7848   19.6307 C   0  0  0  0  0  0  0  0  0  0  0  0
    9.3086  -16.1350   20.1883 C   0  0  2  0  0  0  0  0  0  0  0  0
    8.2414  -17.0926   20.0793 N   0  0  0  0  0  0  0  0  0  0  0  0
    9.6498  -16.0253   21.6492 C   0  0  0  0  0  0  0  0  0  0  0  0
   10.5796  -15.2758   22.0299 O   0  0  0  0  0  0  0  0  0  0  0  0
    8.9234  -16.7688   22.6154 N   0  0  0  0  0  0  0  0  0  0  0  0
    9.1076  -16.6372   24.0368 C   0  0  1  0  0  0  0  0  0  0  0  0
    7.8652  -16.3353   24.8040 C   0  0  0  0  0  0  0  0  0  0  0  0
    7.2576  -15.0171   24.5448 C   0  0  0  0  0  0  0  0  0  0  0  0
    6.5428  -14.6366   23.4165 C   0  0  0  0  0  0  0  0  0  0  0  0
    6.1703  -13.3579   23.5423 N   0  0  0  0  0  0  0  0  0  0  0  0
    6.6174  -12.8770   24.7244 C   0  0  0  0  0  0  0  0  0  0  0  0
    6.5138  -11.6526   25.3512 C   0  0  0  0  0  0  0  0  0  0  0  0
    7.0746  -11.4433   26.5921 C   0  0  0  0  0  0  0  0  0  0  0  0
    7.7489  -12.4411   27.2378 C   0  0  0  0  0  0  0  0  0  0  0  0
    7.8468  -13.6641   26.5999 C   0  0  0  0  0  0  0  0  0  0  0  0
    7.2931  -13.9019   25.3521 C   0  0  0  0  0  0  0  0  0  0  0  0
    9.8750  -17.8005   24.5534 C   0  0  0  0  0  0  0  0  0  0  0  0
    9.5287  -18.9774   24.2364 O   0  0  0  0  0  0  0  0  0  0  0  0
   11.0053  -17.6905   25.4017 N   0  0  0  0  0  0  0  0  0  0  0  0
   11.6633  -18.8642   25.9121 C   0  0  1  0  0  0  0  0  0  0  0  0
   13.1580  -18.7220   25.6114 C   0  0  0  0  0  0  0  0  0  0  0  0
   13.8779  -19.9196   26.1327 C   0  0  0  0  0  0  0  0  0  0  0  0
   15.3461  -19.9341   25.9348 C   0  0  0  0  0  0  0  0  0  0  0  0
   16.0248  -21.1940   26.3400 C   0  0  0  0  0  0  0  0  0  0  0  0
   17.4086  -21.2565   25.9455 N   0  0  0  0  0  0  0  0  0  0  0  0
   11.4283  -18.9381   27.3735 C   0  0  0  0  0  0  0  0  0  0  0  0
   11.1244  -17.9050   28.0352 O   0  0  0  0  0  0  0  0  0  0  0  0
   11.5291  -20.1294   28.0751 O   0  0  0  0  0  0  0  0  0  0  0  0
  2  3  2  0
  2  1  1  0
  4  2  1  0
  5  4  1  0
  5  6  1  0
  6  7  1  1
  8  9  2  0
  8  6  1  0
 10  8  1  0
 11 12  1  1
 11 10  1  0
 13 12  1  0
 13 14  2  0
 15 14  1  0
 16 15  1  0
 17 16  2  0
 18 17  1  0
 19 18  2  0
 19 20  1  0
 20 21  2  0
 21 16  1  0
 21 13  1  0
 22 11  1  0
 23 22  2  0
 24 22  1  0
 25 24  1  0
 25 26  1  1
 27 26  1  0
 28 29  1  0
 28 27  1  0
 30 29  1  0
 31 25  1  0
 31 33  1  0
 32 31  2  0
M  END
$$$$
