HIA.pdb
     RDKit          3D

 24 24  0  0  1  0  0  0  0  0999 V2000
   20.6316  -13.0896  -17.5328 N   0  0  0  0  0  0  0  0  0  0  0  0
   21.0223  -11.7759  -17.9514 C   0  0  1  0  0  0  0  0  0  0  0  0
   19.9228  -10.9993  -18.5990 C   0  0  0  0  0  0  0  0  0  0  0  0
   19.4937  -11.6654  -19.8391 C   0  0  0  0  0  0  0  0  0  0  0  0
   20.2875  -11.9989  -20.9406 C   0  0  0  0  0  0  0  0  0  0  0  0
   19.5150  -12.5922  -21.8595 N   0  0  0  0  0  0  0  0  0  0  0  0
   18.2713  -12.6367  -21.3632 C   0  0  0  0  0  0  0  0  0  0  0  0
   18.2473  -12.0769  -20.1376 N   0  0  0  0  0  0  0  0  0  0  0  0
   21.6351  -10.9952  -16.8282 C   0  0  0  0  0  0  0  0  0  0  0  0
   21.1600  -11.0399  -15.6652 O   0  0  0  0  0  0  0  0  0  0  0  0
   26.7118  -11.1711  -15.6052 C   0  0  0  0  0  0  0  0  0  0  0  0
   25.1962  -11.0652  -15.5670 C   0  0  0  0  0  0  0  0  0  0  0  0
   24.8425   -9.6359  -15.8432 C   0  0  2  0  0  0  0  0  0  0  0  0
   25.3568   -8.8039  -14.6842 C   0  0  0  0  0  0  0  0  0  0  0  0
   23.3612   -9.3960  -15.9448 C   0  0  2  0  0  0  0  0  0  0  0  0
   22.7793  -10.1672  -17.0155 N   0  0  0  0  0  0  0  0  0  0  0  0
   22.9977   -7.9850  -16.0918 C   0  0  0  0  0  0  0  0  0  0  0  0
   23.3855   -7.3268  -17.1157 O   0  0  0  0  0  0  0  0  0  0  0  0
   20.6213   -5.6235  -14.4657 C   0  0  0  0  0  0  0  0  0  0  0  0
   21.8447   -5.8684  -15.3251 C   0  0  2  0  0  0  0  0  0  0  0  0
   22.2203   -7.2540  -15.1581 N   0  0  0  0  0  0  0  0  0  0  0  0
   22.9143   -4.9390  -14.8976 C   0  0  0  0  0  0  0  0  0  0  0  0
   23.6389   -5.3015  -13.9375 O   0  0  0  0  0  0  0  0  0  0  0  0
   23.1552   -3.7169  -15.4857 O   0  0  0  0  0  0  0  0  0  0  0  0
  2  1  1  1
  3  2  1  0
  4  3  1  0
  5  4  2  0
  6  5  1  0
  7  6  1  0
  7  8  2  0
  8  4  1  0
  9 10  2  0
  9  2  1  0
 11 12  1  0
 12 13  1  0
 13 15  1  0
 13 14  1  1
 15 16  1  6
 16  9  1  0
 17 15  1  0
 18 17  2  0
 20 19  1  1
 20 21  1  0
 21 17  1  0
 22 20  1  0
 23 22  2  0
 24 22  1  0
M  END
$$$$
