HIA.pdb
     RDKit          3D

 24 24  0  0  1  0  0  0  0  0999 V2000
   26.6053  -36.3654  -11.7860 N   0  0  0  0  0  0  0  0  0  0  0  0
   26.1722  -36.7489  -10.4749 C   0  0  1  0  0  0  0  0  0  0  0  0
   26.4883  -38.1671  -10.1281 C   0  0  0  0  0  0  0  0  0  0  0  0
   25.7474  -39.0823  -11.0108 C   0  0  0  0  0  0  0  0  0  0  0  0
   26.2608  -39.8453  -12.0639 C   0  0  0  0  0  0  0  0  0  0  0  0
   25.2587  -40.5428  -12.6138 N   0  0  0  0  0  0  0  0  0  0  0  0
   24.1439  -40.2368  -11.9364 C   0  0  0  0  0  0  0  0  0  0  0  0
   24.4294  -39.3512  -10.9614 N   0  0  0  0  0  0  0  0  0  0  0  0
   26.6924  -35.8155   -9.4238 C   0  0  0  0  0  0  0  0  0  0  0  0
   27.9073  -35.4964   -9.3757 O   0  0  0  0  0  0  0  0  0  0  0  0
   24.6384  -31.0812   -8.4227 C   0  0  0  0  0  0  0  0  0  0  0  0
   25.5370  -32.2897   -8.6272 C   0  0  0  0  0  0  0  0  0  0  0  0
   25.5059  -33.0873   -7.3595 C   0  0  2  0  0  0  0  0  0  0  0  0
   26.0783  -32.2180   -6.2565 C   0  0  0  0  0  0  0  0  0  0  0  0
   26.3374  -34.3391   -7.4209 C   0  0  2  0  0  0  0  0  0  0  0  0
   25.8458  -35.2439   -8.4306 N   0  0  0  0  0  0  0  0  0  0  0  0
   26.4531  -35.0377   -6.1389 C   0  0  0  0  0  0  0  0  0  0  0  0
   25.4566  -35.6849   -5.6699 O   0  0  0  0  0  0  0  0  0  0  0  0
   29.1804  -35.9355   -3.7564 C   0  0  0  0  0  0  0  0  0  0  0  0
   27.7116  -35.7082   -4.0500 C   0  0  2  0  0  0  0  0  0  0  0  0
   27.6233  -35.0596   -5.3386 N   0  0  0  0  0  0  0  0  0  0  0  0
   27.1361  -34.8840   -2.9635 C   0  0  0  0  0  0  0  0  0  0  0  0
   27.0441  -33.6480   -3.1689 O   0  0  0  0  0  0  0  0  0  0  0  0
   26.7026  -35.3900   -1.7580 O   0  0  0  0  0  0  0  0  0  0  0  0
  2  1  1  6
  3  2  1  0
  4  3  1  0
  5  4  2  0
  6  5  1  0
  7  6  1  0
  7  8  2  0
  8  4  1  0
  9 10  2  0
  9  2  1  0
 11 12  1  0
 12 13  1  0
 13 15  1  0
 13 14  1  1
 15 16  1  6
 16  9  1  0
 17 15  1  0
 18 17  2  0
 20 19  1  1
 20 21  1  0
 21 17  1  0
 22 20  1  0
 23 22  2  0
 24 22  1  0
M  END
$$$$
