HIA.pdb
     RDKit          3D

 24 24  0  0  1  0  0  0  0  0999 V2000
   25.5926  -23.2267  -17.6443 N   0  0  0  0  0  0  0  0  0  0  0  0
   26.6890  -22.4541  -17.1392 C   0  0  1  0  0  0  0  0  0  0  0  0
   28.0269  -22.9437  -17.5881 C   0  0  0  0  0  0  0  0  0  0  0  0
   28.2331  -24.3324  -17.1468 C   0  0  0  0  0  0  0  0  0  0  0  0
   28.6998  -24.7659  -15.9022 C   0  0  0  0  0  0  0  0  0  0  0  0
   28.7429  -26.1042  -15.9050 N   0  0  0  0  0  0  0  0  0  0  0  0
   28.3189  -26.5123  -17.1087 C   0  0  0  0  0  0  0  0  0  0  0  0
   28.0069  -25.4449  -17.8701 N   0  0  0  0  0  0  0  0  0  0  0  0
   26.5264  -20.9955  -17.4437 C   0  0  0  0  0  0  0  0  0  0  0  0
   26.4501  -20.5790  -18.6273 O   0  0  0  0  0  0  0  0  0  0  0  0
   23.9813  -19.6280  -14.5893 C   0  0  0  0  0  0  0  0  0  0  0  0
   24.0021  -18.4694  -15.5726 C   0  0  0  0  0  0  0  0  0  0  0  0
   25.4093  -17.9587  -15.6293 C   0  0  2  0  0  0  0  0  0  0  0  0
   25.3469  -16.4769  -15.9464 C   0  0  0  0  0  0  0  0  0  0  0  0
   26.2391  -18.6119  -16.7002 C   0  0  2  0  0  0  0  0  0  0  0  0
   26.4502  -20.0102  -16.4175 N   0  0  0  0  0  0  0  0  0  0  0  0
   27.5244  -17.9519  -16.9396 C   0  0  0  0  0  0  0  0  0  0  0  0
   28.5498  -18.2774  -16.2509 O   0  0  0  0  0  0  0  0  0  0  0  0
   29.9253  -17.4882  -18.6962 C   0  0  0  0  0  0  0  0  0  0  0  0
   29.0321  -16.3661  -18.2082 C   0  0  2  0  0  0  0  0  0  0  0  0
   27.7398  -16.9404  -17.9097 N   0  0  0  0  0  0  0  0  0  0  0  0
   28.9585  -15.3301  -19.2628 C   0  0  0  0  0  0  0  0  0  0  0  0
   27.9649  -15.3636  -20.0310 O   0  0  0  0  0  0  0  0  0  0  0  0
   29.9050  -14.3463  -19.4455 O   0  0  0  0  0  0  0  0  0  0  0  0
  2  1  1  6
  3  2  1  0
  4  3  1  0
  5  4  2  0
  6  5  1  0
  7  6  1  0
  7  8  2  0
  8  4  1  0
  9 10  2  0
  9  2  1  0
 11 12  1  0
 12 13  1  0
 13 15  1  0
 13 14  1  6
 15 16  1  1
 16  9  1  0
 17 15  1  0
 18 17  2  0
 20 19  1  6
 20 21  1  0
 21 17  1  0
 22 20  1  0
 23 22  2  0
 24 22  1  0
M  END
$$$$
