HIA.pdb
     RDKit          3D

 24 24  0  0  1  0  0  0  0  0999 V2000
   24.2417  -21.4856  -15.0492 N   0  0  0  0  0  0  0  0  0  0  0  0
   23.5278  -20.5934  -15.9141 C   0  0  1  0  0  0  0  0  0  0  0  0
   22.1312  -21.0325  -16.2107 C   0  0  0  0  0  0  0  0  0  0  0  0
   22.1448  -22.3190  -16.9251 C   0  0  0  0  0  0  0  0  0  0  0  0
   23.2644  -23.0483  -17.3365 C   0  0  0  0  0  0  0  0  0  0  0  0
   22.8460  -24.1615  -17.9521 N   0  0  0  0  0  0  0  0  0  0  0  0
   21.5064  -24.1447  -17.9351 C   0  0  0  0  0  0  0  0  0  0  0  0
   21.0706  -23.0308  -17.3141 N   0  0  0  0  0  0  0  0  0  0  0  0
   23.5448  -19.1869  -15.3963 C   0  0  0  0  0  0  0  0  0  0  0  0
   23.3477  -18.9352  -14.1805 O   0  0  0  0  0  0  0  0  0  0  0  0
   26.9345  -14.5314  -15.1612 C   0  0  0  0  0  0  0  0  0  0  0  0
   25.4509  -14.8607  -15.1533 C   0  0  0  0  0  0  0  0  0  0  0  0
   25.3013  -16.2546  -15.6813 C   0  0  2  0  0  0  0  0  0  0  0  0
   25.8443  -16.2695  -17.0973 C   0  0  0  0  0  0  0  0  0  0  0  0
   23.8722  -16.7193  -15.7442 C   0  0  2  0  0  0  0  0  0  0  0  0
   23.7831  -18.0684  -16.2460 N   0  0  0  0  0  0  0  0  0  0  0  0
   22.9962  -15.8394  -16.5209 C   0  0  0  0  0  0  0  0  0  0  0  0
   23.0961  -15.7972  -17.7937 O   0  0  0  0  0  0  0  0  0  0  0  0
   19.7168  -14.4484  -16.3623 C   0  0  0  0  0  0  0  0  0  0  0  0
   21.1491  -14.1250  -16.7356 C   0  0  2  0  0  0  0  0  0  0  0  0
   22.0050  -14.9944  -15.9606 N   0  0  0  0  0  0  0  0  0  0  0  0
   21.3973  -12.6932  -16.4546 C   0  0  0  0  0  0  0  0  0  0  0  0
   20.7733  -11.8554  -17.1527 O   0  0  0  0  0  0  0  0  0  0  0  0
   22.2616  -12.2356  -15.4846 O   0  0  0  0  0  0  0  0  0  0  0  0
  2  1  1  1
  3  2  1  0
  4  3  1  0
  5  4  2  0
  6  5  1  0
  7  6  1  0
  7  8  2  0
  8  4  1  0
  9 10  2  0
  9  2  1  0
 11 12  1  0
 12 13  1  0
 13 15  1  0
 13 14  1  6
 15 16  1  6
 16  9  1  0
 17 15  1  0
 18 17  2  0
 20 19  1  1
 20 21  1  0
 21 17  1  0
 22 20  1  0
 23 22  2  0
 24 22  1  0
M  END
$$$$
