HIA.pdb
     RDKit          3D

 24 24  0  0  1  0  0  0  0  0999 V2000
   21.2158  -14.2424  -17.3139 N   0  0  0  0  0  0  0  0  0  0  0  0
   21.3320  -12.8510  -17.6367 C   0  0  1  0  0  0  0  0  0  0  0  0
   20.0478  -12.2259  -18.0742 C   0  0  0  0  0  0  0  0  0  0  0  0
   19.5007  -12.9491  -19.2332 C   0  0  0  0  0  0  0  0  0  0  0  0
   18.2030  -13.4463  -19.3867 C   0  0  0  0  0  0  0  0  0  0  0  0
   18.1116  -14.0383  -20.5844 N   0  0  0  0  0  0  0  0  0  0  0  0
   19.3083  -13.9237  -21.1759 C   0  0  0  0  0  0  0  0  0  0  0  0
   20.1586  -13.2643  -20.3645 N   0  0  0  0  0  0  0  0  0  0  0  0
   21.9485  -12.0710  -16.5149 C   0  0  0  0  0  0  0  0  0  0  0  0
   21.5371  -12.1890  -15.3330 O   0  0  0  0  0  0  0  0  0  0  0  0
   27.1536  -12.0355  -15.7837 C   0  0  0  0  0  0  0  0  0  0  0  0
   25.6400  -12.0450  -15.6464 C   0  0  0  0  0  0  0  0  0  0  0  0
   25.1766  -10.6227  -15.7287 C   0  0  2  0  0  0  0  0  0  0  0  0
   25.7748   -9.8766  -14.5516 C   0  0  0  0  0  0  0  0  0  0  0  0
   23.6823  -10.4755  -15.6403 C   0  0  2  0  0  0  0  0  0  0  0  0
   23.0247  -11.1614  -16.7251 N   0  0  0  0  0  0  0  0  0  0  0  0
   23.2261   -9.0851  -15.5799 C   0  0  0  0  0  0  0  0  0  0  0  0
   23.4667   -8.3764  -14.5447 O   0  0  0  0  0  0  0  0  0  0  0  0
   21.9152   -6.5894  -18.0122 C   0  0  0  0  0  0  0  0  0  0  0  0
   22.1396   -7.0321  -16.5808 C   0  0  2  0  0  0  0  0  0  0  0  0
   22.5104   -8.4287  -16.6130 N   0  0  0  0  0  0  0  0  0  0  0  0
   20.8953   -6.7968  -15.8145 C   0  0  0  0  0  0  0  0  0  0  0  0
   20.1518   -7.7887  -15.6099 O   0  0  0  0  0  0  0  0  0  0  0  0
   20.5136   -5.5689  -15.3209 O   0  0  0  0  0  0  0  0  0  0  0  0
  2  1  1  1
  3  2  1  0
  4  3  1  0
  5  4  2  0
  6  5  1  0
  7  6  1  0
  7  8  2  0
  8  4  1  0
  9 10  2  0
  9  2  1  0
 11 12  1  0
 12 13  1  0
 13 15  1  0
 13 14  1  1
 15 16  1  6
 16  9  1  0
 17 15  1  0
 18 17  2  0
 20 19  1  6
 20 21  1  0
 21 17  1  0
 22 20  1  0
 23 22  2  0
 24 22  1  0
M  END
$$$$
