HIA.pdb
     RDKit          3D

 24 24  0  0  1  0  0  0  0  0999 V2000
   21.7771  -26.7926  -16.6405 N   0  0  0  0  0  0  0  0  0  0  0  0
   20.4253  -27.2080  -16.4080 C   0  0  1  0  0  0  0  0  0  0  0  0
   20.2894  -28.2413  -15.3380 C   0  0  0  0  0  0  0  0  0  0  0  0
   21.0550  -29.4460  -15.6960 C   0  0  0  0  0  0  0  0  0  0  0  0
   22.1125  -30.0209  -14.9847 C   0  0  0  0  0  0  0  0  0  0  0  0
   22.5338  -31.1051  -15.6482 N   0  0  0  0  0  0  0  0  0  0  0  0
   21.7727  -31.2196  -16.7449 C   0  0  0  0  0  0  0  0  0  0  0  0
   20.8720  -30.2178  -16.7836 N   0  0  0  0  0  0  0  0  0  0  0  0
   19.5251  -26.0404  -16.1377 C   0  0  0  0  0  0  0  0  0  0  0  0
   19.8375  -25.1529  -15.3041 O   0  0  0  0  0  0  0  0  0  0  0  0
   17.2254  -24.9106  -20.0891 C   0  0  0  0  0  0  0  0  0  0  0  0
   17.4474  -23.9356  -18.9445 C   0  0  0  0  0  0  0  0  0  0  0  0
   16.6115  -24.4034  -17.7927 C   0  0  2  0  0  0  0  0  0  0  0  0
   15.6724  -23.2729  -17.4185 C   0  0  0  0  0  0  0  0  0  0  0  0
   17.4172  -24.7409  -16.5682 C   0  0  2  0  0  0  0  0  0  0  0  0
   18.2772  -25.8742  -16.8048 N   0  0  0  0  0  0  0  0  0  0  0  0
   16.6070  -24.9711  -15.3702 C   0  0  0  0  0  0  0  0  0  0  0  0
   16.3709  -26.1629  -14.9757 O   0  0  0  0  0  0  0  0  0  0  0  0
   16.3865  -24.7203  -12.3464 C   0  0  0  0  0  0  0  0  0  0  0  0
   15.3620  -24.1721  -13.3187 C   0  0  2  0  0  0  0  0  0  0  0  0
   16.0375  -23.9439  -14.5759 N   0  0  0  0  0  0  0  0  0  0  0  0
   14.7920  -22.9295  -12.7513 C   0  0  0  0  0  0  0  0  0  0  0  0
   15.3155  -21.8442  -13.1068 O   0  0  0  0  0  0  0  0  0  0  0  0
   13.7353  -22.8982  -11.8684 O   0  0  0  0  0  0  0  0  0  0  0  0
  2  1  1  1
  3  2  1  0
  4  3  1  0
  5  4  2  0
  6  5  1  0
  7  6  1  0
  7  8  2  0
  8  4  1  0
  9 10  2  0
  9  2  1  0
 11 12  1  0
 12 13  1  0
 13 15  1  0
 13 14  1  1
 15 16  1  6
 16  9  1  0
 17 15  1  0
 18 17  2  0
 20 19  1  1
 20 21  1  0
 21 17  1  0
 22 20  1  0
 23 22  2  0
 24 22  1  0
M  END
$$$$
