HIA.pdb
     RDKit          3D

 24 24  0  0  1  0  0  0  0  0999 V2000
   28.4006  -21.3169  -15.7503 N   0  0  0  0  0  0  0  0  0  0  0  0
   27.5326  -20.3353  -15.1699 C   0  0  1  0  0  0  0  0  0  0  0  0
   26.9435  -19.3899  -16.1651 C   0  0  0  0  0  0  0  0  0  0  0  0
   27.9885  -18.5052  -16.7046 C   0  0  0  0  0  0  0  0  0  0  0  0
   29.3476  -18.5008  -16.3770 C   0  0  0  0  0  0  0  0  0  0  0  0
   29.9552  -17.5430  -17.0888 N   0  0  0  0  0  0  0  0  0  0  0  0
   29.0178  -16.9557  -17.8448 C   0  0  0  0  0  0  0  0  0  0  0  0
   27.8207  -17.5321  -17.6193 N   0  0  0  0  0  0  0  0  0  0  0  0
   26.4592  -20.9676  -14.3365 C   0  0  0  0  0  0  0  0  0  0  0  0
   25.9701  -22.0857  -14.6383 O   0  0  0  0  0  0  0  0  0  0  0  0
   26.6206  -20.7252   -8.9564 C   0  0  0  0  0  0  0  0  0  0  0  0
   26.4348  -21.2434  -10.3730 C   0  0  0  0  0  0  0  0  0  0  0  0
   25.1500  -20.6731  -10.8909 C   0  0  2  0  0  0  0  0  0  0  0  0
   24.0164  -21.3233  -10.1213 C   0  0  0  0  0  0  0  0  0  0  0  0
   24.9185  -20.9515  -12.3507 C   0  0  2  0  0  0  0  0  0  0  0  0
   25.9390  -20.3417  -13.1671 N   0  0  0  0  0  0  0  0  0  0  0  0
   23.5930  -20.5512  -12.8277 C   0  0  0  0  0  0  0  0  0  0  0  0
   23.2354  -19.3260  -12.7732 O   0  0  0  0  0  0  0  0  0  0  0  0
   20.7848  -22.1973  -14.6780 C   0  0  0  0  0  0  0  0  0  0  0  0
   21.3523  -21.0277  -13.9000 C   0  0  2  0  0  0  0  0  0  0  0  0
   22.6307  -21.4417  -13.3677 N   0  0  0  0  0  0  0  0  0  0  0  0
   20.3915  -20.6589  -12.8363 C   0  0  0  0  0  0  0  0  0  0  0  0
   20.4612  -21.2949  -11.7551 O   0  0  0  0  0  0  0  0  0  0  0  0
   19.4396  -19.6717  -12.9647 O   0  0  0  0  0  0  0  0  0  0  0  0
  2  1  1  6
  3  2  1  0
  4  3  1  0
  5  4  2  0
  6  5  1  0
  7  6  1  0
  7  8  2  0
  8  4  1  0
  9 10  2  0
  9  2  1  0
 11 12  1  0
 12 13  1  0
 13 15  1  0
 13 14  1  1
 15 16  1  6
 16  9  1  0
 17 15  1  0
 18 17  2  0
 20 19  1  1
 20 21  1  0
 21 17  1  0
 22 20  1  0
 23 22  2  0
 24 22  1  0
M  END
$$$$
