HIA.pdb
     RDKit          3D

 24 24  0  0  1  0  0  0  0  0999 V2000
   21.7695  -14.6763  -17.9726 N   0  0  0  0  0  0  0  0  0  0  0  0
   21.9874  -13.3548  -18.4824 C   0  0  1  0  0  0  0  0  0  0  0  0
   20.8398  -12.8190  -19.2744 C   0  0  0  0  0  0  0  0  0  0  0  0
   20.6181  -13.6476  -20.4703 C   0  0  0  0  0  0  0  0  0  0  0  0
   21.1561  -13.4554  -21.7463 C   0  0  0  0  0  0  0  0  0  0  0  0
   20.7076  -14.4283  -22.5497 N   0  0  0  0  0  0  0  0  0  0  0  0
   19.9110  -15.2148  -21.8135 C   0  0  0  0  0  0  0  0  0  0  0  0
   19.8498  -14.7499  -20.5500 N   0  0  0  0  0  0  0  0  0  0  0  0
   22.3767  -12.3984  -17.3959 C   0  0  0  0  0  0  0  0  0  0  0  0
   21.8511  -12.4551  -16.2554 O   0  0  0  0  0  0  0  0  0  0  0  0
   27.1829  -11.7801  -15.5555 C   0  0  0  0  0  0  0  0  0  0  0  0
   25.6840  -11.8729  -15.7886 C   0  0  0  0  0  0  0  0  0  0  0  0
   25.2285  -10.5382  -16.2940 C   0  0  2  0  0  0  0  0  0  0  0  0
   25.5518   -9.5093  -15.2278 C   0  0  0  0  0  0  0  0  0  0  0  0
   23.7478  -10.4697  -16.5490 C   0  0  2  0  0  0  0  0  0  0  0  0
   23.3550  -11.3819  -17.5946 N   0  0  0  0  0  0  0  0  0  0  0  0
   23.2602   -9.1226  -16.8531 C   0  0  0  0  0  0  0  0  0  0  0  0
   23.7996   -8.4424  -17.7901 O   0  0  0  0  0  0  0  0  0  0  0  0
   20.2556   -7.1977  -16.7016 C   0  0  0  0  0  0  0  0  0  0  0  0
   21.7485   -7.1349  -16.4515 C   0  0  2  0  0  0  0  0  0  0  0  0
   22.1969   -8.4798  -16.1699 N   0  0  0  0  0  0  0  0  0  0  0  0
   21.9987   -6.2096  -15.3238 C   0  0  0  0  0  0  0  0  0  0  0  0
   22.1124   -6.7171  -14.1802 O   0  0  0  0  0  0  0  0  0  0  0  0
   22.1119   -4.8433  -15.4572 O   0  0  0  0  0  0  0  0  0  0  0  0
  2  1  1  1
  3  2  1  0
  4  3  1  0
  5  4  2  0
  6  5  1  0
  7  6  1  0
  7  8  2  0
  8  4  1  0
  9 10  2  0
  9  2  1  0
 11 12  1  0
 12 13  1  0
 13 15  1  0
 13 14  1  1
 15 16  1  6
 16  9  1  0
 17 15  1  0
 18 17  2  0
 20 19  1  1
 20 21  1  0
 21 17  1  0
 22 20  1  0
 23 22  2  0
 24 22  1  0
M  END
$$$$
