HIA.pdb
     RDKit          3D

 24 24  0  0  1  0  0  0  0  0999 V2000
   28.3154  -20.4785  -16.2218 N   0  0  0  0  0  0  0  0  0  0  0  0
   27.3304  -19.6922  -15.5399 C   0  0  1  0  0  0  0  0  0  0  0  0
   26.6388  -18.7012  -16.4179 C   0  0  0  0  0  0  0  0  0  0  0  0
   27.6200  -17.7828  -17.0173 C   0  0  0  0  0  0  0  0  0  0  0  0
   28.5173  -16.9459  -16.3471 C   0  0  0  0  0  0  0  0  0  0  0  0
   29.2345  -16.2736  -17.2564 N   0  0  0  0  0  0  0  0  0  0  0  0
   28.8109  -16.6665  -18.4652 C   0  0  0  0  0  0  0  0  0  0  0  0
   27.8312  -17.5823  -18.3314 N   0  0  0  0  0  0  0  0  0  0  0  0
   26.3351  -20.5519  -14.8208 C   0  0  0  0  0  0  0  0  0  0  0  0
   25.7869  -21.5312  -15.3870 O   0  0  0  0  0  0  0  0  0  0  0  0
   25.6509  -20.3186   -9.1088 C   0  0  0  0  0  0  0  0  0  0  0  0
   25.2993  -19.9973  -10.5520 C   0  0  0  0  0  0  0  0  0  0  0  0
   25.3603  -21.2811  -11.3216 C   0  0  2  0  0  0  0  0  0  0  0  0
   26.7908  -21.7818  -11.2657 C   0  0  0  0  0  0  0  0  0  0  0  0
   24.9961  -21.1256  -12.7726 C   0  0  2  0  0  0  0  0  0  0  0  0
   25.9592  -20.3082  -13.4683 N   0  0  0  0  0  0  0  0  0  0  0  0
   23.6462  -20.6018  -12.9923 C   0  0  0  0  0  0  0  0  0  0  0  0
   23.4373  -19.3417  -12.9753 O   0  0  0  0  0  0  0  0  0  0  0  0
   20.6006  -21.3352  -14.6725 C   0  0  0  0  0  0  0  0  0  0  0  0
   21.1567  -20.8867  -13.3365 C   0  0  2  0  0  0  0  0  0  0  0  0
   22.5021  -21.4043  -13.2322 N   0  0  0  0  0  0  0  0  0  0  0  0
   20.2725  -21.3949  -12.2638 C   0  0  0  0  0  0  0  0  0  0  0  0
   20.6407  -22.4342  -11.6616 O   0  0  0  0  0  0  0  0  0  0  0  0
   19.0861  -20.8001  -11.8952 O   0  0  0  0  0  0  0  0  0  0  0  0
  2  1  1  6
  3  2  1  0
  4  3  1  0
  5  4  2  0
  6  5  1  0
  7  6  1  0
  7  8  2  0
  8  4  1  0
  9 10  2  0
  9  2  1  0
 11 12  1  0
 12 13  1  0
 13 15  1  0
 13 14  1  6
 15 16  1  1
 16  9  1  0
 17 15  1  0
 18 17  2  0
 20 19  1  6
 20 21  1  0
 21 17  1  0
 22 20  1  0
 23 22  2  0
 24 22  1  0
M  END
$$$$
