HIA.pdb
     RDKit          3D

 24 24  0  0  1  0  0  0  0  0999 V2000
   27.9067  -19.0008  -16.0693 N   0  0  0  0  0  0  0  0  0  0  0  0
   26.9136  -18.4747  -15.1800 C   0  0  1  0  0  0  0  0  0  0  0  0
   26.0379  -17.4371  -15.8028 C   0  0  0  0  0  0  0  0  0  0  0  0
   26.8252  -16.2366  -16.1264 C   0  0  0  0  0  0  0  0  0  0  0  0
   27.2421  -15.2336  -15.2461 C   0  0  0  0  0  0  0  0  0  0  0  0
   27.9347  -14.3197  -15.9376 N   0  0  0  0  0  0  0  0  0  0  0  0
   27.9598  -14.7238  -17.2147 C   0  0  0  0  0  0  0  0  0  0  0  0
   27.2894  -15.8861  -17.3403 N   0  0  0  0  0  0  0  0  0  0  0  0
   26.0907  -19.5638  -14.5609 C   0  0  0  0  0  0  0  0  0  0  0  0
   25.8425  -20.6288  -15.1809 O   0  0  0  0  0  0  0  0  0  0  0  0
   26.5762  -20.5565   -9.2535 C   0  0  0  0  0  0  0  0  0  0  0  0
   26.4613  -20.7950  -10.7500 C   0  0  0  0  0  0  0  0  0  0  0  0
   25.0359  -20.5390  -11.1335 C   0  0  2  0  0  0  0  0  0  0  0  0
   24.1978  -21.6671  -10.5634 C   0  0  0  0  0  0  0  0  0  0  0  0
   24.8115  -20.5211  -12.6207 C   0  0  2  0  0  0  0  0  0  0  0  0
   25.5497  -19.4525  -13.2476 N   0  0  0  0  0  0  0  0  0  0  0  0
   23.4008  -20.4462  -13.0066 C   0  0  0  0  0  0  0  0  0  0  0  0
   22.7055  -19.4203  -12.6969 O   0  0  0  0  0  0  0  0  0  0  0  0
   21.0021  -22.5748  -14.9595 C   0  0  0  0  0  0  0  0  0  0  0  0
   21.3076  -21.3872  -14.0698 C   0  0  2  0  0  0  0  0  0  0  0  0
   22.7094  -21.4549  -13.7242 N   0  0  0  0  0  0  0  0  0  0  0  0
   20.4300  -21.4522  -12.8797 C   0  0  0  0  0  0  0  0  0  0  0  0
   19.3828  -20.7584  -12.9012 O   0  0  0  0  0  0  0  0  0  0  0  0
   20.6942  -22.2198  -11.7670 O   0  0  0  0  0  0  0  0  0  0  0  0
  2  1  1  6
  3  2  1  0
  4  3  1  0
  5  4  2  0
  6  5  1  0
  7  6  1  0
  7  8  2  0
  8  4  1  0
  9 10  2  0
  9  2  1  0
 11 12  1  0
 12 13  1  0
 13 15  1  0
 13 14  1  1
 15 16  1  1
 16  9  1  0
 17 15  1  0
 18 17  2  0
 20 19  1  6
 20 21  1  0
 21 17  1  0
 22 20  1  0
 23 22  2  0
 24 22  1  0
M  END
$$$$
