HIA.pdb
     RDKit          3D

 24 24  0  0  1  0  0  0  0  0999 V2000
   27.9951  -20.8756  -15.9426 N   0  0  0  0  0  0  0  0  0  0  0  0
   27.1165  -19.9417  -15.3025 C   0  0  1  0  0  0  0  0  0  0  0  0
   26.4985  -18.9573  -16.2408 C   0  0  0  0  0  0  0  0  0  0  0  0
   27.5438  -18.1492  -16.8889 C   0  0  0  0  0  0  0  0  0  0  0  0
   28.1460  -16.9882  -16.3949 C   0  0  0  0  0  0  0  0  0  0  0  0
   29.0467  -16.5609  -17.2889 N   0  0  0  0  0  0  0  0  0  0  0  0
   29.0214  -17.4182  -18.3182 C   0  0  0  0  0  0  0  0  0  0  0  0
   28.1127  -18.3859  -18.0857 N   0  0  0  0  0  0  0  0  0  0  0  0
   26.0647  -20.6362  -14.4912 C   0  0  0  0  0  0  0  0  0  0  0  0
   25.4779  -21.6613  -14.9212 O   0  0  0  0  0  0  0  0  0  0  0  0
   26.1998  -20.5417   -8.9869 C   0  0  0  0  0  0  0  0  0  0  0  0
   26.0731  -21.0716  -10.4057 C   0  0  0  0  0  0  0  0  0  0  0  0
   24.7884  -20.5422  -10.9657 C   0  0  2  0  0  0  0  0  0  0  0  0
   23.6516  -21.2482  -10.2519 C   0  0  0  0  0  0  0  0  0  0  0  0
   24.6254  -20.8048  -12.4377 C   0  0  2  0  0  0  0  0  0  0  0  0
   25.6761  -20.1764  -13.1999 N   0  0  0  0  0  0  0  0  0  0  0  0
   23.3191  -20.4101  -12.9693 C   0  0  0  0  0  0  0  0  0  0  0  0
   23.0118  -19.1736  -13.0610 O   0  0  0  0  0  0  0  0  0  0  0  0
   20.9481  -21.4263  -15.3573 C   0  0  0  0  0  0  0  0  0  0  0  0
   21.0364  -20.9185  -13.9326 C   0  0  2  0  0  0  0  0  0  0  0  0
   22.3232  -21.3182  -13.4098 N   0  0  0  0  0  0  0  0  0  0  0  0
   19.9114  -21.4894  -13.1586 C   0  0  0  0  0  0  0  0  0  0  0  0
   20.1749  -22.4402  -12.3807 O   0  0  0  0  0  0  0  0  0  0  0  0
   18.6113  -21.0425  -13.2429 O   0  0  0  0  0  0  0  0  0  0  0  0
  2  1  1  6
  3  2  1  0
  4  3  1  0
  5  4  2  0
  6  5  1  0
  7  6  1  0
  7  8  2  0
  8  4  1  0
  9 10  2  0
  9  2  1  0
 11 12  1  0
 12 13  1  0
 13 15  1  0
 13 14  1  1
 15 16  1  6
 16  9  1  0
 17 15  1  0
 18 17  2  0
 20 19  1  6
 20 21  1  0
 21 17  1  0
 22 20  1  0
 23 22  2  0
 24 22  1  0
M  END
$$$$
