WPN.pdb
     RDKit          3D

 30 32  0  0  1  0  0  0  0  0999 V2000
    6.1411  -17.7017   25.1538 N   0  0  0  0  0  0  0  0  0  0  0  0
    6.8510  -16.5812   24.6360 C   0  0  1  0  0  0  0  0  0  0  0  0
    8.0519  -16.2743   25.4741 C   0  0  0  0  0  0  0  0  0  0  0  0
    8.0134  -15.0093   26.2129 C   0  0  0  0  0  0  0  0  0  0  0  0
    6.9307  -14.1532   26.2256 C   0  0  0  0  0  0  0  0  0  0  0  0
    7.2131  -13.1246   27.0115 N   0  0  0  0  0  0  0  0  0  0  0  0
    8.4476  -13.2526   27.5312 C   0  0  0  0  0  0  0  0  0  0  0  0
    9.1724  -12.4501   28.3805 C   0  0  0  0  0  0  0  0  0  0  0  0
   10.4551  -12.8430   28.7452 C   0  0  0  0  0  0  0  0  0  0  0  0
   10.9813  -14.0064   28.2654 C   0  0  0  0  0  0  0  0  0  0  0  0
   10.2183  -14.7844   27.4136 C   0  0  0  0  0  0  0  0  0  0  0  0
    8.9597  -14.4510   27.0243 C   0  0  0  0  0  0  0  0  0  0  0  0
    7.2847  -16.7081   23.2221 C   0  0  0  0  0  0  0  0  0  0  0  0
    7.4839  -17.9038   22.7928 O   0  0  0  0  0  0  0  0  0  0  0  0
    7.4993  -15.6685   22.3126 N   0  0  0  0  0  0  0  0  0  0  0  0
    7.4267  -14.2558   22.5912 C   0  0  0  0  0  0  0  0  0  0  0  0
    8.0042  -13.5413   21.3733 C   0  0  0  0  0  0  0  0  0  0  0  0
    7.5163  -14.4794   20.2707 C   0  0  0  0  0  0  0  0  0  0  0  0
    7.8338  -15.8223   20.9198 C   0  0  1  0  0  0  0  0  0  0  0  0
    9.2761  -16.1313   20.7254 C   0  0  0  0  0  0  0  0  0  0  0  0
    9.6710  -16.5374   19.6030 O   0  0  0  0  0  0  0  0  0  0  0  0
   14.4762  -16.6320   21.3156 N   0  0  0  0  0  0  0  0  0  0  0  0
   13.9068  -15.3576   21.0633 C   0  0  0  0  0  0  0  0  0  0  0  0
   14.6525  -14.4267   20.6755 O   0  0  0  0  0  0  0  0  0  0  0  0
   12.4702  -15.0862   21.2398 C   0  0  0  0  0  0  0  0  0  0  0  0
   11.6511  -16.2998   21.5838 C   0  0  2  0  0  0  0  0  0  0  0  0
   10.2484  -15.9927   21.7451 N   0  0  0  0  0  0  0  0  0  0  0  0
   12.2047  -17.0703   22.6966 C   0  0  0  0  0  0  0  0  0  0  0  0
   13.3342  -17.5854   22.7303 O   0  0  0  0  0  0  0  0  0  0  0  0
   11.3893  -17.2464   23.8320 O   0  0  0  0  0  0  0  0  0  0  0  0
  2  1  1  1
  2  3  1  0
  3  4  1  0
  4 12  1  0
  4  5  2  0
  5  6  1  0
  7  8  2  0
  7  6  1  0
  9  8  1  0
 10  9  2  0
 11 10  1  0
 11 12  2  0
 12  7  1  0
 13 15  1  0
 13  2  1  0
 14 13  2  0
 15 19  1  0
 16 17  1  0
 16 15  1  0
 17 18  1  0
 18 19  1  0
 19 20  1  1
 20 21  2  0
 22 23  1  0
 23 24  2  0
 23 25  1  0
 26 25  1  1
 26 28  1  0
 27 26  1  0
 27 20  1  0
 28 29  2  0
 28 30  1  0
M  END
$$$$
