WPN.pdb
     RDKit          3D

 30 32  0  0  1  0  0  0  0  0999 V2000
    6.6934  -18.5360   25.0338 N   0  0  0  0  0  0  0  0  0  0  0  0
    6.9909  -17.2160   24.5904 C   0  0  1  0  0  0  0  0  0  0  0  0
    7.5800  -16.3995   25.6972 C   0  0  0  0  0  0  0  0  0  0  0  0
    6.7950  -15.2393   26.1276 C   0  0  0  0  0  0  0  0  0  0  0  0
    5.4473  -15.2834   26.4232 C   0  0  0  0  0  0  0  0  0  0  0  0
    5.0582  -14.0768   26.8079 N   0  0  0  0  0  0  0  0  0  0  0  0
    6.0930  -13.2170   26.7833 C   0  0  0  0  0  0  0  0  0  0  0  0
    6.1797  -11.8781   27.0845 C   0  0  0  0  0  0  0  0  0  0  0  0
    7.4067  -11.2377   26.9528 C   0  0  0  0  0  0  0  0  0  0  0  0
    8.5032  -11.9309   26.5312 C   0  0  0  0  0  0  0  0  0  0  0  0
    8.3724  -13.2764   26.2390 C   0  0  0  0  0  0  0  0  0  0  0  0
    7.1996  -13.9539   26.3502 C   0  0  0  0  0  0  0  0  0  0  0  0
    7.8931  -17.1341   23.4145 C   0  0  0  0  0  0  0  0  0  0  0  0
    8.6544  -18.1500   23.2092 O   0  0  0  0  0  0  0  0  0  0  0  0
    8.0020  -16.0727   22.5115 N   0  0  0  0  0  0  0  0  0  0  0  0
    7.1967  -14.8770   22.4913 C   0  0  0  0  0  0  0  0  0  0  0  0
    7.8691  -13.9153   21.5164 C   0  0  0  0  0  0  0  0  0  0  0  0
    8.3911  -14.9168   20.4876 C   0  0  0  0  0  0  0  0  0  0  0  0
    8.9466  -15.9813   21.4276 C   0  0  1  0  0  0  0  0  0  0  0  0
   10.2946  -15.5634   21.8987 C   0  0  0  0  0  0  0  0  0  0  0  0
   10.3887  -14.8186   22.9072 O   0  0  0  0  0  0  0  0  0  0  0  0
   14.5091  -18.3997   23.1197 N   0  0  0  0  0  0  0  0  0  0  0  0
   13.1381  -18.7522   23.2086 C   0  0  0  0  0  0  0  0  0  0  0  0
   12.8222  -19.8138   23.7971 O   0  0  0  0  0  0  0  0  0  0  0  0
   12.0697  -17.9167   22.6350 C   0  0  0  0  0  0  0  0  0  0  0  0
   12.5633  -16.6851   21.9266 C   0  0  2  0  0  0  0  0  0  0  0  0
   11.4991  -15.9610   21.2698 N   0  0  0  0  0  0  0  0  0  0  0  0
   13.7087  -16.9436   21.0550 C   0  0  0  0  0  0  0  0  0  0  0  0
   13.7123  -17.6961   20.0671 O   0  0  0  0  0  0  0  0  0  0  0  0
   14.9159  -16.2836   21.3584 O   0  0  0  0  0  0  0  0  0  0  0  0
  2  1  1  1
  2  3  1  0
  3  4  1  0
  4 12  1  0
  4  5  2  0
  5  6  1  0
  7  8  2  0
  7  6  1  0
  9  8  1  0
 10  9  2  0
 11 10  1  0
 11 12  2  0
 12  7  1  0
 13 15  1  0
 13  2  1  0
 14 13  2  0
 15 19  1  0
 16 17  1  0
 16 15  1  0
 17 18  1  0
 18 19  1  0
 19 20  1  1
 20 21  2  0
 22 23  1  0
 23 24  2  0
 23 25  1  0
 26 25  1  6
 26 28  1  0
 27 26  1  0
 27 20  1  0
 28 29  2  0
 28 30  1  0
M  END
$$$$
