WPN.pdb
     RDKit          3D

 30 32  0  0  1  0  0  0  0  0999 V2000
    7.1335  -18.4559   25.1485 N   0  0  0  0  0  0  0  0  0  0  0  0
    7.2127  -17.1682   24.5458 C   0  0  1  0  0  0  0  0  0  0  0  0
    7.7816  -16.1650   25.4991 C   0  0  0  0  0  0  0  0  0  0  0  0
    6.8441  -15.1614   26.0107 C   0  0  0  0  0  0  0  0  0  0  0  0
    5.5336  -15.4294   26.3514 C   0  0  0  0  0  0  0  0  0  0  0  0
    4.9778  -14.3157   26.8057 N   0  0  0  0  0  0  0  0  0  0  0  0
    5.8638  -13.3033   26.7845 C   0  0  0  0  0  0  0  0  0  0  0  0
    5.7535  -11.9808   27.1446 C   0  0  0  0  0  0  0  0  0  0  0  0
    6.8589  -11.1503   26.9996 C   0  0  0  0  0  0  0  0  0  0  0  0
    8.0312  -11.6443   26.5075 C   0  0  0  0  0  0  0  0  0  0  0  0
    8.0996  -12.9807   26.1575 C   0  0  0  0  0  0  0  0  0  0  0  0
    7.0525  -13.8385   26.2785 C   0  0  0  0  0  0  0  0  0  0  0  0
    7.9902  -17.1100   23.2828 C   0  0  0  0  0  0  0  0  0  0  0  0
    8.7171  -18.1361   23.0138 O   0  0  0  0  0  0  0  0  0  0  0  0
    8.0158  -16.0607   22.3595 N   0  0  0  0  0  0  0  0  0  0  0  0
    7.3020  -14.8121   22.4595 C   0  0  0  0  0  0  0  0  0  0  0  0
    7.8624  -13.9015   21.3713 C   0  0  0  0  0  0  0  0  0  0  0  0
    8.1324  -14.9392   20.2830 C   0  0  0  0  0  0  0  0  0  0  0  0
    8.7661  -16.0375   21.1300 C   0  0  1  0  0  0  0  0  0  0  0  0
   10.1998  -15.7131   21.3597 C   0  0  0  0  0  0  0  0  0  0  0  0
   10.5236  -15.0497   22.3774 O   0  0  0  0  0  0  0  0  0  0  0  0
   14.0102  -18.8916   23.1537 N   0  0  0  0  0  0  0  0  0  0  0  0
   13.8201  -17.5172   22.8591 C   0  0  0  0  0  0  0  0  0  0  0  0
   14.7814  -16.7262   23.0113 O   0  0  0  0  0  0  0  0  0  0  0  0
   12.5339  -16.9835   22.3801 C   0  0  0  0  0  0  0  0  0  0  0  0
   12.5239  -16.6148   20.9219 C   0  0  2  0  0  0  0  0  0  0  0  0
   11.2402  -16.1136   20.4870 N   0  0  0  0  0  0  0  0  0  0  0  0
   13.0541  -17.6695   20.0588 C   0  0  0  0  0  0  0  0  0  0  0  0
   12.3769  -18.4849   19.4116 O   0  0  0  0  0  0  0  0  0  0  0  0
   14.4547  -17.7738   19.9485 O   0  0  0  0  0  0  0  0  0  0  0  0
  2  1  1  1
  2  3  1  0
  3  4  1  0
  4 12  1  0
  4  5  2  0
  5  6  1  0
  7  8  2  0
  7  6  1  0
  9  8  1  0
 10  9  2  0
 11 10  1  0
 11 12  2  0
 12  7  1  0
 13 15  1  0
 13  2  1  0
 14 13  2  0
 15 19  1  0
 16 17  1  0
 16 15  1  0
 17 18  1  0
 18 19  1  0
 19 20  1  1
 20 21  2  0
 22 23  1  0
 23 24  2  0
 23 25  1  0
 26 25  1  1
 26 28  1  0
 27 26  1  0
 27 20  1  0
 28 29  2  0
 28 30  1  0
M  END
$$$$
