WPN.pdb
     RDKit          3D

 30 32  0  0  1  0  0  0  0  0999 V2000
    5.9898  -18.1704   24.4277 N   0  0  0  0  0  0  0  0  0  0  0  0
    6.5365  -16.9038   24.0748 C   0  0  1  0  0  0  0  0  0  0  0  0
    7.2588  -16.2910   25.2330 C   0  0  0  0  0  0  0  0  0  0  0  0
    6.6085  -15.1353   25.8569 C   0  0  0  0  0  0  0  0  0  0  0  0
    5.2782  -15.1006   26.2238 C   0  0  0  0  0  0  0  0  0  0  0  0
    5.0240  -13.9276   26.7850 N   0  0  0  0  0  0  0  0  0  0  0  0
    6.1333  -13.1664   26.8110 C   0  0  0  0  0  0  0  0  0  0  0  0
    6.3608  -11.8934   27.2784 C   0  0  0  0  0  0  0  0  0  0  0  0
    7.6354  -11.3512   27.1585 C   0  0  0  0  0  0  0  0  0  0  0  0
    8.6401  -12.0745   26.5857 C   0  0  0  0  0  0  0  0  0  0  0  0
    8.3685  -13.3515   26.1289 C   0  0  0  0  0  0  0  0  0  0  0  0
    7.1433  -13.9323   26.2205 C   0  0  0  0  0  0  0  0  0  0  0  0
    7.4494  -16.9151   22.9044 C   0  0  0  0  0  0  0  0  0  0  0  0
    7.8461  -18.0706   22.5029 O   0  0  0  0  0  0  0  0  0  0  0  0
    7.9217  -15.8061   22.1966 N   0  0  0  0  0  0  0  0  0  0  0  0
    7.7111  -14.4201   22.5329 C   0  0  0  0  0  0  0  0  0  0  0  0
    8.6399  -13.6080   21.6356 C   0  0  0  0  0  0  0  0  0  0  0  0
    8.5841  -14.4617   20.3699 C   0  0  0  0  0  0  0  0  0  0  0  0
    8.7106  -15.8481   20.9919 C   0  0  1  0  0  0  0  0  0  0  0  0
   10.1439  -16.1287   21.2756 C   0  0  0  0  0  0  0  0  0  0  0  0
   10.6983  -15.5637   22.2523 O   0  0  0  0  0  0  0  0  0  0  0  0
   10.9994  -19.4258   22.3257 N   0  0  0  0  0  0  0  0  0  0  0  0
   11.8787  -19.7998   21.2774 C   0  0  0  0  0  0  0  0  0  0  0  0
   12.0484  -21.0185   21.0345 O   0  0  0  0  0  0  0  0  0  0  0  0
   12.6010  -18.8088   20.4620 C   0  0  0  0  0  0  0  0  0  0  0  0
   12.2959  -17.3791   20.8157 C   0  0  2  0  0  0  0  0  0  0  0  0
   10.9353  -17.0094   20.4993 N   0  0  0  0  0  0  0  0  0  0  0  0
   13.2855  -16.4352   20.2979 C   0  0  0  0  0  0  0  0  0  0  0  0
   14.4519  -16.3117   20.7059 O   0  0  0  0  0  0  0  0  0  0  0  0
   12.8856  -15.5901   19.2440 O   0  0  0  0  0  0  0  0  0  0  0  0
  2  1  1  1
  2  3  1  0
  3  4  1  0
  4 12  1  0
  4  5  2  0
  5  6  1  0
  7  8  2  0
  7  6  1  0
  9  8  1  0
 10  9  2  0
 11 10  1  0
 11 12  2  0
 12  7  1  0
 13 15  1  0
 13  2  1  0
 14 13  2  0
 15 19  1  0
 16 17  1  0
 16 15  1  0
 17 18  1  0
 18 19  1  0
 19 20  1  1
 20 21  2  0
 22 23  1  0
 23 24  2  0
 23 25  1  0
 26 25  1  6
 26 28  1  0
 27 26  1  0
 27 20  1  0
 28 29  2  0
 28 30  1  0
M  END
$$$$
