WPN.pdb
     RDKit          3D

 30 32  0  0  1  0  0  0  0  0999 V2000
    6.6440  -18.3876   24.8942 N   0  0  0  0  0  0  0  0  0  0  0  0
    7.0052  -17.0755   24.4753 C   0  0  1  0  0  0  0  0  0  0  0  0
    7.7013  -16.3355   25.5737 C   0  0  0  0  0  0  0  0  0  0  0  0
    6.9698  -15.2040   26.1501 C   0  0  0  0  0  0  0  0  0  0  0  0
    5.7139  -15.3013   26.7145 C   0  0  0  0  0  0  0  0  0  0  0  0
    5.3583  -14.1072   27.1653 N   0  0  0  0  0  0  0  0  0  0  0  0
    6.3273  -13.2047   26.9262 C   0  0  0  0  0  0  0  0  0  0  0  0
    6.4142  -11.8594   27.1975 C   0  0  0  0  0  0  0  0  0  0  0  0
    7.5591  -11.1694   26.8155 C   0  0  0  0  0  0  0  0  0  0  0  0
    8.5764  -11.8210   26.1821 C   0  0  0  0  0  0  0  0  0  0  0  0
    8.4485  -13.1747   25.9286 C   0  0  0  0  0  0  0  0  0  0  0  0
    7.3540  -13.8998   26.2797 C   0  0  0  0  0  0  0  0  0  0  0  0
    7.8509  -17.0130   23.2570 C   0  0  0  0  0  0  0  0  0  0  0  0
    8.5954  -18.0361   23.0276 O   0  0  0  0  0  0  0  0  0  0  0  0
    7.9231  -15.9626   22.3374 N   0  0  0  0  0  0  0  0  0  0  0  0
    7.1033  -14.7768   22.3228 C   0  0  0  0  0  0  0  0  0  0  0  0
    7.7380  -13.8206   21.3178 C   0  0  0  0  0  0  0  0  0  0  0  0
    8.2446  -14.8298   20.2888 C   0  0  0  0  0  0  0  0  0  0  0  0
    8.8375  -15.8750   21.2276 C   0  0  1  0  0  0  0  0  0  0  0  0
   10.1924  -15.4350   21.6571 C   0  0  0  0  0  0  0  0  0  0  0  0
   10.2998  -14.6107   22.6003 O   0  0  0  0  0  0  0  0  0  0  0  0
   14.7188  -17.4240   23.3004 N   0  0  0  0  0  0  0  0  0  0  0  0
   13.3954  -17.8384   23.5988 C   0  0  0  0  0  0  0  0  0  0  0  0
   13.2147  -18.6765   24.5141 O   0  0  0  0  0  0  0  0  0  0  0  0
   12.2237  -17.3202   22.8727 C   0  0  0  0  0  0  0  0  0  0  0  0
   12.5569  -16.3278   21.7927 C   0  0  2  0  0  0  0  0  0  0  0  0
   11.3893  -15.8969   21.0584 N   0  0  0  0  0  0  0  0  0  0  0  0
   13.6530  -16.7647   20.9290 C   0  0  0  0  0  0  0  0  0  0  0  0
   14.7996  -16.2880   20.9162 O   0  0  0  0  0  0  0  0  0  0  0  0
   13.3902  -17.8182   20.0312 O   0  0  0  0  0  0  0  0  0  0  0  0
  2  1  1  1
  2  3  1  0
  3  4  1  0
  4 12  1  0
  4  5  2  0
  5  6  1  0
  7  8  2  0
  7  6  1  0
  9  8  1  0
 10  9  2  0
 11 10  1  0
 11 12  2  0
 12  7  1  0
 13 15  1  0
 13  2  1  0
 14 13  2  0
 15 19  1  0
 16 17  1  0
 16 15  1  0
 17 18  1  0
 18 19  1  0
 19 20  1  1
 20 21  2  0
 22 23  1  0
 23 24  2  0
 23 25  1  0
 26 25  1  1
 26 28  1  0
 27 26  1  0
 27 20  1  0
 28 29  2  0
 28 30  1  0
M  END
$$$$
