WPN.pdb
     RDKit          3D

 30 32  0  0  1  0  0  0  0  0999 V2000
    6.4864  -17.6236   24.1150 N   0  0  0  0  0  0  0  0  0  0  0  0
    6.9330  -16.3875   23.5671 C   0  0  1  0  0  0  0  0  0  0  0  0
    7.7875  -15.6456   24.5460 C   0  0  0  0  0  0  0  0  0  0  0  0
    7.0804  -14.7538   25.4693 C   0  0  0  0  0  0  0  0  0  0  0  0
    5.9927  -15.1324   26.2303 C   0  0  0  0  0  0  0  0  0  0  0  0
    5.6169  -14.1024   26.9741 N   0  0  0  0  0  0  0  0  0  0  0  0
    6.4100  -13.0399   26.7443 C   0  0  0  0  0  0  0  0  0  0  0  0
    6.4091  -11.7662   27.2624 C   0  0  0  0  0  0  0  0  0  0  0  0
    7.3649  -10.8594   26.8186 C   0  0  0  0  0  0  0  0  0  0  0  0
    8.2859  -11.2323   25.8841 C   0  0  0  0  0  0  0  0  0  0  0  0
    8.2517  -12.5233   25.3890 C   0  0  0  0  0  0  0  0  0  0  0  0
    7.3420  -13.4514   25.7865 C   0  0  0  0  0  0  0  0  0  0  0  0
    7.6735  -16.4968   22.2853 C   0  0  0  0  0  0  0  0  0  0  0  0
    8.1968  -17.6425   22.0260 O   0  0  0  0  0  0  0  0  0  0  0  0
    7.8616  -15.4890   21.3351 N   0  0  0  0  0  0  0  0  0  0  0  0
    7.3362  -14.1476   21.3914 C   0  0  0  0  0  0  0  0  0  0  0  0
    8.0350  -13.3593   20.2879 C   0  0  0  0  0  0  0  0  0  0  0  0
    8.1628  -14.4556   19.2316 C   0  0  0  0  0  0  0  0  0  0  0  0
    8.6205  -15.6099   20.1166 C   0  0  1  0  0  0  0  0  0  0  0  0
   10.0837  -15.4909   20.3589 C   0  0  0  0  0  0  0  0  0  0  0  0
   10.4975  -14.6898   21.2350 O   0  0  0  0  0  0  0  0  0  0  0  0
   13.8931  -18.8237   21.5777 N   0  0  0  0  0  0  0  0  0  0  0  0
   12.5242  -18.8486   21.9485 C   0  0  0  0  0  0  0  0  0  0  0  0
   12.1497  -19.6581   22.8302 O   0  0  0  0  0  0  0  0  0  0  0  0
   11.5244  -17.9577   21.3357 C   0  0  0  0  0  0  0  0  0  0  0  0
   12.0781  -17.0469   20.2745 C   0  0  2  0  0  0  0  0  0  0  0  0
   11.0554  -16.2386   19.6509 N   0  0  0  0  0  0  0  0  0  0  0  0
   12.9329  -17.7398   19.3113 C   0  0  0  0  0  0  0  0  0  0  0  0
   12.5493  -18.5575   18.4590 O   0  0  0  0  0  0  0  0  0  0  0  0
   14.3128  -17.4584   19.3496 O   0  0  0  0  0  0  0  0  0  0  0  0
  2  1  1  1
  2  3  1  0
  3  4  1  0
  4 12  1  0
  4  5  2  0
  5  6  1  0
  7  8  2  0
  7  6  1  0
  9  8  1  0
 10  9  2  0
 11 10  1  0
 11 12  2  0
 12  7  1  0
 13 15  1  0
 13  2  1  0
 14 13  2  0
 15 19  1  0
 16 17  1  0
 16 15  1  0
 17 18  1  0
 18 19  1  0
 19 20  1  1
 20 21  2  0
 22 23  1  0
 23 24  2  0
 23 25  1  0
 26 25  1  1
 26 28  1  0
 27 26  1  0
 27 20  1  0
 28 29  2  0
 28 30  1  0
M  END
$$$$
