WPN.pdb
     RDKit          3D

 30 32  0  0  1  0  0  0  0  0999 V2000
    6.5698  -18.2039   25.1243 N   0  0  0  0  0  0  0  0  0  0  0  0
    6.9818  -16.9323   24.6335 C   0  0  1  0  0  0  0  0  0  0  0  0
    7.5809  -16.1049   25.7268 C   0  0  0  0  0  0  0  0  0  0  0  0
    6.7873  -14.9558   26.1713 C   0  0  0  0  0  0  0  0  0  0  0  0
    5.4738  -15.0372   26.5878 C   0  0  0  0  0  0  0  0  0  0  0  0
    5.0684  -13.8287   26.9492 N   0  0  0  0  0  0  0  0  0  0  0  0
    6.0591  -12.9319   26.7923 C   0  0  0  0  0  0  0  0  0  0  0  0
    6.1143  -11.5772   27.0220 C   0  0  0  0  0  0  0  0  0  0  0  0
    7.2964  -10.8973   26.7517 C   0  0  0  0  0  0  0  0  0  0  0  0
    8.3806  -11.5678   26.2664 C   0  0  0  0  0  0  0  0  0  0  0  0
    8.2827  -12.9303   26.0499 C   0  0  0  0  0  0  0  0  0  0  0  0
    7.1543  -13.6463   26.2968 C   0  0  0  0  0  0  0  0  0  0  0  0
    7.9372  -16.9739   23.4983 C   0  0  0  0  0  0  0  0  0  0  0  0
    8.6602  -18.0329   23.4011 O   0  0  0  0  0  0  0  0  0  0  0  0
    8.1332  -15.9863   22.5285 N   0  0  0  0  0  0  0  0  0  0  0  0
    7.3889  -14.7593   22.3905 C   0  0  0  0  0  0  0  0  0  0  0  0
    8.1451  -13.9023   21.3801 C   0  0  0  0  0  0  0  0  0  0  0  0
    8.6572  -14.9983   20.4470 C   0  0  0  0  0  0  0  0  0  0  0  0
    9.1227  -16.0169   21.4819 C   0  0  1  0  0  0  0  0  0  0  0  0
   10.4701  -15.6288   21.9794 C   0  0  0  0  0  0  0  0  0  0  0  0
   10.5619  -14.7979   22.9183 O   0  0  0  0  0  0  0  0  0  0  0  0
   15.1551  -17.1996   23.7388 N   0  0  0  0  0  0  0  0  0  0  0  0
   13.9847  -17.9990   23.7943 C   0  0  0  0  0  0  0  0  0  0  0  0
   13.9914  -19.0351   24.5011 O   0  0  0  0  0  0  0  0  0  0  0  0
   12.7597  -17.6571   23.0520 C   0  0  0  0  0  0  0  0  0  0  0  0
   12.8670  -16.4024   22.2295 C   0  0  2  0  0  0  0  0  0  0  0  0
   11.6766  -16.1481   21.4508 N   0  0  0  0  0  0  0  0  0  0  0  0
   14.0971  -16.3352   21.4415 C   0  0  0  0  0  0  0  0  0  0  0  0
   15.1396  -15.7482   21.7743 O   0  0  0  0  0  0  0  0  0  0  0  0
   14.1051  -16.9923   20.1953 O   0  0  0  0  0  0  0  0  0  0  0  0
  2  1  1  1
  2  3  1  0
  3  4  1  0
  4 12  1  0
  4  5  2  0
  5  6  1  0
  7  8  2  0
  7  6  1  0
  9  8  1  0
 10  9  2  0
 11 10  1  0
 11 12  2  0
 12  7  1  0
 13 15  1  0
 13  2  1  0
 14 13  2  0
 15 19  1  0
 16 17  1  0
 16 15  1  0
 17 18  1  0
 18 19  1  0
 19 20  1  1
 20 21  2  0
 22 23  1  0
 23 24  2  0
 23 25  1  0
 26 25  1  6
 26 28  1  0
 27 26  1  0
 27 20  1  0
 28 29  2  0
 28 30  1  0
M  END
$$$$
