WPN.pdb
     RDKit          3D

 30 32  0  0  1  0  0  0  0  0999 V2000
    5.9633  -17.8159   24.4441 N   0  0  0  0  0  0  0  0  0  0  0  0
    6.5027  -16.6227   23.8846 C   0  0  1  0  0  0  0  0  0  0  0  0
    7.3522  -15.9001   24.8820 C   0  0  0  0  0  0  0  0  0  0  0  0
    6.6934  -14.8234   25.6267 C   0  0  0  0  0  0  0  0  0  0  0  0
    5.3927  -14.8830   26.0850 C   0  0  0  0  0  0  0  0  0  0  0  0
    5.1232  -13.7641   26.7415 N   0  0  0  0  0  0  0  0  0  0  0  0
    6.1936  -12.9488   26.7441 C   0  0  0  0  0  0  0  0  0  0  0  0
    6.3925  -11.6988   27.2813 C   0  0  0  0  0  0  0  0  0  0  0  0
    7.6277  -11.0834   27.1124 C   0  0  0  0  0  0  0  0  0  0  0  0
    8.6224  -11.7138   26.4241 C   0  0  0  0  0  0  0  0  0  0  0  0
    8.3806  -12.9708   25.9001 C   0  0  0  0  0  0  0  0  0  0  0  0
    7.1944  -13.6202   26.0349 C   0  0  0  0  0  0  0  0  0  0  0  0
    7.2931  -16.8101   22.6423 C   0  0  0  0  0  0  0  0  0  0  0  0
    7.6301  -18.0183   22.3586 O   0  0  0  0  0  0  0  0  0  0  0  0
    7.7085  -15.8151   21.7526 N   0  0  0  0  0  0  0  0  0  0  0  0
    7.5135  -14.3945   21.9020 C   0  0  0  0  0  0  0  0  0  0  0  0
    8.3729  -13.7222   20.8358 C   0  0  0  0  0  0  0  0  0  0  0  0
    8.2343  -14.7472   19.7114 C   0  0  0  0  0  0  0  0  0  0  0  0
    8.4119  -16.0315   20.5142 C   0  0  1  0  0  0  0  0  0  0  0  0
    9.8631  -16.2746   20.7343 C   0  0  0  0  0  0  0  0  0  0  0  0
   10.4599  -15.6448   21.6442 O   0  0  0  0  0  0  0  0  0  0  0  0
   14.3832  -19.0085   20.9779 N   0  0  0  0  0  0  0  0  0  0  0  0
   13.3058  -19.7942   20.4945 C   0  0  0  0  0  0  0  0  0  0  0  0
   13.4789  -21.0258   20.3323 O   0  0  0  0  0  0  0  0  0  0  0  0
   11.9890  -19.2170   20.1756 C   0  0  0  0  0  0  0  0  0  0  0  0
   11.9035  -17.7287   20.3755 C   0  0  2  0  0  0  0  0  0  0  0  0
   10.6264  -17.1887   19.9686 N   0  0  0  0  0  0  0  0  0  0  0  0
   13.0420  -17.0064   19.8095 C   0  0  0  0  0  0  0  0  0  0  0  0
   13.0959  -16.5179   18.6691 O   0  0  0  0  0  0  0  0  0  0  0  0
   14.1796  -16.8481   20.6256 O   0  0  0  0  0  0  0  0  0  0  0  0
  2  1  1  1
  2  3  1  0
  3  4  1  0
  4 12  1  0
  4  5  2  0
  5  6  1  0
  7  8  2  0
  7  6  1  0
  9  8  1  0
 10  9  2  0
 11 10  1  0
 11 12  2  0
 12  7  1  0
 13 15  1  0
 13  2  1  0
 14 13  2  0
 15 19  1  0
 16 17  1  0
 16 15  1  0
 17 18  1  0
 18 19  1  0
 19 20  1  1
 20 21  2  0
 22 23  1  0
 23 24  2  0
 23 25  1  0
 26 25  1  6
 26 28  1  0
 27 26  1  0
 27 20  1  0
 28 29  2  0
 28 30  1  0
M  END
$$$$
