WPN.pdb
     RDKit          3D

 30 32  0  0  1  0  0  0  0  0999 V2000
    6.7803  -17.2010   23.1358 N   0  0  0  0  0  0  0  0  0  0  0  0
    7.2282  -15.8913   22.8015 C   0  0  1  0  0  0  0  0  0  0  0  0
    8.0502  -15.3080   23.9073 C   0  0  0  0  0  0  0  0  0  0  0  0
    7.3062  -14.8164   25.0702 C   0  0  0  0  0  0  0  0  0  0  0  0
    6.5575  -15.6202   25.9062 C   0  0  0  0  0  0  0  0  0  0  0  0
    6.0451  -14.8687   26.8695 N   0  0  0  0  0  0  0  0  0  0  0  0
    6.4189  -13.5852   26.7162 C   0  0  0  0  0  0  0  0  0  0  0  0
    6.1377  -12.4549   27.4471 C   0  0  0  0  0  0  0  0  0  0  0  0
    6.6675  -11.2379   27.0335 C   0  0  0  0  0  0  0  0  0  0  0  0
    7.4525  -11.1718   25.9199 C   0  0  0  0  0  0  0  0  0  0  0  0
    7.7108  -12.3326   25.2136 C   0  0  0  0  0  0  0  0  0  0  0  0
    7.2211  -13.5488   25.5715 C   0  0  0  0  0  0  0  0  0  0  0  0
    8.0018  -15.7928   21.5385 C   0  0  0  0  0  0  0  0  0  0  0  0
    8.4432  -16.8989   21.0534 O   0  0  0  0  0  0  0  0  0  0  0  0
    8.3004  -14.6284   20.8249 N   0  0  0  0  0  0  0  0  0  0  0  0
    7.9994  -13.2762   21.2241 C   0  0  0  0  0  0  0  0  0  0  0  0
    8.7587  -12.3606   20.2688 C   0  0  0  0  0  0  0  0  0  0  0  0
    8.6565  -13.1861   18.9874 C   0  0  0  0  0  0  0  0  0  0  0  0
    8.9681  -14.5689   19.5497 C   0  0  1  0  0  0  0  0  0  0  0  0
   10.4417  -14.7215   19.6862 C   0  0  0  0  0  0  0  0  0  0  0  0
   11.0283  -14.1750   20.6547 O   0  0  0  0  0  0  0  0  0  0  0  0
   11.9978  -18.2283   19.9925 N   0  0  0  0  0  0  0  0  0  0  0  0
   12.7352  -18.1618   18.7826 C   0  0  0  0  0  0  0  0  0  0  0  0
   13.0542  -19.2299   18.2078 O   0  0  0  0  0  0  0  0  0  0  0  0
   13.1409  -16.8831   18.1750 C   0  0  0  0  0  0  0  0  0  0  0  0
   12.6604  -15.6672   18.9187 C   0  0  2  0  0  0  0  0  0  0  0  0
   11.2377  -15.4582   18.7761 N   0  0  0  0  0  0  0  0  0  0  0  0
   13.4508  -14.4701   18.6343 C   0  0  0  0  0  0  0  0  0  0  0  0
   14.5104  -14.1507   19.1977 O   0  0  0  0  0  0  0  0  0  0  0  0
   12.9725  -13.6000   17.6348 O   0  0  0  0  0  0  0  0  0  0  0  0
  2  1  1  1
  2  3  1  0
  3  4  1  0
  4 12  1  0
  4  5  2  0
  5  6  1  0
  7  8  2  0
  7  6  1  0
  9  8  1  0
 10  9  2  0
 11 10  1  0
 11 12  2  0
 12  7  1  0
 13 15  1  0
 13  2  1  0
 14 13  2  0
 15 19  1  0
 16 17  1  0
 16 15  1  0
 17 18  1  0
 18 19  1  0
 19 20  1  1
 20 21  2  0
 22 23  1  0
 23 24  2  0
 23 25  1  0
 26 25  1  6
 26 28  1  0
 27 26  1  0
 27 20  1  0
 28 29  2  0
 28 30  1  0
M  END
$$$$
