WPN.pdb
     RDKit          3D

 30 32  0  0  1  0  0  0  0  0999 V2000
    6.3460  -18.1280   24.7976 N   0  0  0  0  0  0  0  0  0  0  0  0
    6.7979  -16.8824   24.2761 C   0  0  1  0  0  0  0  0  0  0  0  0
    7.5572  -16.1128   25.3104 C   0  0  0  0  0  0  0  0  0  0  0  0
    6.8308  -15.0166   25.9572 C   0  0  0  0  0  0  0  0  0  0  0  0
    5.5277  -15.1087   26.4032 C   0  0  0  0  0  0  0  0  0  0  0  0
    5.1892  -13.9567   26.9634 N   0  0  0  0  0  0  0  0  0  0  0  0
    6.2152  -13.0876   26.9126 C   0  0  0  0  0  0  0  0  0  0  0  0
    6.3395  -11.7895   27.3487 C   0  0  0  0  0  0  0  0  0  0  0  0
    7.5432  -11.1244   27.1452 C   0  0  0  0  0  0  0  0  0  0  0  0
    8.5807  -11.7539   26.5223 C   0  0  0  0  0  0  0  0  0  0  0  0
    8.4138  -13.0601   26.0994 C   0  0  0  0  0  0  0  0  0  0  0  0
    7.2613  -13.7593   26.2723 C   0  0  0  0  0  0  0  0  0  0  0  0
    7.6336  -16.9770   23.0531 C   0  0  0  0  0  0  0  0  0  0  0  0
    7.9989  -18.1593   22.7030 O   0  0  0  0  0  0  0  0  0  0  0  0
    8.0642  -15.9200   22.2459 N   0  0  0  0  0  0  0  0  0  0  0  0
    7.7779  -14.5204   22.4398 C   0  0  0  0  0  0  0  0  0  0  0  0
    8.6830  -13.7535   21.4806 C   0  0  0  0  0  0  0  0  0  0  0  0
    8.6955  -14.7293   20.3051 C   0  0  0  0  0  0  0  0  0  0  0  0
    8.8785  -16.0395   21.0635 C   0  0  1  0  0  0  0  0  0  0  0  0
   10.3180  -16.2163   21.3954 C   0  0  0  0  0  0  0  0  0  0  0  0
   10.9397  -15.2757   21.9516 O   0  0  0  0  0  0  0  0  0  0  0  0
   12.8683  -16.3703   18.0414 N   0  0  0  0  0  0  0  0  0  0  0  0
   13.0094  -17.3650   19.0427 C   0  0  0  0  0  0  0  0  0  0  0  0
   12.8212  -18.5661   18.7346 O   0  0  0  0  0  0  0  0  0  0  0  0
   13.3695  -17.0395   20.4331 C   0  0  0  0  0  0  0  0  0  0  0  0
   12.4312  -17.6077   21.4622 C   0  0  2  0  0  0  0  0  0  0  0  0
   11.0429  -17.4006   21.1189 N   0  0  0  0  0  0  0  0  0  0  0  0
   12.7560  -17.1941   22.8267 C   0  0  0  0  0  0  0  0  0  0  0  0
   13.7429  -16.5198   23.1639 O   0  0  0  0  0  0  0  0  0  0  0  0
   11.8755  -17.5928   23.8517 O   0  0  0  0  0  0  0  0  0  0  0  0
  2  1  1  1
  2  3  1  0
  3  4  1  0
  4 12  1  0
  4  5  2  0
  5  6  1  0
  7  8  2  0
  7  6  1  0
  9  8  1  0
 10  9  2  0
 11 10  1  0
 11 12  2  0
 12  7  1  0
 13 15  1  0
 13  2  1  0
 14 13  2  0
 15 19  1  0
 16 17  1  0
 16 15  1  0
 17 18  1  0
 18 19  1  0
 19 20  1  1
 20 21  2  0
 22 23  1  0
 23 24  2  0
 23 25  1  0
 26 25  1  6
 26 28  1  0
 27 26  1  0
 27 20  1  0
 28 29  2  0
 28 30  1  0
M  END
$$$$
