CGE.pdb
     RDKit          3D

 20 19  0  0  1  0  0  0  0  0999 V2000
   19.8635  -11.4935  -15.5370 N   0  0  0  0  0  0  0  0  0  0  0  0
   19.0722  -11.9600  -16.6598 C   0  0  1  0  0  0  0  0  0  0  0  0
   17.7703  -12.4848  -16.0921 C   0  0  0  0  0  0  0  0  0  0  0  0
   18.0310  -13.7459  -14.8272 S   0  0  0  0  0  0  0  0  0  0  0  0
   18.8616  -10.8841  -17.6411 C   0  0  0  0  0  0  0  0  0  0  0  0
   18.1809  -11.0375  -18.6709 O   0  0  0  0  0  0  0  0  0  0  0  0
   19.4578   -9.6166  -17.4073 N   0  0  0  0  0  0  0  0  0  0  0  0
   19.2858   -8.5270  -18.3221 C   0  0  0  0  0  0  0  0  0  0  0  0
   19.2071   -7.2551  -17.5283 C   0  0  0  0  0  0  0  0  0  0  0  0
   18.2767   -7.0490  -16.6958 O   0  0  0  0  0  0  0  0  0  0  0  0
   20.1763   -6.2530  -17.6940 N   0  0  0  0  0  0  0  0  0  0  0  0
   20.2103   -5.0883  -16.7864 C   0  0  1  0  0  0  0  0  0  0  0  0
   20.5068   -5.5827  -15.3964 C   0  0  0  0  0  0  0  0  0  0  0  0
   21.8649   -6.2107  -15.2354 C   0  0  0  0  0  0  0  0  0  0  0  0
   22.0819   -6.5901  -13.8023 C   0  0  0  0  0  0  0  0  0  0  0  0
   22.3495   -5.6923  -12.9621 O   0  0  0  0  0  0  0  0  0  0  0  0
   21.2038   -4.1024  -17.2656 C   0  0  0  0  0  0  0  0  0  0  0  0
   21.8997   -4.3016  -18.2591 O   0  0  0  0  0  0  0  0  0  0  0  0
   21.9962   -7.8906  -13.3835 O   0  0  0  0  0  0  0  0  0  0  0  0
   21.3429   -2.9012  -16.5469 O   0  0  0  0  0  0  0  0  0  0  0  0
  2  3  1  0
  2  1  1  1
  4  3  1  0
  5  2  1  0
  5  6  2  0
  7  5  1  0
  8  7  1  0
  9  8  1  0
 10  9  2  0
 11  9  1  0
 12 13  1  1
 12 11  1  0
 13 14  1  0
 15 14  1  0
 15 19  1  0
 16 15  2  0
 17 20  1  0
 17 12  1  0
 18 17  2  0
M  END
$$$$
