CGE.pdb
     RDKit          3D

 20 19  0  0  1  0  0  0  0  0999 V2000
   18.7162  -11.7099  -15.1377 N   0  0  0  0  0  0  0  0  0  0  0  0
   19.3072  -12.2319  -16.3554 C   0  0  1  0  0  0  0  0  0  0  0  0
   18.2334  -13.0393  -17.0539 C   0  0  0  0  0  0  0  0  0  0  0  0
   17.7379  -14.4917  -16.1035 S   0  0  0  0  0  0  0  0  0  0  0  0
   19.8274  -11.1444  -17.1987 C   0  0  0  0  0  0  0  0  0  0  0  0
   20.4636  -11.3525  -18.2472 O   0  0  0  0  0  0  0  0  0  0  0  0
   19.5964   -9.8000  -16.8037 N   0  0  0  0  0  0  0  0  0  0  0  0
   20.0838   -8.6969  -17.5775 C   0  0  0  0  0  0  0  0  0  0  0  0
   19.6269   -7.4254  -16.9229 C   0  0  0  0  0  0  0  0  0  0  0  0
   18.5265   -7.3571  -16.3018 O   0  0  0  0  0  0  0  0  0  0  0  0
   20.4203   -6.2688  -16.9858 N   0  0  0  0  0  0  0  0  0  0  0  0
   20.0244   -5.0496  -16.2523 C   0  0  1  0  0  0  0  0  0  0  0  0
   21.0221   -4.8181  -15.1498 C   0  0  0  0  0  0  0  0  0  0  0  0
   20.9206   -5.7889  -14.0044 C   0  0  0  0  0  0  0  0  0  0  0  0
   21.9601   -5.4685  -12.9741 C   0  0  0  0  0  0  0  0  0  0  0  0
   22.8250   -4.5896  -13.2256 O   0  0  0  0  0  0  0  0  0  0  0  0
   19.9297   -3.9059  -17.1859 C   0  0  0  0  0  0  0  0  0  0  0  0
   19.4880   -2.8119  -16.8409 O   0  0  0  0  0  0  0  0  0  0  0  0
   21.9927   -6.1086  -11.7645 O   0  0  0  0  0  0  0  0  0  0  0  0
   20.3649   -4.0955  -18.5100 O   0  0  0  0  0  0  0  0  0  0  0  0
  2  3  1  0
  2  1  1  1
  4  3  1  0
  5  2  1  0
  5  6  2  0
  7  5  1  0
  8  7  1  0
  9  8  1  0
 10  9  2  0
 11  9  1  0
 12 13  1  1
 12 11  1  0
 13 14  1  0
 15 14  1  0
 15 19  1  0
 16 15  2  0
 17 20  1  0
 17 12  1  0
 18 17  2  0
M  END
$$$$
