CGE.pdb
     RDKit          3D

 20 19  0  0  1  0  0  0  0  0999 V2000
   24.5746  -13.4804  -15.1831 N   0  0  0  0  0  0  0  0  0  0  0  0
   24.7431  -12.0579  -15.4121 C   0  0  1  0  0  0  0  0  0  0  0  0
   25.5160  -11.9095  -16.7057 C   0  0  0  0  0  0  0  0  0  0  0  0
   27.1604  -12.6480  -16.6125 S   0  0  0  0  0  0  0  0  0  0  0  0
   23.4423  -11.3718  -15.4554 C   0  0  0  0  0  0  0  0  0  0  0  0
   22.3768  -11.9662  -15.6978 O   0  0  0  0  0  0  0  0  0  0  0  0
   23.3961   -9.9736  -15.2112 N   0  0  0  0  0  0  0  0  0  0  0  0
   22.1523   -9.2656  -15.1405 C   0  0  0  0  0  0  0  0  0  0  0  0
   22.4344   -7.8654  -14.6779 C   0  0  0  0  0  0  0  0  0  0  0  0
   23.6097   -7.4778  -14.4141 O   0  0  0  0  0  0  0  0  0  0  0  0
   21.3871   -6.9429  -14.5255 N   0  0  0  0  0  0  0  0  0  0  0  0
   21.6772   -5.5078  -14.3309 C   0  0  1  0  0  0  0  0  0  0  0  0
   22.5190   -5.0365  -15.4858 C   0  0  0  0  0  0  0  0  0  0  0  0
   21.8333   -5.1023  -16.8238 C   0  0  0  0  0  0  0  0  0  0  0  0
   22.7411   -4.5622  -17.8863 C   0  0  0  0  0  0  0  0  0  0  0  0
   23.4370   -5.3613  -18.5652 O   0  0  0  0  0  0  0  0  0  0  0  0
   20.4137   -4.7497  -14.1987 C   0  0  0  0  0  0  0  0  0  0  0  0
   19.3251   -5.2294  -14.5078 O   0  0  0  0  0  0  0  0  0  0  0  0
   22.8326   -3.2196  -18.1374 O   0  0  0  0  0  0  0  0  0  0  0  0
   20.4800   -3.4360  -13.7003 O   0  0  0  0  0  0  0  0  0  0  0  0
  2  3  1  0
  2  1  1  6
  4  3  1  0
  5  2  1  0
  5  6  2  0
  7  5  1  0
  8  7  1  0
  9  8  1  0
 10  9  2  0
 11  9  1  0
 12 13  1  6
 12 11  1  0
 13 14  1  0
 15 14  1  0
 15 19  1  0
 16 15  2  0
 17 20  1  0
 17 12  1  0
 18 17  2  0
M  END
$$$$
