CGE.pdb
     RDKit          3D

 20 19  0  0  1  0  0  0  0  0999 V2000
   15.2813   -9.9223   -9.7930 N   0  0  0  0  0  0  0  0  0  0  0  0
   14.2074   -8.9502   -9.7131 C   0  0  1  0  0  0  0  0  0  0  0  0
   13.3780   -9.3106   -8.4986 C   0  0  0  0  0  0  0  0  0  0  0  0
   12.4838  -10.8637   -8.7132 S   0  0  0  0  0  0  0  0  0  0  0  0
   14.7390   -7.5802   -9.6415 C   0  0  0  0  0  0  0  0  0  0  0  0
   14.0103   -6.5837   -9.4884 O   0  0  0  0  0  0  0  0  0  0  0  0
   16.1410   -7.3821   -9.7511 N   0  0  0  0  0  0  0  0  0  0  0  0
   16.7241   -6.0773   -9.6474 C   0  0  0  0  0  0  0  0  0  0  0  0
   18.1792   -6.1834  -10.0017 C   0  0  0  0  0  0  0  0  0  0  0  0
   18.9960   -6.8148   -9.2699 O   0  0  0  0  0  0  0  0  0  0  0  0
   18.6726   -5.5770  -11.1679 N   0  0  0  0  0  0  0  0  0  0  0  0
   20.0265   -5.8987  -11.6625 C   0  0  1  0  0  0  0  0  0  0  0  0
   19.9440   -7.1648  -12.4717 C   0  0  0  0  0  0  0  0  0  0  0  0
   21.2600   -7.6324  -13.0322 C   0  0  0  0  0  0  0  0  0  0  0  0
   21.0890   -8.9742  -13.6766 C   0  0  0  0  0  0  0  0  0  0  0  0
   21.5801   -9.1756  -14.8176 O   0  0  0  0  0  0  0  0  0  0  0  0
   20.5658   -4.7600  -12.4377 C   0  0  0  0  0  0  0  0  0  0  0  0
   19.8372   -3.9414  -12.9945 O   0  0  0  0  0  0  0  0  0  0  0  0
   20.4111   -9.9878  -13.0544 O   0  0  0  0  0  0  0  0  0  0  0  0
   21.9629   -4.6254  -12.5298 O   0  0  0  0  0  0  0  0  0  0  0  0
  2  3  1  0
  2  1  1  1
  4  3  1  0
  5  2  1  0
  5  6  2  0
  7  5  1  0
  8  7  1  0
  9  8  1  0
 10  9  2  0
 11  9  1  0
 12 13  1  6
 12 11  1  0
 13 14  1  0
 15 14  1  0
 15 19  1  0
 16 15  2  0
 17 20  1  0
 17 12  1  0
 18 17  2  0
M  END
$$$$
