CGE.pdb
     RDKit          3D

 20 19  0  0  1  0  0  0  0  0999 V2000
   15.8200  -13.2759  -16.5587 N   0  0  0  0  0  0  0  0  0  0  0  0
   16.7972  -13.0833  -15.5041 C   0  0  1  0  0  0  0  0  0  0  0  0
   17.1306  -14.4556  -14.9579 C   0  0  0  0  0  0  0  0  0  0  0  0
   16.0028  -14.9650  -13.6439 S   0  0  0  0  0  0  0  0  0  0  0  0
   17.9859  -12.3772  -16.0075 C   0  0  0  0  0  0  0  0  0  0  0  0
   18.7648  -12.8796  -16.8372 O   0  0  0  0  0  0  0  0  0  0  0  0
   18.2594  -11.0682  -15.5296 N   0  0  0  0  0  0  0  0  0  0  0  0
   19.4282  -10.3487  -15.9415 C   0  0  0  0  0  0  0  0  0  0  0  0
   19.3497   -8.9608  -15.3746 C   0  0  0  0  0  0  0  0  0  0  0  0
   18.3662   -8.5856  -14.6721 O   0  0  0  0  0  0  0  0  0  0  0  0
   20.3786   -8.0361  -15.6140 N   0  0  0  0  0  0  0  0  0  0  0  0
   20.2788   -6.6560  -15.0976 C   0  0  1  0  0  0  0  0  0  0  0  0
   21.6105   -5.9826  -15.2923 C   0  0  0  0  0  0  0  0  0  0  0  0
   22.7549   -6.6475  -14.5762 C   0  0  0  0  0  0  0  0  0  0  0  0
   24.0145   -5.8672  -14.7984 C   0  0  0  0  0  0  0  0  0  0  0  0
   24.1071   -4.7026  -14.3308 O   0  0  0  0  0  0  0  0  0  0  0  0
   19.1737   -5.9416  -15.7735 C   0  0  0  0  0  0  0  0  0  0  0  0
   18.8950   -6.1320  -16.9554 O   0  0  0  0  0  0  0  0  0  0  0  0
   25.0685   -6.3902  -15.4981 O   0  0  0  0  0  0  0  0  0  0  0  0
   18.4270   -5.0163  -15.0219 O   0  0  0  0  0  0  0  0  0  0  0  0
  2  3  1  0
  2  1  1  6
  4  3  1  0
  5  2  1  0
  5  6  2  0
  7  5  1  0
  8  7  1  0
  9  8  1  0
 10  9  2  0
 11  9  1  0
 12 13  1  6
 12 11  1  0
 13 14  1  0
 15 14  1  0
 15 19  1  0
 16 15  2  0
 17 20  1  0
 17 12  1  0
 18 17  2  0
M  END
$$$$
