CGE.pdb
     RDKit          3D

 20 19  0  0  1  0  0  0  0  0999 V2000
   24.5161  -21.2305  -11.2377 N   0  0  0  0  0  0  0  0  0  0  0  0
   25.5829  -20.2575  -11.0972 C   0  0  1  0  0  0  0  0  0  0  0  0
   26.2338  -20.5101   -9.7536 C   0  0  0  0  0  0  0  0  0  0  0  0
   25.3343  -19.7307   -8.3966 S   0  0  0  0  0  0  0  0  0  0  0  0
   26.5396  -20.3578  -12.2104 C   0  0  0  0  0  0  0  0  0  0  0  0
   27.0819  -21.4289  -12.5362 O   0  0  0  0  0  0  0  0  0  0  0  0
   26.8605  -19.1864  -12.9463 N   0  0  0  0  0  0  0  0  0  0  0  0
   27.8248  -19.2074  -14.0061 C   0  0  0  0  0  0  0  0  0  0  0  0
   27.2126  -19.9078  -15.1846 C   0  0  0  0  0  0  0  0  0  0  0  0
   27.1503  -19.3595  -16.3233 O   0  0  0  0  0  0  0  0  0  0  0  0
   26.6890  -21.2032  -15.0479 N   0  0  0  0  0  0  0  0  0  0  0  0
   26.2122  -21.9458  -16.2323 C   0  0  1  0  0  0  0  0  0  0  0  0
   26.5238  -23.4042  -16.0307 C   0  0  0  0  0  0  0  0  0  0  0  0
   25.9806  -24.3107  -17.1022 C   0  0  0  0  0  0  0  0  0  0  0  0
   26.3731  -25.7278  -16.8149 C   0  0  0  0  0  0  0  0  0  0  0  0
   26.0022  -26.6397  -17.5988 O   0  0  0  0  0  0  0  0  0  0  0  0
   24.7694  -21.6938  -16.4404 C   0  0  0  0  0  0  0  0  0  0  0  0
   23.9811  -21.5809  -15.5040 O   0  0  0  0  0  0  0  0  0  0  0  0
   27.1260  -26.0559  -15.7196 O   0  0  0  0  0  0  0  0  0  0  0  0
   24.3017  -21.5824  -17.7623 O   0  0  0  0  0  0  0  0  0  0  0  0
  2  3  1  0
  2  1  1  6
  4  3  1  0
  5  2  1  0
  5  6  2  0
  7  5  1  0
  8  7  1  0
  9  8  1  0
 10  9  2  0
 11  9  1  0
 12 13  1  1
 12 11  1  0
 13 14  1  0
 15 14  1  0
 15 19  1  0
 16 15  2  0
 17 20  1  0
 17 12  1  0
 18 17  2  0
M  END
$$$$
