CGE.pdb
     RDKit          3D

 20 19  0  0  1  0  0  0  0  0999 V2000
   24.5026  -21.4517  -10.5856 N   0  0  0  0  0  0  0  0  0  0  0  0
   25.5826  -20.4836  -10.5581 C   0  0  1  0  0  0  0  0  0  0  0  0
   26.3560  -20.7244   -9.2787 C   0  0  0  0  0  0  0  0  0  0  0  0
   25.3770  -20.3640   -7.8056 S   0  0  0  0  0  0  0  0  0  0  0  0
   26.4298  -20.6027  -11.7550 C   0  0  0  0  0  0  0  0  0  0  0  0
   27.2971  -19.7615  -12.0510 O   0  0  0  0  0  0  0  0  0  0  0  0
   26.2539  -21.7223  -12.6108 N   0  0  0  0  0  0  0  0  0  0  0  0
   26.9439  -21.8249  -13.8625 C   0  0  0  0  0  0  0  0  0  0  0  0
   25.9221  -21.8396  -14.9625 C   0  0  0  0  0  0  0  0  0  0  0  0
   25.7432  -22.8607  -15.6882 O   0  0  0  0  0  0  0  0  0  0  0  0
   25.1322  -20.7065  -15.2137 N   0  0  0  0  0  0  0  0  0  0  0  0
   23.7062  -20.8531  -15.5692 C   0  0  1  0  0  0  0  0  0  0  0  0
   22.9341  -21.1426  -14.3104 C   0  0  0  0  0  0  0  0  0  0  0  0
   21.9347  -22.2607  -14.4362 C   0  0  0  0  0  0  0  0  0  0  0  0
   20.6796  -21.9046  -13.6996 C   0  0  0  0  0  0  0  0  0  0  0  0
   20.6209  -20.8129  -13.0763 O   0  0  0  0  0  0  0  0  0  0  0  0
   23.2303  -19.6366  -16.2636 C   0  0  0  0  0  0  0  0  0  0  0  0
   23.6484  -18.5151  -15.9837 O   0  0  0  0  0  0  0  0  0  0  0  0
   19.5937  -22.7381  -13.6876 O   0  0  0  0  0  0  0  0  0  0  0  0
   22.2660  -19.7879  -17.2765 O   0  0  0  0  0  0  0  0  0  0  0  0
  2  3  1  0
  2  1  1  6
  4  3  1  0
  5  2  1  0
  5  6  2  0
  7  5  1  0
  8  7  1  0
  9  8  1  0
 10  9  2  0
 11  9  1  0
 12 13  1  1
 12 11  1  0
 13 14  1  0
 15 14  1  0
 15 19  1  0
 16 15  2  0
 17 20  1  0
 17 12  1  0
 18 17  2  0
M  END
$$$$
