CGE.pdb
     RDKit          3D

 20 19  0  0  1  0  0  0  0  0999 V2000
   22.6414  -10.4477  -16.2384 N   0  0  0  0  0  0  0  0  0  0  0  0
   23.0882   -9.7837  -15.0284 C   0  0  1  0  0  0  0  0  0  0  0  0
   23.7784  -10.8319  -14.1813 C   0  0  0  0  0  0  0  0  0  0  0  0
   22.6831  -12.2020  -13.7556 S   0  0  0  0  0  0  0  0  0  0  0  0
   23.9701   -8.6488  -15.3432 C   0  0  0  0  0  0  0  0  0  0  0  0
   24.3729   -7.8507  -14.4783 O   0  0  0  0  0  0  0  0  0  0  0  0
   24.3810   -8.4524  -16.6883 N   0  0  0  0  0  0  0  0  0  0  0  0
   25.2332   -7.3620  -17.0602 C   0  0  0  0  0  0  0  0  0  0  0  0
   24.3664   -6.2078  -17.4730 C   0  0  0  0  0  0  0  0  0  0  0  0
   23.2097   -6.3855  -17.9544 O   0  0  0  0  0  0  0  0  0  0  0  0
   24.8255   -4.8885  -17.3325 N   0  0  0  0  0  0  0  0  0  0  0  0
   23.9271   -3.7503  -17.6129 C   0  0  1  0  0  0  0  0  0  0  0  0
   22.7787   -3.8062  -16.6419 C   0  0  0  0  0  0  0  0  0  0  0  0
   21.8181   -2.6526  -16.7467 C   0  0  0  0  0  0  0  0  0  0  0  0
   20.7261   -2.8079  -15.7327 C   0  0  0  0  0  0  0  0  0  0  0  0
   20.9371   -3.4991  -14.7025 O   0  0  0  0  0  0  0  0  0  0  0  0
   24.6804   -2.4796  -17.5334 C   0  0  0  0  0  0  0  0  0  0  0  0
   24.1935   -1.4052  -17.8789 O   0  0  0  0  0  0  0  0  0  0  0  0
   19.5029   -2.2160  -15.8991 O   0  0  0  0  0  0  0  0  0  0  0  0
   25.9981   -2.5217  -17.0429 O   0  0  0  0  0  0  0  0  0  0  0  0
  2  3  1  0
  2  1  1  6
  4  3  1  0
  5  2  1  0
  5  6  2  0
  7  5  1  0
  8  7  1  0
  9  8  1  0
 10  9  2  0
 11  9  1  0
 12 13  1  1
 12 11  1  0
 13 14  1  0
 15 14  1  0
 15 19  1  0
 16 15  2  0
 17 20  1  0
 17 12  1  0
 18 17  2  0
M  END
$$$$
