CGE.pdb
     RDKit          3D

 20 19  0  0  1  0  0  0  0  0999 V2000
   28.4139  -20.6088  -15.0215 N   0  0  0  0  0  0  0  0  0  0  0  0
   27.6023  -19.8944  -14.0543 C   0  0  1  0  0  0  0  0  0  0  0  0
   26.9891  -18.7156  -14.7803 C   0  0  0  0  0  0  0  0  0  0  0  0
   28.1831  -17.3950  -15.0780 S   0  0  0  0  0  0  0  0  0  0  0  0
   26.5854  -20.7778  -13.4624 C   0  0  0  0  0  0  0  0  0  0  0  0
   26.1476  -21.7848  -14.0470 O   0  0  0  0  0  0  0  0  0  0  0  0
   26.0799  -20.4725  -12.1709 N   0  0  0  0  0  0  0  0  0  0  0  0
   24.9087  -21.1154  -11.6530 C   0  0  0  0  0  0  0  0  0  0  0  0
   23.7235  -20.6394  -12.4423 C   0  0  0  0  0  0  0  0  0  0  0  0
   23.7479  -19.5487  -13.0834 O   0  0  0  0  0  0  0  0  0  0  0  0
   22.5465  -21.4034  -12.4874 N   0  0  0  0  0  0  0  0  0  0  0  0
   21.3746  -20.9270  -13.2496 C   0  0  1  0  0  0  0  0  0  0  0  0
   21.3012  -21.7049  -14.5358 C   0  0  0  0  0  0  0  0  0  0  0  0
   21.1715  -23.1934  -14.3566 C   0  0  0  0  0  0  0  0  0  0  0  0
   20.9982  -23.8520  -15.6912 C   0  0  0  0  0  0  0  0  0  0  0  0
   20.8841  -23.1363  -16.7200 O   0  0  0  0  0  0  0  0  0  0  0  0
   20.1499  -21.0612  -12.4308 C   0  0  0  0  0  0  0  0  0  0  0  0
   20.1448  -21.6430  -11.3480 O   0  0  0  0  0  0  0  0  0  0  0  0
   20.9608  -25.2144  -15.8196 O   0  0  0  0  0  0  0  0  0  0  0  0
   18.9595  -20.4973  -12.9243 O   0  0  0  0  0  0  0  0  0  0  0  0
  2  3  1  0
  2  1  1  6
  4  3  1  0
  5  2  1  0
  5  6  2  0
  7  5  1  0
  8  7  1  0
  9  8  1  0
 10  9  2  0
 11  9  1  0
 12 13  1  6
 12 11  1  0
 13 14  1  0
 15 14  1  0
 15 19  1  0
 16 15  2  0
 17 20  1  0
 17 12  1  0
 18 17  2  0
M  END
$$$$
