CGE.pdb
     RDKit          3D

 20 19  0  0  1  0  0  0  0  0999 V2000
   19.2663  -13.6597  -15.1221 N   0  0  0  0  0  0  0  0  0  0  0  0
   18.2013  -13.6878  -16.1067 C   0  0  1  0  0  0  0  0  0  0  0  0
   16.9530  -14.1584  -15.3905 C   0  0  0  0  0  0  0  0  0  0  0  0
   17.3269  -15.2525  -14.0045 S   0  0  0  0  0  0  0  0  0  0  0  0
   18.0242  -12.3676  -16.7315 C   0  0  0  0  0  0  0  0  0  0  0  0
   17.1524  -12.1417  -17.5896 O   0  0  0  0  0  0  0  0  0  0  0  0
   18.8814  -11.3044  -16.3423 N   0  0  0  0  0  0  0  0  0  0  0  0
   18.8154  -10.0192  -16.9727 C   0  0  0  0  0  0  0  0  0  0  0  0
   18.4930   -8.9965  -15.9218 C   0  0  0  0  0  0  0  0  0  0  0  0
   17.8059   -9.2887  -14.9002 O   0  0  0  0  0  0  0  0  0  0  0  0
   18.9524   -7.6761  -16.0507 N   0  0  0  0  0  0  0  0  0  0  0  0
   18.6055   -6.6613  -15.0352 C   0  0  1  0  0  0  0  0  0  0  0  0
   19.8689   -5.9535  -14.6258 C   0  0  0  0  0  0  0  0  0  0  0  0
   20.8587   -6.8196  -13.8946 C   0  0  0  0  0  0  0  0  0  0  0  0
   22.1050   -6.0377  -13.6113 C   0  0  0  0  0  0  0  0  0  0  0  0
   22.7682   -5.5680  -14.5721 O   0  0  0  0  0  0  0  0  0  0  0  0
   17.5821   -5.7377  -15.5720 C   0  0  0  0  0  0  0  0  0  0  0  0
   17.0245   -4.8965  -14.8703 O   0  0  0  0  0  0  0  0  0  0  0  0
   22.5409   -5.8212  -12.3318 O   0  0  0  0  0  0  0  0  0  0  0  0
   17.2485   -5.8403  -16.9346 O   0  0  0  0  0  0  0  0  0  0  0  0
  2  3  1  0
  2  1  1  1
  4  3  1  0
  5  2  1  0
  5  6  2  0
  7  5  1  0
  8  7  1  0
  9  8  1  0
 10  9  2  0
 11  9  1  0
 12 13  1  6
 12 11  1  0
 13 14  1  0
 15 14  1  0
 15 19  1  0
 16 15  2  0
 17 20  1  0
 17 12  1  0
 18 17  2  0
M  END
$$$$
