CGE.pdb
     RDKit          3D

 20 19  0  0  1  0  0  0  0  0999 V2000
   21.7589  -11.4313  -15.6984 N   0  0  0  0  0  0  0  0  0  0  0  0
   22.6367  -11.1964  -14.5676 C   0  0  1  0  0  0  0  0  0  0  0  0
   23.8653  -12.0558  -14.7790 C   0  0  0  0  0  0  0  0  0  0  0  0
   23.5387  -13.8063  -14.4835 S   0  0  0  0  0  0  0  0  0  0  0  0
   22.9674   -9.7681  -14.4430 C   0  0  0  0  0  0  0  0  0  0  0  0
   23.6190   -9.3100  -13.4875 O   0  0  0  0  0  0  0  0  0  0  0  0
   22.5269   -8.8718  -15.4525 N   0  0  0  0  0  0  0  0  0  0  0  0
   22.7612   -7.4613  -15.3571 C   0  0  0  0  0  0  0  0  0  0  0  0
   21.5771   -6.7476  -15.9425 C   0  0  0  0  0  0  0  0  0  0  0  0
   20.3921   -7.0553  -15.6226 O   0  0  0  0  0  0  0  0  0  0  0  0
   21.7603   -5.7097  -16.8700 N   0  0  0  0  0  0  0  0  0  0  0  0
   20.5981   -4.9749  -17.4092 C   0  0  1  0  0  0  0  0  0  0  0  0
   19.9319   -4.2476  -16.2725 C   0  0  0  0  0  0  0  0  0  0  0  0
   18.7094   -3.4635  -16.6665 C   0  0  0  0  0  0  0  0  0  0  0  0
   18.1001   -2.8301  -15.4531 C   0  0  0  0  0  0  0  0  0  0  0  0
   17.2779   -3.4874  -14.7635 O   0  0  0  0  0  0  0  0  0  0  0  0
   21.0325   -4.0655  -18.4921 C   0  0  0  0  0  0  0  0  0  0  0  0
   22.1952   -3.6817  -18.6000 O   0  0  0  0  0  0  0  0  0  0  0  0
   18.4157   -1.5526  -15.0754 O   0  0  0  0  0  0  0  0  0  0  0  0
   20.0679   -3.6357  -19.4213 O   0  0  0  0  0  0  0  0  0  0  0  0
  2  3  1  0
  2  1  1  6
  4  3  1  0
  5  2  1  0
  5  6  2  0
  7  5  1  0
  8  7  1  0
  9  8  1  0
 10  9  2  0
 11  9  1  0
 12 13  1  1
 12 11  1  0
 13 14  1  0
 15 14  1  0
 15 19  1  0
 16 15  2  0
 17 20  1  0
 17 12  1  0
 18 17  2  0
M  END
$$$$
