CGE.pdb
     RDKit          3D

 20 19  0  0  1  0  0  0  0  0999 V2000
   22.2418  -13.5937  -17.8103 N   0  0  0  0  0  0  0  0  0  0  0  0
   21.0591  -13.1039  -18.4928 C   0  0  1  0  0  0  0  0  0  0  0  0
   19.8665  -13.5147  -17.6552 C   0  0  0  0  0  0  0  0  0  0  0  0
   20.0825  -15.1412  -16.9030 S   0  0  0  0  0  0  0  0  0  0  0  0
   21.1286  -11.6477  -18.6916 C   0  0  0  0  0  0  0  0  0  0  0  0
   20.2536  -11.0105  -19.3046 O   0  0  0  0  0  0  0  0  0  0  0  0
   22.2383  -10.9359  -18.1636 N   0  0  0  0  0  0  0  0  0  0  0  0
   22.2977   -9.5046  -18.2017 C   0  0  0  0  0  0  0  0  0  0  0  0
   22.1679   -8.9915  -16.7967 C   0  0  0  0  0  0  0  0  0  0  0  0
   22.2058   -9.7700  -15.7998 O   0  0  0  0  0  0  0  0  0  0  0  0
   21.9994   -7.6189  -16.5543 N   0  0  0  0  0  0  0  0  0  0  0  0
   21.9235   -7.1078  -15.1707 C   0  0  1  0  0  0  0  0  0  0  0  0
   22.1532   -5.6210  -15.2044 C   0  0  0  0  0  0  0  0  0  0  0  0
   22.1296   -4.9566  -13.8544 C   0  0  0  0  0  0  0  0  0  0  0  0
   22.2655   -3.4733  -14.0163 C   0  0  0  0  0  0  0  0  0  0  0  0
   22.7961   -3.0147  -15.0613 O   0  0  0  0  0  0  0  0  0  0  0  0
   20.6221   -7.4708  -14.5680 C   0  0  0  0  0  0  0  0  0  0  0  0
   19.5948   -7.5709  -15.2354 O   0  0  0  0  0  0  0  0  0  0  0  0
   21.8263   -2.6033  -13.0549 O   0  0  0  0  0  0  0  0  0  0  0  0
   20.5781   -7.7059  -13.1818 O   0  0  0  0  0  0  0  0  0  0  0  0
  2  3  1  0
  2  1  1  1
  4  3  1  0
  5  2  1  0
  5  6  2  0
  7  5  1  0
  8  7  1  0
  9  8  1  0
 10  9  2  0
 11  9  1  0
 12 13  1  6
 12 11  1  0
 13 14  1  0
 15 14  1  0
 15 19  1  0
 16 15  2  0
 17 20  1  0
 17 12  1  0
 18 17  2  0
M  END
$$$$
