CGE.pdb
     RDKit          3D

 20 19  0  0  1  0  0  0  0  0999 V2000
   27.5586  -21.5904  -12.3595 N   0  0  0  0  0  0  0  0  0  0  0  0
   27.9693  -21.4886  -10.9719 C   0  0  1  0  0  0  0  0  0  0  0  0
   29.2819  -20.7338  -10.9564 C   0  0  0  0  0  0  0  0  0  0  0  0
   30.5977  -21.6255  -11.8118 S   0  0  0  0  0  0  0  0  0  0  0  0
   26.9342  -20.8282  -10.1614 C   0  0  0  0  0  0  0  0  0  0  0  0
   27.1755  -20.3068   -9.0581 O   0  0  0  0  0  0  0  0  0  0  0  0
   25.6033  -20.7815  -10.6546 N   0  0  0  0  0  0  0  0  0  0  0  0
   24.5834  -20.0260   -9.9895 C   0  0  0  0  0  0  0  0  0  0  0  0
   23.3228  -20.1239  -10.7990 C   0  0  0  0  0  0  0  0  0  0  0  0
   22.2445  -19.5836  -10.4160 O   0  0  0  0  0  0  0  0  0  0  0  0
   23.3117  -20.8262  -12.0147 N   0  0  0  0  0  0  0  0  0  0  0  0
   22.5673  -20.2987  -13.1762 C   0  0  1  0  0  0  0  0  0  0  0  0
   23.4075  -20.5050  -14.4075 C   0  0  0  0  0  0  0  0  0  0  0  0
   22.7517  -20.0674  -15.6893 C   0  0  0  0  0  0  0  0  0  0  0  0
   23.6607  -20.3492  -16.8464 C   0  0  0  0  0  0  0  0  0  0  0  0
   24.7717  -20.9014  -16.6355 O   0  0  0  0  0  0  0  0  0  0  0  0
   21.2453  -20.9558  -13.2705 C   0  0  0  0  0  0  0  0  0  0  0  0
   20.3608  -20.5464  -14.0195 O   0  0  0  0  0  0  0  0  0  0  0  0
   23.3127  -20.0206  -18.1289 O   0  0  0  0  0  0  0  0  0  0  0  0
   21.0104  -22.0869  -12.4680 O   0  0  0  0  0  0  0  0  0  0  0  0
  2  3  1  0
  2  1  1  6
  4  3  1  0
  5  2  1  0
  5  6  2  0
  7  5  1  0
  8  7  1  0
  9  8  1  0
 10  9  2  0
 11  9  1  0
 12 13  1  6
 12 11  1  0
 13 14  1  0
 15 14  1  0
 15 19  1  0
 16 15  2  0
 17 20  1  0
 17 12  1  0
 18 17  2  0
M  END
$$$$
