CGE.pdb
     RDKit          3D

 20 19  0  0  1  0  0  0  0  0999 V2000
   26.2182  -13.4312  -15.8930 N   0  0  0  0  0  0  0  0  0  0  0  0
   26.9200  -12.1633  -15.9589 C   0  0  1  0  0  0  0  0  0  0  0  0
   28.2556  -12.4341  -16.6188 C   0  0  0  0  0  0  0  0  0  0  0  0
   29.2619  -13.6020  -15.6799 S   0  0  0  0  0  0  0  0  0  0  0  0
   26.1293  -11.1588  -16.6872 C   0  0  0  0  0  0  0  0  0  0  0  0
   25.3182  -11.4607  -17.5807 O   0  0  0  0  0  0  0  0  0  0  0  0
   26.2953   -9.7868  -16.3602 N   0  0  0  0  0  0  0  0  0  0  0  0
   25.5511   -8.7613  -17.0293 C   0  0  0  0  0  0  0  0  0  0  0  0
   24.4454   -8.3125  -16.1181 C   0  0  0  0  0  0  0  0  0  0  0  0
   24.2941   -8.8089  -14.9640 O   0  0  0  0  0  0  0  0  0  0  0  0
   23.5431   -7.3195  -16.5312 N   0  0  0  0  0  0  0  0  0  0  0  0
   22.4600   -6.8725  -15.6321 C   0  0  1  0  0  0  0  0  0  0  0  0
   21.8938   -5.5895  -16.1780 C   0  0  0  0  0  0  0  0  0  0  0  0
   22.8725   -4.4472  -16.2246 C   0  0  0  0  0  0  0  0  0  0  0  0
   22.2397   -3.2135  -15.6569 C   0  0  0  0  0  0  0  0  0  0  0  0
   21.3458   -2.6218  -16.3160 O   0  0  0  0  0  0  0  0  0  0  0  0
   21.4402   -7.9361  -15.5008 C   0  0  0  0  0  0  0  0  0  0  0  0
   21.1722   -8.7056  -16.4210 O   0  0  0  0  0  0  0  0  0  0  0  0
   22.6101   -2.7132  -14.4376 O   0  0  0  0  0  0  0  0  0  0  0  0
   20.7642   -8.0560  -14.2731 O   0  0  0  0  0  0  0  0  0  0  0  0
  2  3  1  0
  2  1  1  6
  4  3  1  0
  5  2  1  0
  5  6  2  0
  7  5  1  0
  8  7  1  0
  9  8  1  0
 10  9  2  0
 11  9  1  0
 12 13  1  6
 12 11  1  0
 13 14  1  0
 15 14  1  0
 15 19  1  0
 16 15  2  0
 17 20  1  0
 17 12  1  0
 18 17  2  0
M  END
$$$$
