CGE.pdb
     RDKit          3D

 20 19  0  0  1  0  0  0  0  0999 V2000
   17.9165  -10.4407  -17.1932 N   0  0  0  0  0  0  0  0  0  0  0  0
   19.0311  -10.9171  -17.9902 C   0  0  1  0  0  0  0  0  0  0  0  0
   18.8370  -10.3698  -19.3886 C   0  0  0  0  0  0  0  0  0  0  0  0
   17.9890  -11.5380  -20.4723 S   0  0  0  0  0  0  0  0  0  0  0  0
   20.3154  -10.5062  -17.4016 C   0  0  0  0  0  0  0  0  0  0  0  0
   21.4126  -10.8246  -17.8935 O   0  0  0  0  0  0  0  0  0  0  0  0
   20.3071   -9.7133  -16.2234 N   0  0  0  0  0  0  0  0  0  0  0  0
   21.5194   -9.2027  -15.6549 C   0  0  0  0  0  0  0  0  0  0  0  0
   21.5329   -7.7126  -15.8379 C   0  0  0  0  0  0  0  0  0  0  0  0
   21.8047   -7.1837  -16.9549 O   0  0  0  0  0  0  0  0  0  0  0  0
   21.2407   -6.8617  -14.7602 N   0  0  0  0  0  0  0  0  0  0  0  0
   21.1906   -5.3985  -14.9550 C   0  0  1  0  0  0  0  0  0  0  0  0
   19.7740   -4.9419  -14.7331 C   0  0  0  0  0  0  0  0  0  0  0  0
   18.8229   -5.3015  -15.8425 C   0  0  0  0  0  0  0  0  0  0  0  0
   17.4607   -4.7559  -15.5399 C   0  0  0  0  0  0  0  0  0  0  0  0
   17.1406   -3.6216  -15.9809 O   0  0  0  0  0  0  0  0  0  0  0  0
   22.1530   -4.7342  -14.0489 C   0  0  0  0  0  0  0  0  0  0  0  0
   22.5400   -5.2564  -13.0056 O   0  0  0  0  0  0  0  0  0  0  0  0
   16.5545   -5.4614  -14.7948 O   0  0  0  0  0  0  0  0  0  0  0  0
   22.6309   -3.4615  -14.4100 O   0  0  0  0  0  0  0  0  0  0  0  0
  2  3  1  0
  2  1  1  1
  4  3  1  0
  5  2  1  0
  5  6  2  0
  7  5  1  0
  8  7  1  0
  9  8  1  0
 10  9  2  0
 11  9  1  0
 12 13  1  1
 12 11  1  0
 13 14  1  0
 15 14  1  0
 15 19  1  0
 16 15  2  0
 17 20  1  0
 17 12  1  0
 18 17  2  0
M  END
$$$$
