CGE.pdb
     RDKit          3D

 20 19  0  0  1  0  0  0  0  0999 V2000
   29.0252  -19.9699  -12.7961 N   0  0  0  0  0  0  0  0  0  0  0  0
   28.4523  -20.8399  -11.7865 C   0  0  1  0  0  0  0  0  0  0  0  0
   29.4223  -20.8625  -10.6240 C   0  0  0  0  0  0  0  0  0  0  0  0
   30.8988  -21.8381  -10.9797 S   0  0  0  0  0  0  0  0  0  0  0  0
   27.1131  -20.3781  -11.3891 C   0  0  0  0  0  0  0  0  0  0  0  0
   26.8255  -19.1738  -11.2696 O   0  0  0  0  0  0  0  0  0  0  0  0
   26.1039  -21.3432  -11.1302 N   0  0  0  0  0  0  0  0  0  0  0  0
   24.7741  -20.9569  -10.7617 C   0  0  0  0  0  0  0  0  0  0  0  0
   23.9684  -20.7895  -12.0175 C   0  0  0  0  0  0  0  0  0  0  0  0
   24.5183  -20.7289  -13.1555 O   0  0  0  0  0  0  0  0  0  0  0  0
   22.5690  -20.6952  -11.9566 N   0  0  0  0  0  0  0  0  0  0  0  0
   21.7670  -20.6640  -13.1964 C   0  0  1  0  0  0  0  0  0  0  0  0
   21.0826  -21.9957  -13.3484 C   0  0  0  0  0  0  0  0  0  0  0  0
   20.1984  -22.1064  -14.5611 C   0  0  0  0  0  0  0  0  0  0  0  0
   19.7135  -23.5163  -14.7085 C   0  0  0  0  0  0  0  0  0  0  0  0
   20.1434  -24.3999  -13.9223 O   0  0  0  0  0  0  0  0  0  0  0  0
   20.8135  -19.5338  -13.1539 C   0  0  0  0  0  0  0  0  0  0  0  0
   20.4241  -19.0431  -12.0964 O   0  0  0  0  0  0  0  0  0  0  0  0
   18.8134  -23.8679  -15.6782 O   0  0  0  0  0  0  0  0  0  0  0  0
   20.3472  -19.0158  -14.3758 O   0  0  0  0  0  0  0  0  0  0  0  0
  2  3  1  0
  2  1  1  6
  4  3  1  0
  5  2  1  0
  5  6  2  0
  7  5  1  0
  8  7  1  0
  9  8  1  0
 10  9  2  0
 11  9  1  0
 12 13  1  1
 12 11  1  0
 13 14  1  0
 15 14  1  0
 15 19  1  0
 16 15  2  0
 17 20  1  0
 17 12  1  0
 18 17  2  0
M  END
$$$$
