FNK.pdb
     RDKit          3D

 29 29  0  0  1  0  0  0  0  0999 V2000
   27.9062  -20.8624  -15.7101 N   0  0  0  0  0  0  0  0  0  0  0  0
   27.0979  -19.9055  -15.0254 C   0  0  1  0  0  0  0  0  0  0  0  0
   26.2602  -19.0606  -15.9985 C   0  0  0  0  0  0  0  0  0  0  0  0
   27.1235  -18.0443  -16.6469 C   0  0  0  0  0  0  0  0  0  0  0  0
   27.7090  -18.3574  -17.8670 C   0  0  0  0  0  0  0  0  0  0  0  0
   28.5250  -17.4481  -18.5200 C   0  0  0  0  0  0  0  0  0  0  0  0
   28.7678  -16.2123  -17.9635 C   0  0  0  0  0  0  0  0  0  0  0  0
   28.1763  -15.9066  -16.7389 C   0  0  0  0  0  0  0  0  0  0  0  0
   27.3594  -16.8223  -16.0885 C   0  0  0  0  0  0  0  0  0  0  0  0
   26.1381  -20.5229  -14.0769 C   0  0  0  0  0  0  0  0  0  0  0  0
   25.6323  -21.6524  -14.2805 O   0  0  0  0  0  0  0  0  0  0  0  0
   27.1731  -21.3386   -9.8979 N   0  0  0  0  0  0  0  0  0  0  0  0
   25.7667  -21.2262   -9.8194 C   0  0  0  0  0  0  0  0  0  0  0  0
   25.1316  -22.0936   -9.1669 O   0  0  0  0  0  0  0  0  0  0  0  0
   25.0713  -20.0898  -10.5027 C   0  0  0  0  0  0  0  0  0  0  0  0
   24.8053  -20.4266  -11.9431 C   0  0  2  0  0  0  0  0  0  0  0  0
   25.7241  -19.8805  -12.8707 N   0  0  0  0  0  0  0  0  0  0  0  0
   23.4416  -19.9388  -12.2567 C   0  0  0  0  0  0  0  0  0  0  0  0
   23.2848  -18.7834  -12.7359 O   0  0  0  0  0  0  0  0  0  0  0  0
   22.2692  -20.7067  -12.0470 N   0  0  0  0  0  0  0  0  0  0  0  0
   21.1952  -20.7029  -13.0167 C   0  0  1  0  0  0  0  0  0  0  0  0
   21.6637  -21.1717  -14.3773 C   0  0  0  0  0  0  0  0  0  0  0  0
   20.4439  -21.1939  -15.2881 C   0  0  0  0  0  0  0  0  0  0  0  0
   20.8424  -21.7169  -16.6560 C   0  0  0  0  0  0  0  0  0  0  0  0
   19.6665  -21.6290  -17.5886 C   0  0  0  0  0  0  0  0  0  0  0  0
   19.9879  -22.3030  -18.8395 N   0  0  0  0  0  0  0  0  0  0  0  0
   20.1107  -21.5698  -12.4970 C   0  0  0  0  0  0  0  0  0  0  0  0
   20.3810  -22.8037  -11.8842 O   0  0  0  0  0  0  0  0  0  0  0  0
   18.9216  -21.2269  -12.5895 O   0  0  0  0  0  0  0  0  0  0  0  0
  2  1  1  6
  2  3  1  0
  2 10  1  0
  3  4  1  0
  4  9  2  0
  5  6  2  0
  5  4  1  0
  6  7  1  0
  7  8  2  0
  9  8  1  0
 10 17  1  0
 10 11  2  0
 13 15  1  0
 13 12  1  0
 14 13  2  0
 16 15  1  1
 16 18  1  0
 17 16  1  0
 18 19  2  0
 20 18  1  0
 20 21  1  0
 21 27  1  0
 21 22  1  6
 23 22  1  0
 24 23  1  0
 25 24  1  0
 26 25  1  0
 27 29  2  0
 27 28  1  0
M  END
$$$$
