FNK.pdb
     RDKit          3D

 29 29  0  0  1  0  0  0  0  0999 V2000
   27.1525  -11.9441  -15.8952 N   0  0  0  0  0  0  0  0  0  0  0  0
   26.6561  -10.6213  -16.0985 C   0  0  1  0  0  0  0  0  0  0  0  0
   26.9376  -10.1150  -17.5222 C   0  0  0  0  0  0  0  0  0  0  0  0
   28.3972   -9.9299  -17.7062 C   0  0  0  0  0  0  0  0  0  0  0  0
   28.9417   -8.6790  -17.4456 C   0  0  0  0  0  0  0  0  0  0  0  0
   30.2987   -8.4463  -17.5997 C   0  0  0  0  0  0  0  0  0  0  0  0
   31.1316   -9.4605  -18.0163 C   0  0  0  0  0  0  0  0  0  0  0  0
   30.5766  -10.7127  -18.2756 C   0  0  0  0  0  0  0  0  0  0  0  0
   29.2154  -10.9400  -18.1199 C   0  0  0  0  0  0  0  0  0  0  0  0
   25.1898  -10.5100  -15.8989 C   0  0  0  0  0  0  0  0  0  0  0  0
   24.4345  -11.5106  -15.9318 O   0  0  0  0  0  0  0  0  0  0  0  0
   20.4858   -9.2654  -14.8241 N   0  0  0  0  0  0  0  0  0  0  0  0
   21.3355   -9.0614  -13.7135 C   0  0  0  0  0  0  0  0  0  0  0  0
   20.8177   -8.9730  -12.5709 O   0  0  0  0  0  0  0  0  0  0  0  0
   22.8154   -8.9596  -13.9172 C   0  0  0  0  0  0  0  0  0  0  0  0
   23.1577   -9.1203  -15.3718 C   0  0  2  0  0  0  0  0  0  0  0  0
   24.5368   -9.2637  -15.6555 N   0  0  0  0  0  0  0  0  0  0  0  0
   22.6330   -7.9255  -16.0742 C   0  0  0  0  0  0  0  0  0  0  0  0
   23.2019   -6.8107  -15.9236 O   0  0  0  0  0  0  0  0  0  0  0  0
   21.5019   -7.9543  -16.9273 N   0  0  0  0  0  0  0  0  0  0  0  0
   21.1038   -6.7799  -17.6733 C   0  0  1  0  0  0  0  0  0  0  0  0
   20.1448   -7.1227  -18.7928 C   0  0  0  0  0  0  0  0  0  0  0  0
   20.9467   -7.8513  -19.8624 C   0  0  0  0  0  0  0  0  0  0  0  0
   20.0372   -8.2042  -21.0250 C   0  0  0  0  0  0  0  0  0  0  0  0
   20.8115   -8.9889  -22.0473 C   0  0  0  0  0  0  0  0  0  0  0  0
   19.9300   -9.3547  -23.1478 N   0  0  0  0  0  0  0  0  0  0  0  0
   20.4931   -5.8220  -16.7209 C   0  0  0  0  0  0  0  0  0  0  0  0
   19.6635   -6.2504  -15.6723 O   0  0  0  0  0  0  0  0  0  0  0  0
   20.6994   -4.6026  -16.8236 O   0  0  0  0  0  0  0  0  0  0  0  0
  2  1  1  6
  2  3  1  0
  2 10  1  0
  3  4  1  0
  4  9  2  0
  5  6  2  0
  5  4  1  0
  6  7  1  0
  7  8  2  0
  9  8  1  0
 10 17  1  0
 10 11  2  0
 13 15  1  0
 13 12  1  0
 14 13  2  0
 16 15  1  1
 16 18  1  0
 17 16  1  0
 18 19  2  0
 20 18  1  0
 20 21  1  0
 21 27  1  0
 21 22  1  6
 23 22  1  0
 24 23  1  0
 25 24  1  0
 26 25  1  0
 27 29  2  0
 27 28  1  0
M  END
$$$$
