FNK.pdb
     RDKit          3D

 29 29  0  0  1  0  0  0  0  0999 V2000
   28.9366  -29.4203  -16.1964 N   0  0  0  0  0  0  0  0  0  0  0  0
   28.3647  -28.4938  -17.1194 C   0  0  1  0  0  0  0  0  0  0  0  0
   27.0009  -28.9724  -17.6425 C   0  0  0  0  0  0  0  0  0  0  0  0
   27.1929  -30.1297  -18.5495 C   0  0  0  0  0  0  0  0  0  0  0  0
   27.4999  -29.8805  -19.8810 C   0  0  0  0  0  0  0  0  0  0  0  0
   27.6905  -30.9214  -20.7751 C   0  0  0  0  0  0  0  0  0  0  0  0
   27.5773  -32.2267  -20.3516 C   0  0  0  0  0  0  0  0  0  0  0  0
   27.2688  -32.4675  -19.0137 C   0  0  0  0  0  0  0  0  0  0  0  0
   27.0784  -31.4199  -18.1219 C   0  0  0  0  0  0  0  0  0  0  0  0
   28.1377  -27.1494  -16.5335 C   0  0  0  0  0  0  0  0  0  0  0  0
   28.3407  -26.9080  -15.3197 O   0  0  0  0  0  0  0  0  0  0  0  0
   28.9667  -21.6680  -16.1393 N   0  0  0  0  0  0  0  0  0  0  0  0
   28.0882  -22.3183  -17.0349 C   0  0  0  0  0  0  0  0  0  0  0  0
   27.0497  -21.7117  -17.4024 O   0  0  0  0  0  0  0  0  0  0  0  0
   28.4095  -23.6965  -17.5240 C   0  0  0  0  0  0  0  0  0  0  0  0
   27.5595  -24.7157  -16.8186 C   0  0  2  0  0  0  0  0  0  0  0  0
   27.6758  -26.0398  -17.3045 N   0  0  0  0  0  0  0  0  0  0  0  0
   26.1526  -24.2675  -16.9450 C   0  0  0  0  0  0  0  0  0  0  0  0
   25.4703  -24.6212  -17.9443 O   0  0  0  0  0  0  0  0  0  0  0  0
   25.5057  -23.4441  -15.9903 N   0  0  0  0  0  0  0  0  0  0  0  0
   24.0823  -23.5565  -15.7549 C   0  0  1  0  0  0  0  0  0  0  0  0
   23.7818  -24.1393  -14.3909 C   0  0  0  0  0  0  0  0  0  0  0  0
   22.2668  -24.1784  -14.2442 C   0  0  0  0  0  0  0  0  0  0  0  0
   21.7439  -25.5134  -14.7422 C   0  0  0  0  0  0  0  0  0  0  0  0
   20.2411  -25.5112  -14.6982 C   0  0  0  0  0  0  0  0  0  0  0  0
   19.7389  -26.7774  -15.2146 N   0  0  0  0  0  0  0  0  0  0  0  0
   23.4894  -22.2057  -15.9014 C   0  0  0  0  0  0  0  0  0  0  0  0
   22.1729  -22.0220  -16.3535 O   0  0  0  0  0  0  0  0  0  0  0  0
   24.1454  -21.1889  -15.6262 O   0  0  0  0  0  0  0  0  0  0  0  0
  2  1  1  1
  2  3  1  0
  2 10  1  0
  3  4  1  0
  4  9  2  0
  5  6  2  0
  5  4  1  0
  6  7  1  0
  7  8  2  0
  9  8  1  0
 10 17  1  0
 10 11  2  0
 13 15  1  0
 13 12  1  0
 14 13  2  0
 16 15  1  6
 16 18  1  0
 17 16  1  0
 18 19  2  0
 20 18  1  0
 20 21  1  0
 21 27  1  0
 21 22  1  1
 23 22  1  0
 24 23  1  0
 25 24  1  0
 26 25  1  0
 27 29  2  0
 27 28  1  0
M  END
$$$$
