FNK.pdb
     RDKit          3D

 29 29  0  0  1  0  0  0  0  0999 V2000
   28.0355  -20.3452  -15.6199 N   0  0  0  0  0  0  0  0  0  0  0  0
   27.1361  -19.5566  -14.8409 C   0  0  1  0  0  0  0  0  0  0  0  0
   26.2646  -18.6443  -15.7189 C   0  0  0  0  0  0  0  0  0  0  0  0
   27.0565  -17.4699  -16.1576 C   0  0  0  0  0  0  0  0  0  0  0  0
   27.0681  -16.3419  -15.3472 C   0  0  0  0  0  0  0  0  0  0  0  0
   27.7897  -15.2148  -15.7051 C   0  0  0  0  0  0  0  0  0  0  0  0
   28.5106  -15.1985  -16.8781 C   0  0  0  0  0  0  0  0  0  0  0  0
   28.4933  -16.3348  -17.6853 C   0  0  0  0  0  0  0  0  0  0  0  0
   27.7676  -17.4618  -17.3216 C   0  0  0  0  0  0  0  0  0  0  0  0
   26.1993  -20.3706  -14.0273 C   0  0  0  0  0  0  0  0  0  0  0  0
   25.7851  -21.4911  -14.4089 O   0  0  0  0  0  0  0  0  0  0  0  0
   26.9693  -21.8023  -10.6678 N   0  0  0  0  0  0  0  0  0  0  0  0
   26.1336  -20.9818   -9.8770 C   0  0  0  0  0  0  0  0  0  0  0  0
   26.4593  -20.7707   -8.6809 O   0  0  0  0  0  0  0  0  0  0  0  0
   24.8960  -20.3858  -10.4729 C   0  0  0  0  0  0  0  0  0  0  0  0
   24.8229  -20.6883  -11.9433 C   0  0  2  0  0  0  0  0  0  0  0  0
   25.7055  -19.9403  -12.7584 N   0  0  0  0  0  0  0  0  0  0  0  0
   23.4262  -20.4335  -12.3683 C   0  0  0  0  0  0  0  0  0  0  0  0
   23.0414  -19.2515  -12.5781 O   0  0  0  0  0  0  0  0  0  0  0  0
   22.4678  -21.4596  -12.5593 N   0  0  0  0  0  0  0  0  0  0  0  0
   21.1599  -21.1629  -13.1030 C   0  0  1  0  0  0  0  0  0  0  0  0
   20.9486  -21.8186  -14.4505 C   0  0  0  0  0  0  0  0  0  0  0  0
   19.5289  -21.4894  -14.8913 C   0  0  0  0  0  0  0  0  0  0  0  0
   19.2526  -22.1381  -16.2353 C   0  0  0  0  0  0  0  0  0  0  0  0
   17.9163  -21.6784  -16.7487 C   0  0  0  0  0  0  0  0  0  0  0  0
   17.6341  -22.3316  -18.0198 N   0  0  0  0  0  0  0  0  0  0  0  0
   20.1460  -21.6184  -12.1221 C   0  0  0  0  0  0  0  0  0  0  0  0
   20.4325  -22.6097  -11.1699 O   0  0  0  0  0  0  0  0  0  0  0  0
   19.0042  -21.1324  -12.1140 O   0  0  0  0  0  0  0  0  0  0  0  0
  2  1  1  6
  2  3  1  0
  2 10  1  0
  3  4  1  0
  4  9  2  0
  5  6  2  0
  5  4  1  0
  6  7  1  0
  7  8  2  0
  9  8  1  0
 10 17  1  0
 10 11  2  0
 13 15  1  0
 13 12  1  0
 14 13  2  0
 16 15  1  1
 16 18  1  0
 17 16  1  0
 18 19  2  0
 20 18  1  0
 20 21  1  0
 21 27  1  0
 21 22  1  6
 23 22  1  0
 24 23  1  0
 25 24  1  0
 26 25  1  0
 27 29  2  0
 27 28  1  0
M  END
$$$$
