FNK.pdb
     RDKit          3D

 29 29  0  0  1  0  0  0  0  0999 V2000
   22.5668  -20.4465  -19.0656 N   0  0  0  0  0  0  0  0  0  0  0  0
   23.3989  -19.6867  -18.1893 C   0  0  1  0  0  0  0  0  0  0  0  0
   22.7230  -18.3794  -17.7459 C   0  0  0  0  0  0  0  0  0  0  0  0
   22.6895  -17.4255  -18.8808 C   0  0  0  0  0  0  0  0  0  0  0  0
   21.5134  -17.3093  -19.6105 C   0  0  0  0  0  0  0  0  0  0  0  0
   21.4226  -16.4348  -20.6811 C   0  0  0  0  0  0  0  0  0  0  0  0
   22.5058  -15.6634  -21.0381 C   0  0  0  0  0  0  0  0  0  0  0  0
   23.6821  -15.7866  -20.3004 C   0  0  0  0  0  0  0  0  0  0  0  0
   23.7675  -16.6653  -19.2282 C   0  0  0  0  0  0  0  0  0  0  0  0
   23.7561  -20.4137  -16.9459 C   0  0  0  0  0  0  0  0  0  0  0  0
   22.9471  -21.1734  -16.3618 O   0  0  0  0  0  0  0  0  0  0  0  0
   26.7125  -22.8377  -16.7927 N   0  0  0  0  0  0  0  0  0  0  0  0
   27.5430  -22.0760  -15.9400 C   0  0  0  0  0  0  0  0  0  0  0  0
   28.7884  -22.2298  -16.0224 O   0  0  0  0  0  0  0  0  0  0  0  0
   26.9312  -21.1118  -14.9716 C   0  0  0  0  0  0  0  0  0  0  0  0
   25.4456  -21.0267  -15.1828 C   0  0  2  0  0  0  0  0  0  0  0  0
   25.0390  -20.3026  -16.3288 N   0  0  0  0  0  0  0  0  0  0  0  0
   24.8721  -20.3933  -13.9720 C   0  0  0  0  0  0  0  0  0  0  0  0
   25.0347  -19.1588  -13.7746 O   0  0  0  0  0  0  0  0  0  0  0  0
   24.1329  -21.1037  -12.9938 N   0  0  0  0  0  0  0  0  0  0  0  0
   23.5689  -20.4220  -11.8487 C   0  0  1  0  0  0  0  0  0  0  0  0
   22.1107  -20.7730  -11.6468 C   0  0  0  0  0  0  0  0  0  0  0  0
   21.3465  -20.2164  -12.8403 C   0  0  0  0  0  0  0  0  0  0  0  0
   19.8707  -20.5380  -12.6916 C   0  0  0  0  0  0  0  0  0  0  0  0
   19.1313  -20.0782  -13.9173 C   0  0  0  0  0  0  0  0  0  0  0  0
   17.7227  -20.4287  -13.7942 N   0  0  0  0  0  0  0  0  0  0  0  0
   24.3759  -20.7867  -10.6598 C   0  0  0  0  0  0  0  0  0  0  0  0
   24.2453  -20.1032   -9.4404 O   0  0  0  0  0  0  0  0  0  0  0  0
   25.1978  -21.7152  -10.7083 O   0  0  0  0  0  0  0  0  0  0  0  0
  2  1  1  6
  2  3  1  0
  2 10  1  0
  3  4  1  0
  4  9  2  0
  5  6  2  0
  5  4  1  0
  6  7  1  0
  7  8  2  0
  9  8  1  0
 10 17  1  0
 10 11  2  0
 13 15  1  0
 13 12  1  0
 14 13  2  0
 16 15  1  1
 16 18  1  0
 17 16  1  0
 18 19  2  0
 20 18  1  0
 20 21  1  0
 21 27  1  0
 21 22  1  1
 23 22  1  0
 24 23  1  0
 25 24  1  0
 26 25  1  0
 27 29  2  0
 27 28  1  0
M  END
$$$$
