FNK.pdb
     RDKit          3D

 29 29  0  0  1  0  0  0  0  0999 V2000
   26.2490  -20.6831  -14.2614 N   0  0  0  0  0  0  0  0  0  0  0  0
   25.5685  -20.9498  -13.0353 C   0  0  1  0  0  0  0  0  0  0  0  0
   26.1672  -20.1571  -11.8624 C   0  0  0  0  0  0  0  0  0  0  0  0
   27.5898  -20.5340  -11.6803 C   0  0  0  0  0  0  0  0  0  0  0  0
   27.8851  -21.6253  -10.8733 C   0  0  0  0  0  0  0  0  0  0  0  0
   29.1954  -22.0245  -10.6662 C   0  0  0  0  0  0  0  0  0  0  0  0
   30.2299  -21.3391  -11.2627 C   0  0  0  0  0  0  0  0  0  0  0  0
   29.9244  -20.2452  -12.0708 C   0  0  0  0  0  0  0  0  0  0  0  0
   28.6089  -19.8492  -12.2745 C   0  0  0  0  0  0  0  0  0  0  0  0
   24.1263  -20.6029  -13.0796 C   0  0  0  0  0  0  0  0  0  0  0  0
   23.7163  -19.4317  -12.8983 O   0  0  0  0  0  0  0  0  0  0  0  0
   18.7556  -21.2990  -15.5265 N   0  0  0  0  0  0  0  0  0  0  0  0
   19.6737  -20.7402  -14.6090 C   0  0  0  0  0  0  0  0  0  0  0  0
   19.2354  -19.9714  -13.7155 O   0  0  0  0  0  0  0  0  0  0  0  0
   21.1296  -21.0733  -14.7162 C   0  0  0  0  0  0  0  0  0  0  0  0
   21.7201  -21.2920  -13.3515 C   0  0  2  0  0  0  0  0  0  0  0  0
   23.1074  -21.5711  -13.3314 N   0  0  0  0  0  0  0  0  0  0  0  0
   20.9826  -22.4209  -12.7369 C   0  0  0  0  0  0  0  0  0  0  0  0
   21.1675  -23.5939  -13.1602 O   0  0  0  0  0  0  0  0  0  0  0  0
   20.0569  -22.2644  -11.6755 N   0  0  0  0  0  0  0  0  0  0  0  0
   19.4076  -23.4126  -11.0804 C   0  0  1  0  0  0  0  0  0  0  0  0
   19.0550  -23.1701   -9.6288 C   0  0  0  0  0  0  0  0  0  0  0  0
   18.4548  -24.4622   -9.0916 C   0  0  0  0  0  0  0  0  0  0  0  0
   18.0877  -24.2811   -7.6302 C   0  0  0  0  0  0  0  0  0  0  0  0
   17.6028  -25.5889   -7.0691 C   0  0  0  0  0  0  0  0  0  0  0  0
   17.4363  -25.4663   -5.6271 N   0  0  0  0  0  0  0  0  0  0  0  0
   18.1974  -23.7159  -11.8810 C   0  0  0  0  0  0  0  0  0  0  0  0
   17.3467  -22.7009  -12.3472 O   0  0  0  0  0  0  0  0  0  0  0  0
   17.8983  -24.8863  -12.1649 O   0  0  0  0  0  0  0  0  0  0  0  0
  2  1  1  6
  2  3  1  0
  2 10  1  0
  3  4  1  0
  4  9  2  0
  5  6  2  0
  5  4  1  0
  6  7  1  0
  7  8  2  0
  9  8  1  0
 10 17  1  0
 10 11  2  0
 13 15  1  0
 13 12  1  0
 14 13  2  0
 16 15  1  6
 16 18  1  0
 17 16  1  0
 18 19  2  0
 20 18  1  0
 20 21  1  0
 21 27  1  0
 21 22  1  1
 23 22  1  0
 24 23  1  0
 25 24  1  0
 26 25  1  0
 27 29  2  0
 27 28  1  0
M  END
$$$$
