FNK.pdb
     RDKit          3D

 29 29  0  0  1  0  0  0  0  0999 V2000
   22.3256   -9.9332  -16.6434 N   0  0  0  0  0  0  0  0  0  0  0  0
   22.2579   -9.4561  -15.2998 C   0  0  1  0  0  0  0  0  0  0  0  0
   23.2629   -8.3220  -15.0420 C   0  0  0  0  0  0  0  0  0  0  0  0
   24.6420   -8.8158  -15.2728 C   0  0  0  0  0  0  0  0  0  0  0  0
   25.3583   -8.2961  -16.3434 C   0  0  0  0  0  0  0  0  0  0  0  0
   26.6506   -8.7190  -16.6083 C   0  0  0  0  0  0  0  0  0  0  0  0
   27.2463   -9.6672  -15.8071 C   0  0  0  0  0  0  0  0  0  0  0  0
   26.5201  -10.1833  -14.7350 C   0  0  0  0  0  0  0  0  0  0  0  0
   25.2245   -9.7559  -14.4745 C   0  0  0  0  0  0  0  0  0  0  0  0
   20.9227   -8.9202  -14.9363 C   0  0  0  0  0  0  0  0  0  0  0  0
   20.2577   -8.1998  -15.7183 O   0  0  0  0  0  0  0  0  0  0  0  0
   17.9447  -10.6805  -15.1252 N   0  0  0  0  0  0  0  0  0  0  0  0
   17.7166  -10.9471  -13.7563 C   0  0  0  0  0  0  0  0  0  0  0  0
   17.1368  -12.0181  -13.4428 O   0  0  0  0  0  0  0  0  0  0  0  0
   18.1671   -9.9635  -12.7212 C   0  0  0  0  0  0  0  0  0  0  0  0
   18.9624   -8.8584  -13.3577 C   0  0  2  0  0  0  0  0  0  0  0  0
   20.3016   -9.1851  -13.6780 N   0  0  0  0  0  0  0  0  0  0  0  0
   18.9474   -7.7159  -12.4139 C   0  0  0  0  0  0  0  0  0  0  0  0
   19.8327   -7.6303  -11.5206 O   0  0  0  0  0  0  0  0  0  0  0  0
   17.9761   -6.6847  -12.4501 N   0  0  0  0  0  0  0  0  0  0  0  0
   17.9683   -5.6360  -11.4531 C   0  0  1  0  0  0  0  0  0  0  0  0
   17.0654   -4.4883  -11.8506 C   0  0  0  0  0  0  0  0  0  0  0  0
   15.6548   -5.0488  -11.9708 C   0  0  0  0  0  0  0  0  0  0  0  0
   14.7065   -3.9456  -12.4035 C   0  0  0  0  0  0  0  0  0  0  0  0
   13.3032   -4.4826  -12.4559 C   0  0  0  0  0  0  0  0  0  0  0  0
   12.4089   -3.4538  -12.9698 N   0  0  0  0  0  0  0  0  0  0  0  0
   17.5371   -6.2346  -10.1673 C   0  0  0  0  0  0  0  0  0  0  0  0
   17.1362   -7.5770  -10.0751 O   0  0  0  0  0  0  0  0  0  0  0  0
   17.5178   -5.5605   -9.1255 O   0  0  0  0  0  0  0  0  0  0  0  0
  2  1  1  6
  2  3  1  0
  2 10  1  0
  3  4  1  0
  4  9  2  0
  5  6  2  0
  5  4  1  0
  6  7  1  0
  7  8  2  0
  9  8  1  0
 10 17  1  0
 10 11  2  0
 13 15  1  0
 13 12  1  0
 14 13  2  0
 16 15  1  1
 16 18  1  0
 17 16  1  0
 18 19  2  0
 20 18  1  0
 20 21  1  0
 21 27  1  0
 21 22  1  6
 23 22  1  0
 24 23  1  0
 25 24  1  0
 26 25  1  0
 27 29  2  0
 27 28  1  0
M  END
$$$$
