FNK.pdb
     RDKit          3D

 29 29  0  0  1  0  0  0  0  0999 V2000
   27.6559  -11.6716  -15.1926 N   0  0  0  0  0  0  0  0  0  0  0  0
   27.4025  -10.7749  -16.2740 C   0  0  1  0  0  0  0  0  0  0  0  0
   27.4081  -11.4962  -17.6312 C   0  0  0  0  0  0  0  0  0  0  0  0
   28.7566  -12.0545  -17.8937 C   0  0  0  0  0  0  0  0  0  0  0  0
   29.7809  -11.1769  -18.2251 C   0  0  0  0  0  0  0  0  0  0  0  0
   31.0612  -11.6402  -18.4810 C   0  0  0  0  0  0  0  0  0  0  0  0
   31.3367  -12.9873  -18.4092 C   0  0  0  0  0  0  0  0  0  0  0  0
   30.3027  -13.8608  -18.0760 C   0  0  0  0  0  0  0  0  0  0  0  0
   29.0210  -13.3907  -17.8209 C   0  0  0  0  0  0  0  0  0  0  0  0
   26.0895  -10.0910  -16.1709 C   0  0  0  0  0  0  0  0  0  0  0  0
   25.0645  -10.6758  -15.7464 O   0  0  0  0  0  0  0  0  0  0  0  0
   23.1750   -4.6339  -16.3756 N   0  0  0  0  0  0  0  0  0  0  0  0
   23.5298   -5.9005  -15.8591 C   0  0  0  0  0  0  0  0  0  0  0  0
   22.7260   -6.4782  -15.0835 O   0  0  0  0  0  0  0  0  0  0  0  0
   24.8367   -6.5218  -16.2439 C   0  0  0  0  0  0  0  0  0  0  0  0
   24.6883   -8.0106  -16.3875 C   0  0  2  0  0  0  0  0  0  0  0  0
   25.8994   -8.7259  -16.5443 N   0  0  0  0  0  0  0  0  0  0  0  0
   23.8216   -8.2471  -17.5661 C   0  0  0  0  0  0  0  0  0  0  0  0
   24.3160   -8.2059  -18.7250 O   0  0  0  0  0  0  0  0  0  0  0  0
   22.4349   -8.5237  -17.4737 N   0  0  0  0  0  0  0  0  0  0  0  0
   21.6394   -8.7392  -18.6631 C   0  0  1  0  0  0  0  0  0  0  0  0
   20.8548  -10.0312  -18.5890 C   0  0  0  0  0  0  0  0  0  0  0  0
   20.0405  -10.1352  -19.8713 C   0  0  0  0  0  0  0  0  0  0  0  0
   19.2006  -11.3989  -19.8370 C   0  0  0  0  0  0  0  0  0  0  0  0
   18.3910  -11.4974  -21.1000 C   0  0  0  0  0  0  0  0  0  0  0  0
   17.5332  -12.6730  -21.0360 N   0  0  0  0  0  0  0  0  0  0  0  0
   20.7367   -7.5742  -18.8233 C   0  0  0  0  0  0  0  0  0  0  0  0
   19.8389   -7.1912  -17.8140 O   0  0  0  0  0  0  0  0  0  0  0  0
   20.7484   -6.8976  -19.8635 O   0  0  0  0  0  0  0  0  0  0  0  0
  2  1  1  1
  2  3  1  0
  2 10  1  0
  3  4  1  0
  4  9  2  0
  5  6  2  0
  5  4  1  0
  6  7  1  0
  7  8  2  0
  9  8  1  0
 10 17  1  0
 10 11  2  0
 13 15  1  0
 13 12  1  0
 14 13  2  0
 16 15  1  6
 16 18  1  0
 17 16  1  0
 18 19  2  0
 20 18  1  0
 20 21  1  0
 21 27  1  0
 21 22  1  1
 23 22  1  0
 24 23  1  0
 25 24  1  0
 26 25  1  0
 27 29  2  0
 27 28  1  0
M  END
$$$$
