YEC.pdb
     RDKit          3D

 28 28  0  0  1  0  0  0  0  0999 V2000
   16.4254  -14.0831  -16.2746 O   0  0  0  0  0  0  0  0  0  0  0  0
   16.6456  -12.7786  -15.8423 C   0  0  0  0  0  0  0  0  0  0  0  0
   15.7134  -12.1047  -15.0662 C   0  0  0  0  0  0  0  0  0  0  0  0
   15.9524  -10.8110  -14.6484 C   0  0  0  0  0  0  0  0  0  0  0  0
   17.1322  -10.2034  -15.0164 C   0  0  0  0  0  0  0  0  0  0  0  0
   17.4059   -8.8119  -14.5758 C   0  0  0  0  0  0  0  0  0  0  0  0
   18.5210   -8.7912  -13.5786 C   0  0  2  0  0  0  0  0  0  0  0  0
   18.1322   -9.4651  -12.3732 N   0  0  0  0  0  0  0  0  0  0  0  0
   18.9175   -7.3837  -13.3465 C   0  0  0  0  0  0  0  0  0  0  0  0
   18.3000   -6.7462  -12.4549 O   0  0  0  0  0  0  0  0  0  0  0  0
   18.0438  -10.8880  -15.7861 C   0  0  0  0  0  0  0  0  0  0  0  0
   17.8225  -12.1848  -16.2146 C   0  0  0  0  0  0  0  0  0  0  0  0
   19.9470   -6.7799  -14.0950 N   0  0  0  0  0  0  0  0  0  0  0  0
   20.2943   -5.4047  -13.8657 C   0  0  1  0  0  0  0  0  0  0  0  0
   21.6241   -5.1384  -14.5704 C   0  0  0  0  0  0  0  0  0  0  0  0
   22.0859   -3.7125  -14.2730 C   0  0  0  0  0  0  0  0  0  0  0  0
   23.3865   -3.4372  -14.9320 C   0  0  0  0  0  0  0  0  0  0  0  0
   23.5450   -2.3617  -15.5720 O   0  0  0  0  0  0  0  0  0  0  0  0
   19.2203   -4.5586  -14.4013 C   0  0  0  0  0  0  0  0  0  0  0  0
   18.6683   -4.7413  -15.5268 O   0  0  0  0  0  0  0  0  0  0  0  0
   24.4520   -4.3163  -14.8783 O   0  0  0  0  0  0  0  0  0  0  0  0
   18.7252   -3.4385  -13.6429 N   0  0  0  0  0  0  0  0  0  0  0  0
   17.7034   -2.5779  -14.1516 C   0  0  1  0  0  0  0  0  0  0  0  0
   16.5678   -2.5608  -13.1443 C   0  0  0  0  0  0  0  0  0  0  0  0
   15.2979   -1.4328  -13.7726 S   0  0  0  0  0  0  0  0  0  0  0  0
   18.1906   -1.2268  -14.4697 C   0  0  0  0  0  0  0  0  0  0  0  0
   19.4995   -0.8317  -14.2353 O   0  0  0  0  0  0  0  0  0  0  0  0
   17.4118   -0.3791  -14.9737 O   0  0  0  0  0  0  0  0  0  0  0  0
  2  1  1  0
  2 12  2  0
  3  2  1  0
  4  3  2  0
  4  5  1  0
  5 11  2  0
  6  7  1  0
  6  5  1  0
  7  8  1  1
  9 13  1  0
  9  7  1  0
 10  9  2  0
 11 12  1  0
 14 19  1  0
 14 13  1  0
 14 15  1  6
 16 15  1  0
 16 17  1  0
 17 18  2  0
 19 22  1  0
 20 19  2  0
 21 17  1  0
 22 23  1  0
 23 26  1  0
 23 24  1  1
 25 24  1  0
 26 28  2  0
 26 27  1  0
M  END
$$$$
