YEC.pdb
     RDKit          3D

 28 28  0  0  1  0  0  0  0  0999 V2000
   30.5520  -32.9569  -15.6969 O   0  0  0  0  0  0  0  0  0  0  0  0
   29.2970  -32.4378  -16.0011 C   0  0  0  0  0  0  0  0  0  0  0  0
   28.1357  -33.1555  -15.7526 C   0  0  0  0  0  0  0  0  0  0  0  0
   26.9011  -32.6213  -16.0624 C   0  0  0  0  0  0  0  0  0  0  0  0
   26.8449  -31.3642  -16.6219 C   0  0  0  0  0  0  0  0  0  0  0  0
   25.5252  -30.7740  -16.9615 C   0  0  0  0  0  0  0  0  0  0  0  0
   24.6965  -30.6065  -15.7272 C   0  0  2  0  0  0  0  0  0  0  0  0
   24.2802  -31.8832  -15.2222 N   0  0  0  0  0  0  0  0  0  0  0  0
   23.5570  -29.7157  -16.0438 C   0  0  0  0  0  0  0  0  0  0  0  0
   23.8037  -28.6658  -16.6915 O   0  0  0  0  0  0  0  0  0  0  0  0
   28.0073  -30.6686  -16.8606 C   0  0  0  0  0  0  0  0  0  0  0  0
   29.2537  -31.1868  -16.5573 C   0  0  0  0  0  0  0  0  0  0  0  0
   22.2459  -30.0304  -15.6359 N   0  0  0  0  0  0  0  0  0  0  0  0
   21.1756  -29.0999  -15.8663 C   0  0  1  0  0  0  0  0  0  0  0  0
   20.1281  -29.8022  -16.7296 C   0  0  0  0  0  0  0  0  0  0  0  0
   20.5340  -29.7166  -18.2002 C   0  0  0  0  0  0  0  0  0  0  0  0
   19.5030  -30.3439  -19.0635 C   0  0  0  0  0  0  0  0  0  0  0  0
   19.6548  -30.3430  -20.3158 O   0  0  0  0  0  0  0  0  0  0  0  0
   20.6227  -28.6966  -14.5672 C   0  0  0  0  0  0  0  0  0  0  0  0
   20.5149  -29.4718  -13.5710 O   0  0  0  0  0  0  0  0  0  0  0  0
   18.3643  -30.9399  -18.5543 O   0  0  0  0  0  0  0  0  0  0  0  0
   20.1592  -27.3491  -14.3566 N   0  0  0  0  0  0  0  0  0  0  0  0
   19.6944  -26.9039  -13.0802 C   0  0  1  0  0  0  0  0  0  0  0  0
   19.6196  -25.3881  -13.1170 C   0  0  0  0  0  0  0  0  0  0  0  0
   19.1495  -24.8245  -11.4615 S   0  0  0  0  0  0  0  0  0  0  0  0
   18.4183  -27.5184  -12.6827 C   0  0  0  0  0  0  0  0  0  0  0  0
   18.1144  -27.8184  -11.3628 O   0  0  0  0  0  0  0  0  0  0  0  0
   17.5533  -27.7919  -13.5522 O   0  0  0  0  0  0  0  0  0  0  0  0
  2  1  1  0
  2 12  2  0
  3  2  1  0
  4  3  2  0
  4  5  1  0
  5 11  2  0
  6  7  1  0
  6  5  1  0
  7  8  1  6
  9 13  1  0
  9  7  1  0
 10  9  2  0
 11 12  1  0
 14 19  1  0
 14 13  1  0
 14 15  1  6
 16 15  1  0
 16 17  1  0
 17 18  2  0
 19 22  1  0
 20 19  2  0
 21 17  1  0
 22 23  1  0
 23 26  1  0
 23 24  1  6
 25 24  1  0
 26 28  2  0
 26 27  1  0
M  END
$$$$
