YEC.pdb
     RDKit          3D

 28 28  0  0  1  0  0  0  0  0999 V2000
   21.4160  -13.7841  -19.6772 O   0  0  0  0  0  0  0  0  0  0  0  0
   21.4001  -14.6530  -18.5902 C   0  0  0  0  0  0  0  0  0  0  0  0
   20.5143  -14.4799  -17.5362 C   0  0  0  0  0  0  0  0  0  0  0  0
   20.5158  -15.3539  -16.4678 C   0  0  0  0  0  0  0  0  0  0  0  0
   21.4122  -16.3994  -16.4687 C   0  0  0  0  0  0  0  0  0  0  0  0
   21.4278  -17.3494  -15.3274 C   0  0  0  0  0  0  0  0  0  0  0  0
   21.0981  -18.7315  -15.7957 C   0  0  2  0  0  0  0  0  0  0  0  0
   19.6781  -18.8990  -15.9130 N   0  0  0  0  0  0  0  0  0  0  0  0
   21.7152  -19.7028  -14.8641 C   0  0  0  0  0  0  0  0  0  0  0  0
   21.0294  -20.0778  -13.8784 O   0  0  0  0  0  0  0  0  0  0  0  0
   22.2824  -16.5542  -17.5227 C   0  0  0  0  0  0  0  0  0  0  0  0
   22.2962  -15.6889  -18.6022 C   0  0  0  0  0  0  0  0  0  0  0  0
   23.0208  -20.1895  -15.0723 N   0  0  0  0  0  0  0  0  0  0  0  0
   23.5655  -21.1908  -14.1977 C   0  0  1  0  0  0  0  0  0  0  0  0
   24.1923  -22.2777  -15.0704 C   0  0  0  0  0  0  0  0  0  0  0  0
   24.7224  -23.4045  -14.1849 C   0  0  0  0  0  0  0  0  0  0  0  0
   25.2794  -24.5017  -15.0142 C   0  0  0  0  0  0  0  0  0  0  0  0
   25.7024  -25.5509  -14.4561 O   0  0  0  0  0  0  0  0  0  0  0  0
   24.5628  -20.5550  -13.3274 C   0  0  0  0  0  0  0  0  0  0  0  0
   25.4022  -19.6926  -13.7231 O   0  0  0  0  0  0  0  0  0  0  0  0
   25.3592  -24.4297  -16.3924 O   0  0  0  0  0  0  0  0  0  0  0  0
   24.6359  -20.8951  -11.9296 N   0  0  0  0  0  0  0  0  0  0  0  0
   25.7565  -20.5253  -11.1228 C   0  0  1  0  0  0  0  0  0  0  0  0
   25.5986  -21.2009   -9.7725 C   0  0  0  0  0  0  0  0  0  0  0  0
   26.4826  -20.1959   -8.5527 S   0  0  0  0  0  0  0  0  0  0  0  0
   27.0498  -20.8307  -11.7541 C   0  0  0  0  0  0  0  0  0  0  0  0
   28.0491  -19.8803  -11.9040 O   0  0  0  0  0  0  0  0  0  0  0  0
   27.2836  -21.9887  -12.1823 O   0  0  0  0  0  0  0  0  0  0  0  0
  2  1  1  0
  2 12  2  0
  3  2  1  0
  4  3  2  0
  4  5  1  0
  5 11  2  0
  6  7  1  0
  6  5  1  0
  7  8  1  1
  9 13  1  0
  9  7  1  0
 10  9  2  0
 11 12  1  0
 14 19  1  0
 14 13  1  0
 14 15  1  6
 16 15  1  0
 16 17  1  0
 17 18  2  0
 19 22  1  0
 20 19  2  0
 21 17  1  0
 22 23  1  0
 23 26  1  0
 23 24  1  1
 25 24  1  0
 26 28  2  0
 26 27  1  0
M  END
$$$$
