YEC.pdb
     RDKit          3D

 28 28  0  0  1  0  0  0  0  0999 V2000
   28.4495  -19.3615   -5.3568 O   0  0  0  0  0  0  0  0  0  0  0  0
   28.0962  -19.5844   -6.6844 C   0  0  0  0  0  0  0  0  0  0  0  0
   26.8226  -19.2964   -7.1540 C   0  0  0  0  0  0  0  0  0  0  0  0
   26.4936  -19.5254   -8.4749 C   0  0  0  0  0  0  0  0  0  0  0  0
   27.4527  -20.0444   -9.3159 C   0  0  0  0  0  0  0  0  0  0  0  0
   27.1162  -20.2970  -10.7401 C   0  0  0  0  0  0  0  0  0  0  0  0
   26.4302  -21.6185  -10.8866 C   0  0  2  0  0  0  0  0  0  0  0  0
   27.3891  -22.6632  -11.1038 N   0  0  0  0  0  0  0  0  0  0  0  0
   25.4381  -21.5139  -11.9806 C   0  0  0  0  0  0  0  0  0  0  0  0
   25.8113  -21.8434  -13.1360 O   0  0  0  0  0  0  0  0  0  0  0  0
   28.7096  -20.3232   -8.8315 C   0  0  0  0  0  0  0  0  0  0  0  0
   29.0584  -20.1008   -7.5113 C   0  0  0  0  0  0  0  0  0  0  0  0
   24.1257  -21.0627  -11.7386 N   0  0  0  0  0  0  0  0  0  0  0  0
   23.1292  -21.1556  -12.7694 C   0  0  1  0  0  0  0  0  0  0  0  0
   21.7611  -20.9907  -12.1084 C   0  0  0  0  0  0  0  0  0  0  0  0
   20.6668  -21.0437  -13.1735 C   0  0  0  0  0  0  0  0  0  0  0  0
   19.3244  -20.9566  -12.5473 C   0  0  0  0  0  0  0  0  0  0  0  0
   18.9707  -19.8875  -11.9788 O   0  0  0  0  0  0  0  0  0  0  0  0
   23.3826  -20.0992  -13.7574 C   0  0  0  0  0  0  0  0  0  0  0  0
   23.6674  -18.9018  -13.4577 O   0  0  0  0  0  0  0  0  0  0  0  0
   18.4264  -22.0076  -12.5560 O   0  0  0  0  0  0  0  0  0  0  0  0
   23.3167  -20.3862  -15.1674 N   0  0  0  0  0  0  0  0  0  0  0  0
   23.5364  -19.3739  -16.1525 C   0  0  1  0  0  0  0  0  0  0  0  0
   24.6678  -19.8393  -17.0512 C   0  0  0  0  0  0  0  0  0  0  0  0
   24.1554  -21.4024  -17.8087 S   0  0  0  0  0  0  0  0  0  0  0  0
   22.3232  -19.0316  -16.9109 C   0  0  0  0  0  0  0  0  0  0  0  0
   22.2811  -17.9812  -17.8160 O   0  0  0  0  0  0  0  0  0  0  0  0
   21.2713  -19.7004  -16.7514 O   0  0  0  0  0  0  0  0  0  0  0  0
  2  1  1  0
  2 12  2  0
  3  2  1  0
  4  3  2  0
  4  5  1  0
  5 11  2  0
  6  7  1  0
  6  5  1  0
  7  8  1  6
  9 13  1  0
  9  7  1  0
 10  9  2  0
 11 12  1  0
 14 19  1  0
 14 13  1  0
 14 15  1  1
 16 15  1  0
 16 17  1  0
 17 18  2  0
 19 22  1  0
 20 19  2  0
 21 17  1  0
 22 23  1  0
 23 26  1  0
 23 24  1  6
 25 24  1  0
 26 28  2  0
 26 27  1  0
M  END
$$$$
