YEC.pdb
     RDKit          3D

 28 28  0  0  1  0  0  0  0  0999 V2000
   25.0249  -21.3172   -7.6260 O   0  0  0  0  0  0  0  0  0  0  0  0
   25.0026  -20.9598   -8.9709 C   0  0  0  0  0  0  0  0  0  0  0  0
   26.0515  -21.2757   -9.8227 C   0  0  0  0  0  0  0  0  0  0  0  0
   26.0086  -20.9114  -11.1535 C   0  0  0  0  0  0  0  0  0  0  0  0
   24.9060  -20.2296  -11.6182 C   0  0  0  0  0  0  0  0  0  0  0  0
   24.8429  -19.8298  -13.0471 C   0  0  0  0  0  0  0  0  0  0  0  0
   23.6338  -20.4211  -13.7004 C   0  0  2  0  0  0  0  0  0  0  0  0
   23.7503  -21.8488  -13.7786 N   0  0  0  0  0  0  0  0  0  0  0  0
   23.4587  -19.7863  -15.0264 C   0  0  0  0  0  0  0  0  0  0  0  0
   23.8689  -20.4208  -16.0323 O   0  0  0  0  0  0  0  0  0  0  0  0
   23.8764  -19.9256  -10.7582 C   0  0  0  0  0  0  0  0  0  0  0  0
   23.9009  -20.2820   -9.4216 C   0  0  0  0  0  0  0  0  0  0  0  0
   22.8559  -18.5198  -15.1583 N   0  0  0  0  0  0  0  0  0  0  0  0
   22.7059  -17.9240  -16.4571 C   0  0  1  0  0  0  0  0  0  0  0  0
   21.5594  -16.9166  -16.3757 C   0  0  0  0  0  0  0  0  0  0  0  0
   20.2232  -17.6576  -16.3944 C   0  0  0  0  0  0  0  0  0  0  0  0
   19.3011  -17.0457  -17.3830 C   0  0  0  0  0  0  0  0  0  0  0  0
   18.6628  -16.0018  -17.0762 O   0  0  0  0  0  0  0  0  0  0  0  0
   23.9717  -17.2735  -16.8189 C   0  0  0  0  0  0  0  0  0  0  0  0
   24.3522  -16.1567  -16.3578 O   0  0  0  0  0  0  0  0  0  0  0  0
   19.1035  -17.5724  -18.6458 O   0  0  0  0  0  0  0  0  0  0  0  0
   24.8746  -17.8990  -17.7509 N   0  0  0  0  0  0  0  0  0  0  0  0
   26.2479  -17.5129  -17.8429 C   0  0  1  0  0  0  0  0  0  0  0  0
   26.8879  -17.7504  -16.4869 C   0  0  0  0  0  0  0  0  0  0  0  0
   28.6651  -17.4493  -16.6621 S   0  0  0  0  0  0  0  0  0  0  0  0
   26.9687  -18.1938  -18.9296 C   0  0  0  0  0  0  0  0  0  0  0  0
   28.0832  -17.6427  -19.5450 O   0  0  0  0  0  0  0  0  0  0  0  0
   26.5808  -19.3183  -19.3347 O   0  0  0  0  0  0  0  0  0  0  0  0
  2  1  1  0
  2 12  2  0
  3  2  1  0
  4  3  2  0
  4  5  1  0
  5 11  2  0
  6  7  1  0
  6  5  1  0
  7  8  1  6
  9 13  1  0
  9  7  1  0
 10  9  2  0
 11 12  1  0
 14 19  1  0
 14 13  1  0
 14 15  1  1
 16 15  1  0
 16 17  1  0
 17 18  2  0
 19 22  1  0
 20 19  2  0
 21 17  1  0
 22 23  1  0
 23 26  1  0
 23 24  1  1
 25 24  1  0
 26 28  2  0
 26 27  1  0
M  END
$$$$
