YEC.pdb
     RDKit          3D

 28 28  0  0  1  0  0  0  0  0999 V2000
   20.6355  -18.7463  -14.7954 O   0  0  0  0  0  0  0  0  0  0  0  0
   20.8084  -17.4283  -15.2076 C   0  0  0  0  0  0  0  0  0  0  0  0
   21.0709  -17.1114  -16.5328 C   0  0  0  0  0  0  0  0  0  0  0  0
   21.2390  -15.7971  -16.9198 C   0  0  0  0  0  0  0  0  0  0  0  0
   21.1412  -14.8083  -15.9662 C   0  0  0  0  0  0  0  0  0  0  0  0
   21.3192  -13.3888  -16.3647 C   0  0  0  0  0  0  0  0  0  0  0  0
   20.0321  -12.6408  -16.2161 C   0  0  2  0  0  0  0  0  0  0  0  0
   19.0179  -13.2106  -17.0557 N   0  0  0  0  0  0  0  0  0  0  0  0
   20.2830  -11.2114  -16.5091 C   0  0  0  0  0  0  0  0  0  0  0  0
   20.0893  -10.8179  -17.6882 O   0  0  0  0  0  0  0  0  0  0  0  0
   20.8804  -15.1425  -14.6577 C   0  0  0  0  0  0  0  0  0  0  0  0
   20.7089  -16.4536  -14.2503 C   0  0  0  0  0  0  0  0  0  0  0  0
   20.7220  -10.3244  -15.5065 N   0  0  0  0  0  0  0  0  0  0  0  0
   20.8902   -8.9283  -15.8016 C   0  0  1  0  0  0  0  0  0  0  0  0
   20.3006   -8.1337  -14.6368 C   0  0  0  0  0  0  0  0  0  0  0  0
   18.7904   -7.9942  -14.8233 C   0  0  0  0  0  0  0  0  0  0  0  0
   18.2194   -7.0881  -13.7962 C   0  0  0  0  0  0  0  0  0  0  0  0
   17.9585   -5.8913  -14.0976 O   0  0  0  0  0  0  0  0  0  0  0  0
   22.3238   -8.6581  -15.9689 C   0  0  0  0  0  0  0  0  0  0  0  0
   23.2433   -9.4085  -15.5256 O   0  0  0  0  0  0  0  0  0  0  0  0
   17.9546   -7.4978  -12.5028 O   0  0  0  0  0  0  0  0  0  0  0  0
   22.7688   -7.4822  -16.6719 N   0  0  0  0  0  0  0  0  0  0  0  0
   24.1561   -7.1637  -16.8030 C   0  0  1  0  0  0  0  0  0  0  0  0
   24.8510   -8.3637  -17.4208 C   0  0  0  0  0  0  0  0  0  0  0  0
   24.0509   -8.6989  -19.0105 S   0  0  0  0  0  0  0  0  0  0  0  0
   24.3964   -5.9258  -17.5606 C   0  0  0  0  0  0  0  0  0  0  0  0
   23.3746   -5.2193  -18.1781 O   0  0  0  0  0  0  0  0  0  0  0  0
   25.5623   -5.4694  -17.6679 O   0  0  0  0  0  0  0  0  0  0  0  0
  2  1  1  0
  2 12  2  0
  3  2  1  0
  4  3  2  0
  4  5  1  0
  5 11  2  0
  6  7  1  0
  6  5  1  0
  7  8  1  6
  9 13  1  0
  9  7  1  0
 10  9  2  0
 11 12  1  0
 14 19  1  0
 14 13  1  0
 14 15  1  1
 16 15  1  0
 16 17  1  0
 17 18  2  0
 19 22  1  0
 20 19  2  0
 21 17  1  0
 22 23  1  0
 23 26  1  0
 23 24  1  6
 25 24  1  0
 26 28  2  0
 26 27  1  0
M  END
$$$$
