YEC.pdb
     RDKit          3D

 28 28  0  0  1  0  0  0  0  0999 V2000
   30.3074  -17.9338  -19.9491 O   0  0  0  0  0  0  0  0  0  0  0  0
   29.3549  -17.8665  -18.9366 C   0  0  0  0  0  0  0  0  0  0  0  0
   28.8597  -19.0119  -18.3296 C   0  0  0  0  0  0  0  0  0  0  0  0
   27.9152  -18.9220  -17.3270 C   0  0  0  0  0  0  0  0  0  0  0  0
   27.4748  -17.6753  -16.9418 C   0  0  0  0  0  0  0  0  0  0  0  0
   26.4589  -17.5599  -15.8648 C   0  0  0  0  0  0  0  0  0  0  0  0
   25.0933  -17.8474  -16.4040 C   0  0  2  0  0  0  0  0  0  0  0  0
   24.6304  -16.7566  -17.2127 N   0  0  0  0  0  0  0  0  0  0  0  0
   24.1917  -18.1414  -15.2670 C   0  0  0  0  0  0  0  0  0  0  0  0
   23.7361  -17.1636  -14.6196 O   0  0  0  0  0  0  0  0  0  0  0  0
   27.9778  -16.5518  -17.5556 C   0  0  0  0  0  0  0  0  0  0  0  0
   28.9246  -16.6213  -18.5620 C   0  0  0  0  0  0  0  0  0  0  0  0
   23.8558  -19.4653  -14.9219 N   0  0  0  0  0  0  0  0  0  0  0  0
   23.1080  -19.7312  -13.7242 C   0  0  1  0  0  0  0  0  0  0  0  0
   22.0247  -20.7520  -14.0707 C   0  0  0  0  0  0  0  0  0  0  0  0
   21.2180  -21.0895  -12.8176 C   0  0  0  0  0  0  0  0  0  0  0  0
   20.1163  -22.0285  -13.1435 C   0  0  0  0  0  0  0  0  0  0  0  0
   20.0083  -22.4784  -14.3171 O   0  0  0  0  0  0  0  0  0  0  0  0
   24.0307  -20.2474  -12.7052 C   0  0  0  0  0  0  0  0  0  0  0  0
   24.9283  -21.1116  -12.9340 O   0  0  0  0  0  0  0  0  0  0  0  0
   19.1860  -22.4420  -12.2083 O   0  0  0  0  0  0  0  0  0  0  0  0
   23.9554  -19.7773  -11.3457 N   0  0  0  0  0  0  0  0  0  0  0  0
   24.7447  -20.3568  -10.3043 C   0  0  1  0  0  0  0  0  0  0  0  0
   25.6029  -19.2566   -9.7062 C   0  0  0  0  0  0  0  0  0  0  0  0
   26.4651  -19.9542   -8.2746 S   0  0  0  0  0  0  0  0  0  0  0  0
   23.9406  -21.0545   -9.2890 C   0  0  0  0  0  0  0  0  0  0  0  0
   24.4905  -21.9658   -8.3992 O   0  0  0  0  0  0  0  0  0  0  0  0
   22.7063  -20.8347   -9.2031 O   0  0  0  0  0  0  0  0  0  0  0  0
  2  1  1  0
  2 12  2  0
  3  2  1  0
  4  3  2  0
  4  5  1  0
  5 11  2  0
  6  7  1  0
  6  5  1  0
  7  8  1  1
  9 13  1  0
  9  7  1  0
 10  9  2  0
 11 12  1  0
 14 19  1  0
 14 13  1  0
 14 15  1  6
 16 15  1  0
 16 17  1  0
 17 18  2  0
 19 22  1  0
 20 19  2  0
 21 17  1  0
 22 23  1  0
 23 26  1  0
 23 24  1  1
 25 24  1  0
 26 28  2  0
 26 27  1  0
M  END
$$$$
