YEC.pdb
     RDKit          3D

 28 28  0  0  1  0  0  0  0  0999 V2000
   16.7360  -15.1898  -17.2761 O   0  0  0  0  0  0  0  0  0  0  0  0
   17.6325  -14.1627  -16.9966 C   0  0  0  0  0  0  0  0  0  0  0  0
   18.6800  -14.3375  -16.1034 C   0  0  0  0  0  0  0  0  0  0  0  0
   19.5577  -13.3049  -15.8409 C   0  0  0  0  0  0  0  0  0  0  0  0
   19.3736  -12.1001  -16.4819 C   0  0  0  0  0  0  0  0  0  0  0  0
   20.3084  -10.9782  -16.2115 C   0  0  0  0  0  0  0  0  0  0  0  0
   21.3281  -10.8758  -17.3015 C   0  0  2  0  0  0  0  0  0  0  0  0
   22.2560  -11.9675  -17.2281 N   0  0  0  0  0  0  0  0  0  0  0  0
   21.9884   -9.5542  -17.2042 C   0  0  0  0  0  0  0  0  0  0  0  0
   23.1234   -9.5108  -16.6635 O   0  0  0  0  0  0  0  0  0  0  0  0
   18.3293  -11.9464  -17.3639 C   0  0  0  0  0  0  0  0  0  0  0  0
   17.4393  -12.9691  -17.6402 C   0  0  0  0  0  0  0  0  0  0  0  0
   21.3702   -8.3885  -17.6980 N   0  0  0  0  0  0  0  0  0  0  0  0
   22.0443   -7.1226  -17.6118 C   0  0  1  0  0  0  0  0  0  0  0  0
   22.2275   -6.5967  -19.0350 C   0  0  0  0  0  0  0  0  0  0  0  0
   22.9615   -5.2571  -18.9966 C   0  0  0  0  0  0  0  0  0  0  0  0
   23.1860   -4.7455  -20.3712 C   0  0  0  0  0  0  0  0  0  0  0  0
   22.5453   -3.7355  -20.7721 O   0  0  0  0  0  0  0  0  0  0  0  0
   21.2238   -6.2135  -16.8015 C   0  0  0  0  0  0  0  0  0  0  0  0
   19.9903   -6.0044  -17.0001 O   0  0  0  0  0  0  0  0  0  0  0  0
   24.0783   -5.3313  -21.2498 O   0  0  0  0  0  0  0  0  0  0  0  0
   21.8056   -5.4893  -15.7005 N   0  0  0  0  0  0  0  0  0  0  0  0
   21.0469   -4.5542  -14.9301 C   0  0  1  0  0  0  0  0  0  0  0  0
   21.7279   -4.4041  -13.5817 C   0  0  0  0  0  0  0  0  0  0  0  0
   21.5213   -5.9661  -12.6889 S   0  0  0  0  0  0  0  0  0  0  0  0
   20.8584   -3.2631  -15.6094 C   0  0  0  0  0  0  0  0  0  0  0  0
   19.7310   -2.4776  -15.4184 O   0  0  0  0  0  0  0  0  0  0  0  0
   21.7370   -2.8321  -16.3978 O   0  0  0  0  0  0  0  0  0  0  0  0
  2  1  1  0
  2 12  2  0
  3  2  1  0
  4  3  2  0
  4  5  1  0
  5 11  2  0
  6  7  1  0
  6  5  1  0
  7  8  1  1
  9 13  1  0
  9  7  1  0
 10  9  2  0
 11 12  1  0
 14 19  1  0
 14 13  1  0
 14 15  1  6
 16 15  1  0
 16 17  1  0
 17 18  2  0
 19 22  1  0
 20 19  2  0
 21 17  1  0
 22 23  1  0
 23 26  1  0
 23 24  1  1
 25 24  1  0
 26 28  2  0
 26 27  1  0
M  END
$$$$
