YEC.pdb
     RDKit          3D

 28 28  0  0  1  0  0  0  0  0999 V2000
   30.9139  -22.6130  -19.1604 O   0  0  0  0  0  0  0  0  0  0  0  0
   29.8189  -22.3199  -18.3529 C   0  0  0  0  0  0  0  0  0  0  0  0
   29.6885  -22.8631  -17.0826 C   0  0  0  0  0  0  0  0  0  0  0  0
   28.5940  -22.5588  -16.2985 C   0  0  0  0  0  0  0  0  0  0  0  0
   27.6357  -21.7069  -16.8010 C   0  0  0  0  0  0  0  0  0  0  0  0
   26.4515  -21.3685  -15.9712 C   0  0  0  0  0  0  0  0  0  0  0  0
   26.5148  -19.9399  -15.5314 C   0  0  2  0  0  0  0  0  0  0  0  0
   27.6308  -19.7312  -14.6545 N   0  0  0  0  0  0  0  0  0  0  0  0
   25.2204  -19.5827  -14.9076 C   0  0  0  0  0  0  0  0  0  0  0  0
   25.1239  -19.7065  -13.6594 O   0  0  0  0  0  0  0  0  0  0  0  0
   27.7829  -21.1786  -18.0624 C   0  0  0  0  0  0  0  0  0  0  0  0
   28.8724  -21.4715  -18.8633 C   0  0  0  0  0  0  0  0  0  0  0  0
   24.1370  -19.1217  -15.6812 N   0  0  0  0  0  0  0  0  0  0  0  0
   22.9288  -18.6811  -15.0404 C   0  0  1  0  0  0  0  0  0  0  0  0
   22.3260  -17.5707  -15.9003 C   0  0  0  0  0  0  0  0  0  0  0  0
   21.0317  -17.0711  -15.2599 C   0  0  0  0  0  0  0  0  0  0  0  0
   20.4027  -16.0244  -16.1027 C   0  0  0  0  0  0  0  0  0  0  0  0
   21.0811  -15.0233  -16.4619 O   0  0  0  0  0  0  0  0  0  0  0  0
   22.0195  -19.8283  -14.9243 C   0  0  0  0  0  0  0  0  0  0  0  0
   21.8824  -20.7175  -15.8161 O   0  0  0  0  0  0  0  0  0  0  0  0
   19.0870  -16.0932  -16.5213 O   0  0  0  0  0  0  0  0  0  0  0  0
   21.2099  -20.0027  -13.7458 N   0  0  0  0  0  0  0  0  0  0  0  0
   20.3130  -21.1070  -13.6056 C   0  0  1  0  0  0  0  0  0  0  0  0
   20.4117  -21.6057  -12.1752 C   0  0  0  0  0  0  0  0  0  0  0  0
   19.2211  -22.9569  -11.9849 S   0  0  0  0  0  0  0  0  0  0  0  0
   18.9310  -20.7823  -13.9915 C   0  0  0  0  0  0  0  0  0  0  0  0
   17.9981  -21.7573  -14.3134 O   0  0  0  0  0  0  0  0  0  0  0  0
   18.5556  -19.5840  -14.0394 O   0  0  0  0  0  0  0  0  0  0  0  0
  2  1  1  0
  2 12  2  0
  3  2  1  0
  4  3  2  0
  4  5  1  0
  5 11  2  0
  6  7  1  0
  6  5  1  0
  7  8  1  1
  9 13  1  0
  9  7  1  0
 10  9  2  0
 11 12  1  0
 14 19  1  0
 14 13  1  0
 14 15  1  6
 16 15  1  0
 16 17  1  0
 17 18  2  0
 19 22  1  0
 20 19  2  0
 21 17  1  0
 22 23  1  0
 23 26  1  0
 23 24  1  1
 25 24  1  0
 26 28  2  0
 26 27  1  0
M  END
$$$$
