YEC.pdb
     RDKit          3D

 28 28  0  0  1  0  0  0  0  0999 V2000
   16.2740  -17.7001  -15.3939 O   0  0  0  0  0  0  0  0  0  0  0  0
   16.1525  -18.7527  -14.4916 C   0  0  0  0  0  0  0  0  0  0  0  0
   14.9262  -19.3487  -14.2334 C   0  0  0  0  0  0  0  0  0  0  0  0
   14.8286  -20.3916  -13.3344 C   0  0  0  0  0  0  0  0  0  0  0  0
   15.9702  -20.8281  -12.6999 C   0  0  0  0  0  0  0  0  0  0  0  0
   15.8837  -21.9490  -11.7296 C   0  0  0  0  0  0  0  0  0  0  0  0
   16.3111  -23.2298  -12.3741 C   0  0  2  0  0  0  0  0  0  0  0  0
   15.4130  -23.5849  -13.4349 N   0  0  0  0  0  0  0  0  0  0  0  0
   16.4046  -24.2735  -11.3281 C   0  0  0  0  0  0  0  0  0  0  0  0
   15.3334  -24.8147  -10.9509 O   0  0  0  0  0  0  0  0  0  0  0  0
   17.1765  -20.2245  -12.9692 C   0  0  0  0  0  0  0  0  0  0  0  0
   17.2948  -19.1782  -13.8667 C   0  0  0  0  0  0  0  0  0  0  0  0
   17.6453  -24.6474  -10.7753 N   0  0  0  0  0  0  0  0  0  0  0  0
   17.7132  -25.7029   -9.8029 C   0  0  1  0  0  0  0  0  0  0  0  0
   19.0362  -26.4397  -10.0096 C   0  0  0  0  0  0  0  0  0  0  0  0
   18.8926  -27.4405  -11.1554 C   0  0  0  0  0  0  0  0  0  0  0  0
   20.1649  -28.1731  -11.3707 C   0  0  0  0  0  0  0  0  0  0  0  0
   20.4452  -29.1622  -10.6397 O   0  0  0  0  0  0  0  0  0  0  0  0
   17.6303  -25.1069   -8.4635 C   0  0  0  0  0  0  0  0  0  0  0  0
   17.5494  -23.8616   -8.2453 O   0  0  0  0  0  0  0  0  0  0  0  0
   21.0742  -27.8191  -12.3499 O   0  0  0  0  0  0  0  0  0  0  0  0
   17.6375  -25.9423   -7.2901 N   0  0  0  0  0  0  0  0  0  0  0  0
   17.5005  -25.3958   -5.9763 C   0  0  1  0  0  0  0  0  0  0  0  0
   16.1353  -24.7378   -5.8880 C   0  0  0  0  0  0  0  0  0  0  0  0
   15.9073  -24.1807   -4.1800 S   0  0  0  0  0  0  0  0  0  0  0  0
   17.7139  -26.3884   -4.9117 C   0  0  0  0  0  0  0  0  0  0  0  0
   18.3850  -26.0876   -3.7354 O   0  0  0  0  0  0  0  0  0  0  0  0
   17.2819  -27.5605   -5.0479 O   0  0  0  0  0  0  0  0  0  0  0  0
  2  1  1  0
  2 12  2  0
  3  2  1  0
  4  3  2  0
  4  5  1  0
  5 11  2  0
  6  7  1  0
  6  5  1  0
  7  8  1  6
  9 13  1  0
  9  7  1  0
 10  9  2  0
 11 12  1  0
 14 19  1  0
 14 13  1  0
 14 15  1  1
 16 15  1  0
 16 17  1  0
 17 18  2  0
 19 22  1  0
 20 19  2  0
 21 17  1  0
 22 23  1  0
 23 26  1  0
 23 24  1  6
 25 24  1  0
 26 28  2  0
 26 27  1  0
M  END
$$$$
