YEC.pdb
     RDKit          3D

 28 28  0  0  1  0  0  0  0  0999 V2000
   28.1783   -6.7702  -24.6736 O   0  0  0  0  0  0  0  0  0  0  0  0
   26.9369   -6.3976  -24.1666 C   0  0  0  0  0  0  0  0  0  0  0  0
   25.7625   -6.6634  -24.8562 C   0  0  0  0  0  0  0  0  0  0  0  0
   24.5418   -6.2849  -24.3346 C   0  0  0  0  0  0  0  0  0  0  0  0
   24.5127   -5.6394  -23.1184 C   0  0  0  0  0  0  0  0  0  0  0  0
   23.2082   -5.2249  -22.5422 C   0  0  0  0  0  0  0  0  0  0  0  0
   22.7250   -6.2450  -21.5603 C   0  0  2  0  0  0  0  0  0  0  0  0
   22.3354   -7.4496  -22.2350 N   0  0  0  0  0  0  0  0  0  0  0  0
   21.6249   -5.6500  -20.7678 C   0  0  0  0  0  0  0  0  0  0  0  0
   20.4682   -5.6874  -21.2610 O   0  0  0  0  0  0  0  0  0  0  0  0
   25.6877   -5.3849  -22.4501 C   0  0  0  0  0  0  0  0  0  0  0  0
   26.9206   -5.7563  -22.9563 C   0  0  0  0  0  0  0  0  0  0  0  0
   21.8630   -5.0637  -19.5092 N   0  0  0  0  0  0  0  0  0  0  0  0
   20.7833   -4.4593  -18.7790 C   0  0  1  0  0  0  0  0  0  0  0  0
   20.5928   -5.2559  -17.4886 C   0  0  0  0  0  0  0  0  0  0  0  0
   19.4015   -4.6972  -16.7118 C   0  0  0  0  0  0  0  0  0  0  0  0
   19.0500   -5.5916  -15.5812 C   0  0  0  0  0  0  0  0  0  0  0  0
   19.7622   -6.6056  -15.3448 O   0  0  0  0  0  0  0  0  0  0  0  0
   21.1343   -3.0604  -18.5033 C   0  0  0  0  0  0  0  0  0  0  0  0
   22.2312   -2.6931  -17.9869 O   0  0  0  0  0  0  0  0  0  0  0  0
   17.9614   -5.3647  -14.7598 O   0  0  0  0  0  0  0  0  0  0  0  0
   20.2124   -1.9996  -18.8194 N   0  0  0  0  0  0  0  0  0  0  0  0
   20.4994   -0.6348  -18.5056 C   0  0  1  0  0  0  0  0  0  0  0  0
   20.8649    0.0712  -19.7988 C   0  0  0  0  0  0  0  0  0  0  0  0
   21.2378    1.7961  -19.3924 S   0  0  0  0  0  0  0  0  0  0  0  0
   19.4031    0.0372  -17.7910 C   0  0  0  0  0  0  0  0  0  0  0  0
   19.6085    1.1477  -16.9853 O   0  0  0  0  0  0  0  0  0  0  0  0
   18.2264   -0.3908  -17.8972 O   0  0  0  0  0  0  0  0  0  0  0  0
  2  1  1  0
  2 12  2  0
  3  2  1  0
  4  3  2  0
  4  5  1  0
  5 11  2  0
  6  7  1  0
  6  5  1  0
  7  8  1  6
  9 13  1  0
  9  7  1  0
 10  9  2  0
 11 12  1  0
 14 19  1  0
 14 13  1  0
 14 15  1  1
 16 15  1  0
 16 17  1  0
 17 18  2  0
 19 22  1  0
 20 19  2  0
 21 17  1  0
 22 23  1  0
 23 26  1  0
 23 24  1  6
 25 24  1  0
 26 28  2  0
 26 27  1  0
M  END
$$$$
