YEC.pdb
     RDKit          3D

 28 28  0  0  1  0  0  0  0  0999 V2000
   34.5517  -34.1698  -18.7492 O   0  0  0  0  0  0  0  0  0  0  0  0
   33.3853  -33.9725  -18.0160 C   0  0  0  0  0  0  0  0  0  0  0  0
   32.4707  -34.9972  -17.8184 C   0  0  0  0  0  0  0  0  0  0  0  0
   31.3200  -34.7793  -17.0877 C   0  0  0  0  0  0  0  0  0  0  0  0
   31.0981  -33.5269  -16.5596 C   0  0  0  0  0  0  0  0  0  0  0  0
   29.8654  -33.2746  -15.7707 C   0  0  0  0  0  0  0  0  0  0  0  0
   28.7402  -32.8808  -16.6747 C   0  0  2  0  0  0  0  0  0  0  0  0
   28.9055  -31.5292  -17.1264 N   0  0  0  0  0  0  0  0  0  0  0  0
   27.4636  -33.0931  -15.9554 C   0  0  0  0  0  0  0  0  0  0  0  0
   26.8116  -32.0720  -15.6165 O   0  0  0  0  0  0  0  0  0  0  0  0
   32.0166  -32.5241  -16.7664 C   0  0  0  0  0  0  0  0  0  0  0  0
   33.1755  -32.7228  -17.4957 C   0  0  0  0  0  0  0  0  0  0  0  0
   26.9956  -34.3888  -15.6608 N   0  0  0  0  0  0  0  0  0  0  0  0
   25.7451  -34.5659  -14.9759 C   0  0  1  0  0  0  0  0  0  0  0  0
   25.1125  -35.8580  -15.4918 C   0  0  0  0  0  0  0  0  0  0  0  0
   24.3872  -35.5841  -16.8086 C   0  0  0  0  0  0  0  0  0  0  0  0
   23.7723  -36.8281  -17.3340 C   0  0  0  0  0  0  0  0  0  0  0  0
   22.6036  -37.1431  -16.9788 O   0  0  0  0  0  0  0  0  0  0  0  0
   26.0108  -34.6330  -13.5333 C   0  0  0  0  0  0  0  0  0  0  0  0
   27.1632  -34.7900  -13.0311 O   0  0  0  0  0  0  0  0  0  0  0  0
   24.4283  -37.6738  -18.2089 O   0  0  0  0  0  0  0  0  0  0  0  0
   24.9321  -34.5190  -12.5854 N   0  0  0  0  0  0  0  0  0  0  0  0
   25.1712  -34.4549  -11.1775 C   0  0  1  0  0  0  0  0  0  0  0  0
   25.9500  -33.1823  -10.8970 C   0  0  0  0  0  0  0  0  0  0  0  0
   26.2047  -33.0816   -9.1069 S   0  0  0  0  0  0  0  0  0  0  0  0
   23.9403  -34.5463  -10.3770 C   0  0  0  0  0  0  0  0  0  0  0  0
   22.7548  -33.9362  -10.7600 O   0  0  0  0  0  0  0  0  0  0  0  0
   23.9356  -35.1957   -9.3012 O   0  0  0  0  0  0  0  0  0  0  0  0
  2  1  1  0
  2 12  2  0
  3  2  1  0
  4  3  2  0
  4  5  1  0
  5 11  2  0
  6  7  1  0
  6  5  1  0
  7  8  1  1
  9 13  1  0
  9  7  1  0
 10  9  2  0
 11 12  1  0
 14 19  1  0
 14 13  1  0
 14 15  1  6
 16 15  1  0
 16 17  1  0
 17 18  2  0
 19 22  1  0
 20 19  2  0
 21 17  1  0
 22 23  1  0
 23 26  1  0
 23 24  1  6
 25 24  1  0
 26 28  2  0
 26 27  1  0
M  END
$$$$
