GNF.pdb
     RDKit          3D

 24 24  0  0  1  0  0  0  0  0999 V2000
    6.0107  -20.4036   22.4695 N   0  0  0  0  0  0  0  0  0  0  0  0
    5.9834  -19.1259   23.1210 C   0  0  0  0  0  0  0  0  0  0  0  0
    7.1724  -18.2781   22.8496 C   0  0  0  0  0  0  0  0  0  0  0  0
    8.3005  -18.8426   22.7757 O   0  0  0  0  0  0  0  0  0  0  0  0
    7.9564  -15.1532   19.3143 N   0  0  0  0  0  0  0  0  0  0  0  0
    7.1557  -15.0454   20.4931 C   0  0  0  0  0  0  0  0  0  0  0  0
    5.8931  -15.2068   20.4025 O   0  0  0  0  0  0  0  0  0  0  0  0
    7.7760  -14.7496   21.8036 C   0  0  0  0  0  0  0  0  0  0  0  0
    8.1055  -16.0059   22.5351 C   0  0  2  0  0  0  0  0  0  0  0  0
    6.9754  -16.8843   22.6878 N   0  0  0  0  0  0  0  0  0  0  0  0
    8.7548  -15.6764   23.8242 C   0  0  0  0  0  0  0  0  0  0  0  0
    9.8854  -15.0780   23.8014 O   0  0  0  0  0  0  0  0  0  0  0  0
    8.1280  -16.0214   25.0419 N   0  0  0  0  0  0  0  0  0  0  0  0
    8.8349  -15.7044   26.2868 C   0  0  1  0  0  0  0  0  0  0  0  0
    7.8926  -15.1641   27.3095 C   0  0  0  0  0  0  0  0  0  0  0  0
    7.3777  -13.8501   26.9072 C   0  0  0  0  0  0  0  0  0  0  0  0
    8.1900  -12.7257   26.9562 C   0  0  0  0  0  0  0  0  0  0  0  0
    7.7289  -11.4892   26.5575 C   0  0  0  0  0  0  0  0  0  0  0  0
    6.4291  -11.3245   26.0899 C   0  0  0  0  0  0  0  0  0  0  0  0
    5.6223  -12.4327   26.0388 C   0  0  0  0  0  0  0  0  0  0  0  0
    6.0955  -13.6736   26.4425 C   0  0  0  0  0  0  0  0  0  0  0  0
    9.4550  -16.9557   26.7474 C   0  0  0  0  0  0  0  0  0  0  0  0
    9.3143  -18.1431   26.0744 O   0  0  0  0  0  0  0  0  0  0  0  0
   10.1451  -16.9689   27.7941 O   0  0  0  0  0  0  0  0  0  0  0  0
  2  1  1  0
  3  2  1  0
  4  3  2  0
  6  5  1  0
  7  6  2  0
  9  8  1  1
  8  6  1  0
  9 10  1  0
 10  3  1  0
 11  9  1  0
 11 12  2  0
 13 11  1  0
 14 13  1  0
 14 15  1  1
 16 21  2  0
 16 15  1  0
 17 16  1  0
 18 19  1  0
 18 17  2  0
 19 20  2  0
 20 21  1  0
 22 14  1  0
 23 22  1  0
 24 22  2  0
M  END
$$$$
