GNF.pdb
     RDKit          3D

 24 24  0  0  1  0  0  0  0  0999 V2000
    7.9174  -12.4688   18.7973 N   0  0  0  0  0  0  0  0  0  0  0  0
    8.7802  -13.5332   19.2220 C   0  0  0  0  0  0  0  0  0  0  0  0
    8.3568  -14.1943   20.4829 C   0  0  0  0  0  0  0  0  0  0  0  0
    7.8442  -13.4763   21.3875 O   0  0  0  0  0  0  0  0  0  0  0  0
    5.9746  -17.2236   20.1969 N   0  0  0  0  0  0  0  0  0  0  0  0
    7.1360  -18.0153   20.4548 C   0  0  0  0  0  0  0  0  0  0  0  0
    7.4274  -18.9678   19.6572 O   0  0  0  0  0  0  0  0  0  0  0  0
    7.9926  -17.7401   21.6297 C   0  0  0  0  0  0  0  0  0  0  0  0
    8.1898  -16.2744   21.8162 C   0  0  2  0  0  0  0  0  0  0  0  0
    8.5501  -15.5931   20.6005 N   0  0  0  0  0  0  0  0  0  0  0  0
    9.1537  -16.0370   22.9147 C   0  0  0  0  0  0  0  0  0  0  0  0
   10.4038  -16.1249   22.6577 O   0  0  0  0  0  0  0  0  0  0  0  0
    8.6880  -15.7219   24.2103 N   0  0  0  0  0  0  0  0  0  0  0  0
    9.6883  -15.4525   25.2479 C   0  0  1  0  0  0  0  0  0  0  0  0
    9.7626  -13.9929   25.5475 C   0  0  0  0  0  0  0  0  0  0  0  0
    8.4320  -13.4489   25.8428 C   0  0  0  0  0  0  0  0  0  0  0  0
    8.0724  -13.1238   27.1434 C   0  0  0  0  0  0  0  0  0  0  0  0
    6.8356  -12.5880   27.4334 C   0  0  0  0  0  0  0  0  0  0  0  0
    5.9018  -12.3531   26.4294 C   0  0  0  0  0  0  0  0  0  0  0  0
    6.2525  -12.6720   25.1422 C   0  0  0  0  0  0  0  0  0  0  0  0
    7.5000  -13.2111   24.8599 C   0  0  0  0  0  0  0  0  0  0  0  0
    9.2770  -16.2161   26.4355 C   0  0  0  0  0  0  0  0  0  0  0  0
   10.0227  -16.2531   27.5866 O   0  0  0  0  0  0  0  0  0  0  0  0
    8.2071  -16.8697   26.4249 O   0  0  0  0  0  0  0  0  0  0  0  0
  2  1  1  0
  3  2  1  0
  4  3  2  0
  6  5  1  0
  7  6  2  0
  9  8  1  6
  8  6  1  0
  9 10  1  0
 10  3  1  0
 11  9  1  0
 11 12  2  0
 13 11  1  0
 14 13  1  0
 14 15  1  1
 16 21  2  0
 16 15  1  0
 17 16  1  0
 18 19  1  0
 18 17  2  0
 19 20  2  0
 20 21  1  0
 22 14  1  0
 23 22  1  0
 24 22  2  0
M  END
$$$$
