GNF.pdb
     RDKit          3D

 24 24  0  0  1  0  0  0  0  0999 V2000
    7.4961  -12.3356   18.7133 N   0  0  0  0  0  0  0  0  0  0  0  0
    8.6023  -12.9375   19.4002 C   0  0  0  0  0  0  0  0  0  0  0  0
    8.2184  -14.0193   20.3427 C   0  0  0  0  0  0  0  0  0  0  0  0
    7.0294  -14.0413   20.7699 O   0  0  0  0  0  0  0  0  0  0  0  0
    8.5867  -16.6634   18.9038 N   0  0  0  0  0  0  0  0  0  0  0  0
    9.2598  -17.6212   19.7235 C   0  0  0  0  0  0  0  0  0  0  0  0
    9.6537  -18.7170   19.2013 O   0  0  0  0  0  0  0  0  0  0  0  0
    9.4987  -17.3525   21.1588 C   0  0  0  0  0  0  0  0  0  0  0  0
    8.8692  -16.0668   21.5743 C   0  0  2  0  0  0  0  0  0  0  0  0
    9.2062  -14.9667   20.7093 N   0  0  0  0  0  0  0  0  0  0  0  0
    9.1810  -15.7957   22.9961 C   0  0  0  0  0  0  0  0  0  0  0  0
   10.2680  -15.1812   23.2747 O   0  0  0  0  0  0  0  0  0  0  0  0
    8.2893  -16.2121   24.0089 N   0  0  0  0  0  0  0  0  0  0  0  0
    8.6248  -15.8722   25.3952 C   0  0  1  0  0  0  0  0  0  0  0  0
    7.3975  -15.5223   26.1680 C   0  0  0  0  0  0  0  0  0  0  0  0
    7.2519  -14.0673   26.2921 C   0  0  0  0  0  0  0  0  0  0  0  0
    8.3547  -13.2326   26.1753 C   0  0  0  0  0  0  0  0  0  0  0  0
    8.2303  -11.8624   26.2640 C   0  0  0  0  0  0  0  0  0  0  0  0
    6.9910  -11.2664   26.4736 C   0  0  0  0  0  0  0  0  0  0  0  0
    5.8977  -12.0867   26.5890 C   0  0  0  0  0  0  0  0  0  0  0  0
    6.0329  -13.4652   26.4985 C   0  0  0  0  0  0  0  0  0  0  0  0
    9.2916  -17.0518   25.9668 C   0  0  0  0  0  0  0  0  0  0  0  0
    9.9540  -17.0181   27.1678 O   0  0  0  0  0  0  0  0  0  0  0  0
    9.2710  -18.1456   25.3544 O   0  0  0  0  0  0  0  0  0  0  0  0
  2  1  1  0
  3  2  1  0
  4  3  2  0
  6  5  1  0
  7  6  2  0
  9  8  1  6
  8  6  1  0
  9 10  1  0
 10  3  1  0
 11  9  1  0
 11 12  2  0
 13 11  1  0
 14 13  1  0
 14 15  1  1
 16 21  2  0
 16 15  1  0
 17 16  1  0
 18 19  1  0
 18 17  2  0
 19 20  2  0
 20 21  1  0
 22 14  1  0
 23 22  1  0
 24 22  2  0
M  END
$$$$
