GNF.pdb
     RDKit          3D

 24 24  0  0  1  0  0  0  0  0999 V2000
    7.5353  -12.7250   18.5905 N   0  0  0  0  0  0  0  0  0  0  0  0
    8.5906  -13.0738   19.4973 C   0  0  0  0  0  0  0  0  0  0  0  0
    8.3737  -14.3522   20.2218 C   0  0  0  0  0  0  0  0  0  0  0  0
    7.1839  -14.7152   20.4437 O   0  0  0  0  0  0  0  0  0  0  0  0
   11.1855  -17.6060   18.7904 N   0  0  0  0  0  0  0  0  0  0  0  0
   10.1753  -17.8272   19.7768 C   0  0  0  0  0  0  0  0  0  0  0  0
    9.1175  -18.4618   19.4501 O   0  0  0  0  0  0  0  0  0  0  0  0
   10.3471  -17.3288   21.1595 C   0  0  0  0  0  0  0  0  0  0  0  0
    9.3638  -16.2510   21.4654 C   0  0  2  0  0  0  0  0  0  0  0  0
    9.5127  -15.0938   20.6224 N   0  0  0  0  0  0  0  0  0  0  0  0
    9.4183  -15.9214   22.9078 C   0  0  0  0  0  0  0  0  0  0  0  0
   10.4128  -15.2428   23.3404 O   0  0  0  0  0  0  0  0  0  0  0  0
    8.3888  -16.3533   23.7728 N   0  0  0  0  0  0  0  0  0  0  0  0
    8.4274  -15.8907   25.1636 C   0  0  1  0  0  0  0  0  0  0  0  0
    7.0653  -15.5014   25.6316 C   0  0  0  0  0  0  0  0  0  0  0  0
    6.9744  -14.0510   25.8350 C   0  0  0  0  0  0  0  0  0  0  0  0
    6.3179  -13.5307   26.9418 C   0  0  0  0  0  0  0  0  0  0  0  0
    6.2460  -12.1714   27.1603 C   0  0  0  0  0  0  0  0  0  0  0  0
    6.8314  -11.2705   26.2767 C   0  0  0  0  0  0  0  0  0  0  0  0
    7.4821  -11.7794   25.1816 C   0  0  0  0  0  0  0  0  0  0  0  0
    7.5491  -13.1496   24.9699 C   0  0  0  0  0  0  0  0  0  0  0  0
    8.9628  -17.0040   25.9613 C   0  0  0  0  0  0  0  0  0  0  0  0
    9.5711  -16.8181   27.1770 O   0  0  0  0  0  0  0  0  0  0  0  0
    8.8747  -18.1812   25.5390 O   0  0  0  0  0  0  0  0  0  0  0  0
  2  1  1  0
  3  2  1  0
  4  3  2  0
  6  5  1  0
  7  6  2  0
  9  8  1  6
  8  6  1  0
  9 10  1  0
 10  3  1  0
 11  9  1  0
 11 12  2  0
 13 11  1  0
 14 13  1  0
 14 15  1  1
 16 21  2  0
 16 15  1  0
 17 16  1  0
 18 19  1  0
 18 17  2  0
 19 20  2  0
 20 21  1  0
 22 14  1  0
 23 22  1  0
 24 22  2  0
M  END
$$$$
