GNF.pdb
     RDKit          3D

 24 24  0  0  1  0  0  0  0  0999 V2000
    7.8427  -12.6677   18.5721 N   0  0  0  0  0  0  0  0  0  0  0  0
    8.7571  -13.6552   19.0686 C   0  0  0  0  0  0  0  0  0  0  0  0
    8.3392  -14.2839   20.3477 C   0  0  0  0  0  0  0  0  0  0  0  0
    7.7815  -13.5535   21.2148 O   0  0  0  0  0  0  0  0  0  0  0  0
    5.8589  -18.0503   20.2916 N   0  0  0  0  0  0  0  0  0  0  0  0
    7.2860  -18.1093   20.3362 C   0  0  0  0  0  0  0  0  0  0  0  0
    7.9267  -18.4379   19.2826 O   0  0  0  0  0  0  0  0  0  0  0  0
    8.0168  -17.7959   21.5841 C   0  0  0  0  0  0  0  0  0  0  0  0
    8.1969  -16.3248   21.7433 C   0  0  2  0  0  0  0  0  0  0  0  0
    8.5881  -15.6677   20.5237 N   0  0  0  0  0  0  0  0  0  0  0  0
    9.1256  -16.0547   22.8643 C   0  0  0  0  0  0  0  0  0  0  0  0
   10.3836  -16.0811   22.6329 O   0  0  0  0  0  0  0  0  0  0  0  0
    8.6190  -15.7762   24.1528 N   0  0  0  0  0  0  0  0  0  0  0  0
    9.5857  -15.5518   25.2321 C   0  0  1  0  0  0  0  0  0  0  0  0
    9.7043  -14.0978   25.5448 C   0  0  0  0  0  0  0  0  0  0  0  0
    8.3994  -13.5289   25.9012 C   0  0  0  0  0  0  0  0  0  0  0  0
    8.0354  -13.3700   27.2312 C   0  0  0  0  0  0  0  0  0  0  0  0
    6.8238  -12.8136   27.5821 C   0  0  0  0  0  0  0  0  0  0  0  0
    5.9207  -12.3901   26.6124 C   0  0  0  0  0  0  0  0  0  0  0  0
    6.2758  -12.5443   25.2965 C   0  0  0  0  0  0  0  0  0  0  0  0
    7.4980  -13.1056   24.9528 C   0  0  0  0  0  0  0  0  0  0  0  0
    9.0968  -16.3052   26.3966 C   0  0  0  0  0  0  0  0  0  0  0  0
    9.8192  -16.4255   27.5568 O   0  0  0  0  0  0  0  0  0  0  0  0
    7.9788  -16.8713   26.3566 O   0  0  0  0  0  0  0  0  0  0  0  0
  2  1  1  0
  3  2  1  0
  4  3  2  0
  6  5  1  0
  7  6  2  0
  9  8  1  6
  8  6  1  0
  9 10  1  0
 10  3  1  0
 11  9  1  0
 11 12  2  0
 13 11  1  0
 14 13  1  0
 14 15  1  1
 16 21  2  0
 16 15  1  0
 17 16  1  0
 18 19  1  0
 18 17  2  0
 19 20  2  0
 20 21  1  0
 22 14  1  0
 23 22  1  0
 24 22  2  0
M  END
$$$$
