GNF.pdb
     RDKit          3D

 24 24  0  0  1  0  0  0  0  0999 V2000
    7.0566  -12.5913   19.3893 N   0  0  0  0  0  0  0  0  0  0  0  0
    8.3141  -13.1395   19.8086 C   0  0  0  0  0  0  0  0  0  0  0  0
    8.1967  -14.2931   20.7368 C   0  0  0  0  0  0  0  0  0  0  0  0
    7.0401  -14.6452   21.1041 O   0  0  0  0  0  0  0  0  0  0  0  0
    8.8446  -18.8914   20.3648 N   0  0  0  0  0  0  0  0  0  0  0  0
    9.7752  -17.8071   20.3437 C   0  0  0  0  0  0  0  0  0  0  0  0
   10.2054  -17.3804   19.2205 O   0  0  0  0  0  0  0  0  0  0  0  0
   10.2384  -17.1839   21.6033 C   0  0  0  0  0  0  0  0  0  0  0  0
    9.3247  -16.0835   22.0232 C   0  0  2  0  0  0  0  0  0  0  0  0
    9.3877  -14.9350   21.1577 N   0  0  0  0  0  0  0  0  0  0  0  0
    9.5706  -15.7461   23.4437 C   0  0  0  0  0  0  0  0  0  0  0  0
   10.6483  -15.1258   23.7446 O   0  0  0  0  0  0  0  0  0  0  0  0
    8.6279  -16.1074   24.4312 N   0  0  0  0  0  0  0  0  0  0  0  0
    8.9639  -15.8260   25.8305 C   0  0  1  0  0  0  0  0  0  0  0  0
    7.7303  -15.5883   26.6352 C   0  0  0  0  0  0  0  0  0  0  0  0
    7.2605  -14.2066   26.4807 C   0  0  0  0  0  0  0  0  0  0  0  0
    8.0766  -13.1383   26.8255 C   0  0  0  0  0  0  0  0  0  0  0  0
    7.6594  -11.8344   26.6623 C   0  0  0  0  0  0  0  0  0  0  0  0
    6.4018  -11.5428   26.1440 C   0  0  0  0  0  0  0  0  0  0  0  0
    5.5915  -12.5951   25.8009 C   0  0  0  0  0  0  0  0  0  0  0  0
    6.0203  -13.9045   25.9690 C   0  0  0  0  0  0  0  0  0  0  0  0
    9.7028  -16.9961   26.3280 C   0  0  0  0  0  0  0  0  0  0  0  0
    9.9141  -18.1171   25.5656 O   0  0  0  0  0  0  0  0  0  0  0  0
   10.1696  -16.9984   27.4916 O   0  0  0  0  0  0  0  0  0  0  0  0
  2  1  1  0
  3  2  1  0
  4  3  2  0
  6  5  1  0
  7  6  2  0
  9  8  1  6
  8  6  1  0
  9 10  1  0
 10  3  1  0
 11  9  1  0
 11 12  2  0
 13 11  1  0
 14 13  1  0
 14 15  1  1
 16 21  2  0
 16 15  1  0
 17 16  1  0
 18 19  1  0
 18 17  2  0
 19 20  2  0
 20 21  1  0
 22 14  1  0
 23 22  1  0
 24 22  2  0
M  END
$$$$
