GNF.pdb
     RDKit          3D

 24 24  0  0  1  0  0  0  0  0999 V2000
    6.8963  -12.8342   19.4407 N   0  0  0  0  0  0  0  0  0  0  0  0
    8.1548  -13.4509   19.7464 C   0  0  0  0  0  0  0  0  0  0  0  0
    8.0877  -14.4703   20.8245 C   0  0  0  0  0  0  0  0  0  0  0  0
    6.9881  -14.6271   21.4267 O   0  0  0  0  0  0  0  0  0  0  0  0
   10.1527  -17.9428   19.1732 N   0  0  0  0  0  0  0  0  0  0  0  0
    9.6117  -18.1743   20.4755 C   0  0  0  0  0  0  0  0  0  0  0  0
    8.6749  -19.0296   20.6151 O   0  0  0  0  0  0  0  0  0  0  0  0
   10.1254  -17.4349   21.6498 C   0  0  0  0  0  0  0  0  0  0  0  0
    9.2052  -16.3245   22.0270 C   0  0  2  0  0  0  0  0  0  0  0  0
    9.2600  -15.2108   21.1167 N   0  0  0  0  0  0  0  0  0  0  0  0
    9.4505  -15.9296   23.4327 C   0  0  0  0  0  0  0  0  0  0  0  0
   10.5024  -15.2526   23.7005 O   0  0  0  0  0  0  0  0  0  0  0  0
    8.5351  -16.2994   24.4426 N   0  0  0  0  0  0  0  0  0  0  0  0
    8.8419  -15.9019   25.8202 C   0  0  1  0  0  0  0  0  0  0  0  0
    7.5961  -15.5460   26.5599 C   0  0  0  0  0  0  0  0  0  0  0  0
    7.2108  -14.1539   26.3008 C   0  0  0  0  0  0  0  0  0  0  0  0
    8.0252  -13.1061   26.7075 C   0  0  0  0  0  0  0  0  0  0  0  0
    7.6897  -11.7942   26.4489 C   0  0  0  0  0  0  0  0  0  0  0  0
    6.5196  -11.4734   25.7683 C   0  0  0  0  0  0  0  0  0  0  0  0
    5.7115  -12.5052   25.3634 C   0  0  0  0  0  0  0  0  0  0  0  0
    6.0576  -13.8230   25.6285 C   0  0  0  0  0  0  0  0  0  0  0  0
    9.5200  -17.0469   26.4461 C   0  0  0  0  0  0  0  0  0  0  0  0
    9.6660  -18.2563   25.8148 O   0  0  0  0  0  0  0  0  0  0  0  0
    9.9935  -16.9435   27.6025 O   0  0  0  0  0  0  0  0  0  0  0  0
  2  1  1  0
  3  2  1  0
  4  3  2  0
  6  5  1  0
  7  6  2  0
  9  8  1  6
  8  6  1  0
  9 10  1  0
 10  3  1  0
 11  9  1  0
 11 12  2  0
 13 11  1  0
 14 13  1  0
 14 15  1  1
 16 21  2  0
 16 15  1  0
 17 16  1  0
 18 19  1  0
 18 17  2  0
 19 20  2  0
 20 21  1  0
 22 14  1  0
 23 22  1  0
 24 22  2  0
M  END
$$$$
