GNF.pdb
     RDKit          3D

 24 24  0  0  1  0  0  0  0  0999 V2000
    7.0256  -19.1312   19.5536 N   0  0  0  0  0  0  0  0  0  0  0  0
    6.8764  -18.3620   20.7551 C   0  0  0  0  0  0  0  0  0  0  0  0
    7.8721  -17.2705   20.9073 C   0  0  0  0  0  0  0  0  0  0  0  0
    9.0965  -17.5636   20.8002 O   0  0  0  0  0  0  0  0  0  0  0  0
    8.2352  -12.3589   18.7533 N   0  0  0  0  0  0  0  0  0  0  0  0
    7.7789  -13.5149   19.4588 C   0  0  0  0  0  0  0  0  0  0  0  0
    7.3290  -14.5086   18.7964 O   0  0  0  0  0  0  0  0  0  0  0  0
    7.8236  -13.5648   20.9370 C   0  0  0  0  0  0  0  0  0  0  0  0
    8.3192  -14.8877   21.4127 C   0  0  2  0  0  0  0  0  0  0  0  0
    7.3936  -15.9615   21.1629 N   0  0  0  0  0  0  0  0  0  0  0  0
    8.7140  -14.7896   22.8363 C   0  0  0  0  0  0  0  0  0  0  0  0
    9.5963  -13.9237   23.1654 O   0  0  0  0  0  0  0  0  0  0  0  0
    8.1212  -15.6392   23.7962 N   0  0  0  0  0  0  0  0  0  0  0  0
    8.6362  -15.5829   25.1678 C   0  0  1  0  0  0  0  0  0  0  0  0
    7.5257  -15.3835   26.1441 C   0  0  0  0  0  0  0  0  0  0  0  0
    7.2494  -13.9558   26.3409 C   0  0  0  0  0  0  0  0  0  0  0  0
    5.9667  -13.4529   26.1727 C   0  0  0  0  0  0  0  0  0  0  0  0
    5.6861  -12.1189   26.3788 C   0  0  0  0  0  0  0  0  0  0  0  0
    6.6818  -11.2273   26.7645 C   0  0  0  0  0  0  0  0  0  0  0  0
    7.9511  -11.7193   26.9329 C   0  0  0  0  0  0  0  0  0  0  0  0
    8.2240  -13.0640   26.7229 C   0  0  0  0  0  0  0  0  0  0  0  0
    9.3297  -16.8572   25.4083 C   0  0  0  0  0  0  0  0  0  0  0  0
   10.0683  -17.0959   26.5396 O   0  0  0  0  0  0  0  0  0  0  0  0
    9.2616  -17.7808   24.5631 O   0  0  0  0  0  0  0  0  0  0  0  0
  2  1  1  0
  3  2  1  0
  4  3  2  0
  6  5  1  0
  7  6  2  0
  9  8  1  1
  8  6  1  0
  9 10  1  0
 10  3  1  0
 11  9  1  0
 11 12  2  0
 13 11  1  0
 14 13  1  0
 14 15  1  1
 16 21  2  0
 16 15  1  0
 17 16  1  0
 18 19  1  0
 18 17  2  0
 19 20  2  0
 20 21  1  0
 22 14  1  0
 23 22  1  0
 24 22  2  0
M  END
$$$$
