GNF.pdb
     RDKit          3D

 24 24  0  0  1  0  0  0  0  0999 V2000
    7.4576  -12.2504   19.1115 N   0  0  0  0  0  0  0  0  0  0  0  0
    8.5263  -13.0161   19.6853 C   0  0  0  0  0  0  0  0  0  0  0  0
    8.0819  -14.2318   20.4139 C   0  0  0  0  0  0  0  0  0  0  0  0
    6.8401  -14.4362   20.5271 O   0  0  0  0  0  0  0  0  0  0  0  0
    7.5271  -17.8331   19.5361 N   0  0  0  0  0  0  0  0  0  0  0  0
    8.7928  -18.2777   20.0287 C   0  0  0  0  0  0  0  0  0  0  0  0
    9.2888  -19.3624   19.5750 O   0  0  0  0  0  0  0  0  0  0  0  0
    9.5226  -17.4963   21.0516 C   0  0  0  0  0  0  0  0  0  0  0  0
    8.7011  -16.3507   21.5361 C   0  0  2  0  0  0  0  0  0  0  0  0
    9.0748  -15.0948   20.9401 N   0  0  0  0  0  0  0  0  0  0  0  0
    8.7225  -16.3127   23.0161 C   0  0  0  0  0  0  0  0  0  0  0  0
    8.2435  -17.3103   23.6580 O   0  0  0  0  0  0  0  0  0  0  0  0
    9.2624  -15.1942   23.6884 N   0  0  0  0  0  0  0  0  0  0  0  0
    8.9779  -15.0562   25.1202 C   0  0  1  0  0  0  0  0  0  0  0  0
    7.5072  -15.0288   25.3690 C   0  0  0  0  0  0  0  0  0  0  0  0
    7.0803  -13.7100   25.8507 C   0  0  0  0  0  0  0  0  0  0  0  0
    7.8933  -12.5976   25.6834 C   0  0  0  0  0  0  0  0  0  0  0  0
    7.4955  -11.3475   26.1075 C   0  0  0  0  0  0  0  0  0  0  0  0
    6.2610  -11.1565   26.7195 C   0  0  0  0  0  0  0  0  0  0  0  0
    5.4533  -12.2525   26.8866 C   0  0  0  0  0  0  0  0  0  0  0  0
    5.8625  -13.5072   26.4565 C   0  0  0  0  0  0  0  0  0  0  0  0
    9.6058  -16.2075   25.7855 C   0  0  0  0  0  0  0  0  0  0  0  0
   10.2245  -17.2165   25.0916 O   0  0  0  0  0  0  0  0  0  0  0  0
    9.5904  -16.2980   27.0359 O   0  0  0  0  0  0  0  0  0  0  0  0
  2  1  1  0
  3  2  1  0
  4  3  2  0
  6  5  1  0
  7  6  2  0
  9  8  1  6
  8  6  1  0
  9 10  1  0
 10  3  1  0
 11  9  1  0
 11 12  2  0
 13 11  1  0
 14 13  1  0
 14 15  1  6
 16 21  2  0
 16 15  1  0
 17 16  1  0
 18 19  1  0
 18 17  2  0
 19 20  2  0
 20 21  1  0
 22 14  1  0
 23 22  1  0
 24 22  2  0
M  END
$$$$
