GNF.pdb
     RDKit          3D

 24 24  0  0  1  0  0  0  0  0999 V2000
    5.3662  -19.9719   21.4678 N   0  0  0  0  0  0  0  0  0  0  0  0
    5.6755  -18.9197   22.3924 C   0  0  0  0  0  0  0  0  0  0  0  0
    7.0223  -18.3217   22.2064 C   0  0  0  0  0  0  0  0  0  0  0  0
    8.0169  -19.0996   22.1598 O   0  0  0  0  0  0  0  0  0  0  0  0
    6.1374  -14.5206   21.9629 N   0  0  0  0  0  0  0  0  0  0  0  0
    7.3826  -14.1266   21.3828 C   0  0  0  0  0  0  0  0  0  0  0  0
    7.6234  -12.8847   21.2149 O   0  0  0  0  0  0  0  0  0  0  0  0
    8.3826  -15.1398   20.9792 C   0  0  0  0  0  0  0  0  0  0  0  0
    8.4018  -16.2829   21.9358 C   0  0  2  0  0  0  0  0  0  0  0  0
    7.1166  -16.9126   22.0903 N   0  0  0  0  0  0  0  0  0  0  0  0
    8.9851  -15.8449   23.2243 C   0  0  0  0  0  0  0  0  0  0  0  0
   10.1273  -15.2687   23.2113 O   0  0  0  0  0  0  0  0  0  0  0  0
    8.2845  -16.0653   24.4306 N   0  0  0  0  0  0  0  0  0  0  0  0
    8.9505  -15.6960   25.6835 C   0  0  1  0  0  0  0  0  0  0  0  0
    7.9599  -15.2125   26.6889 C   0  0  0  0  0  0  0  0  0  0  0  0
    7.5496  -13.8333   26.4007 C   0  0  0  0  0  0  0  0  0  0  0  0
    6.2284  -13.5362   26.0967 C   0  0  0  0  0  0  0  0  0  0  0  0
    5.8224  -12.2421   25.8488 C   0  0  0  0  0  0  0  0  0  0  0  0
    6.7257  -11.1852   25.8954 C   0  0  0  0  0  0  0  0  0  0  0  0
    8.0326  -11.4733   26.1962 C   0  0  0  0  0  0  0  0  0  0  0  0
    8.4320  -12.7793   26.4442 C   0  0  0  0  0  0  0  0  0  0  0  0
    9.6437  -16.9017   26.1614 C   0  0  0  0  0  0  0  0  0  0  0  0
   10.6124  -16.8629   27.1322 O   0  0  0  0  0  0  0  0  0  0  0  0
    9.3595  -18.0242   25.6805 O   0  0  0  0  0  0  0  0  0  0  0  0
  2  1  1  0
  3  2  1  0
  4  3  2  0
  6  5  1  0
  7  6  2  0
  9  8  1  6
  8  6  1  0
  9 10  1  0
 10  3  1  0
 11  9  1  0
 11 12  2  0
 13 11  1  0
 14 13  1  0
 14 15  1  1
 16 21  2  0
 16 15  1  0
 17 16  1  0
 18 19  1  0
 18 17  2  0
 19 20  2  0
 20 21  1  0
 22 14  1  0
 23 22  1  0
 24 22  2  0
M  END
$$$$
