GNF.pdb
     RDKit          3D

 24 24  0  0  1  0  0  0  0  0999 V2000
    8.9068  -16.4558   17.9867 N   0  0  0  0  0  0  0  0  0  0  0  0
    7.8417  -16.6792   18.9211 C   0  0  0  0  0  0  0  0  0  0  0  0
    8.2962  -16.9642   20.3062 C   0  0  0  0  0  0  0  0  0  0  0  0
    7.4167  -17.1631   21.1913 O   0  0  0  0  0  0  0  0  0  0  0  0
   11.9853  -20.1683   21.8173 N   0  0  0  0  0  0  0  0  0  0  0  0
   11.8575  -18.9169   21.1391 C   0  0  0  0  0  0  0  0  0  0  0  0
   11.9484  -18.8886   19.8665 O   0  0  0  0  0  0  0  0  0  0  0  0
   11.6240  -17.6673   21.8965 C   0  0  0  0  0  0  0  0  0  0  0  0
   10.1814  -17.2925   21.8781 C   0  0  2  0  0  0  0  0  0  0  0  0
    9.6903  -16.9983   20.5574 N   0  0  0  0  0  0  0  0  0  0  0  0
    9.9400  -16.1919   22.8387 C   0  0  0  0  0  0  0  0  0  0  0  0
   10.7436  -15.1964   22.8389 O   0  0  0  0  0  0  0  0  0  0  0  0
    8.8442  -16.2546   23.7273 N   0  0  0  0  0  0  0  0  0  0  0  0
    8.6409  -15.1256   24.6405 C   0  0  1  0  0  0  0  0  0  0  0  0
    7.4257  -14.3477   24.2607 C   0  0  0  0  0  0  0  0  0  0  0  0
    7.1783  -13.2607   25.2150 C   0  0  0  0  0  0  0  0  0  0  0  0
    6.1288  -13.3379   26.1199 C   0  0  0  0  0  0  0  0  0  0  0  0
    5.8990  -12.3367   27.0396 C   0  0  0  0  0  0  0  0  0  0  0  0
    6.7141  -11.2107   27.0933 C   0  0  0  0  0  0  0  0  0  0  0  0
    7.7532  -11.1298   26.2016 C   0  0  0  0  0  0  0  0  0  0  0  0
    7.9766  -12.1428   25.2793 C   0  0  0  0  0  0  0  0  0  0  0  0
    8.5039  -15.6960   25.9889 C   0  0  0  0  0  0  0  0  0  0  0  0
    8.9640  -15.0577   27.1129 O   0  0  0  0  0  0  0  0  0  0  0  0
    7.9492  -16.8089   26.1489 O   0  0  0  0  0  0  0  0  0  0  0  0
  2  1  1  0
  3  2  1  0
  4  3  2  0
  6  5  1  0
  7  6  2  0
  9  8  1  6
  8  6  1  0
  9 10  1  0
 10  3  1  0
 11  9  1  0
 11 12  2  0
 13 11  1  0
 14 13  1  0
 14 15  1  6
 16 21  2  0
 16 15  1  0
 17 16  1  0
 18 19  1  0
 18 17  2  0
 19 20  2  0
 20 21  1  0
 22 14  1  0
 23 22  1  0
 24 22  2  0
M  END
$$$$
