GNF.pdb
     RDKit          3D

 24 24  0  0  1  0  0  0  0  0999 V2000
    6.5352  -19.4546   19.4844 N   0  0  0  0  0  0  0  0  0  0  0  0
    6.4139  -18.0638   19.8138 C   0  0  0  0  0  0  0  0  0  0  0  0
    7.7101  -17.3787   20.0517 C   0  0  0  0  0  0  0  0  0  0  0  0
    8.6850  -18.0744   20.4546 O   0  0  0  0  0  0  0  0  0  0  0  0
    7.2356  -13.0251   18.0302 N   0  0  0  0  0  0  0  0  0  0  0  0
    8.2854  -13.9793   18.2026 C   0  0  0  0  0  0  0  0  0  0  0  0
    8.4967  -14.8417   17.2859 O   0  0  0  0  0  0  0  0  0  0  0  0
    9.1188  -13.9735   19.4253 C   0  0  0  0  0  0  0  0  0  0  0  0
    8.9576  -15.2438   20.1883 C   0  0  2  0  0  0  0  0  0  0  0  0
    7.7816  -15.9839   19.8125 N   0  0  0  0  0  0  0  0  0  0  0  0
    9.0201  -14.9641   21.6409 C   0  0  0  0  0  0  0  0  0  0  0  0
   10.0647  -14.3908   22.1065 O   0  0  0  0  0  0  0  0  0  0  0  0
    7.9434  -15.3279   22.4795 N   0  0  0  0  0  0  0  0  0  0  0  0
    7.9689  -14.8538   23.8667 C   0  0  1  0  0  0  0  0  0  0  0  0
    7.0532  -13.6898   24.0469 C   0  0  0  0  0  0  0  0  0  0  0  0
    7.0749  -13.2143   25.4350 C   0  0  0  0  0  0  0  0  0  0  0  0
    5.8922  -12.9543   26.1133 C   0  0  0  0  0  0  0  0  0  0  0  0
    5.8954  -12.5317   27.4256 C   0  0  0  0  0  0  0  0  0  0  0  0
    7.0880  -12.3509   28.1185 C   0  0  0  0  0  0  0  0  0  0  0  0
    8.2597  -12.6071   27.4530 C   0  0  0  0  0  0  0  0  0  0  0  0
    8.2466  -13.0322   26.1317 C   0  0  0  0  0  0  0  0  0  0  0  0
    7.5539  -15.9883   24.7054 C   0  0  0  0  0  0  0  0  0  0  0  0
    8.0805  -16.2196   25.9510 O   0  0  0  0  0  0  0  0  0  0  0  0
    6.6862  -16.7933   24.2918 O   0  0  0  0  0  0  0  0  0  0  0  0
  2  1  1  0
  3  2  1  0
  4  3  2  0
  6  5  1  0
  7  6  2  0
  9  8  1  6
  8  6  1  0
  9 10  1  0
 10  3  1  0
 11  9  1  0
 11 12  2  0
 13 11  1  0
 14 13  1  0
 14 15  1  6
 16 21  2  0
 16 15  1  0
 17 16  1  0
 18 19  1  0
 18 17  2  0
 19 20  2  0
 20 21  1  0
 22 14  1  0
 23 22  1  0
 24 22  2  0
M  END
$$$$
