GNF.pdb
     RDKit          3D

 24 24  0  0  1  0  0  0  0  0999 V2000
    8.0446  -16.7078   15.6445 N   0  0  0  0  0  0  0  0  0  0  0  0
    9.2492  -16.7293   16.4231 C   0  0  0  0  0  0  0  0  0  0  0  0
    9.0668  -17.2163   17.8143 C   0  0  0  0  0  0  0  0  0  0  0  0
    7.8874  -17.3497   18.2476 O   0  0  0  0  0  0  0  0  0  0  0  0
   13.5059  -19.1258   20.4430 N   0  0  0  0  0  0  0  0  0  0  0  0
   12.3458  -18.9561   19.6259 C   0  0  0  0  0  0  0  0  0  0  0  0
   12.4906  -18.5994   18.4092 O   0  0  0  0  0  0  0  0  0  0  0  0
   10.9924  -19.1880   20.1774 C   0  0  0  0  0  0  0  0  0  0  0  0
   10.1010  -18.0224   19.9151 C   0  0  2  0  0  0  0  0  0  0  0  0
   10.2252  -17.5053   18.5775 N   0  0  0  0  0  0  0  0  0  0  0  0
   10.3148  -16.9880   20.9527 C   0  0  0  0  0  0  0  0  0  0  0  0
   11.3021  -16.1856   20.8184 O   0  0  0  0  0  0  0  0  0  0  0  0
    9.4405  -16.9023   22.0585 N   0  0  0  0  0  0  0  0  0  0  0  0
    9.6386  -15.7964   23.0006 C   0  0  1  0  0  0  0  0  0  0  0  0
    8.3602  -15.0642   23.2362 C   0  0  0  0  0  0  0  0  0  0  0  0
    7.9111  -14.3851   22.0153 C   0  0  0  0  0  0  0  0  0  0  0  0
    8.5520  -13.2391   21.5656 C   0  0  0  0  0  0  0  0  0  0  0  0
    8.1582  -12.6044   20.4067 C   0  0  0  0  0  0  0  0  0  0  0  0
    7.1016  -13.0922   19.6447 C   0  0  0  0  0  0  0  0  0  0  0  0
    6.4652  -14.2250   20.0843 C   0  0  0  0  0  0  0  0  0  0  0  0
    6.8687  -14.8571   21.2524 C   0  0  0  0  0  0  0  0  0  0  0  0
   10.1446  -16.3920   24.2463 C   0  0  0  0  0  0  0  0  0  0  0  0
   10.6605  -15.6389   25.2706 O   0  0  0  0  0  0  0  0  0  0  0  0
   10.1166  -17.6351   24.4071 O   0  0  0  0  0  0  0  0  0  0  0  0
  2  1  1  0
  3  2  1  0
  4  3  2  0
  6  5  1  0
  7  6  2  0
  9  8  1  1
  8  6  1  0
  9 10  1  0
 10  3  1  0
 11  9  1  0
 11 12  2  0
 13 11  1  0
 14 13  1  0
 14 15  1  1
 16 21  2  0
 16 15  1  0
 17 16  1  0
 18 19  1  0
 18 17  2  0
 19 20  2  0
 20 21  1  0
 22 14  1  0
 23 22  1  0
 24 22  2  0
M  END
$$$$
