REK.pdb
     RDKit          3D

 30 29  0  0  1  0  0  0  0  0999 V2000
   27.0450  -24.8408  -16.7746 N   0  0  0  0  0  0  0  0  0  0  0  0
   26.2950  -25.7171  -17.6035 C   0  0  0  0  0  0  0  0  0  0  0  0
   26.8881  -26.3737  -18.5370 N   0  0  0  0  0  0  0  0  0  0  0  0
   24.8997  -25.8754  -17.4147 N   0  0  0  0  0  0  0  0  0  0  0  0
   24.1786  -25.1937  -16.3649 C   0  0  0  0  0  0  0  0  0  0  0  0
   24.8637  -25.3962  -15.0412 C   0  0  0  0  0  0  0  0  0  0  0  0
   24.1193  -24.7551  -13.9158 C   0  0  0  0  0  0  0  0  0  0  0  0
   23.8486  -23.3158  -14.2235 C   0  0  2  0  0  0  0  0  0  0  0  0
   25.0458  -22.5456  -14.1349 N   0  0  0  0  0  0  0  0  0  0  0  0
   22.7339  -22.7585  -13.4145 C   0  0  0  0  0  0  0  0  0  0  0  0
   22.8110  -22.8747  -12.1688 O   0  0  0  0  0  0  0  0  0  0  0  0
   26.3687  -27.0869  -19.0661 N   0  0  0  0  0  0  0  0  0  0  0  0
   21.5991  -22.1087  -13.9721 C   0  0  2  0  0  0  0  0  0  0  0  0
   20.5227  -21.5593  -13.1776 C   0  0  0  0  0  0  0  0  0  0  0  0
   19.5872  -20.6818  -13.9407 C   0  0  0  0  0  0  0  0  0  0  0  0
   20.2725  -19.6257  -14.7486 C   0  0  0  0  0  0  0  0  0  0  0  0
   19.5422  -19.4352  -16.0316 O   0  0  0  0  0  0  0  0  0  0  0  0
   18.4333  -18.8400  -15.9985 C   0  0  0  0  0  0  0  0  0  0  0  0
   19.7340  -22.7070  -12.6332 O   0  0  0  0  0  0  0  0  0  0  0  0
   19.6045  -23.7823  -13.2781 O   0  0  0  0  0  0  0  0  0  0  0  0
   20.0099  -19.8712  -17.2437 N   0  0  0  0  0  0  0  0  0  0  0  0
   19.0919  -22.6498  -11.3687 C   0  0  1  0  0  0  0  0  0  0  0  0
   18.2726  -23.7174  -10.8362 C   0  0  0  0  0  0  0  0  0  0  0  0
   18.7252  -23.9704   -9.3913 C   0  0  0  0  0  0  0  0  0  0  0  0
   17.8650  -25.0132   -8.7520 C   0  0  0  0  0  0  0  0  0  0  0  0
   18.2400  -25.4045   -7.3761 C   0  0  0  0  0  0  0  0  0  0  0  0
   17.3821  -26.4312   -6.7148 N   0  0  0  0  0  0  0  0  0  0  0  0
   17.7580  -26.7748   -5.3866 C   0  0  0  0  0  0  0  0  0  0  0  0
   16.8273  -23.3290  -10.8157 O   0  0  0  0  0  0  0  0  0  0  0  0
   16.5515  -22.1200  -10.7490 O   0  0  0  0  0  0  0  0  0  0  0  0
  1  2  1  0
  2  3  2  0
  4  2  1  0
  4  5  1  0
  5  6  1  0
  7  6  1  0
  8  9  1  1
  8  7  1  0
 10  8  1  0
 11 10  2  0
 12 10  1  0
 13 18  1  0
 13 12  1  0
 13 14  1  6
 15 14  1  0
 16 15  1  0
 17 16  2  0
 18 19  2  0
 20 16  1  0
 21 22  1  0
 21 18  1  0
 22 23  1  6
 23 24  1  0
 24 25  1  0
 25 26  1  0
 26 27  1  0
 28 30  1  0
 28 22  1  0
 29 28  2  0
M  END
$$$$
