REK.pdb
     RDKit          3D

 30 29  0  0  1  0  0  0  0  0999 V2000
   30.3006  -24.5937  -15.9830 N   0  0  0  0  0  0  0  0  0  0  0  0
   29.4605  -24.4088  -17.1133 C   0  0  0  0  0  0  0  0  0  0  0  0
   29.5487  -25.2158  -18.1109 N   0  0  0  0  0  0  0  0  0  0  0  0
   28.5266  -23.3441  -17.1551 N   0  0  0  0  0  0  0  0  0  0  0  0
   28.8363  -22.0232  -16.6590 C   0  0  0  0  0  0  0  0  0  0  0  0
   28.4106  -21.8895  -15.2225 C   0  0  0  0  0  0  0  0  0  0  0  0
   27.2270  -20.9916  -15.0652 C   0  0  0  0  0  0  0  0  0  0  0  0
   27.6702  -19.5782  -14.8521 C   0  0  2  0  0  0  0  0  0  0  0  0
   28.6794  -19.5106  -13.8465 N   0  0  0  0  0  0  0  0  0  0  0  0
   26.5336  -18.6546  -14.6025 C   0  0  0  0  0  0  0  0  0  0  0  0
   26.0703  -18.6113  -13.4386 O   0  0  0  0  0  0  0  0  0  0  0  0
   28.9256  -25.0938  -18.9204 N   0  0  0  0  0  0  0  0  0  0  0  0
   25.9513  -17.8279  -15.6018 C   0  0  2  0  0  0  0  0  0  0  0  0
   24.9531  -16.8193  -15.3221 C   0  0  0  0  0  0  0  0  0  0  0  0
   25.3252  -15.4487  -15.7809 C   0  0  0  0  0  0  0  0  0  0  0  0
   24.3270  -14.3967  -15.4141 C   0  0  0  0  0  0  0  0  0  0  0  0
   24.7525  -13.0915  -15.9895 O   0  0  0  0  0  0  0  0  0  0  0  0
   24.4049  -12.8236  -17.1694 C   0  0  0  0  0  0  0  0  0  0  0  0
   23.6998  -17.2169  -16.0339 O   0  0  0  0  0  0  0  0  0  0  0  0
   23.6772  -17.3884  -17.2825 O   0  0  0  0  0  0  0  0  0  0  0  0
   25.5001  -12.1681  -15.3066 N   0  0  0  0  0  0  0  0  0  0  0  0
   22.4744  -17.4222  -15.3478 C   0  0  2  0  0  0  0  0  0  0  0  0
   21.2714  -17.9144  -15.9845 C   0  0  0  0  0  0  0  0  0  0  0  0
   20.2440  -18.1925  -14.8783 C   0  0  0  0  0  0  0  0  0  0  0  0
   18.9707  -18.7080  -15.4691 C   0  0  0  0  0  0  0  0  0  0  0  0
   17.8524  -18.9042  -14.5214 C   0  0  0  0  0  0  0  0  0  0  0  0
   16.6415  -19.5986  -15.0495 N   0  0  0  0  0  0  0  0  0  0  0  0
   15.5707  -19.7433  -14.1243 C   0  0  0  0  0  0  0  0  0  0  0  0
   20.6968  -16.8924  -16.9147 O   0  0  0  0  0  0  0  0  0  0  0  0
   20.7796  -15.6973  -16.5875 O   0  0  0  0  0  0  0  0  0  0  0  0
  1  2  1  0
  2  3  2  0
  4  2  1  0
  4  5  1  0
  5  6  1  0
  7  6  1  0
  8  9  1  1
  8  7  1  0
 10  8  1  0
 11 10  2  0
 12 10  1  0
 13 18  1  0
 13 12  1  0
 13 14  1  1
 15 14  1  0
 16 15  1  0
 17 16  2  0
 18 19  2  0
 20 16  1  0
 21 22  1  0
 21 18  1  0
 22 23  1  1
 23 24  1  0
 24 25  1  0
 25 26  1  0
 26 27  1  0
 28 30  1  0
 28 22  1  0
 29 28  2  0
M  END
$$$$
