REK.pdb
     RDKit          3D

 30 29  0  0  1  0  0  0  0  0999 V2000
   28.6667  -19.2542  -18.9890 N   0  0  0  0  0  0  0  0  0  0  0  0
   29.2280  -20.5498  -18.8349 C   0  0  0  0  0  0  0  0  0  0  0  0
   30.4985  -20.6791  -18.6810 N   0  0  0  0  0  0  0  0  0  0  0  0
   28.4043  -21.7026  -18.8501 N   0  0  0  0  0  0  0  0  0  0  0  0
   26.9638  -21.6253  -18.7736 C   0  0  0  0  0  0  0  0  0  0  0  0
   26.5468  -20.5270  -17.8343 C   0  0  0  0  0  0  0  0  0  0  0  0
   25.3543  -20.9046  -17.0174 C   0  0  0  0  0  0  0  0  0  0  0  0
   25.7414  -21.8814  -15.9517 C   0  0  2  0  0  0  0  0  0  0  0  0
   25.9458  -23.1798  -16.5055 N   0  0  0  0  0  0  0  0  0  0  0  0
   24.7983  -21.8775  -14.8036 C   0  0  0  0  0  0  0  0  0  0  0  0
   23.8838  -22.7347  -14.8053 O   0  0  0  0  0  0  0  0  0  0  0  0
   30.9183  -21.6184  -18.6843 N   0  0  0  0  0  0  0  0  0  0  0  0
   24.8780  -20.9642  -13.7170 C   0  0  1  0  0  0  0  0  0  0  0  0
   24.0147  -21.0244  -12.5581 C   0  0  0  0  0  0  0  0  0  0  0  0
   24.5932  -20.3981  -11.3330 C   0  0  0  0  0  0  0  0  0  0  0  0
   25.2260  -21.3767  -10.3952 C   0  0  0  0  0  0  0  0  0  0  0  0
   25.8451  -20.6408   -9.2590 O   0  0  0  0  0  0  0  0  0  0  0  0
   25.1920  -20.5503   -8.1866 C   0  0  0  0  0  0  0  0  0  0  0  0
   22.7554  -20.2928  -12.8964 O   0  0  0  0  0  0  0  0  0  0  0  0
   22.7695  -19.0792  -13.2369 O   0  0  0  0  0  0  0  0  0  0  0  0
   27.0840  -20.0579   -9.3167 N   0  0  0  0  0  0  0  0  0  0  0  0
   21.4829  -20.9200  -12.8534 C   0  0  1  0  0  0  0  0  0  0  0  0
   20.2402  -20.2330  -13.1333 C   0  0  0  0  0  0  0  0  0  0  0  0
   19.3167  -21.2243  -13.8552 C   0  0  0  0  0  0  0  0  0  0  0  0
   19.5702  -21.1926  -15.3285 C   0  0  0  0  0  0  0  0  0  0  0  0
   18.7587  -22.1225  -16.1432 C   0  0  0  0  0  0  0  0  0  0  0  0
   18.9402  -22.0494  -17.6227 N   0  0  0  0  0  0  0  0  0  0  0  0
   18.1201  -22.9303  -18.3810 C   0  0  0  0  0  0  0  0  0  0  0  0
   19.5678  -19.7982  -11.8688 O   0  0  0  0  0  0  0  0  0  0  0  0
   18.6204  -19.0004  -11.9593 O   0  0  0  0  0  0  0  0  0  0  0  0
  1  2  1  0
  2  3  2  0
  4  2  1  0
  4  5  1  0
  5  6  1  0
  7  6  1  0
  8  9  1  6
  8  7  1  0
 10  8  1  0
 11 10  2  0
 12 10  1  0
 13 18  1  0
 13 12  1  0
 13 14  1  1
 15 14  1  0
 16 15  1  0
 17 16  2  0
 18 19  2  0
 20 16  1  0
 21 22  1  0
 21 18  1  0
 22 23  1  6
 23 24  1  0
 24 25  1  0
 25 26  1  0
 26 27  1  0
 28 30  1  0
 28 22  1  0
 29 28  2  0
M  END
$$$$
