REK.pdb
     RDKit          3D

 30 29  0  0  1  0  0  0  0  0999 V2000
   26.8383  -21.5406   -9.9950 N   0  0  0  0  0  0  0  0  0  0  0  0
   26.0093  -20.5917  -10.6507 C   0  0  0  0  0  0  0  0  0  0  0  0
   24.8213  -20.3719  -10.2096 N   0  0  0  0  0  0  0  0  0  0  0  0
   26.4758  -19.8849  -11.7866 N   0  0  0  0  0  0  0  0  0  0  0  0
   27.7431  -20.1790  -12.4144 C   0  0  0  0  0  0  0  0  0  0  0  0
   28.0041  -19.2199  -13.5434 C   0  0  0  0  0  0  0  0  0  0  0  0
   27.0585  -19.4178  -14.6829 C   0  0  0  0  0  0  0  0  0  0  0  0
   27.1369  -20.8251  -15.1862 C   0  0  2  0  0  0  0  0  0  0  0  0
   28.1087  -20.9377  -16.2241 N   0  0  0  0  0  0  0  0  0  0  0  0
   25.8084  -21.3702  -15.5676 C   0  0  0  0  0  0  0  0  0  0  0  0
   25.3187  -20.9874  -16.6561 O   0  0  0  0  0  0  0  0  0  0  0  0
   24.2038  -19.7215  -10.7137 N   0  0  0  0  0  0  0  0  0  0  0  0
   25.0731  -22.2913  -14.7728 C   0  0  2  0  0  0  0  0  0  0  0  0
   23.8084  -22.8641  -15.1782 C   0  0  0  0  0  0  0  0  0  0  0  0
   23.5374  -24.2143  -14.6026 C   0  0  0  0  0  0  0  0  0  0  0  0
   24.4695  -25.2776  -15.0908 C   0  0  0  0  0  0  0  0  0  0  0  0
   24.3340  -25.4120  -16.5670 O   0  0  0  0  0  0  0  0  0  0  0  0
   25.3786  -25.6074  -17.2418 C   0  0  0  0  0  0  0  0  0  0  0  0
   22.7271  -21.9419  -14.7135 O   0  0  0  0  0  0  0  0  0  0  0  0
   22.6664  -21.5470  -13.5180 O   0  0  0  0  0  0  0  0  0  0  0  0
   23.1370  -25.3348  -17.2299 N   0  0  0  0  0  0  0  0  0  0  0  0
   21.7159  -21.4632  -15.5869 C   0  0  2  0  0  0  0  0  0  0  0  0
   20.6847  -20.5305  -15.1852 C   0  0  0  0  0  0  0  0  0  0  0  0
   19.9995  -20.0216  -16.4611 C   0  0  0  0  0  0  0  0  0  0  0  0
   20.9628  -19.2329  -17.2895 C   0  0  0  0  0  0  0  0  0  0  0  0
   20.4492  -18.7455  -18.5878 C   0  0  0  0  0  0  0  0  0  0  0  0
   21.4497  -18.1539  -19.5240 N   0  0  0  0  0  0  0  0  0  0  0  0
   20.9300  -17.7177  -20.7743 C   0  0  0  0  0  0  0  0  0  0  0  0
   19.6536  -21.2010  -14.3323 O   0  0  0  0  0  0  0  0  0  0  0  0
   18.9233  -20.4824  -13.6307 O   0  0  0  0  0  0  0  0  0  0  0  0
  1  2  1  0
  2  3  2  0
  4  2  1  0
  4  5  1  0
  5  6  1  0
  7  6  1  0
  8  9  1  6
  8  7  1  0
 10  8  1  0
 11 10  2  0
 12 10  1  0
 13 18  1  0
 13 12  1  0
 13 14  1  1
 15 14  1  0
 16 15  1  0
 17 16  2  0
 18 19  2  0
 20 16  1  0
 21 22  1  0
 21 18  1  0
 22 23  1  1
 23 24  1  0
 24 25  1  0
 25 26  1  0
 26 27  1  0
 28 30  1  0
 28 22  1  0
 29 28  2  0
M  END
$$$$
