REK.pdb
     RDKit          3D

 30 29  0  0  1  0  0  0  0  0999 V2000
   25.7089  -22.4526  -14.3136 N   0  0  0  0  0  0  0  0  0  0  0  0
   24.9390  -23.0579  -15.3424 C   0  0  0  0  0  0  0  0  0  0  0  0
   25.5309  -23.7015  -16.2857 N   0  0  0  0  0  0  0  0  0  0  0  0
   23.5255  -22.9598  -15.3423 N   0  0  0  0  0  0  0  0  0  0  0  0
   22.8111  -22.0774  -14.4492 C   0  0  0  0  0  0  0  0  0  0  0  0
   22.8492  -20.6652  -14.9658 C   0  0  0  0  0  0  0  0  0  0  0  0
   22.0760  -19.7255  -14.0992 C   0  0  0  0  0  0  0  0  0  0  0  0
   21.3343  -20.4824  -13.0426 C   0  0  2  0  0  0  0  0  0  0  0  0
   21.8025  -21.8272  -12.9608 N   0  0  0  0  0  0  0  0  0  0  0  0
   19.8600  -20.3854  -13.1990 C   0  0  0  0  0  0  0  0  0  0  0  0
   19.3706  -19.2423  -13.3576 O   0  0  0  0  0  0  0  0  0  0  0  0
   24.9782  -24.0862  -17.0635 N   0  0  0  0  0  0  0  0  0  0  0  0
   18.9864  -21.5068  -13.1784 C   0  0  2  0  0  0  0  0  0  0  0  0
   17.5671  -21.4185  -13.4421 C   0  0  0  0  0  0  0  0  0  0  0  0
   17.1780  -21.8148  -14.8275 C   0  0  0  0  0  0  0  0  0  0  0  0
   17.3927  -20.7408  -15.8463 C   0  0  0  0  0  0  0  0  0  0  0  0
   17.0142  -21.2544  -17.1911 O   0  0  0  0  0  0  0  0  0  0  0  0
   16.7345  -20.4160  -18.0876 C   0  0  0  0  0  0  0  0  0  0  0  0
   16.8741  -22.3395  -12.4898 O   0  0  0  0  0  0  0  0  0  0  0  0
   17.4154  -23.4065  -12.0933 O   0  0  0  0  0  0  0  0  0  0  0  0
   16.9536  -22.5869  -17.5058 N   0  0  0  0  0  0  0  0  0  0  0  0
   15.5772  -22.0651  -11.9826 C   0  0  1  0  0  0  0  0  0  0  0  0
   14.8955  -22.9091  -11.0247 C   0  0  0  0  0  0  0  0  0  0  0  0
   15.5979  -22.7325   -9.6712 C   0  0  0  0  0  0  0  0  0  0  0  0
   16.2297  -24.0180   -9.2417 C   0  0  0  0  0  0  0  0  0  0  0  0
   16.7481  -24.0514   -7.8571 C   0  0  0  0  0  0  0  0  0  0  0  0
   17.3838  -25.3258   -7.4109 N   0  0  0  0  0  0  0  0  0  0  0  0
   17.8176  -25.3481   -6.0563 C   0  0  0  0  0  0  0  0  0  0  0  0
   13.4639  -22.5009  -10.8691 O   0  0  0  0  0  0  0  0  0  0  0  0
   13.1822  -21.3011  -11.0209 O   0  0  0  0  0  0  0  0  0  0  0  0
  1  2  1  0
  2  3  2  0
  4  2  1  0
  4  5  1  0
  5  6  1  0
  7  6  1  0
  8  9  1  6
  8  7  1  0
 10  8  1  0
 11 10  2  0
 12 10  1  0
 13 18  1  0
 13 12  1  0
 13 14  1  1
 15 14  1  0
 16 15  1  0
 17 16  2  0
 18 19  2  0
 20 16  1  0
 21 22  1  0
 21 18  1  0
 22 23  1  6
 23 24  1  0
 24 25  1  0
 25 26  1  0
 26 27  1  0
 28 30  1  0
 28 22  1  0
 29 28  2  0
M  END
$$$$
