REK.pdb
     RDKit          3D

 30 29  0  0  1  0  0  0  0  0999 V2000
   30.4455  -14.9012  -18.3791 N   0  0  0  0  0  0  0  0  0  0  0  0
   31.2443  -15.4739  -19.4044 C   0  0  0  0  0  0  0  0  0  0  0  0
   30.8266  -16.5179  -20.0287 N   0  0  0  0  0  0  0  0  0  0  0  0
   32.4977  -14.9087  -19.7469 N   0  0  0  0  0  0  0  0  0  0  0  0
   33.1216  -13.8732  -18.9562 C   0  0  0  0  0  0  0  0  0  0  0  0
   32.8355  -12.5192  -19.5456 C   0  0  0  0  0  0  0  0  0  0  0  0
   33.7939  -11.4793  -19.0641 C   0  0  0  0  0  0  0  0  0  0  0  0
   33.3629  -10.9510  -17.7319 C   0  0  2  0  0  0  0  0  0  0  0  0
   31.9440  -11.0097  -17.5993 N   0  0  0  0  0  0  0  0  0  0  0  0
   33.9217   -9.6050  -17.4432 C   0  0  0  0  0  0  0  0  0  0  0  0
   35.1638   -9.4641  -17.5355 O   0  0  0  0  0  0  0  0  0  0  0  0
   31.4100  -16.9379  -20.7648 N   0  0  0  0  0  0  0  0  0  0  0  0
   33.1315   -8.4828  -17.0725 C   0  0  1  0  0  0  0  0  0  0  0  0
   33.6851   -7.1817  -16.7681 C   0  0  0  0  0  0  0  0  0  0  0  0
   32.6685   -6.0930  -16.6734 C   0  0  0  0  0  0  0  0  0  0  0  0
   32.0537   -5.7241  -17.9862 C   0  0  0  0  0  0  0  0  0  0  0  0
   31.0181   -4.6772  -17.7686 O   0  0  0  0  0  0  0  0  0  0  0  0
   31.3994   -3.4833  -17.6509 C   0  0  0  0  0  0  0  0  0  0  0  0
   34.3728   -7.2837  -15.4444 O   0  0  0  0  0  0  0  0  0  0  0  0
   33.8063   -7.8042  -14.4459 O   0  0  0  0  0  0  0  0  0  0  0  0
   29.6758   -4.9416  -17.6896 N   0  0  0  0  0  0  0  0  0  0  0  0
   35.6927   -6.8035  -15.2403 C   0  0  1  0  0  0  0  0  0  0  0  0
   36.3737   -6.8474  -13.9639 C   0  0  0  0  0  0  0  0  0  0  0  0
   37.7053   -7.5812  -14.1757 C   0  0  0  0  0  0  0  0  0  0  0  0
   38.4033   -7.7795  -12.8682 C   0  0  0  0  0  0  0  0  0  0  0  0
   39.6967   -8.4940  -12.9289 C   0  0  0  0  0  0  0  0  0  0  0  0
   40.4333   -8.6556  -11.6409 N   0  0  0  0  0  0  0  0  0  0  0  0
   41.6819   -9.3308  -11.7343 C   0  0  0  0  0  0  0  0  0  0  0  0
   36.6704   -5.4684  -13.4634 O   0  0  0  0  0  0  0  0  0  0  0  0
   36.7174   -4.5465  -14.2941 O   0  0  0  0  0  0  0  0  0  0  0  0
  1  2  1  0
  2  3  2  0
  4  2  1  0
  4  5  1  0
  5  6  1  0
  7  6  1  0
  8  9  1  6
  8  7  1  0
 10  8  1  0
 11 10  2  0
 12 10  1  0
 13 18  1  0
 13 12  1  0
 13 14  1  6
 15 14  1  0
 16 15  1  0
 17 16  2  0
 18 19  2  0
 20 16  1  0
 21 22  1  0
 21 18  1  0
 22 23  1  1
 23 24  1  0
 24 25  1  0
 25 26  1  0
 26 27  1  0
 28 30  1  0
 28 22  1  0
 29 28  2  0
M  END
$$$$
