REK.pdb
     RDKit          3D

 30 29  0  0  1  0  0  0  0  0999 V2000
   26.8371  -23.2575  -16.1925 N   0  0  0  0  0  0  0  0  0  0  0  0
   27.6518  -22.1783  -16.6272 C   0  0  0  0  0  0  0  0  0  0  0  0
   27.8884  -22.0244  -17.8821 N   0  0  0  0  0  0  0  0  0  0  0  0
   28.2085  -21.2694  -15.6937 N   0  0  0  0  0  0  0  0  0  0  0  0
   27.6863  -21.1178  -14.3553 C   0  0  0  0  0  0  0  0  0  0  0  0
   26.3511  -20.4260  -14.3887 C   0  0  0  0  0  0  0  0  0  0  0  0
   25.8354  -20.1269  -13.0189 C   0  0  0  0  0  0  0  0  0  0  0  0
   24.9761  -21.2501  -12.5292 C   0  0  2  0  0  0  0  0  0  0  0  0
   24.9354  -22.3091  -13.4838 N   0  0  0  0  0  0  0  0  0  0  0  0
   23.6274  -20.7942  -12.1042 C   0  0  0  0  0  0  0  0  0  0  0  0
   23.4431  -19.5590  -11.9975 O   0  0  0  0  0  0  0  0  0  0  0  0
   28.5545  -21.3029  -18.1894 N   0  0  0  0  0  0  0  0  0  0  0  0
   22.5489  -21.6744  -11.8159 C   0  0  2  0  0  0  0  0  0  0  0  0
   21.2031  -21.2240  -11.5371 C   0  0  0  0  0  0  0  0  0  0  0  0
   20.5583  -20.4917  -12.6666 C   0  0  0  0  0  0  0  0  0  0  0  0
   19.1624  -20.0397  -12.3754 C   0  0  0  0  0  0  0  0  0  0  0  0
   18.5819  -19.4154  -13.5956 O   0  0  0  0  0  0  0  0  0  0  0  0
   18.5283  -18.1588  -13.6491 C   0  0  0  0  0  0  0  0  0  0  0  0
   20.3754  -22.4338  -11.2427 O   0  0  0  0  0  0  0  0  0  0  0  0
   20.2039  -23.3399  -12.1021 O   0  0  0  0  0  0  0  0  0  0  0  0
   18.1037  -20.1322  -14.6613 N   0  0  0  0  0  0  0  0  0  0  0  0
   19.7415  -22.6280   -9.9878 C   0  0  2  0  0  0  0  0  0  0  0  0
   19.0010  -23.8218   -9.6395 C   0  0  0  0  0  0  0  0  0  0  0  0
   18.7870  -23.8057   -8.1194 C   0  0  0  0  0  0  0  0  0  0  0  0
   18.1294  -25.0725   -7.6735 C   0  0  0  0  0  0  0  0  0  0  0  0
   17.9371  -25.2210   -6.2148 C   0  0  0  0  0  0  0  0  0  0  0  0
   17.2612  -26.4687   -5.7523 N   0  0  0  0  0  0  0  0  0  0  0  0
   17.1565  -26.6173   -4.3415 C   0  0  0  0  0  0  0  0  0  0  0  0
   17.6598  -23.8374  -10.3037 O   0  0  0  0  0  0  0  0  0  0  0  0
   17.0936  -22.7488  -10.4950 O   0  0  0  0  0  0  0  0  0  0  0  0
  1  2  1  0
  2  3  2  0
  4  2  1  0
  4  5  1  0
  5  6  1  0
  7  6  1  0
  8  9  1  6
  8  7  1  0
 10  8  1  0
 11 10  2  0
 12 10  1  0
 13 18  1  0
 13 12  1  0
 13 14  1  1
 15 14  1  0
 16 15  1  0
 17 16  2  0
 18 19  2  0
 20 16  1  0
 21 22  1  0
 21 18  1  0
 22 23  1  1
 23 24  1  0
 24 25  1  0
 25 26  1  0
 26 27  1  0
 28 30  1  0
 28 22  1  0
 29 28  2  0
M  END
$$$$
