REK.pdb
     RDKit          3D

 30 29  0  0  1  0  0  0  0  0999 V2000
   12.3125  -12.0724  -13.1285 N   0  0  0  0  0  0  0  0  0  0  0  0
   12.3346  -12.3888  -14.5130 C   0  0  0  0  0  0  0  0  0  0  0  0
   11.2653  -12.2519  -15.2146 N   0  0  0  0  0  0  0  0  0  0  0  0
   13.5215  -12.8552  -15.1305 N   0  0  0  0  0  0  0  0  0  0  0  0
   14.7795  -12.9381  -14.4252 C   0  0  0  0  0  0  0  0  0  0  0  0
   15.7255  -11.8755  -14.9136 C   0  0  0  0  0  0  0  0  0  0  0  0
   17.1019  -12.0457  -14.3581 C   0  0  0  0  0  0  0  0  0  0  0  0
   17.9734  -10.8996  -14.7661 C   0  0  2  0  0  0  0  0  0  0  0  0
   19.0420  -11.3476  -15.5979 N   0  0  0  0  0  0  0  0  0  0  0  0
   18.4340  -10.0915  -13.6075 C   0  0  0  0  0  0  0  0  0  0  0  0
   19.0871  -10.6821  -12.7154 O   0  0  0  0  0  0  0  0  0  0  0  0
   11.2849  -12.4708  -16.2196 N   0  0  0  0  0  0  0  0  0  0  0  0
   18.1760   -8.7013  -13.4596 C   0  0  2  0  0  0  0  0  0  0  0  0
   18.7318   -7.8946  -12.3956 C   0  0  0  0  0  0  0  0  0  0  0  0
   19.6857   -6.8449  -12.8601 C   0  0  0  0  0  0  0  0  0  0  0  0
   20.2505   -6.0097  -11.7551 C   0  0  0  0  0  0  0  0  0  0  0  0
   21.1042   -4.9371  -12.3350 O   0  0  0  0  0  0  0  0  0  0  0  0
   22.3379   -5.1599  -12.4499 C   0  0  0  0  0  0  0  0  0  0  0  0
   17.5940   -7.2092  -11.7091 O   0  0  0  0  0  0  0  0  0  0  0  0
   16.7018   -6.6013  -12.3597 O   0  0  0  0  0  0  0  0  0  0  0  0
   20.6217   -3.7232  -12.7495 N   0  0  0  0  0  0  0  0  0  0  0  0
   17.4564   -7.2052  -10.2965 C   0  0  1  0  0  0  0  0  0  0  0  0
   16.4350   -6.4599   -9.5923 C   0  0  0  0  0  0  0  0  0  0  0  0
   15.5207   -7.4759   -8.8935 C   0  0  0  0  0  0  0  0  0  0  0  0
   14.3853   -6.7753   -8.2181 C   0  0  0  0  0  0  0  0  0  0  0  0
   13.4117   -7.6451   -7.5235 C   0  0  0  0  0  0  0  0  0  0  0  0
   12.2481   -6.9671   -6.8803 N   0  0  0  0  0  0  0  0  0  0  0  0
   11.3648   -7.8221   -6.1646 C   0  0  0  0  0  0  0  0  0  0  0  0
   17.0379   -5.5729   -8.5483 O   0  0  0  0  0  0  0  0  0  0  0  0
   18.1502   -5.8850   -8.0927 O   0  0  0  0  0  0  0  0  0  0  0  0
  1  2  1  0
  2  3  2  0
  4  2  1  0
  4  5  1  0
  5  6  1  0
  7  6  1  0
  8  9  1  1
  8  7  1  0
 10  8  1  0
 11 10  2  0
 12 10  1  0
 13 18  1  0
 13 12  1  0
 13 14  1  6
 15 14  1  0
 16 15  1  0
 17 16  2  0
 18 19  2  0
 20 16  1  0
 21 22  1  0
 21 18  1  0
 22 23  1  1
 23 24  1  0
 24 25  1  0
 25 26  1  0
 26 27  1  0
 28 30  1  0
 28 22  1  0
 29 28  2  0
M  END
$$$$
