REK.pdb
     RDKit          3D

 30 29  0  0  1  0  0  0  0  0999 V2000
   20.9934  -15.2012  -21.1275 N   0  0  0  0  0  0  0  0  0  0  0  0
   21.8701  -14.1488  -20.7514 C   0  0  0  0  0  0  0  0  0  0  0  0
   21.6613  -12.9584  -21.1912 N   0  0  0  0  0  0  0  0  0  0  0  0
   22.9736  -14.3957  -19.8977 N   0  0  0  0  0  0  0  0  0  0  0  0
   23.2229  -15.6917  -19.3103 C   0  0  0  0  0  0  0  0  0  0  0  0
   21.9498  -16.2694  -18.7551 C   0  0  0  0  0  0  0  0  0  0  0  0
   22.1582  -17.6204  -18.1523 C   0  0  0  0  0  0  0  0  0  0  0  0
   23.6189  -17.8889  -17.9685 C   0  0  2  0  0  0  0  0  0  0  0  0
   24.2922  -17.9066  -19.2257 N   0  0  0  0  0  0  0  0  0  0  0  0
   23.8782  -19.1011  -17.1494 C   0  0  0  0  0  0  0  0  0  0  0  0
   23.2380  -20.1396  -17.4373 O   0  0  0  0  0  0  0  0  0  0  0  0
   22.2685  -12.1878  -20.8814 N   0  0  0  0  0  0  0  0  0  0  0  0
   24.8025  -19.1442  -16.0701 C   0  0  1  0  0  0  0  0  0  0  0  0
   25.0734  -20.3366  -15.2977 C   0  0  0  0  0  0  0  0  0  0  0  0
   26.5129  -20.7297  -15.2667 C   0  0  0  0  0  0  0  0  0  0  0  0
   27.0741  -21.0753  -16.6096 C   0  0  0  0  0  0  0  0  0  0  0  0
   28.4998  -21.4759  -16.4596 O   0  0  0  0  0  0  0  0  0  0  0  0
   28.9896  -21.4975  -15.3000 C   0  0  0  0  0  0  0  0  0  0  0  0
   24.6403  -20.0702  -13.8917 O   0  0  0  0  0  0  0  0  0  0  0  0
   24.6511  -18.9061  -13.4082 O   0  0  0  0  0  0  0  0  0  0  0  0
   29.3064  -21.8217  -17.5122 N   0  0  0  0  0  0  0  0  0  0  0  0
   24.1956  -21.1061  -13.0294 C   0  0  2  0  0  0  0  0  0  0  0  0
   23.8019  -20.8906  -11.6534 C   0  0  0  0  0  0  0  0  0  0  0  0
   22.3783  -21.4410  -11.4887 C   0  0  0  0  0  0  0  0  0  0  0  0
   21.8741  -21.1732  -10.1066 C   0  0  0  0  0  0  0  0  0  0  0  0
   20.5041  -21.6482   -9.8160 C   0  0  0  0  0  0  0  0  0  0  0  0
   19.9952  -21.4180   -8.4321 N   0  0  0  0  0  0  0  0  0  0  0  0
   18.6915  -21.9237   -8.1708 C   0  0  0  0  0  0  0  0  0  0  0  0
   24.7034  -21.6273  -10.7129 O   0  0  0  0  0  0  0  0  0  0  0  0
   25.3412  -22.5954  -11.1580 O   0  0  0  0  0  0  0  0  0  0  0  0
  1  2  1  0
  2  3  2  0
  4  2  1  0
  4  5  1  0
  5  6  1  0
  7  6  1  0
  8  9  1  6
  8  7  1  0
 10  8  1  0
 11 10  2  0
 12 10  1  0
 13 18  1  0
 13 12  1  0
 13 14  1  6
 15 14  1  0
 16 15  1  0
 17 16  2  0
 18 19  2  0
 20 16  1  0
 21 22  1  0
 21 18  1  0
 22 23  1  6
 23 24  1  0
 24 25  1  0
 25 26  1  0
 26 27  1  0
 28 30  1  0
 28 22  1  0
 29 28  2  0
M  END
$$$$
