REK.pdb
     RDKit          3D

 30 29  0  0  1  0  0  0  0  0999 V2000
   12.0545  -20.6847   -3.6584 N   0  0  0  0  0  0  0  0  0  0  0  0
   12.4822  -21.7790   -4.4566 C   0  0  0  0  0  0  0  0  0  0  0  0
   11.7947  -22.1216   -5.4883 N   0  0  0  0  0  0  0  0  0  0  0  0
   13.6575  -22.4991   -4.1284 N   0  0  0  0  0  0  0  0  0  0  0  0
   14.4476  -22.1984   -2.9571 C   0  0  0  0  0  0  0  0  0  0  0  0
   13.6618  -22.4848   -1.7069 C   0  0  0  0  0  0  0  0  0  0  0  0
   14.4233  -22.1386   -0.4691 C   0  0  0  0  0  0  0  0  0  0  0  0
   13.6547  -22.5499    0.7473 C   0  0  2  0  0  0  0  0  0  0  0  0
   12.2781  -22.1999    0.6182 N   0  0  0  0  0  0  0  0  0  0  0  0
   14.2686  -22.0532    2.0059 C   0  0  0  0  0  0  0  0  0  0  0  0
   13.7855  -21.0132    2.5121 O   0  0  0  0  0  0  0  0  0  0  0  0
   12.1105  -22.9080   -6.0717 N   0  0  0  0  0  0  0  0  0  0  0  0
   15.3611  -22.6876    2.6577 C   0  0  2  0  0  0  0  0  0  0  0  0
   15.9443  -22.2063    3.8906 C   0  0  0  0  0  0  0  0  0  0  0  0
   16.9729  -23.1162    4.4753 C   0  0  0  0  0  0  0  0  0  0  0  0
   17.5018  -22.6599    5.7980 C   0  0  0  0  0  0  0  0  0  0  0  0
   18.5318  -23.6226    6.2756 O   0  0  0  0  0  0  0  0  0  0  0  0
   18.9141  -24.5221    5.4821 C   0  0  0  0  0  0  0  0  0  0  0  0
   16.6041  -20.8975    3.5956 O   0  0  0  0  0  0  0  0  0  0  0  0
   17.3597  -20.7507    2.5974 O   0  0  0  0  0  0  0  0  0  0  0  0
   19.0851  -23.5832    7.5287 N   0  0  0  0  0  0  0  0  0  0  0  0
   16.4174  -19.7554    4.4174 C   0  0  2  0  0  0  0  0  0  0  0  0
   17.1624  -18.5245    4.2613 C   0  0  0  0  0  0  0  0  0  0  0  0
   16.1716  -17.3621    4.4153 C   0  0  0  0  0  0  0  0  0  0  0  0
   16.8713  -16.0541    4.2271 C   0  0  0  0  0  0  0  0  0  0  0  0
   16.0153  -14.8497    4.2866 C   0  0  0  0  0  0  0  0  0  0  0  0
   16.6944  -13.5353    4.0899 N   0  0  0  0  0  0  0  0  0  0  0  0
   15.8423  -12.3971    4.1346 C   0  0  0  0  0  0  0  0  0  0  0  0
   18.2122  -18.3917    5.3197 O   0  0  0  0  0  0  0  0  0  0  0  0
   19.2270  -17.7281    5.0514 O   0  0  0  0  0  0  0  0  0  0  0  0
  1  2  1  0
  2  3  2  0
  4  2  1  0
  4  5  1  0
  5  6  1  0
  7  6  1  0
  8  9  1  6
  8  7  1  0
 10  8  1  0
 11 10  2  0
 12 10  1  0
 13 18  1  0
 13 12  1  0
 13 14  1  1
 15 14  1  0
 16 15  1  0
 17 16  2  0
 18 19  2  0
 20 16  1  0
 21 22  1  0
 21 18  1  0
 22 23  1  1
 23 24  1  0
 24 25  1  0
 25 26  1  0
 26 27  1  0
 28 30  1  0
 28 22  1  0
 29 28  2  0
M  END
$$$$
