REK.pdb
     RDKit          3D

 30 29  0  0  1  0  0  0  0  0999 V2000
   25.9534  -25.2868  -15.3137 N   0  0  0  0  0  0  0  0  0  0  0  0
   25.5586  -24.5567  -16.4663 C   0  0  0  0  0  0  0  0  0  0  0  0
   25.8076  -25.0300  -17.6360 N   0  0  0  0  0  0  0  0  0  0  0  0
   24.8943  -23.3113  -16.3424 N   0  0  0  0  0  0  0  0  0  0  0  0
   24.1888  -22.9267  -15.1419 C   0  0  0  0  0  0  0  0  0  0  0  0
   23.0709  -23.8924  -14.8585 C   0  0  0  0  0  0  0  0  0  0  0  0
   22.3146  -23.5339  -13.6210 C   0  0  0  0  0  0  0  0  0  0  0  0
   21.3274  -22.4470  -13.9106 C   0  0  2  0  0  0  0  0  0  0  0  0
   21.9923  -21.2619  -14.3439 N   0  0  0  0  0  0  0  0  0  0  0  0
   20.3895  -22.2118  -12.7825 C   0  0  0  0  0  0  0  0  0  0  0  0
   20.3849  -21.0704  -12.2646 O   0  0  0  0  0  0  0  0  0  0  0  0
   25.5731  -24.4748  -18.4699 N   0  0  0  0  0  0  0  0  0  0  0  0
   19.5085  -23.2010  -12.2663 C   0  0  1  0  0  0  0  0  0  0  0  0
   18.5218  -22.9358  -11.2427 C   0  0  0  0  0  0  0  0  0  0  0  0
   17.1809  -22.5503  -11.7728 C   0  0  0  0  0  0  0  0  0  0  0  0
   16.1978  -22.1698  -10.7114 C   0  0  0  0  0  0  0  0  0  0  0  0
   14.8689  -21.9246  -11.3355 O   0  0  0  0  0  0  0  0  0  0  0  0
   14.7217  -20.8802  -12.0228 C   0  0  0  0  0  0  0  0  0  0  0  0
   18.3560  -24.1878  -10.4422 O   0  0  0  0  0  0  0  0  0  0  0  0
   17.9651  -25.2622  -10.9729 O   0  0  0  0  0  0  0  0  0  0  0  0
   13.7997  -22.7716  -11.2031 N   0  0  0  0  0  0  0  0  0  0  0  0
   18.6279  -24.2355   -9.0500 C   0  0  2  0  0  0  0  0  0  0  0  0
   18.2311  -25.3318   -8.1924 C   0  0  0  0  0  0  0  0  0  0  0  0
   17.8387  -24.7362   -6.8330 C   0  0  0  0  0  0  0  0  0  0  0  0
   17.3430  -25.8104   -5.9184 C   0  0  0  0  0  0  0  0  0  0  0  0
   18.2502  -26.1860   -4.8126 C   0  0  0  0  0  0  0  0  0  0  0  0
   17.7268  -27.1733   -3.8233 N   0  0  0  0  0  0  0  0  0  0  0  0
   18.5990  -27.4700   -2.7395 C   0  0  0  0  0  0  0  0  0  0  0  0
   17.0438  -26.0513   -8.7516 O   0  0  0  0  0  0  0  0  0  0  0  0
   16.1731  -25.3770   -9.3255 O   0  0  0  0  0  0  0  0  0  0  0  0
  1  2  1  0
  2  3  2  0
  4  2  1  0
  4  5  1  0
  5  6  1  0
  7  6  1  0
  8  9  1  1
  8  7  1  0
 10  8  1  0
 11 10  2  0
 12 10  1  0
 13 18  1  0
 13 12  1  0
 13 14  1  1
 15 14  1  0
 16 15  1  0
 17 16  2  0
 18 19  2  0
 20 16  1  0
 21 22  1  0
 21 18  1  0
 22 23  1  1
 23 24  1  0
 24 25  1  0
 25 26  1  0
 26 27  1  0
 28 30  1  0
 28 22  1  0
 29 28  2  0
M  END
$$$$
