QVG.pdb
     RDKit          3D

 21 20  0  0  1  0  0  0  0  0999 V2000
   19.3734  -10.5535  -21.3307 N   0  0  0  0  0  0  0  0  0  0  0  0
   20.1088  -11.6138  -21.9228 C   0  0  0  0  0  0  0  0  0  0  0  0
   19.7735  -11.9539  -23.0975 O   0  0  0  0  0  0  0  0  0  0  0  0
   21.2093  -12.3131  -21.2518 C   0  0  0  0  0  0  0  0  0  0  0  0
   21.4852  -11.6835  -19.9048 C   0  0  0  0  0  0  0  0  0  0  0  0
   22.6264  -12.3854  -19.2030 C   0  0  2  0  0  0  0  0  0  0  0  0
   22.2408  -13.7536  -18.9378 N   0  0  0  0  0  0  0  0  0  0  0  0
   22.9995  -11.7208  -17.9404 C   0  0  0  0  0  0  0  0  0  0  0  0
   22.4262  -11.9523  -16.8418 O   0  0  0  0  0  0  0  0  0  0  0  0
   26.1682  -11.8250  -16.2761 C   0  0  0  0  0  0  0  0  0  0  0  0
   25.9006  -10.3756  -16.4098 C   0  0  2  0  0  0  0  0  0  0  0  0
   26.5085   -9.5464  -15.3067 C   0  0  0  0  0  0  0  0  0  0  0  0
   24.4712  -10.0684  -16.6894 C   0  0  2  0  0  0  0  0  0  0  0  0
   24.0519  -10.7690  -17.9301 N   0  0  0  0  0  0  0  0  0  0  0  0
   24.0793   -8.6620  -16.7557 C   0  0  0  0  0  0  0  0  0  0  0  0
   24.4140   -8.0002  -17.8126 O   0  0  0  0  0  0  0  0  0  0  0  0
   23.3687   -7.9142  -15.8049 N   0  0  0  0  0  0  0  0  0  0  0  0
   23.1081   -6.5017  -15.9583 C   0  0  0  0  0  0  0  0  0  0  0  0
   22.3073   -5.9996  -14.8165 C   0  0  0  0  0  0  0  0  0  0  0  0
   21.8321   -6.7707  -13.9439 O   0  0  0  0  0  0  0  0  0  0  0  0
   22.0520   -4.6434  -14.6710 O   0  0  0  0  0  0  0  0  0  0  0  0
  2  1  1  0
  2  3  2  0
  4  2  1  0
  5  4  1  0
  6  5  1  0
  6  7  1  1
  8  6  1  0
  8  9  2  0
 11 10  1  1
 11 13  1  0
 12 11  1  0
 13 14  1  6
 14  8  1  0
 15 13  1  0
 15 17  1  0
 16 15  2  0
 18 17  1  0
 18 19  1  0
 19 20  2  0
 19 21  1  0
M  END
$$$$
