QVG.pdb
     RDKit          3D

 21 20  0  0  1  0  0  0  0  0999 V2000
   19.6878  -19.7956  -14.7640 N   0  0  0  0  0  0  0  0  0  0  0  0
   20.0255  -18.7511  -15.6645 C   0  0  0  0  0  0  0  0  0  0  0  0
   19.0619  -18.1603  -16.2395 O   0  0  0  0  0  0  0  0  0  0  0  0
   21.4033  -18.3382  -15.9500 C   0  0  0  0  0  0  0  0  0  0  0  0
   22.3709  -19.1060  -15.0777 C   0  0  0  0  0  0  0  0  0  0  0  0
   23.5377  -19.6232  -15.8893 C   0  0  2  0  0  0  0  0  0  0  0  0
   23.0291  -20.4235  -16.9810 N   0  0  0  0  0  0  0  0  0  0  0  0
   24.4711  -20.4262  -15.0774 C   0  0  0  0  0  0  0  0  0  0  0  0
   24.3848  -21.6785  -14.9614 O   0  0  0  0  0  0  0  0  0  0  0  0
   28.1967  -20.5515  -15.2176 C   0  0  0  0  0  0  0  0  0  0  0  0
   27.8505  -20.2076  -13.8204 C   0  0  2  0  0  0  0  0  0  0  0  0
   28.8627  -20.6908  -12.8125 C   0  0  0  0  0  0  0  0  0  0  0  0
   26.4392  -20.5279  -13.4720 C   0  0  2  0  0  0  0  0  0  0  0  0
   25.5284  -19.7858  -14.3808 N   0  0  0  0  0  0  0  0  0  0  0  0
   26.0221  -20.3363  -12.0845 C   0  0  0  0  0  0  0  0  0  0  0  0
   25.7507  -19.1321  -11.7056 O   0  0  0  0  0  0  0  0  0  0  0  0
   25.8696  -21.3067  -11.0830 N   0  0  0  0  0  0  0  0  0  0  0  0
   25.5194  -20.9755   -9.7213 C   0  0  0  0  0  0  0  0  0  0  0  0
   24.0461  -20.9246   -9.5670 C   0  0  0  0  0  0  0  0  0  0  0  0
   23.2670  -21.0764  -10.5427 O   0  0  0  0  0  0  0  0  0  0  0  0
   23.4702  -20.7047   -8.3239 O   0  0  0  0  0  0  0  0  0  0  0  0
  2  1  1  0
  2  3  2  0
  4  2  1  0
  5  4  1  0
  6  5  1  0
  6  7  1  6
  8  6  1  0
  8  9  2  0
 11 10  1  6
 11 13  1  0
 12 11  1  0
 13 14  1  6
 14  8  1  0
 15 13  1  0
 15 17  1  0
 16 15  2  0
 18 17  1  0
 18 19  1  0
 19 20  2  0
 19 21  1  0
M  END
$$$$
