QVG.pdb
     RDKit          3D

 21 20  0  0  1  0  0  0  0  0999 V2000
   15.9854  -12.3837  -14.6985 N   0  0  0  0  0  0  0  0  0  0  0  0
   15.6441  -11.5559  -15.8003 C   0  0  0  0  0  0  0  0  0  0  0  0
   14.5479  -11.8089  -16.3855 O   0  0  0  0  0  0  0  0  0  0  0  0
   16.4824  -10.4512  -16.2770 C   0  0  0  0  0  0  0  0  0  0  0  0
   17.7129  -10.3157  -15.4085 C   0  0  0  0  0  0  0  0  0  0  0  0
   18.9705  -10.5753  -16.2077 C   0  0  2  0  0  0  0  0  0  0  0  0
   19.1891  -12.0026  -16.2842 N   0  0  0  0  0  0  0  0  0  0  0  0
   20.1533   -9.9225  -15.6163 C   0  0  0  0  0  0  0  0  0  0  0  0
   20.8481  -10.4465  -14.7042 O   0  0  0  0  0  0  0  0  0  0  0  0
   22.5018   -7.0755  -17.7200 C   0  0  0  0  0  0  0  0  0  0  0  0
   22.8221   -7.9255  -16.5516 C   0  0  2  0  0  0  0  0  0  0  0  0
   23.3424   -9.2909  -16.9243 C   0  0  0  0  0  0  0  0  0  0  0  0
   21.7428   -7.9409  -15.5265 C   0  0  2  0  0  0  0  0  0  0  0  0
   20.5536   -8.6411  -16.0758 N   0  0  0  0  0  0  0  0  0  0  0  0
   21.3418   -6.6622  -14.9435 C   0  0  0  0  0  0  0  0  0  0  0  0
   20.4976   -5.9446  -15.6064 O   0  0  0  0  0  0  0  0  0  0  0  0
   21.7572   -6.0943  -13.7297 N   0  0  0  0  0  0  0  0  0  0  0  0
   21.2458   -4.8348  -13.2412 C   0  0  0  0  0  0  0  0  0  0  0  0
   21.8322   -3.7097  -14.0075 C   0  0  0  0  0  0  0  0  0  0  0  0
   22.6948   -3.8908  -14.9046 O   0  0  0  0  0  0  0  0  0  0  0  0
   21.4433   -2.4016  -13.7566 O   0  0  0  0  0  0  0  0  0  0  0  0
  2  1  1  0
  2  3  2  0
  4  2  1  0
  5  4  1  0
  6  5  1  0
  6  7  1  1
  8  6  1  0
  8  9  2  0
 11 10  1  6
 11 13  1  0
 12 11  1  0
 13 14  1  6
 14  8  1  0
 15 13  1  0
 15 17  1  0
 16 15  2  0
 18 17  1  0
 18 19  1  0
 19 20  2  0
 19 21  1  0
M  END
$$$$
