QVG.pdb
     RDKit          3D

 21 20  0  0  1  0  0  0  0  0999 V2000
   20.8819  -21.8713  -15.6682 N   0  0  0  0  0  0  0  0  0  0  0  0
   21.1111  -20.4817  -15.8477 C   0  0  0  0  0  0  0  0  0  0  0  0
   20.7391  -19.9804  -16.9515 O   0  0  0  0  0  0  0  0  0  0  0  0
   21.7424  -19.6253  -14.8385 C   0  0  0  0  0  0  0  0  0  0  0  0
   22.0303  -20.4196  -13.5844 C   0  0  0  0  0  0  0  0  0  0  0  0
   23.4417  -20.1730  -13.0998 C   0  0  2  0  0  0  0  0  0  0  0  0
   24.3683  -20.5869  -14.1298 N   0  0  0  0  0  0  0  0  0  0  0  0
   23.7366  -20.8937  -11.8473 C   0  0  0  0  0  0  0  0  0  0  0  0
   24.0614  -22.1113  -11.8107 O   0  0  0  0  0  0  0  0  0  0  0  0
   26.2383  -20.0381   -9.3964 C   0  0  0  0  0  0  0  0  0  0  0  0
   25.0063  -20.1831   -8.5893 C   0  0  2  0  0  0  0  0  0  0  0  0
   25.2576  -20.6927   -7.1925 C   0  0  0  0  0  0  0  0  0  0  0  0
   23.9142  -20.8912   -9.3116 C   0  0  2  0  0  0  0  0  0  0  0  0
   23.6594  -20.2097  -10.6065 N   0  0  0  0  0  0  0  0  0  0  0  0
   22.6535  -21.0982   -8.6019 C   0  0  0  0  0  0  0  0  0  0  0  0
   21.7921  -20.1367   -8.6263 O   0  0  0  0  0  0  0  0  0  0  0  0
   22.2394  -22.2286   -7.8816 N   0  0  0  0  0  0  0  0  0  0  0  0
   20.9761  -22.2905   -7.1839 C   0  0  0  0  0  0  0  0  0  0  0  0
   21.1897  -22.1718   -5.7219 C   0  0  0  0  0  0  0  0  0  0  0  0
   22.3268  -21.9591   -5.2284 O   0  0  0  0  0  0  0  0  0  0  0  0
   20.1274  -22.2932   -4.8376 O   0  0  0  0  0  0  0  0  0  0  0  0
  2  1  1  0
  2  3  2  0
  4  2  1  0
  5  4  1  0
  6  5  1  0
  6  7  1  6
  8  6  1  0
  8  9  2  0
 11 10  1  6
 11 13  1  0
 12 11  1  0
 13 14  1  6
 14  8  1  0
 15 13  1  0
 15 17  1  0
 16 15  2  0
 18 17  1  0
 18 19  1  0
 19 20  2  0
 19 21  1  0
M  END
$$$$
