QVG.pdb
     RDKit          3D

 21 20  0  0  1  0  0  0  0  0999 V2000
   23.7334  -24.3401  -18.1485 N   0  0  0  0  0  0  0  0  0  0  0  0
   24.7066  -24.1981  -19.1724 C   0  0  0  0  0  0  0  0  0  0  0  0
   24.4441  -24.7413  -20.2878 O   0  0  0  0  0  0  0  0  0  0  0  0
   25.9678  -23.4701  -18.9994 C   0  0  0  0  0  0  0  0  0  0  0  0
   27.0955  -24.4371  -18.7168 C   0  0  0  0  0  0  0  0  0  0  0  0
   28.3912  -23.6986  -18.4651 C   0  0  2  0  0  0  0  0  0  0  0  0
   28.6105  -22.7594  -19.5424 N   0  0  0  0  0  0  0  0  0  0  0  0
   29.5441  -24.6124  -18.3602 C   0  0  0  0  0  0  0  0  0  0  0  0
   30.6519  -24.3945  -18.9211 O   0  0  0  0  0  0  0  0  0  0  0  0
   31.3453  -25.2380  -15.3548 C   0  0  0  0  0  0  0  0  0  0  0  0
   31.6814  -25.7759  -16.6920 C   0  0  2  0  0  0  0  0  0  0  0  0
   32.2079  -24.7334  -17.6459 C   0  0  0  0  0  0  0  0  0  0  0  0
   30.6111  -26.6404  -17.2602 C   0  0  2  0  0  0  0  0  0  0  0  0
   29.4312  -25.8035  -17.5974 N   0  0  0  0  0  0  0  0  0  0  0  0
   30.1902  -27.8018  -16.4792 C   0  0  0  0  0  0  0  0  0  0  0  0
   31.1142  -28.5869  -16.0353 O   0  0  0  0  0  0  0  0  0  0  0  0
   28.8865  -28.1889  -16.1347 N   0  0  0  0  0  0  0  0  0  0  0  0
   28.6085  -29.3019  -15.2571 C   0  0  0  0  0  0  0  0  0  0  0  0
   28.6405  -30.5752  -16.0153 C   0  0  0  0  0  0  0  0  0  0  0  0
   28.9524  -30.6195  -17.2329 O   0  0  0  0  0  0  0  0  0  0  0  0
   28.3230  -31.7766  -15.3979 O   0  0  0  0  0  0  0  0  0  0  0  0
  2  1  1  0
  2  3  2  0
  4  2  1  0
  5  4  1  0
  6  5  1  0
  6  7  1  6
  8  6  1  0
  8  9  2  0
 11 10  1  1
 11 13  1  0
 12 11  1  0
 13 14  1  1
 14  8  1  0
 15 13  1  0
 15 17  1  0
 16 15  2  0
 18 17  1  0
 18 19  1  0
 19 20  2  0
 19 21  1  0
M  END
$$$$
