QVG.pdb
     RDKit          3D

 21 20  0  0  1  0  0  0  0  0999 V2000
   20.0845  -14.3646  -15.1621 N   0  0  0  0  0  0  0  0  0  0  0  0
   18.7232  -14.4156  -15.5623 C   0  0  0  0  0  0  0  0  0  0  0  0
   18.0461  -15.4076  -15.1552 O   0  0  0  0  0  0  0  0  0  0  0  0
   18.0848  -13.3979  -16.4031 C   0  0  0  0  0  0  0  0  0  0  0  0
   19.0266  -12.2355  -16.6235 C   0  0  0  0  0  0  0  0  0  0  0  0
   18.3381  -11.1156  -17.3715 C   0  0  2  0  0  0  0  0  0  0  0  0
   17.9402  -11.5998  -18.6746 N   0  0  0  0  0  0  0  0  0  0  0  0
   19.2033   -9.9310  -17.5246 C   0  0  0  0  0  0  0  0  0  0  0  0
   19.9808   -9.7648  -18.5029 O   0  0  0  0  0  0  0  0  0  0  0  0
   17.9800   -6.1900  -16.3438 C   0  0  0  0  0  0  0  0  0  0  0  0
   19.0666   -6.5987  -17.2617 C   0  0  2  0  0  0  0  0  0  0  0  0
   18.5944   -6.8833  -18.6653 C   0  0  0  0  0  0  0  0  0  0  0  0
   19.9512   -7.6499  -16.6889 C   0  0  2  0  0  0  0  0  0  0  0  0
   19.1814   -8.9112  -16.5382 N   0  0  0  0  0  0  0  0  0  0  0  0
   20.6520   -7.3431  -15.4437 C   0  0  0  0  0  0  0  0  0  0  0  0
   20.0087   -7.5235  -14.3388 O   0  0  0  0  0  0  0  0  0  0  0  0
   21.9625   -6.8698  -15.2801 N   0  0  0  0  0  0  0  0  0  0  0  0
   22.5551   -6.6442  -13.9823 C   0  0  0  0  0  0  0  0  0  0  0  0
   22.2338   -5.2798  -13.5004 C   0  0  0  0  0  0  0  0  0  0  0  0
   21.5084   -4.4923  -14.1602 O   0  0  0  0  0  0  0  0  0  0  0  0
   22.7298   -4.8203  -12.2887 O   0  0  0  0  0  0  0  0  0  0  0  0
  2  1  1  0
  2  3  2  0
  4  2  1  0
  5  4  1  0
  6  5  1  0
  6  7  1  6
  8  6  1  0
  8  9  2  0
 11 10  1  1
 11 13  1  0
 12 11  1  0
 13 14  1  1
 14  8  1  0
 15 13  1  0
 15 17  1  0
 16 15  2  0
 18 17  1  0
 18 19  1  0
 19 20  2  0
 19 21  1  0
M  END
$$$$
