QVG.pdb
     RDKit          3D

 21 20  0  0  1  0  0  0  0  0999 V2000
   22.0462  -20.0365   -8.8043 N   0  0  0  0  0  0  0  0  0  0  0  0
   21.5899  -21.1481   -9.5605 C   0  0  0  0  0  0  0  0  0  0  0  0
   20.7088  -21.8825   -9.0197 O   0  0  0  0  0  0  0  0  0  0  0  0
   22.0809  -21.4739  -10.9033 C   0  0  0  0  0  0  0  0  0  0  0  0
   23.0050  -20.3852  -11.4009 C   0  0  0  0  0  0  0  0  0  0  0  0
   24.4034  -20.9193  -11.6168 C   0  0  2  0  0  0  0  0  0  0  0  0
   24.9750  -21.2641  -10.3342 N   0  0  0  0  0  0  0  0  0  0  0  0
   25.2736  -19.9462  -12.3031 C   0  0  0  0  0  0  0  0  0  0  0  0
   25.7762  -18.9430  -11.7284 O   0  0  0  0  0  0  0  0  0  0  0  0
   28.4207  -20.4439  -13.8090 C   0  0  0  0  0  0  0  0  0  0  0  0
   27.6486  -19.8161  -14.9044 C   0  0  2  0  0  0  0  0  0  0  0  0
   28.4914  -18.9775  -15.8320 C   0  0  0  0  0  0  0  0  0  0  0  0
   26.4053  -19.1463  -14.4339 C   0  0  2  0  0  0  0  0  0  0  0  0
   25.5781  -20.1211  -13.6779 N   0  0  0  0  0  0  0  0  0  0  0  0
   25.5828  -18.4638  -15.4308 C   0  0  0  0  0  0  0  0  0  0  0  0
   24.8574  -19.1975  -16.2070 O   0  0  0  0  0  0  0  0  0  0  0  0
   25.4686  -17.0851  -15.6639 N   0  0  0  0  0  0  0  0  0  0  0  0
   24.5727  -16.5318  -16.6527 C   0  0  0  0  0  0  0  0  0  0  0  0
   25.3442  -15.9200  -17.7607 C   0  0  0  0  0  0  0  0  0  0  0  0
   26.2996  -15.1292  -17.5520 O   0  0  0  0  0  0  0  0  0  0  0  0
   25.0331  -16.2038  -19.0829 O   0  0  0  0  0  0  0  0  0  0  0  0
  2  1  1  0
  2  3  2  0
  4  2  1  0
  5  4  1  0
  6  5  1  0
  6  7  1  1
  8  6  1  0
  8  9  2  0
 11 10  1  1
 11 13  1  0
 12 11  1  0
 13 14  1  6
 14  8  1  0
 15 13  1  0
 15 17  1  0
 16 15  2  0
 18 17  1  0
 18 19  1  0
 19 20  2  0
 19 21  1  0
M  END
$$$$
