QVG.pdb
     RDKit          3D

 21 20  0  0  1  0  0  0  0  0999 V2000
   20.8131  -27.7748  -11.0386 N   0  0  0  0  0  0  0  0  0  0  0  0
   21.0882  -28.2990  -12.3290 C   0  0  0  0  0  0  0  0  0  0  0  0
   20.7310  -29.4963  -12.5461 O   0  0  0  0  0  0  0  0  0  0  0  0
   21.7497  -27.5356  -13.3921 C   0  0  0  0  0  0  0  0  0  0  0  0
   22.0272  -26.1237  -12.9270 C   0  0  0  0  0  0  0  0  0  0  0  0
   23.4531  -25.7233  -13.2340 C   0  0  2  0  0  0  0  0  0  0  0  0
   24.3355  -26.3845  -12.2986 N   0  0  0  0  0  0  0  0  0  0  0  0
   23.6524  -24.2640  -13.1586 C   0  0  0  0  0  0  0  0  0  0  0  0
   23.9847  -23.6656  -12.0999 O   0  0  0  0  0  0  0  0  0  0  0  0
   26.0370  -22.5867  -15.1674 C   0  0  0  0  0  0  0  0  0  0  0  0
   24.8324  -21.7461  -15.3483 C   0  0  2  0  0  0  0  0  0  0  0  0
   25.1424  -20.2840  -15.5485 C   0  0  0  0  0  0  0  0  0  0  0  0
   23.7750  -22.0143  -14.3355 C   0  0  2  0  0  0  0  0  0  0  0  0
   23.4685  -23.4675  -14.3184 N   0  0  0  0  0  0  0  0  0  0  0  0
   22.5355  -21.2456  -14.4280 C   0  0  0  0  0  0  0  0  0  0  0  0
   21.7287  -21.5316  -15.3946 O   0  0  0  0  0  0  0  0  0  0  0  0
   22.0896  -20.2148  -13.5873 N   0  0  0  0  0  0  0  0  0  0  0  0
   20.8911  -19.4537  -13.8528 C   0  0  0  0  0  0  0  0  0  0  0  0
   19.6930  -20.2163  -13.4285 C   0  0  0  0  0  0  0  0  0  0  0  0
   19.3478  -21.2858  -13.9932 O   0  0  0  0  0  0  0  0  0  0  0  0
   18.9020  -19.7690  -12.3799 O   0  0  0  0  0  0  0  0  0  0  0  0
  2  1  1  0
  2  3  2  0
  4  2  1  0
  5  4  1  0
  6  5  1  0
  6  7  1  1
  8  6  1  0
  8  9  2  0
 11 10  1  1
 11 13  1  0
 12 11  1  0
 13 14  1  6
 14  8  1  0
 15 13  1  0
 15 17  1  0
 16 15  2  0
 18 17  1  0
 18 19  1  0
 19 20  2  0
 19 21  1  0
M  END
$$$$
