QVG.pdb
     RDKit          3D

 21 20  0  0  1  0  0  0  0  0999 V2000
   19.3793  -18.3053  -14.1284 N   0  0  0  0  0  0  0  0  0  0  0  0
   19.9179  -19.6179  -14.1800 C   0  0  0  0  0  0  0  0  0  0  0  0
   19.1244  -20.5706  -13.9138 O   0  0  0  0  0  0  0  0  0  0  0  0
   21.3143  -19.9105  -14.5188 C   0  0  0  0  0  0  0  0  0  0  0  0
   22.0320  -18.6415  -14.9207 C   0  0  0  0  0  0  0  0  0  0  0  0
   23.3733  -18.9535  -15.5462 C   0  0  2  0  0  0  0  0  0  0  0  0
   23.8627  -20.2014  -15.0040 N   0  0  0  0  0  0  0  0  0  0  0  0
   24.3629  -17.8862  -15.3079 C   0  0  0  0  0  0  0  0  0  0  0  0
   25.1275  -17.8638  -14.3058 O   0  0  0  0  0  0  0  0  0  0  0  0
   25.8120  -15.6265  -18.5649 C   0  0  0  0  0  0  0  0  0  0  0  0
   26.4693  -15.8782  -17.2630 C   0  0  2  0  0  0  0  0  0  0  0  0
   27.3358  -17.1123  -17.2541 C   0  0  0  0  0  0  0  0  0  0  0  0
   25.5358  -15.7778  -16.1078 C   0  0  2  0  0  0  0  0  0  0  0  0
   24.4837  -16.8185  -16.2346 N   0  0  0  0  0  0  0  0  0  0  0  0
   24.9210  -14.4787  -15.8427 C   0  0  0  0  0  0  0  0  0  0  0  0
   25.7022  -13.5094  -15.5001 O   0  0  0  0  0  0  0  0  0  0  0  0
   23.5637  -14.1310  -15.9139 N   0  0  0  0  0  0  0  0  0  0  0  0
   23.0891  -12.7858  -15.6864 C   0  0  0  0  0  0  0  0  0  0  0  0
   22.8645  -12.0944  -16.9781 C   0  0  0  0  0  0  0  0  0  0  0  0
   23.0586  -12.6636  -18.0827 O   0  0  0  0  0  0  0  0  0  0  0  0
   22.4269  -10.7780  -17.0114 O   0  0  0  0  0  0  0  0  0  0  0  0
  2  1  1  0
  2  3  2  0
  4  2  1  0
  5  4  1  0
  6  5  1  0
  6  7  1  1
  8  6  1  0
  8  9  2  0
 11 10  1  6
 11 13  1  0
 12 11  1  0
 13 14  1  6
 14  8  1  0
 15 13  1  0
 15 17  1  0
 16 15  2  0
 18 17  1  0
 18 19  1  0
 19 20  2  0
 19 21  1  0
M  END
$$$$
