QVG.pdb
     RDKit          3D

 21 20  0  0  1  0  0  0  0  0999 V2000
   17.7263   -8.3556  -18.9631 N   0  0  0  0  0  0  0  0  0  0  0  0
   16.8697   -9.4780  -18.8140 C   0  0  0  0  0  0  0  0  0  0  0  0
   16.2067   -9.8290  -19.8364 O   0  0  0  0  0  0  0  0  0  0  0  0
   16.7234  -10.2278  -17.5623 C   0  0  0  0  0  0  0  0  0  0  0  0
   17.5300   -9.5735  -16.4632 C   0  0  0  0  0  0  0  0  0  0  0  0
   18.5853  -10.5175  -15.9312 C   0  0  2  0  0  0  0  0  0  0  0  0
   17.9336  -11.6893  -15.3899 N   0  0  0  0  0  0  0  0  0  0  0  0
   19.4234   -9.8906  -14.8921 C   0  0  0  0  0  0  0  0  0  0  0  0
   19.1106   -9.8705  -13.6710 O   0  0  0  0  0  0  0  0  0  0  0  0
   23.6271   -9.4761  -15.3080 C   0  0  0  0  0  0  0  0  0  0  0  0
   22.7712   -9.4827  -14.1006 C   0  0  2  0  0  0  0  0  0  0  0  0
   22.5195  -10.8631  -13.5481 C   0  0  0  0  0  0  0  0  0  0  0  0
   21.5463   -8.6499  -14.2479 C   0  0  2  0  0  0  0  0  0  0  0  0
   20.6478   -9.2715  -15.2540 N   0  0  0  0  0  0  0  0  0  0  0  0
   21.7223   -7.2304  -14.5478 C   0  0  0  0  0  0  0  0  0  0  0  0
   21.7768   -6.8872  -15.7913 O   0  0  0  0  0  0  0  0  0  0  0  0
   21.8406   -6.1619  -13.6464 N   0  0  0  0  0  0  0  0  0  0  0  0
   22.0489   -4.7982  -14.0747 C   0  0  0  0  0  0  0  0  0  0  0  0
   20.7500   -4.0966  -14.2073 C   0  0  0  0  0  0  0  0  0  0  0  0
   19.6523   -4.6861  -14.0362 O   0  0  0  0  0  0  0  0  0  0  0  0
   20.7020   -2.7477  -14.5292 O   0  0  0  0  0  0  0  0  0  0  0  0
  2  1  1  0
  2  3  2  0
  4  2  1  0
  5  4  1  0
  6  5  1  0
  6  7  1  1
  8  6  1  0
  8  9  2  0
 11 10  1  6
 11 13  1  0
 12 11  1  0
 13 14  1  6
 14  8  1  0
 15 13  1  0
 15 17  1  0
 16 15  2  0
 18 17  1  0
 18 19  1  0
 19 20  2  0
 19 21  1  0
M  END
$$$$
