QVG.pdb
     RDKit          3D

 21 20  0  0  1  0  0  0  0  0999 V2000
   19.8351  -19.5235  -18.3234 N   0  0  0  0  0  0  0  0  0  0  0  0
   20.7596  -20.5713  -18.5747 C   0  0  0  0  0  0  0  0  0  0  0  0
   21.1272  -20.7309  -19.7779 O   0  0  0  0  0  0  0  0  0  0  0  0
   21.2927  -21.4524  -17.5307 C   0  0  0  0  0  0  0  0  0  0  0  0
   21.6917  -20.6434  -16.3169 C   0  0  0  0  0  0  0  0  0  0  0  0
   23.1893  -20.4366  -16.2729 C   0  0  2  0  0  0  0  0  0  0  0  0
   23.7968  -21.5631  -15.6001 N   0  0  0  0  0  0  0  0  0  0  0  0
   23.5609  -19.1868  -15.5837 C   0  0  0  0  0  0  0  0  0  0  0  0
   23.5634  -19.0640  -14.3290 O   0  0  0  0  0  0  0  0  0  0  0  0
   26.7080  -17.2490  -16.0609 C   0  0  0  0  0  0  0  0  0  0  0  0
   25.6024  -16.2860  -16.2621 C   0  0  2  0  0  0  0  0  0  0  0  0
   25.9597  -14.8707  -15.8835 C   0  0  0  0  0  0  0  0  0  0  0  0
   24.3059  -16.7596  -15.7049 C   0  0  2  0  0  0  0  0  0  0  0  0
   23.9388  -18.0495  -16.3433 N   0  0  0  0  0  0  0  0  0  0  0  0
   23.1704  -15.8406  -15.7518 C   0  0  0  0  0  0  0  0  0  0  0  0
   23.2496  -14.7607  -15.0484 O   0  0  0  0  0  0  0  0  0  0  0  0
   21.9769  -15.9732  -16.4770 N   0  0  0  0  0  0  0  0  0  0  0  0
   20.9355  -14.9725  -16.4569 C   0  0  0  0  0  0  0  0  0  0  0  0
   19.7933  -15.4353  -15.6333 C   0  0  0  0  0  0  0  0  0  0  0  0
   19.8092  -16.5384  -15.0296 O   0  0  0  0  0  0  0  0  0  0  0  0
   18.6532  -14.6557  -15.4996 O   0  0  0  0  0  0  0  0  0  0  0  0
  2  1  1  0
  2  3  2  0
  4  2  1  0
  5  4  1  0
  6  5  1  0
  6  7  1  1
  8  6  1  0
  8  9  2  0
 11 10  1  1
 11 13  1  0
 12 11  1  0
 13 14  1  6
 14  8  1  0
 15 13  1  0
 15 17  1  0
 16 15  2  0
 18 17  1  0
 18 19  1  0
 19 20  2  0
 19 21  1  0
M  END
$$$$
