QVG.pdb
     RDKit          3D

 21 20  0  0  1  0  0  0  0  0999 V2000
   22.0129  -17.5023  -16.9966 N   0  0  0  0  0  0  0  0  0  0  0  0
   22.8714  -16.3935  -17.2181 C   0  0  0  0  0  0  0  0  0  0  0  0
   22.4067  -15.4434  -17.9177 O   0  0  0  0  0  0  0  0  0  0  0  0
   24.2352  -16.3029  -16.6866 C   0  0  0  0  0  0  0  0  0  0  0  0
   24.5069  -17.4540  -15.7442 C   0  0  0  0  0  0  0  0  0  0  0  0
   25.7469  -18.2132  -16.1609 C   0  0  2  0  0  0  0  0  0  0  0  0
   25.6456  -18.5381  -17.5662 N   0  0  0  0  0  0  0  0  0  0  0  0
   25.9354  -19.4486  -15.3777 C   0  0  0  0  0  0  0  0  0  0  0  0
   25.4375  -20.5588  -15.7076 O   0  0  0  0  0  0  0  0  0  0  0  0
   29.2331  -20.0481  -12.7454 C   0  0  0  0  0  0  0  0  0  0  0  0
   28.3251  -21.0335  -13.3737 C   0  0  2  0  0  0  0  0  0  0  0  0
   28.7961  -21.5114  -14.7241 C   0  0  0  0  0  0  0  0  0  0  0  0
   26.8960  -20.6187  -13.3358 C   0  0  2  0  0  0  0  0  0  0  0  0
   26.7104  -19.4175  -14.1894 N   0  0  0  0  0  0  0  0  0  0  0  0
   26.2881  -20.3964  -12.0254 C   0  0  0  0  0  0  0  0  0  0  0  0
   26.3058  -19.1930  -11.5577 O   0  0  0  0  0  0  0  0  0  0  0  0
   25.6697  -21.3350  -11.1860 N   0  0  0  0  0  0  0  0  0  0  0  0
   25.1433  -20.9923   -9.8852 C   0  0  0  0  0  0  0  0  0  0  0  0
   23.6773  -20.7869   -9.9614 C   0  0  0  0  0  0  0  0  0  0  0  0
   23.0405  -20.9138  -11.0384 O   0  0  0  0  0  0  0  0  0  0  0  0
   22.9495  -20.4432   -8.8311 O   0  0  0  0  0  0  0  0  0  0  0  0
  2  1  1  0
  2  3  2  0
  4  2  1  0
  5  4  1  0
  6  5  1  0
  6  7  1  6
  8  6  1  0
  8  9  2  0
 11 10  1  6
 11 13  1  0
 12 11  1  0
 13 14  1  6
 14  8  1  0
 15 13  1  0
 15 17  1  0
 16 15  2  0
 18 17  1  0
 18 19  1  0
 19 20  2  0
 19 21  1  0
M  END
$$$$
