QVG.pdb
     RDKit          3D

 21 20  0  0  1  0  0  0  0  0999 V2000
   20.2623  -14.5906  -17.7897 N   0  0  0  0  0  0  0  0  0  0  0  0
   19.2854  -15.0873  -16.8872 C   0  0  0  0  0  0  0  0  0  0  0  0
   19.3191  -16.3303  -16.6379 O   0  0  0  0  0  0  0  0  0  0  0  0
   18.2671  -14.2471  -16.2488 C   0  0  0  0  0  0  0  0  0  0  0  0
   18.4395  -12.8051  -16.6701 C   0  0  0  0  0  0  0  0  0  0  0  0
   17.9581  -11.8641  -15.5883 C   0  0  2  0  0  0  0  0  0  0  0  0
   16.6023  -12.2175  -15.2310 N   0  0  0  0  0  0  0  0  0  0  0  0
   18.0082  -10.4524  -16.0124 C   0  0  0  0  0  0  0  0  0  0  0  0
   17.2538   -9.9703  -16.8999 O   0  0  0  0  0  0  0  0  0  0  0  0
   17.3256   -7.3201  -14.0976 C   0  0  0  0  0  0  0  0  0  0  0  0
   17.6470   -7.5208  -15.5282 C   0  0  2  0  0  0  0  0  0  0  0  0
   16.5378   -8.1806  -16.3082 C   0  0  0  0  0  0  0  0  0  0  0  0
   18.9906   -8.1232  -15.7465 C   0  0  2  0  0  0  0  0  0  0  0  0
   18.9411   -9.5691  -15.4102 N   0  0  0  0  0  0  0  0  0  0  0  0
   20.1317   -7.4968  -15.0821 C   0  0  0  0  0  0  0  0  0  0  0  0
   20.3678   -7.8359  -13.8588 O   0  0  0  0  0  0  0  0  0  0  0  0
   21.0303   -6.5552  -15.6057 N   0  0  0  0  0  0  0  0  0  0  0  0
   22.2115   -6.1237  -14.8952 C   0  0  0  0  0  0  0  0  0  0  0  0
   21.8676   -5.0559  -13.9264 C   0  0  0  0  0  0  0  0  0  0  0  0
   20.6849   -4.6625  -13.7585 O   0  0  0  0  0  0  0  0  0  0  0  0
   22.8529   -4.4469  -13.1625 O   0  0  0  0  0  0  0  0  0  0  0  0
  2  1  1  0
  2  3  2  0
  4  2  1  0
  5  4  1  0
  6  5  1  0
  6  7  1  6
  8  6  1  0
  8  9  2  0
 11 10  1  1
 11 13  1  0
 12 11  1  0
 13 14  1  1
 14  8  1  0
 15 13  1  0
 15 17  1  0
 16 15  2  0
 18 17  1  0
 18 19  1  0
 19 20  2  0
 19 21  1  0
M  END
$$$$
