QVG.pdb
     RDKit          3D

 21 20  0  0  1  0  0  0  0  0999 V2000
   20.5825  -15.8003  -18.9007 N   0  0  0  0  0  0  0  0  0  0  0  0
   19.6367  -14.7436  -18.9678 C   0  0  0  0  0  0  0  0  0  0  0  0
   19.3515  -14.3063  -20.1235 O   0  0  0  0  0  0  0  0  0  0  0  0
   18.9934  -14.1528  -17.7899 C   0  0  0  0  0  0  0  0  0  0  0  0
   20.0266  -13.4899  -16.9068 C   0  0  0  0  0  0  0  0  0  0  0  0
   20.0394  -11.9925  -17.1193 C   0  0  2  0  0  0  0  0  0  0  0  0
   20.5778  -11.7114  -18.4315 N   0  0  0  0  0  0  0  0  0  0  0  0
   20.8343  -11.2894  -16.0951 C   0  0  0  0  0  0  0  0  0  0  0  0
   20.6743  -11.4628  -14.8567 O   0  0  0  0  0  0  0  0  0  0  0  0
   24.4115  -11.3138  -15.6687 C   0  0  0  0  0  0  0  0  0  0  0  0
   24.0819   -9.8720  -15.7210 C   0  0  2  0  0  0  0  0  0  0  0  0
   25.0065   -9.0123  -14.8964 C   0  0  0  0  0  0  0  0  0  0  0  0
   22.6352   -9.5949  -15.5064 C   0  0  2  0  0  0  0  0  0  0  0  0
   21.8359  -10.3662  -16.4925 N   0  0  0  0  0  0  0  0  0  0  0  0
   22.2049   -8.1982  -15.5010 C   0  0  0  0  0  0  0  0  0  0  0  0
   22.3211   -7.5354  -16.6029 O   0  0  0  0  0  0  0  0  0  0  0  0
   21.6665   -7.4609  -14.4357 N   0  0  0  0  0  0  0  0  0  0  0  0
   21.3088   -6.0664  -14.5531 C   0  0  0  0  0  0  0  0  0  0  0  0
   22.4407   -5.2077  -14.1305 C   0  0  0  0  0  0  0  0  0  0  0  0
   22.3635   -3.9524  -14.1327 O   0  0  0  0  0  0  0  0  0  0  0  0
   23.6392   -5.7686  -13.7130 O   0  0  0  0  0  0  0  0  0  0  0  0
  2  1  1  0
  2  3  2  0
  4  2  1  0
  5  4  1  0
  6  5  1  0
  6  7  1  6
  8  6  1  0
  8  9  2  0
 11 10  1  1
 11 13  1  0
 12 11  1  0
 13 14  1  6
 14  8  1  0
 15 13  1  0
 15 17  1  0
 16 15  2  0
 18 17  1  0
 18 19  1  0
 19 20  2  0
 19 21  1  0
M  END
$$$$
