QVG.pdb
     RDKit          3D

 21 20  0  0  1  0  0  0  0  0999 V2000
   20.7788  -19.1550  -10.9562 N   0  0  0  0  0  0  0  0  0  0  0  0
   21.0921  -20.3358  -10.2329 C   0  0  0  0  0  0  0  0  0  0  0  0
   20.1737  -20.8182   -9.5034 O   0  0  0  0  0  0  0  0  0  0  0  0
   22.3967  -21.0029  -10.2921 C   0  0  0  0  0  0  0  0  0  0  0  0
   23.3869  -20.1489  -11.0516 C   0  0  0  0  0  0  0  0  0  0  0  0
   24.7411  -20.8193  -11.1173 C   0  0  2  0  0  0  0  0  0  0  0  0
   25.2920  -20.8912   -9.7824 N   0  0  0  0  0  0  0  0  0  0  0  0
   25.6773  -20.1025  -12.0032 C   0  0  0  0  0  0  0  0  0  0  0  0
   26.3600  -19.1107  -11.6297 O   0  0  0  0  0  0  0  0  0  0  0  0
   28.5663  -21.3051  -13.6134 C   0  0  0  0  0  0  0  0  0  0  0  0
   27.8151  -20.7119  -14.7422 C   0  0  2  0  0  0  0  0  0  0  0  0
   28.7004  -20.1369  -15.8190 C   0  0  0  0  0  0  0  0  0  0  0  0
   26.7187  -19.8060  -14.3029 C   0  0  2  0  0  0  0  0  0  0  0  0
   25.8391  -20.5268  -13.3475 N   0  0  0  0  0  0  0  0  0  0  0  0
   25.9098  -19.1670  -15.3389 C   0  0  0  0  0  0  0  0  0  0  0  0
   24.9947  -19.8812  -15.9043 O   0  0  0  0  0  0  0  0  0  0  0  0
   25.9918  -17.8493  -15.8134 N   0  0  0  0  0  0  0  0  0  0  0  0
   25.0917  -17.3214  -16.8123 C   0  0  0  0  0  0  0  0  0  0  0  0
   25.6095  -17.6043  -18.1720 C   0  0  0  0  0  0  0  0  0  0  0  0
   26.6393  -18.3006  -18.3628 O   0  0  0  0  0  0  0  0  0  0  0  0
   24.9661  -17.1030  -19.2946 O   0  0  0  0  0  0  0  0  0  0  0  0
  2  1  1  0
  2  3  2  0
  4  2  1  0
  5  4  1  0
  6  5  1  0
  6  7  1  1
  8  6  1  0
  8  9  2  0
 11 10  1  1
 11 13  1  0
 12 11  1  0
 13 14  1  1
 14  8  1  0
 15 13  1  0
 15 17  1  0
 16 15  2  0
 18 17  1  0
 18 19  1  0
 19 20  2  0
 19 21  1  0
M  END
$$$$
