QCW.pdb
     RDKit          3D

 30 31  0  0  1  0  0  0  0  0999 V2000
   31.6322  -24.6823  -15.7631 N   0  0  0  0  0  0  0  0  0  0  0  0
   31.4310  -24.2894  -17.1015 C   0  0  0  0  0  0  0  0  0  0  0  0
   31.9430  -24.9545  -18.0293 O   0  0  0  0  0  0  0  0  0  0  0  0
   30.6114  -23.0886  -17.3845 C   0  0  0  0  0  0  0  0  0  0  0  0
   30.0791  -22.5348  -16.0707 C   0  0  0  0  0  0  0  0  0  0  0  0
   28.5903  -22.3045  -16.1433 C   0  0  2  0  0  0  0  0  0  0  0  0
   28.1786  -21.9700  -17.5085 N   0  0  0  0  0  0  0  0  0  0  0  0
   28.1444  -21.2532  -15.1931 C   0  0  0  0  0  0  0  0  0  0  0  0
   28.7807  -20.1835  -15.0351 O   0  0  0  0  0  0  0  0  0  0  0  0
   26.9619  -21.4708  -14.4436 N   0  0  0  0  0  0  0  0  0  0  0  0
   26.4294  -20.5505  -13.4617 C   0  0  1  0  0  0  0  0  0  0  0  0
   25.1005  -19.9812  -13.9157 C   0  0  0  0  0  0  0  0  0  0  0  0
   24.2504  -19.0628  -12.6310 S   0  0  0  0  0  0  0  0  0  0  0  0
   26.3197  -21.2640  -12.1723 C   0  0  0  0  0  0  0  0  0  0  0  0
   25.8115  -22.4375  -12.1139 O   0  0  0  0  0  0  0  0  0  0  0  0
   26.7478  -20.7409  -10.9285 N   0  0  0  0  0  0  0  0  0  0  0  0
   26.4362  -21.4346   -9.6628 C   0  0  1  0  0  0  0  0  0  0  0  0
   27.6981  -21.3081   -8.8482 C   0  0  0  0  0  0  0  0  0  0  0  0
   27.5729  -20.2526   -7.8305 C   0  0  0  0  0  0  0  0  0  0  0  0
   26.6539  -19.2020   -7.8589 C   0  0  0  0  0  0  0  0  0  0  0  0
   26.7507  -18.4351   -6.7788 N   0  0  0  0  0  0  0  0  0  0  0  0
   27.7449  -18.9917   -6.0381 C   0  0  0  0  0  0  0  0  0  0  0  0
   28.2420  -18.5572   -4.8149 C   0  0  0  0  0  0  0  0  0  0  0  0
   29.2653  -19.2652   -4.2443 C   0  0  0  0  0  0  0  0  0  0  0  0
   29.7858  -20.3774   -4.8686 C   0  0  0  0  0  0  0  0  0  0  0  0
   29.3079  -20.8201   -6.0742 C   0  0  0  0  0  0  0  0  0  0  0  0
   28.2642  -20.1055   -6.6621 C   0  0  0  0  0  0  0  0  0  0  0  0
   25.2216  -20.9397   -9.0243 C   0  0  0  0  0  0  0  0  0  0  0  0
   24.6298  -21.6862   -8.0176 O   0  0  0  0  0  0  0  0  0  0  0  0
   24.6685  -19.8569   -9.3443 O   0  0  0  0  0  0  0  0  0  0  0  0
  2  3  2  0
  2  1  1  0
  4  2  1  0
  5  4  1  0
  6  5  1  0
  6  7  1  6
  8 10  1  0
  8  6  1  0
  9  8  2  0
 11 14  1  0
 11 10  1  0
 11 12  1  6
 13 12  1  0
 14 15  2  0
 16 17  1  0
 16 14  1  0
 17 28  1  0
 17 18  1  1
 19 18  1  0
 20 19  2  0
 21 22  1  0
 21 20  1  0
 22 27  2  0
 23 24  2  0
 23 22  1  0
 24 25  1  0
 25 26  2  0
 27 26  1  0
 27 19  1  0
 28 30  2  0
 28 29  1  0
M  END
$$$$
