QCW.pdb
     RDKit          3D

 30 31  0  0  1  0  0  0  0  0999 V2000
   21.0739  -15.3439  -17.5035 N   0  0  0  0  0  0  0  0  0  0  0  0
   21.3027  -14.1701  -18.2492 C   0  0  0  0  0  0  0  0  0  0  0  0
   20.6374  -13.1386  -18.0064 O   0  0  0  0  0  0  0  0  0  0  0  0
   22.3333  -14.1816  -19.3129 C   0  0  0  0  0  0  0  0  0  0  0  0
   22.9190  -15.5825  -19.4161 C   0  0  0  0  0  0  0  0  0  0  0  0
   24.1576  -15.7160  -18.5659 C   0  0  2  0  0  0  0  0  0  0  0  0
   25.1149  -14.6486  -18.8648 N   0  0  0  0  0  0  0  0  0  0  0  0
   24.7974  -17.0475  -18.7227 C   0  0  0  0  0  0  0  0  0  0  0  0
   24.2012  -18.0159  -19.2526 O   0  0  0  0  0  0  0  0  0  0  0  0
   26.1239  -17.2241  -18.2569 N   0  0  0  0  0  0  0  0  0  0  0  0
   26.8619  -18.4670  -18.3276 C   0  0  1  0  0  0  0  0  0  0  0  0
   28.2577  -18.2394  -18.8718 C   0  0  0  0  0  0  0  0  0  0  0  0
   29.4053  -17.6272  -17.6369 S   0  0  0  0  0  0  0  0  0  0  0  0
   26.8801  -19.0701  -16.9786 C   0  0  0  0  0  0  0  0  0  0  0  0
   27.6090  -18.5757  -16.0496 O   0  0  0  0  0  0  0  0  0  0  0  0
   26.1253  -20.2058  -16.5988 N   0  0  0  0  0  0  0  0  0  0  0  0
   26.2687  -20.8009  -15.2550 C   0  0  1  0  0  0  0  0  0  0  0  0
   25.9880  -19.6602  -14.3106 C   0  0  0  0  0  0  0  0  0  0  0  0
   26.3050  -20.0273  -12.9212 C   0  0  0  0  0  0  0  0  0  0  0  0
   27.5879  -20.2131  -12.4028 C   0  0  0  0  0  0  0  0  0  0  0  0
   27.5576  -20.4934  -11.1048 N   0  0  0  0  0  0  0  0  0  0  0  0
   26.2396  -20.4912  -10.7735 C   0  0  0  0  0  0  0  0  0  0  0  0
   25.6732  -20.7403   -9.5288 C   0  0  0  0  0  0  0  0  0  0  0  0
   24.3093  -20.6998   -9.4191 C   0  0  0  0  0  0  0  0  0  0  0  0
   23.5228  -20.4196  -10.5147 C   0  0  0  0  0  0  0  0  0  0  0  0
   24.0640  -20.1712  -11.7489 C   0  0  0  0  0  0  0  0  0  0  0  0
   25.4531  -20.2089  -11.8695 C   0  0  0  0  0  0  0  0  0  0  0  0
   25.4472  -21.9915  -15.0671 C   0  0  0  0  0  0  0  0  0  0  0  0
   25.9848  -23.0935  -14.4208 O   0  0  0  0  0  0  0  0  0  0  0  0
   24.2593  -22.0781  -15.4694 O   0  0  0  0  0  0  0  0  0  0  0  0
  2  3  2  0
  2  1  1  0
  4  2  1  0
  5  4  1  0
  6  5  1  0
  6  7  1  6
  8 10  1  0
  8  6  1  0
  9  8  2  0
 11 14  1  0
 11 10  1  0
 11 12  1  1
 13 12  1  0
 14 15  2  0
 16 17  1  0
 16 14  1  0
 17 28  1  0
 17 18  1  1
 19 18  1  0
 20 19  2  0
 21 22  1  0
 21 20  1  0
 22 27  2  0
 23 24  2  0
 23 22  1  0
 24 25  1  0
 25 26  2  0
 27 26  1  0
 27 19  1  0
 28 30  2  0
 28 29  1  0
M  END
$$$$
