QCW.pdb
     RDKit          3D

 30 31  0  0  1  0  0  0  0  0999 V2000
   22.0442  -26.8380  -17.4571 N   0  0  0  0  0  0  0  0  0  0  0  0
   21.9498  -26.2879  -16.1631 C   0  0  0  0  0  0  0  0  0  0  0  0
   21.1995  -26.8188  -15.3141 O   0  0  0  0  0  0  0  0  0  0  0  0
   22.7463  -25.0839  -15.8320 C   0  0  0  0  0  0  0  0  0  0  0  0
   23.5844  -24.6996  -17.0428 C   0  0  0  0  0  0  0  0  0  0  0  0
   25.0309  -25.0768  -16.8424 C   0  0  2  0  0  0  0  0  0  0  0  0
   25.1884  -26.5316  -16.7801 N   0  0  0  0  0  0  0  0  0  0  0  0
   25.6080  -24.4388  -15.6312 C   0  0  0  0  0  0  0  0  0  0  0  0
   25.6469  -25.0250  -14.5227 O   0  0  0  0  0  0  0  0  0  0  0  0
   26.1296  -23.1257  -15.7369 N   0  0  0  0  0  0  0  0  0  0  0  0
   26.8115  -22.4232  -14.6710 C   0  0  1  0  0  0  0  0  0  0  0  0
   27.7063  -21.3329  -15.2249 C   0  0  0  0  0  0  0  0  0  0  0  0
   29.1989  -21.9666  -15.9913 S   0  0  0  0  0  0  0  0  0  0  0  0
   25.7919  -21.8909  -13.7432 C   0  0  0  0  0  0  0  0  0  0  0  0
   24.7376  -21.3167  -14.1874 O   0  0  0  0  0  0  0  0  0  0  0  0
   25.8788  -21.9610  -12.3320 N   0  0  0  0  0  0  0  0  0  0  0  0
   24.8429  -21.3517  -11.4741 C   0  0  1  0  0  0  0  0  0  0  0  0
   25.2585  -21.7166  -10.0719 C   0  0  0  0  0  0  0  0  0  0  0  0
   26.6248  -21.2530   -9.7826 C   0  0  0  0  0  0  0  0  0  0  0  0
   27.7151  -21.3470  -10.6497 C   0  0  0  0  0  0  0  0  0  0  0  0
   28.8071  -20.8005  -10.1271 N   0  0  0  0  0  0  0  0  0  0  0  0
   28.4246  -20.3459   -8.9048 C   0  0  0  0  0  0  0  0  0  0  0  0
   29.2053  -19.7011   -7.9526 C   0  0  0  0  0  0  0  0  0  0  0  0
   28.6161  -19.3372   -6.7718 C   0  0  0  0  0  0  0  0  0  0  0  0
   27.2854  -19.6049   -6.5371 C   0  0  0  0  0  0  0  0  0  0  0  0
   26.5008  -20.2392   -7.4644 C   0  0  0  0  0  0  0  0  0  0  0  0
   27.0926  -20.6122   -8.6712 C   0  0  0  0  0  0  0  0  0  0  0  0
   24.6582  -19.9268  -11.7261 C   0  0  0  0  0  0  0  0  0  0  0  0
   23.5178  -19.2952  -11.2555 O   0  0  0  0  0  0  0  0  0  0  0  0
   25.4877  -19.2275  -12.3613 O   0  0  0  0  0  0  0  0  0  0  0  0
  2  3  2  0
  2  1  1  0
  4  2  1  0
  5  4  1  0
  6  5  1  0
  6  7  1  1
  8 10  1  0
  8  6  1  0
  9  8  2  0
 11 14  1  0
 11 10  1  0
 11 12  1  6
 13 12  1  0
 14 15  2  0
 16 17  1  0
 16 14  1  0
 17 28  1  0
 17 18  1  1
 19 18  1  0
 20 19  2  0
 21 22  1  0
 21 20  1  0
 22 27  2  0
 23 24  2  0
 23 22  1  0
 24 25  1  0
 25 26  2  0
 27 26  1  0
 27 19  1  0
 28 30  2  0
 28 29  1  0
M  END
$$$$
