QCW.pdb
     RDKit          3D

 30 31  0  0  1  0  0  0  0  0999 V2000
   23.1417  -26.2155  -14.1703 N   0  0  0  0  0  0  0  0  0  0  0  0
   22.1831  -27.0215  -14.8165 C   0  0  0  0  0  0  0  0  0  0  0  0
   22.5306  -27.7687  -15.7579 O   0  0  0  0  0  0  0  0  0  0  0  0
   20.7736  -26.9671  -14.3647 C   0  0  0  0  0  0  0  0  0  0  0  0
   20.6838  -26.0710  -13.1379 C   0  0  0  0  0  0  0  0  0  0  0  0
   19.7226  -24.9318  -13.3681 C   0  0  2  0  0  0  0  0  0  0  0  0
   20.2395  -24.0075  -14.3799 N   0  0  0  0  0  0  0  0  0  0  0  0
   19.4118  -24.2052  -12.1102 C   0  0  0  0  0  0  0  0  0  0  0  0
   20.1918  -23.3523  -11.6222 O   0  0  0  0  0  0  0  0  0  0  0  0
   18.1938  -24.4886  -11.4440 N   0  0  0  0  0  0  0  0  0  0  0  0
   17.7179  -23.7919  -10.2681 C   0  0  1  0  0  0  0  0  0  0  0  0
   16.4379  -23.0374  -10.5651 C   0  0  0  0  0  0  0  0  0  0  0  0
   15.7241  -22.2604   -9.1147 S   0  0  0  0  0  0  0  0  0  0  0  0
   17.5441  -24.7812   -9.1843 C   0  0  0  0  0  0  0  0  0  0  0  0
   17.0658  -25.9433   -9.4283 O   0  0  0  0  0  0  0  0  0  0  0  0
   17.8755  -24.5495   -7.8277 N   0  0  0  0  0  0  0  0  0  0  0  0
   17.5356  -25.5349   -6.7818 C   0  0  1  0  0  0  0  0  0  0  0  0
   18.1672  -24.9821   -5.5298 C   0  0  0  0  0  0  0  0  0  0  0  0
   17.8493  -25.8149   -4.3591 C   0  0  0  0  0  0  0  0  0  0  0  0
   18.5644  -26.9401   -3.9445 C   0  0  0  0  0  0  0  0  0  0  0  0
   18.0645  -27.4560   -2.8273 N   0  0  0  0  0  0  0  0  0  0  0  0
   17.0107  -26.6584   -2.5104 C   0  0  0  0  0  0  0  0  0  0  0  0
   16.1448  -26.7794   -1.4298 C   0  0  0  0  0  0  0  0  0  0  0  0
   15.1325  -25.8662   -1.3067 C   0  0  0  0  0  0  0  0  0  0  0  0
   14.9791  -24.8563   -2.2309 C   0  0  0  0  0  0  0  0  0  0  0  0
   15.8234  -24.7217   -3.3018 C   0  0  0  0  0  0  0  0  0  0  0  0
   16.8587  -25.6470   -3.4342 C   0  0  0  0  0  0  0  0  0  0  0  0
   16.1052  -25.8085   -6.6982 C   0  0  0  0  0  0  0  0  0  0  0  0
   15.6745  -27.0933   -6.4068 O   0  0  0  0  0  0  0  0  0  0  0  0
   15.2249  -24.9303   -6.8832 O   0  0  0  0  0  0  0  0  0  0  0  0
  2  3  2  0
  2  1  1  0
  4  2  1  0
  5  4  1  0
  6  5  1  0
  6  7  1  6
  8 10  1  0
  8  6  1  0
  9  8  2  0
 11 14  1  0
 11 10  1  0
 11 12  1  6
 13 12  1  0
 14 15  2  0
 16 17  1  0
 16 14  1  0
 17 28  1  0
 17 18  1  1
 19 18  1  0
 20 19  2  0
 21 22  1  0
 21 20  1  0
 22 27  2  0
 23 24  2  0
 23 22  1  0
 24 25  1  0
 25 26  2  0
 27 26  1  0
 27 19  1  0
 28 30  2  0
 28 29  1  0
M  END
$$$$
