QCW.pdb
     RDKit          3D

 30 31  0  0  1  0  0  0  0  0999 V2000
   29.0690  -20.3409  -15.8695 N   0  0  0  0  0  0  0  0  0  0  0  0
   29.4437  -19.0441  -16.2746 C   0  0  0  0  0  0  0  0  0  0  0  0
   30.1311  -18.8890  -17.3085 O   0  0  0  0  0  0  0  0  0  0  0  0
   29.0132  -17.8828  -15.4622 C   0  0  0  0  0  0  0  0  0  0  0  0
   28.1917  -18.3840  -14.2832 C   0  0  0  0  0  0  0  0  0  0  0  0
   26.8238  -18.8364  -14.7291 C   0  0  2  0  0  0  0  0  0  0  0  0
   26.0923  -17.7397  -15.3673 N   0  0  0  0  0  0  0  0  0  0  0  0
   26.0339  -19.4047  -13.6065 C   0  0  0  0  0  0  0  0  0  0  0  0
   25.3428  -18.6852  -12.8458 O   0  0  0  0  0  0  0  0  0  0  0  0
   26.0659  -20.8049  -13.3925 N   0  0  0  0  0  0  0  0  0  0  0  0
   25.3077  -21.4988  -12.3736 C   0  0  1  0  0  0  0  0  0  0  0  0
   25.1157  -22.9569  -12.7383 C   0  0  0  0  0  0  0  0  0  0  0  0
   24.2281  -23.1877  -14.2797 S   0  0  0  0  0  0  0  0  0  0  0  0
   26.0096  -21.3338  -11.0836 C   0  0  0  0  0  0  0  0  0  0  0  0
   27.2793  -21.1758  -11.0440 O   0  0  0  0  0  0  0  0  0  0  0  0
   25.3726  -21.3348   -9.8195 N   0  0  0  0  0  0  0  0  0  0  0  0
   26.1532  -21.1999   -8.5733 C   0  0  1  0  0  0  0  0  0  0  0  0
   26.9606  -19.9430   -8.7738 C   0  0  0  0  0  0  0  0  0  0  0  0
   27.4277  -19.3981   -7.4892 C   0  0  0  0  0  0  0  0  0  0  0  0
   26.8166  -18.3663   -6.7742 C   0  0  0  0  0  0  0  0  0  0  0  0
   27.4421  -18.1253   -5.6276 N   0  0  0  0  0  0  0  0  0  0  0  0
   28.4736  -19.0096   -5.5951 C   0  0  0  0  0  0  0  0  0  0  0  0
   29.4377  -19.1585   -4.6050 C   0  0  0  0  0  0  0  0  0  0  0  0
   30.4042  -20.1118   -4.7815 C   0  0  0  0  0  0  0  0  0  0  0  0
   30.4178  -20.8998   -5.9112 C   0  0  0  0  0  0  0  0  0  0  0  0
   29.4753  -20.7670   -6.8970 C   0  0  0  0  0  0  0  0  0  0  0  0
   28.4857  -19.7991   -6.7246 C   0  0  0  0  0  0  0  0  0  0  0  0
   25.3240  -21.2317   -7.3737 C   0  0  0  0  0  0  0  0  0  0  0  0
   24.0667  -20.6490   -7.4004 O   0  0  0  0  0  0  0  0  0  0  0  0
   25.6934  -21.7634   -6.2960 O   0  0  0  0  0  0  0  0  0  0  0  0
  2  3  2  0
  2  1  1  0
  4  2  1  0
  5  4  1  0
  6  5  1  0
  6  7  1  1
  8 10  1  0
  8  6  1  0
  9  8  2  0
 11 14  1  0
 11 10  1  0
 11 12  1  6
 13 12  1  0
 14 15  2  0
 16 17  1  0
 16 14  1  0
 17 28  1  0
 17 18  1  6
 19 18  1  0
 20 19  2  0
 21 22  1  0
 21 20  1  0
 22 27  2  0
 23 24  2  0
 23 22  1  0
 24 25  1  0
 25 26  2  0
 27 26  1  0
 27 19  1  0
 28 30  2  0
 28 29  1  0
M  END
$$$$
