QCW.pdb
     RDKit          3D

 30 31  0  0  1  0  0  0  0  0999 V2000
   21.6111  -16.3984  -15.7381 N   0  0  0  0  0  0  0  0  0  0  0  0
   21.9610  -15.8815  -17.0016 C   0  0  0  0  0  0  0  0  0  0  0  0
   21.5231  -14.7659  -17.3610 O   0  0  0  0  0  0  0  0  0  0  0  0
   22.8463  -16.6753  -17.8848 C   0  0  0  0  0  0  0  0  0  0  0  0
   23.1494  -18.0059  -17.2112 C   0  0  0  0  0  0  0  0  0  0  0  0
   24.3458  -17.8918  -16.3000 C   0  0  2  0  0  0  0  0  0  0  0  0
   25.4360  -17.1666  -16.9563 N   0  0  0  0  0  0  0  0  0  0  0  0
   24.8141  -19.2210  -15.8300 C   0  0  0  0  0  0  0  0  0  0  0  0
   24.0165  -20.1221  -15.4753 O   0  0  0  0  0  0  0  0  0  0  0  0
   26.2074  -19.4737  -15.7825 N   0  0  0  0  0  0  0  0  0  0  0  0
   26.8016  -20.7389  -15.4074 C   0  0  1  0  0  0  0  0  0  0  0  0
   28.1316  -20.9420  -16.1046 C   0  0  0  0  0  0  0  0  0  0  0  0
   28.0156  -20.8334  -17.8911 S   0  0  0  0  0  0  0  0  0  0  0  0
   26.9324  -20.7690  -13.9358 C   0  0  0  0  0  0  0  0  0  0  0  0
   27.6270  -19.8865  -13.3215 O   0  0  0  0  0  0  0  0  0  0  0  0
   26.3279  -21.7364  -13.0976 N   0  0  0  0  0  0  0  0  0  0  0  0
   26.5158  -21.6996  -11.6334 C   0  0  1  0  0  0  0  0  0  0  0  0
   26.0760  -20.3137  -11.2362 C   0  0  0  0  0  0  0  0  0  0  0  0
   26.1276  -20.1353   -9.7764 C   0  0  0  0  0  0  0  0  0  0  0  0
   25.0215  -20.0595   -8.9279 C   0  0  0  0  0  0  0  0  0  0  0  0
   25.3851  -19.9440   -7.6557 N   0  0  0  0  0  0  0  0  0  0  0  0
   26.7440  -19.9436   -7.6751 C   0  0  0  0  0  0  0  0  0  0  0  0
   27.6119  -19.8341   -6.5949 C   0  0  0  0  0  0  0  0  0  0  0  0
   28.9580  -19.8423   -6.8433 C   0  0  0  0  0  0  0  0  0  0  0  0
   29.4358  -19.9556   -8.1303 C   0  0  0  0  0  0  0  0  0  0  0  0
   28.5949  -20.0648   -9.2069 C   0  0  0  0  0  0  0  0  0  0  0  0
   27.2216  -20.0589   -8.9628 C   0  0  0  0  0  0  0  0  0  0  0  0
   25.8446  -22.7958  -10.9438 C   0  0  0  0  0  0  0  0  0  0  0  0
   26.5971  -23.7019  -10.2131 O   0  0  0  0  0  0  0  0  0  0  0  0
   24.6002  -22.9712  -10.9788 O   0  0  0  0  0  0  0  0  0  0  0  0
  2  3  2  0
  2  1  1  0
  4  2  1  0
  5  4  1  0
  6  5  1  0
  6  7  1  6
  8 10  1  0
  8  6  1  0
  9  8  2  0
 11 14  1  0
 11 10  1  0
 11 12  1  6
 13 12  1  0
 14 15  2  0
 16 17  1  0
 16 14  1  0
 17 28  1  0
 17 18  1  1
 19 18  1  0
 20 19  2  0
 21 22  1  0
 21 20  1  0
 22 27  2  0
 23 24  2  0
 23 22  1  0
 24 25  1  0
 25 26  2  0
 27 26  1  0
 27 19  1  0
 28 30  2  0
 28 29  1  0
M  END
$$$$
