QCW.pdb
     RDKit          3D

 30 31  0  0  1  0  0  0  0  0999 V2000
   26.5001  -20.8647  -15.5773 N   0  0  0  0  0  0  0  0  0  0  0  0
   27.5043  -21.1261  -16.5310 C   0  0  0  0  0  0  0  0  0  0  0  0
   28.2823  -20.2114  -16.8826 O   0  0  0  0  0  0  0  0  0  0  0  0
   27.6192  -22.4880  -17.1017 C   0  0  0  0  0  0  0  0  0  0  0  0
   26.5619  -23.3792  -16.4658 C   0  0  0  0  0  0  0  0  0  0  0  0
   26.6294  -24.7802  -17.0203 C   0  0  2  0  0  0  0  0  0  0  0  0
   26.2038  -24.8094  -18.4214 N   0  0  0  0  0  0  0  0  0  0  0  0
   25.8278  -25.7356  -16.2131 C   0  0  0  0  0  0  0  0  0  0  0  0
   26.0865  -25.9721  -15.0085 O   0  0  0  0  0  0  0  0  0  0  0  0
   24.7372  -26.3984  -16.8286 N   0  0  0  0  0  0  0  0  0  0  0  0
   23.8784  -27.3575  -16.1674 C   0  0  1  0  0  0  0  0  0  0  0  0
   22.5310  -26.7455  -15.8415 C   0  0  0  0  0  0  0  0  0  0  0  0
   21.3145  -27.9552  -15.3186 S   0  0  0  0  0  0  0  0  0  0  0  0
   23.7561  -28.5448  -17.0386 C   0  0  0  0  0  0  0  0  0  0  0  0
   23.3298  -28.4346  -18.2406 O   0  0  0  0  0  0  0  0  0  0  0  0
   24.0846  -29.8643  -16.6449 N   0  0  0  0  0  0  0  0  0  0  0  0
   23.8943  -31.0033  -17.5652 C   0  0  1  0  0  0  0  0  0  0  0  0
   25.2786  -31.2990  -18.0831 C   0  0  0  0  0  0  0  0  0  0  0  0
   26.1459  -31.8257  -17.0173 C   0  0  0  0  0  0  0  0  0  0  0  0
   25.7405  -32.6739  -15.9852 C   0  0  0  0  0  0  0  0  0  0  0  0
   26.7577  -33.0169  -15.2029 N   0  0  0  0  0  0  0  0  0  0  0  0
   27.8385  -32.3842  -15.7306 C   0  0  0  0  0  0  0  0  0  0  0  0
   29.1500  -32.4104  -15.2710 C   0  0  0  0  0  0  0  0  0  0  0  0
   30.0885  -31.6826  -15.9517 C   0  0  0  0  0  0  0  0  0  0  0  0
   29.7388  -30.9452  -17.0614 C   0  0  0  0  0  0  0  0  0  0  0  0
   28.4511  -30.9081  -17.5286 C   0  0  0  0  0  0  0  0  0  0  0  0
   27.4885  -31.6481  -16.8420 C   0  0  0  0  0  0  0  0  0  0  0  0
   23.1992  -32.1269  -16.9470 C   0  0  0  0  0  0  0  0  0  0  0  0
   22.9894  -32.1263  -15.5770 O   0  0  0  0  0  0  0  0  0  0  0  0
   22.7759  -33.1159  -17.5976 O   0  0  0  0  0  0  0  0  0  0  0  0
  2  3  2  0
  2  1  1  0
  4  2  1  0
  5  4  1  0
  6  5  1  0
  6  7  1  6
  8 10  1  0
  8  6  1  0
  9  8  2  0
 11 14  1  0
 11 10  1  0
 11 12  1  6
 13 12  1  0
 14 15  2  0
 16 17  1  0
 16 14  1  0
 17 28  1  0
 17 18  1  1
 19 18  1  0
 20 19  2  0
 21 22  1  0
 21 20  1  0
 22 27  2  0
 23 24  2  0
 23 22  1  0
 24 25  1  0
 25 26  2  0
 27 26  1  0
 27 19  1  0
 28 30  2  0
 28 29  1  0
M  END
$$$$
