QCW.pdb
     RDKit          3D

 30 31  0  0  1  0  0  0  0  0999 V2000
   27.1510  -16.7985  -14.2096 N   0  0  0  0  0  0  0  0  0  0  0  0
   27.4804  -16.9159  -15.5748 C   0  0  0  0  0  0  0  0  0  0  0  0
   28.1397  -16.0127  -16.1361 O   0  0  0  0  0  0  0  0  0  0  0  0
   27.0363  -18.1147  -16.3227 C   0  0  0  0  0  0  0  0  0  0  0  0
   26.2843  -19.0367  -15.3737 C   0  0  0  0  0  0  0  0  0  0  0  0
   27.1921  -20.1112  -14.8294 C   0  0  2  0  0  0  0  0  0  0  0  0
   27.7876  -20.8926  -15.9156 N   0  0  0  0  0  0  0  0  0  0  0  0
   26.4856  -21.0028  -13.8739 C   0  0  0  0  0  0  0  0  0  0  0  0
   25.9334  -22.0684  -14.2393 O   0  0  0  0  0  0  0  0  0  0  0  0
   26.4368  -20.6328  -12.5070 N   0  0  0  0  0  0  0  0  0  0  0  0
   25.6531  -21.3130  -11.4982 C   0  0  1  0  0  0  0  0  0  0  0  0
   26.3508  -21.2781  -10.1536 C   0  0  0  0  0  0  0  0  0  0  0  0
   26.1881  -19.7010   -9.3150 S   0  0  0  0  0  0  0  0  0  0  0  0
   24.3168  -20.6838  -11.4502 C   0  0  0  0  0  0  0  0  0  0  0  0
   24.1631  -19.5080  -10.9681 O   0  0  0  0  0  0  0  0  0  0  0  0
   23.1268  -21.2949  -11.9131 N   0  0  0  0  0  0  0  0  0  0  0  0
   22.2246  -20.5937  -12.8484 C   0  0  1  0  0  0  0  0  0  0  0  0
   23.1334  -20.1065  -13.9478 C   0  0  0  0  0  0  0  0  0  0  0  0
   22.3779  -19.3853  -14.9844 C   0  0  0  0  0  0  0  0  0  0  0  0
   21.3381  -18.4831  -14.7519 C   0  0  0  0  0  0  0  0  0  0  0  0
   20.8820  -17.9569  -15.8829 N   0  0  0  0  0  0  0  0  0  0  0  0
   21.6324  -18.5234  -16.8642 C   0  0  0  0  0  0  0  0  0  0  0  0
   21.5423  -18.3128  -18.2352 C   0  0  0  0  0  0  0  0  0  0  0  0
   22.3950  -19.0040  -19.0531 C   0  0  0  0  0  0  0  0  0  0  0  0
   23.3157  -19.8838  -18.5281 C   0  0  0  0  0  0  0  0  0  0  0  0
   23.4187  -20.1035  -17.1794 C   0  0  0  0  0  0  0  0  0  0  0  0
   22.5547  -19.4022  -16.3383 C   0  0  0  0  0  0  0  0  0  0  0  0
   21.0983  -21.4145  -13.2790 C   0  0  0  0  0  0  0  0  0  0  0  0
   21.3113  -22.7453  -13.6029 O   0  0  0  0  0  0  0  0  0  0  0  0
   19.9249  -20.9744  -13.3792 O   0  0  0  0  0  0  0  0  0  0  0  0
  2  3  2  0
  2  1  1  0
  4  2  1  0
  5  4  1  0
  6  5  1  0
  6  7  1  6
  8 10  1  0
  8  6  1  0
  9  8  2  0
 11 14  1  0
 11 10  1  0
 11 12  1  1
 13 12  1  0
 14 15  2  0
 16 17  1  0
 16 14  1  0
 17 28  1  0
 17 18  1  6
 19 18  1  0
 20 19  2  0
 21 22  1  0
 21 20  1  0
 22 27  2  0
 23 24  2  0
 23 22  1  0
 24 25  1  0
 25 26  2  0
 27 26  1  0
 27 19  1  0
 28 30  2  0
 28 29  1  0
M  END
$$$$
