QCW.pdb
     RDKit          3D

 30 31  0  0  1  0  0  0  0  0999 V2000
   23.8567  -16.4758  -19.3858 N   0  0  0  0  0  0  0  0  0  0  0  0
   23.3140  -15.7441  -18.3105 C   0  0  0  0  0  0  0  0  0  0  0  0
   22.7337  -14.6570  -18.5271 O   0  0  0  0  0  0  0  0  0  0  0  0
   23.4426  -16.2807  -16.9360 C   0  0  0  0  0  0  0  0  0  0  0  0
   24.2906  -17.5438  -16.9778 C   0  0  0  0  0  0  0  0  0  0  0  0
   25.4396  -17.4575  -16.0047 C   0  0  2  0  0  0  0  0  0  0  0  0
   26.2847  -16.2969  -16.2946 N   0  0  0  0  0  0  0  0  0  0  0  0
   26.2511  -18.7018  -15.9925 C   0  0  0  0  0  0  0  0  0  0  0  0
   26.4271  -19.3936  -17.0243 O   0  0  0  0  0  0  0  0  0  0  0  0
   26.8429  -19.1162  -14.7736 N   0  0  0  0  0  0  0  0  0  0  0  0
   27.6823  -20.2855  -14.6226 C   0  0  1  0  0  0  0  0  0  0  0  0
   29.0278  -19.9152  -14.0322 C   0  0  0  0  0  0  0  0  0  0  0  0
   29.3118  -18.1451  -13.9787 S   0  0  0  0  0  0  0  0  0  0  0  0
   26.9586  -21.2685  -13.7896 C   0  0  0  0  0  0  0  0  0  0  0  0
   27.4090  -22.4571  -13.6385 O   0  0  0  0  0  0  0  0  0  0  0  0
   25.7476  -21.0022  -13.1068 N   0  0  0  0  0  0  0  0  0  0  0  0
   24.9524  -22.0952  -12.5121 C   0  0  1  0  0  0  0  0  0  0  0  0
   25.7796  -22.5639  -11.3425 C   0  0  0  0  0  0  0  0  0  0  0  0
   25.9617  -21.4900  -10.3532 C   0  0  0  0  0  0  0  0  0  0  0  0
   24.9541  -20.6554   -9.8656 C   0  0  0  0  0  0  0  0  0  0  0  0
   25.4149  -19.8133   -8.9477 N   0  0  0  0  0  0  0  0  0  0  0  0
   26.7383  -20.1015   -8.8362 C   0  0  0  0  0  0  0  0  0  0  0  0
   27.6770  -19.4917   -8.0121 C   0  0  0  0  0  0  0  0  0  0  0  0
   28.9714  -19.9333   -8.0689 C   0  0  0  0  0  0  0  0  0  0  0  0
   29.3303  -20.9543   -8.9210 C   0  0  0  0  0  0  0  0  0  0  0  0
   28.4183  -21.5671   -9.7400 C   0  0  0  0  0  0  0  0  0  0  0  0
   27.0966  -21.1244   -9.6875 C   0  0  0  0  0  0  0  0  0  0  0  0
   23.5837  -21.7002  -12.1982 C   0  0  0  0  0  0  0  0  0  0  0  0
   22.6800  -22.6602  -11.7705 O   0  0  0  0  0  0  0  0  0  0  0  0
   23.1686  -20.5179  -12.2997 O   0  0  0  0  0  0  0  0  0  0  0  0
  2  3  2  0
  2  1  1  0
  4  2  1  0
  5  4  1  0
  6  5  1  0
  6  7  1  6
  8 10  1  0
  8  6  1  0
  9  8  2  0
 11 14  1  0
 11 10  1  0
 11 12  1  1
 13 12  1  0
 14 15  2  0
 16 17  1  0
 16 14  1  0
 17 28  1  0
 17 18  1  1
 19 18  1  0
 20 19  2  0
 21 22  1  0
 21 20  1  0
 22 27  2  0
 23 24  2  0
 23 22  1  0
 24 25  1  0
 25 26  2  0
 27 26  1  0
 27 19  1  0
 28 30  2  0
 28 29  1  0
M  END
$$$$
