QCW.pdb
     RDKit          3D

 30 31  0  0  1  0  0  0  0  0999 V2000
   16.6554  -16.0973  -17.6582 N   0  0  0  0  0  0  0  0  0  0  0  0
   15.4881  -16.2715  -16.8880 C   0  0  0  0  0  0  0  0  0  0  0  0
   14.6612  -17.1564  -17.2021 O   0  0  0  0  0  0  0  0  0  0  0  0
   15.2623  -15.3971  -15.7140 C   0  0  0  0  0  0  0  0  0  0  0  0
   16.4106  -14.4036  -15.6117 C   0  0  0  0  0  0  0  0  0  0  0  0
   15.9346  -13.0791  -15.0696 C   0  0  2  0  0  0  0  0  0  0  0  0
   14.4714  -13.0191  -15.0455 N   0  0  0  0  0  0  0  0  0  0  0  0
   16.4896  -11.9340  -15.8361 C   0  0  0  0  0  0  0  0  0  0  0  0
   15.9114  -11.4639  -16.8454 O   0  0  0  0  0  0  0  0  0  0  0  0
   17.7118  -11.3581  -15.4093 N   0  0  0  0  0  0  0  0  0  0  0  0
   18.3304  -10.1983  -16.0150 C   0  0  1  0  0  0  0  0  0  0  0  0
   17.4947   -8.9553  -15.7854 C   0  0  0  0  0  0  0  0  0  0  0  0
   18.3942   -7.4340  -16.0908 S   0  0  0  0  0  0  0  0  0  0  0  0
   19.6951  -10.0629  -15.4646 C   0  0  0  0  0  0  0  0  0  0  0  0
   19.8994  -10.1052  -14.2016 O   0  0  0  0  0  0  0  0  0  0  0  0
   20.8601   -9.8807  -16.2478 N   0  0  0  0  0  0  0  0  0  0  0  0
   22.1854   -9.7229  -15.6161 C   0  0  1  0  0  0  0  0  0  0  0  0
   23.0490  -10.7515  -16.3001 C   0  0  0  0  0  0  0  0  0  0  0  0
   24.4413  -10.6779  -15.8292 C   0  0  0  0  0  0  0  0  0  0  0  0
   24.9524  -11.3227  -14.7013 C   0  0  0  0  0  0  0  0  0  0  0  0
   26.2546  -11.1042  -14.5582 N   0  0  0  0  0  0  0  0  0  0  0  0
   26.5963  -10.3069  -15.6044 C   0  0  0  0  0  0  0  0  0  0  0  0
   27.8491   -9.7849  -15.9047 C   0  0  0  0  0  0  0  0  0  0  0  0
   27.9689   -8.9862  -17.0099 C   0  0  0  0  0  0  0  0  0  0  0  0
   26.8754   -8.7094  -17.8005 C   0  0  0  0  0  0  0  0  0  0  0  0
   25.6333   -9.2156  -17.5198 C   0  0  0  0  0  0  0  0  0  0  0  0
   25.5023  -10.0317  -16.3962 C   0  0  0  0  0  0  0  0  0  0  0  0
   22.6810   -8.3518  -15.6634 C   0  0  0  0  0  0  0  0  0  0  0  0
   23.4011   -7.8514  -14.5900 O   0  0  0  0  0  0  0  0  0  0  0  0
   22.4846   -7.5827  -16.6384 O   0  0  0  0  0  0  0  0  0  0  0  0
  2  3  2  0
  2  1  1  0
  4  2  1  0
  5  4  1  0
  6  5  1  0
  6  7  1  6
  8 10  1  0
  8  6  1  0
  9  8  2  0
 11 14  1  0
 11 10  1  0
 11 12  1  1
 13 12  1  0
 14 15  2  0
 16 17  1  0
 16 14  1  0
 17 28  1  0
 17 18  1  6
 19 18  1  0
 20 19  2  0
 21 22  1  0
 21 20  1  0
 22 27  2  0
 23 24  2  0
 23 22  1  0
 24 25  1  0
 25 26  2  0
 27 26  1  0
 27 19  1  0
 28 30  2  0
 28 29  1  0
M  END
$$$$
