QCW.pdb
     RDKit          3D

 30 31  0  0  1  0  0  0  0  0999 V2000
   26.7981  -14.7969  -15.9856 N   0  0  0  0  0  0  0  0  0  0  0  0
   28.0380  -15.2484  -16.4806 C   0  0  0  0  0  0  0  0  0  0  0  0
   28.8406  -14.4328  -16.9866 O   0  0  0  0  0  0  0  0  0  0  0  0
   28.3681  -16.6895  -16.3909 C   0  0  0  0  0  0  0  0  0  0  0  0
   27.2475  -17.4064  -15.6516 C   0  0  0  0  0  0  0  0  0  0  0  0
   27.1328  -18.8414  -16.1014 C   0  0  2  0  0  0  0  0  0  0  0  0
   26.9368  -18.9212  -17.5507 N   0  0  0  0  0  0  0  0  0  0  0  0
   26.0458  -19.5610  -15.3891 C   0  0  0  0  0  0  0  0  0  0  0  0
   24.8607  -19.1490  -15.3900 O   0  0  0  0  0  0  0  0  0  0  0  0
   26.3632  -20.7503  -14.6874 N   0  0  0  0  0  0  0  0  0  0  0  0
   25.4047  -21.5614  -13.9676 C   0  0  1  0  0  0  0  0  0  0  0  0
   25.4988  -23.0142  -14.3878 C   0  0  0  0  0  0  0  0  0  0  0  0
   24.4779  -24.1037  -13.3941 S   0  0  0  0  0  0  0  0  0  0  0  0
   25.6433  -21.3822  -12.5203 C   0  0  0  0  0  0  0  0  0  0  0  0
   26.8229  -21.4824  -12.0333 O   0  0  0  0  0  0  0  0  0  0  0  0
   24.6327  -21.0949  -11.5716 N   0  0  0  0  0  0  0  0  0  0  0  0
   24.9387  -21.0329  -10.1282 C   0  0  1  0  0  0  0  0  0  0  0  0
   25.8893  -19.8705   -9.9986 C   0  0  0  0  0  0  0  0  0  0  0  0
   27.1498  -20.2806   -9.3596 C   0  0  0  0  0  0  0  0  0  0  0  0
   28.1366  -21.0754   -9.9459 C   0  0  0  0  0  0  0  0  0  0  0  0
   29.1805  -21.2368   -9.1406 N   0  0  0  0  0  0  0  0  0  0  0  0
   28.8702  -20.5399   -8.0159 C   0  0  0  0  0  0  0  0  0  0  0  0
   29.6323  -20.4010   -6.8618 C   0  0  0  0  0  0  0  0  0  0  0  0
   29.1186  -19.6584   -5.8330 C   0  0  0  0  0  0  0  0  0  0  0  0
   27.8795  -19.0665   -5.9421 C   0  0  0  0  0  0  0  0  0  0  0  0
   27.1149  -19.1925   -7.0723 C   0  0  0  0  0  0  0  0  0  0  0  0
   27.6313  -19.9463   -8.1262 C   0  0  0  0  0  0  0  0  0  0  0  0
   23.7441  -20.9664   -9.2937 C   0  0  0  0  0  0  0  0  0  0  0  0
   23.8739  -21.0233   -7.9149 O   0  0  0  0  0  0  0  0  0  0  0  0
   22.5823  -20.8631   -9.7626 O   0  0  0  0  0  0  0  0  0  0  0  0
  2  3  2  0
  2  1  1  0
  4  2  1  0
  5  4  1  0
  6  5  1  0
  6  7  1  6
  8 10  1  0
  8  6  1  0
  9  8  2  0
 11 14  1  0
 11 10  1  0
 11 12  1  6
 13 12  1  0
 14 15  2  0
 16 17  1  0
 16 14  1  0
 17 28  1  0
 17 18  1  6
 19 18  1  0
 20 19  2  0
 21 22  1  0
 21 20  1  0
 22 27  2  0
 23 24  2  0
 23 22  1  0
 24 25  1  0
 25 26  2  0
 27 26  1  0
 27 19  1  0
 28 30  2  0
 28 29  1  0
M  END
$$$$
