DYF.pdb
     RDKit          3D

 32 33  0  0  1  0  0  0  0  0999 V2000
    7.6099  -22.2945   21.8309 N   0  0  0  0  0  0  0  0  0  0  0  0
    6.9957  -21.0285   21.5175 C   0  0  1  0  0  0  0  0  0  0  0  0
    5.8118  -21.1140   20.6135 C   0  0  0  0  0  0  0  0  0  0  0  0
    6.1612  -21.8195   19.3511 C   0  0  0  0  0  0  0  0  0  0  0  0
    7.1201  -21.3587   18.6769 O   0  0  0  0  0  0  0  0  0  0  0  0
    6.7309  -20.3008   22.7955 C   0  0  0  0  0  0  0  0  0  0  0  0
    5.5944  -19.8194   23.0818 O   0  0  0  0  0  0  0  0  0  0  0  0
    5.4720  -22.9128   18.9456 O   0  0  0  0  0  0  0  0  0  0  0  0
    6.6110  -24.8431   28.4041 O   0  0  0  0  0  0  0  0  0  0  0  0
    7.0544  -23.6346   27.8274 C   0  0  0  0  0  0  0  0  0  0  0  0
    6.2080  -22.5611   27.6855 C   0  0  0  0  0  0  0  0  0  0  0  0
    6.6475  -21.3867   27.1215 C   0  0  0  0  0  0  0  0  0  0  0  0
    7.9316  -21.2063   26.6705 C   0  0  0  0  0  0  0  0  0  0  0  0
    8.4633  -19.9919   26.0379 C   0  0  0  0  0  0  0  0  0  0  0  0
    7.5337  -19.3685   25.0086 C   0  0  2  0  0  0  0  0  0  0  0  0
    7.7560  -20.1110   23.7660 N   0  0  0  0  0  0  0  0  0  0  0  0
    7.7651  -17.9235   24.8613 C   0  0  0  0  0  0  0  0  0  0  0  0
    8.8633  -17.5850   24.2987 O   0  0  0  0  0  0  0  0  0  0  0  0
    8.7829  -22.3108   26.8234 C   0  0  0  0  0  0  0  0  0  0  0  0
    8.3548  -23.4991   27.3888 C   0  0  0  0  0  0  0  0  0  0  0  0
    6.8788  -16.9057   25.2887 N   0  0  0  0  0  0  0  0  0  0  0  0
    7.2090  -15.4842   25.2902 C   0  0  1  0  0  0  0  0  0  0  0  0
    6.0564  -14.6557   25.7668 C   0  0  0  0  0  0  0  0  0  0  0  0
    6.4333  -13.2494   25.8890 C   0  0  0  0  0  0  0  0  0  0  0  0
    6.3347  -12.5780   27.1053 C   0  0  0  0  0  0  0  0  0  0  0  0
    6.7102  -11.2518   27.2391 C   0  0  0  0  0  0  0  0  0  0  0  0
    7.1984  -10.5544   26.1499 C   0  0  0  0  0  0  0  0  0  0  0  0
    7.2965  -11.2037   24.9624 C   0  0  0  0  0  0  0  0  0  0  0  0
    6.9207  -12.5474   24.8120 C   0  0  0  0  0  0  0  0  0  0  0  0
    8.3613  -15.2820   26.1735 C   0  0  0  0  0  0  0  0  0  0  0  0
    9.3712  -14.4196   25.7972 O   0  0  0  0  0  0  0  0  0  0  0  0
    8.4593  -15.8707   27.2682 O   0  0  0  0  0  0  0  0  0  0  0  0
  2  1  1  1
  2  3  1  0
  3  4  1  0
  4  8  1  0
  5  4  2  0
  6  2  1  0
  6  7  2  0
  9 10  1  0
 10 20  2  0
 11 12  2  0
 11 10  1  0
 12 13  1  0
 13 14  1  0
 13 19  2  0
 15 16  1  0
 15 14  1  1
 16  6  1  0
 17 15  1  0
 18 17  2  0
 20 19  1  0
 21 17  1  0
 22 21  1  0
 23 24  1  0
 22 23  1  1
 24 25  2  0
 25 26  1  0
 27 26  2  0
 28 27  1  0
 29 28  2  0
 29 24  1  0
 30 22  1  0
 30 31  1  0
 32 30  2  0
M  END
$$$$
