DYF.pdb
     RDKit          3D

 32 33  0  0  1  0  0  0  0  0999 V2000
    9.3411  -18.0590   19.0668 N   0  0  0  0  0  0  0  0  0  0  0  0
    9.3599  -18.3739   20.4734 C   0  0  1  0  0  0  0  0  0  0  0  0
   10.1316  -19.6001   20.8300 C   0  0  0  0  0  0  0  0  0  0  0  0
    9.2943  -20.8184   20.6621 C   0  0  0  0  0  0  0  0  0  0  0  0
    8.5497  -20.8736   19.6476 O   0  0  0  0  0  0  0  0  0  0  0  0
    9.7793  -17.1536   21.2269 C   0  0  0  0  0  0  0  0  0  0  0  0
   10.9913  -16.7983   21.3268 O   0  0  0  0  0  0  0  0  0  0  0  0
    9.3328  -21.8253   21.5671 O   0  0  0  0  0  0  0  0  0  0  0  0
    7.6685  -13.2127   16.5641 O   0  0  0  0  0  0  0  0  0  0  0  0
    7.7890  -13.4047   17.9564 C   0  0  0  0  0  0  0  0  0  0  0  0
    8.5904  -12.5904   18.7204 C   0  0  0  0  0  0  0  0  0  0  0  0
    8.7034  -12.7846   20.0769 C   0  0  0  0  0  0  0  0  0  0  0  0
    8.0404  -13.7813   20.7492 C   0  0  0  0  0  0  0  0  0  0  0  0
    8.1311  -14.0621   22.1881 C   0  0  0  0  0  0  0  0  0  0  0  0
    9.2002  -15.0786   22.5574 C   0  0  2  0  0  0  0  0  0  0  0  0
    8.8248  -16.3200   21.8772 N   0  0  0  0  0  0  0  0  0  0  0  0
    9.3271  -15.2395   24.0138 C   0  0  0  0  0  0  0  0  0  0  0  0
   10.1051  -14.4131   24.6046 O   0  0  0  0  0  0  0  0  0  0  0  0
    7.2261  -14.6028   19.9554 C   0  0  0  0  0  0  0  0  0  0  0  0
    7.1027  -14.4197   18.5893 C   0  0  0  0  0  0  0  0  0  0  0  0
    8.6646  -16.2216   24.7888 N   0  0  0  0  0  0  0  0  0  0  0  0
    8.7859  -16.3352   26.2387 C   0  0  1  0  0  0  0  0  0  0  0  0
    7.4936  -16.0118   26.9224 C   0  0  0  0  0  0  0  0  0  0  0  0
    7.1808  -14.5889   26.8121 C   0  0  0  0  0  0  0  0  0  0  0  0
    6.0671  -14.1468   26.1021 C   0  0  0  0  0  0  0  0  0  0  0  0
    5.7473  -12.8026   26.0094 C   0  0  0  0  0  0  0  0  0  0  0  0
    6.5403  -11.8552   26.6296 C   0  0  0  0  0  0  0  0  0  0  0  0
    7.6267  -12.2803   27.3227 C   0  0  0  0  0  0  0  0  0  0  0  0
    7.9626  -13.6389   27.4260 C   0  0  0  0  0  0  0  0  0  0  0  0
    9.1840  -17.7091   26.5593 C   0  0  0  0  0  0  0  0  0  0  0  0
    9.5000  -18.0459   27.8601 O   0  0  0  0  0  0  0  0  0  0  0  0
    9.2462  -18.5948   25.6839 O   0  0  0  0  0  0  0  0  0  0  0  0
  2  1  1  6
  2  3  1  0
  3  4  1  0
  4  8  1  0
  5  4  2  0
  6  2  1  0
  6  7  2  0
  9 10  1  0
 10 20  2  0
 11 12  2  0
 11 10  1  0
 12 13  1  0
 13 14  1  0
 13 19  2  0
 15 16  1  0
 15 14  1  1
 16  6  1  0
 17 15  1  0
 18 17  2  0
 20 19  1  0
 21 17  1  0
 22 21  1  0
 23 24  1  0
 22 23  1  1
 24 25  2  0
 25 26  1  0
 27 26  2  0
 28 27  1  0
 29 28  2  0
 29 24  1  0
 30 22  1  0
 30 31  1  0
 32 30  2  0
M  END
$$$$
