DYF.pdb
     RDKit          3D

 32 33  0  0  1  0  0  0  0  0999 V2000
    8.9425  -18.4033   20.6526 N   0  0  0  0  0  0  0  0  0  0  0  0
   10.2729  -17.8633   20.5240 C   0  0  1  0  0  0  0  0  0  0  0  0
   10.7488  -17.6993   19.1195 C   0  0  0  0  0  0  0  0  0  0  0  0
   11.0644  -19.0198   18.5112 C   0  0  0  0  0  0  0  0  0  0  0  0
   10.1056  -19.8152   18.3253 O   0  0  0  0  0  0  0  0  0  0  0  0
   10.3596  -16.6163   21.3427 C   0  0  0  0  0  0  0  0  0  0  0  0
   11.4352  -15.9587   21.4696 O   0  0  0  0  0  0  0  0  0  0  0  0
   12.3337  -19.3504   18.1736 O   0  0  0  0  0  0  0  0  0  0  0  0
    7.4700  -13.4199   16.6846 O   0  0  0  0  0  0  0  0  0  0  0  0
    7.6022  -13.5978   18.0777 C   0  0  0  0  0  0  0  0  0  0  0  0
    7.0389  -14.6782   18.7138 C   0  0  0  0  0  0  0  0  0  0  0  0
    7.1714  -14.8441   20.0723 C   0  0  0  0  0  0  0  0  0  0  0  0
    7.8588  -13.9644   20.8713 C   0  0  0  0  0  0  0  0  0  0  0  0
    8.0211  -14.0646   22.3278 C   0  0  0  0  0  0  0  0  0  0  0  0
    9.2578  -14.8342   22.7645 C   0  0  2  0  0  0  0  0  0  0  0  0
    9.2231  -16.0997   22.0283 N   0  0  0  0  0  0  0  0  0  0  0  0
    9.3037  -15.0210   24.2226 C   0  0  0  0  0  0  0  0  0  0  0  0
    9.7795  -14.0449   24.8993 O   0  0  0  0  0  0  0  0  0  0  0  0
    8.4284  -12.8680   20.2068 C   0  0  0  0  0  0  0  0  0  0  0  0
    8.3032  -12.6875   18.8406 C   0  0  0  0  0  0  0  0  0  0  0  0
    8.8686  -16.1779   24.9128 N   0  0  0  0  0  0  0  0  0  0  0  0
    9.0391  -16.3843   26.3474 C   0  0  1  0  0  0  0  0  0  0  0  0
    7.7774  -16.0860   27.0964 C   0  0  0  0  0  0  0  0  0  0  0  0
    7.4909  -14.6533   27.0967 C   0  0  0  0  0  0  0  0  0  0  0  0
    8.3550  -13.7437   27.7015 C   0  0  0  0  0  0  0  0  0  0  0  0
    8.1060  -12.3816   27.6886 C   0  0  0  0  0  0  0  0  0  0  0  0
    6.9754  -11.8875   27.0652 C   0  0  0  0  0  0  0  0  0  0  0  0
    6.1299  -12.7693   26.4744 C   0  0  0  0  0  0  0  0  0  0  0  0
    6.3696  -14.1520   26.4787 C   0  0  0  0  0  0  0  0  0  0  0  0
    9.4253  -17.7813   26.5669 C   0  0  0  0  0  0  0  0  0  0  0  0
    9.6969  -18.2252   27.8454 O   0  0  0  0  0  0  0  0  0  0  0  0
    9.5167  -18.5921   25.6241 O   0  0  0  0  0  0  0  0  0  0  0  0
  2  1  1  6
  2  3  1  0
  3  4  1  0
  4  8  1  0
  5  4  2  0
  6  2  1  0
  6  7  2  0
  9 10  1  0
 10 20  2  0
 11 12  2  0
 11 10  1  0
 12 13  1  0
 13 14  1  0
 13 19  2  0
 15 16  1  0
 15 14  1  1
 16  6  1  0
 17 15  1  0
 18 17  2  0
 20 19  1  0
 21 17  1  0
 22 21  1  0
 23 24  1  0
 22 23  1  1
 24 25  2  0
 25 26  1  0
 27 26  2  0
 28 27  1  0
 29 28  2  0
 29 24  1  0
 30 22  1  0
 30 31  1  0
 32 30  2  0
M  END
$$$$
