DYF.pdb
     RDKit          3D

 32 33  0  0  1  0  0  0  0  0999 V2000
    8.4081  -16.4967   19.4563 N   0  0  0  0  0  0  0  0  0  0  0  0
    8.1516  -15.2059   20.0447 C   0  0  1  0  0  0  0  0  0  0  0  0
    7.3552  -14.2763   19.1917 C   0  0  0  0  0  0  0  0  0  0  0  0
    7.9720  -14.1359   17.8451 C   0  0  0  0  0  0  0  0  0  0  0  0
    8.9504  -14.8822   17.5762 O   0  0  0  0  0  0  0  0  0  0  0  0
    7.5825  -15.4123   21.4109 C   0  0  0  0  0  0  0  0  0  0  0  0
    6.9871  -14.4921   22.0464 O   0  0  0  0  0  0  0  0  0  0  0  0
    7.4984  -13.2391   16.9475 O   0  0  0  0  0  0  0  0  0  0  0  0
    2.2701  -19.2430   19.8035 O   0  0  0  0  0  0  0  0  0  0  0  0
    3.3318  -19.0203   20.7052 C   0  0  0  0  0  0  0  0  0  0  0  0
    3.1026  -18.5209   21.9650 C   0  0  0  0  0  0  0  0  0  0  0  0
    4.1429  -18.3057   22.8378 C   0  0  0  0  0  0  0  0  0  0  0  0
    5.4530  -18.5676   22.5217 C   0  0  0  0  0  0  0  0  0  0  0  0
    6.6144  -18.3412   23.3920 C   0  0  0  0  0  0  0  0  0  0  0  0
    7.1140  -16.9050   23.4018 C   0  0  2  0  0  0  0  0  0  0  0  0
    7.6828  -16.6694   22.0730 N   0  0  0  0  0  0  0  0  0  0  0  0
    8.0765  -16.6642   24.4875 C   0  0  0  0  0  0  0  0  0  0  0  0
    9.2967  -16.9504   24.2301 O   0  0  0  0  0  0  0  0  0  0  0  0
    5.6697  -19.0777   21.2330 C   0  0  0  0  0  0  0  0  0  0  0  0
    4.6330  -19.2991   20.3436 C   0  0  0  0  0  0  0  0  0  0  0  0
    7.7546  -16.1504   25.7667 N   0  0  0  0  0  0  0  0  0  0  0  0
    8.7401  -15.8772   26.8078 C   0  0  1  0  0  0  0  0  0  0  0  0
    8.2899  -14.7701   27.7098 C   0  0  0  0  0  0  0  0  0  0  0  0
    7.8050  -13.6271   26.9398 C   0  0  0  0  0  0  0  0  0  0  0  0
    6.4965  -13.1690   27.0728 C   0  0  0  0  0  0  0  0  0  0  0  0
    6.0318  -12.0728   26.3655 C   0  0  0  0  0  0  0  0  0  0  0  0
    6.8708  -11.3992   25.4976 C   0  0  0  0  0  0  0  0  0  0  0  0
    8.1468  -11.8413   25.3640 C   0  0  0  0  0  0  0  0  0  0  0  0
    8.6318  -12.9499   26.0747 C   0  0  0  0  0  0  0  0  0  0  0  0
    8.9340  -17.1026   27.5886 C   0  0  0  0  0  0  0  0  0  0  0  0
    9.9409  -17.1636   28.5308 O   0  0  0  0  0  0  0  0  0  0  0  0
    8.2089  -18.1041   27.4277 O   0  0  0  0  0  0  0  0  0  0  0  0
  2  1  1  6
  2  3  1  0
  3  4  1  0
  4  8  1  0
  5  4  2  0
  6  2  1  0
  6  7  2  0
  9 10  1  0
 10 20  2  0
 11 12  2  0
 11 10  1  0
 12 13  1  0
 13 14  1  0
 13 19  2  0
 15 16  1  0
 15 14  1  6
 16  6  1  0
 17 15  1  0
 18 17  2  0
 20 19  1  0
 21 17  1  0
 22 21  1  0
 23 24  1  0
 22 23  1  1
 24 25  2  0
 25 26  1  0
 27 26  2  0
 28 27  1  0
 29 28  2  0
 29 24  1  0
 30 22  1  0
 30 31  1  0
 32 30  2  0
M  END
$$$$
