DYF.pdb
     RDKit          3D

 32 33  0  0  1  0  0  0  0  0999 V2000
    8.7499  -18.2854   19.3789 N   0  0  0  0  0  0  0  0  0  0  0  0
    8.3460  -18.1774   20.7585 C   0  0  1  0  0  0  0  0  0  0  0  0
    8.5983  -19.3959   21.5818 C   0  0  0  0  0  0  0  0  0  0  0  0
    8.1352  -20.6183   20.8714 C   0  0  0  0  0  0  0  0  0  0  0  0
    7.7121  -20.4778   19.6934 O   0  0  0  0  0  0  0  0  0  0  0  0
    8.9353  -16.9282   21.3287 C   0  0  0  0  0  0  0  0  0  0  0  0
   10.1758  -16.6756   21.2768 O   0  0  0  0  0  0  0  0  0  0  0  0
    8.1672  -21.8321   21.4716 O   0  0  0  0  0  0  0  0  0  0  0  0
    7.7217  -13.0338   16.4918 O   0  0  0  0  0  0  0  0  0  0  0  0
    7.7649  -13.1549   17.8965 C   0  0  0  0  0  0  0  0  0  0  0  0
    8.6999  -12.4761   18.6409 C   0  0  0  0  0  0  0  0  0  0  0  0
    8.7362  -12.6001   20.0098 C   0  0  0  0  0  0  0  0  0  0  0  0
    7.8627  -13.3911   20.7142 C   0  0  0  0  0  0  0  0  0  0  0  0
    7.8569  -13.5896   22.1696 C   0  0  0  0  0  0  0  0  0  0  0  0
    8.6840  -14.7762   22.6390 C   0  0  2  0  0  0  0  0  0  0  0  0
    8.1210  -15.9485   21.9657 N   0  0  0  0  0  0  0  0  0  0  0  0
    8.6836  -14.9024   24.1043 C   0  0  0  0  0  0  0  0  0  0  0  0
    8.4129  -13.8373   24.7597 O   0  0  0  0  0  0  0  0  0  0  0  0
    6.9142  -14.0761   19.9400 C   0  0  0  0  0  0  0  0  0  0  0  0
    6.8658  -13.9616   18.5618 C   0  0  0  0  0  0  0  0  0  0  0  0
    8.9554  -16.0915   24.8227 N   0  0  0  0  0  0  0  0  0  0  0  0
    8.9100  -16.1940   26.2778 C   0  0  1  0  0  0  0  0  0  0  0  0
    7.5407  -15.8948   26.8044 C   0  0  0  0  0  0  0  0  0  0  0  0
    7.3418  -14.4567   26.9687 C   0  0  0  0  0  0  0  0  0  0  0  0
    6.1374  -13.8495   26.6214 C   0  0  0  0  0  0  0  0  0  0  0  0
    5.9289  -12.4913   26.7936 C   0  0  0  0  0  0  0  0  0  0  0  0
    6.9285  -11.6962   27.3223 C   0  0  0  0  0  0  0  0  0  0  0  0
    8.1040  -12.2826   27.6624 C   0  0  0  0  0  0  0  0  0  0  0  0
    8.3294  -13.6575   27.4944 C   0  0  0  0  0  0  0  0  0  0  0  0
    9.2969  -17.5570   26.6538 C   0  0  0  0  0  0  0  0  0  0  0  0
    9.4617  -18.5177   25.6764 O   0  0  0  0  0  0  0  0  0  0  0  0
    9.4853  -17.8804   27.8431 O   0  0  0  0  0  0  0  0  0  0  0  0
  2  1  1  6
  2  3  1  0
  3  4  1  0
  4  8  1  0
  5  4  2  0
  6  2  1  0
  6  7  2  0
  9 10  1  0
 10 20  2  0
 11 12  2  0
 11 10  1  0
 12 13  1  0
 13 14  1  0
 13 19  2  0
 15 16  1  0
 15 14  1  1
 16  6  1  0
 17 15  1  0
 18 17  2  0
 20 19  1  0
 21 17  1  0
 22 21  1  0
 23 24  1  0
 22 23  1  6
 24 25  2  0
 25 26  1  0
 27 26  2  0
 28 27  1  0
 29 28  2  0
 29 24  1  0
 30 22  1  0
 30 31  1  0
 32 30  2  0
M  END
$$$$
