DYF.pdb
     RDKit          3D

 32 33  0  0  1  0  0  0  0  0999 V2000
    8.8590  -18.6455   20.9254 N   0  0  0  0  0  0  0  0  0  0  0  0
   10.0373  -17.9321   20.5004 C   0  0  1  0  0  0  0  0  0  0  0  0
   10.0730  -17.5914   19.0482 C   0  0  0  0  0  0  0  0  0  0  0  0
   10.2832  -18.8123   18.2245 C   0  0  0  0  0  0  0  0  0  0  0  0
   10.9344  -19.7565   18.7449 O   0  0  0  0  0  0  0  0  0  0  0  0
   10.2317  -16.7574   21.4033 C   0  0  0  0  0  0  0  0  0  0  0  0
   11.3771  -16.2859   21.6698 O   0  0  0  0  0  0  0  0  0  0  0  0
    9.7934  -18.9005   16.9648 O   0  0  0  0  0  0  0  0  0  0  0  0
    7.3507  -13.5980   16.6700 O   0  0  0  0  0  0  0  0  0  0  0  0
    7.5307  -13.6781   18.0668 C   0  0  0  0  0  0  0  0  0  0  0  0
    8.3399  -12.7885   18.7323 C   0  0  0  0  0  0  0  0  0  0  0  0
    8.5110  -12.8737   20.0938 C   0  0  0  0  0  0  0  0  0  0  0  0
    7.9009  -13.8297   20.8676 C   0  0  0  0  0  0  0  0  0  0  0  0
    8.0552  -13.9953   22.3189 C   0  0  0  0  0  0  0  0  0  0  0  0
    9.2605  -14.8286   22.7254 C   0  0  2  0  0  0  0  0  0  0  0  0
    9.1250  -16.1023   22.0154 N   0  0  0  0  0  0  0  0  0  0  0  0
    9.3494  -14.9930   24.1843 C   0  0  0  0  0  0  0  0  0  0  0  0
    9.7681  -13.9769   24.8395 O   0  0  0  0  0  0  0  0  0  0  0  0
    7.0777  -14.7290   20.1736 C   0  0  0  0  0  0  0  0  0  0  0  0
    6.8962  -14.6560   18.8037 C   0  0  0  0  0  0  0  0  0  0  0  0
    9.0123  -16.1690   24.8967 N   0  0  0  0  0  0  0  0  0  0  0  0
    9.0448  -16.2790   26.3515 C   0  0  1  0  0  0  0  0  0  0  0  0
    7.6920  -16.0423   26.9480 C   0  0  0  0  0  0  0  0  0  0  0  0
    7.2943  -14.6428   26.8135 C   0  0  0  0  0  0  0  0  0  0  0  0
    6.1158  -14.2858   26.1627 C   0  0  0  0  0  0  0  0  0  0  0  0
    5.7168  -12.9647   26.0487 C   0  0  0  0  0  0  0  0  0  0  0  0
    6.4929  -11.9553   26.5870 C   0  0  0  0  0  0  0  0  0  0  0  0
    7.6422  -12.2974   27.2221 C   0  0  0  0  0  0  0  0  0  0  0  0
    8.0589  -13.6317   27.3461 C   0  0  0  0  0  0  0  0  0  0  0  0
    9.5093  -17.6252   26.6994 C   0  0  0  0  0  0  0  0  0  0  0  0
    9.7027  -17.9633   28.0236 O   0  0  0  0  0  0  0  0  0  0  0  0
    9.7373  -18.4859   25.8266 O   0  0  0  0  0  0  0  0  0  0  0  0
  2  1  1  1
  2  3  1  0
  3  4  1  0
  4  8  1  0
  5  4  2  0
  6  2  1  0
  6  7  2  0
  9 10  1  0
 10 20  2  0
 11 12  2  0
 11 10  1  0
 12 13  1  0
 13 14  1  0
 13 19  2  0
 15 16  1  0
 15 14  1  1
 16  6  1  0
 17 15  1  0
 18 17  2  0
 20 19  1  0
 21 17  1  0
 22 21  1  0
 23 24  1  0
 22 23  1  6
 24 25  2  0
 25 26  1  0
 27 26  2  0
 28 27  1  0
 29 28  2  0
 29 24  1  0
 30 22  1  0
 30 31  1  0
 32 30  2  0
M  END
$$$$
