DYF.pdb
     RDKit          3D

 32 33  0  0  1  0  0  0  0  0999 V2000
   12.0300  -16.1481   20.0455 N   0  0  0  0  0  0  0  0  0  0  0  0
   11.8136  -17.1360   21.0729 C   0  0  1  0  0  0  0  0  0  0  0  0
   13.0522  -17.8016   21.5719 C   0  0  0  0  0  0  0  0  0  0  0  0
   13.6603  -18.6492   20.5111 C   0  0  0  0  0  0  0  0  0  0  0  0
   12.9535  -18.9078   19.5011 O   0  0  0  0  0  0  0  0  0  0  0  0
   10.9782  -16.5243   22.1503 C   0  0  0  0  0  0  0  0  0  0  0  0
   11.3417  -15.4934   22.7908 O   0  0  0  0  0  0  0  0  0  0  0  0
   14.9233  -19.1232   20.6311 O   0  0  0  0  0  0  0  0  0  0  0  0
    7.4468  -12.4446   18.7319 O   0  0  0  0  0  0  0  0  0  0  0  0
    7.4687  -13.4072   19.7628 C   0  0  0  0  0  0  0  0  0  0  0  0
    7.4016  -14.7512   19.4832 C   0  0  0  0  0  0  0  0  0  0  0  0
    7.4226  -15.6833   20.4937 C   0  0  0  0  0  0  0  0  0  0  0  0
    7.5098  -15.3471   21.8219 C   0  0  0  0  0  0  0  0  0  0  0  0
    7.5136  -16.2845   22.9528 C   0  0  0  0  0  0  0  0  0  0  0  0
    8.8842  -16.5048   23.5736 C   0  0  2  0  0  0  0  0  0  0  0  0
    9.7170  -17.0773   22.5138 N   0  0  0  0  0  0  0  0  0  0  0  0
    8.8158  -17.3563   24.7709 C   0  0  0  0  0  0  0  0  0  0  0  0
    8.9139  -18.6162   24.5705 O   0  0  0  0  0  0  0  0  0  0  0  0
    7.5785  -13.9718   22.0904 C   0  0  0  0  0  0  0  0  0  0  0  0
    7.5581  -13.0222   21.0841 C   0  0  0  0  0  0  0  0  0  0  0  0
    8.6528  -16.8901   26.0976 N   0  0  0  0  0  0  0  0  0  0  0  0
    8.6465  -17.7567   27.2718 C   0  0  1  0  0  0  0  0  0  0  0  0
    8.7200  -16.9617   28.5385 C   0  0  0  0  0  0  0  0  0  0  0  0
    9.1759  -15.5981   28.2791 C   0  0  0  0  0  0  0  0  0  0  0  0
    8.2861  -14.6009   27.8869 C   0  0  0  0  0  0  0  0  0  0  0  0
    8.7023  -13.2997   27.6602 C   0  0  0  0  0  0  0  0  0  0  0  0
   10.0321  -12.9574   27.8205 C   0  0  0  0  0  0  0  0  0  0  0  0
   10.9034  -13.9250   28.2024 C   0  0  0  0  0  0  0  0  0  0  0  0
   10.4961  -15.2474   28.4365 C   0  0  0  0  0  0  0  0  0  0  0  0
    7.4101  -18.5441   27.2539 C   0  0  0  0  0  0  0  0  0  0  0  0
    7.2363  -19.5692   28.1618 O   0  0  0  0  0  0  0  0  0  0  0  0
    6.4983  -18.3142   26.4351 O   0  0  0  0  0  0  0  0  0  0  0  0
  2  1  1  6
  2  3  1  0
  3  4  1  0
  4  8  1  0
  5  4  2  0
  6  2  1  0
  6  7  2  0
  9 10  1  0
 10 20  2  0
 11 12  2  0
 11 10  1  0
 12 13  1  0
 13 14  1  0
 13 19  2  0
 15 16  1  0
 15 14  1  6
 16  6  1  0
 17 15  1  0
 18 17  2  0
 20 19  1  0
 21 17  1  0
 22 21  1  0
 23 24  1  0
 22 23  1  1
 24 25  2  0
 25 26  1  0
 27 26  2  0
 28 27  1  0
 29 28  2  0
 29 24  1  0
 30 22  1  0
 30 31  1  0
 32 30  2  0
M  END
$$$$
