DYF.pdb
     RDKit          3D

 32 33  0  0  1  0  0  0  0  0999 V2000
   13.3746  -18.2730   18.8994 N   0  0  0  0  0  0  0  0  0  0  0  0
   11.9726  -17.9425   18.8416 C   0  0  1  0  0  0  0  0  0  0  0  0
   11.2434  -18.5107   17.6705 C   0  0  0  0  0  0  0  0  0  0  0  0
   11.7814  -17.9620   16.3966 C   0  0  0  0  0  0  0  0  0  0  0  0
   12.9896  -17.6062   16.3843 O   0  0  0  0  0  0  0  0  0  0  0  0
   11.3527  -18.2737   20.1603 C   0  0  0  0  0  0  0  0  0  0  0  0
   10.1274  -18.0667   20.4075 O   0  0  0  0  0  0  0  0  0  0  0  0
   10.9994  -17.8497   15.2964 O   0  0  0  0  0  0  0  0  0  0  0  0
   10.8526  -25.3251   20.9125 O   0  0  0  0  0  0  0  0  0  0  0  0
   11.2153  -24.0820   21.4719 C   0  0  0  0  0  0  0  0  0  0  0  0
   10.6005  -23.6049   22.6048 C   0  0  0  0  0  0  0  0  0  0  0  0
   10.9589  -22.3917   23.1435 C   0  0  0  0  0  0  0  0  0  0  0  0
   11.9326  -21.5894   22.6020 C   0  0  0  0  0  0  0  0  0  0  0  0
   12.3503  -20.2752   23.1080 C   0  0  0  0  0  0  0  0  0  0  0  0
   11.5550  -19.1092   22.5420 C   0  0  2  0  0  0  0  0  0  0  0  0
   12.1186  -18.8456   21.2162 N   0  0  0  0  0  0  0  0  0  0  0  0
   11.5962  -17.9341   23.4256 C   0  0  0  0  0  0  0  0  0  0  0  0
   12.6248  -17.1816   23.3118 O   0  0  0  0  0  0  0  0  0  0  0  0
   12.5508  -22.0910   21.4470 C   0  0  0  0  0  0  0  0  0  0  0  0
   12.2005  -23.3098   20.8932 C   0  0  0  0  0  0  0  0  0  0  0  0
   10.6012  -17.5863   24.3705 N   0  0  0  0  0  0  0  0  0  0  0  0
   10.7236  -16.4799   25.3143 C   0  0  1  0  0  0  0  0  0  0  0  0
    9.4296  -16.2181   26.0206 C   0  0  0  0  0  0  0  0  0  0  0  0
    9.5914  -15.2013   27.0572 C   0  0  0  0  0  0  0  0  0  0  0  0
    9.2941  -13.8633   26.8097 C   0  0  0  0  0  0  0  0  0  0  0  0
    9.4216  -12.8941   27.7906 C   0  0  0  0  0  0  0  0  0  0  0  0
    9.8544  -13.2398   29.0572 C   0  0  0  0  0  0  0  0  0  0  0  0
   10.1456  -14.5420   29.3038 C   0  0  0  0  0  0  0  0  0  0  0  0
   10.0204  -15.5351   28.3202 C   0  0  0  0  0  0  0  0  0  0  0  0
   11.7594  -16.8244   26.2928 C   0  0  0  0  0  0  0  0  0  0  0  0
   11.6936  -18.0271   26.9669 O   0  0  0  0  0  0  0  0  0  0  0  0
   12.7107  -16.0566   26.5382 O   0  0  0  0  0  0  0  0  0  0  0  0
  2  1  1  1
  2  3  1  0
  3  4  1  0
  4  8  1  0
  5  4  2  0
  6  2  1  0
  6  7  2  0
  9 10  1  0
 10 20  2  0
 11 12  2  0
 11 10  1  0
 12 13  1  0
 13 14  1  0
 13 19  2  0
 15 16  1  0
 15 14  1  1
 16  6  1  0
 17 15  1  0
 18 17  2  0
 20 19  1  0
 21 17  1  0
 22 21  1  0
 23 24  1  0
 22 23  1  1
 24 25  2  0
 25 26  1  0
 27 26  2  0
 28 27  1  0
 29 28  2  0
 29 24  1  0
 30 22  1  0
 30 31  1  0
 32 30  2  0
M  END
$$$$
