DYF.pdb
     RDKit          3D

 32 33  0  0  1  0  0  0  0  0999 V2000
   10.1818  -17.9220   18.2818 N   0  0  0  0  0  0  0  0  0  0  0  0
    8.8549  -17.3676   18.3830 C   0  0  1  0  0  0  0  0  0  0  0  0
    7.9030  -17.8262   17.3294 C   0  0  0  0  0  0  0  0  0  0  0  0
    8.4179  -17.4968   15.9730 C   0  0  0  0  0  0  0  0  0  0  0  0
    7.7125  -16.7403   15.2542 O   0  0  0  0  0  0  0  0  0  0  0  0
    8.3601  -17.5736   19.7778 C   0  0  0  0  0  0  0  0  0  0  0  0
    7.2231  -17.1688   20.1634 O   0  0  0  0  0  0  0  0  0  0  0  0
    9.5980  -17.9939   15.5317 O   0  0  0  0  0  0  0  0  0  0  0  0
    8.5122  -20.9492   28.1436 O   0  0  0  0  0  0  0  0  0  0  0  0
    8.7602  -20.5872   26.8030 C   0  0  0  0  0  0  0  0  0  0  0  0
    7.7578  -20.6088   25.8628 C   0  0  0  0  0  0  0  0  0  0  0  0
    8.0078  -20.2555   24.5578 C   0  0  0  0  0  0  0  0  0  0  0  0
    9.2459  -19.8653   24.1108 C   0  0  0  0  0  0  0  0  0  0  0  0
    9.5909  -19.4977   22.7312 C   0  0  0  0  0  0  0  0  0  0  0  0
    8.7221  -18.3959   22.1451 C   0  0  2  0  0  0  0  0  0  0  0  0
    9.1523  -18.2436   20.7536 N   0  0  0  0  0  0  0  0  0  0  0  0
    8.8227  -17.1470   22.9154 C   0  0  0  0  0  0  0  0  0  0  0  0
    9.9218  -16.5023   22.7990 O   0  0  0  0  0  0  0  0  0  0  0  0
   10.2575  -19.8476   25.0827 C   0  0  0  0  0  0  0  0  0  0  0  0
   10.0211  -20.2009   26.3996 C   0  0  0  0  0  0  0  0  0  0  0  0
    7.8126  -16.6214   23.7565 N   0  0  0  0  0  0  0  0  0  0  0  0
    7.9518  -15.3898   24.5270 C   0  0  1  0  0  0  0  0  0  0  0  0
    6.7441  -14.5163   24.3844 C   0  0  0  0  0  0  0  0  0  0  0  0
    6.8213  -13.3608   25.2751 C   0  0  0  0  0  0  0  0  0  0  0  0
    6.0432  -13.2836   26.4277 C   0  0  0  0  0  0  0  0  0  0  0  0
    6.1241  -12.2044   27.2917 C   0  0  0  0  0  0  0  0  0  0  0  0
    6.9930  -11.1631   27.0237 C   0  0  0  0  0  0  0  0  0  0  0  0
    7.7534  -11.2331   25.9020 C   0  0  0  0  0  0  0  0  0  0  0  0
    7.6829  -12.3206   25.0178 C   0  0  0  0  0  0  0  0  0  0  0  0
    8.1379  -15.7490   25.9360 C   0  0  0  0  0  0  0  0  0  0  0  0
    7.3136  -16.6904   26.5187 O   0  0  0  0  0  0  0  0  0  0  0  0
    9.0289  -15.2256   26.6337 O   0  0  0  0  0  0  0  0  0  0  0  0
  2  1  1  1
  2  3  1  0
  3  4  1  0
  4  8  1  0
  5  4  2  0
  6  2  1  0
  6  7  2  0
  9 10  1  0
 10 20  2  0
 11 12  2  0
 11 10  1  0
 12 13  1  0
 13 14  1  0
 13 19  2  0
 15 16  1  0
 15 14  1  1
 16  6  1  0
 17 15  1  0
 18 17  2  0
 20 19  1  0
 21 17  1  0
 22 21  1  0
 23 24  1  0
 22 23  1  1
 24 25  2  0
 25 26  1  0
 27 26  2  0
 28 27  1  0
 29 28  2  0
 29 24  1  0
 30 22  1  0
 30 31  1  0
 32 30  2  0
M  END
$$$$
