DYF.pdb
     RDKit          3D

 32 33  0  0  1  0  0  0  0  0999 V2000
    9.0333  -19.6610   19.6855 N   0  0  0  0  0  0  0  0  0  0  0  0
    8.9901  -18.2427   19.4309 C   0  0  1  0  0  0  0  0  0  0  0  0
    8.2902  -17.8538   18.1719 C   0  0  0  0  0  0  0  0  0  0  0  0
    9.0891  -18.2480   16.9803 C   0  0  0  0  0  0  0  0  0  0  0  0
   10.0795  -19.0023   17.1714 O   0  0  0  0  0  0  0  0  0  0  0  0
    8.4667  -17.5578   20.6515 C   0  0  0  0  0  0  0  0  0  0  0  0
    8.3555  -16.2981   20.7302 O   0  0  0  0  0  0  0  0  0  0  0  0
    8.7620  -17.8098   15.7412 O   0  0  0  0  0  0  0  0  0  0  0  0
    2.1469  -19.5832   19.8225 O   0  0  0  0  0  0  0  0  0  0  0  0
    3.2121  -19.3590   20.7197 C   0  0  0  0  0  0  0  0  0  0  0  0
    4.2084  -20.2906   20.8885 C   0  0  0  0  0  0  0  0  0  0  0  0
    5.2429  -20.0651   21.7657 C   0  0  0  0  0  0  0  0  0  0  0  0
    5.3525  -18.9215   22.5174 C   0  0  0  0  0  0  0  0  0  0  0  0
    6.4135  -18.6234   23.4885 C   0  0  0  0  0  0  0  0  0  0  0  0
    7.4712  -17.6577   22.9775 C   0  0  2  0  0  0  0  0  0  0  0  0
    8.0620  -18.2969   21.7998 N   0  0  0  0  0  0  0  0  0  0  0  0
    8.4652  -17.3324   24.0115 C   0  0  0  0  0  0  0  0  0  0  0  0
    9.3221  -18.2456   24.2741 O   0  0  0  0  0  0  0  0  0  0  0  0
    4.3285  -17.9806   22.3326 C   0  0  0  0  0  0  0  0  0  0  0  0
    3.2810  -18.1937   21.4539 C   0  0  0  0  0  0  0  0  0  0  0  0
    8.5380  -16.1087   24.7196 N   0  0  0  0  0  0  0  0  0  0  0  0
    9.6216  -15.7573   25.6319 C   0  0  1  0  0  0  0  0  0  0  0  0
    9.8924  -14.2847   25.6176 C   0  0  0  0  0  0  0  0  0  0  0  0
    8.6740  -13.5223   25.8800 C   0  0  0  0  0  0  0  0  0  0  0  0
    8.4379  -12.9433   27.1246 C   0  0  0  0  0  0  0  0  0  0  0  0
    7.2979  -12.1993   27.3787 C   0  0  0  0  0  0  0  0  0  0  0  0
    6.3541  -12.0129   26.3859 C   0  0  0  0  0  0  0  0  0  0  0  0
    6.5790  -12.5748   25.1714 C   0  0  0  0  0  0  0  0  0  0  0  0
    7.7298  -13.3304   24.8992 C   0  0  0  0  0  0  0  0  0  0  0  0
    9.2371  -16.1757   26.9832 C   0  0  0  0  0  0  0  0  0  0  0  0
    7.9760  -16.6891   27.2096 O   0  0  0  0  0  0  0  0  0  0  0  0
   10.0228  -16.0823   27.9468 O   0  0  0  0  0  0  0  0  0  0  0  0
  2  1  1  1
  2  3  1  0
  3  4  1  0
  4  8  1  0
  5  4  2  0
  6  2  1  0
  6  7  2  0
  9 10  1  0
 10 20  2  0
 11 12  2  0
 11 10  1  0
 12 13  1  0
 13 14  1  0
 13 19  2  0
 15 16  1  0
 15 14  1  1
 16  6  1  0
 17 15  1  0
 18 17  2  0
 20 19  1  0
 21 17  1  0
 22 21  1  0
 23 24  1  0
 22 23  1  1
 24 25  2  0
 25 26  1  0
 27 26  2  0
 28 27  1  0
 29 28  2  0
 29 24  1  0
 30 22  1  0
 30 31  1  0
 32 30  2  0
M  END
$$$$
