DYF.pdb
     RDKit          3D

 32 33  0  0  1  0  0  0  0  0999 V2000
   13.0048  -19.3202   19.7862 N   0  0  0  0  0  0  0  0  0  0  0  0
   13.1049  -18.1163   20.5729 C   0  0  1  0  0  0  0  0  0  0  0  0
   13.0187  -16.8486   19.7908 C   0  0  0  0  0  0  0  0  0  0  0  0
   14.2752  -16.6107   19.0306 C   0  0  0  0  0  0  0  0  0  0  0  0
   14.9373  -15.5778   19.3158 O   0  0  0  0  0  0  0  0  0  0  0  0
   12.1249  -18.2022   21.6977 C   0  0  0  0  0  0  0  0  0  0  0  0
   10.9491  -18.6481   21.5435 O   0  0  0  0  0  0  0  0  0  0  0  0
   14.6866  -17.4719   18.0697 O   0  0  0  0  0  0  0  0  0  0  0  0
   12.5918  -24.2305   24.7681 O   0  0  0  0  0  0  0  0  0  0  0  0
   12.5031  -22.8290   24.9014 C   0  0  0  0  0  0  0  0  0  0  0  0
   11.3332  -22.2242   25.2948 C   0  0  0  0  0  0  0  0  0  0  0  0
   11.2544  -20.8574   25.4215 C   0  0  0  0  0  0  0  0  0  0  0  0
   12.3123  -20.0191   25.1704 C   0  0  0  0  0  0  0  0  0  0  0  0
   12.2945  -18.5531   25.2617 C   0  0  0  0  0  0  0  0  0  0  0  0
   11.5334  -17.8689   24.1370 C   0  0  2  0  0  0  0  0  0  0  0  0
   12.4697  -17.7822   23.0143 N   0  0  0  0  0  0  0  0  0  0  0  0
   11.0073  -16.5578   24.5463 C   0  0  0  0  0  0  0  0  0  0  0  0
   11.8736  -15.6294   24.7044 O   0  0  0  0  0  0  0  0  0  0  0  0
   13.4988  -20.6519   24.7710 C   0  0  0  0  0  0  0  0  0  0  0  0
   13.5932  -22.0262   24.6387 C   0  0  0  0  0  0  0  0  0  0  0  0
    9.6422  -16.2589   24.7722 N   0  0  0  0  0  0  0  0  0  0  0  0
    9.1632  -14.9893   25.3093 C   0  0  1  0  0  0  0  0  0  0  0  0
    7.7778  -14.6815   24.8318 C   0  0  0  0  0  0  0  0  0  0  0  0
    7.2503  -13.4839   25.4816 C   0  0  0  0  0  0  0  0  0  0  0  0
    6.3401  -13.5733   26.5320 C   0  0  0  0  0  0  0  0  0  0  0  0
    5.8504  -12.4464   27.1708 C   0  0  0  0  0  0  0  0  0  0  0  0
    6.2612  -11.1880   26.7725 C   0  0  0  0  0  0  0  0  0  0  0  0
    7.1479  -11.0951   25.7496 C   0  0  0  0  0  0  0  0  0  0  0  0
    7.6533  -12.2279   25.0934 C   0  0  0  0  0  0  0  0  0  0  0  0
    9.1730  -15.0774   26.7726 C   0  0  0  0  0  0  0  0  0  0  0  0
    8.8059  -16.2554   27.3913 O   0  0  0  0  0  0  0  0  0  0  0  0
    9.5075  -14.1106   27.4853 O   0  0  0  0  0  0  0  0  0  0  0  0
  2  1  1  6
  2  3  1  0
  3  4  1  0
  4  8  1  0
  5  4  2  0
  6  2  1  0
  6  7  2  0
  9 10  1  0
 10 20  2  0
 11 12  2  0
 11 10  1  0
 12 13  1  0
 13 14  1  0
 13 19  2  0
 15 16  1  0
 15 14  1  1
 16  6  1  0
 17 15  1  0
 18 17  2  0
 20 19  1  0
 21 17  1  0
 22 21  1  0
 23 24  1  0
 22 23  1  6
 24 25  2  0
 25 26  1  0
 27 26  2  0
 28 27  1  0
 29 28  2  0
 29 24  1  0
 30 22  1  0
 30 31  1  0
 32 30  2  0
M  END
$$$$
