DYF.pdb
     RDKit          3D

 32 33  0  0  1  0  0  0  0  0999 V2000
    7.5650  -17.2959   19.5389 N   0  0  0  0  0  0  0  0  0  0  0  0
    8.2530  -16.2902   20.3092 C   0  0  1  0  0  0  0  0  0  0  0  0
    7.9929  -14.8855   19.8788 C   0  0  0  0  0  0  0  0  0  0  0  0
    8.4942  -14.6552   18.4971 C   0  0  0  0  0  0  0  0  0  0  0  0
    7.7391  -14.0332   17.7037 O   0  0  0  0  0  0  0  0  0  0  0  0
    7.9873  -16.5389   21.7585 C   0  0  0  0  0  0  0  0  0  0  0  0
    6.9260  -16.1517   22.3322 O   0  0  0  0  0  0  0  0  0  0  0  0
    9.7140  -15.0996   18.1110 O   0  0  0  0  0  0  0  0  0  0  0  0
    8.1220  -21.1400   29.3287 O   0  0  0  0  0  0  0  0  0  0  0  0
    8.3820  -20.6278   28.0404 C   0  0  0  0  0  0  0  0  0  0  0  0
    9.6639  -20.3469   27.6316 C   0  0  0  0  0  0  0  0  0  0  0  0
    9.9091  -19.8469   26.3745 C   0  0  0  0  0  0  0  0  0  0  0  0
    8.9160  -19.5984   25.4598 C   0  0  0  0  0  0  0  0  0  0  0  0
    9.1007  -19.0446   24.1119 C   0  0  0  0  0  0  0  0  0  0  0  0
    8.6362  -17.6045   23.9618 C   0  0  2  0  0  0  0  0  0  0  0  0
    8.9257  -17.2323   22.5754 N   0  0  0  0  0  0  0  0  0  0  0  0
    9.2791  -16.7139   24.9399 C   0  0  0  0  0  0  0  0  0  0  0  0
   10.5114  -16.4426   24.7275 O   0  0  0  0  0  0  0  0  0  0  0  0
    7.6139  -19.8913   25.8920 C   0  0  0  0  0  0  0  0  0  0  0  0
    7.3516  -20.3944   27.1541 C   0  0  0  0  0  0  0  0  0  0  0  0
    8.6448  -16.1496   26.0727 N   0  0  0  0  0  0  0  0  0  0  0  0
    9.3168  -15.2859   27.0382 C   0  0  1  0  0  0  0  0  0  0  0  0
    8.3347  -14.4564   27.8060 C   0  0  0  0  0  0  0  0  0  0  0  0
    7.7452  -13.4207   26.9609 C   0  0  0  0  0  0  0  0  0  0  0  0
    6.3819  -13.4098   26.6761 C   0  0  0  0  0  0  0  0  0  0  0  0
    5.8076  -12.4208   25.8952 C   0  0  0  0  0  0  0  0  0  0  0  0
    6.5885  -11.4068   25.3726 C   0  0  0  0  0  0  0  0  0  0  0  0
    7.9175  -11.4125   25.6468 C   0  0  0  0  0  0  0  0  0  0  0  0
    8.5131  -12.4075   26.4372 C   0  0  0  0  0  0  0  0  0  0  0  0
   10.0758  -16.1341   27.9620 C   0  0  0  0  0  0  0  0  0  0  0  0
   10.0008  -17.5079   27.8508 O   0  0  0  0  0  0  0  0  0  0  0  0
   10.7968  -15.6484   28.8558 O   0  0  0  0  0  0  0  0  0  0  0  0
  2  1  1  6
  2  3  1  0
  3  4  1  0
  4  8  1  0
  5  4  2  0
  6  2  1  0
  6  7  2  0
  9 10  1  0
 10 20  2  0
 11 12  2  0
 11 10  1  0
 12 13  1  0
 13 14  1  0
 13 19  2  0
 15 16  1  0
 15 14  1  1
 16  6  1  0
 17 15  1  0
 18 17  2  0
 20 19  1  0
 21 17  1  0
 22 21  1  0
 23 24  1  0
 22 23  1  1
 24 25  2  0
 25 26  1  0
 27 26  2  0
 28 27  1  0
 29 28  2  0
 29 24  1  0
 30 22  1  0
 30 31  1  0
 32 30  2  0
M  END
$$$$
