WKV.pdb
     RDKit          3D

 31 32  0  0  1  0  0  0  0  0999 V2000
   28.6171  -20.5128   -9.6677 N   0  0  0  0  0  0  0  0  0  0  0  0
   27.2243  -20.7812   -9.5131 C   0  0  1  0  0  0  0  0  0  0  0  0
   26.5358  -19.8386   -8.5507 C   0  0  0  0  0  0  0  0  0  0  0  0
   27.4610  -19.5971   -7.4217 C   0  0  0  0  0  0  0  0  0  0  0  0
   28.4206  -18.6024   -7.3775 C   0  0  0  0  0  0  0  0  0  0  0  0
   29.0885  -18.6672   -6.2072 N   0  0  0  0  0  0  0  0  0  0  0  0
   28.5592  -19.6995   -5.5028 C   0  0  0  0  0  0  0  0  0  0  0  0
   28.8346  -20.2288   -4.2524 C   0  0  0  0  0  0  0  0  0  0  0  0
   28.1270  -21.3203   -3.7362 C   0  0  0  0  0  0  0  0  0  0  0  0
   27.1301  -21.8710   -4.5120 C   0  0  0  0  0  0  0  0  0  0  0  0
   26.8191  -21.3742   -5.7708 C   0  0  0  0  0  0  0  0  0  0  0  0
   27.5529  -20.2872   -6.2351 C   0  0  0  0  0  0  0  0  0  0  0  0
   26.5420  -20.7781  -10.8599 C   0  0  0  0  0  0  0  0  0  0  0  0
   26.8118  -19.8262  -11.5828 O   0  0  0  0  0  0  0  0  0  0  0  0
   25.6651  -21.7773  -11.2694 N   0  0  0  0  0  0  0  0  0  0  0  0
   24.9945  -22.0559  -12.4648 C   0  0  1  0  0  0  0  0  0  0  0  0
   24.8780  -23.4015  -13.0465 C   0  0  0  0  0  0  0  0  0  0  0  0
   24.2680  -23.5763  -14.3833 C   0  0  0  0  0  0  0  0  0  0  0  0
   24.2699  -25.0767  -14.7402 C   0  0  0  0  0  0  0  0  0  0  0  0
   23.7557  -25.2506  -16.1669 C   0  0  0  0  0  0  0  0  0  0  0  0
   23.6367  -26.6458  -16.5242 N   0  0  0  0  0  0  0  0  0  0  0  0
   23.7018  -21.3012  -12.6228 C   0  0  0  0  0  0  0  0  0  0  0  0
   22.8942  -21.2048  -11.6418 O   0  0  0  0  0  0  0  0  0  0  0  0
   23.4690  -18.0340  -14.7831 C   0  0  0  0  0  0  0  0  0  0  0  0
   22.2389  -18.8845  -15.0563 C   0  0  2  0  0  0  0  0  0  0  0  0
   21.0211  -18.0320  -15.2487 C   0  0  0  0  0  0  0  0  0  0  0  0
   22.0685  -19.9037  -13.9463 C   0  0  2  0  0  0  0  0  0  0  0  0
   23.2975  -20.6633  -13.8196 N   0  0  0  0  0  0  0  0  0  0  0  0
   20.8764  -20.7515  -14.1204 C   0  0  0  0  0  0  0  0  0  0  0  0
   20.8809  -21.7152  -14.9291 O   0  0  0  0  0  0  0  0  0  0  0  0
   19.6843  -20.5614  -13.4263 O   0  0  0  0  0  0  0  0  0  0  0  0
  2  1  1  6
  3  2  1  0
  4  3  1  0
  4  5  2  0
  6  5  1  0
  7  6  1  0
  8  7  2  0
  9  8  1  0
 10  9  2  0
 10 11  1  0
 11 12  2  0
 12  7  1  0
 12  4  1  0
 13  2  1  0
 14 13  2  0
 15 13  1  0
 16 22  1  0
 16 15  1  0
 16 17  1  1
 18 17  1  0
 19 18  1  0
 20 19  1  0
 21 20  1  0
 22 28  1  0
 23 22  2  0
 25 24  1  1
 25 27  1  0
 25 26  1  0
 27 29  1  0
 27 28  1  6
 29 30  2  0
 29 31  1  0
M  END
$$$$
