WKV.pdb
     RDKit          3D

 31 32  0  0  1  0  0  0  0  0999 V2000
   28.1751  -21.2141  -12.7397 N   0  0  0  0  0  0  0  0  0  0  0  0
   27.0175  -21.4276  -11.9333 C   0  0  1  0  0  0  0  0  0  0  0  0
   26.8287  -20.3730  -10.8652 C   0  0  0  0  0  0  0  0  0  0  0  0
   27.9934  -20.4434   -9.9557 C   0  0  0  0  0  0  0  0  0  0  0  0
   29.3026  -20.6449  -10.3527 C   0  0  0  0  0  0  0  0  0  0  0  0
   30.1086  -20.6574   -9.2710 N   0  0  0  0  0  0  0  0  0  0  0  0
   29.3195  -20.4644   -8.1837 C   0  0  0  0  0  0  0  0  0  0  0  0
   29.5859  -20.3799   -6.8268 C   0  0  0  0  0  0  0  0  0  0  0  0
   28.5743  -20.1666   -5.8836 C   0  0  0  0  0  0  0  0  0  0  0  0
   27.2801  -20.0403   -6.3398 C   0  0  0  0  0  0  0  0  0  0  0  0
   26.9656  -20.1181   -7.6900 C   0  0  0  0  0  0  0  0  0  0  0  0
   28.0097  -20.3302   -8.5847 C   0  0  0  0  0  0  0  0  0  0  0  0
   25.7908  -21.5445  -12.8057 C   0  0  0  0  0  0  0  0  0  0  0  0
   25.5060  -20.5406  -13.4481 O   0  0  0  0  0  0  0  0  0  0  0  0
   25.0247  -22.7026  -12.8879 N   0  0  0  0  0  0  0  0  0  0  0  0
   23.8930  -23.0728  -13.6217 C   0  0  1  0  0  0  0  0  0  0  0  0
   23.4906  -24.4665  -13.8632 C   0  0  0  0  0  0  0  0  0  0  0  0
   22.3382  -24.7588  -14.7441 C   0  0  0  0  0  0  0  0  0  0  0  0
   22.7219  -25.9033  -15.7042 C   0  0  0  0  0  0  0  0  0  0  0  0
   21.6156  -26.0759  -16.7418 C   0  0  0  0  0  0  0  0  0  0  0  0
   20.4095  -26.6094  -16.1512 N   0  0  0  0  0  0  0  0  0  0  0  0
   22.6860  -22.2178  -13.3436 C   0  0  0  0  0  0  0  0  0  0  0  0
   22.3479  -21.9609  -12.1421 O   0  0  0  0  0  0  0  0  0  0  0  0
   20.8465  -19.7484  -16.2701 C   0  0  0  0  0  0  0  0  0  0  0  0
   20.7866  -19.5369  -14.7659 C   0  0  2  0  0  0  0  0  0  0  0  0
   21.9562  -18.7332  -14.2835 C   0  0  0  0  0  0  0  0  0  0  0  0
   20.6725  -20.8784  -14.0678 C   0  0  2  0  0  0  0  0  0  0  0  0
   21.8663  -21.6523  -14.3493 N   0  0  0  0  0  0  0  0  0  0  0  0
   19.4260  -21.5931  -14.3932 C   0  0  0  0  0  0  0  0  0  0  0  0
   19.4255  -22.5558  -15.2032 O   0  0  0  0  0  0  0  0  0  0  0  0
   18.1855  -21.2717  -13.8485 O   0  0  0  0  0  0  0  0  0  0  0  0
  2  1  1  6
  3  2  1  0
  4  3  1  0
  4  5  2  0
  6  5  1  0
  7  6  1  0
  8  7  2  0
  9  8  1  0
 10  9  2  0
 10 11  1  0
 11 12  2  0
 12  7  1  0
 12  4  1  0
 13  2  1  0
 14 13  2  0
 15 13  1  0
 16 22  1  0
 16 15  1  0
 16 17  1  1
 18 17  1  0
 19 18  1  0
 20 19  1  0
 21 20  1  0
 22 28  1  0
 23 22  2  0
 25 24  1  6
 25 27  1  0
 25 26  1  0
 27 29  1  0
 27 28  1  6
 29 30  2  0
 29 31  1  0
M  END
$$$$
