WKV.pdb
     RDKit          3D

 31 32  0  0  1  0  0  0  0  0999 V2000
   27.1888  -18.7245   -9.4155 N   0  0  0  0  0  0  0  0  0  0  0  0
   26.7037  -20.0650   -9.3556 C   0  0  1  0  0  0  0  0  0  0  0  0
   26.0688  -20.4135   -8.0274 C   0  0  0  0  0  0  0  0  0  0  0  0
   26.9900  -19.9661   -6.9598 C   0  0  0  0  0  0  0  0  0  0  0  0
   26.7611  -18.9045   -6.1037 C   0  0  0  0  0  0  0  0  0  0  0  0
   27.8026  -18.7709   -5.2569 N   0  0  0  0  0  0  0  0  0  0  0  0
   28.6967  -19.7435   -5.5681 C   0  0  0  0  0  0  0  0  0  0  0  0
   29.9303  -20.0946   -5.0444 C   0  0  0  0  0  0  0  0  0  0  0  0
   30.6732  -21.1675   -5.5501 C   0  0  0  0  0  0  0  0  0  0  0  0
   30.1434  -21.8831   -6.6018 C   0  0  0  0  0  0  0  0  0  0  0  0
   28.9111  -21.5678   -7.1588 C   0  0  0  0  0  0  0  0  0  0  0  0
   28.2141  -20.4925   -6.6172 C   0  0  0  0  0  0  0  0  0  0  0  0
   25.7522  -20.3248  -10.4987 C   0  0  0  0  0  0  0  0  0  0  0  0
   24.9915  -19.4028  -10.7683 O   0  0  0  0  0  0  0  0  0  0  0  0
   25.7260  -21.5210  -11.2083 N   0  0  0  0  0  0  0  0  0  0  0  0
   25.0280  -21.9718  -12.3334 C   0  0  1  0  0  0  0  0  0  0  0  0
   25.3559  -23.2059  -13.0629 C   0  0  0  0  0  0  0  0  0  0  0  0
   24.7372  -23.4694  -14.3810 C   0  0  0  0  0  0  0  0  0  0  0  0
   25.1807  -24.8630  -14.8707 C   0  0  0  0  0  0  0  0  0  0  0  0
   24.6688  -25.0782  -16.2926 C   0  0  0  0  0  0  0  0  0  0  0  0
   25.1459  -26.3241  -16.8479 N   0  0  0  0  0  0  0  0  0  0  0  0
   23.5360  -21.8051  -12.2261 C   0  0  0  0  0  0  0  0  0  0  0  0
   22.9194  -22.2206  -11.1912 O   0  0  0  0  0  0  0  0  0  0  0  0
   21.3325  -19.1899  -14.7889 C   0  0  0  0  0  0  0  0  0  0  0  0
   21.0008  -19.5246  -13.3436 C   0  0  2  0  0  0  0  0  0  0  0  0
   21.7113  -18.6055  -12.3965 C   0  0  0  0  0  0  0  0  0  0  0  0
   21.3050  -20.9862  -13.0773 C   0  0  2  0  0  0  0  0  0  0  0  0
   22.7327  -21.1978  -13.2204 N   0  0  0  0  0  0  0  0  0  0  0  0
   20.4962  -21.9024  -13.9000 C   0  0  0  0  0  0  0  0  0  0  0  0
   20.9361  -22.3519  -14.9896 O   0  0  0  0  0  0  0  0  0  0  0  0
   19.2187  -22.3321  -13.5502 O   0  0  0  0  0  0  0  0  0  0  0  0
  2  1  1  1
  3  2  1  0
  4  3  1  0
  4  5  2  0
  6  5  1  0
  7  6  1  0
  8  7  2  0
  9  8  1  0
 10  9  2  0
 10 11  1  0
 11 12  2  0
 12  7  1  0
 12  4  1  0
 13  2  1  0
 14 13  2  0
 15 13  1  0
 16 22  1  0
 16 15  1  0
 16 17  1  1
 18 17  1  0
 19 18  1  0
 20 19  1  0
 21 20  1  0
 22 28  1  0
 23 22  2  0
 25 24  1  6
 25 27  1  0
 25 26  1  0
 27 29  1  0
 27 28  1  6
 29 30  2  0
 29 31  1  0
M  END
$$$$
