WKV.pdb
     RDKit          3D

 31 32  0  0  1  0  0  0  0  0999 V2000
   19.6284  -18.8186  -15.2296 N   0  0  0  0  0  0  0  0  0  0  0  0
   20.9976  -18.5597  -15.5362 C   0  0  1  0  0  0  0  0  0  0  0  0
   21.4714  -17.2032  -15.0629 C   0  0  0  0  0  0  0  0  0  0  0  0
   20.7851  -16.1790  -15.8806 C   0  0  0  0  0  0  0  0  0  0  0  0
   19.7189  -15.4062  -15.4585 C   0  0  0  0  0  0  0  0  0  0  0  0
   19.3359  -14.5785  -16.4525 N   0  0  0  0  0  0  0  0  0  0  0  0
   20.1536  -14.8191  -17.5087 C   0  0  0  0  0  0  0  0  0  0  0  0
   20.2364  -14.2773  -18.7812 C   0  0  0  0  0  0  0  0  0  0  0  0
   21.1945  -14.7030  -19.7082 C   0  0  0  0  0  0  0  0  0  0  0  0
   22.0725  -15.6930  -19.3234 C   0  0  0  0  0  0  0  0  0  0  0  0
   22.0271  -16.2652  -18.0591 C   0  0  0  0  0  0  0  0  0  0  0  0
   21.0555  -15.8041  -17.1764 C   0  0  0  0  0  0  0  0  0  0  0  0
   21.8705  -19.6629  -14.9879 C   0  0  0  0  0  0  0  0  0  0  0  0
   21.7485  -19.8816  -13.7884 O   0  0  0  0  0  0  0  0  0  0  0  0
   22.7573  -20.3914  -15.7738 N   0  0  0  0  0  0  0  0  0  0  0  0
   23.9945  -21.0002  -15.5389 C   0  0  1  0  0  0  0  0  0  0  0  0
   24.9123  -21.4324  -16.6035 C   0  0  0  0  0  0  0  0  0  0  0  0
   25.9640  -22.4309  -16.3096 C   0  0  0  0  0  0  0  0  0  0  0  0
   25.2983  -23.8023  -16.0753 C   0  0  0  0  0  0  0  0  0  0  0  0
   26.3844  -24.8564  -15.8764 C   0  0  0  0  0  0  0  0  0  0  0  0
   25.8213  -26.1472  -15.5524 N   0  0  0  0  0  0  0  0  0  0  0  0
   24.7629  -20.3873  -14.3991 C   0  0  0  0  0  0  0  0  0  0  0  0
   24.9326  -19.1253  -14.3482 O   0  0  0  0  0  0  0  0  0  0  0  0
   24.4009  -20.8305  -10.6923 C   0  0  0  0  0  0  0  0  0  0  0  0
   25.8658  -21.1121  -10.9855 C   0  0  2  0  0  0  0  0  0  0  0  0
   26.7489  -20.5843   -9.8955 C   0  0  0  0  0  0  0  0  0  0  0  0
   26.2272  -20.5571  -12.3498 C   0  0  2  0  0  0  0  0  0  0  0  0
   25.3319  -21.1295  -13.3368 N   0  0  0  0  0  0  0  0  0  0  0  0
   27.6510  -20.7331  -12.6848 C   0  0  0  0  0  0  0  0  0  0  0  0
   28.0390  -21.7221  -13.3586 O   0  0  0  0  0  0  0  0  0  0  0  0
   28.6522  -19.8473  -12.2952 O   0  0  0  0  0  0  0  0  0  0  0  0
  2  1  1  1
  3  2  1  0
  4  3  1  0
  4  5  2  0
  6  5  1  0
  7  6  1  0
  8  7  2  0
  9  8  1  0
 10  9  2  0
 10 11  1  0
 11 12  2  0
 12  7  1  0
 12  4  1  0
 13  2  1  0
 14 13  2  0
 15 13  1  0
 16 22  1  0
 16 15  1  0
 16 17  1  6
 18 17  1  0
 19 18  1  0
 20 19  1  0
 21 20  1  0
 22 28  1  0
 23 22  2  0
 25 24  1  1
 25 27  1  0
 25 26  1  0
 27 29  1  0
 27 28  1  6
 29 30  2  0
 29 31  1  0
M  END
$$$$
