WKV.pdb
     RDKit          3D

 31 32  0  0  1  0  0  0  0  0999 V2000
   25.0363  -17.7783  -17.7452 N   0  0  0  0  0  0  0  0  0  0  0  0
   25.5923  -17.5186  -16.4571 C   0  0  1  0  0  0  0  0  0  0  0  0
   24.8330  -16.4676  -15.6776 C   0  0  0  0  0  0  0  0  0  0  0  0
   24.9802  -15.1834  -16.3971 C   0  0  0  0  0  0  0  0  0  0  0  0
   23.9967  -14.5806  -17.1597 C   0  0  0  0  0  0  0  0  0  0  0  0
   24.4653  -13.4252  -17.6747 N   0  0  0  0  0  0  0  0  0  0  0  0
   25.7449  -13.2867  -17.2439 C   0  0  0  0  0  0  0  0  0  0  0  0
   26.7083  -12.3115  -17.4444 C   0  0  0  0  0  0  0  0  0  0  0  0
   27.9830  -12.3989  -16.8734 C   0  0  0  0  0  0  0  0  0  0  0  0
   28.2682  -13.4973  -16.0916 C   0  0  0  0  0  0  0  0  0  0  0  0
   27.3345  -14.4993  -15.8630 C   0  0  0  0  0  0  0  0  0  0  0  0
   26.0824  -14.3619  -16.4537 C   0  0  0  0  0  0  0  0  0  0  0  0
   25.7056  -18.8029  -15.6715 C   0  0  0  0  0  0  0  0  0  0  0  0
   24.7040  -19.5088  -15.6723 O   0  0  0  0  0  0  0  0  0  0  0  0
   26.8582  -19.1762  -14.9880 N   0  0  0  0  0  0  0  0  0  0  0  0
   27.1265  -20.0648  -13.9418 C   0  0  1  0  0  0  0  0  0  0  0  0
   28.4812  -20.4168  -13.4905 C   0  0  0  0  0  0  0  0  0  0  0  0
   28.9411  -20.0026  -12.1464 C   0  0  0  0  0  0  0  0  0  0  0  0
   29.4417  -21.2469  -11.3850 C   0  0  0  0  0  0  0  0  0  0  0  0
   30.0790  -20.8043  -10.0704 C   0  0  0  0  0  0  0  0  0  0  0  0
   30.6064  -21.9271   -9.3292 N   0  0  0  0  0  0  0  0  0  0  0  0
   26.2041  -19.9069  -12.7630 C   0  0  0  0  0  0  0  0  0  0  0  0
   26.0681  -18.7688  -12.2061 O   0  0  0  0  0  0  0  0  0  0  0  0
   23.0013  -22.5584  -11.9297 C   0  0  0  0  0  0  0  0  0  0  0  0
   23.1190  -21.0841  -11.5783 C   0  0  2  0  0  0  0  0  0  0  0  0
   22.7091  -20.2169  -12.7301 C   0  0  0  0  0  0  0  0  0  0  0  0
   24.5256  -20.7870  -11.0956 C   0  0  2  0  0  0  0  0  0  0  0  0
   25.4445  -20.9620  -12.2039 N   0  0  0  0  0  0  0  0  0  0  0  0
   24.9009  -21.5634   -9.9011 C   0  0  0  0  0  0  0  0  0  0  0  0
   25.7736  -22.4673   -9.9655 O   0  0  0  0  0  0  0  0  0  0  0  0
   24.3380  -21.3668   -8.6427 O   0  0  0  0  0  0  0  0  0  0  0  0
  2  1  1  6
  3  2  1  0
  4  3  1  0
  4  5  2  0
  6  5  1  0
  7  6  1  0
  8  7  2  0
  9  8  1  0
 10  9  2  0
 10 11  1  0
 11 12  2  0
 12  7  1  0
 12  4  1  0
 13  2  1  0
 14 13  2  0
 15 13  1  0
 16 22  1  0
 16 15  1  0
 16 17  1  1
 18 17  1  0
 19 18  1  0
 20 19  1  0
 21 20  1  0
 22 28  1  0
 23 22  2  0
 25 24  1  6
 25 27  1  0
 25 26  1  0
 27 29  1  0
 27 28  1  6
 29 30  2  0
 29 31  1  0
M  END
$$$$
