WKV.pdb
     RDKit          3D

 31 32  0  0  1  0  0  0  0  0999 V2000
   26.2439  -19.6025  -11.5055 N   0  0  0  0  0  0  0  0  0  0  0  0
   25.9980  -21.0004  -11.3603 C   0  0  1  0  0  0  0  0  0  0  0  0
   25.4815  -21.3786   -9.9896 C   0  0  0  0  0  0  0  0  0  0  0  0
   26.4121  -20.8123   -8.9887 C   0  0  0  0  0  0  0  0  0  0  0  0
   26.0356  -20.1012   -7.8641 C   0  0  0  0  0  0  0  0  0  0  0  0
   27.1329  -19.7305   -7.1724 N   0  0  0  0  0  0  0  0  0  0  0  0
   28.2097  -20.2023   -7.8505 C   0  0  0  0  0  0  0  0  0  0  0  0
   29.5743  -20.1347   -7.6203 C   0  0  0  0  0  0  0  0  0  0  0  0
   30.5033  -20.7202   -8.4880 C   0  0  0  0  0  0  0  0  0  0  0  0
   30.0249  -21.3789   -9.5998 C   0  0  0  0  0  0  0  0  0  0  0  0
   28.6663  -21.4722   -9.8712 C   0  0  0  0  0  0  0  0  0  0  0  0
   27.7865  -20.8732   -8.9753 C   0  0  0  0  0  0  0  0  0  0  0  0
   25.0635  -21.4791  -12.4453 C   0  0  0  0  0  0  0  0  0  0  0  0
   24.1173  -20.7389  -12.6873 O   0  0  0  0  0  0  0  0  0  0  0  0
   25.2472  -22.6739  -13.1334 N   0  0  0  0  0  0  0  0  0  0  0  0
   24.6239  -23.2706  -14.2342 C   0  0  1  0  0  0  0  0  0  0  0  0
   25.1880  -24.4039  -14.9826 C   0  0  0  0  0  0  0  0  0  0  0  0
   24.5135  -24.8870  -16.2078 C   0  0  0  0  0  0  0  0  0  0  0  0
   25.3012  -26.0877  -16.7705 C   0  0  0  0  0  0  0  0  0  0  0  0
   24.6501  -26.5447  -18.0734 C   0  0  0  0  0  0  0  0  0  0  0  0
   24.9430  -25.6400  -19.1615 N   0  0  0  0  0  0  0  0  0  0  0  0
   23.1370  -23.4371  -14.0700 C   0  0  0  0  0  0  0  0  0  0  0  0
   22.6686  -24.0061  -13.0305 O   0  0  0  0  0  0  0  0  0  0  0  0
   18.6833  -21.6751  -14.7394 C   0  0  0  0  0  0  0  0  0  0  0  0
   20.1461  -21.7056  -15.1522 C   0  0  2  0  0  0  0  0  0  0  0  0
   20.3075  -21.3735  -16.6048 C   0  0  0  0  0  0  0  0  0  0  0  0
   20.7488  -23.0493  -14.7900 C   0  0  2  0  0  0  0  0  0  0  0  0
   22.1806  -22.9923  -15.0136 N   0  0  0  0  0  0  0  0  0  0  0  0
   20.0973  -24.1773  -15.4781 C   0  0  0  0  0  0  0  0  0  0  0  0
   20.4653  -24.5332  -16.6273 O   0  0  0  0  0  0  0  0  0  0  0  0
   19.0535  -24.9184  -14.9302 O   0  0  0  0  0  0  0  0  0  0  0  0
  2  1  1  1
  3  2  1  0
  4  3  1  0
  4  5  2  0
  6  5  1  0
  7  6  1  0
  8  7  2  0
  9  8  1  0
 10  9  2  0
 10 11  1  0
 11 12  2  0
 12  7  1  0
 12  4  1  0
 13  2  1  0
 14 13  2  0
 15 13  1  0
 16 22  1  0
 16 15  1  0
 16 17  1  1
 18 17  1  0
 19 18  1  0
 20 19  1  0
 21 20  1  0
 22 28  1  0
 23 22  2  0
 25 24  1  6
 25 27  1  0
 25 26  1  0
 27 29  1  0
 27 28  1  6
 29 30  2  0
 29 31  1  0
M  END
$$$$
