WKV.pdb
     RDKit          3D

 31 32  0  0  1  0  0  0  0  0999 V2000
   28.2422  -21.8576  -13.2808 N   0  0  0  0  0  0  0  0  0  0  0  0
   27.0354  -21.7978  -12.5219 C   0  0  1  0  0  0  0  0  0  0  0  0
   26.9298  -20.5581  -11.6613 C   0  0  0  0  0  0  0  0  0  0  0  0
   28.0291  -20.6046  -10.6724 C   0  0  0  0  0  0  0  0  0  0  0  0
   29.3753  -20.6739  -10.9809 C   0  0  0  0  0  0  0  0  0  0  0  0
   30.1010  -20.7035   -9.8441 N   0  0  0  0  0  0  0  0  0  0  0  0
   29.2237  -20.6531   -8.8097 C   0  0  0  0  0  0  0  0  0  0  0  0
   29.3856  -20.6483   -7.4338 C   0  0  0  0  0  0  0  0  0  0  0  0
   28.2956  -20.5844   -6.5584 C   0  0  0  0  0  0  0  0  0  0  0  0
   27.0309  -20.5257   -7.1025 C   0  0  0  0  0  0  0  0  0  0  0  0
   26.8202  -20.5281   -8.4750 C   0  0  0  0  0  0  0  0  0  0  0  0
   27.9390  -20.5918   -9.2996 C   0  0  0  0  0  0  0  0  0  0  0  0
   25.8403  -21.9302  -13.4348 C   0  0  0  0  0  0  0  0  0  0  0  0
   25.6616  -20.9937  -14.2048 O   0  0  0  0  0  0  0  0  0  0  0  0
   24.9897  -23.0307  -13.4181 N   0  0  0  0  0  0  0  0  0  0  0  0
   23.7895  -23.3451  -14.0638 C   0  0  1  0  0  0  0  0  0  0  0  0
   23.2567  -24.7102  -14.1873 C   0  0  0  0  0  0  0  0  0  0  0  0
   22.0509  -24.9594  -15.0079 C   0  0  0  0  0  0  0  0  0  0  0  0
   22.4439  -25.8258  -16.2218 C   0  0  0  0  0  0  0  0  0  0  0  0
   21.2256  -26.0013  -17.1247 C   0  0  0  0  0  0  0  0  0  0  0  0
   20.3681  -27.0681  -16.6613 N   0  0  0  0  0  0  0  0  0  0  0  0
   22.6779  -22.3705  -13.7816 C   0  0  0  0  0  0  0  0  0  0  0  0
   22.3296  -22.1289  -12.5799 O   0  0  0  0  0  0  0  0  0  0  0  0
   20.3241  -20.2455  -16.8649 C   0  0  0  0  0  0  0  0  0  0  0  0
   20.8466  -19.6785  -15.5547 C   0  0  2  0  0  0  0  0  0  0  0  0
   22.1862  -19.0319  -15.7388 C   0  0  0  0  0  0  0  0  0  0  0  0
   20.8643  -20.7682  -14.5002 C   0  0  2  0  0  0  0  0  0  0  0  0
   21.9628  -21.6719  -14.7834 N   0  0  0  0  0  0  0  0  0  0  0  0
   19.5684  -21.4546  -14.3589 C   0  0  0  0  0  0  0  0  0  0  0  0
   19.2420  -22.3862  -15.1389 O   0  0  0  0  0  0  0  0  0  0  0  0
   18.6284  -21.1383  -13.3817 O   0  0  0  0  0  0  0  0  0  0  0  0
  2  1  1  6
  3  2  1  0
  4  3  1  0
  4  5  2  0
  6  5  1  0
  7  6  1  0
  8  7  2  0
  9  8  1  0
 10  9  2  0
 10 11  1  0
 11 12  2  0
 12  7  1  0
 12  4  1  0
 13  2  1  0
 14 13  2  0
 15 13  1  0
 16 22  1  0
 16 15  1  0
 16 17  1  1
 18 17  1  0
 19 18  1  0
 20 19  1  0
 21 20  1  0
 22 28  1  0
 23 22  2  0
 25 24  1  6
 25 27  1  0
 25 26  1  0
 27 29  1  0
 27 28  1  6
 29 30  2  0
 29 31  1  0
M  END
$$$$
