WKV.pdb
     RDKit          3D

 31 32  0  0  1  0  0  0  0  0999 V2000
   18.0999  -11.4861  -17.4801 N   0  0  0  0  0  0  0  0  0  0  0  0
   18.6049  -10.2045  -17.8523 C   0  0  1  0  0  0  0  0  0  0  0  0
   17.5211   -9.2243  -18.2438 C   0  0  0  0  0  0  0  0  0  0  0  0
   16.8685   -9.7430  -19.4660 C   0  0  0  0  0  0  0  0  0  0  0  0
   15.9006  -10.7302  -19.4940 C   0  0  0  0  0  0  0  0  0  0  0  0
   15.5254  -10.9626  -20.7688 N   0  0  0  0  0  0  0  0  0  0  0  0
   16.2497  -10.1273  -21.5561 C   0  0  0  0  0  0  0  0  0  0  0  0
   16.2892   -9.9175  -22.9249 C   0  0  0  0  0  0  0  0  0  0  0  0
   17.1405   -8.9713  -23.5066 C   0  0  0  0  0  0  0  0  0  0  0  0
   17.9570   -8.2368  -22.6742 C   0  0  0  0  0  0  0  0  0  0  0  0
   17.9518   -8.4126  -21.2969 C   0  0  0  0  0  0  0  0  0  0  0  0
   17.0854   -9.3657  -20.7711 C   0  0  0  0  0  0  0  0  0  0  0  0
   19.4707   -9.6465  -16.7485 C   0  0  0  0  0  0  0  0  0  0  0  0
   18.8780   -9.3395  -15.7209 O   0  0  0  0  0  0  0  0  0  0  0  0
   20.8469   -9.4849  -16.8706 N   0  0  0  0  0  0  0  0  0  0  0  0
   21.8515   -9.0083  -16.0222 C   0  0  1  0  0  0  0  0  0  0  0  0
   23.2041   -9.5809  -15.9487 C   0  0  0  0  0  0  0  0  0  0  0  0
   23.3790  -11.0454  -15.8296 C   0  0  0  0  0  0  0  0  0  0  0  0
   24.8799  -11.3799  -15.9487 C   0  0  0  0  0  0  0  0  0  0  0  0
   25.0702  -12.8853  -15.7819 C   0  0  0  0  0  0  0  0  0  0  0  0
   26.4482  -13.2733  -15.9786 N   0  0  0  0  0  0  0  0  0  0  0  0
   21.9112   -7.5067  -15.9399 C   0  0  0  0  0  0  0  0  0  0  0  0
   22.4022   -6.8329  -16.9037 O   0  0  0  0  0  0  0  0  0  0  0  0
   19.1510   -5.1785  -14.0529 C   0  0  0  0  0  0  0  0  0  0  0  0
   20.1645   -4.7271  -15.0922 C   0  0  2  0  0  0  0  0  0  0  0  0
   19.7114   -5.0727  -16.4785 C   0  0  0  0  0  0  0  0  0  0  0  0
   21.5256   -5.3080  -14.7611 C   0  0  2  0  0  0  0  0  0  0  0  0
   21.4449   -6.7541  -14.8358 N   0  0  0  0  0  0  0  0  0  0  0  0
   22.0635   -4.8212  -13.4788 C   0  0  0  0  0  0  0  0  0  0  0  0
   22.0686   -5.5574  -12.4587 O   0  0  0  0  0  0  0  0  0  0  0  0
   22.5933   -3.5464  -13.2967 O   0  0  0  0  0  0  0  0  0  0  0  0
  2  1  1  1
  3  2  1  0
  4  3  1  0
  4  5  2  0
  6  5  1  0
  7  6  1  0
  8  7  2  0
  9  8  1  0
 10  9  2  0
 10 11  1  0
 11 12  2  0
 12  7  1  0
 12  4  1  0
 13  2  1  0
 14 13  2  0
 15 13  1  0
 16 22  1  0
 16 15  1  0
 16 17  1  6
 18 17  1  0
 19 18  1  0
 20 19  1  0
 21 20  1  0
 22 28  1  0
 23 22  2  0
 25 24  1  1
 25 27  1  0
 25 26  1  0
 27 29  1  0
 27 28  1  1
 29 30  2  0
 29 31  1  0
M  END
$$$$
