WKV.pdb
     RDKit          3D

 31 32  0  0  1  0  0  0  0  0999 V2000
   20.9608  -18.0853  -16.8402 N   0  0  0  0  0  0  0  0  0  0  0  0
   22.1628  -17.8325  -16.1142 C   0  0  1  0  0  0  0  0  0  0  0  0
   22.1382  -16.5267  -15.3507 C   0  0  0  0  0  0  0  0  0  0  0  0
   22.2429  -15.4293  -16.3373 C   0  0  0  0  0  0  0  0  0  0  0  0
   21.2120  -14.5805  -16.6967 C   0  0  0  0  0  0  0  0  0  0  0  0
   21.6495  -13.7001  -17.6204 N   0  0  0  0  0  0  0  0  0  0  0  0
   22.9564  -13.9825  -17.8528 C   0  0  0  0  0  0  0  0  0  0  0  0
   23.9108  -13.4190  -18.6842 C   0  0  0  0  0  0  0  0  0  0  0  0
   25.2235  -13.9008  -18.7407 C   0  0  0  0  0  0  0  0  0  0  0  0
   25.5560  -14.9697  -17.9371 C   0  0  0  0  0  0  0  0  0  0  0  0
   24.6331  -15.5665  -17.0884 C   0  0  0  0  0  0  0  0  0  0  0  0
   23.3425  -15.0472  -17.0707 C   0  0  0  0  0  0  0  0  0  0  0  0
   22.4705  -18.9928  -15.1984 C   0  0  0  0  0  0  0  0  0  0  0  0
   21.7078  -19.1287  -14.2491 O   0  0  0  0  0  0  0  0  0  0  0  0
   23.5405  -19.8580  -15.4018 N   0  0  0  0  0  0  0  0  0  0  0  0
   24.1455  -20.8577  -14.6331 C   0  0  1  0  0  0  0  0  0  0  0  0
   24.6840  -22.1081  -15.1892 C   0  0  0  0  0  0  0  0  0  0  0  0
   24.1313  -23.4085  -14.7496 C   0  0  0  0  0  0  0  0  0  0  0  0
   24.8520  -24.5398  -15.5108 C   0  0  0  0  0  0  0  0  0  0  0  0
   24.2163  -25.8763  -15.1368 C   0  0  0  0  0  0  0  0  0  0  0  0
   24.6757  -26.9438  -15.9955 N   0  0  0  0  0  0  0  0  0  0  0  0
   25.0543  -20.3263  -13.5575 C   0  0  0  0  0  0  0  0  0  0  0  0
   25.8530  -19.3667  -13.8123 O   0  0  0  0  0  0  0  0  0  0  0  0
   26.3012  -19.5964   -8.9046 C   0  0  0  0  0  0  0  0  0  0  0  0
   25.3441  -20.2039   -9.9175 C   0  0  2  0  0  0  0  0  0  0  0  0
   24.7415  -21.4752   -9.4007 C   0  0  0  0  0  0  0  0  0  0  0  0
   26.0580  -20.3925  -11.2422 C   0  0  2  0  0  0  0  0  0  0  0  0
   25.0921  -20.8253  -12.2337 N   0  0  0  0  0  0  0  0  0  0  0  0
   27.2288  -21.2813  -11.1444 C   0  0  0  0  0  0  0  0  0  0  0  0
   27.1383  -22.5034  -11.4289 O   0  0  0  0  0  0  0  0  0  0  0  0
   28.4917  -20.8550  -10.7414 O   0  0  0  0  0  0  0  0  0  0  0  0
  2  1  1  1
  3  2  1  0
  4  3  1  0
  4  5  2  0
  6  5  1  0
  7  6  1  0
  8  7  2  0
  9  8  1  0
 10  9  2  0
 10 11  1  0
 11 12  2  0
 12  7  1  0
 12  4  1  0
 13  2  1  0
 14 13  2  0
 15 13  1  0
 16 22  1  0
 16 15  1  0
 16 17  1  6
 18 17  1  0
 19 18  1  0
 20 19  1  0
 21 20  1  0
 22 28  1  0
 23 22  2  0
 25 24  1  1
 25 27  1  0
 25 26  1  0
 27 29  1  0
 27 28  1  6
 29 30  2  0
 29 31  1  0
M  END
$$$$
