WKV.pdb
     RDKit          3D

 31 32  0  0  1  0  0  0  0  0999 V2000
   25.6917  -19.3035  -16.2099 N   0  0  0  0  0  0  0  0  0  0  0  0
   25.2973  -19.6652  -14.8872 C   0  0  1  0  0  0  0  0  0  0  0  0
   25.8078  -18.7128  -13.8284 C   0  0  0  0  0  0  0  0  0  0  0  0
   27.2189  -19.0626  -13.5545 C   0  0  0  0  0  0  0  0  0  0  0  0
   28.3154  -18.4941  -14.1766 C   0  0  0  0  0  0  0  0  0  0  0  0
   29.4481  -19.0443  -13.6929 N   0  0  0  0  0  0  0  0  0  0  0  0
   29.0800  -19.9624  -12.7636 C   0  0  0  0  0  0  0  0  0  0  0  0
   29.7993  -20.8198  -11.9469 C   0  0  0  0  0  0  0  0  0  0  0  0
   29.1716  -21.6886  -11.0471 C   0  0  0  0  0  0  0  0  0  0  0  0
   27.7949  -21.6754  -10.9879 C   0  0  0  0  0  0  0  0  0  0  0  0
   27.0328  -20.8336  -11.7869 C   0  0  0  0  0  0  0  0  0  0  0  0
   27.7076  -19.9895  -12.6630 C   0  0  0  0  0  0  0  0  0  0  0  0
   23.7961  -19.8075  -14.8131 C   0  0  0  0  0  0  0  0  0  0  0  0
   23.1697  -18.7546  -14.7868 O   0  0  0  0  0  0  0  0  0  0  0  0
   23.1507  -21.0392  -14.7767 N   0  0  0  0  0  0  0  0  0  0  0  0
   21.8890  -21.4664  -14.3502 C   0  0  1  0  0  0  0  0  0  0  0  0
   21.0135  -22.3511  -15.1335 C   0  0  0  0  0  0  0  0  0  0  0  0
   19.6985  -22.7566  -14.5896 C   0  0  0  0  0  0  0  0  0  0  0  0
   18.5940  -21.9473  -15.2995 C   0  0  0  0  0  0  0  0  0  0  0  0
   17.2376  -22.3384  -14.7185 C   0  0  0  0  0  0  0  0  0  0  0  0
   16.1759  -21.5068  -15.2373 N   0  0  0  0  0  0  0  0  0  0  0  0
   21.8358  -21.8318  -12.8911 C   0  0  0  0  0  0  0  0  0  0  0  0
   22.4537  -22.8627  -12.4677 O   0  0  0  0  0  0  0  0  0  0  0  0
   22.7723  -20.0252   -9.8947 C   0  0  0  0  0  0  0  0  0  0  0  0
   21.3405  -20.4432   -9.6009 C   0  0  2  0  0  0  0  0  0  0  0  0
   21.1712  -20.8267   -8.1619 C   0  0  0  0  0  0  0  0  0  0  0  0
   20.9284  -21.5498  -10.5524 C   0  0  2  0  0  0  0  0  0  0  0  0
   21.1289  -21.0916  -11.9137 N   0  0  0  0  0  0  0  0  0  0  0  0
   19.5646  -22.0474  -10.3014 C   0  0  0  0  0  0  0  0  0  0  0  0
   18.5839  -21.6011  -10.9509 O   0  0  0  0  0  0  0  0  0  0  0  0
   19.2590  -23.0214   -9.3544 O   0  0  0  0  0  0  0  0  0  0  0  0
  2  1  1  6
  3  2  1  0
  4  3  1  0
  4  5  2  0
  6  5  1  0
  7  6  1  0
  8  7  2  0
  9  8  1  0
 10  9  2  0
 10 11  1  0
 11 12  2  0
 12  7  1  0
 12  4  1  0
 13  2  1  0
 14 13  2  0
 15 13  1  0
 16 22  1  0
 16 15  1  0
 16 17  1  6
 18 17  1  0
 19 18  1  0
 20 19  1  0
 21 20  1  0
 22 28  1  0
 23 22  2  0
 25 24  1  1
 25 27  1  0
 25 26  1  0
 27 29  1  0
 27 28  1  6
 29 30  2  0
 29 31  1  0
M  END
$$$$
