WKV.pdb
     RDKit          3D

 31 32  0  0  1  0  0  0  0  0999 V2000
   28.2724  -22.1552  -12.6810 N   0  0  0  0  0  0  0  0  0  0  0  0
   27.0382  -21.6617  -12.1625 C   0  0  1  0  0  0  0  0  0  0  0  0
   27.1239  -20.2343  -11.6685 C   0  0  0  0  0  0  0  0  0  0  0  0
   28.0425  -20.2163  -10.5089 C   0  0  0  0  0  0  0  0  0  0  0  0
   29.4172  -20.3480  -10.5800 C   0  0  0  0  0  0  0  0  0  0  0  0
   29.9440  -20.2899   -9.3394 N   0  0  0  0  0  0  0  0  0  0  0  0
   28.9110  -20.1213   -8.4753 C   0  0  0  0  0  0  0  0  0  0  0  0
   28.8441  -19.9926   -7.0975 C   0  0  0  0  0  0  0  0  0  0  0  0
   27.6282  -19.8200   -6.4263 C   0  0  0  0  0  0  0  0  0  0  0  0
   26.4739  -19.7803   -7.1779 C   0  0  0  0  0  0  0  0  0  0  0  0
   26.4923  -19.9051   -8.5607 C   0  0  0  0  0  0  0  0  0  0  0  0
   27.7281  -20.0735   -9.1772 C   0  0  0  0  0  0  0  0  0  0  0  0
   25.9434  -21.8170  -13.1905 C   0  0  0  0  0  0  0  0  0  0  0  0
   25.9233  -20.9629  -14.0690 O   0  0  0  0  0  0  0  0  0  0  0  0
   25.0134  -22.8509  -13.1594 N   0  0  0  0  0  0  0  0  0  0  0  0
   23.9020  -23.1861  -13.9396 C   0  0  1  0  0  0  0  0  0  0  0  0
   23.4693  -24.5669  -14.2019 C   0  0  0  0  0  0  0  0  0  0  0  0
   22.3417  -24.8231  -15.1253 C   0  0  0  0  0  0  0  0  0  0  0  0
   22.1469  -26.3468  -15.2641 C   0  0  0  0  0  0  0  0  0  0  0  0
   21.0312  -26.6173  -16.2702 C   0  0  0  0  0  0  0  0  0  0  0  0
   20.7921  -28.0331  -16.4330 N   0  0  0  0  0  0  0  0  0  0  0  0
   22.7101  -22.2969  -13.7073 C   0  0  0  0  0  0  0  0  0  0  0  0
   22.3166  -22.0528  -12.5201 O   0  0  0  0  0  0  0  0  0  0  0  0
   22.3829  -18.9294  -15.2324 C   0  0  0  0  0  0  0  0  0  0  0  0
   21.0237  -19.5772  -15.4420 C   0  0  2  0  0  0  0  0  0  0  0  0
   19.9169  -18.5776  -15.2928 C   0  0  0  0  0  0  0  0  0  0  0  0
   20.8734  -20.7590  -14.5036 C   0  0  2  0  0  0  0  0  0  0  0  0
   21.9642  -21.6844  -14.7425 N   0  0  0  0  0  0  0  0  0  0  0  0
   19.5456  -21.3925  -14.5827 C   0  0  0  0  0  0  0  0  0  0  0  0
   19.2550  -22.1685  -15.5293 O   0  0  0  0  0  0  0  0  0  0  0  0
   18.5354  -21.1904  -13.6460 O   0  0  0  0  0  0  0  0  0  0  0  0
  2  1  1  6
  3  2  1  0
  4  3  1  0
  4  5  2  0
  6  5  1  0
  7  6  1  0
  8  7  2  0
  9  8  1  0
 10  9  2  0
 10 11  1  0
 11 12  2  0
 12  7  1  0
 12  4  1  0
 13  2  1  0
 14 13  2  0
 15 13  1  0
 16 22  1  0
 16 15  1  0
 16 17  1  1
 18 17  1  0
 19 18  1  0
 20 19  1  0
 21 20  1  0
 22 28  1  0
 23 22  2  0
 25 24  1  1
 25 27  1  0
 25 26  1  0
 27 29  1  0
 27 28  1  6
 29 30  2  0
 29 31  1  0
M  END
$$$$
