WKV.pdb
     RDKit          3D

 31 32  0  0  1  0  0  0  0  0999 V2000
   20.2356  -20.4446  -13.5246 N   0  0  0  0  0  0  0  0  0  0  0  0
   20.9812  -19.7454  -14.5201 C   0  0  1  0  0  0  0  0  0  0  0  0
   20.8351  -18.2422  -14.4324 C   0  0  0  0  0  0  0  0  0  0  0  0
   19.8244  -17.8316  -15.4316 C   0  0  0  0  0  0  0  0  0  0  0  0
   18.4634  -17.7508  -15.2007 C   0  0  0  0  0  0  0  0  0  0  0  0
   17.8350  -17.3479  -16.3244 N   0  0  0  0  0  0  0  0  0  0  0  0
   18.7893  -17.1706  -17.2730 C   0  0  0  0  0  0  0  0  0  0  0  0
   18.7405  -16.7669  -18.5974 C   0  0  0  0  0  0  0  0  0  0  0  0
   19.8937  -16.6561  -19.3826 C   0  0  0  0  0  0  0  0  0  0  0  0
   21.1047  -16.9633  -18.8011 C   0  0  0  0  0  0  0  0  0  0  0  0
   21.2021  -17.3721  -17.4777 C   0  0  0  0  0  0  0  0  0  0  0  0
   20.0248  -17.4642  -16.7422 C   0  0  0  0  0  0  0  0  0  0  0  0
   22.4333  -20.1553  -14.4652 C   0  0  0  0  0  0  0  0  0  0  0  0
   22.9818  -20.0000  -13.3805 O   0  0  0  0  0  0  0  0  0  0  0  0
   23.1177  -20.6750  -15.5590 N   0  0  0  0  0  0  0  0  0  0  0  0
   24.4398  -21.0732  -15.7821 C   0  0  1  0  0  0  0  0  0  0  0  0
   24.8298  -22.4278  -16.2012 C   0  0  0  0  0  0  0  0  0  0  0  0
   26.2590  -22.8108  -16.2198 C   0  0  0  0  0  0  0  0  0  0  0  0
   26.3788  -24.2672  -16.7129 C   0  0  0  0  0  0  0  0  0  0  0  0
   27.8555  -24.6432  -16.8036 C   0  0  0  0  0  0  0  0  0  0  0  0
   28.0322  -26.0614  -17.0168 N   0  0  0  0  0  0  0  0  0  0  0  0
   25.2687  -20.0420  -16.4996 C   0  0  0  0  0  0  0  0  0  0  0  0
   24.8436  -19.5206  -17.5819 O   0  0  0  0  0  0  0  0  0  0  0  0
   26.8411  -16.9673  -14.9850 C   0  0  0  0  0  0  0  0  0  0  0  0
   27.9462  -17.6537  -15.7715 C   0  0  2  0  0  0  0  0  0  0  0  0
   28.8548  -16.6523  -16.4184 C   0  0  0  0  0  0  0  0  0  0  0  0
   27.3360  -18.6187  -16.7697 C   0  0  2  0  0  0  0  0  0  0  0  0
   26.5304  -19.5857  -16.0491 N   0  0  0  0  0  0  0  0  0  0  0  0
   28.3357  -19.2398  -17.6558 C   0  0  0  0  0  0  0  0  0  0  0  0
   28.7101  -20.4273  -17.4758 O   0  0  0  0  0  0  0  0  0  0  0  0
   28.9296  -18.5841  -18.7311 O   0  0  0  0  0  0  0  0  0  0  0  0
  2  1  1  1
  3  2  1  0
  4  3  1  0
  4  5  2  0
  6  5  1  0
  7  6  1  0
  8  7  2  0
  9  8  1  0
 10  9  2  0
 10 11  1  0
 11 12  2  0
 12  7  1  0
 12  4  1  0
 13  2  1  0
 14 13  2  0
 15 13  1  0
 16 22  1  0
 16 15  1  0
 16 17  1  6
 18 17  1  0
 19 18  1  0
 20 19  1  0
 21 20  1  0
 22 28  1  0
 23 22  2  0
 25 24  1  6
 25 27  1  0
 25 26  1  0
 27 29  1  0
 27 28  1  1
 29 30  2  0
 29 31  1  0
M  END
$$$$
