WKV.pdb
     RDKit          3D

 31 32  0  0  1  0  0  0  0  0999 V2000
   22.4072  -18.1676  -19.5628 N   0  0  0  0  0  0  0  0  0  0  0  0
   22.8139  -17.6379  -18.3020 C   0  0  1  0  0  0  0  0  0  0  0  0
   21.6575  -17.1596  -17.4519 C   0  0  0  0  0  0  0  0  0  0  0  0
   21.0303  -16.0168  -18.1515 C   0  0  0  0  0  0  0  0  0  0  0  0
   21.6438  -14.8032  -18.4030 C   0  0  0  0  0  0  0  0  0  0  0  0
   20.7889  -13.9885  -19.0552 N   0  0  0  0  0  0  0  0  0  0  0  0
   19.6311  -14.6768  -19.2219 C   0  0  0  0  0  0  0  0  0  0  0  0
   18.4208  -14.3586  -19.8163 C   0  0  0  0  0  0  0  0  0  0  0  0
   17.3562  -15.2658  -19.8641 C   0  0  0  0  0  0  0  0  0  0  0  0
   17.5381  -16.5080  -19.2960 C   0  0  0  0  0  0  0  0  0  0  0  0
   18.7332  -16.8710  -18.6894 C   0  0  0  0  0  0  0  0  0  0  0  0
   19.7591  -15.9315  -18.6708 C   0  0  0  0  0  0  0  0  0  0  0  0
   23.6532  -18.6498  -17.5595 C   0  0  0  0  0  0  0  0  0  0  0  0
   23.0603  -19.6594  -17.1979 O   0  0  0  0  0  0  0  0  0  0  0  0
   25.0065  -18.4667  -17.2950 N   0  0  0  0  0  0  0  0  0  0  0  0
   25.9253  -19.0856  -16.4413 C   0  0  1  0  0  0  0  0  0  0  0  0
   27.3569  -18.7524  -16.3953 C   0  0  0  0  0  0  0  0  0  0  0  0
   28.2891  -19.6099  -15.6301 C   0  0  0  0  0  0  0  0  0  0  0  0
   28.3589  -20.9957  -16.3035 C   0  0  0  0  0  0  0  0  0  0  0  0
   29.2855  -21.8980  -15.4926 C   0  0  0  0  0  0  0  0  0  0  0  0
   29.1929  -23.2762  -15.9171 N   0  0  0  0  0  0  0  0  0  0  0  0
   25.3958  -19.3221  -15.0524 C   0  0  0  0  0  0  0  0  0  0  0  0
   25.0485  -18.3355  -14.3244 O   0  0  0  0  0  0  0  0  0  0  0  0
   23.4910  -22.3151  -11.6332 C   0  0  0  0  0  0  0  0  0  0  0  0
   24.1077  -22.1526  -13.0132 C   0  0  2  0  0  0  0  0  0  0  0  0
   25.0104  -23.3026  -13.3434 C   0  0  0  0  0  0  0  0  0  0  0  0
   24.8130  -20.8129  -13.1004 C   0  0  2  0  0  0  0  0  0  0  0  0
   25.2445  -20.6026  -14.4690 N   0  0  0  0  0  0  0  0  0  0  0  0
   25.9025  -20.6703  -12.1189 C   0  0  0  0  0  0  0  0  0  0  0  0
   25.6602  -20.3538  -10.9257 O   0  0  0  0  0  0  0  0  0  0  0  0
   27.2471  -20.8675  -12.4222 O   0  0  0  0  0  0  0  0  0  0  0  0
  2  1  1  6
  3  2  1  0
  4  3  1  0
  4  5  2  0
  6  5  1  0
  7  6  1  0
  8  7  2  0
  9  8  1  0
 10  9  2  0
 10 11  1  0
 11 12  2  0
 12  7  1  0
 12  4  1  0
 13  2  1  0
 14 13  2  0
 15 13  1  0
 16 22  1  0
 16 15  1  0
 16 17  1  1
 18 17  1  0
 19 18  1  0
 20 19  1  0
 21 20  1  0
 22 28  1  0
 23 22  2  0
 25 24  1  1
 25 27  1  0
 25 26  1  0
 27 29  1  0
 27 28  1  6
 29 30  2  0
 29 31  1  0
M  END
$$$$
