YDC.pdb
     RDKit          3D

 27 27  0  0  1  0  0  0  0  0999 V2000
    7.4751  -12.9847   16.0362 O   0  0  0  0  0  0  0  0  0  0  0  0
    7.5382  -13.5680   17.2933 C   0  0  0  0  0  0  0  0  0  0  0  0
    7.9106  -12.7702   18.3548 C   0  0  0  0  0  0  0  0  0  0  0  0
    7.9842  -13.3130   19.6124 C   0  0  0  0  0  0  0  0  0  0  0  0
    7.6914  -14.6309   19.8096 C   0  0  0  0  0  0  0  0  0  0  0  0
    7.7913  -15.1721   21.2008 C   0  0  0  0  0  0  0  0  0  0  0  0
    9.2341  -15.0494   21.6094 C   0  0  2  0  0  0  0  0  0  0  0  0
   10.0700  -15.7380   20.6459 N   0  0  0  0  0  0  0  0  0  0  0  0
    9.4948  -15.6285   22.9605 C   0  0  0  0  0  0  0  0  0  0  0  0
    8.7433  -15.3327   23.9508 O   0  0  0  0  0  0  0  0  0  0  0  0
    7.3196  -15.4468   18.7803 C   0  0  0  0  0  0  0  0  0  0  0  0
    7.2471  -14.8942   17.5156 C   0  0  0  0  0  0  0  0  0  0  0  0
   10.5588  -16.5190   23.2350 N   0  0  0  0  0  0  0  0  0  0  0  0
   10.8176  -17.0160   24.5514 C   0  0  1  0  0  0  0  0  0  0  0  0
   11.7984  -18.1596   24.5890 C   0  0  0  0  0  0  0  0  0  0  0  0
   11.3842  -19.3236   23.7981 C   0  0  0  0  0  0  0  0  0  0  0  0
   10.1875  -19.3988   23.4001 O   0  0  0  0  0  0  0  0  0  0  0  0
   11.1746  -15.9432   25.5130 C   0  0  0  0  0  0  0  0  0  0  0  0
   12.2315  -15.2980   25.3055 O   0  0  0  0  0  0  0  0  0  0  0  0
   12.2221  -20.3693   23.4459 O   0  0  0  0  0  0  0  0  0  0  0  0
   10.3855  -15.6375   26.6189 N   0  0  0  0  0  0  0  0  0  0  0  0
   10.7491  -14.7008   27.6706 C   0  0  1  0  0  0  0  0  0  0  0  0
   10.0094  -13.3838   27.5246 C   0  0  0  0  0  0  0  0  0  0  0  0
    8.2539  -13.7978   27.2795 S   0  0  0  0  0  0  0  0  0  0  0  0
   10.3400  -15.3071   28.9604 C   0  0  0  0  0  0  0  0  0  0  0  0
   10.6733  -14.7170   30.1688 O   0  0  0  0  0  0  0  0  0  0  0  0
    9.6754  -16.3788   29.0288 O   0  0  0  0  0  0  0  0  0  0  0  0
  2  1  1  0
  3  2  2  0
  4  3  1  0
  5 11  1  0
  5  4  2  0
  6  5  1  0
  7  6  1  0
  7  8  1  6
  9  7  1  0
  9 13  1  0
 10  9  2  0
 11 12  2  0
 12  2  1  0
 14 13  1  0
 14 18  1  0
 14 15  1  6
 16 17  2  0
 16 15  1  0
 18 19  2  0
 20 16  1  0
 21 18  1  0
 21 22  1  0
 22 23  1  6
 23 24  1  0
 25 22  1  0
 25 26  1  0
 27 25  2  0
M  END
$$$$
