YDC.pdb
     RDKit          3D

 27 27  0  0  1  0  0  0  0  0999 V2000
    7.5549  -12.6598   16.2330 O   0  0  0  0  0  0  0  0  0  0  0  0
    7.6106  -13.3486   17.4359 C   0  0  0  0  0  0  0  0  0  0  0  0
    8.3024  -12.7682   18.4783 C   0  0  0  0  0  0  0  0  0  0  0  0
    8.3789  -13.4207   19.6824 C   0  0  0  0  0  0  0  0  0  0  0  0
    7.7753  -14.6334   19.8458 C   0  0  0  0  0  0  0  0  0  0  0  0
    7.8932  -15.3028   21.1786 C   0  0  0  0  0  0  0  0  0  0  0  0
    9.1065  -16.1898   21.1105 C   0  0  2  0  0  0  0  0  0  0  0  0
    8.8944  -17.2244   20.1177 N   0  0  0  0  0  0  0  0  0  0  0  0
    9.4078  -16.8442   22.4182 C   0  0  0  0  0  0  0  0  0  0  0  0
    9.1567  -18.0842   22.5979 O   0  0  0  0  0  0  0  0  0  0  0  0
    7.0831  -15.2342   18.8342 C   0  0  0  0  0  0  0  0  0  0  0  0
    7.0094  -14.5719   17.6234 C   0  0  0  0  0  0  0  0  0  0  0  0
    9.9751  -16.1614   23.5192 N   0  0  0  0  0  0  0  0  0  0  0  0
   10.3320  -16.8321   24.7316 C   0  0  1  0  0  0  0  0  0  0  0  0
   11.2769  -17.9891   24.5324 C   0  0  0  0  0  0  0  0  0  0  0  0
   11.7053  -18.6281   25.7815 C   0  0  0  0  0  0  0  0  0  0  0  0
   10.8395  -18.8884   26.6640 O   0  0  0  0  0  0  0  0  0  0  0  0
   10.8038  -15.9021   25.7877 C   0  0  0  0  0  0  0  0  0  0  0  0
   12.0212  -15.5948   25.7969 O   0  0  0  0  0  0  0  0  0  0  0  0
   13.0140  -18.9758   26.0744 O   0  0  0  0  0  0  0  0  0  0  0  0
    9.9507  -15.3704   26.7513 N   0  0  0  0  0  0  0  0  0  0  0  0
   10.3379  -14.4043   27.7674 C   0  0  1  0  0  0  0  0  0  0  0  0
    9.3323  -13.2727   27.8729 C   0  0  0  0  0  0  0  0  0  0  0  0
    7.7760  -13.8920   27.1604 S   0  0  0  0  0  0  0  0  0  0  0  0
   10.3536  -15.1162   29.0680 C   0  0  0  0  0  0  0  0  0  0  0  0
   10.8430  -14.5088   30.2130 O   0  0  0  0  0  0  0  0  0  0  0  0
    9.9287  -16.2977   29.2028 O   0  0  0  0  0  0  0  0  0  0  0  0
  2  1  1  0
  3  2  2  0
  4  3  1  0
  5 11  1  0
  5  4  2  0
  6  5  1  0
  7  6  1  0
  7  8  1  6
  9  7  1  0
  9 13  1  0
 10  9  2  0
 11 12  2  0
 12  2  1  0
 14 13  1  0
 14 18  1  0
 14 15  1  6
 16 17  2  0
 16 15  1  0
 18 19  2  0
 20 16  1  0
 21 18  1  0
 21 22  1  0
 22 23  1  1
 23 24  1  0
 25 22  1  0
 25 26  1  0
 27 25  2  0
M  END
$$$$
