YDC.pdb
     RDKit          3D

 27 27  0  0  1  0  0  0  0  0999 V2000
   -1.4356  -21.5033   21.4907 O   0  0  0  0  0  0  0  0  0  0  0  0
   -0.0994  -21.5537   21.8602 C   0  0  0  0  0  0  0  0  0  0  0  0
    0.2768  -22.5046   22.7857 C   0  0  0  0  0  0  0  0  0  0  0  0
    1.5897  -22.5837   23.1751 C   0  0  0  0  0  0  0  0  0  0  0  0
    2.5141  -21.7282   22.6505 C   0  0  0  0  0  0  0  0  0  0  0  0
    3.9312  -21.8558   23.1129 C   0  0  0  0  0  0  0  0  0  0  0  0
    4.7268  -22.3502   21.9355 C   0  0  2  0  0  0  0  0  0  0  0  0
    4.4276  -23.7492   21.7026 N   0  0  0  0  0  0  0  0  0  0  0  0
    6.1986  -22.2098   22.1432 C   0  0  0  0  0  0  0  0  0  0  0  0
    6.8955  -23.2009   22.5493 O   0  0  0  0  0  0  0  0  0  0  0  0
    2.1741  -20.7765   21.7329 C   0  0  0  0  0  0  0  0  0  0  0  0
    0.8498  -20.7018   21.3444 C   0  0  0  0  0  0  0  0  0  0  0  0
    6.9072  -21.0076   21.9131 N   0  0  0  0  0  0  0  0  0  0  0  0
    8.3293  -20.9228   22.0447 C   0  0  1  0  0  0  0  0  0  0  0  0
    9.0061  -20.2145   20.8995 C   0  0  0  0  0  0  0  0  0  0  0  0
    8.6754  -20.7663   19.5811 C   0  0  0  0  0  0  0  0  0  0  0  0
    7.9352  -20.0974   18.8058 O   0  0  0  0  0  0  0  0  0  0  0  0
    8.7556  -20.3874   23.3617 C   0  0  0  0  0  0  0  0  0  0  0  0
    9.9871  -20.3265   23.5989 O   0  0  0  0  0  0  0  0  0  0  0  0
    9.1217  -21.9903   19.1101 O   0  0  0  0  0  0  0  0  0  0  0  0
    7.8456  -19.9587   24.3246 N   0  0  0  0  0  0  0  0  0  0  0  0
    8.2015  -19.3851   25.6130 C   0  0  1  0  0  0  0  0  0  0  0  0
    7.1564  -18.3935   26.0897 C   0  0  0  0  0  0  0  0  0  0  0  0
    6.8825  -17.2275   24.7191 S   0  0  0  0  0  0  0  0  0  0  0  0
    8.2474  -20.4976   26.5922 C   0  0  0  0  0  0  0  0  0  0  0  0
    8.6892  -20.2942   27.8895 O   0  0  0  0  0  0  0  0  0  0  0  0
    7.8923  -21.6744   26.3031 O   0  0  0  0  0  0  0  0  0  0  0  0
  2  1  1  0
  3  2  2  0
  4  3  1  0
  5 11  1  0
  5  4  2  0
  6  5  1  0
  7  6  1  0
  7  8  1  1
  9  7  1  0
  9 13  1  0
 10  9  2  0
 11 12  2  0
 12  2  1  0
 14 13  1  0
 14 18  1  0
 14 15  1  6
 16 17  2  0
 16 15  1  0
 18 19  2  0
 20 16  1  0
 21 18  1  0
 21 22  1  0
 22 23  1  1
 23 24  1  0
 25 22  1  0
 25 26  1  0
 27 25  2  0
M  END
$$$$
