YDC.pdb
     RDKit          3D

 27 27  0  0  1  0  0  0  0  0999 V2000
    7.3628  -12.7117   17.0161 O   0  0  0  0  0  0  0  0  0  0  0  0
    7.6516  -13.2248   18.2722 C   0  0  0  0  0  0  0  0  0  0  0  0
    6.6093  -13.3682   19.1639 C   0  0  0  0  0  0  0  0  0  0  0  0
    6.8575  -13.8719   20.4153 C   0  0  0  0  0  0  0  0  0  0  0  0
    8.1252  -14.2274   20.7733 C   0  0  0  0  0  0  0  0  0  0  0  0
    8.3403  -14.7679   22.1517 C   0  0  0  0  0  0  0  0  0  0  0  0
    8.5777  -16.2463   22.0037 C   0  0  2  0  0  0  0  0  0  0  0  0
    7.3196  -16.9136   21.7339 N   0  0  0  0  0  0  0  0  0  0  0  0
    9.1808  -16.8516   23.2279 C   0  0  0  0  0  0  0  0  0  0  0  0
    8.4661  -17.0722   24.2639 O   0  0  0  0  0  0  0  0  0  0  0  0
    9.1780  -14.0981   19.9142 C   0  0  0  0  0  0  0  0  0  0  0  0
    8.9217  -13.5901   18.6547 C   0  0  0  0  0  0  0  0  0  0  0  0
   10.5443  -17.2140   23.3277 N   0  0  0  0  0  0  0  0  0  0  0  0
   11.1452  -17.5897   24.5706 C   0  0  1  0  0  0  0  0  0  0  0  0
   12.4723  -18.2874   24.4194 C   0  0  0  0  0  0  0  0  0  0  0  0
   13.0354  -18.7734   25.6839 C   0  0  0  0  0  0  0  0  0  0  0  0
   12.2571  -19.2510   26.5570 O   0  0  0  0  0  0  0  0  0  0  0  0
   11.2116  -16.4687   25.5411 C   0  0  0  0  0  0  0  0  0  0  0  0
   11.5692  -15.3437   25.1135 O   0  0  0  0  0  0  0  0  0  0  0  0
   14.3838  -18.7488   26.0014 O   0  0  0  0  0  0  0  0  0  0  0  0
   10.8948  -16.6261   26.8879 N   0  0  0  0  0  0  0  0  0  0  0  0
   10.8354  -15.5484   27.8630 C   0  0  1  0  0  0  0  0  0  0  0  0
    9.5013  -14.8269   27.8160 C   0  0  0  0  0  0  0  0  0  0  0  0
    9.5836  -13.5002   29.0595 S   0  0  0  0  0  0  0  0  0  0  0  0
   10.9689  -16.1625   29.2061 C   0  0  0  0  0  0  0  0  0  0  0  0
   11.0480  -17.5368   29.3623 O   0  0  0  0  0  0  0  0  0  0  0  0
   11.0171  -15.4780   30.2662 O   0  0  0  0  0  0  0  0  0  0  0  0
  2  1  1  0
  3  2  2  0
  4  3  1  0
  5 11  1  0
  5  4  2  0
  6  5  1  0
  7  6  1  0
  7  8  1  1
  9  7  1  0
  9 13  1  0
 10  9  2  0
 11 12  2  0
 12  2  1  0
 14 13  1  0
 14 18  1  0
 14 15  1  6
 16 17  2  0
 16 15  1  0
 18 19  2  0
 20 16  1  0
 21 18  1  0
 21 22  1  0
 22 23  1  1
 23 24  1  0
 25 22  1  0
 25 26  1  0
 27 25  2  0
M  END
$$$$
