YDC.pdb
     RDKit          3D

 27 27  0  0  1  0  0  0  0  0999 V2000
    6.4710  -12.5617   18.3101 O   0  0  0  0  0  0  0  0  0  0  0  0
    7.6271  -13.2737   18.5951 C   0  0  0  0  0  0  0  0  0  0  0  0
    8.5985  -13.3410   17.6185 C   0  0  0  0  0  0  0  0  0  0  0  0
    9.7547  -14.0366   17.8648 C   0  0  0  0  0  0  0  0  0  0  0  0
    9.9405  -14.6561   19.0662 C   0  0  0  0  0  0  0  0  0  0  0  0
   11.2184  -15.4041   19.2806 C   0  0  0  0  0  0  0  0  0  0  0  0
   12.0428  -14.5856   20.2367 C   0  0  2  0  0  0  0  0  0  0  0  0
   13.2657  -14.1641   19.5827 N   0  0  0  0  0  0  0  0  0  0  0  0
   12.4039  -15.3440   21.4709 C   0  0  0  0  0  0  0  0  0  0  0  0
   13.5895  -15.7913   21.6357 O   0  0  0  0  0  0  0  0  0  0  0  0
    8.9989  -14.6082   20.0532 C   0  0  0  0  0  0  0  0  0  0  0  0
    7.8360  -13.9057   19.7992 C   0  0  0  0  0  0  0  0  0  0  0  0
   11.4893  -15.6145   22.5153 N   0  0  0  0  0  0  0  0  0  0  0  0
   11.8467  -16.3957   23.6594 C   0  0  1  0  0  0  0  0  0  0  0  0
   10.9282  -16.2046   24.8387 C   0  0  0  0  0  0  0  0  0  0  0  0
   11.3384  -16.9444   26.0373 C   0  0  0  0  0  0  0  0  0  0  0  0
   12.4318  -17.5772   26.0216 O   0  0  0  0  0  0  0  0  0  0  0  0
   12.0499  -17.8303   23.3374 C   0  0  0  0  0  0  0  0  0  0  0  0
   11.0492  -18.4976   22.9769 O   0  0  0  0  0  0  0  0  0  0  0  0
   10.6038  -17.0040   27.2104 O   0  0  0  0  0  0  0  0  0  0  0  0
   13.2958  -18.4464   23.4224 N   0  0  0  0  0  0  0  0  0  0  0  0
   13.5871  -19.8041   22.9891 C   0  0  1  0  0  0  0  0  0  0  0  0
   14.5680  -19.8215   21.8314 C   0  0  0  0  0  0  0  0  0  0  0  0
   13.7102  -20.6138   20.4350 S   0  0  0  0  0  0  0  0  0  0  0  0
   14.2246  -20.5030   24.1309 C   0  0  0  0  0  0  0  0  0  0  0  0
   13.9632  -21.8383   24.3917 O   0  0  0  0  0  0  0  0  0  0  0  0
   15.0288  -19.9292   24.9175 O   0  0  0  0  0  0  0  0  0  0  0  0
  2  1  1  0
  3  2  2  0
  4  3  1  0
  5 11  1  0
  5  4  2  0
  6  5  1  0
  7  6  1  0
  7  8  1  6
  9  7  1  0
  9 13  1  0
 10  9  2  0
 11 12  2  0
 12  2  1  0
 14 13  1  0
 14 18  1  0
 14 15  1  1
 16 17  2  0
 16 15  1  0
 18 19  2  0
 20 16  1  0
 21 18  1  0
 21 22  1  0
 22 23  1  6
 23 24  1  0
 25 22  1  0
 25 26  1  0
 27 25  2  0
M  END
$$$$
