YDC.pdb
     RDKit          3D

 27 27  0  0  1  0  0  0  0  0999 V2000
    6.7999  -12.3864   17.2105 O   0  0  0  0  0  0  0  0  0  0  0  0
    7.3635  -12.9788   18.3311 C   0  0  0  0  0  0  0  0  0  0  0  0
    6.5117  -13.4309   19.3171 C   0  0  0  0  0  0  0  0  0  0  0  0
    7.0334  -14.0217   20.4396 C   0  0  0  0  0  0  0  0  0  0  0  0
    8.3837  -14.1601   20.5781 C   0  0  0  0  0  0  0  0  0  0  0  0
    8.8992  -14.8084   21.8240 C   0  0  0  0  0  0  0  0  0  0  0  0
    9.5391  -16.1037   21.4039 C   0  0  2  0  0  0  0  0  0  0  0  0
    8.5160  -17.0221   20.9448 N   0  0  0  0  0  0  0  0  0  0  0  0
   10.2932  -16.7537   22.5165 C   0  0  0  0  0  0  0  0  0  0  0  0
    9.7183  -17.5959   23.2865 O   0  0  0  0  0  0  0  0  0  0  0  0
    9.2533  -13.7235   19.6208 C   0  0  0  0  0  0  0  0  0  0  0  0
    8.7216  -13.1291   18.4920 C   0  0  0  0  0  0  0  0  0  0  0  0
   11.6559  -16.4932   22.7911 N   0  0  0  0  0  0  0  0  0  0  0  0
   12.3419  -17.0984   23.8913 C   0  0  1  0  0  0  0  0  0  0  0  0
   13.7914  -17.4022   23.6127 C   0  0  0  0  0  0  0  0  0  0  0  0
   14.4559  -18.1574   24.6805 C   0  0  0  0  0  0  0  0  0  0  0  0
   13.8236  -19.0865   25.2578 O   0  0  0  0  0  0  0  0  0  0  0  0
   12.1624  -16.3538   25.1626 C   0  0  0  0  0  0  0  0  0  0  0  0
   12.9277  -15.3840   25.3870 O   0  0  0  0  0  0  0  0  0  0  0  0
   15.7512  -17.9258   25.1140 O   0  0  0  0  0  0  0  0  0  0  0  0
   11.1874  -16.6939   26.0969 N   0  0  0  0  0  0  0  0  0  0  0  0
   11.0571  -16.1038   27.4200 C   0  0  1  0  0  0  0  0  0  0  0  0
    9.6617  -15.5537   27.6502 C   0  0  0  0  0  0  0  0  0  0  0  0
    9.4723  -14.1314   26.5302 S   0  0  0  0  0  0  0  0  0  0  0  0
   11.2841  -17.1856   28.4084 C   0  0  0  0  0  0  0  0  0  0  0  0
   11.3392  -16.9171   29.7665 O   0  0  0  0  0  0  0  0  0  0  0  0
   11.4377  -18.3933   28.0730 O   0  0  0  0  0  0  0  0  0  0  0  0
  2  1  1  0
  3  2  2  0
  4  3  1  0
  5 11  1  0
  5  4  2  0
  6  5  1  0
  7  6  1  0
  7  8  1  1
  9  7  1  0
  9 13  1  0
 10  9  2  0
 11 12  2  0
 12  2  1  0
 14 13  1  0
 14 18  1  0
 14 15  1  6
 16 17  2  0
 16 15  1  0
 18 19  2  0
 20 16  1  0
 21 18  1  0
 21 22  1  0
 22 23  1  6
 23 24  1  0
 25 22  1  0
 25 26  1  0
 27 25  2  0
M  END
$$$$
