YDC.pdb
     RDKit          3D

 27 27  0  0  1  0  0  0  0  0999 V2000
    5.7126  -10.3164   25.9391 O   0  0  0  0  0  0  0  0  0  0  0  0
    6.1376  -11.6367   25.9146 C   0  0  0  0  0  0  0  0  0  0  0  0
    5.2915  -12.5947   26.4327 C   0  0  0  0  0  0  0  0  0  0  0  0
    5.6786  -13.9106   26.4256 C   0  0  0  0  0  0  0  0  0  0  0  0
    6.8906  -14.2670   25.9101 C   0  0  0  0  0  0  0  0  0  0  0  0
    7.2642  -15.7155   25.9308 C   0  0  0  0  0  0  0  0  0  0  0  0
    7.4726  -16.1283   24.4990 C   0  0  2  0  0  0  0  0  0  0  0  0
    6.4263  -17.0506   24.1043 N   0  0  0  0  0  0  0  0  0  0  0  0
    8.7929  -16.7910   24.2836 C   0  0  0  0  0  0  0  0  0  0  0  0
    8.9710  -18.0106   24.6209 O   0  0  0  0  0  0  0  0  0  0  0  0
    7.7504  -13.3432   25.3898 C   0  0  0  0  0  0  0  0  0  0  0  0
    7.3548  -12.0190   25.3996 C   0  0  0  0  0  0  0  0  0  0  0  0
    9.9082  -16.1383   23.7087 N   0  0  0  0  0  0  0  0  0  0  0  0
   11.2353  -16.6631   23.8100 C   0  0  1  0  0  0  0  0  0  0  0  0
   12.1351  -16.2696   22.6669 C   0  0  0  0  0  0  0  0  0  0  0  0
   13.3987  -17.0135   22.6222 C   0  0  0  0  0  0  0  0  0  0  0  0
   13.5867  -17.9507   23.4484 O   0  0  0  0  0  0  0  0  0  0  0  0
   11.8612  -16.3975   25.1294 C   0  0  0  0  0  0  0  0  0  0  0  0
   12.3556  -15.2601   25.3253 O   0  0  0  0  0  0  0  0  0  0  0  0
   14.4237  -16.7627   21.7246 O   0  0  0  0  0  0  0  0  0  0  0  0
   11.9151  -17.3562   26.1379 N   0  0  0  0  0  0  0  0  0  0  0  0
   11.7249  -17.0889   27.5549 C   0  0  1  0  0  0  0  0  0  0  0  0
   10.5059  -16.2187   27.7995 C   0  0  0  0  0  0  0  0  0  0  0  0
   11.0874  -14.7531   28.7088 S   0  0  0  0  0  0  0  0  0  0  0  0
   11.4892  -18.3926   28.2208 C   0  0  0  0  0  0  0  0  0  0  0  0
   11.1800  -19.5272   27.4884 O   0  0  0  0  0  0  0  0  0  0  0  0
   11.5557  -18.5395   29.4733 O   0  0  0  0  0  0  0  0  0  0  0  0
  2  1  1  0
  3  2  2  0
  4  3  1  0
  5 11  1  0
  5  4  2  0
  6  5  1  0
  7  6  1  0
  7  8  1  1
  9  7  1  0
  9 13  1  0
 10  9  2  0
 11 12  2  0
 12  2  1  0
 14 13  1  0
 14 18  1  0
 14 15  1  6
 16 17  2  0
 16 15  1  0
 18 19  2  0
 20 16  1  0
 21 18  1  0
 21 22  1  0
 22 23  1  6
 23 24  1  0
 25 22  1  0
 25 26  1  0
 27 25  2  0
M  END
$$$$
