YDC.pdb
     RDKit          3D

 27 27  0  0  1  0  0  0  0  0999 V2000
   10.5699  -15.1187   31.2886 O   0  0  0  0  0  0  0  0  0  0  0  0
   10.6328  -15.1679   29.9036 C   0  0  0  0  0  0  0  0  0  0  0  0
   11.2603  -16.2517   29.3261 C   0  0  0  0  0  0  0  0  0  0  0  0
   11.3418  -16.3338   27.9593 C   0  0  0  0  0  0  0  0  0  0  0  0
   10.8062  -15.3508   27.1794 C   0  0  0  0  0  0  0  0  0  0  0  0
   10.9264  -15.4886   25.6945 C   0  0  0  0  0  0  0  0  0  0  0  0
    9.6054  -16.0132   25.2010 C   0  0  2  0  0  0  0  0  0  0  0  0
    9.2603  -17.2174   25.9303 N   0  0  0  0  0  0  0  0  0  0  0  0
    9.6286  -16.3338   23.7431 C   0  0  0  0  0  0  0  0  0  0  0  0
   10.2612  -15.5857   22.9228 O   0  0  0  0  0  0  0  0  0  0  0  0
   10.1787  -14.2657   27.7199 C   0  0  0  0  0  0  0  0  0  0  0  0
   10.0996  -14.1887   29.0975 C   0  0  0  0  0  0  0  0  0  0  0  0
    8.9729  -17.4537   23.1806 N   0  0  0  0  0  0  0  0  0  0  0  0
    8.9391  -17.6892   21.7698 C   0  0  1  0  0  0  0  0  0  0  0  0
    8.7255  -19.1340   21.3982 C   0  0  0  0  0  0  0  0  0  0  0  0
    9.8123  -20.0234   21.8224 C   0  0  0  0  0  0  0  0  0  0  0  0
   10.9903  -19.5696   21.8725 O   0  0  0  0  0  0  0  0  0  0  0  0
    8.0024  -16.7854   21.0566 C   0  0  0  0  0  0  0  0  0  0  0  0
    6.8747  -17.2395   20.7427 O   0  0  0  0  0  0  0  0  0  0  0  0
    9.6431  -21.3511   22.1803 O   0  0  0  0  0  0  0  0  0  0  0  0
    8.3324  -15.4723   20.7313 N   0  0  0  0  0  0  0  0  0  0  0  0
    7.4882  -14.5629   19.9723 C   0  0  1  0  0  0  0  0  0  0  0  0
    7.4668  -13.1764   20.5888 C   0  0  0  0  0  0  0  0  0  0  0  0
    7.0818  -13.3982   22.3540 S   0  0  0  0  0  0  0  0  0  0  0  0
    8.0768  -14.4444   18.6165 C   0  0  0  0  0  0  0  0  0  0  0  0
    7.3737  -13.8564   17.5776 O   0  0  0  0  0  0  0  0  0  0  0  0
    9.2338  -14.8665   18.3371 O   0  0  0  0  0  0  0  0  0  0  0  0
  2  1  1  0
  3  2  2  0
  4  3  1  0
  5 11  1  0
  5  4  2  0
  6  5  1  0
  7  6  1  0
  7  8  1  1
  9  7  1  0
  9 13  1  0
 10  9  2  0
 11 12  2  0
 12  2  1  0
 14 13  1  0
 14 18  1  0
 14 15  1  1
 16 17  2  0
 16 15  1  0
 18 19  2  0
 20 16  1  0
 21 18  1  0
 21 22  1  0
 22 23  1  1
 23 24  1  0
 25 22  1  0
 25 26  1  0
 27 25  2  0
M  END
$$$$
