YDC.pdb
     RDKit          3D

 27 27  0  0  1  0  0  0  0  0999 V2000
    7.1552  -12.9343   16.5746 O   0  0  0  0  0  0  0  0  0  0  0  0
    7.4527  -13.4996   17.8059 C   0  0  0  0  0  0  0  0  0  0  0  0
    7.2704  -14.8590   17.9507 C   0  0  0  0  0  0  0  0  0  0  0  0
    7.5539  -15.4525   19.1544 C   0  0  0  0  0  0  0  0  0  0  0  0
    8.0122  -14.7031   20.1984 C   0  0  0  0  0  0  0  0  0  0  0  0
    8.3022  -15.4006   21.4898 C   0  0  0  0  0  0  0  0  0  0  0  0
    9.7958  -15.3735   21.6693 C   0  0  2  0  0  0  0  0  0  0  0  0
   10.4351  -15.9164   20.4871 N   0  0  0  0  0  0  0  0  0  0  0  0
   10.2416  -16.1656   22.8537 C   0  0  0  0  0  0  0  0  0  0  0  0
   11.4484  -16.5754   22.9450 O   0  0  0  0  0  0  0  0  0  0  0  0
    8.2033  -13.3561   20.0873 C   0  0  0  0  0  0  0  0  0  0  0  0
    7.9160  -12.7637   18.8721 C   0  0  0  0  0  0  0  0  0  0  0  0
    9.3879  -16.5095   23.9277 N   0  0  0  0  0  0  0  0  0  0  0  0
    9.8582  -17.2133   25.0812 C   0  0  1  0  0  0  0  0  0  0  0  0
   10.6692  -18.4414   24.7569 C   0  0  0  0  0  0  0  0  0  0  0  0
    9.8662  -19.5785   24.2940 C   0  0  0  0  0  0  0  0  0  0  0  0
   10.3479  -20.3520   23.4189 O   0  0  0  0  0  0  0  0  0  0  0  0
   10.5483  -16.3300   26.0540 C   0  0  0  0  0  0  0  0  0  0  0  0
   11.7205  -15.9675   25.7875 O   0  0  0  0  0  0  0  0  0  0  0  0
    8.5931  -19.8763   24.7523 O   0  0  0  0  0  0  0  0  0  0  0  0
    9.9441  -15.8997   27.2325 N   0  0  0  0  0  0  0  0  0  0  0  0
   10.5194  -14.9422   28.1642 C   0  0  1  0  0  0  0  0  0  0  0  0
    9.4889  -13.9312   28.6320 C   0  0  0  0  0  0  0  0  0  0  0  0
    8.6382  -13.3277   27.1403 S   0  0  0  0  0  0  0  0  0  0  0  0
   10.9755  -15.7038   29.3519 C   0  0  0  0  0  0  0  0  0  0  0  0
   11.7055  -15.0936   30.3590 O   0  0  0  0  0  0  0  0  0  0  0  0
   10.7281  -16.9321   29.5096 O   0  0  0  0  0  0  0  0  0  0  0  0
  2  1  1  0
  3  2  2  0
  4  3  1  0
  5 11  1  0
  5  4  2  0
  6  5  1  0
  7  6  1  0
  7  8  1  6
  9  7  1  0
  9 13  1  0
 10  9  2  0
 11 12  2  0
 12  2  1  0
 14 13  1  0
 14 18  1  0
 14 15  1  6
 16 17  2  0
 16 15  1  0
 18 19  2  0
 20 16  1  0
 21 18  1  0
 21 22  1  0
 22 23  1  1
 23 24  1  0
 25 22  1  0
 25 26  1  0
 27 25  2  0
M  END
$$$$
