GFQ.pdb
     RDKit          3D

 25 25  0  0  1  0  0  0  0  0999 V2000
   31.4172  -22.4416   -9.9898 N   0  0  0  0  0  0  0  0  0  0  0  0
   30.7914  -21.1481   -9.9345 C   0  0  0  0  0  0  0  0  0  0  0  0
   29.3751  -21.2719   -9.5256 C   0  0  0  0  0  0  0  0  0  0  0  0
   28.8229  -22.4009   -9.5039 O   0  0  0  0  0  0  0  0  0  0  0  0
   28.5811  -20.1529   -9.1446 N   0  0  0  0  0  0  0  0  0  0  0  0
   27.1668  -20.2887   -8.7917 C   0  0  1  0  0  0  0  0  0  0  0  0
   26.7936  -19.3288   -7.6773 C   0  0  0  0  0  0  0  0  0  0  0  0
   27.4650  -19.5859   -6.4053 C   0  0  0  0  0  0  0  0  0  0  0  0
   28.5172  -18.7732   -6.0017 C   0  0  0  0  0  0  0  0  0  0  0  0
   29.1860  -18.9750   -4.8172 C   0  0  0  0  0  0  0  0  0  0  0  0
   28.8447  -20.0075   -3.9545 C   0  0  0  0  0  0  0  0  0  0  0  0
   27.7946  -20.8215   -4.3531 C   0  0  0  0  0  0  0  0  0  0  0  0
   27.1344  -20.6073   -5.5417 C   0  0  0  0  0  0  0  0  0  0  0  0
   26.3106  -20.0731   -9.9945 C   0  0  0  0  0  0  0  0  0  0  0  0
   26.7030  -19.2962  -10.9041 O   0  0  0  0  0  0  0  0  0  0  0  0
   23.4617  -24.4688  -13.6447 N   0  0  0  0  0  0  0  0  0  0  0  0
   23.3747  -23.0567  -13.7155 C   0  0  0  0  0  0  0  0  0  0  0  0
   22.2216  -22.5272  -13.8684 O   0  0  0  0  0  0  0  0  0  0  0  0
   24.5459  -22.1800  -13.6148 C   0  0  0  0  0  0  0  0  0  0  0  0
   25.0303  -21.8716  -12.2471 C   0  0  0  0  0  0  0  0  0  0  0  0
   24.3790  -20.7712  -11.4914 C   0  0  2  0  0  0  0  0  0  0  0  0
   25.0632  -20.7041  -10.1691 N   0  0  0  0  0  0  0  0  0  0  0  0
   22.9646  -20.9665  -11.2360 C   0  0  0  0  0  0  0  0  0  0  0  0
   22.5786  -21.7114  -10.2991 O   0  0  0  0  0  0  0  0  0  0  0  0
   21.9861  -20.3486  -12.0022 O   0  0  0  0  0  0  0  0  0  0  0  0
  2  1  1  0
  3  2  1  0
  3  4  2  0
  5  3  1  0
  6  5  1  0
  6  7  1  1
  8  7  1  0
  8  9  2  0
 10  9  1  0
 11 10  2  0
 12 13  2  0
 12 11  1  0
 13  8  1  0
 14 22  1  0
 14  6  1  0
 15 14  2  0
 16 17  1  0
 17 19  1  0
 18 17  2  0
 20 19  1  0
 21 20  1  6
 21 22  1  0
 21 23  1  0
 23 25  1  0
 24 23  2  0
M  END
$$$$
