GFQ.pdb
     RDKit          3D

 25 25  0  0  1  0  0  0  0  0999 V2000
   22.0048  -21.8975   -6.2945 N   0  0  0  0  0  0  0  0  0  0  0  0
   23.4141  -22.1799   -6.2498 C   0  0  0  0  0  0  0  0  0  0  0  0
   24.1599  -21.2481   -7.1238 C   0  0  0  0  0  0  0  0  0  0  0  0
   23.5728  -20.2639   -7.6404 O   0  0  0  0  0  0  0  0  0  0  0  0
   25.5434  -21.4082   -7.4203 N   0  0  0  0  0  0  0  0  0  0  0  0
   26.2508  -20.5087   -8.3335 C   0  0  1  0  0  0  0  0  0  0  0  0
   27.7295  -20.4517   -7.9977 C   0  0  0  0  0  0  0  0  0  0  0  0
   28.0356  -19.8323   -6.7103 C   0  0  0  0  0  0  0  0  0  0  0  0
   28.5714  -20.5997   -5.6834 C   0  0  0  0  0  0  0  0  0  0  0  0
   28.8724  -20.0674   -4.4516 C   0  0  0  0  0  0  0  0  0  0  0  0
   28.6564  -18.7266   -4.1648 C   0  0  0  0  0  0  0  0  0  0  0  0
   28.1217  -17.9564   -5.1871 C   0  0  0  0  0  0  0  0  0  0  0  0
   27.8254  -18.5031   -6.4151 C   0  0  0  0  0  0  0  0  0  0  0  0
   26.0379  -20.9352   -9.7474 C   0  0  0  0  0  0  0  0  0  0  0  0
   26.2870  -22.1232  -10.0813 O   0  0  0  0  0  0  0  0  0  0  0  0
   22.7630  -17.4087  -13.9822 N   0  0  0  0  0  0  0  0  0  0  0  0
   23.2554  -18.4911  -14.7520 C   0  0  0  0  0  0  0  0  0  0  0  0
   23.0091  -18.5047  -16.0061 O   0  0  0  0  0  0  0  0  0  0  0  0
   24.0378  -19.5888  -14.1748 C   0  0  0  0  0  0  0  0  0  0  0  0
   24.4221  -19.4534  -12.7485 C   0  0  0  0  0  0  0  0  0  0  0  0
   25.2373  -20.5269  -12.1248 C   0  0  2  0  0  0  0  0  0  0  0  0
   25.5646  -20.0625  -10.7470 N   0  0  0  0  0  0  0  0  0  0  0  0
   26.4929  -20.8018  -12.7970 C   0  0  0  0  0  0  0  0  0  0  0  0
   26.6279  -21.8297  -13.5091 O   0  0  0  0  0  0  0  0  0  0  0  0
   27.5871  -19.9551  -12.6876 O   0  0  0  0  0  0  0  0  0  0  0  0
  2  1  1  0
  3  2  1  0
  3  4  2  0
  5  3  1  0
  6  5  1  0
  6  7  1  1
  8  7  1  0
  8  9  2  0
 10  9  1  0
 11 10  2  0
 12 13  2  0
 12 11  1  0
 13  8  1  0
 14 22  1  0
 14  6  1  0
 15 14  2  0
 16 17  1  0
 17 19  1  0
 18 17  2  0
 20 19  1  0
 21 20  1  6
 21 22  1  0
 21 23  1  0
 23 25  1  0
 24 23  2  0
M  END
$$$$
