GFQ.pdb
     RDKit          3D

 25 25  0  0  1  0  0  0  0  0999 V2000
   25.4862  -24.1575  -16.1997 N   0  0  0  0  0  0  0  0  0  0  0  0
   26.1807  -23.0049  -15.6928 C   0  0  0  0  0  0  0  0  0  0  0  0
   25.7178  -22.6772  -14.3265 C   0  0  0  0  0  0  0  0  0  0  0  0
   24.6955  -23.2381  -13.8570 O   0  0  0  0  0  0  0  0  0  0  0  0
   26.3840  -21.7363  -13.4907 N   0  0  0  0  0  0  0  0  0  0  0  0
   25.8585  -21.3547  -12.1786 C   0  0  1  0  0  0  0  0  0  0  0  0
   26.9690  -20.8426  -11.2802 C   0  0  0  0  0  0  0  0  0  0  0  0
   26.5404  -20.4858   -9.9297 C   0  0  0  0  0  0  0  0  0  0  0  0
   26.3751  -21.4782   -8.9714 C   0  0  0  0  0  0  0  0  0  0  0  0
   25.9687  -21.1970   -7.6881 C   0  0  0  0  0  0  0  0  0  0  0  0
   25.6998  -19.8987   -7.2771 C   0  0  0  0  0  0  0  0  0  0  0  0
   25.8636  -18.9044   -8.2303 C   0  0  0  0  0  0  0  0  0  0  0  0
   26.2711  -19.2011   -9.5111 C   0  0  0  0  0  0  0  0  0  0  0  0
   24.7786  -20.3363  -12.3303 C   0  0  0  0  0  0  0  0  0  0  0  0
   25.0306  -19.2462  -12.9075 O   0  0  0  0  0  0  0  0  0  0  0  0
   22.0683  -19.5051  -16.5093 N   0  0  0  0  0  0  0  0  0  0  0  0
   20.9660  -19.9222  -15.7234 C   0  0  0  0  0  0  0  0  0  0  0  0
   19.8996  -20.2923  -16.3228 O   0  0  0  0  0  0  0  0  0  0  0  0
   20.9987  -19.9535  -14.2577 C   0  0  0  0  0  0  0  0  0  0  0  0
   22.2474  -19.4829  -13.6100 C   0  0  0  0  0  0  0  0  0  0  0  0
   22.3621  -19.5744  -12.1320 C   0  0  2  0  0  0  0  0  0  0  0  0
   23.4680  -20.5336  -11.8526 N   0  0  0  0  0  0  0  0  0  0  0  0
   21.1769  -20.0754  -11.4625 C   0  0  0  0  0  0  0  0  0  0  0  0
   20.2817  -19.2859  -11.0663 O   0  0  0  0  0  0  0  0  0  0  0  0
   20.9788  -21.4296  -11.2322 O   0  0  0  0  0  0  0  0  0  0  0  0
  2  1  1  0
  3  2  1  0
  3  4  2  0
  5  3  1  0
  6  5  1  0
  6  7  1  1
  8  7  1  0
  8  9  2  0
 10  9  1  0
 11 10  2  0
 12 13  2  0
 12 11  1  0
 13  8  1  0
 14 22  1  0
 14  6  1  0
 15 14  2  0
 16 17  1  0
 17 19  1  0
 18 17  2  0
 20 19  1  0
 21 20  1  6
 21 22  1  0
 21 23  1  0
 23 25  1  0
 24 23  2  0
M  END
$$$$
