GFQ.pdb
     RDKit          3D

 25 25  0  0  1  0  0  0  0  0999 V2000
   26.9784  -21.3313  -15.9375 N   0  0  0  0  0  0  0  0  0  0  0  0
   25.9230  -20.8846  -16.8060 C   0  0  0  0  0  0  0  0  0  0  0  0
   25.0788  -19.8786  -16.1250 C   0  0  0  0  0  0  0  0  0  0  0  0
   25.2151  -19.6734  -14.8924 O   0  0  0  0  0  0  0  0  0  0  0  0
   24.0938  -19.1088  -16.8067 N   0  0  0  0  0  0  0  0  0  0  0  0
   23.3040  -18.0809  -16.1263 C   0  0  1  0  0  0  0  0  0  0  0  0
   23.5894  -16.7082  -16.7067 C   0  0  0  0  0  0  0  0  0  0  0  0
   24.9624  -16.2446  -16.5205 C   0  0  0  0  0  0  0  0  0  0  0  0
   25.3106  -15.5605  -15.3623 C   0  0  0  0  0  0  0  0  0  0  0  0
   26.5865  -15.0982  -15.1401 C   0  0  0  0  0  0  0  0  0  0  0  0
   27.6027  -15.2910  -16.0658 C   0  0  0  0  0  0  0  0  0  0  0  0
   27.2601  -15.9736  -17.2236 C   0  0  0  0  0  0  0  0  0  0  0  0
   25.9785  -16.4304  -17.4323 C   0  0  0  0  0  0  0  0  0  0  0  0
   21.8502  -18.4065  -16.2091 C   0  0  0  0  0  0  0  0  0  0  0  0
   21.4132  -19.0459  -17.2017 O   0  0  0  0  0  0  0  0  0  0  0  0
   17.9448  -21.0661  -14.1033 N   0  0  0  0  0  0  0  0  0  0  0  0
   17.0533  -19.9994  -13.8310 C   0  0  0  0  0  0  0  0  0  0  0  0
   15.8178  -20.2728  -13.6512 O   0  0  0  0  0  0  0  0  0  0  0  0
   17.4869  -18.6016  -13.7408 C   0  0  0  0  0  0  0  0  0  0  0  0
   18.9328  -18.3392  -13.9435 C   0  0  0  0  0  0  0  0  0  0  0  0
   19.4673  -18.3248  -15.3293 C   0  0  2  0  0  0  0  0  0  0  0  0
   20.9236  -18.0291  -15.2172 N   0  0  0  0  0  0  0  0  0  0  0  0
   18.8867  -17.3133  -16.1917 C   0  0  0  0  0  0  0  0  0  0  0  0
   17.9948  -17.6157  -17.0251 O   0  0  0  0  0  0  0  0  0  0  0  0
   19.2826  -15.9842  -16.1371 O   0  0  0  0  0  0  0  0  0  0  0  0
  2  1  1  0
  3  2  1  0
  3  4  2  0
  5  3  1  0
  6  5  1  0
  6  7  1  6
  8  7  1  0
  8  9  2  0
 10  9  1  0
 11 10  2  0
 12 13  2  0
 12 11  1  0
 13  8  1  0
 14 22  1  0
 14  6  1  0
 15 14  2  0
 16 17  1  0
 17 19  1  0
 18 17  2  0
 20 19  1  0
 21 20  1  1
 21 22  1  0
 21 23  1  0
 23 25  1  0
 24 23  2  0
M  END
$$$$
