GFQ.pdb
     RDKit          3D

 25 25  0  0  1  0  0  0  0  0999 V2000
   31.2413  -22.1041   -9.9760 N   0  0  0  0  0  0  0  0  0  0  0  0
   30.4079  -21.1283  -10.6247 C   0  0  0  0  0  0  0  0  0  0  0  0
   29.0117  -21.2364  -10.1480 C   0  0  0  0  0  0  0  0  0  0  0  0
   28.4176  -22.3435  -10.1864 O   0  0  0  0  0  0  0  0  0  0  0  0
   28.2835  -20.1260   -9.6338 N   0  0  0  0  0  0  0  0  0  0  0  0
   26.8910  -20.2455   -9.1977 C   0  0  1  0  0  0  0  0  0  0  0  0
   26.6258  -19.3655   -7.9903 C   0  0  0  0  0  0  0  0  0  0  0  0
   27.3831  -19.7310   -6.7954 C   0  0  0  0  0  0  0  0  0  0  0  0
   26.7214  -19.9235   -5.5889 C   0  0  0  0  0  0  0  0  0  0  0  0
   27.3870  -20.2629   -4.4344 C   0  0  0  0  0  0  0  0  0  0  0  0
   28.7644  -20.4330   -4.4108 C   0  0  0  0  0  0  0  0  0  0  0  0
   29.4294  -20.2421   -5.6130 C   0  0  0  0  0  0  0  0  0  0  0  0
   28.7497  -19.9025   -6.7607 C   0  0  0  0  0  0  0  0  0  0  0  0
   25.9670  -19.9090  -10.3199 C   0  0  0  0  0  0  0  0  0  0  0  0
   26.3744  -19.1790  -11.2613 O   0  0  0  0  0  0  0  0  0  0  0  0
   25.5525  -22.2777  -14.9734 N   0  0  0  0  0  0  0  0  0  0  0  0
   24.7810  -22.9774  -14.0132 C   0  0  0  0  0  0  0  0  0  0  0  0
   24.6444  -24.2409  -14.1491 O   0  0  0  0  0  0  0  0  0  0  0  0
   24.1405  -22.3174  -12.8711 C   0  0  0  0  0  0  0  0  0  0  0  0
   24.4100  -20.8685  -12.7033 C   0  0  0  0  0  0  0  0  0  0  0  0
   23.7687  -20.1503  -11.5723 C   0  0  2  0  0  0  0  0  0  0  0  0
   24.6383  -20.3733  -10.3828 N   0  0  0  0  0  0  0  0  0  0  0  0
   22.4405  -20.6225  -11.2304 C   0  0  0  0  0  0  0  0  0  0  0  0
   21.4715  -20.4318  -12.0091 O   0  0  0  0  0  0  0  0  0  0  0  0
   22.1817  -21.2974  -10.0456 O   0  0  0  0  0  0  0  0  0  0  0  0
  2  1  1  0
  3  2  1  0
  3  4  2  0
  5  3  1  0
  6  5  1  0
  6  7  1  1
  8  7  1  0
  8  9  2  0
 10  9  1  0
 11 10  2  0
 12 13  2  0
 12 11  1  0
 13  8  1  0
 14 22  1  0
 14  6  1  0
 15 14  2  0
 16 17  1  0
 17 19  1  0
 18 17  2  0
 20 19  1  0
 21 20  1  6
 21 22  1  0
 21 23  1  0
 23 25  1  0
 24 23  2  0
M  END
$$$$
