GFQ.pdb
     RDKit          3D

 25 25  0  0  1  0  0  0  0  0999 V2000
   27.4201  -22.9189  -16.0245 N   0  0  0  0  0  0  0  0  0  0  0  0
   27.7659  -21.7489  -15.2635 C   0  0  0  0  0  0  0  0  0  0  0  0
   27.1517  -21.8018  -13.9188 C   0  0  0  0  0  0  0  0  0  0  0  0
   26.1047  -22.4717  -13.7313 O   0  0  0  0  0  0  0  0  0  0  0  0
   27.6954  -21.1178  -12.7944 N   0  0  0  0  0  0  0  0  0  0  0  0
   27.0210  -21.1015  -11.4951 C   0  0  1  0  0  0  0  0  0  0  0  0
   27.9267  -20.5230  -10.4238 C   0  0  0  0  0  0  0  0  0  0  0  0
   27.3088  -20.4075   -9.1048 C   0  0  0  0  0  0  0  0  0  0  0  0
   26.1081  -21.0563   -8.8441 C   0  0  0  0  0  0  0  0  0  0  0  0
   25.4822  -20.9759   -7.6222 C   0  0  0  0  0  0  0  0  0  0  0  0
   26.0188  -20.2381   -6.5760 C   0  0  0  0  0  0  0  0  0  0  0  0
   27.2176  -19.5887   -6.8314 C   0  0  0  0  0  0  0  0  0  0  0  0
   27.8324  -19.6783   -8.0597 C   0  0  0  0  0  0  0  0  0  0  0  0
   25.7421  -20.3382  -11.5858 C   0  0  0  0  0  0  0  0  0  0  0  0
   25.7647  -19.1292  -11.9365 O   0  0  0  0  0  0  0  0  0  0  0  0
   22.1795  -23.3617  -15.0046 N   0  0  0  0  0  0  0  0  0  0  0  0
   22.3323  -21.9934  -15.3381 C   0  0  0  0  0  0  0  0  0  0  0  0
   22.1644  -21.6437  -16.5559 O   0  0  0  0  0  0  0  0  0  0  0  0
   22.6672  -20.9645  -14.3484 C   0  0  0  0  0  0  0  0  0  0  0  0
   22.8510  -21.4220  -12.9494 C   0  0  0  0  0  0  0  0  0  0  0  0
   23.2235  -20.4227  -11.9155 C   0  0  2  0  0  0  0  0  0  0  0  0
   24.4877  -20.9092  -11.2940 N   0  0  0  0  0  0  0  0  0  0  0  0
   22.2524  -20.2631  -10.8500 C   0  0  0  0  0  0  0  0  0  0  0  0
   22.3148  -20.9723   -9.8133 O   0  0  0  0  0  0  0  0  0  0  0  0
   21.2246  -19.3333  -10.9242 O   0  0  0  0  0  0  0  0  0  0  0  0
  2  1  1  0
  3  2  1  0
  3  4  2  0
  5  3  1  0
  6  5  1  0
  6  7  1  1
  8  7  1  0
  8  9  2  0
 10  9  1  0
 11 10  2  0
 12 13  2  0
 12 11  1  0
 13  8  1  0
 14 22  1  0
 14  6  1  0
 15 14  2  0
 16 17  1  0
 17 19  1  0
 18 17  2  0
 20 19  1  0
 21 20  1  6
 21 22  1  0
 21 23  1  0
 23 25  1  0
 24 23  2  0
M  END
$$$$
