GFQ.pdb
     RDKit          3D

 25 25  0  0  1  0  0  0  0  0999 V2000
   31.0509  -22.3182  -10.6954 N   0  0  0  0  0  0  0  0  0  0  0  0
   30.4514  -21.0453  -10.3988 C   0  0  0  0  0  0  0  0  0  0  0  0
   29.0372  -21.2160   -9.9997 C   0  0  0  0  0  0  0  0  0  0  0  0
   28.4470  -22.3030  -10.2237 O   0  0  0  0  0  0  0  0  0  0  0  0
   28.2869  -20.1896   -9.3584 N   0  0  0  0  0  0  0  0  0  0  0  0
   26.8766  -20.3636   -9.0061 C   0  0  1  0  0  0  0  0  0  0  0  0
   26.4957  -19.4659   -7.8435 C   0  0  0  0  0  0  0  0  0  0  0  0
   27.2987  -19.6607   -6.6384 C   0  0  0  0  0  0  0  0  0  0  0  0
   27.1356  -20.8113   -5.8769 C   0  0  0  0  0  0  0  0  0  0  0  0
   27.8618  -21.0410   -4.7319 C   0  0  0  0  0  0  0  0  0  0  0  0
   28.8032  -20.1308   -4.2714 C   0  0  0  0  0  0  0  0  0  0  0  0
   28.9698  -18.9806   -5.0285 C   0  0  0  0  0  0  0  0  0  0  0  0
   28.2355  -18.7643   -6.1725 C   0  0  0  0  0  0  0  0  0  0  0  0
   26.0110  -20.1008  -10.1926 C   0  0  0  0  0  0  0  0  0  0  0  0
   26.3486  -19.2173  -11.0235 O   0  0  0  0  0  0  0  0  0  0  0  0
   25.2827  -23.8393  -14.4054 N   0  0  0  0  0  0  0  0  0  0  0  0
   23.9547  -23.7929  -13.9143 C   0  0  0  0  0  0  0  0  0  0  0  0
   23.1381  -24.7025  -14.2875 O   0  0  0  0  0  0  0  0  0  0  0  0
   23.4809  -22.7537  -12.9946 C   0  0  0  0  0  0  0  0  0  0  0  0
   24.4596  -21.7061  -12.6136 C   0  0  0  0  0  0  0  0  0  0  0  0
   24.0257  -20.6272  -11.6896 C   0  0  2  0  0  0  0  0  0  0  0  0
   24.8135  -20.8019  -10.4366 N   0  0  0  0  0  0  0  0  0  0  0  0
   22.6221  -20.6694  -11.3262 C   0  0  0  0  0  0  0  0  0  0  0  0
   21.7355  -20.3248  -12.1489 O   0  0  0  0  0  0  0  0  0  0  0  0
   22.1988  -21.0867  -10.0720 O   0  0  0  0  0  0  0  0  0  0  0  0
  2  1  1  0
  3  2  1  0
  3  4  2  0
  5  3  1  0
  6  5  1  0
  6  7  1  1
  8  7  1  0
  8  9  2  0
 10  9  1  0
 11 10  2  0
 12 13  2  0
 12 11  1  0
 13  8  1  0
 14 22  1  0
 14  6  1  0
 15 14  2  0
 16 17  1  0
 17 19  1  0
 18 17  2  0
 20 19  1  0
 21 20  1  6
 21 22  1  0
 21 23  1  0
 23 25  1  0
 24 23  2  0
M  END
$$$$
