GFQ.pdb
     RDKit          3D

 25 25  0  0  1  0  0  0  0  0999 V2000
   19.5568  -12.5330  -19.5329 N   0  0  0  0  0  0  0  0  0  0  0  0
   20.2517  -12.8095  -18.3047 C   0  0  0  0  0  0  0  0  0  0  0  0
   20.0619  -11.7051  -17.3390 C   0  0  0  0  0  0  0  0  0  0  0  0
   19.0719  -11.7097  -16.5644 O   0  0  0  0  0  0  0  0  0  0  0  0
   20.9628  -10.6072  -17.2351 N   0  0  0  0  0  0  0  0  0  0  0  0
   20.7893   -9.5525  -16.2347 C   0  0  1  0  0  0  0  0  0  0  0  0
   22.1203   -9.1751  -15.6113 C   0  0  0  0  0  0  0  0  0  0  0  0
   22.0392   -8.1272  -14.5964 C   0  0  0  0  0  0  0  0  0  0  0  0
   22.3146   -6.8092  -14.9393 C   0  0  0  0  0  0  0  0  0  0  0  0
   22.2581   -5.7864  -14.0218 C   0  0  0  0  0  0  0  0  0  0  0  0
   21.9207   -6.0157  -12.6950 C   0  0  0  0  0  0  0  0  0  0  0  0
   21.6447   -7.3300  -12.3478 C   0  0  0  0  0  0  0  0  0  0  0  0
   21.7053   -8.3435  -13.2773 C   0  0  0  0  0  0  0  0  0  0  0  0
   20.1272   -8.3635  -16.8464 C   0  0  0  0  0  0  0  0  0  0  0  0
   20.5895   -7.8751  -17.9107 O   0  0  0  0  0  0  0  0  0  0  0  0
   14.4514   -7.7342  -19.4128 N   0  0  0  0  0  0  0  0  0  0  0  0
   15.8120   -7.3933  -19.2146 C   0  0  0  0  0  0  0  0  0  0  0  0
   16.3900   -6.6690  -20.0949 O   0  0  0  0  0  0  0  0  0  0  0  0
   16.5805   -7.8289  -18.0441 C   0  0  0  0  0  0  0  0  0  0  0  0
   16.9592   -6.7778  -17.0683 C   0  0  0  0  0  0  0  0  0  0  0  0
   18.4008   -6.4983  -16.8451 C   0  0  2  0  0  0  0  0  0  0  0  0
   18.9914   -7.7468  -16.2854 N   0  0  0  0  0  0  0  0  0  0  0  0
   18.6715   -5.4316  -15.9002 C   0  0  0  0  0  0  0  0  0  0  0  0
   17.7286   -4.8114  -15.3451 O   0  0  0  0  0  0  0  0  0  0  0  0
   19.9648   -5.0520  -15.5694 O   0  0  0  0  0  0  0  0  0  0  0  0
  2  1  1  0
  3  2  1  0
  3  4  2  0
  5  3  1  0
  6  5  1  0
  6  7  1  6
  8  7  1  0
  8  9  2  0
 10  9  1  0
 11 10  2  0
 12 13  2  0
 12 11  1  0
 13  8  1  0
 14 22  1  0
 14  6  1  0
 15 14  2  0
 16 17  1  0
 17 19  1  0
 18 17  2  0
 20 19  1  0
 21 20  1  1
 21 22  1  0
 21 23  1  0
 23 25  1  0
 24 23  2  0
M  END
$$$$
