GFQ.pdb
     RDKit          3D

 25 25  0  0  1  0  0  0  0  0999 V2000
   27.6100  -11.5590  -20.5351 N   0  0  0  0  0  0  0  0  0  0  0  0
   27.1280  -10.2513  -20.1814 C   0  0  0  0  0  0  0  0  0  0  0  0
   26.2365  -10.3259  -19.0032 C   0  0  0  0  0  0  0  0  0  0  0  0
   25.2171  -11.0609  -19.0311 O   0  0  0  0  0  0  0  0  0  0  0  0
   26.4754   -9.5917  -17.8068 N   0  0  0  0  0  0  0  0  0  0  0  0
   25.6560   -9.7741  -16.6073 C   0  0  1  0  0  0  0  0  0  0  0  0
   26.5159  -10.1673  -15.4205 C   0  0  0  0  0  0  0  0  0  0  0  0
   27.0369  -11.5313  -15.4745 C   0  0  0  0  0  0  0  0  0  0  0  0
   28.2861  -11.7732  -16.0326 C   0  0  0  0  0  0  0  0  0  0  0  0
   28.8200  -13.0379  -16.1129 C   0  0  0  0  0  0  0  0  0  0  0  0
   28.1366  -14.1488  -15.6379 C   0  0  0  0  0  0  0  0  0  0  0  0
   26.8890  -13.9123  -15.0797 C   0  0  0  0  0  0  0  0  0  0  0  0
   26.3673  -12.6406  -15.0062 C   0  0  0  0  0  0  0  0  0  0  0  0
   24.8784   -8.5338  -16.3187 C   0  0  0  0  0  0  0  0  0  0  0  0
   25.4623   -7.4185  -16.3310 O   0  0  0  0  0  0  0  0  0  0  0  0
   23.0647   -4.5397  -18.4949 N   0  0  0  0  0  0  0  0  0  0  0  0
   21.7566   -4.5992  -17.9544 C   0  0  0  0  0  0  0  0  0  0  0  0
   21.0023   -3.5749  -18.0783 O   0  0  0  0  0  0  0  0  0  0  0  0
   21.2313   -5.7833  -17.2673 C   0  0  0  0  0  0  0  0  0  0  0  0
   22.1407   -6.9507  -17.1643 C   0  0  0  0  0  0  0  0  0  0  0  0
   22.7126   -7.2940  -15.8372 C   0  0  2  0  0  0  0  0  0  0  0  0
   23.5000   -8.5450  -16.0274 N   0  0  0  0  0  0  0  0  0  0  0  0
   21.7293   -7.5561  -14.8036 C   0  0  0  0  0  0  0  0  0  0  0  0
   21.0520   -6.6185  -14.3098 O   0  0  0  0  0  0  0  0  0  0  0  0
   21.4936   -8.8352  -14.3194 O   0  0  0  0  0  0  0  0  0  0  0  0
  2  1  1  0
  3  2  1  0
  3  4  2  0
  5  3  1  0
  6  5  1  0
  6  7  1  1
  8  7  1  0
  8  9  2  0
 10  9  1  0
 11 10  2  0
 12 13  2  0
 12 11  1  0
 13  8  1  0
 14 22  1  0
 14  6  1  0
 15 14  2  0
 16 17  1  0
 17 19  1  0
 18 17  2  0
 20 19  1  0
 21 20  1  6
 21 22  1  0
 21 23  1  0
 23 25  1  0
 24 23  2  0
M  END
$$$$
