GFQ.pdb
     RDKit          3D

 25 25  0  0  1  0  0  0  0  0999 V2000
   27.2590  -20.5113  -17.6238 N   0  0  0  0  0  0  0  0  0  0  0  0
   27.4808  -21.7941  -17.0132 C   0  0  0  0  0  0  0  0  0  0  0  0
   26.6741  -21.9307  -15.7807 C   0  0  0  0  0  0  0  0  0  0  0  0
   25.9853  -22.9649  -15.5910 O   0  0  0  0  0  0  0  0  0  0  0  0
   26.6335  -20.9286  -14.7698 N   0  0  0  0  0  0  0  0  0  0  0  0
   25.8406  -21.0885  -13.5496 C   0  0  1  0  0  0  0  0  0  0  0  0
   26.4346  -20.2818  -12.4099 C   0  0  0  0  0  0  0  0  0  0  0  0
   25.7259  -20.4147  -11.1391 C   0  0  0  0  0  0  0  0  0  0  0  0
   26.1478  -21.3544  -10.2067 C   0  0  0  0  0  0  0  0  0  0  0  0
   25.5132  -21.5237   -8.9985 C   0  0  0  0  0  0  0  0  0  0  0  0
   24.4099  -20.7605   -8.6419 C   0  0  0  0  0  0  0  0  0  0  0  0
   23.9850  -19.8208   -9.5695 C   0  0  0  0  0  0  0  0  0  0  0  0
   24.6303  -19.6627  -10.7750 C   0  0  0  0  0  0  0  0  0  0  0  0
   24.4221  -20.6993  -13.7999 C   0  0  0  0  0  0  0  0  0  0  0  0
   24.1720  -19.6729  -14.4848 O   0  0  0  0  0  0  0  0  0  0  0  0
   20.9527  -22.3757  -17.6342 N   0  0  0  0  0  0  0  0  0  0  0  0
   19.9634  -21.7629  -16.8264 C   0  0  0  0  0  0  0  0  0  0  0  0
   18.7986  -21.5880  -17.3225 O   0  0  0  0  0  0  0  0  0  0  0  0
   20.2161  -21.3284  -15.4489 C   0  0  0  0  0  0  0  0  0  0  0  0
   21.6009  -21.4924  -14.9432 C   0  0  0  0  0  0  0  0  0  0  0  0
   21.9145  -21.0393  -13.5638 C   0  0  2  0  0  0  0  0  0  0  0  0
   23.3276  -21.4329  -13.3009 N   0  0  0  0  0  0  0  0  0  0  0  0
   21.0985  -21.6433  -12.5279 C   0  0  0  0  0  0  0  0  0  0  0  0
   21.3105  -22.8243  -12.1510 O   0  0  0  0  0  0  0  0  0  0  0  0
   20.0615  -20.9556  -11.9132 O   0  0  0  0  0  0  0  0  0  0  0  0
  2  1  1  0
  3  2  1  0
  3  4  2  0
  5  3  1  0
  6  5  1  0
  6  7  1  1
  8  7  1  0
  8  9  2  0
 10  9  1  0
 11 10  2  0
 12 13  2  0
 12 11  1  0
 13  8  1  0
 14 22  1  0
 14  6  1  0
 15 14  2  0
 16 17  1  0
 17 19  1  0
 18 17  2  0
 20 19  1  0
 21 20  1  6
 21 22  1  0
 21 23  1  0
 23 25  1  0
 24 23  2  0
M  END
$$$$
