GFQ.pdb
     RDKit          3D

 25 25  0  0  1  0  0  0  0  0999 V2000
   28.2869  -23.7329  -16.9876 N   0  0  0  0  0  0  0  0  0  0  0  0
   27.4976  -22.5385  -16.8534 C   0  0  0  0  0  0  0  0  0  0  0  0
   26.7911  -22.5245  -15.5538 C   0  0  0  0  0  0  0  0  0  0  0  0
   26.0883  -23.5080  -15.2090 O   0  0  0  0  0  0  0  0  0  0  0  0
   26.8648  -21.4290  -14.6469 N   0  0  0  0  0  0  0  0  0  0  0  0
   26.0544  -21.3736  -13.4289 C   0  0  1  0  0  0  0  0  0  0  0  0
   26.6504  -20.4019  -12.4274 C   0  0  0  0  0  0  0  0  0  0  0  0
   25.9737  -20.3741  -11.1328 C   0  0  0  0  0  0  0  0  0  0  0  0
   26.5767  -20.9559  -10.0244 C   0  0  0  0  0  0  0  0  0  0  0  0
   25.9806  -20.9621   -8.7851 C   0  0  0  0  0  0  0  0  0  0  0  0
   24.7368  -20.3840   -8.5721 C   0  0  0  0  0  0  0  0  0  0  0  0
   24.1308  -19.8018   -9.6757 C   0  0  0  0  0  0  0  0  0  0  0  0
   24.7397  -19.8033  -10.9102 C   0  0  0  0  0  0  0  0  0  0  0  0
   24.6469  -21.0060  -13.7606 C   0  0  0  0  0  0  0  0  0  0  0  0
   24.4234  -20.1610  -14.6667 O   0  0  0  0  0  0  0  0  0  0  0  0
   20.9283  -24.6173  -16.1363 N   0  0  0  0  0  0  0  0  0  0  0  0
   19.9990  -23.6085  -15.7820 C   0  0  0  0  0  0  0  0  0  0  0  0
   18.8192  -23.6728  -16.2691 O   0  0  0  0  0  0  0  0  0  0  0  0
   20.3300  -22.5018  -14.8787 C   0  0  0  0  0  0  0  0  0  0  0  0
   21.7280  -22.4400  -14.3868 C   0  0  0  0  0  0  0  0  0  0  0  0
   22.1325  -21.2961  -13.5300 C   0  0  2  0  0  0  0  0  0  0  0  0
   23.5343  -21.5645  -13.1010 N   0  0  0  0  0  0  0  0  0  0  0  0
   21.3379  -21.1292  -12.3281 C   0  0  0  0  0  0  0  0  0  0  0  0
   21.6508  -21.7227  -11.2643 O   0  0  0  0  0  0  0  0  0  0  0  0
   20.2121  -20.3181  -12.2968 O   0  0  0  0  0  0  0  0  0  0  0  0
  2  1  1  0
  3  2  1  0
  3  4  2  0
  5  3  1  0
  6  5  1  0
  6  7  1  1
  8  7  1  0
  8  9  2  0
 10  9  1  0
 11 10  2  0
 12 13  2  0
 12 11  1  0
 13  8  1  0
 14 22  1  0
 14  6  1  0
 15 14  2  0
 16 17  1  0
 17 19  1  0
 18 17  2  0
 20 19  1  0
 21 20  1  1
 21 22  1  0
 21 23  1  0
 23 25  1  0
 24 23  2  0
M  END
$$$$
