GFQ.pdb
     RDKit          3D

 25 25  0  0  1  0  0  0  0  0999 V2000
   29.7022  -22.5000  -13.2585 N   0  0  0  0  0  0  0  0  0  0  0  0
   29.7314  -21.2876  -12.4858 C   0  0  0  0  0  0  0  0  0  0  0  0
   29.1871  -21.5209  -11.1302 C   0  0  0  0  0  0  0  0  0  0  0  0
   28.2456  -22.3366  -10.9619 O   0  0  0  0  0  0  0  0  0  0  0  0
   29.6839  -20.8547   -9.9738 N   0  0  0  0  0  0  0  0  0  0  0  0
   28.9623  -20.8682   -8.7001 C   0  0  1  0  0  0  0  0  0  0  0  0
   29.7796  -20.2013   -7.6093 C   0  0  0  0  0  0  0  0  0  0  0  0
   29.0865  -20.0637   -6.3304 C   0  0  0  0  0  0  0  0  0  0  0  0
   28.3595  -18.9115   -6.0579 C   0  0  0  0  0  0  0  0  0  0  0  0
   27.6937  -18.7296   -4.8685 C   0  0  0  0  0  0  0  0  0  0  0  0
   27.7112  -19.6927   -3.8690 C   0  0  0  0  0  0  0  0  0  0  0  0
   28.4356  -20.8449   -4.1365 C   0  0  0  0  0  0  0  0  0  0  0  0
   29.0971  -21.0130   -5.3319 C   0  0  0  0  0  0  0  0  0  0  0  0
   27.6322  -20.2095   -8.8523 C   0  0  0  0  0  0  0  0  0  0  0  0
   27.5630  -19.0629   -9.3676 O   0  0  0  0  0  0  0  0  0  0  0  0
   25.3958  -21.0408  -13.3631 N   0  0  0  0  0  0  0  0  0  0  0  0
   24.1474  -20.7490  -12.7604 C   0  0  0  0  0  0  0  0  0  0  0  0
   23.1138  -20.6810  -13.5091 O   0  0  0  0  0  0  0  0  0  0  0  0
   23.9903  -20.5290  -11.3191 C   0  0  0  0  0  0  0  0  0  0  0  0
   25.2068  -20.6883  -10.4855 C   0  0  0  0  0  0  0  0  0  0  0  0
   25.1071  -20.4414   -9.0242 C   0  0  2  0  0  0  0  0  0  0  0  0
   26.4274  -20.8137   -8.4418 N   0  0  0  0  0  0  0  0  0  0  0  0
   24.0977  -21.2306   -8.3443 C   0  0  0  0  0  0  0  0  0  0  0  0
   22.8813  -20.9201   -8.4208 O   0  0  0  0  0  0  0  0  0  0  0  0
   24.4229  -22.3489   -7.5894 O   0  0  0  0  0  0  0  0  0  0  0  0
  2  1  1  0
  3  2  1  0
  3  4  2  0
  5  3  1  0
  6  5  1  0
  6  7  1  1
  8  7  1  0
  8  9  2  0
 10  9  1  0
 11 10  2  0
 12 13  2  0
 12 11  1  0
 13  8  1  0
 14 22  1  0
 14  6  1  0
 15 14  2  0
 16 17  1  0
 17 19  1  0
 18 17  2  0
 20 19  1  0
 21 20  1  6
 21 22  1  0
 21 23  1  0
 23 25  1  0
 24 23  2  0
M  END
$$$$
