GFY.pdb
     RDKit          3D

 28 29  0  0  1  0  0  0  0  0999 V2000
    9.6509  -16.5151   18.0414 N   0  0  0  0  0  0  0  0  0  0  0  0
    8.9004  -17.0752   19.1473 C   0  0  0  0  0  0  0  0  0  0  0  0
    8.9877  -16.2108   20.3467 C   0  0  0  0  0  0  0  0  0  0  0  0
   10.0652  -15.5934   20.5474 O   0  0  0  0  0  0  0  0  0  0  0  0
    7.9132  -16.0567   21.2648 N   0  0  0  0  0  0  0  0  0  0  0  0
    8.0518  -15.2795   22.4559 C   0  0  1  0  0  0  0  0  0  0  0  0
    6.7228  -14.7351   22.9458 C   0  0  0  0  0  0  0  0  0  0  0  0
    6.8755  -13.9117   24.1553 C   0  0  0  0  0  0  0  0  0  0  0  0
    7.4340  -12.6397   24.0572 C   0  0  0  0  0  0  0  0  0  0  0  0
    7.5922  -11.8373   25.1679 C   0  0  0  0  0  0  0  0  0  0  0  0
    7.2013  -12.2698   26.4159 C   0  0  0  0  0  0  0  0  0  0  0  0
    6.6476  -13.5289   26.5181 C   0  0  0  0  0  0  0  0  0  0  0  0
    6.4905  -14.3296   25.4048 C   0  0  0  0  0  0  0  0  0  0  0  0
    8.7488  -15.9632   23.5677 C   0  0  0  0  0  0  0  0  0  0  0  0
    8.4286  -17.0930   24.0174 O   0  0  0  0  0  0  0  0  0  0  0  0
   11.2812  -16.7669   31.6043 O   0  0  0  0  0  0  0  0  0  0  0  0
   11.1962  -16.2807   30.3068 C   0  0  0  0  0  0  0  0  0  0  0  0
   10.3171  -15.2634   30.0040 C   0  0  0  0  0  0  0  0  0  0  0  0
   10.1845  -14.7383   28.7440 C   0  0  0  0  0  0  0  0  0  0  0  0
   10.9611  -15.2324   27.6894 C   0  0  0  0  0  0  0  0  0  0  0  0
   10.8177  -14.6988   26.3226 C   0  0  0  0  0  0  0  0  0  0  0  0
   10.5404  -15.8155   25.3369 C   0  0  2  0  0  0  0  0  0  0  0  0
    9.8585  -15.2839   24.1574 N   0  0  0  0  0  0  0  0  0  0  0  0
    9.6811  -16.8152   25.9869 C   0  0  0  0  0  0  0  0  0  0  0  0
    8.5002  -16.6327   26.3745 O   0  0  0  0  0  0  0  0  0  0  0  0
   11.8330  -16.2461   28.0037 C   0  0  0  0  0  0  0  0  0  0  0  0
   11.9667  -16.7770   29.2797 C   0  0  0  0  0  0  0  0  0  0  0  0
   10.1765  -18.0923   26.2131 O   0  0  0  0  0  0  0  0  0  0  0  0
  2  1  1  0
  2  3  1  0
  3  4  2  0
  5  3  1  0
  5  6  1  0
  6  7  1  1
  8  7  1  0
  9  8  2  0
 10  9  1  0
 11 12  1  0
 11 10  2  0
 12 13  2  0
 13  8  1  0
 14  6  1  0
 14 15  2  0
 16 17  1  0
 17 27  2  0
 17 18  1  0
 18 19  2  0
 19 20  1  0
 20 21  1  0
 22 21  1  1
 22 23  1  0
 23 14  1  0
 24 28  1  0
 24 22  1  0
 25 24  2  0
 26 20  2  0
 27 26  1  0
M  END
$$$$
