GFY.pdb
     RDKit          3D

 28 29  0  0  1  0  0  0  0  0999 V2000
   10.1148  -16.0809   15.5537 N   0  0  0  0  0  0  0  0  0  0  0  0
   10.0637  -16.8805   16.7612 C   0  0  0  0  0  0  0  0  0  0  0  0
   10.6187  -16.1407   17.9179 C   0  0  0  0  0  0  0  0  0  0  0  0
   11.6947  -15.5111   17.7498 O   0  0  0  0  0  0  0  0  0  0  0  0
    9.9878  -16.1175   19.1918 N   0  0  0  0  0  0  0  0  0  0  0  0
   10.6595  -15.6205   20.3509 C   0  0  1  0  0  0  0  0  0  0  0  0
    9.6954  -15.0509   21.3750 C   0  0  0  0  0  0  0  0  0  0  0  0
    8.7106  -14.1458   20.7627 C   0  0  0  0  0  0  0  0  0  0  0  0
    9.0773  -12.8397   20.4476 C   0  0  0  0  0  0  0  0  0  0  0  0
    8.1829  -11.9619   19.8714 C   0  0  0  0  0  0  0  0  0  0  0  0
    6.8921  -12.3501   19.5875 C   0  0  0  0  0  0  0  0  0  0  0  0
    6.5243  -13.6427   19.8977 C   0  0  0  0  0  0  0  0  0  0  0  0
    7.4216  -14.5189   20.4743 C   0  0  0  0  0  0  0  0  0  0  0  0
   11.5671  -16.5876   21.0072 C   0  0  0  0  0  0  0  0  0  0  0  0
   11.3782  -17.8304   21.0357 O   0  0  0  0  0  0  0  0  0  0  0  0
   16.5699  -14.2329   17.2194 O   0  0  0  0  0  0  0  0  0  0  0  0
   16.0535  -15.1119   18.1616 C   0  0  0  0  0  0  0  0  0  0  0  0
   15.5678  -14.6361   19.3604 C   0  0  0  0  0  0  0  0  0  0  0  0
   15.0447  -15.4499   20.3326 C   0  0  0  0  0  0  0  0  0  0  0  0
   14.9840  -16.8344   20.1351 C   0  0  0  0  0  0  0  0  0  0  0  0
   14.4477  -17.7296   21.1762 C   0  0  0  0  0  0  0  0  0  0  0  0
   13.7335  -16.9357   22.2509 C   0  0  2  0  0  0  0  0  0  0  0  0
   12.7319  -16.0599   21.6437 N   0  0  0  0  0  0  0  0  0  0  0  0
   14.7224  -16.1197   22.9696 C   0  0  0  0  0  0  0  0  0  0  0  0
   14.7439  -14.8648   23.0238 O   0  0  0  0  0  0  0  0  0  0  0  0
   15.4714  -17.2962   18.9368 C   0  0  0  0  0  0  0  0  0  0  0  0
   16.0006  -16.4715   17.9531 C   0  0  0  0  0  0  0  0  0  0  0  0
   15.7441  -16.7494   23.6675 O   0  0  0  0  0  0  0  0  0  0  0  0
  2  1  1  0
  2  3  1  0
  3  4  2  0
  5  3  1  0
  5  6  1  0
  6  7  1  1
  8  7  1  0
  9  8  2  0
 10  9  1  0
 11 12  1  0
 11 10  2  0
 12 13  2  0
 13  8  1  0
 14  6  1  0
 14 15  2  0
 16 17  1  0
 17 27  2  0
 17 18  1  0
 18 19  2  0
 19 20  1  0
 20 21  1  0
 22 21  1  6
 22 23  1  0
 23 14  1  0
 24 28  1  0
 24 22  1  0
 25 24  2  0
 26 20  2  0
 27 26  1  0
M  END
$$$$
