GFY.pdb
     RDKit          3D

 28 29  0  0  1  0  0  0  0  0999 V2000
    6.6079  -19.0703   20.8863 N   0  0  0  0  0  0  0  0  0  0  0  0
    6.1935  -18.9410   22.2690 C   0  0  0  0  0  0  0  0  0  0  0  0
    6.8921  -17.8179   22.9352 C   0  0  0  0  0  0  0  0  0  0  0  0
    7.8470  -17.2749   22.3222 O   0  0  0  0  0  0  0  0  0  0  0  0
    6.5269  -17.3393   24.2232 N   0  0  0  0  0  0  0  0  0  0  0  0
    7.2581  -16.2951   24.8688 C   0  0  1  0  0  0  0  0  0  0  0  0
    6.4333  -15.5825   25.9245 C   0  0  0  0  0  0  0  0  0  0  0  0
    7.0458  -14.3108   26.3385 C   0  0  0  0  0  0  0  0  0  0  0  0
    6.6204  -13.1191   25.7566 C   0  0  0  0  0  0  0  0  0  0  0  0
    7.1692  -11.9068   26.1194 C   0  0  0  0  0  0  0  0  0  0  0  0
    8.1603  -11.8348   27.0733 C   0  0  0  0  0  0  0  0  0  0  0  0
    8.5850  -13.0124   27.6524 C   0  0  0  0  0  0  0  0  0  0  0  0
    8.0339  -14.2241   27.2873 C   0  0  0  0  0  0  0  0  0  0  0  0
    8.5552  -16.7095   25.4480 C   0  0  0  0  0  0  0  0  0  0  0  0
    8.7295  -17.7592   26.1180 O   0  0  0  0  0  0  0  0  0  0  0  0
   17.3833  -17.1381   25.5335 O   0  0  0  0  0  0  0  0  0  0  0  0
   16.0825  -16.6736   25.3952 C   0  0  0  0  0  0  0  0  0  0  0  0
   15.1890  -17.3449   24.5885 C   0  0  0  0  0  0  0  0  0  0  0  0
   13.8912  -16.9395   24.4090 C   0  0  0  0  0  0  0  0  0  0  0  0
   13.4141  -15.7950   25.0586 C   0  0  0  0  0  0  0  0  0  0  0  0
   12.0299  -15.3281   24.8612 C   0  0  0  0  0  0  0  0  0  0  0  0
   11.0432  -16.2970   25.4803 C   0  0  2  0  0  0  0  0  0  0  0  0
    9.6746  -15.8518   25.2204 N   0  0  0  0  0  0  0  0  0  0  0  0
   11.2736  -16.3411   26.9313 C   0  0  0  0  0  0  0  0  0  0  0  0
   10.8051  -15.5393   27.7773 O   0  0  0  0  0  0  0  0  0  0  0  0
   14.3140  -15.1347   25.8593 C   0  0  0  0  0  0  0  0  0  0  0  0
   15.6278  -15.5460   26.0405 C   0  0  0  0  0  0  0  0  0  0  0  0
   12.0747  -17.3434   27.4614 O   0  0  0  0  0  0  0  0  0  0  0  0
  2  1  1  0
  2  3  1  0
  3  4  2  0
  5  3  1  0
  5  6  1  0
  6  7  1  1
  8  7  1  0
  9  8  2  0
 10  9  1  0
 11 12  1  0
 11 10  2  0
 12 13  2  0
 13  8  1  0
 14  6  1  0
 14 15  2  0
 16 17  1  0
 17 27  2  0
 17 18  1  0
 18 19  2  0
 19 20  1  0
 20 21  1  0
 22 21  1  6
 22 23  1  0
 23 14  1  0
 24 28  1  0
 24 22  1  0
 25 24  2  0
 26 20  2  0
 27 26  1  0
M  END
$$$$
