GFY.pdb
     RDKit          3D

 28 29  0  0  1  0  0  0  0  0999 V2000
   10.9027  -17.8883   20.4791 N   0  0  0  0  0  0  0  0  0  0  0  0
    9.5525  -17.5531   20.8849 C   0  0  0  0  0  0  0  0  0  0  0  0
    9.5545  -16.6030   22.0210 C   0  0  0  0  0  0  0  0  0  0  0  0
   10.6523  -16.3713   22.5897 O   0  0  0  0  0  0  0  0  0  0  0  0
    8.3774  -15.9539   22.4841 N   0  0  0  0  0  0  0  0  0  0  0  0
    8.3815  -15.1494   23.6651 C   0  0  1  0  0  0  0  0  0  0  0  0
    7.1385  -14.2865   23.7780 C   0  0  0  0  0  0  0  0  0  0  0  0
    7.2144  -13.3546   24.9137 C   0  0  0  0  0  0  0  0  0  0  0  0
    6.3189  -13.4837   25.9724 C   0  0  0  0  0  0  0  0  0  0  0  0
    6.3595  -12.6306   27.0554 C   0  0  0  0  0  0  0  0  0  0  0  0
    7.2912  -11.6185   27.1255 C   0  0  0  0  0  0  0  0  0  0  0  0
    8.1802  -11.4865   26.0794 C   0  0  0  0  0  0  0  0  0  0  0  0
    8.1372  -12.3419   24.9968 C   0  0  0  0  0  0  0  0  0  0  0  0
    8.5841  -15.8962   24.9264 C   0  0  0  0  0  0  0  0  0  0  0  0
    7.8762  -16.8671   25.2970 O   0  0  0  0  0  0  0  0  0  0  0  0
   11.3091  -21.3379   23.4626 O   0  0  0  0  0  0  0  0  0  0  0  0
   11.3015  -20.2531   24.3286 C   0  0  0  0  0  0  0  0  0  0  0  0
   11.6948  -19.0090   23.8846 C   0  0  0  0  0  0  0  0  0  0  0  0
   11.7104  -17.8975   24.6879 C   0  0  0  0  0  0  0  0  0  0  0  0
   11.3153  -17.9906   26.0275 C   0  0  0  0  0  0  0  0  0  0  0  0
   11.3470  -16.8137   26.9147 C   0  0  0  0  0  0  0  0  0  0  0  0
    9.9755  -16.1772   27.0112 C   0  0  2  0  0  0  0  0  0  0  0  0
    9.6603  -15.4766   25.7668 N   0  0  0  0  0  0  0  0  0  0  0  0
    9.9792  -15.2163   28.1234 C   0  0  0  0  0  0  0  0  0  0  0  0
    9.7946  -13.9774   28.0286 O   0  0  0  0  0  0  0  0  0  0  0  0
   10.9259  -19.2355   26.4581 C   0  0  0  0  0  0  0  0  0  0  0  0
   10.9104  -20.3602   25.6440 C   0  0  0  0  0  0  0  0  0  0  0  0
   10.2017  -15.6738   29.4152 O   0  0  0  0  0  0  0  0  0  0  0  0
  2  1  1  0
  2  3  1  0
  3  4  2  0
  5  3  1  0
  5  6  1  0
  6  7  1  1
  8  7  1  0
  9  8  2  0
 10  9  1  0
 11 12  1  0
 11 10  2  0
 12 13  2  0
 13  8  1  0
 14  6  1  0
 14 15  2  0
 16 17  1  0
 17 27  2  0
 17 18  1  0
 18 19  2  0
 19 20  1  0
 20 21  1  0
 22 21  1  6
 22 23  1  0
 23 14  1  0
 24 28  1  0
 24 22  1  0
 25 24  2  0
 26 20  2  0
 27 26  1  0
M  END
$$$$
