GFY.pdb
     RDKit          3D

 28 29  0  0  1  0  0  0  0  0999 V2000
   10.8209  -16.9337   19.9128 N   0  0  0  0  0  0  0  0  0  0  0  0
    9.4692  -16.6590   20.3575 C   0  0  0  0  0  0  0  0  0  0  0  0
    9.4663  -15.9515   21.6586 C   0  0  0  0  0  0  0  0  0  0  0  0
   10.5610  -15.8411   22.2685 O   0  0  0  0  0  0  0  0  0  0  0  0
    8.2881  -15.4014   22.2334 N   0  0  0  0  0  0  0  0  0  0  0  0
    8.2963  -14.8067   23.5327 C   0  0  1  0  0  0  0  0  0  0  0  0
    7.1005  -13.9002   23.7584 C   0  0  0  0  0  0  0  0  0  0  0  0
    7.1105  -13.2967   25.0999 C   0  0  0  0  0  0  0  0  0  0  0  0
    7.8592  -12.1457   25.3324 C   0  0  0  0  0  0  0  0  0  0  0  0
    7.8926  -11.5496   26.5758 C   0  0  0  0  0  0  0  0  0  0  0  0
    7.1833  -12.0756   27.6329 C   0  0  0  0  0  0  0  0  0  0  0  0
    6.4402  -13.2155   27.4075 C   0  0  0  0  0  0  0  0  0  0  0  0
    6.4087  -13.8098   26.1621 C   0  0  0  0  0  0  0  0  0  0  0  0
    8.4128  -15.7641   24.6549 C   0  0  0  0  0  0  0  0  0  0  0  0
    7.5740  -16.6663   24.9072 O   0  0  0  0  0  0  0  0  0  0  0  0
   15.4142  -15.6796   23.5094 O   0  0  0  0  0  0  0  0  0  0  0  0
   14.2533  -16.1934   24.0709 C   0  0  0  0  0  0  0  0  0  0  0  0
   13.9903  -16.0071   25.4110 C   0  0  0  0  0  0  0  0  0  0  0  0
   12.8633  -16.4881   26.0270 C   0  0  0  0  0  0  0  0  0  0  0  0
   11.9117  -17.2068   25.2938 C   0  0  0  0  0  0  0  0  0  0  0  0
   10.7050  -17.7530   25.9409 C   0  0  0  0  0  0  0  0  0  0  0  0
    9.8594  -16.6403   26.5260 C   0  0  2  0  0  0  0  0  0  0  0  0
    9.5605  -15.6450   25.4970 N   0  0  0  0  0  0  0  0  0  0  0  0
   10.6096  -16.0023   27.6171 C   0  0  0  0  0  0  0  0  0  0  0  0
   10.9650  -14.7983   27.6625 O   0  0  0  0  0  0  0  0  0  0  0  0
   12.1853  -17.3860   23.9597 C   0  0  0  0  0  0  0  0  0  0  0  0
   13.3266  -16.8985   23.3369 C   0  0  0  0  0  0  0  0  0  0  0  0
   10.9803  -16.7600   28.7199 O   0  0  0  0  0  0  0  0  0  0  0  0
  2  1  1  0
  2  3  1  0
  3  4  2  0
  5  3  1  0
  5  6  1  0
  6  7  1  1
  8  7  1  0
  9  8  2  0
 10  9  1  0
 11 12  1  0
 11 10  2  0
 12 13  2  0
 13  8  1  0
 14  6  1  0
 14 15  2  0
 16 17  1  0
 17 27  2  0
 17 18  1  0
 18 19  2  0
 19 20  1  0
 20 21  1  0
 22 21  1  6
 22 23  1  0
 23 14  1  0
 24 28  1  0
 24 22  1  0
 25 24  2  0
 26 20  2  0
 27 26  1  0
M  END
$$$$
