GFY.pdb
     RDKit          3D

 28 29  0  0  1  0  0  0  0  0999 V2000
    7.1239  -20.4385   22.1167 N   0  0  0  0  0  0  0  0  0  0  0  0
    6.8558  -19.9045   23.4370 C   0  0  0  0  0  0  0  0  0  0  0  0
    7.2026  -18.4668   23.5143 C   0  0  0  0  0  0  0  0  0  0  0  0
    7.9526  -17.9956   22.6211 O   0  0  0  0  0  0  0  0  0  0  0  0
    6.7250  -17.6138   24.5466 N   0  0  0  0  0  0  0  0  0  0  0  0
    7.1579  -16.2565   24.6564 C   0  0  1  0  0  0  0  0  0  0  0  0
    6.1867  -15.4052   25.4532 C   0  0  0  0  0  0  0  0  0  0  0  0
    6.5778  -13.9872   25.4665 C   0  0  0  0  0  0  0  0  0  0  0  0
    6.8399  -13.3330   24.2653 C   0  0  0  0  0  0  0  0  0  0  0  0
    7.2076  -12.0040   24.2367 C   0  0  0  0  0  0  0  0  0  0  0  0
    7.3281  -11.2770   25.4004 C   0  0  0  0  0  0  0  0  0  0  0  0
    7.0696  -11.9205   26.5927 C   0  0  0  0  0  0  0  0  0  0  0  0
    6.7018  -13.2507   26.6181 C   0  0  0  0  0  0  0  0  0  0  0  0
    8.5265  -16.0808   25.1908 C   0  0  0  0  0  0  0  0  0  0  0  0
    8.8015  -15.9677   26.4126 O   0  0  0  0  0  0  0  0  0  0  0  0
   10.7065  -15.1978   30.9979 O   0  0  0  0  0  0  0  0  0  0  0  0
   10.8784  -15.6646   29.7019 C   0  0  0  0  0  0  0  0  0  0  0  0
   10.7541  -14.8036   28.6329 C   0  0  0  0  0  0  0  0  0  0  0  0
   10.9115  -15.2001   27.3295 C   0  0  0  0  0  0  0  0  0  0  0  0
   11.2132  -16.5339   27.0303 C   0  0  0  0  0  0  0  0  0  0  0  0
   11.3632  -16.9866   25.6354 C   0  0  0  0  0  0  0  0  0  0  0  0
   10.9861  -15.8821   24.6692 C   0  0  2  0  0  0  0  0  0  0  0  0
    9.5959  -16.0418   24.2445 N   0  0  0  0  0  0  0  0  0  0  0  0
   11.8663  -15.9626   23.4949 C   0  0  0  0  0  0  0  0  0  0  0  0
   11.5618  -16.4471   22.3765 O   0  0  0  0  0  0  0  0  0  0  0  0
   11.3342  -17.3821   28.1039 C   0  0  0  0  0  0  0  0  0  0  0  0
   11.1747  -16.9796   29.4232 C   0  0  0  0  0  0  0  0  0  0  0  0
   13.1614  -15.4699   23.5819 O   0  0  0  0  0  0  0  0  0  0  0  0
  2  1  1  0
  2  3  1  0
  3  4  2  0
  5  3  1  0
  5  6  1  0
  6  7  1  1
  8  7  1  0
  9  8  2  0
 10  9  1  0
 11 12  1  0
 11 10  2  0
 12 13  2  0
 13  8  1  0
 14  6  1  0
 14 15  2  0
 16 17  1  0
 17 27  2  0
 17 18  1  0
 18 19  2  0
 19 20  1  0
 20 21  1  0
 22 21  1  1
 22 23  1  0
 23 14  1  0
 24 28  1  0
 24 22  1  0
 25 24  2  0
 26 20  2  0
 27 26  1  0
M  END
$$$$
