GFY.pdb
     RDKit          3D

 28 29  0  0  1  0  0  0  0  0999 V2000
   10.0198  -16.4193   18.1458 N   0  0  0  0  0  0  0  0  0  0  0  0
    9.0391  -16.9014   19.0976 C   0  0  0  0  0  0  0  0  0  0  0  0
    9.1481  -16.1849   20.3891 C   0  0  0  0  0  0  0  0  0  0  0  0
   10.2835  -15.7674   20.7340 O   0  0  0  0  0  0  0  0  0  0  0  0
    8.0320  -15.9561   21.2395 N   0  0  0  0  0  0  0  0  0  0  0  0
    8.1816  -15.3477   22.5238 C   0  0  1  0  0  0  0  0  0  0  0  0
    6.8550  -14.8933   23.1035 C   0  0  0  0  0  0  0  0  0  0  0  0
    7.0300  -14.1160   24.3401 C   0  0  0  0  0  0  0  0  0  0  0  0
    6.7371  -14.7012   25.5694 C   0  0  0  0  0  0  0  0  0  0  0  0
    6.8899  -14.0055   26.7506 C   0  0  0  0  0  0  0  0  0  0  0  0
    7.3391  -12.7034   26.7529 C   0  0  0  0  0  0  0  0  0  0  0  0
    7.6305  -12.1195   25.5378 C   0  0  0  0  0  0  0  0  0  0  0  0
    7.4767  -12.8182   24.3574 C   0  0  0  0  0  0  0  0  0  0  0  0
    8.9045  -16.1680   23.5208 C   0  0  0  0  0  0  0  0  0  0  0  0
    8.8065  -17.4180   23.6158 O   0  0  0  0  0  0  0  0  0  0  0  0
   10.0073  -15.5228   31.1693 O   0  0  0  0  0  0  0  0  0  0  0  0
   10.4247  -15.3869   29.8524 C   0  0  0  0  0  0  0  0  0  0  0  0
   10.8614  -16.4873   29.1466 C   0  0  0  0  0  0  0  0  0  0  0  0
   11.2864  -16.4215   27.8444 C   0  0  0  0  0  0  0  0  0  0  0  0
   11.2918  -15.1971   27.1658 C   0  0  0  0  0  0  0  0  0  0  0  0
   11.7669  -15.0997   25.7737 C   0  0  0  0  0  0  0  0  0  0  0  0
   11.0247  -16.0757   24.8837 C   0  0  2  0  0  0  0  0  0  0  0  0
    9.7693  -15.4809   24.4266 N   0  0  0  0  0  0  0  0  0  0  0  0
   10.7344  -17.2914   25.6570 C   0  0  0  0  0  0  0  0  0  0  0  0
   11.5847  -18.0930   26.1181 O   0  0  0  0  0  0  0  0  0  0  0  0
   10.8548  -14.1081   27.8798 C   0  0  0  0  0  0  0  0  0  0  0  0
   10.4245  -14.1757   29.1983 C   0  0  0  0  0  0  0  0  0  0  0  0
    9.4142  -17.6246   25.9283 O   0  0  0  0  0  0  0  0  0  0  0  0
  2  1  1  0
  2  3  1  0
  3  4  2  0
  5  3  1  0
  5  6  1  0
  6  7  1  1
  8  7  1  0
  9  8  2  0
 10  9  1  0
 11 12  1  0
 11 10  2  0
 12 13  2  0
 13  8  1  0
 14  6  1  0
 14 15  2  0
 16 17  1  0
 17 27  2  0
 17 18  1  0
 18 19  2  0
 19 20  1  0
 20 21  1  0
 22 21  1  1
 22 23  1  0
 23 14  1  0
 24 28  1  0
 24 22  1  0
 25 24  2  0
 26 20  2  0
 27 26  1  0
M  END
$$$$
