GFY.pdb
     RDKit          3D

 28 29  0  0  1  0  0  0  0  0999 V2000
   10.1674  -17.3506   18.9493 N   0  0  0  0  0  0  0  0  0  0  0  0
    8.9839  -17.4013   19.7842 C   0  0  0  0  0  0  0  0  0  0  0  0
    9.0613  -16.4131   20.8845 C   0  0  0  0  0  0  0  0  0  0  0  0
   10.1939  -15.9523   21.1803 O   0  0  0  0  0  0  0  0  0  0  0  0
    7.9183  -15.9737   21.6068 N   0  0  0  0  0  0  0  0  0  0  0  0
    8.0286  -15.0568   22.6972 C   0  0  1  0  0  0  0  0  0  0  0  0
    6.6913  -14.4465   23.0737 C   0  0  0  0  0  0  0  0  0  0  0  0
    6.7973  -13.5645   24.2462 C   0  0  0  0  0  0  0  0  0  0  0  0
    6.2983  -13.9886   25.4752 C   0  0  0  0  0  0  0  0  0  0  0  0
    6.3804  -13.1910   26.5975 C   0  0  0  0  0  0  0  0  0  0  0  0
    6.9612  -11.9434   26.5391 C   0  0  0  0  0  0  0  0  0  0  0  0
    7.4570  -11.5189   25.3240 C   0  0  0  0  0  0  0  0  0  0  0  0
    7.3734  -12.3194   24.2026 C   0  0  0  0  0  0  0  0  0  0  0  0
    8.6833  -15.6034   23.9064 C   0  0  0  0  0  0  0  0  0  0  0  0
    8.3489  -16.6766   24.4700 O   0  0  0  0  0  0  0  0  0  0  0  0
   11.8709  -16.8594   31.7000 O   0  0  0  0  0  0  0  0  0  0  0  0
   11.2621  -16.5216   30.4991 C   0  0  0  0  0  0  0  0  0  0  0  0
   10.7567  -17.5058   29.6773 C   0  0  0  0  0  0  0  0  0  0  0  0
   10.1441  -17.2399   28.4794 C   0  0  0  0  0  0  0  0  0  0  0  0
   10.0065  -15.9192   28.0362 C   0  0  0  0  0  0  0  0  0  0  0  0
    9.3727  -15.6124   26.7411 C   0  0  0  0  0  0  0  0  0  0  0  0
   10.4171  -15.2526   25.7042 C   0  0  2  0  0  0  0  0  0  0  0  0
    9.7669  -14.8528   24.4568 N   0  0  0  0  0  0  0  0  0  0  0  0
   11.2614  -16.4302   25.4576 C   0  0  0  0  0  0  0  0  0  0  0  0
   12.4944  -16.5142   25.6831 O   0  0  0  0  0  0  0  0  0  0  0  0
   10.5142  -14.9476   28.8637 C   0  0  0  0  0  0  0  0  0  0  0  0
   11.1342  -15.2178   30.0764 C   0  0  0  0  0  0  0  0  0  0  0  0
   10.6875  -17.5785   24.9289 O   0  0  0  0  0  0  0  0  0  0  0  0
  2  1  1  0
  2  3  1  0
  3  4  2  0
  5  3  1  0
  5  6  1  0
  6  7  1  1
  8  7  1  0
  9  8  2  0
 10  9  1  0
 11 12  1  0
 11 10  2  0
 12 13  2  0
 13  8  1  0
 14  6  1  0
 14 15  2  0
 16 17  1  0
 17 27  2  0
 17 18  1  0
 18 19  2  0
 19 20  1  0
 20 21  1  0
 22 21  1  1
 22 23  1  0
 23 14  1  0
 24 28  1  0
 24 22  1  0
 25 24  2  0
 26 20  2  0
 27 26  1  0
M  END
$$$$
