GFY.pdb
     RDKit          3D

 28 29  0  0  1  0  0  0  0  0999 V2000
    5.0716  -20.0461   21.9251 N   0  0  0  0  0  0  0  0  0  0  0  0
    4.8887  -19.5850   23.2868 C   0  0  0  0  0  0  0  0  0  0  0  0
    5.6109  -18.3139   23.5239 C   0  0  0  0  0  0  0  0  0  0  0  0
    6.1381  -17.7454   22.5332 O   0  0  0  0  0  0  0  0  0  0  0  0
    5.7274  -17.7230   24.8117 N   0  0  0  0  0  0  0  0  0  0  0  0
    6.4784  -16.5255   25.0207 C   0  0  1  0  0  0  0  0  0  0  0  0
    6.1136  -15.8371   26.3229 C   0  0  0  0  0  0  0  0  0  0  0  0
    6.7290  -14.5057   26.4351 C   0  0  0  0  0  0  0  0  0  0  0  0
    5.9793  -13.3720   26.1314 C   0  0  0  0  0  0  0  0  0  0  0  0
    6.5204  -12.1068   26.2259 C   0  0  0  0  0  0  0  0  0  0  0  0
    7.8256  -11.9224   26.6255 C   0  0  0  0  0  0  0  0  0  0  0  0
    8.5721  -13.0422   26.9274 C   0  0  0  0  0  0  0  0  0  0  0  0
    8.0279  -14.3071   26.8319 C   0  0  0  0  0  0  0  0  0  0  0  0
    7.9468  -16.6893   24.9399 C   0  0  0  0  0  0  0  0  0  0  0  0
    8.6132  -17.4758   25.6600 O   0  0  0  0  0  0  0  0  0  0  0  0
    7.7504  -11.8411   19.3847 O   0  0  0  0  0  0  0  0  0  0  0  0
    8.2125  -12.9910   20.0101 C   0  0  0  0  0  0  0  0  0  0  0  0
    9.5660  -13.1994   20.1654 C   0  0  0  0  0  0  0  0  0  0  0  0
   10.0876  -14.3126   20.7734 C   0  0  0  0  0  0  0  0  0  0  0  0
    9.2374  -15.3063   21.2727 C   0  0  0  0  0  0  0  0  0  0  0  0
    9.7773  -16.5219   21.9084 C   0  0  0  0  0  0  0  0  0  0  0  0
    9.9153  -16.3289   23.4048 C   0  0  2  0  0  0  0  0  0  0  0  0
    8.6390  -15.8972   23.9735 N   0  0  0  0  0  0  0  0  0  0  0  0
   10.9332  -15.2986   23.6551 C   0  0  0  0  0  0  0  0  0  0  0  0
   12.1387  -15.3524   23.3057 O   0  0  0  0  0  0  0  0  0  0  0  0
    7.8910  -15.0873   21.1116 C   0  0  0  0  0  0  0  0  0  0  0  0
    7.3639  -13.9598   20.4960 C   0  0  0  0  0  0  0  0  0  0  0  0
   10.5760  -14.1423   24.3353 O   0  0  0  0  0  0  0  0  0  0  0  0
  2  1  1  0
  2  3  1  0
  3  4  2  0
  5  3  1  0
  5  6  1  0
  6  7  1  1
  8  7  1  0
  9  8  2  0
 10  9  1  0
 11 12  1  0
 11 10  2  0
 12 13  2  0
 13  8  1  0
 14  6  1  0
 14 15  2  0
 16 17  1  0
 17 27  2  0
 17 18  1  0
 18 19  2  0
 19 20  1  0
 20 21  1  0
 22 21  1  6
 22 23  1  0
 23 14  1  0
 24 28  1  0
 24 22  1  0
 25 24  2  0
 26 20  2  0
 27 26  1  0
M  END
$$$$
