GFY.pdb
     RDKit          3D

 28 29  0  0  1  0  0  0  0  0999 V2000
    6.6033  -19.5535   21.1178 N   0  0  0  0  0  0  0  0  0  0  0  0
    6.0117  -19.1412   22.3748 C   0  0  0  0  0  0  0  0  0  0  0  0
    6.6663  -17.9213   22.9008 C   0  0  0  0  0  0  0  0  0  0  0  0
    7.6978  -17.5086   22.3109 O   0  0  0  0  0  0  0  0  0  0  0  0
    6.1774  -17.2115   24.0315 N   0  0  0  0  0  0  0  0  0  0  0  0
    6.8635  -16.0724   24.5545 C   0  0  1  0  0  0  0  0  0  0  0  0
    5.9680  -15.2107   25.4252 C   0  0  0  0  0  0  0  0  0  0  0  0
    6.6155  -13.9440   25.7998 C   0  0  0  0  0  0  0  0  0  0  0  0
    6.8011  -12.9539   24.8382 C   0  0  0  0  0  0  0  0  0  0  0  0
    7.4024  -11.7527   25.1511 C   0  0  0  0  0  0  0  0  0  0  0  0
    7.8410  -11.4920   26.4305 C   0  0  0  0  0  0  0  0  0  0  0  0
    7.6594  -12.4695   27.3864 C   0  0  0  0  0  0  0  0  0  0  0  0
    7.0572  -13.6707   27.0703 C   0  0  0  0  0  0  0  0  0  0  0  0
    8.1159  -16.3791   25.2804 C   0  0  0  0  0  0  0  0  0  0  0  0
    8.1659  -16.7696   26.4746 O   0  0  0  0  0  0  0  0  0  0  0  0
    8.1523  -20.1764   29.7855 O   0  0  0  0  0  0  0  0  0  0  0  0
    8.8397  -19.6146   28.7183 C   0  0  0  0  0  0  0  0  0  0  0  0
    8.3788  -19.7843   27.4305 C   0  0  0  0  0  0  0  0  0  0  0  0
    9.0100  -19.2562   26.3334 C   0  0  0  0  0  0  0  0  0  0  0  0
   10.1800  -18.5035   26.4880 C   0  0  0  0  0  0  0  0  0  0  0  0
   10.8876  -17.9468   25.3206 C   0  0  0  0  0  0  0  0  0  0  0  0
   10.6356  -16.4577   25.2003 C   0  0  2  0  0  0  0  0  0  0  0  0
    9.3410  -16.2191   24.5633 N   0  0  0  0  0  0  0  0  0  0  0  0
   11.6997  -15.8648   24.3777 C   0  0  0  0  0  0  0  0  0  0  0  0
   11.5485  -15.3233   23.2543 O   0  0  0  0  0  0  0  0  0  0  0  0
   10.6294  -18.3419   27.7759 C   0  0  0  0  0  0  0  0  0  0  0  0
    9.9896  -18.8768   28.8860 C   0  0  0  0  0  0  0  0  0  0  0  0
   13.0071  -15.8804   24.8444 O   0  0  0  0  0  0  0  0  0  0  0  0
  2  1  1  0
  2  3  1  0
  3  4  2  0
  5  3  1  0
  5  6  1  0
  6  7  1  1
  8  7  1  0
  9  8  2  0
 10  9  1  0
 11 12  1  0
 11 10  2  0
 12 13  2  0
 13  8  1  0
 14  6  1  0
 14 15  2  0
 16 17  1  0
 17 27  2  0
 17 18  1  0
 18 19  2  0
 19 20  1  0
 20 21  1  0
 22 21  1  6
 22 23  1  0
 23 14  1  0
 24 28  1  0
 24 22  1  0
 25 24  2  0
 26 20  2  0
 27 26  1  0
M  END
$$$$
