GFY.pdb
     RDKit          3D

 28 29  0  0  1  0  0  0  0  0999 V2000
    3.7343  -16.6169   21.5677 N   0  0  0  0  0  0  0  0  0  0  0  0
    4.5721  -17.3020   22.5315 C   0  0  0  0  0  0  0  0  0  0  0  0
    5.6990  -16.4453   22.9668 C   0  0  0  0  0  0  0  0  0  0  0  0
    6.1856  -15.6449   22.1272 O   0  0  0  0  0  0  0  0  0  0  0  0
    6.2417  -16.4950   24.2800 N   0  0  0  0  0  0  0  0  0  0  0  0
    7.4480  -15.8078   24.6180 C   0  0  1  0  0  0  0  0  0  0  0  0
    7.5834  -15.5838   26.1127 C   0  0  0  0  0  0  0  0  0  0  0  0
    7.0277  -14.2870   26.5293 C   0  0  0  0  0  0  0  0  0  0  0  0
    7.8553  -13.1683   26.5851 C   0  0  0  0  0  0  0  0  0  0  0  0
    7.3712  -11.9353   26.9693 C   0  0  0  0  0  0  0  0  0  0  0  0
    6.0474  -11.7693   27.3119 C   0  0  0  0  0  0  0  0  0  0  0  0
    5.2237  -12.8743   27.2581 C   0  0  0  0  0  0  0  0  0  0  0  0
    5.7111  -14.1070   26.8732 C   0  0  0  0  0  0  0  0  0  0  0  0
    8.6854  -16.4278   24.0946 C   0  0  0  0  0  0  0  0  0  0  0  0
    8.9414  -17.6576   24.1521 O   0  0  0  0  0  0  0  0  0  0  0  0
    6.9048  -14.3049   17.9344 O   0  0  0  0  0  0  0  0  0  0  0  0
    7.9406  -14.5356   18.8294 C   0  0  0  0  0  0  0  0  0  0  0  0
    8.4048  -13.5145   19.6303 C   0  0  0  0  0  0  0  0  0  0  0  0
    9.4236  -13.6758   20.5342 C   0  0  0  0  0  0  0  0  0  0  0  0
   10.0464  -14.9210   20.6793 C   0  0  0  0  0  0  0  0  0  0  0  0
   11.1591  -15.1104   21.6276 C   0  0  0  0  0  0  0  0  0  0  0  0
   10.7726  -16.0860   22.7205 C   0  0  2  0  0  0  0  0  0  0  0  0
    9.6416  -15.5599   23.4839 N   0  0  0  0  0  0  0  0  0  0  0  0
   11.9227  -16.2685   23.6174 C   0  0  0  0  0  0  0  0  0  0  0  0
   13.0694  -16.6529   23.2776 O   0  0  0  0  0  0  0  0  0  0  0  0
    9.5752  -15.9302   19.8755 C   0  0  0  0  0  0  0  0  0  0  0  0
    8.5435  -15.7660   18.9607 C   0  0  0  0  0  0  0  0  0  0  0  0
   11.7760  -16.0031   24.9722 O   0  0  0  0  0  0  0  0  0  0  0  0
  2  1  1  0
  2  3  1  0
  3  4  2  0
  5  3  1  0
  5  6  1  0
  6  7  1  1
  8  7  1  0
  9  8  2  0
 10  9  1  0
 11 12  1  0
 11 10  2  0
 12 13  2  0
 13  8  1  0
 14  6  1  0
 14 15  2  0
 16 17  1  0
 17 27  2  0
 17 18  1  0
 18 19  2  0
 19 20  1  0
 20 21  1  0
 22 21  1  6
 22 23  1  0
 23 14  1  0
 24 28  1  0
 24 22  1  0
 25 24  2  0
 26 20  2  0
 27 26  1  0
M  END
$$$$
