GFY.pdb
     RDKit          3D

 28 29  0  0  1  0  0  0  0  0999 V2000
    9.2236  -17.7721   20.3862 N   0  0  0  0  0  0  0  0  0  0  0  0
    8.1966  -17.9131   21.3989 C   0  0  0  0  0  0  0  0  0  0  0  0
    8.3940  -16.9439   22.5012 C   0  0  0  0  0  0  0  0  0  0  0  0
    9.4494  -16.2594   22.4982 O   0  0  0  0  0  0  0  0  0  0  0  0
    7.4472  -16.7628   23.5462 N   0  0  0  0  0  0  0  0  0  0  0  0
    7.6821  -15.8487   24.6191 C   0  0  1  0  0  0  0  0  0  0  0  0
    6.4004  -15.2133   25.1250 C   0  0  0  0  0  0  0  0  0  0  0  0
    6.6637  -14.0845   26.0307 C   0  0  0  0  0  0  0  0  0  0  0  0
    6.7188  -14.3019   27.4052 C   0  0  0  0  0  0  0  0  0  0  0  0
    6.9648  -13.2695   28.2863 C   0  0  0  0  0  0  0  0  0  0  0  0
    7.1649  -11.9842   27.8335 C   0  0  0  0  0  0  0  0  0  0  0  0
    7.1114  -11.7639   26.4730 C   0  0  0  0  0  0  0  0  0  0  0  0
    6.8650  -12.7989   25.5937 C   0  0  0  0  0  0  0  0  0  0  0  0
    8.4425  -16.4083   25.7585 C   0  0  0  0  0  0  0  0  0  0  0  0
    8.0798  -17.4071   26.4308 O   0  0  0  0  0  0  0  0  0  0  0  0
   12.8804  -18.0681   21.2292 O   0  0  0  0  0  0  0  0  0  0  0  0
   12.6721  -17.6236   22.5277 C   0  0  0  0  0  0  0  0  0  0  0  0
   12.5588  -16.2750   22.7887 C   0  0  0  0  0  0  0  0  0  0  0  0
   12.3526  -15.7705   24.0473 C   0  0  0  0  0  0  0  0  0  0  0  0
   12.2468  -16.6340   25.1440 C   0  0  0  0  0  0  0  0  0  0  0  0
   12.0489  -16.1118   26.5083 C   0  0  0  0  0  0  0  0  0  0  0  0
   10.6419  -16.3961   26.9930 C   0  0  2  0  0  0  0  0  0  0  0  0
    9.6688  -15.7623   26.1040 N   0  0  0  0  0  0  0  0  0  0  0  0
   10.4911  -15.8493   28.3489 C   0  0  0  0  0  0  0  0  0  0  0  0
   11.1480  -16.1968   29.3618 O   0  0  0  0  0  0  0  0  0  0  0  0
   12.3617  -17.9752   24.8710 C   0  0  0  0  0  0  0  0  0  0  0  0
   12.5703  -18.4851   23.5964 C   0  0  0  0  0  0  0  0  0  0  0  0
    9.5500  -14.8550   28.5793 O   0  0  0  0  0  0  0  0  0  0  0  0
  2  1  1  0
  2  3  1  0
  3  4  2  0
  5  3  1  0
  5  6  1  0
  6  7  1  1
  8  7  1  0
  9  8  2  0
 10  9  1  0
 11 12  1  0
 11 10  2  0
 12 13  2  0
 13  8  1  0
 14  6  1  0
 14 15  2  0
 16 17  1  0
 17 27  2  0
 17 18  1  0
 18 19  2  0
 19 20  1  0
 20 21  1  0
 22 21  1  6
 22 23  1  0
 23 14  1  0
 24 28  1  0
 24 22  1  0
 25 24  2  0
 26 20  2  0
 27 26  1  0
M  END
$$$$
