EMS.pdb
     RDKit          3D

 24 23  0  0  1  0  0  0  0  0999 V2000
    8.8836  -15.4655   19.2427 N   0  0  0  0  0  0  0  0  0  0  0  0
    7.9912  -15.7729   20.3259 C   0  0  1  0  0  0  0  0  0  0  0  0
    7.7027  -17.2612   20.3401 C   0  0  0  0  0  0  0  0  0  0  0  0
    7.8905  -17.8337   18.9453 C   0  0  0  0  0  0  0  0  0  0  0  0
    7.6668  -19.2847   18.9269 C   0  0  0  0  0  0  0  0  0  0  0  0
    8.4045  -20.0471   19.5971 O   0  0  0  0  0  0  0  0  0  0  0  0
    8.6010  -15.3901   21.6385 C   0  0  0  0  0  0  0  0  0  0  0  0
    9.8345  -15.4969   21.8281 O   0  0  0  0  0  0  0  0  0  0  0  0
    6.6456  -19.8103   18.1730 O   0  0  0  0  0  0  0  0  0  0  0  0
    7.0892  -11.5855   28.4744 C   0  0  0  0  0  0  0  0  0  0  0  0
    6.4883  -11.9604   26.7869 S   0  0  0  0  0  0  0  0  0  0  0  0
    7.5477  -13.3014   26.1213 C   0  0  0  0  0  0  0  0  0  0  0  0
    7.1546  -13.6396   24.7218 C   0  0  0  0  0  0  0  0  0  0  0  0
    8.1427  -14.5144   23.9824 C   0  0  2  0  0  0  0  0  0  0  0  0
    7.7897  -14.9069   22.6678 N   0  0  0  0  0  0  0  0  0  0  0  0
    8.6355  -15.5786   24.8265 C   0  0  0  0  0  0  0  0  0  0  0  0
    7.8623  -16.5679   25.0451 O   0  0  0  0  0  0  0  0  0  0  0  0
   11.7312  -17.4337   24.3767 O   0  0  0  0  0  0  0  0  0  0  0  0
   11.7427  -17.1435   25.7510 C   0  0  0  0  0  0  0  0  0  0  0  0
   10.3132  -16.8038   26.1854 C   0  0  2  0  0  0  0  0  0  0  0  0
    9.9170  -15.6057   25.4311 N   0  0  0  0  0  0  0  0  0  0  0  0
   10.2895  -16.4918   27.6259 C   0  0  0  0  0  0  0  0  0  0  0  0
    9.8956  -15.3625   28.0241 O   0  0  0  0  0  0  0  0  0  0  0  0
   10.7062  -17.4544   28.5495 O   0  0  0  0  0  0  0  0  0  0  0  0
  2  1  1  6
  2  3  1  0
  4  5  1  0
  4  3  1  0
  5  6  2  0
  7 15  1  0
  7  2  1  0
  8  7  2  0
  9  5  1  0
 10 11  1  0
 11 12  1  0
 12 13  1  0
 14 13  1  1
 14 15  1  0
 16 21  1  0
 16 14  1  0
 17 16  2  0
 20 19  1  6
 19 18  1  0
 20 21  1  0
 20 22  1  0
 22 24  1  0
 23 22  2  0
M  END
$$$$
