EMS.pdb
     RDKit          3D

 24 23  0  0  1  0  0  0  0  0999 V2000
    8.1290  -17.0951   20.3713 N   0  0  0  0  0  0  0  0  0  0  0  0
    9.4291  -17.4405   20.8760 C   0  0  1  0  0  0  0  0  0  0  0  0
   10.4826  -17.1056   19.8384 C   0  0  0  0  0  0  0  0  0  0  0  0
    9.8842  -17.2138   18.4460 C   0  0  0  0  0  0  0  0  0  0  0  0
   10.8776  -16.9039   17.4102 C   0  0  0  0  0  0  0  0  0  0  0  0
   12.0628  -16.6420   17.7285 O   0  0  0  0  0  0  0  0  0  0  0  0
    9.7300  -16.6776   22.1285 C   0  0  0  0  0  0  0  0  0  0  0  0
   10.8777  -16.6948   22.6298 O   0  0  0  0  0  0  0  0  0  0  0  0
   10.5083  -16.9005   16.0869 O   0  0  0  0  0  0  0  0  0  0  0  0
    6.5634  -11.6118   27.4343 C   0  0  0  0  0  0  0  0  0  0  0  0
    6.3693  -12.3746   25.7821 S   0  0  0  0  0  0  0  0  0  0  0  0
    7.6529  -13.6761   25.6334 C   0  0  0  0  0  0  0  0  0  0  0  0
    7.6275  -14.2899   24.2732 C   0  0  0  0  0  0  0  0  0  0  0  0
    8.7260  -15.2974   24.0146 C   0  0  2  0  0  0  0  0  0  0  0  0
    8.7228  -15.9356   22.7499 N   0  0  0  0  0  0  0  0  0  0  0  0
    8.9049  -16.1803   25.1445 C   0  0  0  0  0  0  0  0  0  0  0  0
    7.9489  -16.9714   25.4354 O   0  0  0  0  0  0  0  0  0  0  0  0
   12.4282  -17.4840   26.3046 O   0  0  0  0  0  0  0  0  0  0  0  0
   11.2665  -18.2346   26.5499 C   0  0  0  0  0  0  0  0  0  0  0  0
   10.1549  -17.2757   26.9883 C   0  0  2  0  0  0  0  0  0  0  0  0
   10.0658  -16.2333   25.9554 N   0  0  0  0  0  0  0  0  0  0  0  0
   10.5145  -16.6474   28.2723 C   0  0  0  0  0  0  0  0  0  0  0  0
   10.7502  -17.3614   29.2841 O   0  0  0  0  0  0  0  0  0  0  0  0
   10.5931  -15.2550   28.3636 O   0  0  0  0  0  0  0  0  0  0  0  0
  2  1  1  6
  2  3  1  0
  4  5  1  0
  4  3  1  0
  5  6  2  0
  7 15  1  0
  7  2  1  0
  8  7  2  0
  9  5  1  0
 10 11  1  0
 11 12  1  0
 12 13  1  0
 14 13  1  1
 14 15  1  0
 16 21  1  0
 16 14  1  0
 17 16  2  0
 20 19  1  6
 19 18  1  0
 20 21  1  0
 20 22  1  0
 22 24  1  0
 23 22  2  0
M  END
$$$$
