EMS.pdb
     RDKit          3D

 24 23  0  0  1  0  0  0  0  0999 V2000
    9.6949  -16.5641   19.7237 N   0  0  0  0  0  0  0  0  0  0  0  0
    8.6099  -16.5796   20.6654 C   0  0  1  0  0  0  0  0  0  0  0  0
    8.0931  -17.9962   20.8221 C   0  0  0  0  0  0  0  0  0  0  0  0
    9.1597  -18.9836   20.3792 C   0  0  0  0  0  0  0  0  0  0  0  0
    8.6659  -20.3653   20.4316 C   0  0  0  0  0  0  0  0  0  0  0  0
    9.4223  -21.3194   20.1278 O   0  0  0  0  0  0  0  0  0  0  0  0
    9.0633  -16.0837   22.0032 C   0  0  0  0  0  0  0  0  0  0  0  0
   10.2574  -16.2051   22.3611 O   0  0  0  0  0  0  0  0  0  0  0  0
    7.3704  -20.6151   20.8147 O   0  0  0  0  0  0  0  0  0  0  0  0
    6.8098  -11.3610   28.0177 C   0  0  0  0  0  0  0  0  0  0  0  0
    6.2823  -12.1549   26.4555 S   0  0  0  0  0  0  0  0  0  0  0  0
    7.5987  -13.3403   25.9802 C   0  0  0  0  0  0  0  0  0  0  0  0
    7.2928  -13.9680   24.6610 C   0  0  0  0  0  0  0  0  0  0  0  0
    8.3603  -14.9085   24.1468 C   0  0  2  0  0  0  0  0  0  0  0  0
    8.1482  -15.4772   22.8668 N   0  0  0  0  0  0  0  0  0  0  0  0
    8.7742  -15.8418   25.1694 C   0  0  0  0  0  0  0  0  0  0  0  0
    7.9650  -16.7755   25.4821 O   0  0  0  0  0  0  0  0  0  0  0  0
   12.6079  -16.4391   26.2121 O   0  0  0  0  0  0  0  0  0  0  0  0
   11.6714  -17.4794   26.3299 C   0  0  0  0  0  0  0  0  0  0  0  0
   10.3392  -16.8805   26.7924 C   0  0  2  0  0  0  0  0  0  0  0  0
   10.0151  -15.7975   25.8524 N   0  0  0  0  0  0  0  0  0  0  0  0
   10.4893  -16.3120   28.1440 C   0  0  0  0  0  0  0  0  0  0  0  0
   10.2614  -15.0888   28.3469 O   0  0  0  0  0  0  0  0  0  0  0  0
   10.8860  -17.1356   29.2013 O   0  0  0  0  0  0  0  0  0  0  0  0
  2  1  1  6
  2  3  1  0
  4  5  1  0
  4  3  1  0
  5  6  2  0
  7 15  1  0
  7  2  1  0
  8  7  2  0
  9  5  1  0
 10 11  1  0
 11 12  1  0
 12 13  1  0
 14 13  1  1
 14 15  1  0
 16 21  1  0
 16 14  1  0
 17 16  2  0
 20 19  1  6
 19 18  1  0
 20 21  1  0
 20 22  1  0
 22 24  1  0
 23 22  2  0
M  END
$$$$
