EMS.pdb
     RDKit          3D

 24 23  0  0  1  0  0  0  0  0999 V2000
    8.0887  -16.7295   20.9818 N   0  0  0  0  0  0  0  0  0  0  0  0
    9.4367  -17.1186   21.2911 C   0  0  1  0  0  0  0  0  0  0  0  0
   10.3966  -16.4187   20.3492 C   0  0  0  0  0  0  0  0  0  0  0  0
   10.3149  -17.0508   18.9700 C   0  0  0  0  0  0  0  0  0  0  0  0
   11.3439  -16.5123   18.0717 C   0  0  0  0  0  0  0  0  0  0  0  0
   12.2014  -15.7047   18.5042 O   0  0  0  0  0  0  0  0  0  0  0  0
    9.7860  -16.7436   22.6977 C   0  0  0  0  0  0  0  0  0  0  0  0
   10.9727  -16.7838   23.0963 O   0  0  0  0  0  0  0  0  0  0  0  0
   11.3685  -16.8940   16.7521 O   0  0  0  0  0  0  0  0  0  0  0  0
    6.7421  -11.0255   25.2710 C   0  0  0  0  0  0  0  0  0  0  0  0
    6.5277  -12.7469   25.8538 S   0  0  0  0  0  0  0  0  0  0  0  0
    7.8222  -13.7588   25.0387 C   0  0  0  0  0  0  0  0  0  0  0  0
    7.7918  -15.1625   25.5448 C   0  0  0  0  0  0  0  0  0  0  0  0
    8.8599  -16.0650   24.9676 C   0  0  2  0  0  0  0  0  0  0  0  0
    8.7806  -16.3428   23.5807 N   0  0  0  0  0  0  0  0  0  0  0  0
    9.0847  -17.2173   25.8100 C   0  0  0  0  0  0  0  0  0  0  0  0
    8.1493  -18.0785   25.8981 O   0  0  0  0  0  0  0  0  0  0  0  0
   12.6186  -18.6485   26.4866 O   0  0  0  0  0  0  0  0  0  0  0  0
   11.5269  -19.5139   26.6668 C   0  0  0  0  0  0  0  0  0  0  0  0
   10.3805  -18.7201   27.3016 C   0  0  2  0  0  0  0  0  0  0  0  0
   10.2698  -17.4631   26.5472 N   0  0  0  0  0  0  0  0  0  0  0  0
   10.7055  -18.4087   28.7052 C   0  0  0  0  0  0  0  0  0  0  0  0
   10.7884  -17.2100   29.0865 O   0  0  0  0  0  0  0  0  0  0  0  0
   10.9219  -19.4493   29.6129 O   0  0  0  0  0  0  0  0  0  0  0  0
  2  1  1  6
  2  3  1  0
  4  5  1  0
  4  3  1  0
  5  6  2  0
  7 15  1  0
  7  2  1  0
  8  7  2  0
  9  5  1  0
 10 11  1  0
 11 12  1  0
 12 13  1  0
 14 13  1  1
 14 15  1  0
 16 21  1  0
 16 14  1  0
 17 16  2  0
 20 19  1  6
 19 18  1  0
 20 21  1  0
 20 22  1  0
 22 24  1  0
 23 22  2  0
M  END
$$$$
