EMS.pdb
     RDKit          3D

 24 23  0  0  1  0  0  0  0  0999 V2000
    8.0701  -13.8028   19.3642 N   0  0  0  0  0  0  0  0  0  0  0  0
    7.3370  -14.4533   20.4147 C   0  0  1  0  0  0  0  0  0  0  0  0
    6.9161  -15.8368   19.9595 C   0  0  0  0  0  0  0  0  0  0  0  0
    8.1289  -16.6037   19.4598 C   0  0  0  0  0  0  0  0  0  0  0  0
    7.7713  -17.9706   19.0602 C   0  0  0  0  0  0  0  0  0  0  0  0
    6.6594  -18.2034   18.5271 O   0  0  0  0  0  0  0  0  0  0  0  0
    8.1814  -14.5889   21.6435 C   0  0  0  0  0  0  0  0  0  0  0  0
    9.4314  -14.6023   21.5644 O   0  0  0  0  0  0  0  0  0  0  0  0
    8.6574  -18.9992   19.2704 O   0  0  0  0  0  0  0  0  0  0  0  0
    6.3006  -10.3516   26.7475 C   0  0  0  0  0  0  0  0  0  0  0  0
    6.3672  -12.1782   26.8386 S   0  0  0  0  0  0  0  0  0  0  0  0
    7.1564  -12.7681   25.2917 C   0  0  0  0  0  0  0  0  0  0  0  0
    7.3786  -14.2432   25.3415 C   0  0  0  0  0  0  0  0  0  0  0  0
    8.1677  -14.8023   24.1782 C   0  0  2  0  0  0  0  0  0  0  0  0
    7.5736  -14.7019   22.8961 N   0  0  0  0  0  0  0  0  0  0  0  0
    8.7224  -16.0985   24.4951 C   0  0  0  0  0  0  0  0  0  0  0  0
    8.0070  -17.1248   24.2516 O   0  0  0  0  0  0  0  0  0  0  0  0
   11.5250  -17.6871   23.2529 O   0  0  0  0  0  0  0  0  0  0  0  0
   11.7341  -17.9337   24.6198 C   0  0  0  0  0  0  0  0  0  0  0  0
   10.4152  -17.6939   25.3617 C   0  0  2  0  0  0  0  0  0  0  0  0
   10.0050  -16.3153   25.0572 N   0  0  0  0  0  0  0  0  0  0  0  0
   10.6292  -17.8195   26.8147 C   0  0  0  0  0  0  0  0  0  0  0  0
   10.4706  -16.8214   27.5681 O   0  0  0  0  0  0  0  0  0  0  0  0
   11.0093  -19.0515   27.3544 O   0  0  0  0  0  0  0  0  0  0  0  0
  2  1  1  6
  2  3  1  0
  4  5  1  0
  4  3  1  0
  5  6  2  0
  7 15  1  0
  7  2  1  0
  8  7  2  0
  9  5  1  0
 10 11  1  0
 11 12  1  0
 12 13  1  0
 14 13  1  1
 14 15  1  0
 16 21  1  0
 16 14  1  0
 17 16  2  0
 20 19  1  6
 19 18  1  0
 20 21  1  0
 20 22  1  0
 22 24  1  0
 23 22  2  0
M  END
$$$$
