EMS.pdb
     RDKit          3D

 24 23  0  0  1  0  0  0  0  0999 V2000
    6.1738  -20.1898   25.7137 N   0  0  0  0  0  0  0  0  0  0  0  0
    6.8713  -19.0361   26.2105 C   0  0  1  0  0  0  0  0  0  0  0  0
    8.2952  -19.4168   26.5654 C   0  0  0  0  0  0  0  0  0  0  0  0
    8.4843  -19.3492   28.0715 C   0  0  0  0  0  0  0  0  0  0  0  0
    9.8977  -19.1702   28.4267 C   0  0  0  0  0  0  0  0  0  0  0  0
   10.7217  -20.0958   28.2291 O   0  0  0  0  0  0  0  0  0  0  0  0
    6.9077  -17.9541   25.1765 C   0  0  0  0  0  0  0  0  0  0  0  0
    6.5851  -18.1902   23.9895 O   0  0  0  0  0  0  0  0  0  0  0  0
   10.3203  -17.9847   28.9775 O   0  0  0  0  0  0  0  0  0  0  0  0
    7.0966  -11.0519   26.2170 C   0  0  0  0  0  0  0  0  0  0  0  0
    6.4349  -12.4275   27.2265 S   0  0  0  0  0  0  0  0  0  0  0  0
    6.2165  -13.8634   26.1066 C   0  0  0  0  0  0  0  0  0  0  0  0
    7.4913  -14.1786   25.3972 C   0  0  0  0  0  0  0  0  0  0  0  0
    7.5165  -15.5280   24.7139 C   0  0  2  0  0  0  0  0  0  0  0  0
    7.3050  -16.6636   25.5340 N   0  0  0  0  0  0  0  0  0  0  0  0
    8.6312  -15.6328   23.8003 C   0  0  0  0  0  0  0  0  0  0  0  0
    9.7481  -16.0270   24.2710 O   0  0  0  0  0  0  0  0  0  0  0  0
    8.5492  -14.4417   19.9758 O   0  0  0  0  0  0  0  0  0  0  0  0
    9.0625  -15.7437   20.0949 C   0  0  0  0  0  0  0  0  0  0  0  0
    9.5785  -15.9311   21.5253 C   0  0  2  0  0  0  0  0  0  0  0  0
    8.5761  -15.3298   22.4170 N   0  0  0  0  0  0  0  0  0  0  0  0
   10.8573  -15.2175   21.6927 C   0  0  0  0  0  0  0  0  0  0  0  0
   10.9578  -14.2843   22.5343 O   0  0  0  0  0  0  0  0  0  0  0  0
   11.9595  -15.5800   20.9134 O   0  0  0  0  0  0  0  0  0  0  0  0
  2  1  1  6
  2  3  1  0
  4  5  1  0
  4  3  1  0
  5  6  2  0
  7 15  1  0
  7  2  1  0
  8  7  2  0
  9  5  1  0
 10 11  1  0
 11 12  1  0
 12 13  1  0
 14 13  1  1
 14 15  1  0
 16 21  1  0
 16 14  1  0
 17 16  2  0
 20 19  1  6
 19 18  1  0
 20 21  1  0
 20 22  1  0
 22 24  1  0
 23 22  2  0
M  END
$$$$
