EMS.pdb
     RDKit          3D

 24 23  0  0  1  0  0  0  0  0999 V2000
    8.0643  -17.7367   21.2384 N   0  0  0  0  0  0  0  0  0  0  0  0
    9.4056  -17.2223   21.2593 C   0  0  1  0  0  0  0  0  0  0  0  0
    9.5825  -16.2182   20.1372 C   0  0  0  0  0  0  0  0  0  0  0  0
    8.9903  -16.7740   18.8531 C   0  0  0  0  0  0  0  0  0  0  0  0
    9.1636  -15.8390   17.7344 C   0  0  0  0  0  0  0  0  0  0  0  0
    8.1821  -15.5151   17.0228 O   0  0  0  0  0  0  0  0  0  0  0  0
    9.6907  -16.5413   22.5617 C   0  0  0  0  0  0  0  0  0  0  0  0
   10.8321  -16.0911   22.8137 O   0  0  0  0  0  0  0  0  0  0  0  0
   10.4053  -15.3163   17.4652 O   0  0  0  0  0  0  0  0  0  0  0  0
    6.6698  -11.0751   25.5159 C   0  0  0  0  0  0  0  0  0  0  0  0
    6.8085  -12.7491   26.2423 S   0  0  0  0  0  0  0  0  0  0  0  0
    7.3476  -13.8775   24.9007 C   0  0  0  0  0  0  0  0  0  0  0  0
    7.5506  -15.2606   25.4237 C   0  0  0  0  0  0  0  0  0  0  0  0
    8.7574  -15.9778   24.8599 C   0  0  2  0  0  0  0  0  0  0  0  0
    8.6755  -16.4028   23.5110 N   0  0  0  0  0  0  0  0  0  0  0  0
    9.2574  -16.9698   25.7841 C   0  0  0  0  0  0  0  0  0  0  0  0
    8.5802  -18.0398   25.9284 O   0  0  0  0  0  0  0  0  0  0  0  0
   12.3155  -18.7180   25.6953 O   0  0  0  0  0  0  0  0  0  0  0  0
   12.2925  -18.3085   27.0387 C   0  0  0  0  0  0  0  0  0  0  0  0
   10.8487  -17.9583   27.4128 C   0  0  2  0  0  0  0  0  0  0  0  0
   10.4469  -16.8426   26.5437 N   0  0  0  0  0  0  0  0  0  0  0  0
   10.7897  -17.5157   28.8176 C   0  0  0  0  0  0  0  0  0  0  0  0
   10.4430  -16.3364   29.0973 O   0  0  0  0  0  0  0  0  0  0  0  0
   11.1205  -18.4099   29.8395 O   0  0  0  0  0  0  0  0  0  0  0  0
  2  1  1  1
  2  3  1  0
  4  5  1  0
  4  3  1  0
  5  6  2  0
  7 15  1  0
  7  2  1  0
  8  7  2  0
  9  5  1  0
 10 11  1  0
 11 12  1  0
 12 13  1  0
 14 13  1  1
 14 15  1  0
 16 21  1  0
 16 14  1  0
 17 16  2  0
 20 19  1  6
 19 18  1  0
 20 21  1  0
 20 22  1  0
 22 24  1  0
 23 22  2  0
M  END
$$$$
