EMS.pdb
     RDKit          3D

 24 23  0  0  1  0  0  0  0  0999 V2000
    9.7288  -15.5707   19.8236 N   0  0  0  0  0  0  0  0  0  0  0  0
    8.7592  -15.9763   20.8032 C   0  0  1  0  0  0  0  0  0  0  0  0
    8.5629  -17.4780   20.7325 C   0  0  0  0  0  0  0  0  0  0  0  0
    7.1773  -17.7896   20.1925 C   0  0  0  0  0  0  0  0  0  0  0  0
    6.7561  -19.1500   20.5500 C   0  0  0  0  0  0  0  0  0  0  0  0
    7.5272  -19.9024   21.1934 O   0  0  0  0  0  0  0  0  0  0  0  0
    9.2182  -15.6171   22.1821 C   0  0  0  0  0  0  0  0  0  0  0  0
   10.4327  -15.6605   22.4854 O   0  0  0  0  0  0  0  0  0  0  0  0
    5.5127  -19.6013   20.1789 O   0  0  0  0  0  0  0  0  0  0  0  0
    6.4198  -11.0534   25.9882 C   0  0  0  0  0  0  0  0  0  0  0  0
    6.4888  -12.4304   27.1917 S   0  0  0  0  0  0  0  0  0  0  0  0
    7.7260  -13.6321   26.5678 C   0  0  0  0  0  0  0  0  0  0  0  0
    7.4754  -13.9502   25.1312 C   0  0  0  0  0  0  0  0  0  0  0  0
    8.4871  -14.8850   24.5059 C   0  0  2  0  0  0  0  0  0  0  0  0
    8.2855  -15.2276   23.1462 N   0  0  0  0  0  0  0  0  0  0  0  0
    8.7836  -15.9975   25.3792 C   0  0  0  0  0  0  0  0  0  0  0  0
    7.8404  -16.8143   25.6392 O   0  0  0  0  0  0  0  0  0  0  0  0
   12.5332  -17.1903   26.1605 O   0  0  0  0  0  0  0  0  0  0  0  0
   11.5101  -18.1527   26.1649 C   0  0  0  0  0  0  0  0  0  0  0  0
   10.2368  -17.5024   26.7154 C   0  0  2  0  0  0  0  0  0  0  0  0
   10.0469  -16.2497   25.9695 N   0  0  0  0  0  0  0  0  0  0  0  0
   10.4148  -17.1862   28.1441 C   0  0  0  0  0  0  0  0  0  0  0  0
   10.3374  -15.9934   28.5445 O   0  0  0  0  0  0  0  0  0  0  0  0
   10.6703  -18.2156   29.0543 O   0  0  0  0  0  0  0  0  0  0  0  0
  2  1  1  6
  2  3  1  0
  4  5  1  0
  4  3  1  0
  5  6  2  0
  7 15  1  0
  7  2  1  0
  8  7  2  0
  9  5  1  0
 10 11  1  0
 11 12  1  0
 12 13  1  0
 14 13  1  1
 14 15  1  0
 16 21  1  0
 16 14  1  0
 17 16  2  0
 20 19  1  6
 19 18  1  0
 20 21  1  0
 20 22  1  0
 22 24  1  0
 23 22  2  0
M  END
$$$$
