EMS.pdb
     RDKit          3D

 24 23  0  0  1  0  0  0  0  0999 V2000
   10.1329  -15.8736   19.8541 N   0  0  0  0  0  0  0  0  0  0  0  0
    8.9102  -15.9486   20.6048 C   0  0  1  0  0  0  0  0  0  0  0  0
    8.2876  -17.3194   20.4266 C   0  0  0  0  0  0  0  0  0  0  0  0
    9.3666  -18.3324   20.0829 C   0  0  0  0  0  0  0  0  0  0  0  0
    8.7977  -19.6684   19.8652 C   0  0  0  0  0  0  0  0  0  0  0  0
    8.2861  -20.3014   20.8202 O   0  0  0  0  0  0  0  0  0  0  0  0
    9.1698  -15.7256   22.0622 C   0  0  0  0  0  0  0  0  0  0  0  0
   10.1799  -16.2170   22.6163 O   0  0  0  0  0  0  0  0  0  0  0  0
    8.8254  -20.2280   18.6107 O   0  0  0  0  0  0  0  0  0  0  0  0
    6.4699  -11.5580   28.3313 C   0  0  0  0  0  0  0  0  0  0  0  0
    6.1371  -12.0467   26.5994 S   0  0  0  0  0  0  0  0  0  0  0  0
    7.4119  -13.2794   26.1312 C   0  0  0  0  0  0  0  0  0  0  0  0
    7.2551  -13.6847   24.7033 C   0  0  0  0  0  0  0  0  0  0  0  0
    8.3183  -14.6340   24.1962 C   0  0  2  0  0  0  0  0  0  0  0  0
    8.2785  -14.9607   22.8183 N   0  0  0  0  0  0  0  0  0  0  0  0
    8.4846  -15.7597   25.0868 C   0  0  0  0  0  0  0  0  0  0  0  0
    7.5041  -16.5638   25.2150 O   0  0  0  0  0  0  0  0  0  0  0  0
   11.8236  -17.6558   25.6862 O   0  0  0  0  0  0  0  0  0  0  0  0
   10.5813  -18.2599   25.9412 C   0  0  0  0  0  0  0  0  0  0  0  0
    9.6907  -17.2463   26.6671 C   0  0  2  0  0  0  0  0  0  0  0  0
    9.6586  -16.0381   25.8301 N   0  0  0  0  0  0  0  0  0  0  0  0
   10.2821  -16.9074   27.9741 C   0  0  0  0  0  0  0  0  0  0  0  0
   10.5988  -15.7160   28.2375 O   0  0  0  0  0  0  0  0  0  0  0  0
   10.4906  -17.9137   28.9213 O   0  0  0  0  0  0  0  0  0  0  0  0
  2  1  1  6
  2  3  1  0
  4  5  1  0
  4  3  1  0
  5  6  2  0
  7 15  1  0
  7  2  1  0
  8  7  2  0
  9  5  1  0
 10 11  1  0
 11 12  1  0
 12 13  1  0
 14 13  1  1
 14 15  1  0
 16 21  1  0
 16 14  1  0
 17 16  2  0
 20 19  1  6
 19 18  1  0
 20 21  1  0
 20 22  1  0
 22 24  1  0
 23 22  2  0
M  END
$$$$
