EMS.pdb
     RDKit          3D

 24 23  0  0  1  0  0  0  0  0999 V2000
    8.4717  -14.4532   19.6737 N   0  0  0  0  0  0  0  0  0  0  0  0
    7.7203  -15.1476   20.6824 C   0  0  1  0  0  0  0  0  0  0  0  0
    7.5811  -16.6074   20.2976 C   0  0  0  0  0  0  0  0  0  0  0  0
    8.4414  -16.9017   19.0803 C   0  0  0  0  0  0  0  0  0  0  0  0
    8.2961  -18.2966   18.6458 C   0  0  0  0  0  0  0  0  0  0  0  0
    7.4743  -19.0544   19.2159 O   0  0  0  0  0  0  0  0  0  0  0  0
    8.4114  -15.0648   22.0078 C   0  0  0  0  0  0  0  0  0  0  0  0
    9.6617  -15.0778   22.0810 O   0  0  0  0  0  0  0  0  0  0  0  0
    9.0627  -18.7745   17.6107 O   0  0  0  0  0  0  0  0  0  0  0  0
    7.4784  -11.7096   27.7052 C   0  0  0  0  0  0  0  0  0  0  0  0
    6.2125  -11.6696   26.3841 S   0  0  0  0  0  0  0  0  0  0  0  0
    6.8503  -12.6814   24.9936 C   0  0  0  0  0  0  0  0  0  0  0  0
    7.1915  -14.0589   25.4559 C   0  0  0  0  0  0  0  0  0  0  0  0
    8.0943  -14.8330   24.5210 C   0  0  2  0  0  0  0  0  0  0  0  0
    7.6580  -14.9712   23.1803 N   0  0  0  0  0  0  0  0  0  0  0  0
    8.5687  -16.0505   25.1381 C   0  0  0  0  0  0  0  0  0  0  0  0
    7.6984  -16.8580   25.6014 O   0  0  0  0  0  0  0  0  0  0  0  0
   12.3106  -17.4463   24.6839 O   0  0  0  0  0  0  0  0  0  0  0  0
   11.2905  -18.3772   24.9409 C   0  0  0  0  0  0  0  0  0  0  0  0
   10.2572  -17.7201   25.8617 C   0  0  2  0  0  0  0  0  0  0  0  0
    9.9319  -16.4154   25.2670 N   0  0  0  0  0  0  0  0  0  0  0  0
   10.8432  -17.5045   27.1970 C   0  0  0  0  0  0  0  0  0  0  0  0
   11.2712  -18.4825   27.8675 O   0  0  0  0  0  0  0  0  0  0  0  0
   10.9222  -16.2098   27.7174 O   0  0  0  0  0  0  0  0  0  0  0  0
  2  1  1  6
  2  3  1  0
  4  5  1  0
  4  3  1  0
  5  6  2  0
  7 15  1  0
  7  2  1  0
  8  7  2  0
  9  5  1  0
 10 11  1  0
 11 12  1  0
 12 13  1  0
 14 13  1  1
 14 15  1  0
 16 21  1  0
 16 14  1  0
 17 16  2  0
 20 19  1  6
 19 18  1  0
 20 21  1  0
 20 22  1  0
 22 24  1  0
 23 22  2  0
M  END
$$$$
