EMS.pdb
     RDKit          3D

 24 23  0  0  1  0  0  0  0  0999 V2000
    9.6970  -15.0501   19.1041 N   0  0  0  0  0  0  0  0  0  0  0  0
    8.9297  -15.8695   20.0009 C   0  0  1  0  0  0  0  0  0  0  0  0
    9.1834  -17.3326   19.6954 C   0  0  0  0  0  0  0  0  0  0  0  0
    8.3489  -18.2023   20.6206 C   0  0  0  0  0  0  0  0  0  0  0  0
    8.5907  -19.6299   20.3771 C   0  0  0  0  0  0  0  0  0  0  0  0
    8.1066  -20.1896   19.3637 O   0  0  0  0  0  0  0  0  0  0  0  0
    9.3156  -15.6024   21.4225 C   0  0  0  0  0  0  0  0  0  0  0  0
   10.5127  -15.6675   21.7851 O   0  0  0  0  0  0  0  0  0  0  0  0
    9.3501  -20.3562   21.2620 O   0  0  0  0  0  0  0  0  0  0  0  0
    6.8796  -11.7739   27.9134 C   0  0  0  0  0  0  0  0  0  0  0  0
    6.3895  -12.3573   26.2495 S   0  0  0  0  0  0  0  0  0  0  0  0
    7.6597  -13.5625   25.7035 C   0  0  0  0  0  0  0  0  0  0  0  0
    7.4628  -13.9235   24.2687 C   0  0  0  0  0  0  0  0  0  0  0  0
    8.4757  -14.9039   23.7197 C   0  0  2  0  0  0  0  0  0  0  0  0
    8.3332  -15.2758   22.3602 N   0  0  0  0  0  0  0  0  0  0  0  0
    8.6928  -16.0014   24.6343 C   0  0  0  0  0  0  0  0  0  0  0  0
    7.7318  -16.8181   24.8185 O   0  0  0  0  0  0  0  0  0  0  0  0
   12.2470  -17.6066   25.3440 O   0  0  0  0  0  0  0  0  0  0  0  0
   11.0583  -18.3454   25.4629 C   0  0  0  0  0  0  0  0  0  0  0  0
   10.0081  -17.4647   26.1478 C   0  0  2  0  0  0  0  0  0  0  0  0
    9.8965  -16.2392   25.3433 N   0  0  0  0  0  0  0  0  0  0  0  0
   10.4630  -17.1073   27.5035 C   0  0  0  0  0  0  0  0  0  0  0  0
   10.6762  -18.0080   28.3594 O   0  0  0  0  0  0  0  0  0  0  0  0
   10.6569  -15.7639   27.8369 O   0  0  0  0  0  0  0  0  0  0  0  0
  2  1  1  6
  2  3  1  0
  4  5  1  0
  4  3  1  0
  5  6  2  0
  7 15  1  0
  7  2  1  0
  8  7  2  0
  9  5  1  0
 10 11  1  0
 11 12  1  0
 12 13  1  0
 14 13  1  1
 14 15  1  0
 16 21  1  0
 16 14  1  0
 17 16  2  0
 20 19  1  6
 19 18  1  0
 20 21  1  0
 20 22  1  0
 22 24  1  0
 23 22  2  0
M  END
$$$$
