EMS.pdb
     RDKit          3D

 24 23  0  0  1  0  0  0  0  0999 V2000
    9.7640  -14.9747   20.4622 N   0  0  0  0  0  0  0  0  0  0  0  0
    8.7152  -15.5727   21.2412 C   0  0  1  0  0  0  0  0  0  0  0  0
    8.5439  -17.0231   20.8345 C   0  0  0  0  0  0  0  0  0  0  0  0
    9.8238  -17.7907   21.1196 C   0  0  0  0  0  0  0  0  0  0  0  0
    9.7245  -19.1846   20.6689 C   0  0  0  0  0  0  0  0  0  0  0  0
    9.7208  -19.4545   19.4435 O   0  0  0  0  0  0  0  0  0  0  0  0
    9.0442  -15.5195   22.7007 C   0  0  0  0  0  0  0  0  0  0  0  0
   10.2322  -15.4311   23.0875 O   0  0  0  0  0  0  0  0  0  0  0  0
    9.6353  -20.1979   21.5924 O   0  0  0  0  0  0  0  0  0  0  0  0
    7.2022  -10.7628   26.4698 C   0  0  0  0  0  0  0  0  0  0  0  0
    7.4860  -12.5205   26.8930 S   0  0  0  0  0  0  0  0  0  0  0  0
    6.7097  -13.5270   25.5708 C   0  0  0  0  0  0  0  0  0  0  0  0
    6.9313  -14.9825   25.8161 C   0  0  0  0  0  0  0  0  0  0  0  0
    8.0987  -15.5792   25.0614 C   0  0  2  0  0  0  0  0  0  0  0  0
    8.0180  -15.5681   23.6471 N   0  0  0  0  0  0  0  0  0  0  0  0
    8.5097  -16.8378   25.6404 C   0  0  0  0  0  0  0  0  0  0  0  0
    7.6525  -17.7802   25.6792 O   0  0  0  0  0  0  0  0  0  0  0  0
   12.1496  -18.2010   25.6124 O   0  0  0  0  0  0  0  0  0  0  0  0
   11.0948  -19.1038   25.8258 C   0  0  0  0  0  0  0  0  0  0  0  0
   10.0621  -18.4339   26.7380 C   0  0  2  0  0  0  0  0  0  0  0  0
    9.7971  -17.1042   26.1693 N   0  0  0  0  0  0  0  0  0  0  0  0
   10.6216  -18.2723   28.0921 C   0  0  0  0  0  0  0  0  0  0  0  0
   10.7897  -17.1204   28.5759 O   0  0  0  0  0  0  0  0  0  0  0  0
   10.9657  -19.4028   28.8383 O   0  0  0  0  0  0  0  0  0  0  0  0
  2  1  1  6
  2  3  1  0
  4  5  1  0
  4  3  1  0
  5  6  2  0
  7 15  1  0
  7  2  1  0
  8  7  2  0
  9  5  1  0
 10 11  1  0
 11 12  1  0
 12 13  1  0
 14 13  1  1
 14 15  1  0
 16 21  1  0
 16 14  1  0
 17 16  2  0
 20 19  1  6
 19 18  1  0
 20 21  1  0
 20 22  1  0
 22 24  1  0
 23 22  2  0
M  END
$$$$
