FFC.pdb
     RDKit          3D

 29 30  0  0  1  0  0  0  0  0999 V2000
   27.3019  -19.4912  -18.8696 N   0  0  0  0  0  0  0  0  0  0  0  0
   27.1143  -18.6618  -17.6969 C   0  0  1  0  0  0  0  0  0  0  0  0
   26.0929  -17.6053  -18.0607 C   0  0  0  0  0  0  0  0  0  0  0  0
   26.6893  -16.6812  -19.0381 C   0  0  0  0  0  0  0  0  0  0  0  0
   27.8094  -15.9152  -18.7216 C   0  0  0  0  0  0  0  0  0  0  0  0
   28.3557  -15.0541  -19.6492 C   0  0  0  0  0  0  0  0  0  0  0  0
   27.7949  -14.9408  -20.9100 C   0  0  0  0  0  0  0  0  0  0  0  0
   26.6830  -15.6923  -21.2437 C   0  0  0  0  0  0  0  0  0  0  0  0
   26.1492  -16.5576  -20.2844 C   0  0  0  0  0  0  0  0  0  0  0  0
   26.6975  -19.4908  -16.5650 C   0  0  0  0  0  0  0  0  0  0  0  0
   25.9061  -20.4434  -16.7578 O   0  0  0  0  0  0  0  0  0  0  0  0
   27.1424  -19.2820  -15.2250 N   0  0  0  0  0  0  0  0  0  0  0  0
   26.5400  -19.9645  -14.0823 C   0  0  1  0  0  0  0  0  0  0  0  0
   27.2834  -19.6307  -12.8073 C   0  0  0  0  0  0  0  0  0  0  0  0
   26.5888  -20.0889  -11.5820 C   0  0  0  0  0  0  0  0  0  0  0  0
   26.1757  -19.1573  -10.6279 C   0  0  0  0  0  0  0  0  0  0  0  0
   25.5356  -19.6118   -9.5214 C   0  0  0  0  0  0  0  0  0  0  0  0
   25.2831  -20.9496   -9.3118 C   0  0  0  0  0  0  0  0  0  0  0  0
   25.6872  -21.8794  -10.2489 C   0  0  0  0  0  0  0  0  0  0  0  0
   26.3401  -21.4481  -11.3842 C   0  0  0  0  0  0  0  0  0  0  0  0
   25.1083  -19.5791  -14.0227 C   0  0  0  0  0  0  0  0  0  0  0  0
   24.7257  -18.3827  -14.1195 O   0  0  0  0  0  0  0  0  0  0  0  0
   24.0926  -20.5653  -13.8505 N   0  0  0  0  0  0  0  0  0  0  0  0
   22.7265  -20.1632  -13.6515 C   0  0  1  0  0  0  0  0  0  0  0  0
   21.9889  -19.9423  -14.9511 C   0  0  0  0  0  0  0  0  0  0  0  0
   20.2299  -19.7433  -14.5437 S   0  0  0  0  0  0  0  0  0  0  0  0
   22.0263  -21.2106  -12.8703 C   0  0  0  0  0  0  0  0  0  0  0  0
   22.4620  -22.3992  -12.8738 O   0  0  0  0  0  0  0  0  0  0  0  0
   20.9059  -20.9301  -12.1333 O   0  0  0  0  0  0  0  0  0  0  0  0
  2  1  1  6
  2 10  1  0
  3  2  1  0
  3  4  1  0
  4  9  1  0
  4  5  2  0
  5  6  1  0
  6  7  2  0
  8  7  1  0
  9  8  2  0
 10 11  2  0
 12 10  1  0
 12 13  1  0
 13 21  1  0
 13 14  1  1
 14 15  1  0
 15 16  2  0
 16 17  1  0
 18 17  2  0
 19 18  1  0
 20 15  1  0
 20 19  2  0
 21 22  2  0
 23 24  1  0
 23 21  1  0
 24 27  1  0
 24 25  1  6
 26 25  1  0
 27 28  2  0
 27 29  1  0
M  END
$$$$
