FFC.pdb
     RDKit          3D

 29 30  0  0  1  0  0  0  0  0999 V2000
   20.2751  -11.7389  -18.3871 N   0  0  0  0  0  0  0  0  0  0  0  0
   20.7102  -10.3594  -18.3094 C   0  0  1  0  0  0  0  0  0  0  0  0
   20.1240   -9.6421  -19.5066 C   0  0  0  0  0  0  0  0  0  0  0  0
   20.8590  -10.0496  -20.7144 C   0  0  0  0  0  0  0  0  0  0  0  0
   22.1579   -9.6068  -20.9562 C   0  0  0  0  0  0  0  0  0  0  0  0
   22.8325   -9.9982  -22.0929 C   0  0  0  0  0  0  0  0  0  0  0  0
   22.2242  -10.8385  -23.0098 C   0  0  0  0  0  0  0  0  0  0  0  0
   20.9356  -11.2890  -22.7882 C   0  0  0  0  0  0  0  0  0  0  0  0
   20.2744  -10.8769  -21.6276 C   0  0  0  0  0  0  0  0  0  0  0  0
   20.2882   -9.7776  -17.0343 C   0  0  0  0  0  0  0  0  0  0  0  0
   19.2381  -10.1888  -16.4874 O   0  0  0  0  0  0  0  0  0  0  0  0
   21.0094   -8.7493  -16.3564 N   0  0  0  0  0  0  0  0  0  0  0  0
   20.5676   -8.1904  -15.0810 C   0  0  1  0  0  0  0  0  0  0  0  0
   21.7405   -8.0053  -14.1431 C   0  0  0  0  0  0  0  0  0  0  0  0
   21.3730   -7.3694  -12.8569 C   0  0  0  0  0  0  0  0  0  0  0  0
   21.4684   -5.9840  -12.7145 C   0  0  0  0  0  0  0  0  0  0  0  0
   21.1163   -5.4348  -11.5250 C   0  0  0  0  0  0  0  0  0  0  0  0
   20.6723   -6.1931  -10.4643 C   0  0  0  0  0  0  0  0  0  0  0  0
   20.5740   -7.5640  -10.5942 C   0  0  0  0  0  0  0  0  0  0  0  0
   20.9246   -8.1517  -11.7913 C   0  0  0  0  0  0  0  0  0  0  0  0
   19.8579   -6.9177  -15.3612 C   0  0  0  0  0  0  0  0  0  0  0  0
   20.3577   -6.0082  -16.0754 O   0  0  0  0  0  0  0  0  0  0  0  0
   18.5603   -6.6708  -14.8236 N   0  0  0  0  0  0  0  0  0  0  0  0
   17.8859   -5.4341  -15.1120 C   0  0  1  0  0  0  0  0  0  0  0  0
   16.4410   -5.6358  -15.5036 C   0  0  0  0  0  0  0  0  0  0  0  0
   16.4280   -6.6739  -16.9942 S   0  0  0  0  0  0  0  0  0  0  0  0
   17.9450   -4.5636  -13.9135 C   0  0  0  0  0  0  0  0  0  0  0  0
   18.3122   -5.0437  -12.8011 O   0  0  0  0  0  0  0  0  0  0  0  0
   17.6101   -3.2363  -13.9710 O   0  0  0  0  0  0  0  0  0  0  0  0
  2  1  1  1
  2 10  1  0
  3  2  1  0
  3  4  1  0
  4  9  1  0
  4  5  2  0
  5  6  1  0
  6  7  2  0
  8  7  1  0
  9  8  2  0
 10 11  2  0
 12 10  1  0
 12 13  1  0
 13 21  1  0
 13 14  1  1
 14 15  1  0
 15 16  2  0
 16 17  1  0
 18 17  2  0
 19 18  1  0
 20 15  1  0
 20 19  2  0
 21 22  2  0
 23 24  1  0
 23 21  1  0
 24 27  1  0
 24 25  1  1
 26 25  1  0
 27 28  2  0
 27 29  1  0
M  END
$$$$
