FFC.pdb
     RDKit          3D

 29 30  0  0  1  0  0  0  0  0999 V2000
   14.1847  -22.6339   -7.4491 N   0  0  0  0  0  0  0  0  0  0  0  0
   13.2899  -22.9310   -6.3494 C   0  0  1  0  0  0  0  0  0  0  0  0
   12.5507  -24.2015   -6.7110 C   0  0  0  0  0  0  0  0  0  0  0  0
   11.5057  -23.8820   -7.6965 C   0  0  0  0  0  0  0  0  0  0  0  0
   10.4139  -23.0835   -7.3620 C   0  0  0  0  0  0  0  0  0  0  0  0
    9.4437  -22.7936   -8.2974 C   0  0  0  0  0  0  0  0  0  0  0  0
    9.5443  -23.2949   -9.5841 C   0  0  0  0  0  0  0  0  0  0  0  0
   10.6202  -24.0893   -9.9360 C   0  0  0  0  0  0  0  0  0  0  0  0
   11.5896  -24.3676   -8.9682 C   0  0  0  0  0  0  0  0  0  0  0  0
   14.0544  -23.0511   -5.1069 C   0  0  0  0  0  0  0  0  0  0  0  0
   15.2292  -23.4857   -5.1464 O   0  0  0  0  0  0  0  0  0  0  0  0
   13.5391  -22.6980   -3.8236 N   0  0  0  0  0  0  0  0  0  0  0  0
   14.3326  -22.8068   -2.6018 C   0  0  1  0  0  0  0  0  0  0  0  0
   13.7481  -21.9428   -1.5057 C   0  0  0  0  0  0  0  0  0  0  0  0
   14.5039  -22.0114   -0.2338 C   0  0  0  0  0  0  0  0  0  0  0  0
   14.0331  -22.8071    0.8121 C   0  0  0  0  0  0  0  0  0  0  0  0
   14.7549  -22.8523    1.9600 C   0  0  0  0  0  0  0  0  0  0  0  0
   15.9256  -22.1452    2.1243 C   0  0  0  0  0  0  0  0  0  0  0  0
   16.4003  -21.3553    1.0964 C   0  0  0  0  0  0  0  0  0  0  0  0
   15.6888  -21.2890   -0.0829 C   0  0  0  0  0  0  0  0  0  0  0  0
   14.3942  -24.2402   -2.2232 C   0  0  0  0  0  0  0  0  0  0  0  0
   13.6472  -25.1100   -2.7452 O   0  0  0  0  0  0  0  0  0  0  0  0
   15.3176  -24.6965   -1.2367 N   0  0  0  0  0  0  0  0  0  0  0  0
   15.3975  -26.0967   -0.9197 C   0  0  1  0  0  0  0  0  0  0  0  0
   15.8520  -26.9345   -2.0917 C   0  0  0  0  0  0  0  0  0  0  0  0
   16.0556  -28.6360   -1.4891 S   0  0  0  0  0  0  0  0  0  0  0  0
   16.3468  -26.2817    0.2037 C   0  0  0  0  0  0  0  0  0  0  0  0
   17.4691  -25.6961    0.1859 O   0  0  0  0  0  0  0  0  0  0  0  0
   16.0449  -27.0777    1.2772 O   0  0  0  0  0  0  0  0  0  0  0  0
  2  1  1  6
  2 10  1  0
  3  2  1  0
  3  4  1  0
  4  9  1  0
  4  5  2  0
  5  6  1  0
  6  7  2  0
  8  7  1  0
  9  8  2  0
 10 11  2  0
 12 10  1  0
 12 13  1  0
 13 21  1  0
 13 14  1  1
 14 15  1  0
 15 16  2  0
 16 17  1  0
 18 17  2  0
 19 18  1  0
 20 15  1  0
 20 19  2  0
 21 22  2  0
 23 24  1  0
 23 21  1  0
 24 27  1  0
 24 25  1  6
 26 25  1  0
 27 28  2  0
 27 29  1  0
M  END
$$$$
