FFC.pdb
     RDKit          3D

 29 30  0  0  1  0  0  0  0  0999 V2000
   19.0557   -7.6202  -12.4175 N   0  0  0  0  0  0  0  0  0  0  0  0
   19.0274   -6.8651  -11.1816 C   0  0  1  0  0  0  0  0  0  0  0  0
   20.4463   -6.4162  -10.9045 C   0  0  0  0  0  0  0  0  0  0  0  0
   20.9395   -5.6513  -12.0606 C   0  0  0  0  0  0  0  0  0  0  0  0
   20.6515   -4.2961  -12.2092 C   0  0  0  0  0  0  0  0  0  0  0  0
   21.1215   -3.5940  -13.2985 C   0  0  0  0  0  0  0  0  0  0  0  0
   21.8876   -4.2306  -14.2602 C   0  0  0  0  0  0  0  0  0  0  0  0
   22.1846   -5.5752  -14.1310 C   0  0  0  0  0  0  0  0  0  0  0  0
   21.6955   -6.2631  -13.0169 C   0  0  0  0  0  0  0  0  0  0  0  0
   18.0905   -5.7473  -11.3051 C   0  0  0  0  0  0  0  0  0  0  0  0
   17.7886   -5.3198  -12.4439 O   0  0  0  0  0  0  0  0  0  0  0  0
   17.4837   -5.0966  -10.1891 N   0  0  0  0  0  0  0  0  0  0  0  0
   16.6793   -3.8850  -10.3287 C   0  0  1  0  0  0  0  0  0  0  0  0
   15.2429   -4.1481   -9.9323 C   0  0  0  0  0  0  0  0  0  0  0  0
   14.4495   -4.8099  -10.9937 C   0  0  0  0  0  0  0  0  0  0  0  0
   13.7672   -4.0372  -11.9350 C   0  0  0  0  0  0  0  0  0  0  0  0
   13.0567   -4.6769  -12.8976 C   0  0  0  0  0  0  0  0  0  0  0  0
   12.9880   -6.0505  -12.9746 C   0  0  0  0  0  0  0  0  0  0  0  0
   13.6590   -6.8243  -12.0489 C   0  0  0  0  0  0  0  0  0  0  0  0
   14.3899   -6.2030  -11.0584 C   0  0  0  0  0  0  0  0  0  0  0  0
   17.3094   -2.8212   -9.5083 C   0  0  0  0  0  0  0  0  0  0  0  0
   18.1483   -3.0734   -8.6030 O   0  0  0  0  0  0  0  0  0  0  0  0
   16.9838   -1.4484   -9.7166 N   0  0  0  0  0  0  0  0  0  0  0  0
   17.6262   -0.4299   -8.9309 C   0  0  1  0  0  0  0  0  0  0  0  0
   19.1286   -0.4329   -9.0891 C   0  0  0  0  0  0  0  0  0  0  0  0
   19.7751    0.9518   -8.1071 S   0  0  0  0  0  0  0  0  0  0  0  0
   17.0999    0.8947   -9.3381 C   0  0  0  0  0  0  0  0  0  0  0  0
   16.6271    1.0566  -10.5014 O   0  0  0  0  0  0  0  0  0  0  0  0
   17.1083    1.9659   -8.4839 O   0  0  0  0  0  0  0  0  0  0  0  0
  2  1  1  6
  2 10  1  0
  3  2  1  0
  3  4  1  0
  4  9  1  0
  4  5  2  0
  5  6  1  0
  6  7  2  0
  8  7  1  0
  9  8  2  0
 10 11  2  0
 12 10  1  0
 12 13  1  0
 13 21  1  0
 13 14  1  1
 14 15  1  0
 15 16  2  0
 16 17  1  0
 18 17  2  0
 19 18  1  0
 20 15  1  0
 20 19  2  0
 21 22  2  0
 23 24  1  0
 23 21  1  0
 24 27  1  0
 24 25  1  6
 26 25  1  0
 27 28  2  0
 27 29  1  0
M  END
$$$$
