FFC.pdb
     RDKit          3D

 29 30  0  0  1  0  0  0  0  0999 V2000
   29.1689  -20.9247  -13.6657 N   0  0  0  0  0  0  0  0  0  0  0  0
   27.9749  -20.1120  -13.5550 C   0  0  1  0  0  0  0  0  0  0  0  0
   27.4407  -19.9167  -14.9579 C   0  0  0  0  0  0  0  0  0  0  0  0
   27.4544  -18.4806  -15.2783 C   0  0  0  0  0  0  0  0  0  0  0  0
   28.3378  -17.9565  -16.2199 C   0  0  0  0  0  0  0  0  0  0  0  0
   28.3376  -16.6085  -16.5084 C   0  0  0  0  0  0  0  0  0  0  0  0
   27.4561  -15.7579  -15.8631 C   0  0  0  0  0  0  0  0  0  0  0  0
   26.5713  -16.2584  -14.9254 C   0  0  0  0  0  0  0  0  0  0  0  0
   26.5927  -17.6290  -14.6519 C   0  0  0  0  0  0  0  0  0  0  0  0
   27.0126  -20.7635  -12.6650 C   0  0  0  0  0  0  0  0  0  0  0  0
   26.8300  -22.0001  -12.7550 O   0  0  0  0  0  0  0  0  0  0  0  0
   26.2506  -20.0681  -11.6786 N   0  0  0  0  0  0  0  0  0  0  0  0
   25.2313  -20.7270  -10.8655 C   0  0  1  0  0  0  0  0  0  0  0  0
   25.1750  -20.1178   -9.4815 C   0  0  0  0  0  0  0  0  0  0  0  0
   26.3936  -20.3666   -8.6772 C   0  0  0  0  0  0  0  0  0  0  0  0
   27.0584  -21.5895   -8.7834 C   0  0  0  0  0  0  0  0  0  0  0  0
   28.1757  -21.7800   -8.0377 C   0  0  0  0  0  0  0  0  0  0  0  0
   28.6696  -20.8150   -7.1879 C   0  0  0  0  0  0  0  0  0  0  0  0
   28.0200  -19.6020   -7.0752 C   0  0  0  0  0  0  0  0  0  0  0  0
   26.8817  -19.3785   -7.8206 C   0  0  0  0  0  0  0  0  0  0  0  0
   23.9371  -20.6248  -11.5842 C   0  0  0  0  0  0  0  0  0  0  0  0
   23.2428  -19.5737  -11.5801 O   0  0  0  0  0  0  0  0  0  0  0  0
   23.4206  -21.7318  -12.3202 N   0  0  0  0  0  0  0  0  0  0  0  0
   22.1302  -21.6388  -12.9477 C   0  0  1  0  0  0  0  0  0  0  0  0
   21.7784  -22.8741  -13.7428 C   0  0  0  0  0  0  0  0  0  0  0  0
   20.0973  -22.6369  -14.3887 S   0  0  0  0  0  0  0  0  0  0  0  0
   21.1012  -21.4280  -11.9015 C   0  0  0  0  0  0  0  0  0  0  0  0
   21.0690  -22.1826  -10.8855 O   0  0  0  0  0  0  0  0  0  0  0  0
   20.1698  -20.4280  -11.9996 O   0  0  0  0  0  0  0  0  0  0  0  0
  2  1  1  6
  2 10  1  0
  3  2  1  0
  3  4  1  0
  4  9  1  0
  4  5  2  0
  5  6  1  0
  6  7  2  0
  8  7  1  0
  9  8  2  0
 10 11  2  0
 12 10  1  0
 12 13  1  0
 13 21  1  0
 13 14  1  1
 14 15  1  0
 15 16  2  0
 16 17  1  0
 18 17  2  0
 19 18  1  0
 20 15  1  0
 20 19  2  0
 21 22  2  0
 23 24  1  0
 23 21  1  0
 24 27  1  0
 24 25  1  1
 26 25  1  0
 27 28  2  0
 27 29  1  0
M  END
$$$$
