FFC.pdb
     RDKit          3D

 29 30  0  0  1  0  0  0  0  0999 V2000
   27.3048  -21.3627  -13.6389 N   0  0  0  0  0  0  0  0  0  0  0  0
   27.2400  -20.2162  -12.7560 C   0  0  1  0  0  0  0  0  0  0  0  0
   26.0605  -19.3793  -13.2031 C   0  0  0  0  0  0  0  0  0  0  0  0
   26.4272  -18.6539  -14.4296 C   0  0  0  0  0  0  0  0  0  0  0  0
   26.0381  -19.1124  -15.6866 C   0  0  0  0  0  0  0  0  0  0  0  0
   26.3902  -18.4208  -16.8259 C   0  0  0  0  0  0  0  0  0  0  0  0
   27.1371  -17.2587  -16.7328 C   0  0  0  0  0  0  0  0  0  0  0  0
   27.5332  -16.7870  -15.4946 C   0  0  0  0  0  0  0  0  0  0  0  0
   27.1626  -17.5076  -14.3556 C   0  0  0  0  0  0  0  0  0  0  0  0
   27.1256  -20.6656  -11.3677 C   0  0  0  0  0  0  0  0  0  0  0  0
   26.5615  -21.7566  -11.1181 O   0  0  0  0  0  0  0  0  0  0  0  0
   27.6251  -19.9269  -10.2532 N   0  0  0  0  0  0  0  0  0  0  0  0
   27.4589  -20.3786   -8.8738 C   0  0  1  0  0  0  0  0  0  0  0  0
   28.5169  -19.7688   -7.9802 C   0  0  0  0  0  0  0  0  0  0  0  0
   28.2593  -19.9736   -6.5361 C   0  0  0  0  0  0  0  0  0  0  0  0
   28.8737  -21.0317   -5.8640 C   0  0  0  0  0  0  0  0  0  0  0  0
   28.6210  -21.1847   -4.5398 C   0  0  0  0  0  0  0  0  0  0  0  0
   27.7860  -20.3378   -3.8449 C   0  0  0  0  0  0  0  0  0  0  0  0
   27.1734  -19.2881   -4.4997 C   0  0  0  0  0  0  0  0  0  0  0  0
   27.4107  -19.1065   -5.8458 C   0  0  0  0  0  0  0  0  0  0  0  0
   26.0822  -20.0320   -8.4423 C   0  0  0  0  0  0  0  0  0  0  0  0
   25.4614  -19.0353   -8.8989 O   0  0  0  0  0  0  0  0  0  0  0  0
   25.3967  -20.8275   -7.4773 N   0  0  0  0  0  0  0  0  0  0  0  0
   23.9600  -20.8119   -7.4225 C   0  0  1  0  0  0  0  0  0  0  0  0
   23.3227  -21.3353   -8.6881 C   0  0  0  0  0  0  0  0  0  0  0  0
   21.5249  -21.3265   -8.4281 S   0  0  0  0  0  0  0  0  0  0  0  0
   23.5137  -21.6414   -6.2778 C   0  0  0  0  0  0  0  0  0  0  0  0
   23.5816  -22.9037   -6.3475 O   0  0  0  0  0  0  0  0  0  0  0  0
   23.0227  -21.0783   -5.1293 O   0  0  0  0  0  0  0  0  0  0  0  0
  2  1  1  6
  2 10  1  0
  3  2  1  0
  3  4  1  0
  4  9  1  0
  4  5  2  0
  5  6  1  0
  6  7  2  0
  8  7  1  0
  9  8  2  0
 10 11  2  0
 12 10  1  0
 12 13  1  0
 13 21  1  0
 13 14  1  1
 14 15  1  0
 15 16  2  0
 16 17  1  0
 18 17  2  0
 19 18  1  0
 20 15  1  0
 20 19  2  0
 21 22  2  0
 23 24  1  0
 23 21  1  0
 24 27  1  0
 24 25  1  6
 26 25  1  0
 27 28  2  0
 27 29  1  0
M  END
$$$$
