FFC.pdb
     RDKit          3D

 29 30  0  0  1  0  0  0  0  0999 V2000
   29.2285  -20.8589  -13.0475 N   0  0  0  0  0  0  0  0  0  0  0  0
   28.1116  -19.9979  -12.7164 C   0  0  1  0  0  0  0  0  0  0  0  0
   27.2862  -19.8397  -13.9755 C   0  0  0  0  0  0  0  0  0  0  0  0
   27.7636  -18.6603  -14.7144 C   0  0  0  0  0  0  0  0  0  0  0  0
   27.4381  -17.3685  -14.3060 C   0  0  0  0  0  0  0  0  0  0  0  0
   27.8938  -16.2742  -15.0097 C   0  0  0  0  0  0  0  0  0  0  0  0
   28.6827  -16.4479  -16.1342 C   0  0  0  0  0  0  0  0  0  0  0  0
   29.0170  -17.7218  -16.5559 C   0  0  0  0  0  0  0  0  0  0  0  0
   28.5417  -18.8138  -15.8241 C   0  0  0  0  0  0  0  0  0  0  0  0
   27.3522  -20.5759  -11.6067 C   0  0  0  0  0  0  0  0  0  0  0  0
   27.3337  -21.8199  -11.4551 O   0  0  0  0  0  0  0  0  0  0  0  0
   26.6140  -19.7993  -10.6637 N   0  0  0  0  0  0  0  0  0  0  0  0
   25.5761  -20.3762   -9.8127 C   0  0  1  0  0  0  0  0  0  0  0  0
   25.4174  -19.5703   -8.5418 C   0  0  0  0  0  0  0  0  0  0  0  0
   26.4896  -19.8156   -7.5498 C   0  0  0  0  0  0  0  0  0  0  0  0
   27.3080  -18.7629   -7.1367 C   0  0  0  0  0  0  0  0  0  0  0  0
   28.2749  -19.0222   -6.2210 C   0  0  0  0  0  0  0  0  0  0  0  0
   28.4725  -20.2783   -5.6915 C   0  0  0  0  0  0  0  0  0  0  0  0
   27.6688  -21.3266   -6.0929 C   0  0  0  0  0  0  0  0  0  0  0  0
   26.6771  -21.0944   -7.0223 C   0  0  0  0  0  0  0  0  0  0  0  0
   24.3221  -20.4432  -10.6032 C   0  0  0  0  0  0  0  0  0  0  0  0
   24.0347  -19.5938  -11.4880 O   0  0  0  0  0  0  0  0  0  0  0  0
   23.3776  -21.4899  -10.3880 N   0  0  0  0  0  0  0  0  0  0  0  0
   22.1859  -21.5589  -11.1896 C   0  0  1  0  0  0  0  0  0  0  0  0
   21.9949  -22.9116  -11.8343 C   0  0  0  0  0  0  0  0  0  0  0  0
   20.3186  -22.9419  -12.5334 S   0  0  0  0  0  0  0  0  0  0  0  0
   21.0129  -21.2615  -10.3333 C   0  0  0  0  0  0  0  0  0  0  0  0
   21.0907  -21.4151   -9.0791 O   0  0  0  0  0  0  0  0  0  0  0  0
   19.8292  -20.8192  -10.8629 O   0  0  0  0  0  0  0  0  0  0  0  0
  2  1  1  6
  2 10  1  0
  3  2  1  0
  3  4  1  0
  4  9  1  0
  4  5  2  0
  5  6  1  0
  6  7  2  0
  8  7  1  0
  9  8  2  0
 10 11  2  0
 12 10  1  0
 12 13  1  0
 13 21  1  0
 13 14  1  1
 14 15  1  0
 15 16  2  0
 16 17  1  0
 18 17  2  0
 19 18  1  0
 20 15  1  0
 20 19  2  0
 21 22  2  0
 23 24  1  0
 23 21  1  0
 24 27  1  0
 24 25  1  1
 26 25  1  0
 27 28  2  0
 27 29  1  0
M  END
$$$$
