FFC.pdb
     RDKit          3D

 29 30  0  0  1  0  0  0  0  0999 V2000
   23.7846  -32.4024  -15.0202 N   0  0  0  0  0  0  0  0  0  0  0  0
   23.9480  -33.3767  -13.9608 C   0  0  1  0  0  0  0  0  0  0  0  0
   25.0864  -34.2874  -14.3687 C   0  0  0  0  0  0  0  0  0  0  0  0
   24.5616  -35.3421  -15.2503 C   0  0  0  0  0  0  0  0  0  0  0  0
   24.7533  -35.2956  -16.6297 C   0  0  0  0  0  0  0  0  0  0  0  0
   24.2550  -36.2921  -17.4416 C   0  0  0  0  0  0  0  0  0  0  0  0
   23.5561  -37.3538  -16.8927 C   0  0  0  0  0  0  0  0  0  0  0  0
   23.3551  -37.4184  -15.5260 C   0  0  0  0  0  0  0  0  0  0  0  0
   23.8709  -36.3948  -14.7259 C   0  0  0  0  0  0  0  0  0  0  0  0
   24.1940  -32.6917  -12.6909 C   0  0  0  0  0  0  0  0  0  0  0  0
   24.9408  -31.6854  -12.6686 O   0  0  0  0  0  0  0  0  0  0  0  0
   23.6269  -33.1028  -11.4473 N   0  0  0  0  0  0  0  0  0  0  0  0
   23.8135  -32.3467  -10.2111 C   0  0  1  0  0  0  0  0  0  0  0  0
   22.4809  -31.8967   -9.6533 C   0  0  0  0  0  0  0  0  0  0  0  0
   21.9032  -30.7357  -10.3690 C   0  0  0  0  0  0  0  0  0  0  0  0
   22.3246  -29.4435  -10.0510 C   0  0  0  0  0  0  0  0  0  0  0  0
   21.7798  -28.4043  -10.7320 C   0  0  0  0  0  0  0  0  0  0  0  0
   20.8337  -28.5822  -11.7173 C   0  0  0  0  0  0  0  0  0  0  0  0
   20.4098  -29.8558  -12.0399 C   0  0  0  0  0  0  0  0  0  0  0  0
   20.9453  -30.9325  -11.3652 C   0  0  0  0  0  0  0  0  0  0  0  0
   24.5671  -33.2023   -9.2616 C   0  0  0  0  0  0  0  0  0  0  0  0
   24.3560  -34.4395   -9.1524 O   0  0  0  0  0  0  0  0  0  0  0  0
   25.5772  -32.6475   -8.4213 N   0  0  0  0  0  0  0  0  0  0  0  0
   26.2503  -33.4793   -7.4609 C   0  0  1  0  0  0  0  0  0  0  0  0
   27.5306  -32.8610   -6.9503 C   0  0  0  0  0  0  0  0  0  0  0  0
   28.8672  -33.4041   -8.0541 S   0  0  0  0  0  0  0  0  0  0  0  0
   25.3412  -33.7237   -6.3158 C   0  0  0  0  0  0  0  0  0  0  0  0
   25.4138  -34.8114   -5.6720 O   0  0  0  0  0  0  0  0  0  0  0  0
   24.4108  -32.7969   -5.9253 O   0  0  0  0  0  0  0  0  0  0  0  0
  2  1  1  6
  2 10  1  0
  3  2  1  0
  3  4  1  0
  4  9  1  0
  4  5  2  0
  5  6  1  0
  6  7  2  0
  8  7  1  0
  9  8  2  0
 10 11  2  0
 12 10  1  0
 12 13  1  0
 13 21  1  0
 13 14  1  1
 14 15  1  0
 15 16  2  0
 16 17  1  0
 18 17  2  0
 19 18  1  0
 20 15  1  0
 20 19  2  0
 21 22  2  0
 23 24  1  0
 23 21  1  0
 24 27  1  0
 24 25  1  1
 26 25  1  0
 27 28  2  0
 27 29  1  0
M  END
$$$$
