FFC.pdb
     RDKit          3D

 29 30  0  0  1  0  0  0  0  0999 V2000
   17.2112   -6.0101   -9.7994 N   0  0  0  0  0  0  0  0  0  0  0  0
   16.7113   -7.2018  -10.4537 C   0  0  1  0  0  0  0  0  0  0  0  0
   15.2226   -7.0085  -10.6486 C   0  0  0  0  0  0  0  0  0  0  0  0
   14.5378   -7.2536   -9.3696 C   0  0  0  0  0  0  0  0  0  0  0  0
   14.6616   -8.4709   -8.7028 C   0  0  0  0  0  0  0  0  0  0  0  0
   14.0132   -8.6842   -7.5052 C   0  0  0  0  0  0  0  0  0  0  0  0
   13.2290   -7.6873   -6.9500 C   0  0  0  0  0  0  0  0  0  0  0  0
   13.0933   -6.4721   -7.5961 C   0  0  0  0  0  0  0  0  0  0  0  0
   13.7616   -6.2823   -8.8090 C   0  0  0  0  0  0  0  0  0  0  0  0
   17.4276   -7.4136  -11.7125 C   0  0  0  0  0  0  0  0  0  0  0  0
   17.6921   -6.4305  -12.4434 O   0  0  0  0  0  0  0  0  0  0  0  0
   17.8548   -8.6949  -12.1739 N   0  0  0  0  0  0  0  0  0  0  0  0
   18.5121   -8.8856  -13.4646 C   0  0  1  0  0  0  0  0  0  0  0  0
   20.0039   -9.0635  -13.2840 C   0  0  0  0  0  0  0  0  0  0  0  0
   20.7432   -7.7838  -13.1854 C   0  0  0  0  0  0  0  0  0  0  0  0
   21.2328   -7.1735  -14.3415 C   0  0  0  0  0  0  0  0  0  0  0  0
   21.8986   -5.9982  -14.2146 C   0  0  0  0  0  0  0  0  0  0  0  0
   22.1045   -5.3944  -12.9938 C   0  0  0  0  0  0  0  0  0  0  0  0
   21.6244   -5.9892  -11.8442 C   0  0  0  0  0  0  0  0  0  0  0  0
   20.9435   -7.1843  -11.9408 C   0  0  0  0  0  0  0  0  0  0  0  0
   17.8781  -10.0489  -14.1328 C   0  0  0  0  0  0  0  0  0  0  0  0
   17.6861  -11.1454  -13.5429 O   0  0  0  0  0  0  0  0  0  0  0  0
   17.4541   -9.9692  -15.4921 N   0  0  0  0  0  0  0  0  0  0  0  0
   16.8651  -11.1154  -16.1299 C   0  0  1  0  0  0  0  0  0  0  0  0
   15.5119  -10.8164  -16.7312 C   0  0  0  0  0  0  0  0  0  0  0  0
   14.3500  -10.5892  -15.3535 S   0  0  0  0  0  0  0  0  0  0  0  0
   17.7749  -11.5906  -17.1994 C   0  0  0  0  0  0  0  0  0  0  0  0
   18.6315  -10.8024  -17.6972 O   0  0  0  0  0  0  0  0  0  0  0  0
   17.7185  -12.8746  -17.6742 O   0  0  0  0  0  0  0  0  0  0  0  0
  2  1  1  6
  2 10  1  0
  3  2  1  0
  3  4  1  0
  4  9  1  0
  4  5  2  0
  5  6  1  0
  6  7  2  0
  8  7  1  0
  9  8  2  0
 10 11  2  0
 12 10  1  0
 12 13  1  0
 13 21  1  0
 13 14  1  1
 14 15  1  0
 15 16  2  0
 16 17  1  0
 18 17  2  0
 19 18  1  0
 20 15  1  0
 20 19  2  0
 21 22  2  0
 23 24  1  0
 23 21  1  0
 24 27  1  0
 24 25  1  6
 26 25  1  0
 27 28  2  0
 27 29  1  0
M  END
$$$$
