FFC.pdb
     RDKit          3D

 29 30  0  0  1  0  0  0  0  0999 V2000
   28.5290  -21.2191  -15.0395 N   0  0  0  0  0  0  0  0  0  0  0  0
   27.6709  -20.1986  -14.4735 C   0  0  1  0  0  0  0  0  0  0  0  0
   26.9732  -19.5152  -15.6302 C   0  0  0  0  0  0  0  0  0  0  0  0
   27.9162  -18.5888  -16.2764 C   0  0  0  0  0  0  0  0  0  0  0  0
   28.5191  -18.9003  -17.4934 C   0  0  0  0  0  0  0  0  0  0  0  0
   29.4004  -18.0210  -18.0854 C   0  0  0  0  0  0  0  0  0  0  0  0
   29.6969  -16.8143  -17.4746 C   0  0  0  0  0  0  0  0  0  0  0  0
   29.1090  -16.4864  -16.2666 C   0  0  0  0  0  0  0  0  0  0  0  0
   28.2191  -17.3961  -15.6882 C   0  0  0  0  0  0  0  0  0  0  0  0
   26.7370  -20.8066  -13.5244 C   0  0  0  0  0  0  0  0  0  0  0  0
   26.2843  -21.9525  -13.7543 O   0  0  0  0  0  0  0  0  0  0  0  0
   26.2973  -20.1668  -12.3268 N   0  0  0  0  0  0  0  0  0  0  0  0
   25.2861  -20.7521  -11.4496 C   0  0  1  0  0  0  0  0  0  0  0  0
   25.3129  -20.0927  -10.0880 C   0  0  0  0  0  0  0  0  0  0  0  0
   26.5382  -20.3918   -9.3114 C   0  0  0  0  0  0  0  0  0  0  0  0
   27.5715  -21.1239   -9.8987 C   0  0  0  0  0  0  0  0  0  0  0  0
   28.6824  -21.3728   -9.1607 C   0  0  0  0  0  0  0  0  0  0  0  0
   28.8213  -20.9305   -7.8636 C   0  0  0  0  0  0  0  0  0  0  0  0
   27.8057  -20.2056   -7.2730 C   0  0  0  0  0  0  0  0  0  0  0  0
   26.6640  -19.9364   -7.9979 C   0  0  0  0  0  0  0  0  0  0  0  0
   23.9685  -20.6196  -12.1192 C   0  0  0  0  0  0  0  0  0  0  0  0
   23.5226  -19.5118  -12.5206 O   0  0  0  0  0  0  0  0  0  0  0  0
   23.1419  -21.7610  -12.3379 N   0  0  0  0  0  0  0  0  0  0  0  0
   21.9610  -21.6483  -13.1504 C   0  0  1  0  0  0  0  0  0  0  0  0
   21.9042  -22.6896  -14.2434 C   0  0  0  0  0  0  0  0  0  0  0  0
   22.5067  -24.2487  -13.5321 S   0  0  0  0  0  0  0  0  0  0  0  0
   20.7663  -21.7910  -12.2844 C   0  0  0  0  0  0  0  0  0  0  0  0
   20.9040  -22.0879  -11.0614 O   0  0  0  0  0  0  0  0  0  0  0  0
   19.4987  -21.6093  -12.7714 O   0  0  0  0  0  0  0  0  0  0  0  0
  2  1  1  6
  2 10  1  0
  3  2  1  0
  3  4  1  0
  4  9  1  0
  4  5  2  0
  5  6  1  0
  6  7  2  0
  8  7  1  0
  9  8  2  0
 10 11  2  0
 12 10  1  0
 12 13  1  0
 13 21  1  0
 13 14  1  1
 14 15  1  0
 15 16  2  0
 16 17  1  0
 18 17  2  0
 19 18  1  0
 20 15  1  0
 20 19  2  0
 21 22  2  0
 23 24  1  0
 23 21  1  0
 24 27  1  0
 24 25  1  6
 26 25  1  0
 27 28  2  0
 27 29  1  0
M  END
$$$$
