FFC.pdb
     RDKit          3D

 29 30  0  0  1  0  0  0  0  0999 V2000
   27.6653  -21.1287  -15.4091 N   0  0  0  0  0  0  0  0  0  0  0  0
   27.5459  -20.2777  -14.2430 C   0  0  1  0  0  0  0  0  0  0  0  0
   26.9187  -18.9796  -14.7046 C   0  0  0  0  0  0  0  0  0  0  0  0
   27.7986  -18.3529  -15.7037 C   0  0  0  0  0  0  0  0  0  0  0  0
   27.3894  -18.1827  -17.0248 C   0  0  0  0  0  0  0  0  0  0  0  0
   28.2262  -17.5937  -17.9484 C   0  0  0  0  0  0  0  0  0  0  0  0
   29.4870  -17.1632  -17.5716 C   0  0  0  0  0  0  0  0  0  0  0  0
   29.9120  -17.3230  -16.2653 C   0  0  0  0  0  0  0  0  0  0  0  0
   29.0436  -17.9234  -15.3492 C   0  0  0  0  0  0  0  0  0  0  0  0
   26.7578  -20.9561  -13.2129 C   0  0  0  0  0  0  0  0  0  0  0  0
   25.9360  -21.8406  -13.5492 O   0  0  0  0  0  0  0  0  0  0  0  0
   26.8652  -20.6708  -11.8185 N   0  0  0  0  0  0  0  0  0  0  0  0
   26.0530  -21.3516  -10.8129 C   0  0  1  0  0  0  0  0  0  0  0  0
   26.9113  -21.8140   -9.6558 C   0  0  0  0  0  0  0  0  0  0  0  0
   26.9755  -20.8394   -8.5423 C   0  0  0  0  0  0  0  0  0  0  0  0
   25.9166  -20.7478   -7.6372 C   0  0  0  0  0  0  0  0  0  0  0  0
   26.0126  -19.8495   -6.6251 C   0  0  0  0  0  0  0  0  0  0  0  0
   27.1106  -19.0334   -6.4640 C   0  0  0  0  0  0  0  0  0  0  0  0
   28.1634  -19.1157   -7.3532 C   0  0  0  0  0  0  0  0  0  0  0  0
   28.0952  -20.0194   -8.3924 C   0  0  0  0  0  0  0  0  0  0  0  0
   24.9785  -20.4210  -10.3870 C   0  0  0  0  0  0  0  0  0  0  0  0
   25.1774  -19.1876  -10.2249 O   0  0  0  0  0  0  0  0  0  0  0  0
   23.6563  -20.8953  -10.1405 N   0  0  0  0  0  0  0  0  0  0  0  0
   22.5408  -20.3059  -10.8303 C   0  0  1  0  0  0  0  0  0  0  0  0
   22.6092  -20.5055  -12.3261 C   0  0  0  0  0  0  0  0  0  0  0  0
   22.0274  -18.9688  -13.1006 S   0  0  0  0  0  0  0  0  0  0  0  0
   21.2867  -20.9086  -10.3190 C   0  0  0  0  0  0  0  0  0  0  0  0
   20.1979  -20.2678  -10.4015 O   0  0  0  0  0  0  0  0  0  0  0  0
   21.2668  -22.1555   -9.7515 O   0  0  0  0  0  0  0  0  0  0  0  0
  2  1  1  6
  2 10  1  0
  3  2  1  0
  3  4  1  0
  4  9  1  0
  4  5  2  0
  5  6  1  0
  6  7  2  0
  8  7  1  0
  9  8  2  0
 10 11  2  0
 12 10  1  0
 12 13  1  0
 13 21  1  0
 13 14  1  1
 14 15  1  0
 15 16  2  0
 16 17  1  0
 18 17  2  0
 19 18  1  0
 20 15  1  0
 20 19  2  0
 21 22  2  0
 23 24  1  0
 23 21  1  0
 24 27  1  0
 24 25  1  6
 26 25  1  0
 27 28  2  0
 27 29  1  0
M  END
$$$$
