HMS.pdb
     RDKit          3D

 25 25  0  0  1  0  0  0  0  0999 V2000
   20.8765  -13.3780  -17.5068 N   0  0  0  0  0  0  0  0  0  0  0  0
   20.4116  -12.0027  -17.4713 C   0  0  1  0  0  0  0  0  0  0  0  0
   19.2005  -11.9052  -16.5597 C   0  0  0  0  0  0  0  0  0  0  0  0
   18.0747  -12.7219  -17.1287 C   0  0  0  0  0  0  0  0  0  0  0  0
   17.5462  -12.5234  -18.3775 C   0  0  0  0  0  0  0  0  0  0  0  0
   16.5704  -13.4443  -18.5060 N   0  0  0  0  0  0  0  0  0  0  0  0
   16.5103  -14.1704  -17.3822 C   0  0  0  0  0  0  0  0  0  0  0  0
   17.4461  -13.7327  -16.5055 N   0  0  0  0  0  0  0  0  0  0  0  0
   21.4478  -11.0970  -16.9507 C   0  0  0  0  0  0  0  0  0  0  0  0
   22.1414  -11.4555  -15.9724 O   0  0  0  0  0  0  0  0  0  0  0  0
   26.8976   -5.9625  -18.9505 C   0  0  0  0  0  0  0  0  0  0  0  0
   25.5634   -7.1194  -19.3732 S   0  0  0  0  0  0  0  0  0  0  0  0
   24.6297   -7.5596  -17.8556 C   0  0  0  0  0  0  0  0  0  0  0  0
   23.5471   -8.5499  -18.1927 C   0  0  0  0  0  0  0  0  0  0  0  0
   22.6367   -8.8853  -17.0598 C   0  0  2  0  0  0  0  0  0  0  0  0
   21.6487   -9.8440  -17.5541 N   0  0  0  0  0  0  0  0  0  0  0  0
   21.9056   -7.7480  -16.4795 C   0  0  0  0  0  0  0  0  0  0  0  0
   20.9255   -7.2895  -17.1219 O   0  0  0  0  0  0  0  0  0  0  0  0
   20.7598   -4.9673  -12.8342 O   0  0  0  0  0  0  0  0  0  0  0  0
   21.5482   -6.0534  -13.2180 C   0  0  0  0  0  0  0  0  0  0  0  0
   21.5645   -6.0288  -14.7521 C   0  0  2  0  0  0  0  0  0  0  0  0
   22.2839   -7.1848  -15.2455 N   0  0  0  0  0  0  0  0  0  0  0  0
   22.1708   -4.7626  -15.2003 C   0  0  0  0  0  0  0  0  0  0  0  0
   23.3898   -4.5683  -15.0276 O   0  0  0  0  0  0  0  0  0  0  0  0
   21.4120   -3.7981  -15.8036 O   0  0  0  0  0  0  0  0  0  0  0  0
  2  1  1  1
  3  2  1  0
  4  3  1  0
  5  4  2  0
  6  5  1  0
  7  6  1  0
  7  8  2  0
  8  4  1  0
  9  2  1  0
  9 10  2  0
 12 11  1  0
 12 13  1  0
 13 14  1  0
 15 14  1  6
 15 17  1  0
 16 15  1  0
 16  9  1  0
 17 22  1  0
 18 17  2  0
 20 19  1  0
 21 22  1  0
 21 20  1  1
 23 21  1  0
 24 23  2  0
 25 23  1  0
M  END
$$$$
