HMS.pdb
     RDKit          3D

 25 25  0  0  1  0  0  0  0  0999 V2000
   27.0993  -21.4108  -13.6652 N   0  0  0  0  0  0  0  0  0  0  0  0
   26.3824  -20.4150  -12.8884 C   0  0  1  0  0  0  0  0  0  0  0  0
   25.1146  -20.0199  -13.6257 C   0  0  0  0  0  0  0  0  0  0  0  0
   25.4716  -19.2359  -14.8571 C   0  0  0  0  0  0  0  0  0  0  0  0
   25.1090  -19.6054  -16.1260 C   0  0  0  0  0  0  0  0  0  0  0  0
   25.6158  -18.6549  -16.9363 N   0  0  0  0  0  0  0  0  0  0  0  0
   26.2584  -17.7476  -16.1896 C   0  0  0  0  0  0  0  0  0  0  0  0
   26.1794  -18.0941  -14.8821 N   0  0  0  0  0  0  0  0  0  0  0  0
   25.9975  -20.9370  -11.5676 C   0  0  0  0  0  0  0  0  0  0  0  0
   25.5578  -22.1050  -11.4734 O   0  0  0  0  0  0  0  0  0  0  0  0
   27.7050  -19.7860   -3.9741 C   0  0  0  0  0  0  0  0  0  0  0  0
   27.5696  -19.0866   -5.6443 S   0  0  0  0  0  0  0  0  0  0  0  0
   26.5240  -20.1797   -6.6839 C   0  0  0  0  0  0  0  0  0  0  0  0
   26.6191  -19.7554   -8.1252 C   0  0  0  0  0  0  0  0  0  0  0  0
   25.8619  -20.6174   -9.0783 C   0  0  2  0  0  0  0  0  0  0  0  0
   26.1268  -20.1232  -10.4293 N   0  0  0  0  0  0  0  0  0  0  0  0
   24.4032  -20.6390   -8.8876 C   0  0  0  0  0  0  0  0  0  0  0  0
   23.7175  -19.7781   -9.4975 O   0  0  0  0  0  0  0  0  0  0  0  0
   21.8499  -21.6634   -5.8932 O   0  0  0  0  0  0  0  0  0  0  0  0
   21.8577  -22.5824   -6.9438 C   0  0  0  0  0  0  0  0  0  0  0  0
   22.3589  -21.8047   -8.1678 C   0  0  2  0  0  0  0  0  0  0  0  0
   23.7862  -21.5893   -8.0512 N   0  0  0  0  0  0  0  0  0  0  0  0
   21.6108  -20.5387   -8.2650 C   0  0  0  0  0  0  0  0  0  0  0  0
   20.3842  -20.5634   -8.4850 O   0  0  0  0  0  0  0  0  0  0  0  0
   22.2463  -19.3370   -8.1166 O   0  0  0  0  0  0  0  0  0  0  0  0
  2  1  1  6
  3  2  1  0
  4  3  1  0
  5  4  2  0
  6  5  1  0
  7  6  1  0
  7  8  2  0
  8  4  1  0
  9  2  1  0
  9 10  2  0
 12 11  1  0
 12 13  1  0
 13 14  1  0
 15 14  1  1
 15 17  1  0
 16 15  1  0
 16  9  1  0
 17 22  1  0
 18 17  2  0
 20 19  1  0
 21 22  1  0
 21 20  1  1
 23 21  1  0
 24 23  2  0
 25 23  1  0
M  END
$$$$
