HMS.pdb
     RDKit          3D

 25 25  0  0  1  0  0  0  0  0999 V2000
   38.4120  -10.6960   -6.5247 N   0  0  0  0  0  0  0  0  0  0  0  0
   39.5995  -10.2186   -7.2110 C   0  0  1  0  0  0  0  0  0  0  0  0
   39.7536   -8.7268   -6.9698 C   0  0  0  0  0  0  0  0  0  0  0  0
   38.9252   -7.9671   -7.9672 C   0  0  0  0  0  0  0  0  0  0  0  0
   38.1634   -8.5654   -8.9367 C   0  0  0  0  0  0  0  0  0  0  0  0
   37.5859   -7.5544   -9.6157 N   0  0  0  0  0  0  0  0  0  0  0  0
   37.9813   -6.3923   -9.0801 C   0  0  0  0  0  0  0  0  0  0  0  0
   38.8220   -6.6297   -8.0444 N   0  0  0  0  0  0  0  0  0  0  0  0
   40.8131  -10.8879   -6.7166 C   0  0  0  0  0  0  0  0  0  0  0  0
   40.9043  -11.1746   -5.5017 O   0  0  0  0  0  0  0  0  0  0  0  0
   42.0322  -16.9514   -9.1270 C   0  0  0  0  0  0  0  0  0  0  0  0
   42.9196  -15.3904   -9.3976 S   0  0  0  0  0  0  0  0  0  0  0  0
   42.5488  -14.2285   -8.0261 C   0  0  0  0  0  0  0  0  0  0  0  0
   43.3439  -12.9623   -8.2019 C   0  0  0  0  0  0  0  0  0  0  0  0
   43.0624  -11.9055   -7.1878 C   0  0  2  0  0  0  0  0  0  0  0  0
   41.8534  -11.1980   -7.6089 N   0  0  0  0  0  0  0  0  0  0  0  0
   44.1261  -10.9053   -7.0065 C   0  0  0  0  0  0  0  0  0  0  0  0
   44.2112   -9.9772   -7.8520 O   0  0  0  0  0  0  0  0  0  0  0  0
   46.7202  -11.2334   -3.9582 O   0  0  0  0  0  0  0  0  0  0  0  0
   46.4927   -9.9009   -4.3061 C   0  0  0  0  0  0  0  0  0  0  0  0
   46.0138   -9.9317   -5.7635 C   0  0  2  0  0  0  0  0  0  0  0  0
   45.0244  -10.9769   -5.9242 N   0  0  0  0  0  0  0  0  0  0  0  0
   47.1801  -10.1291   -6.6425 C   0  0  0  0  0  0  0  0  0  0  0  0
   47.2652  -11.1656   -7.3295 O   0  0  0  0  0  0  0  0  0  0  0  0
   48.1702   -9.1885   -6.7135 O   0  0  0  0  0  0  0  0  0  0  0  0
  2  1  1  1
  3  2  1  0
  4  3  1  0
  5  4  2  0
  6  5  1  0
  7  6  1  0
  7  8  2  0
  8  4  1  0
  9  2  1  0
  9 10  2  0
 12 11  1  0
 12 13  1  0
 13 14  1  0
 15 14  1  6
 15 17  1  0
 16 15  1  0
 16  9  1  0
 17 22  1  0
 18 17  2  0
 20 19  1  0
 21 22  1  0
 21 20  1  1
 23 21  1  0
 24 23  2  0
 25 23  1  0
M  END
$$$$
