HMS.pdb
     RDKit          3D

 25 25  0  0  1  0  0  0  0  0999 V2000
   16.1806  -20.0881    1.2696 N   0  0  0  0  0  0  0  0  0  0  0  0
   15.7638  -19.6835    2.6006 C   0  0  1  0  0  0  0  0  0  0  0  0
   15.4516  -20.9193    3.4267 C   0  0  0  0  0  0  0  0  0  0  0  0
   14.2937  -21.6556    2.8139 C   0  0  0  0  0  0  0  0  0  0  0  0
   14.3780  -22.9321    2.3224 C   0  0  0  0  0  0  0  0  0  0  0  0
   13.1439  -23.2242    1.8657 N   0  0  0  0  0  0  0  0  0  0  0  0
   12.3455  -22.1688    2.0719 C   0  0  0  0  0  0  0  0  0  0  0  0
   13.0481  -21.1741    2.6659 N   0  0  0  0  0  0  0  0  0  0  0  0
   16.8224  -18.9296    3.2906 C   0  0  0  0  0  0  0  0  0  0  0  0
   18.0216  -19.1890    3.0434 O   0  0  0  0  0  0  0  0  0  0  0  0
   19.2891  -11.8769    4.4300 C   0  0  0  0  0  0  0  0  0  0  0  0
   18.1740  -13.1357    3.7451 S   0  0  0  0  0  0  0  0  0  0  0  0
   18.3107  -14.6779    4.7308 C   0  0  0  0  0  0  0  0  0  0  0  0
   17.3742  -15.7197    4.1796 C   0  0  0  0  0  0  0  0  0  0  0  0
   17.4770  -17.0564    4.8333 C   0  0  2  0  0  0  0  0  0  0  0  0
   16.4789  -17.9296    4.2162 N   0  0  0  0  0  0  0  0  0  0  0  0
   17.2449  -17.0681    6.2862 C   0  0  0  0  0  0  0  0  0  0  0  0
   16.0553  -17.0087    6.6922 O   0  0  0  0  0  0  0  0  0  0  0  0
   20.1932  -17.9521    8.8303 O   0  0  0  0  0  0  0  0  0  0  0  0
   18.9083  -18.1287    9.3462 C   0  0  0  0  0  0  0  0  0  0  0  0
   18.0279  -17.1038    8.6189 C   0  0  2  0  0  0  0  0  0  0  0  0
   18.3140  -17.1430    7.1998 N   0  0  0  0  0  0  0  0  0  0  0  0
   18.2717  -15.7715    9.1995 C   0  0  0  0  0  0  0  0  0  0  0  0
   18.8416  -14.8973    8.5177 O   0  0  0  0  0  0  0  0  0  0  0  0
   17.8800  -15.4824   10.4774 O   0  0  0  0  0  0  0  0  0  0  0  0
  2  1  1  6
  3  2  1  0
  4  3  1  0
  5  4  2  0
  6  5  1  0
  7  6  1  0
  7  8  2  0
  8  4  1  0
  9  2  1  0
  9 10  2  0
 12 11  1  0
 12 13  1  0
 13 14  1  0
 15 14  1  6
 15 17  1  0
 16 15  1  0
 16  9  1  0
 17 22  1  0
 18 17  2  0
 20 19  1  0
 21 22  1  0
 21 20  1  1
 23 21  1  0
 24 23  2  0
 25 23  1  0
M  END
$$$$
