HMS.pdb
     RDKit          3D

 25 25  0  0  1  0  0  0  0  0999 V2000
   20.1387  -13.1185  -16.1317 N   0  0  0  0  0  0  0  0  0  0  0  0
   19.8110  -11.7438  -16.4660 C   0  0  1  0  0  0  0  0  0  0  0  0
   18.3221  -11.5193  -16.2658 C   0  0  0  0  0  0  0  0  0  0  0  0
   17.5485  -12.4225  -17.1846 C   0  0  0  0  0  0  0  0  0  0  0  0
   16.7050  -13.4104  -16.7477 C   0  0  0  0  0  0  0  0  0  0  0  0
   16.2147  -13.9848  -17.8641 N   0  0  0  0  0  0  0  0  0  0  0  0
   16.7392  -13.3707  -18.9326 C   0  0  0  0  0  0  0  0  0  0  0  0
   17.5787  -12.3874  -18.5273 N   0  0  0  0  0  0  0  0  0  0  0  0
   20.5346  -10.7934  -15.6068 C   0  0  0  0  0  0  0  0  0  0  0  0
   20.2701  -10.7466  -14.3843 O   0  0  0  0  0  0  0  0  0  0  0  0
   27.0290  -11.2254  -15.6031 C   0  0  0  0  0  0  0  0  0  0  0  0
   25.2428  -11.5123  -15.4465 S   0  0  0  0  0  0  0  0  0  0  0  0
   24.4586  -10.0665  -14.6318 C   0  0  0  0  0  0  0  0  0  0  0  0
   23.7298   -9.2380  -15.6558 C   0  0  0  0  0  0  0  0  0  0  0  0
   22.2867   -9.0087  -15.3570 C   0  0  2  0  0  0  0  0  0  0  0  0
   21.5118   -9.9511  -16.1639 N   0  0  0  0  0  0  0  0  0  0  0  0
   21.7890   -7.6551  -15.6487 C   0  0  0  0  0  0  0  0  0  0  0  0
   21.4821   -7.3851  -16.8388 O   0  0  0  0  0  0  0  0  0  0  0  0
   19.4848   -3.8000  -14.5405 O   0  0  0  0  0  0  0  0  0  0  0  0
   19.9163   -5.0613  -14.1265 C   0  0  0  0  0  0  0  0  0  0  0  0
   21.1529   -5.3740  -14.9794 C   0  0  2  0  0  0  0  0  0  0  0  0
   21.6573   -6.6870  -14.6345 N   0  0  0  0  0  0  0  0  0  0  0  0
   22.1576   -4.3175  -14.7644 C   0  0  0  0  0  0  0  0  0  0  0  0
   22.9026   -4.3699  -13.7665 O   0  0  0  0  0  0  0  0  0  0  0  0
   22.2824   -3.2802  -15.6467 O   0  0  0  0  0  0  0  0  0  0  0  0
  2  1  1  1
  3  2  1  0
  4  3  1  0
  5  4  2  0
  6  5  1  0
  7  6  1  0
  7  8  2  0
  8  4  1  0
  9  2  1  0
  9 10  2  0
 12 11  1  0
 12 13  1  0
 13 14  1  0
 15 14  1  6
 15 17  1  0
 16 15  1  0
 16  9  1  0
 17 22  1  0
 18 17  2  0
 20 19  1  0
 21 22  1  0
 21 20  1  1
 23 21  1  0
 24 23  2  0
 25 23  1  0
M  END
$$$$
