HMS.pdb
     RDKit          3D

 25 25  0  0  1  0  0  0  0  0999 V2000
   21.1012  -12.3393  -18.7566 N   0  0  0  0  0  0  0  0  0  0  0  0
   21.3740  -10.9132  -18.7334 C   0  0  1  0  0  0  0  0  0  0  0  0
   20.6824  -10.2501  -19.9121 C   0  0  0  0  0  0  0  0  0  0  0  0
   21.3568  -10.6639  -21.1897 C   0  0  0  0  0  0  0  0  0  0  0  0
   20.7736  -11.4715  -22.1309 C   0  0  0  0  0  0  0  0  0  0  0  0
   21.6910  -11.6042  -23.1095 N   0  0  0  0  0  0  0  0  0  0  0  0
   22.7841  -10.9063  -22.7751 C   0  0  0  0  0  0  0  0  0  0  0  0
   22.5943  -10.3089  -21.5739 N   0  0  0  0  0  0  0  0  0  0  0  0
   20.8711  -10.2885  -17.4997 C   0  0  0  0  0  0  0  0  0  0  0  0
   19.7305  -10.5886  -17.0806 O   0  0  0  0  0  0  0  0  0  0  0  0
   22.2536   -9.5267  -10.1571 C   0  0  0  0  0  0  0  0  0  0  0  0
   22.6741  -10.0464  -11.8454 S   0  0  0  0  0  0  0  0  0  0  0  0
   21.6809   -9.0809  -13.0496 C   0  0  0  0  0  0  0  0  0  0  0  0
   21.9976   -9.5331  -14.4501 C   0  0  0  0  0  0  0  0  0  0  0  0
   21.2733   -8.7907  -15.5219 C   0  0  2  0  0  0  0  0  0  0  0  0
   21.6723   -9.3655  -16.8064 N   0  0  0  0  0  0  0  0  0  0  0  0
   21.5379   -7.3444  -15.5772 C   0  0  0  0  0  0  0  0  0  0  0  0
   22.6672   -6.9683  -15.9853 O   0  0  0  0  0  0  0  0  0  0  0  0
   18.7336   -4.7142  -14.3951 O   0  0  0  0  0  0  0  0  0  0  0  0
   19.5376   -4.2079  -15.4177 C   0  0  0  0  0  0  0  0  0  0  0  0
   20.8532   -4.9932  -15.3346 C   0  0  2  0  0  0  0  0  0  0  0  0
   20.5640   -6.4046  -15.1879 N   0  0  0  0  0  0  0  0  0  0  0  0
   21.6493   -4.4682  -14.2110 C   0  0  0  0  0  0  0  0  0  0  0  0
   21.9119   -5.2085  -13.2432 O   0  0  0  0  0  0  0  0  0  0  0  0
   22.1036   -3.1784  -14.2175 O   0  0  0  0  0  0  0  0  0  0  0  0
  2  1  1  1
  3  2  1  0
  4  3  1  0
  5  4  2  0
  6  5  1  0
  7  6  1  0
  7  8  2  0
  8  4  1  0
  9  2  1  0
  9 10  2  0
 12 11  1  0
 12 13  1  0
 13 14  1  0
 15 14  1  1
 15 17  1  0
 16 15  1  0
 16  9  1  0
 17 22  1  0
 18 17  2  0
 20 19  1  0
 21 22  1  0
 21 20  1  1
 23 21  1  0
 24 23  2  0
 25 23  1  0
M  END
$$$$
