HMS.pdb
     RDKit          3D

 25 25  0  0  1  0  0  0  0  0999 V2000
   21.2315  -12.5018  -20.4820 N   0  0  0  0  0  0  0  0  0  0  0  0
   21.7946  -11.2116  -20.1254 C   0  0  1  0  0  0  0  0  0  0  0  0
   21.5898  -10.2392  -21.2742 C   0  0  0  0  0  0  0  0  0  0  0  0
   22.4510  -10.6448  -22.4370 C   0  0  0  0  0  0  0  0  0  0  0  0
   23.3660   -9.8158  -23.0318 C   0  0  0  0  0  0  0  0  0  0  0  0
   23.9210  -10.5434  -24.0214 N   0  0  0  0  0  0  0  0  0  0  0  0
   23.3656  -11.7621  -24.0260 C   0  0  0  0  0  0  0  0  0  0  0  0
   22.4407  -11.8458  -23.0393 N   0  0  0  0  0  0  0  0  0  0  0  0
   21.1422  -10.6505  -18.9318 C   0  0  0  0  0  0  0  0  0  0  0  0
   19.9176  -10.8399  -18.7552 O   0  0  0  0  0  0  0  0  0  0  0  0
   22.1833   -9.6521  -11.3434 C   0  0  0  0  0  0  0  0  0  0  0  0
   22.8341  -10.0635  -12.9879 S   0  0  0  0  0  0  0  0  0  0  0  0
   21.7054   -9.4047  -14.2766 C   0  0  0  0  0  0  0  0  0  0  0  0
   22.1797   -9.8366  -15.6385 C   0  0  0  0  0  0  0  0  0  0  0  0
   21.3199   -9.3819  -16.7693 C   0  0  2  0  0  0  0  0  0  0  0  0
   21.8965   -9.9110  -18.0051 N   0  0  0  0  0  0  0  0  0  0  0  0
   21.1962   -7.9237  -16.9215 C   0  0  0  0  0  0  0  0  0  0  0  0
   22.1655   -7.3009  -17.4276 O   0  0  0  0  0  0  0  0  0  0  0  0
   17.9170   -6.0878  -17.8192 O   0  0  0  0  0  0  0  0  0  0  0  0
   18.4853   -5.3757  -16.7617 C   0  0  0  0  0  0  0  0  0  0  0  0
   19.9571   -5.8073  -16.7183 C   0  0  2  0  0  0  0  0  0  0  0  0
   20.0341   -7.2393  -16.5164 N   0  0  0  0  0  0  0  0  0  0  0  0
   20.6406   -5.0568  -15.6500 C   0  0  0  0  0  0  0  0  0  0  0  0
   20.6597   -5.5147  -14.4908 O   0  0  0  0  0  0  0  0  0  0  0  0
   21.2544   -3.8639  -15.9151 O   0  0  0  0  0  0  0  0  0  0  0  0
  2  1  1  6
  3  2  1  0
  4  3  1  0
  5  4  2  0
  6  5  1  0
  7  6  1  0
  7  8  2  0
  8  4  1  0
  9  2  1  0
  9 10  2  0
 12 11  1  0
 12 13  1  0
 13 14  1  0
 15 14  1  1
 15 17  1  0
 16 15  1  0
 16  9  1  0
 17 22  1  0
 18 17  2  0
 20 19  1  0
 21 22  1  0
 21 20  1  1
 23 21  1  0
 24 23  2  0
 25 23  1  0
M  END
$$$$
