HMS.pdb
     RDKit          3D

 25 25  0  0  1  0  0  0  0  0999 V2000
   22.1452  -13.8691  -18.6581 N   0  0  0  0  0  0  0  0  0  0  0  0
   21.7675  -12.4747  -18.8061 C   0  0  1  0  0  0  0  0  0  0  0  0
   20.3194  -12.3916  -19.2569 C   0  0  0  0  0  0  0  0  0  0  0  0
   20.1797  -13.0097  -20.6195 C   0  0  0  0  0  0  0  0  0  0  0  0
   20.9248  -12.6324  -21.7062 C   0  0  0  0  0  0  0  0  0  0  0  0
   20.5026  -13.4131  -22.7206 N   0  0  0  0  0  0  0  0  0  0  0  0
   19.5421  -14.2291  -22.2676 C   0  0  0  0  0  0  0  0  0  0  0  0
   19.3248  -13.9916  -20.9514 N   0  0  0  0  0  0  0  0  0  0  0  0
   21.8914  -11.7450  -17.5344 C   0  0  0  0  0  0  0  0  0  0  0  0
   21.3009  -12.1769  -16.5188 O   0  0  0  0  0  0  0  0  0  0  0  0
   27.6841  -12.6864  -15.3797 C   0  0  0  0  0  0  0  0  0  0  0  0
   26.9338  -11.0610  -15.6838 S   0  0  0  0  0  0  0  0  0  0  0  0
   25.1143  -11.2451  -15.8400 C   0  0  0  0  0  0  0  0  0  0  0  0
   24.4851   -9.8993  -16.0831 C   0  0  0  0  0  0  0  0  0  0  0  0
   22.9988   -9.9210  -16.2062 C   0  0  2  0  0  0  0  0  0  0  0  0
   22.6684  -10.5759  -17.4718 N   0  0  0  0  0  0  0  0  0  0  0  0
   22.3456   -8.6027  -16.2005 C   0  0  0  0  0  0  0  0  0  0  0  0
   22.4534   -7.8884  -17.2308 O   0  0  0  0  0  0  0  0  0  0  0  0
   19.5632   -7.8135  -13.4843 O   0  0  0  0  0  0  0  0  0  0  0  0
   19.4463   -7.1226  -14.6915 C   0  0  0  0  0  0  0  0  0  0  0  0
   20.8837   -6.9049  -15.1824 C   0  0  2  0  0  0  0  0  0  0  0  0
   21.6211   -8.1473  -15.0820 N   0  0  0  0  0  0  0  0  0  0  0  0
   21.4986   -5.8267  -14.3879 C   0  0  0  0  0  0  0  0  0  0  0  0
   22.4746   -6.0810  -13.6556 O   0  0  0  0  0  0  0  0  0  0  0  0
   21.0111   -4.5503  -14.4445 O   0  0  0  0  0  0  0  0  0  0  0  0
  2  1  1  1
  3  2  1  0
  4  3  1  0
  5  4  2  0
  6  5  1  0
  7  6  1  0
  7  8  2  0
  8  4  1  0
  9  2  1  0
  9 10  2  0
 12 11  1  0
 12 13  1  0
 13 14  1  0
 15 14  1  6
 15 17  1  0
 16 15  1  0
 16  9  1  0
 17 22  1  0
 18 17  2  0
 20 19  1  0
 21 22  1  0
 21 20  1  1
 23 21  1  0
 24 23  2  0
 25 23  1  0
M  END
$$$$
