HMS.pdb
     RDKit          3D

 25 25  0  0  1  0  0  0  0  0999 V2000
   16.9596  -13.6930  -16.2916 N   0  0  0  0  0  0  0  0  0  0  0  0
   17.2816  -12.4435  -16.9579 C   0  0  1  0  0  0  0  0  0  0  0  0
   16.0670  -11.5317  -16.9299 C   0  0  0  0  0  0  0  0  0  0  0  0
   14.9663  -12.1332  -17.7574 C   0  0  0  0  0  0  0  0  0  0  0  0
   15.1746  -12.7709  -18.9525 C   0  0  0  0  0  0  0  0  0  0  0  0
   13.9534  -13.1585  -19.3713 N   0  0  0  0  0  0  0  0  0  0  0  0
   13.0435  -12.7718  -18.4678 C   0  0  0  0  0  0  0  0  0  0  0  0
   13.6590  -12.1268  -17.4475 N   0  0  0  0  0  0  0  0  0  0  0  0
   18.3906  -11.7459  -16.2881 C   0  0  0  0  0  0  0  0  0  0  0  0
   18.4266  -11.7091  -15.0375 O   0  0  0  0  0  0  0  0  0  0  0  0
   24.8818   -9.9273  -14.3042 C   0  0  0  0  0  0  0  0  0  0  0  0
   23.3682   -9.6414  -15.2655 S   0  0  0  0  0  0  0  0  0  0  0  0
   22.9003  -11.1826  -16.1456 C   0  0  0  0  0  0  0  0  0  0  0  0
   21.7679  -10.9022  -17.0971 C   0  0  0  0  0  0  0  0  0  0  0  0
   20.5166  -10.4149  -16.4480 C   0  0  2  0  0  0  0  0  0  0  0  0
   19.3947  -11.1308  -17.0549 N   0  0  0  0  0  0  0  0  0  0  0  0
   20.2545   -8.9736  -16.5849 C   0  0  0  0  0  0  0  0  0  0  0  0
   19.8967   -8.5454  -17.7127 O   0  0  0  0  0  0  0  0  0  0  0  0
   18.4237   -6.8977  -14.0773 O   0  0  0  0  0  0  0  0  0  0  0  0
   19.5318   -6.1064  -14.3849 C   0  0  0  0  0  0  0  0  0  0  0  0
   20.1062   -6.6887  -15.6831 C   0  0  2  0  0  0  0  0  0  0  0  0
   20.3972   -8.0947  -15.4938 N   0  0  0  0  0  0  0  0  0  0  0  0
   21.3044   -5.9179  -16.0598 C   0  0  0  0  0  0  0  0  0  0  0  0
   22.4144   -6.4837  -16.0966 O   0  0  0  0  0  0  0  0  0  0  0  0
   21.2130   -4.5892  -16.3698 O   0  0  0  0  0  0  0  0  0  0  0  0
  2  1  1  1
  3  2  1  0
  4  3  1  0
  5  4  2  0
  6  5  1  0
  7  6  1  0
  7  8  2  0
  8  4  1  0
  9  2  1  0
  9 10  2  0
 12 11  1  0
 12 13  1  0
 13 14  1  0
 15 14  1  6
 15 17  1  0
 16 15  1  0
 16  9  1  0
 17 22  1  0
 18 17  2  0
 20 19  1  0
 21 22  1  0
 21 20  1  1
 23 21  1  0
 24 23  2  0
 25 23  1  0
M  END
$$$$
