HMS.pdb
     RDKit          3D

 25 25  0  0  1  0  0  0  0  0999 V2000
   20.3341  -13.4454  -17.4039 N   0  0  0  0  0  0  0  0  0  0  0  0
   20.6962  -12.0680  -17.6882 C   0  0  1  0  0  0  0  0  0  0  0  0
   19.5581  -11.3930  -18.4340 C   0  0  0  0  0  0  0  0  0  0  0  0
   19.3334  -12.0890  -19.7469 C   0  0  0  0  0  0  0  0  0  0  0  0
   18.1192  -12.1458  -20.3798 C   0  0  0  0  0  0  0  0  0  0  0  0
   18.3345  -12.8497  -21.5090 N   0  0  0  0  0  0  0  0  0  0  0  0
   19.6250  -13.2044  -21.5580 C   0  0  0  0  0  0  0  0  0  0  0  0
   20.2689  -12.7366  -20.4614 N   0  0  0  0  0  0  0  0  0  0  0  0
   20.9436  -11.3099  -16.4516 C   0  0  0  0  0  0  0  0  0  0  0  0
   20.3720  -11.6573  -15.3938 O   0  0  0  0  0  0  0  0  0  0  0  0
   27.4744  -10.1726  -16.3271 C   0  0  0  0  0  0  0  0  0  0  0  0
   26.1366  -10.4011  -15.1209 S   0  0  0  0  0  0  0  0  0  0  0  0
   24.5684   -9.7444  -15.8125 C   0  0  0  0  0  0  0  0  0  0  0  0
   23.4712   -9.8618  -14.7885 C   0  0  0  0  0  0  0  0  0  0  0  0
   22.1252   -9.4339  -15.2677 C   0  0  2  0  0  0  0  0  0  0  0  0
   21.8157  -10.2082  -16.4695 N   0  0  0  0  0  0  0  0  0  0  0  0
   22.0006   -8.0082  -15.6094 C   0  0  0  0  0  0  0  0  0  0  0  0
   22.5562   -7.6055  -16.6643 O   0  0  0  0  0  0  0  0  0  0  0  0
   19.5974   -5.5695  -13.4959 O   0  0  0  0  0  0  0  0  0  0  0  0
   19.8697   -5.1338  -14.7938 C   0  0  0  0  0  0  0  0  0  0  0  0
   21.2474   -5.7125  -15.1420 C   0  0  2  0  0  0  0  0  0  0  0  0
   21.2846   -7.1163  -14.7879 N   0  0  0  0  0  0  0  0  0  0  0  0
   22.2815   -4.9332  -14.4383 C   0  0  0  0  0  0  0  0  0  0  0  0
   22.9735   -5.4812  -13.5584 O   0  0  0  0  0  0  0  0  0  0  0  0
   22.4910   -3.6158  -14.7393 O   0  0  0  0  0  0  0  0  0  0  0  0
  2  1  1  1
  3  2  1  0
  4  3  1  0
  5  4  2  0
  6  5  1  0
  7  6  1  0
  7  8  2  0
  8  4  1  0
  9  2  1  0
  9 10  2  0
 12 11  1  0
 12 13  1  0
 13 14  1  0
 15 14  1  6
 15 17  1  0
 16 15  1  0
 16  9  1  0
 17 22  1  0
 18 17  2  0
 20 19  1  0
 21 22  1  0
 21 20  1  1
 23 21  1  0
 24 23  2  0
 25 23  1  0
M  END
$$$$
