HMS.pdb
     RDKit          3D

 25 25  0  0  1  0  0  0  0  0999 V2000
   25.5550  -20.9015  -13.1981 N   0  0  0  0  0  0  0  0  0  0  0  0
   24.6900  -20.2364  -12.2397 C   0  0  1  0  0  0  0  0  0  0  0  0
   23.2910  -20.1222  -12.8203 C   0  0  0  0  0  0  0  0  0  0  0  0
   23.3294  -19.2811  -14.0650 C   0  0  0  0  0  0  0  0  0  0  0  0
   23.1584  -19.7836  -15.3285 C   0  0  0  0  0  0  0  0  0  0  0  0
   23.2634  -18.7239  -16.1547 N   0  0  0  0  0  0  0  0  0  0  0  0
   23.4886  -17.6253  -15.4225 C   0  0  0  0  0  0  0  0  0  0  0  0
   23.5334  -17.9538  -14.1087 N   0  0  0  0  0  0  0  0  0  0  0  0
   24.6004  -20.9919  -10.9802 C   0  0  0  0  0  0  0  0  0  0  0  0
   24.4849  -22.2377  -11.0185 O   0  0  0  0  0  0  0  0  0  0  0  0
   27.6245  -17.9326   -6.5447 C   0  0  0  0  0  0  0  0  0  0  0  0
   27.8509  -19.7276   -6.3897 S   0  0  0  0  0  0  0  0  0  0  0  0
   26.8808  -20.5829   -7.6920 C   0  0  0  0  0  0  0  0  0  0  0  0
   25.4131  -20.3129   -7.4940 C   0  0  0  0  0  0  0  0  0  0  0  0
   24.5174  -21.0010   -8.4682 C   0  0  2  0  0  0  0  0  0  0  0  0
   24.6455  -20.3112   -9.7518 N   0  0  0  0  0  0  0  0  0  0  0  0
   23.0905  -21.0189   -8.1101 C   0  0  0  0  0  0  0  0  0  0  0  0
   22.4117  -19.9860   -8.3466 O   0  0  0  0  0  0  0  0  0  0  0  0
   21.1485  -24.3927   -7.5243 O   0  0  0  0  0  0  0  0  0  0  0  0
   20.3469  -23.2738   -7.7569 C   0  0  0  0  0  0  0  0  0  0  0  0
   21.1009  -22.0906   -7.1358 C   0  0  2  0  0  0  0  0  0  0  0  0
   22.4956  -22.1514   -7.5212 N   0  0  0  0  0  0  0  0  0  0  0  0
   20.9253  -22.1307   -5.6731 C   0  0  0  0  0  0  0  0  0  0  0  0
   21.9264  -22.2053   -4.9343 O   0  0  0  0  0  0  0  0  0  0  0  0
   19.6769  -22.0870   -5.1166 O   0  0  0  0  0  0  0  0  0  0  0  0
  2  1  1  6
  3  2  1  0
  4  3  1  0
  5  4  2  0
  6  5  1  0
  7  6  1  0
  7  8  2  0
  8  4  1  0
  9  2  1  0
  9 10  2  0
 12 11  1  0
 12 13  1  0
 13 14  1  0
 15 14  1  1
 15 17  1  0
 16 15  1  0
 16  9  1  0
 17 22  1  0
 18 17  2  0
 20 19  1  0
 21 22  1  0
 21 20  1  6
 23 21  1  0
 24 23  2  0
 25 23  1  0
M  END
$$$$
