HMS.pdb
     RDKit          3D

 25 25  0  0  1  0  0  0  0  0999 V2000
   20.0005  -12.7548  -18.7959 N   0  0  0  0  0  0  0  0  0  0  0  0
   19.9518  -11.3035  -18.7771 C   0  0  1  0  0  0  0  0  0  0  0  0
   18.5438  -10.8526  -18.4284 C   0  0  0  0  0  0  0  0  0  0  0  0
   17.5969  -11.2695  -19.5183 C   0  0  0  0  0  0  0  0  0  0  0  0
   17.4481  -10.5887  -20.6984 C   0  0  0  0  0  0  0  0  0  0  0  0
   16.5178  -11.2727  -21.3937 N   0  0  0  0  0  0  0  0  0  0  0  0
   16.1197  -12.3238  -20.6653 C   0  0  0  0  0  0  0  0  0  0  0  0
   16.7851  -12.3395  -19.4851 N   0  0  0  0  0  0  0  0  0  0  0  0
   20.8706  -10.7466  -17.7717 C   0  0  0  0  0  0  0  0  0  0  0  0
   20.8291  -11.1766  -16.5970 O   0  0  0  0  0  0  0  0  0  0  0  0
   26.8902  -10.2519  -14.7761 C   0  0  0  0  0  0  0  0  0  0  0  0
   25.4855  -10.5258  -15.8936 S   0  0  0  0  0  0  0  0  0  0  0  0
   25.3046   -9.0847  -17.0159 C   0  0  0  0  0  0  0  0  0  0  0  0
   24.1117   -9.2836  -17.9123 C   0  0  0  0  0  0  0  0  0  0  0  0
   22.7942   -9.2274  -17.2155 C   0  0  2  0  0  0  0  0  0  0  0  0
   21.7825   -9.7421  -18.1381 N   0  0  0  0  0  0  0  0  0  0  0  0
   22.3655   -7.8881  -16.7830 C   0  0  0  0  0  0  0  0  0  0  0  0
   21.9852   -7.0780  -17.6676 O   0  0  0  0  0  0  0  0  0  0  0  0
   21.3717   -4.7550  -13.3209 O   0  0  0  0  0  0  0  0  0  0  0  0
   21.7180   -6.0844  -13.5682 C   0  0  0  0  0  0  0  0  0  0  0  0
   22.0389   -6.1546  -15.0670 C   0  0  2  0  0  0  0  0  0  0  0  0
   22.3773   -7.5165  -15.4246 N   0  0  0  0  0  0  0  0  0  0  0  0
   23.1331   -5.2129  -15.3630 C   0  0  0  0  0  0  0  0  0  0  0  0
   24.3147   -5.6069  -15.3152 O   0  0  0  0  0  0  0  0  0  0  0  0
   22.8677   -3.9118  -15.6896 O   0  0  0  0  0  0  0  0  0  0  0  0
  2  1  1  1
  3  2  1  0
  4  3  1  0
  5  4  2  0
  6  5  1  0
  7  6  1  0
  7  8  2  0
  8  4  1  0
  9  2  1  0
  9 10  2  0
 12 11  1  0
 12 13  1  0
 13 14  1  0
 15 14  1  6
 15 17  1  0
 16 15  1  0
 16  9  1  0
 17 22  1  0
 18 17  2  0
 20 19  1  0
 21 22  1  0
 21 20  1  1
 23 21  1  0
 24 23  2  0
 25 23  1  0
M  END
$$$$
