HMS.pdb
     RDKit          3D

 25 25  0  0  1  0  0  0  0  0999 V2000
   20.5937  -14.3222  -18.1193 N   0  0  0  0  0  0  0  0  0  0  0  0
   20.6382  -12.9253  -18.5137 C   0  0  1  0  0  0  0  0  0  0  0  0
   19.2350  -12.3455  -18.4682 C   0  0  0  0  0  0  0  0  0  0  0  0
   18.3925  -12.9807  -19.5382 C   0  0  0  0  0  0  0  0  0  0  0  0
   18.8317  -13.2113  -20.8157 C   0  0  0  0  0  0  0  0  0  0  0  0
   17.7931  -13.7844  -21.4556 N   0  0  0  0  0  0  0  0  0  0  0  0
   16.7675  -13.8964  -20.6015 C   0  0  0  0  0  0  0  0  0  0  0  0
   17.1236  -13.3978  -19.3930 N   0  0  0  0  0  0  0  0  0  0  0  0
   21.4868  -12.1363  -17.6068 C   0  0  0  0  0  0  0  0  0  0  0  0
   21.3139  -12.2264  -16.3705 O   0  0  0  0  0  0  0  0  0  0  0  0
   27.2294  -10.1873  -14.4699 C   0  0  0  0  0  0  0  0  0  0  0  0
   25.8649  -10.8133  -15.4912 S   0  0  0  0  0  0  0  0  0  0  0  0
   25.7677   -9.8433  -17.0463 C   0  0  0  0  0  0  0  0  0  0  0  0
   24.6802  -10.3991  -17.9265 C   0  0  0  0  0  0  0  0  0  0  0  0
   23.3343  -10.4625  -17.2869 C   0  0  2  0  0  0  0  0  0  0  0  0
   22.4794  -11.2932  -18.1347 N   0  0  0  0  0  0  0  0  0  0  0  0
   22.6606   -9.1672  -17.1044 C   0  0  0  0  0  0  0  0  0  0  0  0
   22.1771   -8.6072  -18.1223 O   0  0  0  0  0  0  0  0  0  0  0  0
   20.8303   -5.8262  -14.2306 O   0  0  0  0  0  0  0  0  0  0  0  0
   21.5180   -7.0408  -14.2454 C   0  0  0  0  0  0  0  0  0  0  0  0
   21.8781   -7.2925  -15.7156 C   0  0  2  0  0  0  0  0  0  0  0  0
   22.5558   -8.5667  -15.8350 N   0  0  0  0  0  0  0  0  0  0  0  0
   22.7062   -6.1738  -16.1998 C   0  0  0  0  0  0  0  0  0  0  0  0
   23.9480   -6.2479  -16.1219 O   0  0  0  0  0  0  0  0  0  0  0  0
   22.1286   -5.0552  -16.7338 O   0  0  0  0  0  0  0  0  0  0  0  0
  2  1  1  1
  3  2  1  0
  4  3  1  0
  5  4  2  0
  6  5  1  0
  7  6  1  0
  7  8  2  0
  8  4  1  0
  9  2  1  0
  9 10  2  0
 12 11  1  0
 12 13  1  0
 13 14  1  0
 15 14  1  6
 15 17  1  0
 16 15  1  0
 16  9  1  0
 17 22  1  0
 18 17  2  0
 20 19  1  0
 21 22  1  0
 21 20  1  1
 23 21  1  0
 24 23  2  0
 25 23  1  0
M  END
$$$$
