YNQ.pdb
     RDKit          3D

 30 30  0  0  1  0  0  0  0  0999 V2000
   31.1783  -22.1258  -10.0535 O   0  0  0  0  0  0  0  0  0  0  0  0
   30.1331  -21.5079  -10.7091 C   0  0  0  0  0  0  0  0  0  0  0  0
   28.8519  -21.5587  -10.2014 C   0  0  0  0  0  0  0  0  0  0  0  0
   27.8228  -20.9322  -10.8763 C   0  0  0  0  0  0  0  0  0  0  0  0
   28.1024  -20.2614  -12.0576 C   0  0  0  0  0  0  0  0  0  0  0  0
   26.9845  -19.6060  -12.7498 C   0  0  0  0  0  0  0  0  0  0  0  0
   25.9908  -20.6172  -13.2816 C   0  0  2  0  0  0  0  0  0  0  0  0
   26.7214  -21.5294  -14.1285 N   0  0  0  0  0  0  0  0  0  0  0  0
   24.9820  -19.9012  -14.0701 C   0  0  0  0  0  0  0  0  0  0  0  0
   24.8031  -18.6682  -13.8940 O   0  0  0  0  0  0  0  0  0  0  0  0
   29.3811  -20.2066  -12.5710 C   0  0  0  0  0  0  0  0  0  0  0  0
   30.4090  -20.8384  -11.8871 C   0  0  0  0  0  0  0  0  0  0  0  0
   25.5033  -18.7511  -16.9471 N   0  0  0  0  0  0  0  0  0  0  0  0
   24.6371  -19.4161  -17.8487 C   0  0  0  0  0  0  0  0  0  0  0  0
   24.9952  -19.4861  -19.0573 O   0  0  0  0  0  0  0  0  0  0  0  0
   23.3843  -19.9807  -17.3305 C   0  0  0  0  0  0  0  0  0  0  0  0
   23.2162  -19.8046  -15.8514 C   0  0  2  0  0  0  0  0  0  0  0  0
   24.1599  -20.5085  -15.0528 N   0  0  0  0  0  0  0  0  0  0  0  0
   21.8512  -20.1819  -15.4024 C   0  0  0  0  0  0  0  0  0  0  0  0
   21.6054  -21.2798  -14.8392 O   0  0  0  0  0  0  0  0  0  0  0  0
   18.0090  -15.7370  -15.1420 N   0  0  0  0  0  0  0  0  0  0  0  0
   18.6059  -16.1856  -13.9430 C   0  0  0  0  0  0  0  0  0  0  0  0
   18.8871  -15.3946  -13.0319 O   0  0  0  0  0  0  0  0  0  0  0  0
   18.8991  -17.6283  -13.7768 C   0  0  0  0  0  0  0  0  0  0  0  0
   18.5532  -18.3887  -15.0244 C   0  0  0  0  0  0  0  0  0  0  0  0
   19.4144  -19.6262  -15.0951 C   0  0  2  0  0  0  0  0  0  0  0  0
   20.7167  -19.3102  -15.5844 N   0  0  0  0  0  0  0  0  0  0  0  0
   18.7064  -20.6333  -15.9168 C   0  0  0  0  0  0  0  0  0  0  0  0
   19.0094  -20.9265  -17.0898 O   0  0  0  0  0  0  0  0  0  0  0  0
   17.6334  -21.2913  -15.3341 O   0  0  0  0  0  0  0  0  0  0  0  0
  2  1  1  0
  3  2  2  0
  4  3  1  0
  5  4  2  0
  5 11  1  0
  6  5  1  0
  7  9  1  0
  7  6  1  0
  7  8  1  6
  9 10  2  0
 11 12  2  0
 12  2  1  0
 13 14  1  0
 14 16  1  0
 14 15  2  0
 17 16  1  6
 18 17  1  0
 18  9  1  0
 19 17  1  0
 19 20  2  0
 21 22  1  0
 22 24  1  0
 22 23  2  0
 24 25  1  0
 26 25  1  6
 26 27  1  0
 26 28  1  0
 27 19  1  0
 28 29  2  0
 28 30  1  0
M  END
$$$$
