YNQ.pdb
     RDKit          3D

 30 30  0  0  1  0  0  0  0  0999 V2000
   28.5738  -14.1438  -17.7639 O   0  0  0  0  0  0  0  0  0  0  0  0
   28.2447  -15.1604  -16.8910 C   0  0  0  0  0  0  0  0  0  0  0  0
   27.5088  -14.9043  -15.7533 C   0  0  0  0  0  0  0  0  0  0  0  0
   27.1922  -15.9389  -14.8953 C   0  0  0  0  0  0  0  0  0  0  0  0
   27.6243  -17.2215  -15.1988 C   0  0  0  0  0  0  0  0  0  0  0  0
   27.2701  -18.2987  -14.2647 C   0  0  0  0  0  0  0  0  0  0  0  0
   26.0921  -19.1058  -14.7684 C   0  0  2  0  0  0  0  0  0  0  0  0
   24.9960  -18.1869  -14.9614 N   0  0  0  0  0  0  0  0  0  0  0  0
   25.7406  -20.0962  -13.7448 C   0  0  0  0  0  0  0  0  0  0  0  0
   26.4611  -21.1145  -13.5796 O   0  0  0  0  0  0  0  0  0  0  0  0
   28.3606  -17.4849  -16.3347 C   0  0  0  0  0  0  0  0  0  0  0  0
   28.6743  -16.4401  -17.1912 C   0  0  0  0  0  0  0  0  0  0  0  0
   26.2109  -20.0812   -9.3831 N   0  0  0  0  0  0  0  0  0  0  0  0
   25.7444  -21.0328  -10.3224 C   0  0  0  0  0  0  0  0  0  0  0  0
   26.5886  -21.8373  -10.8061 O   0  0  0  0  0  0  0  0  0  0  0  0
   24.3190  -21.0289  -10.6761 C   0  0  0  0  0  0  0  0  0  0  0  0
   24.0696  -21.0834  -12.1532 C   0  0  2  0  0  0  0  0  0  0  0  0
   24.6115  -19.9960  -12.8932 N   0  0  0  0  0  0  0  0  0  0  0  0
   22.6204  -21.1839  -12.4648 C   0  0  0  0  0  0  0  0  0  0  0  0
   21.8526  -21.9733  -11.8563 O   0  0  0  0  0  0  0  0  0  0  0  0
   21.8737  -17.4816  -15.3912 N   0  0  0  0  0  0  0  0  0  0  0  0
   20.9507  -18.1021  -16.2618 C   0  0  0  0  0  0  0  0  0  0  0  0
   20.9446  -17.8502  -17.4748 O   0  0  0  0  0  0  0  0  0  0  0  0
   19.9747  -19.0705  -15.7100 C   0  0  0  0  0  0  0  0  0  0  0  0
   20.0657  -19.1228  -14.2121 C   0  0  0  0  0  0  0  0  0  0  0  0
   20.6111  -20.4696  -13.8040 C   0  0  2  0  0  0  0  0  0  0  0  0
   21.9995  -20.3798  -13.4884 N   0  0  0  0  0  0  0  0  0  0  0  0
   20.3161  -21.4333  -14.8878 C   0  0  0  0  0  0  0  0  0  0  0  0
   21.1820  -22.0126  -15.5721 O   0  0  0  0  0  0  0  0  0  0  0  0
   18.9821  -21.7049  -15.1538 O   0  0  0  0  0  0  0  0  0  0  0  0
  2  1  1  0
  3  2  2  0
  4  3  1  0
  5  4  2  0
  5 11  1  0
  6  5  1  0
  7  9  1  0
  7  6  1  0
  7  8  1  1
  9 10  2  0
 11 12  2  0
 12  2  1  0
 13 14  1  0
 14 16  1  0
 14 15  2  0
 17 16  1  1
 18 17  1  0
 18  9  1  0
 19 17  1  0
 19 20  2  0
 21 22  1  0
 22 24  1  0
 22 23  2  0
 24 25  1  0
 26 25  1  6
 26 27  1  0
 26 28  1  0
 27 19  1  0
 28 29  2  0
 28 30  1  0
M  END
$$$$
