YNQ.pdb
     RDKit          3D

 30 30  0  0  1  0  0  0  0  0999 V2000
   27.5872  -14.8775  -22.6727 O   0  0  0  0  0  0  0  0  0  0  0  0
   26.5789  -14.9070  -21.7313 C   0  0  0  0  0  0  0  0  0  0  0  0
   25.8527  -16.0583  -21.5095 C   0  0  0  0  0  0  0  0  0  0  0  0
   24.8485  -16.0624  -20.5617 C   0  0  0  0  0  0  0  0  0  0  0  0
   24.5907  -14.9008  -19.8489 C   0  0  0  0  0  0  0  0  0  0  0  0
   23.5157  -14.9400  -18.8482 C   0  0  0  0  0  0  0  0  0  0  0  0
   22.1659  -14.6528  -19.4714 C   0  0  2  0  0  0  0  0  0  0  0  0
   22.0549  -15.4790  -20.6497 N   0  0  0  0  0  0  0  0  0  0  0  0
   22.1245  -13.2356  -19.8482 C   0  0  0  0  0  0  0  0  0  0  0  0
   22.4841  -12.8791  -21.0001 O   0  0  0  0  0  0  0  0  0  0  0  0
   25.3128  -13.7461  -20.0654 C   0  0  0  0  0  0  0  0  0  0  0  0
   26.3197  -13.7504  -21.0192 C   0  0  0  0  0  0  0  0  0  0  0  0
   19.5217   -8.9072  -21.9488 N   0  0  0  0  0  0  0  0  0  0  0  0
   20.5568   -9.2614  -21.0496 C   0  0  0  0  0  0  0  0  0  0  0  0
   21.3429   -8.3470  -20.6756 O   0  0  0  0  0  0  0  0  0  0  0  0
   20.6550  -10.6587  -20.6083 C   0  0  0  0  0  0  0  0  0  0  0  0
   21.5158  -10.8430  -19.3949 C   0  0  2  0  0  0  0  0  0  0  0  0
   21.6957  -12.1940  -18.9871 N   0  0  0  0  0  0  0  0  0  0  0  0
   21.0057  -10.0690  -18.2339 C   0  0  0  0  0  0  0  0  0  0  0  0
   20.2726  -10.5828  -17.3498 O   0  0  0  0  0  0  0  0  0  0  0  0
   22.4557   -9.7884  -13.3171 N   0  0  0  0  0  0  0  0  0  0  0  0
   21.6271   -8.6514  -13.1918 C   0  0  0  0  0  0  0  0  0  0  0  0
   21.2151   -8.2773  -12.0849 O   0  0  0  0  0  0  0  0  0  0  0  0
   21.2466   -7.8962  -14.4083 C   0  0  0  0  0  0  0  0  0  0  0  0
   21.6146   -8.6616  -15.6465 C   0  0  0  0  0  0  0  0  0  0  0  0
   21.0120   -7.9688  -16.8445 C   0  0  2  0  0  0  0  0  0  0  0  0
   21.3198   -8.6740  -18.0459 N   0  0  0  0  0  0  0  0  0  0  0  0
   21.4829   -6.5658  -16.8497 C   0  0  0  0  0  0  0  0  0  0  0  0
   22.2499   -6.0820  -17.7049 O   0  0  0  0  0  0  0  0  0  0  0  0
   21.0354   -5.7392  -15.8297 O   0  0  0  0  0  0  0  0  0  0  0  0
  2  1  1  0
  3  2  2  0
  4  3  1  0
  5  4  2  0
  5 11  1  0
  6  5  1  0
  7  9  1  0
  7  6  1  0
  7  8  1  6
  9 10  2  0
 11 12  2  0
 12  2  1  0
 13 14  1  0
 14 16  1  0
 14 15  2  0
 17 16  1  6
 18 17  1  0
 18  9  1  0
 19 17  1  0
 19 20  2  0
 21 22  1  0
 22 24  1  0
 22 23  2  0
 24 25  1  0
 26 25  1  1
 26 27  1  0
 26 28  1  0
 27 19  1  0
 28 29  2  0
 28 30  1  0
M  END
$$$$
