YNQ.pdb
     RDKit          3D

 30 30  0  0  1  0  0  0  0  0999 V2000
   29.3316  -14.7395  -17.8588 O   0  0  0  0  0  0  0  0  0  0  0  0
   28.4540  -15.6451  -17.2991 C   0  0  0  0  0  0  0  0  0  0  0  0
   27.8618  -15.3939  -16.0792 C   0  0  0  0  0  0  0  0  0  0  0  0
   26.9868  -16.3161  -15.5401 C   0  0  0  0  0  0  0  0  0  0  0  0
   26.7210  -17.4825  -16.2420 C   0  0  0  0  0  0  0  0  0  0  0  0
   25.7855  -18.4419  -15.6398 C   0  0  0  0  0  0  0  0  0  0  0  0
   26.5170  -19.5334  -14.8872 C   0  0  2  0  0  0  0  0  0  0  0  0
   27.1612  -20.3717  -15.8698 N   0  0  0  0  0  0  0  0  0  0  0  0
   25.5300  -20.3142  -14.1332 C   0  0  0  0  0  0  0  0  0  0  0  0
   24.9204  -21.2643  -14.6890 O   0  0  0  0  0  0  0  0  0  0  0  0
   27.3095  -17.7402  -17.4623 C   0  0  0  0  0  0  0  0  0  0  0  0
   28.1871  -16.8088  -17.9968 C   0  0  0  0  0  0  0  0  0  0  0  0
   26.0728  -20.3219   -8.8803 N   0  0  0  0  0  0  0  0  0  0  0  0
   25.5638  -21.0623   -9.9749 C   0  0  0  0  0  0  0  0  0  0  0  0
   26.2484  -22.0399  -10.3866 O   0  0  0  0  0  0  0  0  0  0  0  0
   24.2813  -20.6539  -10.5624 C   0  0  0  0  0  0  0  0  0  0  0  0
   24.2247  -20.8235  -12.0507 C   0  0  2  0  0  0  0  0  0  0  0  0
   25.1937  -20.0765  -12.7765 N   0  0  0  0  0  0  0  0  0  0  0  0
   22.8808  -20.4957  -12.5927 C   0  0  0  0  0  0  0  0  0  0  0  0
   22.4777  -19.3114  -12.7268 O   0  0  0  0  0  0  0  0  0  0  0  0
   20.1349  -22.6066  -17.5039 N   0  0  0  0  0  0  0  0  0  0  0  0
   19.0378  -21.9743  -16.8783 C   0  0  0  0  0  0  0  0  0  0  0  0
   17.9605  -21.8245  -17.4715 O   0  0  0  0  0  0  0  0  0  0  0  0
   19.1827  -21.4831  -15.4880 C   0  0  0  0  0  0  0  0  0  0  0  0
   20.5555  -21.7821  -14.9585 C   0  0  0  0  0  0  0  0  0  0  0  0
   20.6725  -21.2192  -13.5629 C   0  0  2  0  0  0  0  0  0  0  0  0
   21.9493  -21.5182  -13.0010 N   0  0  0  0  0  0  0  0  0  0  0  0
   19.5418  -21.7378  -12.7612 C   0  0  0  0  0  0  0  0  0  0  0  0
   18.5300  -21.0762  -12.4573 O   0  0  0  0  0  0  0  0  0  0  0  0
   19.6212  -23.0510  -12.3216 O   0  0  0  0  0  0  0  0  0  0  0  0
  2  1  1  0
  3  2  2  0
  4  3  1  0
  5  4  2  0
  5 11  1  0
  6  5  1  0
  7  9  1  0
  7  6  1  0
  7  8  1  6
  9 10  2  0
 11 12  2  0
 12  2  1  0
 13 14  1  0
 14 16  1  0
 14 15  2  0
 17 16  1  1
 18 17  1  0
 18  9  1  0
 19 17  1  0
 19 20  2  0
 21 22  1  0
 22 24  1  0
 22 23  2  0
 24 25  1  0
 26 25  1  6
 26 27  1  0
 26 28  1  0
 27 19  1  0
 28 29  2  0
 28 30  1  0
M  END
$$$$
