YNQ.pdb
     RDKit          3D

 30 30  0  0  1  0  0  0  0  0999 V2000
   28.7904  -20.1027   -4.4148 O   0  0  0  0  0  0  0  0  0  0  0  0
   28.0310  -20.1010   -5.5667 C   0  0  0  0  0  0  0  0  0  0  0  0
   28.0351  -19.0131   -6.4142 C   0  0  0  0  0  0  0  0  0  0  0  0
   27.2664  -19.0357   -7.5611 C   0  0  0  0  0  0  0  0  0  0  0  0
   26.5021  -20.1597   -7.8373 C   0  0  0  0  0  0  0  0  0  0  0  0
   25.6961  -20.1505   -9.0656 C   0  0  0  0  0  0  0  0  0  0  0  0
   26.2898  -21.0534  -10.1263 C   0  0  2  0  0  0  0  0  0  0  0  0
   27.6835  -20.7012  -10.2558 N   0  0  0  0  0  0  0  0  0  0  0  0
   25.5902  -20.8008  -11.3907 C   0  0  0  0  0  0  0  0  0  0  0  0
   25.5519  -19.6372  -11.8681 O   0  0  0  0  0  0  0  0  0  0  0  0
   26.4931  -21.2511   -6.9944 C   0  0  0  0  0  0  0  0  0  0  0  0
   27.2680  -21.2203   -5.8445 C   0  0  0  0  0  0  0  0  0  0  0  0
   26.3596  -19.9039  -14.1750 N   0  0  0  0  0  0  0  0  0  0  0  0
   26.2496  -21.1291  -14.8766 C   0  0  0  0  0  0  0  0  0  0  0  0
   27.1570  -21.4083  -15.7087 O   0  0  0  0  0  0  0  0  0  0  0  0
   25.0971  -21.9959  -14.5982 C   0  0  0  0  0  0  0  0  0  0  0  0
   24.3004  -21.5654  -13.4037 C   0  0  2  0  0  0  0  0  0  0  0  0
   24.9277  -21.7994  -12.1485 N   0  0  0  0  0  0  0  0  0  0  0  0
   22.9567  -22.1989  -13.3792 C   0  0  0  0  0  0  0  0  0  0  0  0
   22.7518  -23.3268  -12.8607 O   0  0  0  0  0  0  0  0  0  0  0  0
   18.5995  -22.2978   -9.9611 N   0  0  0  0  0  0  0  0  0  0  0  0
   18.3354  -23.2449  -10.9752 C   0  0  0  0  0  0  0  0  0  0  0  0
   17.7857  -24.3246  -10.7164 O   0  0  0  0  0  0  0  0  0  0  0  0
   18.7244  -22.9373  -12.3712 C   0  0  0  0  0  0  0  0  0  0  0  0
   20.0796  -22.2922  -12.4161 C   0  0  0  0  0  0  0  0  0  0  0  0
   20.4861  -22.1128  -13.8585 C   0  0  2  0  0  0  0  0  0  0  0  0
   21.7975  -21.5587  -13.9505 N   0  0  0  0  0  0  0  0  0  0  0  0
   19.4532  -21.2919  -14.5291 C   0  0  0  0  0  0  0  0  0  0  0  0
   19.6212  -20.1157  -14.9058 O   0  0  0  0  0  0  0  0  0  0  0  0
   18.2161  -21.8793  -14.7497 O   0  0  0  0  0  0  0  0  0  0  0  0
  2  1  1  0
  3  2  2  0
  4  3  1  0
  5  4  2  0
  5 11  1  0
  6  5  1  0
  7  9  1  0
  7  6  1  0
  7  8  1  6
  9 10  2  0
 11 12  2  0
 12  2  1  0
 13 14  1  0
 14 16  1  0
 14 15  2  0
 17 16  1  6
 18 17  1  0
 18  9  1  0
 19 17  1  0
 19 20  2  0
 21 22  1  0
 22 24  1  0
 22 23  2  0
 24 25  1  0
 26 25  1  1
 26 27  1  0
 26 28  1  0
 27 19  1  0
 28 29  2  0
 28 30  1  0
M  END
$$$$
