YNQ.pdb
     RDKit          3D

 30 30  0  0  1  0  0  0  0  0999 V2000
   25.1653  -14.8000  -21.6630 O   0  0  0  0  0  0  0  0  0  0  0  0
   24.4653  -15.5916  -20.7757 C   0  0  0  0  0  0  0  0  0  0  0  0
   24.4368  -16.9625  -20.9224 C   0  0  0  0  0  0  0  0  0  0  0  0
   23.7291  -17.7330  -20.0211 C   0  0  0  0  0  0  0  0  0  0  0  0
   23.0581  -17.1068  -18.9812 C   0  0  0  0  0  0  0  0  0  0  0  0
   22.3151  -17.9562  -18.0405 C   0  0  0  0  0  0  0  0  0  0  0  0
   23.0655  -18.1297  -16.7368 C   0  0  2  0  0  0  0  0  0  0  0  0
   24.2740  -18.8610  -17.0336 N   0  0  0  0  0  0  0  0  0  0  0  0
   22.2233  -18.9057  -15.8200 C   0  0  0  0  0  0  0  0  0  0  0  0
   22.4782  -20.1190  -15.6046 O   0  0  0  0  0  0  0  0  0  0  0  0
   23.0823  -15.7365  -18.8284 C   0  0  0  0  0  0  0  0  0  0  0  0
   23.7954  -14.9700  -19.7379 C   0  0  0  0  0  0  0  0  0  0  0  0
   19.0681  -19.0204  -10.8753 N   0  0  0  0  0  0  0  0  0  0  0  0
   19.7919  -19.7238  -11.8686 C   0  0  0  0  0  0  0  0  0  0  0  0
   19.6499  -20.9773  -11.9160 O   0  0  0  0  0  0  0  0  0  0  0  0
   20.6577  -18.9615  -12.7776 C   0  0  0  0  0  0  0  0  0  0  0  0
   20.2991  -19.1273  -14.2237 C   0  0  2  0  0  0  0  0  0  0  0  0
   21.1018  -18.3802  -15.1299 N   0  0  0  0  0  0  0  0  0  0  0  0
   18.8737  -18.7956  -14.4801 C   0  0  0  0  0  0  0  0  0  0  0  0
   18.4740  -17.6132  -14.6387 O   0  0  0  0  0  0  0  0  0  0  0  0
   16.1188  -23.3955  -14.5594 N   0  0  0  0  0  0  0  0  0  0  0  0
   15.2496  -22.6845  -13.7027 C   0  0  0  0  0  0  0  0  0  0  0  0
   14.6603  -23.2522  -12.7725 O   0  0  0  0  0  0  0  0  0  0  0  0
   15.0421  -21.2344  -13.9244 C   0  0  0  0  0  0  0  0  0  0  0  0
   15.7289  -20.7847  -15.1816 C   0  0  0  0  0  0  0  0  0  0  0  0
   16.4967  -19.5182  -14.8909 C   0  0  2  0  0  0  0  0  0  0  0  0
   17.8540  -19.8119  -14.5638 N   0  0  0  0  0  0  0  0  0  0  0  0
   15.7819  -18.7809  -13.8252 C   0  0  0  0  0  0  0  0  0  0  0  0
   16.2442  -18.5578  -12.6893 O   0  0  0  0  0  0  0  0  0  0  0  0
   14.5108  -18.3094  -14.1186 O   0  0  0  0  0  0  0  0  0  0  0  0
  2  1  1  0
  3  2  2  0
  4  3  1  0
  5  4  2  0
  5 11  1  0
  6  5  1  0
  7  9  1  0
  7  6  1  0
  7  8  1  6
  9 10  2  0
 11 12  2  0
 12  2  1  0
 13 14  1  0
 14 16  1  0
 14 15  2  0
 17 16  1  1
 18 17  1  0
 18  9  1  0
 19 17  1  0
 19 20  2  0
 21 22  1  0
 22 24  1  0
 22 23  2  0
 24 25  1  0
 26 25  1  1
 26 27  1  0
 26 28  1  0
 27 19  1  0
 28 29  2  0
 28 30  1  0
M  END
$$$$
