YNQ.pdb
     RDKit          3D

 30 30  0  0  1  0  0  0  0  0999 V2000
   33.1711  -10.0393  -18.7028 O   0  0  0  0  0  0  0  0  0  0  0  0
   31.7952   -9.9374  -18.6885 C   0  0  0  0  0  0  0  0  0  0  0  0
   31.1252   -9.5781  -17.5380 C   0  0  0  0  0  0  0  0  0  0  0  0
   29.7476   -9.4830  -17.5492 C   0  0  0  0  0  0  0  0  0  0  0  0
   29.0637   -9.7529  -18.7253 C   0  0  0  0  0  0  0  0  0  0  0  0
   27.5989   -9.6424  -18.7023 C   0  0  0  0  0  0  0  0  0  0  0  0
   26.9505  -10.9400  -18.2679 C   0  0  2  0  0  0  0  0  0  0  0  0
   27.3301  -11.9492  -19.2274 N   0  0  0  0  0  0  0  0  0  0  0  0
   25.4952  -10.7560  -18.2843 C   0  0  0  0  0  0  0  0  0  0  0  0
   24.7730  -11.5075  -18.9892 O   0  0  0  0  0  0  0  0  0  0  0  0
   29.7271  -10.1128  -19.8795 C   0  0  0  0  0  0  0  0  0  0  0  0
   31.1107  -10.2060  -19.8596 C   0  0  0  0  0  0  0  0  0  0  0  0
   20.2934  -10.9952  -16.2717 N   0  0  0  0  0  0  0  0  0  0  0  0
   21.1252  -10.4893  -17.3001 C   0  0  0  0  0  0  0  0  0  0  0  0
   20.5714   -9.8474  -18.2356 O   0  0  0  0  0  0  0  0  0  0  0  0
   22.5704  -10.7383  -17.2197 C   0  0  0  0  0  0  0  0  0  0  0  0
   23.4033   -9.5507  -17.5978 C   0  0  2  0  0  0  0  0  0  0  0  0
   24.8090   -9.7620  -17.5418 N   0  0  0  0  0  0  0  0  0  0  0  0
   23.0767   -8.3615  -16.7693 C   0  0  0  0  0  0  0  0  0  0  0  0
   23.3813   -8.2835  -15.5510 O   0  0  0  0  0  0  0  0  0  0  0  0
   20.6977   -2.7599  -18.7360 N   0  0  0  0  0  0  0  0  0  0  0  0
   20.8729   -2.5922  -17.3446 C   0  0  0  0  0  0  0  0  0  0  0  0
   20.6129   -1.5147  -16.7910 O   0  0  0  0  0  0  0  0  0  0  0  0
   21.3765   -3.7276  -16.5370 C   0  0  0  0  0  0  0  0  0  0  0  0
   21.5340   -4.9559  -17.3861 C   0  0  0  0  0  0  0  0  0  0  0  0
   22.0188   -6.0903  -16.5165 C   0  0  2  0  0  0  0  0  0  0  0  0
   22.3871   -7.2165  -17.3110 N   0  0  0  0  0  0  0  0  0  0  0  0
   20.9639   -6.3919  -15.5231 C   0  0  0  0  0  0  0  0  0  0  0  0
   20.0650   -7.2403  -15.6838 O   0  0  0  0  0  0  0  0  0  0  0  0
   20.9843   -5.6772  -14.3346 O   0  0  0  0  0  0  0  0  0  0  0  0
  2  1  1  0
  3  2  2  0
  4  3  1  0
  5  4  2  0
  5 11  1  0
  6  5  1  0
  7  9  1  0
  7  6  1  0
  7  8  1  6
  9 10  2  0
 11 12  2  0
 12  2  1  0
 13 14  1  0
 14 16  1  0
 14 15  2  0
 17 16  1  1
 18 17  1  0
 18  9  1  0
 19 17  1  0
 19 20  2  0
 21 22  1  0
 22 24  1  0
 22 23  2  0
 24 25  1  0
 26 25  1  6
 26 27  1  0
 26 28  1  0
 27 19  1  0
 28 29  2  0
 28 30  1  0
M  END
$$$$
