YNQ.pdb
     RDKit          3D

 30 30  0  0  1  0  0  0  0  0999 V2000
   30.5277  -12.9616  -18.5601 O   0  0  0  0  0  0  0  0  0  0  0  0
   29.4352  -12.4332  -17.9036 C   0  0  0  0  0  0  0  0  0  0  0  0
   29.5970  -11.5084  -16.8936 C   0  0  0  0  0  0  0  0  0  0  0  0
   28.4877  -10.9943  -16.2518 C   0  0  0  0  0  0  0  0  0  0  0  0
   27.2267  -11.4224  -16.6398 C   0  0  0  0  0  0  0  0  0  0  0  0
   26.0683  -10.8553  -15.9363 C   0  0  0  0  0  0  0  0  0  0  0  0
   25.4708   -9.6913  -16.6983 C   0  0  2  0  0  0  0  0  0  0  0  0
   26.3814   -8.5797  -16.5630 N   0  0  0  0  0  0  0  0  0  0  0  0
   24.1787   -9.3566  -16.0895 C   0  0  0  0  0  0  0  0  0  0  0  0
   24.1389   -8.7973  -14.9630 O   0  0  0  0  0  0  0  0  0  0  0  0
   27.0575  -12.3469  -17.6490 C   0  0  0  0  0  0  0  0  0  0  0  0
   28.1768  -12.8582  -18.2885 C   0  0  0  0  0  0  0  0  0  0  0  0
   21.5156   -8.5317  -13.4828 N   0  0  0  0  0  0  0  0  0  0  0  0
   21.4583   -7.4615  -14.4085 C   0  0  0  0  0  0  0  0  0  0  0  0
   21.3411   -6.2936  -13.9435 O   0  0  0  0  0  0  0  0  0  0  0  0
   21.5376   -7.7692  -15.8423 C   0  0  0  0  0  0  0  0  0  0  0  0
   21.6720   -9.2337  -16.1327 C   0  0  2  0  0  0  0  0  0  0  0  0
   22.9220   -9.6222  -16.6899 N   0  0  0  0  0  0  0  0  0  0  0  0
   20.5906   -9.7202  -17.0278 C   0  0  0  0  0  0  0  0  0  0  0  0
   20.4113   -9.2563  -18.1834 O   0  0  0  0  0  0  0  0  0  0  0  0
   17.4706  -15.2277  -16.7507 N   0  0  0  0  0  0  0  0  0  0  0  0
   17.5116  -14.3408  -15.6522 C   0  0  0  0  0  0  0  0  0  0  0  0
   17.0799  -14.6768  -14.5406 O   0  0  0  0  0  0  0  0  0  0  0  0
   18.0818  -12.9860  -15.8374 C   0  0  0  0  0  0  0  0  0  0  0  0
   18.5045  -12.7770  -17.2629 C   0  0  0  0  0  0  0  0  0  0  0  0
   18.6873  -11.2984  -17.5050 C   0  0  2  0  0  0  0  0  0  0  0  0
   19.6742  -10.7592  -16.6271 N   0  0  0  0  0  0  0  0  0  0  0  0
   17.3660  -10.6442  -17.3762 C   0  0  0  0  0  0  0  0  0  0  0  0
   17.0746   -9.8089  -16.4982 O   0  0  0  0  0  0  0  0  0  0  0  0
   16.3907  -10.9900  -18.2999 O   0  0  0  0  0  0  0  0  0  0  0  0
  2  1  1  0
  3  2  2  0
  4  3  1  0
  5  4  2  0
  5 11  1  0
  6  5  1  0
  7  9  1  0
  7  6  1  0
  7  8  1  1
  9 10  2  0
 11 12  2  0
 12  2  1  0
 13 14  1  0
 14 16  1  0
 14 15  2  0
 17 16  1  6
 18 17  1  0
 18  9  1  0
 19 17  1  0
 19 20  2  0
 21 22  1  0
 22 24  1  0
 22 23  2  0
 24 25  1  0
 26 25  1  1
 26 27  1  0
 26 28  1  0
 27 19  1  0
 28 29  2  0
 28 30  1  0
M  END
$$$$
