YNQ.pdb
     RDKit          3D

 30 30  0  0  1  0  0  0  0  0999 V2000
   28.1646  -20.8875   -7.3226 O   0  0  0  0  0  0  0  0  0  0  0  0
   27.7035  -20.7024   -8.6098 C   0  0  0  0  0  0  0  0  0  0  0  0
   26.3561  -20.5536   -8.8630 C   0  0  0  0  0  0  0  0  0  0  0  0
   25.9195  -20.3696  -10.1601 C   0  0  0  0  0  0  0  0  0  0  0  0
   26.8521  -20.3382  -11.1864 C   0  0  0  0  0  0  0  0  0  0  0  0
   26.3535  -20.1407  -12.5541 C   0  0  0  0  0  0  0  0  0  0  0  0
   26.1382  -21.4612  -13.2631 C   0  0  2  0  0  0  0  0  0  0  0  0
   27.2141  -21.6167  -14.2126 N   0  0  0  0  0  0  0  0  0  0  0  0
   24.8532  -21.4015  -13.9683 C   0  0  0  0  0  0  0  0  0  0  0  0
   24.8157  -21.0762  -15.1833 O   0  0  0  0  0  0  0  0  0  0  0  0
   28.2009  -20.4864  -10.9404 C   0  0  0  0  0  0  0  0  0  0  0  0
   28.6310  -20.6708   -9.6348 C   0  0  0  0  0  0  0  0  0  0  0  0
   20.0450  -23.4613  -15.4434 N   0  0  0  0  0  0  0  0  0  0  0  0
   20.0849  -22.7017  -14.2489 C   0  0  0  0  0  0  0  0  0  0  0  0
   19.0302  -22.0987  -13.9056 O   0  0  0  0  0  0  0  0  0  0  0  0
   21.3390  -22.6599  -13.4858 C   0  0  0  0  0  0  0  0  0  0  0  0
   22.3696  -21.7475  -14.0795 C   0  0  2  0  0  0  0  0  0  0  0  0
   23.6011  -21.6916  -13.3696 N   0  0  0  0  0  0  0  0  0  0  0  0
   21.8565  -20.3618  -14.2338 C   0  0  0  0  0  0  0  0  0  0  0  0
   22.4965  -19.3564  -13.8308 O   0  0  0  0  0  0  0  0  0  0  0  0
   20.6383  -16.4449  -19.3570 N   0  0  0  0  0  0  0  0  0  0  0  0
   21.4696  -16.7356  -18.2528 C   0  0  0  0  0  0  0  0  0  0  0  0
   22.7025  -16.7701  -18.3700 O   0  0  0  0  0  0  0  0  0  0  0  0
   20.8518  -17.0035  -16.9331 C   0  0  0  0  0  0  0  0  0  0  0  0
   21.2401  -18.3639  -16.4301 C   0  0  0  0  0  0  0  0  0  0  0  0
   20.2500  -18.7940  -15.3752 C   0  0  2  0  0  0  0  0  0  0  0  0
   20.5872  -20.0801  -14.8579 N   0  0  0  0  0  0  0  0  0  0  0  0
   18.8941  -18.7351  -15.9653 C   0  0  0  0  0  0  0  0  0  0  0  0
   18.4695  -19.5176  -16.8378 O   0  0  0  0  0  0  0  0  0  0  0  0
   18.0438  -17.7379  -15.5109 O   0  0  0  0  0  0  0  0  0  0  0  0
  2  1  1  0
  3  2  2  0
  4  3  1  0
  5  4  2  0
  5 11  1  0
  6  5  1  0
  7  9  1  0
  7  6  1  0
  7  8  1  6
  9 10  2  0
 11 12  2  0
 12  2  1  0
 13 14  1  0
 14 16  1  0
 14 15  2  0
 17 16  1  1
 18 17  1  0
 18  9  1  0
 19 17  1  0
 19 20  2  0
 21 22  1  0
 22 24  1  0
 22 23  2  0
 24 25  1  0
 26 25  1  6
 26 27  1  0
 26 28  1  0
 27 19  1  0
 28 29  2  0
 28 30  1  0
M  END
$$$$
