YNQ.pdb
     RDKit          3D

 30 30  0  0  1  0  0  0  0  0999 V2000
   29.7501  -11.3673  -16.6781 O   0  0  0  0  0  0  0  0  0  0  0  0
   28.5620  -10.7442  -16.3559 C   0  0  0  0  0  0  0  0  0  0  0  0
   27.8911  -11.0600  -15.1931 C   0  0  0  0  0  0  0  0  0  0  0  0
   26.7037  -10.4223  -14.8930 C   0  0  0  0  0  0  0  0  0  0  0  0
   26.2086   -9.4719  -15.7736 C   0  0  0  0  0  0  0  0  0  0  0  0
   24.9431   -8.8127  -15.4237 C   0  0  0  0  0  0  0  0  0  0  0  0
   23.7770   -9.7761  -15.4933 C   0  0  2  0  0  0  0  0  0  0  0  0
   24.2568  -10.9826  -16.1237 N   0  0  0  0  0  0  0  0  0  0  0  0
   22.7245   -9.1672  -16.3140 C   0  0  0  0  0  0  0  0  0  0  0  0
   22.3008   -9.7623  -17.3385 O   0  0  0  0  0  0  0  0  0  0  0  0
   26.8741   -9.1511  -16.9380 C   0  0  0  0  0  0  0  0  0  0  0  0
   28.0661   -9.7963  -17.2320 C   0  0  0  0  0  0  0  0  0  0  0  0
   17.4235   -8.0479  -17.1744 N   0  0  0  0  0  0  0  0  0  0  0  0
   18.7338   -7.8413  -17.6702 C   0  0  0  0  0  0  0  0  0  0  0  0
   18.8543   -7.1973  -18.7494 O   0  0  0  0  0  0  0  0  0  0  0  0
   19.8661   -8.3829  -16.9076 C   0  0  0  0  0  0  0  0  0  0  0  0
   20.9861   -7.4037  -16.7241 C   0  0  2  0  0  0  0  0  0  0  0  0
   22.1221   -7.9140  -16.0365 N   0  0  0  0  0  0  0  0  0  0  0  0
   20.5334   -6.1719  -16.0277 C   0  0  0  0  0  0  0  0  0  0  0  0
   20.2628   -6.1520  -14.7991 O   0  0  0  0  0  0  0  0  0  0  0  0
   20.2238   -0.2443  -18.4221 N   0  0  0  0  0  0  0  0  0  0  0  0
   19.8027   -0.0949  -17.0822 C   0  0  0  0  0  0  0  0  0  0  0  0
   19.5017    1.0165  -16.6250 O   0  0  0  0  0  0  0  0  0  0  0  0
   19.7210   -1.2913  -16.2121 C   0  0  0  0  0  0  0  0  0  0  0  0
   20.0491   -2.5355  -16.9860 C   0  0  0  0  0  0  0  0  0  0  0  0
   19.9355   -3.7260  -16.0652 C   0  0  2  0  0  0  0  0  0  0  0  0
   20.3749   -4.9158  -16.7184 N   0  0  0  0  0  0  0  0  0  0  0  0
   18.5386   -3.8026  -15.5822 C   0  0  0  0  0  0  0  0  0  0  0  0
   17.5826   -4.2374  -16.2534 O   0  0  0  0  0  0  0  0  0  0  0  0
   18.2846   -3.3580  -14.2931 O   0  0  0  0  0  0  0  0  0  0  0  0
  2  1  1  0
  3  2  2  0
  4  3  1  0
  5  4  2  0
  5 11  1  0
  6  5  1  0
  7  9  1  0
  7  6  1  0
  7  8  1  6
  9 10  2  0
 11 12  2  0
 12  2  1  0
 13 14  1  0
 14 16  1  0
 14 15  2  0
 17 16  1  1
 18 17  1  0
 18  9  1  0
 19 17  1  0
 19 20  2  0
 21 22  1  0
 22 24  1  0
 22 23  2  0
 24 25  1  0
 26 25  1  6
 26 27  1  0
 26 28  1  0
 27 19  1  0
 28 29  2  0
 28 30  1  0
M  END
$$$$
