YNQ.pdb
     RDKit          3D

 30 30  0  0  1  0  0  0  0  0999 V2000
   17.4694  -15.5027  -16.5786 O   0  0  0  0  0  0  0  0  0  0  0  0
   17.1977  -14.2818  -15.9958 C   0  0  0  0  0  0  0  0  0  0  0  0
   16.3918  -13.3598  -16.6301 C   0  0  0  0  0  0  0  0  0  0  0  0
   16.1349  -12.1449  -16.0262 C   0  0  0  0  0  0  0  0  0  0  0  0
   16.6968  -11.8770  -14.7867 C   0  0  0  0  0  0  0  0  0  0  0  0
   16.4029  -10.5751  -14.1725 C   0  0  0  0  0  0  0  0  0  0  0  0
   15.4663  -10.7168  -12.9913 C   0  0  2  0  0  0  0  0  0  0  0  0
   14.1823  -11.1228  -13.5106 N   0  0  0  0  0  0  0  0  0  0  0  0
   15.3503   -9.4095  -12.3357 C   0  0  0  0  0  0  0  0  0  0  0  0
   14.5390   -8.5540  -12.7752 O   0  0  0  0  0  0  0  0  0  0  0  0
   17.5035  -12.7942  -14.1467 C   0  0  0  0  0  0  0  0  0  0  0  0
   17.7566  -14.0120  -14.7601 C   0  0  0  0  0  0  0  0  0  0  0  0
   14.9452   -5.9083   -8.1436 N   0  0  0  0  0  0  0  0  0  0  0  0
   16.2237   -6.4040   -8.4973 C   0  0  0  0  0  0  0  0  0  0  0  0
   17.2207   -5.6652   -8.2647 O   0  0  0  0  0  0  0  0  0  0  0  0
   16.3151   -7.7363   -9.1085 C   0  0  0  0  0  0  0  0  0  0  0  0
   16.0016   -7.7441  -10.5743 C   0  0  2  0  0  0  0  0  0  0  0  0
   16.1071   -9.0158  -11.2033 N   0  0  0  0  0  0  0  0  0  0  0  0
   16.8478   -6.7806  -11.3246 C   0  0  0  0  0  0  0  0  0  0  0  0
   17.7814   -7.1503  -12.0827 O   0  0  0  0  0  0  0  0  0  0  0  0
   15.6549   -5.4681  -16.1048 N   0  0  0  0  0  0  0  0  0  0  0  0
   16.3924   -4.2709  -15.9713 C   0  0  0  0  0  0  0  0  0  0  0  0
   16.6472   -3.5620  -16.9548 O   0  0  0  0  0  0  0  0  0  0  0  0
   16.8674   -3.8599  -14.6295 C   0  0  0  0  0  0  0  0  0  0  0  0
   16.5229   -4.8989  -13.6018 C   0  0  0  0  0  0  0  0  0  0  0  0
   17.0520   -4.4518  -12.2608 C   0  0  2  0  0  0  0  0  0  0  0  0
   16.6519   -5.3548  -11.2313 N   0  0  0  0  0  0  0  0  0  0  0  0
   16.6028   -3.0608  -12.0294 C   0  0  0  0  0  0  0  0  0  0  0  0
   17.2580   -2.0467  -12.3395 O   0  0  0  0  0  0  0  0  0  0  0  0
   15.3669   -2.8820  -11.4255 O   0  0  0  0  0  0  0  0  0  0  0  0
  2  1  1  0
  3  2  2  0
  4  3  1  0
  5  4  2  0
  5 11  1  0
  6  5  1  0
  7  9  1  0
  7  6  1  0
  7  8  1  6
  9 10  2  0
 11 12  2  0
 12  2  1  0
 13 14  1  0
 14 16  1  0
 14 15  2  0
 17 16  1  1
 18 17  1  0
 18  9  1  0
 19 17  1  0
 19 20  2  0
 21 22  1  0
 22 24  1  0
 22 23  2  0
 24 25  1  0
 26 25  1  6
 26 27  1  0
 26 28  1  0
 27 19  1  0
 28 29  2  0
 28 30  1  0
M  END
$$$$
