AKE.pdb
     RDKit          3D

 24 23  0  0  1  0  0  0  0  0999 V2000
   13.9461  -18.4577   18.3201 C   0  0  0  0  0  0  0  0  0  0  0  0
   13.4576  -18.6279   19.7387 C   0  0  2  0  0  0  0  0  0  0  0  0
   12.5086  -19.7316   19.7519 N   0  0  0  0  0  0  0  0  0  0  0  0
   12.7668  -17.4113   20.2355 C   0  0  0  0  0  0  0  0  0  0  0  0
   13.4151  -16.3509   20.5290 O   0  0  0  0  0  0  0  0  0  0  0  0
   11.3717  -17.3373   20.4165 N   0  0  0  0  0  0  0  0  0  0  0  0
   10.6558  -16.2431   20.9880 C   0  0  1  0  0  0  0  0  0  0  0  0
    9.6330  -15.6481   20.0531 C   0  0  0  0  0  0  0  0  0  0  0  0
    8.8932  -14.4898   20.6134 C   0  0  0  0  0  0  0  0  0  0  0  0
    7.9692  -13.9437   19.5476 C   0  0  0  0  0  0  0  0  0  0  0  0
    7.1058  -12.8167   20.0179 C   0  0  0  0  0  0  0  0  0  0  0  0
    6.3258  -12.3585   18.8583 N   0  0  0  0  0  0  0  0  0  0  0  0
   10.1323  -16.5046   22.3478 C   0  0  0  0  0  0  0  0  0  0  0  0
    9.0485  -17.1012   22.5870 O   0  0  0  0  0  0  0  0  0  0  0  0
   10.8496  -16.0818   23.5020 N   0  0  0  0  0  0  0  0  0  0  0  0
   10.4313  -16.4009   24.8471 C   0  0  1  0  0  0  0  0  0  0  0  0
   10.5426  -17.8683   25.1042 C   0  0  0  0  0  0  0  0  0  0  0  0
   11.9035  -18.4519   24.9681 C   0  0  0  0  0  0  0  0  0  0  0  0
   11.9442  -19.9122   25.2115 C   0  0  0  0  0  0  0  0  0  0  0  0
   11.6857  -20.7528   24.3149 O   0  0  0  0  0  0  0  0  0  0  0  0
   11.3335  -15.7228   25.8168 C   0  0  0  0  0  0  0  0  0  0  0  0
   12.4694  -15.0414   25.4431 O   0  0  0  0  0  0  0  0  0  0  0  0
   12.2766  -20.4001   26.4658 O   0  0  0  0  0  0  0  0  0  0  0  0
   11.0524  -15.7697   27.0359 O   0  0  0  0  0  0  0  0  0  0  0  0
  2  1  1  6
  2  3  1  0
  4  5  2  0
  4  2  1  0
  6  4  1  0
  7  6  1  0
  7  8  1  6
  9 10  1  0
  9  8  1  0
 10 11  1  0
 11 12  1  0
 13  7  1  0
 13 15  1  0
 14 13  2  0
 16 15  1  0
 16 21  1  0
 16 17  1  6
 18 17  1  0
 19 20  2  0
 19 18  1  0
 21 24  2  0
 21 22  1  0
 23 19  1  0
M  END
$$$$
