AKE.pdb
     RDKit          3D

 24 23  0  0  1  0  0  0  0  0999 V2000
   13.1245  -20.8021   14.7352 C   0  0  0  0  0  0  0  0  0  0  0  0
   11.9461  -19.8595   14.6816 C   0  0  2  0  0  0  0  0  0  0  0  0
   12.3404  -18.7003   13.8944 N   0  0  0  0  0  0  0  0  0  0  0  0
   11.5491  -19.3931   16.0340 C   0  0  0  0  0  0  0  0  0  0  0  0
   12.1884  -18.4630   16.6315 O   0  0  0  0  0  0  0  0  0  0  0  0
   10.4586  -19.9314   16.7451 N   0  0  0  0  0  0  0  0  0  0  0  0
   10.0491  -19.5612   18.0611 C   0  0  1  0  0  0  0  0  0  0  0  0
    8.6344  -19.9733   18.3819 C   0  0  0  0  0  0  0  0  0  0  0  0
    7.6157  -19.4471   17.4393 C   0  0  0  0  0  0  0  0  0  0  0  0
    6.2522  -19.9316   17.8797 C   0  0  0  0  0  0  0  0  0  0  0  0
    5.1317  -19.4445   17.0172 C   0  0  0  0  0  0  0  0  0  0  0  0
    3.8957  -20.0526   17.5322 N   0  0  0  0  0  0  0  0  0  0  0  0
   11.0218  -19.9125   19.1204 C   0  0  0  0  0  0  0  0  0  0  0  0
   11.6237  -21.0173   19.1913 O   0  0  0  0  0  0  0  0  0  0  0  0
   11.3428  -18.9892   20.1546 N   0  0  0  0  0  0  0  0  0  0  0  0
   12.2857  -19.2860   21.2076 C   0  0  1  0  0  0  0  0  0  0  0  0
   13.4446  -18.3442   21.1643 C   0  0  0  0  0  0  0  0  0  0  0  0
   14.4915  -18.5517   22.1997 C   0  0  0  0  0  0  0  0  0  0  0  0
   15.6444  -17.6323   22.0628 C   0  0  0  0  0  0  0  0  0  0  0  0
   16.5506  -17.8091   21.2115 O   0  0  0  0  0  0  0  0  0  0  0  0
   11.6251  -19.0975   22.5275 C   0  0  0  0  0  0  0  0  0  0  0  0
   12.1368  -19.5908   23.7060 O   0  0  0  0  0  0  0  0  0  0  0  0
   15.7552  -16.5263   22.8913 O   0  0  0  0  0  0  0  0  0  0  0  0
   10.5493  -18.4591   22.5772 O   0  0  0  0  0  0  0  0  0  0  0  0
  2  1  1  1
  2  3  1  0
  4  5  2  0
  4  2  1  0
  6  4  1  0
  7  6  1  0
  7  8  1  1
  9 10  1  0
  9  8  1  0
 10 11  1  0
 11 12  1  0
 13  7  1  0
 13 15  1  0
 14 13  2  0
 16 15  1  0
 16 21  1  0
 16 17  1  1
 18 17  1  0
 19 20  2  0
 19 18  1  0
 21 24  2  0
 21 22  1  0
 23 19  1  0
M  END
$$$$
