AKE.pdb
     RDKit          3D

 24 23  0  0  1  0  0  0  0  0999 V2000
   10.9141  -20.4789   17.4459 C   0  0  0  0  0  0  0  0  0  0  0  0
    9.6991  -19.6178   17.6948 C   0  0  2  0  0  0  0  0  0  0  0  0
    9.9637  -18.3028   17.1295 N   0  0  0  0  0  0  0  0  0  0  0  0
    9.4231  -19.4567   19.1446 C   0  0  0  0  0  0  0  0  0  0  0  0
    9.8124  -18.4228   19.7853 O   0  0  0  0  0  0  0  0  0  0  0  0
    8.7247  -20.4137   19.9069 N   0  0  0  0  0  0  0  0  0  0  0  0
    8.3737  -20.2960   21.2851 C   0  0  1  0  0  0  0  0  0  0  0  0
    7.1660  -21.1160   21.6634 C   0  0  0  0  0  0  0  0  0  0  0  0
    6.7892  -21.0244   23.0961 C   0  0  0  0  0  0  0  0  0  0  0  0
    5.6403  -21.9731   23.3565 C   0  0  0  0  0  0  0  0  0  0  0  0
    5.0908  -21.8879   24.7448 C   0  0  0  0  0  0  0  0  0  0  0  0
    3.8686  -22.7053   24.7755 N   0  0  0  0  0  0  0  0  0  0  0  0
    9.5127  -20.4563   22.2171 C   0  0  0  0  0  0  0  0  0  0  0  0
   10.1526  -21.5302   22.3754 O   0  0  0  0  0  0  0  0  0  0  0  0
    9.9646  -19.3676   23.0145 N   0  0  0  0  0  0  0  0  0  0  0  0
   11.0780  -19.4727   23.9284 C   0  0  1  0  0  0  0  0  0  0  0  0
   12.1598  -18.5100   23.5610 C   0  0  0  0  0  0  0  0  0  0  0  0
   11.7224  -17.1188   23.2708 C   0  0  0  0  0  0  0  0  0  0  0  0
   12.8126  -16.2528   22.7659 C   0  0  0  0  0  0  0  0  0  0  0  0
   13.8217  -15.9671   23.4568 O   0  0  0  0  0  0  0  0  0  0  0  0
   10.6255  -19.1113   25.2991 C   0  0  0  0  0  0  0  0  0  0  0  0
   11.3833  -19.3294   26.4271 O   0  0  0  0  0  0  0  0  0  0  0  0
   12.7452  -15.7227   21.4867 O   0  0  0  0  0  0  0  0  0  0  0  0
    9.5001  -18.5819   25.4421 O   0  0  0  0  0  0  0  0  0  0  0  0
  2  1  1  1
  2  3  1  0
  4  5  2  0
  4  2  1  0
  6  4  1  0
  7  6  1  0
  7  8  1  1
  9 10  1  0
  9  8  1  0
 10 11  1  0
 11 12  1  0
 13  7  1  0
 13 15  1  0
 14 13  2  0
 16 15  1  0
 16 21  1  0
 16 17  1  6
 18 17  1  0
 19 20  2  0
 19 18  1  0
 21 24  2  0
 21 22  1  0
 23 19  1  0
M  END
$$$$
