AKE.pdb
     RDKit          3D

 24 23  0  0  1  0  0  0  0  0999 V2000
    8.3487  -19.4986   18.7017 C   0  0  0  0  0  0  0  0  0  0  0  0
    9.2129  -19.6976   19.9237 C   0  0  2  0  0  0  0  0  0  0  0  0
    8.3566  -20.1739   21.0001 N   0  0  0  0  0  0  0  0  0  0  0  0
    9.8527  -18.4312   20.3608 C   0  0  0  0  0  0  0  0  0  0  0  0
   11.0852  -18.1927   20.1262 O   0  0  0  0  0  0  0  0  0  0  0  0
    9.1613  -17.4178   21.0533 N   0  0  0  0  0  0  0  0  0  0  0  0
    9.7045  -16.1668   21.4734 C   0  0  1  0  0  0  0  0  0  0  0  0
    8.7061  -15.0377   21.4229 C   0  0  0  0  0  0  0  0  0  0  0  0
    8.1297  -14.7910   20.0776 C   0  0  0  0  0  0  0  0  0  0  0  0
    7.9092  -13.3039   19.9104 C   0  0  0  0  0  0  0  0  0  0  0  0
    7.2208  -12.9362   18.6346 C   0  0  0  0  0  0  0  0  0  0  0  0
    7.1255  -11.4689   18.6038 N   0  0  0  0  0  0  0  0  0  0  0  0
   10.4616  -16.2301   22.7440 C   0  0  0  0  0  0  0  0  0  0  0  0
    9.9302  -16.2183   23.8865 O   0  0  0  0  0  0  0  0  0  0  0  0
   11.8824  -16.3108   22.7461 N   0  0  0  0  0  0  0  0  0  0  0  0
   12.6628  -16.3880   23.9590 C   0  0  1  0  0  0  0  0  0  0  0  0
   12.9238  -17.8106   24.3333 C   0  0  0  0  0  0  0  0  0  0  0  0
   11.7978  -18.5291   24.9867 C   0  0  0  0  0  0  0  0  0  0  0  0
   12.1295  -19.9220   25.3649 C   0  0  0  0  0  0  0  0  0  0  0  0
   12.6285  -20.7405   24.5535 O   0  0  0  0  0  0  0  0  0  0  0  0
   13.9883  -15.7508   23.7327 C   0  0  0  0  0  0  0  0  0  0  0  0
   14.8794  -15.4801   24.7460 O   0  0  0  0  0  0  0  0  0  0  0  0
   11.8917  -20.3686   26.6555 O   0  0  0  0  0  0  0  0  0  0  0  0
   14.3172  -15.4424   22.5648 O   0  0  0  0  0  0  0  0  0  0  0  0
  2  1  1  6
  2  3  1  0
  4  5  2  0
  4  2  1  0
  6  4  1  0
  7  6  1  0
  7  8  1  1
  9 10  1  0
  9  8  1  0
 10 11  1  0
 11 12  1  0
 13  7  1  0
 13 15  1  0
 14 13  2  0
 16 15  1  0
 16 21  1  0
 16 17  1  6
 18 17  1  0
 19 20  2  0
 19 18  1  0
 21 24  2  0
 21 22  1  0
 23 19  1  0
M  END
$$$$
