AKE.pdb
     RDKit          3D

 24 23  0  0  1  0  0  0  0  0999 V2000
    7.9825  -18.3090   19.0071 C   0  0  0  0  0  0  0  0  0  0  0  0
    9.4125  -18.2979   19.4914 C   0  0  2  0  0  0  0  0  0  0  0  0
   10.2559  -18.7510   18.3950 N   0  0  0  0  0  0  0  0  0  0  0  0
    9.6131  -19.2118   20.6441 C   0  0  0  0  0  0  0  0  0  0  0  0
    8.9619  -19.0630   21.7326 O   0  0  0  0  0  0  0  0  0  0  0  0
   10.5191  -20.2905   20.6235 N   0  0  0  0  0  0  0  0  0  0  0  0
   10.7953  -21.1760   21.7079 C   0  0  1  0  0  0  0  0  0  0  0  0
   11.0688  -22.5914   21.2652 C   0  0  0  0  0  0  0  0  0  0  0  0
   11.1775  -23.5694   22.3764 C   0  0  0  0  0  0  0  0  0  0  0  0
   11.5664  -24.9137   21.8023 C   0  0  0  0  0  0  0  0  0  0  0  0
   11.6144  -26.0114   22.8169 C   0  0  0  0  0  0  0  0  0  0  0  0
   12.1802  -27.1924   22.1475 N   0  0  0  0  0  0  0  0  0  0  0  0
   11.7872  -20.6576   22.6770 C   0  0  0  0  0  0  0  0  0  0  0  0
   12.8103  -19.9951   22.3575 O   0  0  0  0  0  0  0  0  0  0  0  0
   11.6349  -20.8866   24.0733 N   0  0  0  0  0  0  0  0  0  0  0  0
   12.4722  -20.2578   25.0681 C   0  0  1  0  0  0  0  0  0  0  0  0
   11.7645  -20.1720   26.3811 C   0  0  0  0  0  0  0  0  0  0  0  0
   12.5770  -19.6878   27.5284 C   0  0  0  0  0  0  0  0  0  0  0  0
   11.8028  -19.5583   28.7842 C   0  0  0  0  0  0  0  0  0  0  0  0
   10.5819  -19.8439   28.8563 O   0  0  0  0  0  0  0  0  0  0  0  0
   13.6869  -21.0891   25.2857 C   0  0  0  0  0  0  0  0  0  0  0  0
   14.9268  -20.5582   25.5596 O   0  0  0  0  0  0  0  0  0  0  0  0
   12.4212  -19.1075   29.9402 O   0  0  0  0  0  0  0  0  0  0  0  0
   13.5846  -22.3350   25.2181 O   0  0  0  0  0  0  0  0  0  0  0  0
  2  1  1  6
  2  3  1  0
  4  5  2  0
  4  2  1  0
  6  4  1  0
  7  6  1  0
  7  8  1  6
  9 10  1  0
  9  8  1  0
 10 11  1  0
 11 12  1  0
 13  7  1  0
 13 15  1  0
 14 13  2  0
 16 15  1  0
 16 21  1  0
 16 17  1  1
 18 17  1  0
 19 20  2  0
 19 18  1  0
 21 24  2  0
 21 22  1  0
 23 19  1  0
M  END
$$$$
