AKE.pdb
     RDKit          3D

 24 23  0  0  1  0  0  0  0  0999 V2000
   11.8958  -18.2891   21.1087 C   0  0  0  0  0  0  0  0  0  0  0  0
   10.3904  -18.1993   21.1839 C   0  0  2  0  0  0  0  0  0  0  0  0
    9.9813  -16.9977   20.4714 N   0  0  0  0  0  0  0  0  0  0  0  0
    9.9119  -18.0974   22.5856 C   0  0  0  0  0  0  0  0  0  0  0  0
    9.7614  -16.9652   23.1568 O   0  0  0  0  0  0  0  0  0  0  0  0
    9.5943  -19.2204   23.3747 N   0  0  0  0  0  0  0  0  0  0  0  0
    9.0911  -19.1935   24.7098 C   0  0  1  0  0  0  0  0  0  0  0  0
    8.2731  -20.4105   25.0620 C   0  0  0  0  0  0  0  0  0  0  0  0
    7.7457  -20.4122   26.4493 C   0  0  0  0  0  0  0  0  0  0  0  0
    6.9597  -21.6860   26.6672 C   0  0  0  0  0  0  0  0  0  0  0  0
    6.3452  -21.7903   28.0267 C   0  0  0  0  0  0  0  0  0  0  0  0
    5.6132  -23.0650   28.0721 N   0  0  0  0  0  0  0  0  0  0  0  0
   10.1031  -18.8452   25.7327 C   0  0  0  0  0  0  0  0  0  0  0  0
   11.2368  -19.3880   25.8210 O   0  0  0  0  0  0  0  0  0  0  0  0
    9.8427  -17.8420   26.7079 N   0  0  0  0  0  0  0  0  0  0  0  0
   10.8157  -17.4343   27.6943 C   0  0  1  0  0  0  0  0  0  0  0  0
   10.4830  -16.0852   28.2431 C   0  0  0  0  0  0  0  0  0  0  0  0
   10.2853  -15.0050   27.2406 C   0  0  0  0  0  0  0  0  0  0  0  0
    9.7560  -13.7509   27.8239 C   0  0  0  0  0  0  0  0  0  0  0  0
    9.5432  -13.6166   29.0543 O   0  0  0  0  0  0  0  0  0  0  0  0
   10.7851  -18.3854   28.8382 C   0  0  0  0  0  0  0  0  0  0  0  0
   11.6815  -18.3413   29.8817 O   0  0  0  0  0  0  0  0  0  0  0  0
    9.4750  -12.6670   27.0066 O   0  0  0  0  0  0  0  0  0  0  0  0
    9.9029  -19.2733   28.8603 O   0  0  0  0  0  0  0  0  0  0  0  0
  2  1  1  1
  2  3  1  0
  4  5  2  0
  4  2  1  0
  6  4  1  0
  7  6  1  0
  7  8  1  1
  9 10  1  0
  9  8  1  0
 10 11  1  0
 11 12  1  0
 13  7  1  0
 13 15  1  0
 14 13  2  0
 16 15  1  0
 16 21  1  0
 16 17  1  1
 18 17  1  0
 19 20  2  0
 19 18  1  0
 21 24  2  0
 21 22  1  0
 23 19  1  0
M  END
$$$$
