AKE.pdb
     RDKit          3D

 24 23  0  0  1  0  0  0  0  0999 V2000
    8.1554  -12.0898   19.7720 C   0  0  0  0  0  0  0  0  0  0  0  0
    7.9851  -13.3326   18.9316 C   0  0  2  0  0  0  0  0  0  0  0  0
    6.8783  -14.0966   19.4885 N   0  0  0  0  0  0  0  0  0  0  0  0
    9.1999  -14.1857   18.9534 C   0  0  0  0  0  0  0  0  0  0  0  0
    9.3832  -15.0596   19.8666 O   0  0  0  0  0  0  0  0  0  0  0  0
   10.2212  -14.0967   17.9872 N   0  0  0  0  0  0  0  0  0  0  0  0
   11.4054  -14.8917   17.9412 C   0  0  1  0  0  0  0  0  0  0  0  0
   11.9365  -15.0876   16.5434 C   0  0  0  0  0  0  0  0  0  0  0  0
   11.1876  -16.0853   15.7392 C   0  0  0  0  0  0  0  0  0  0  0  0
   11.6920  -16.0356   14.3140 C   0  0  0  0  0  0  0  0  0  0  0  0
   10.9818  -16.9731   13.3901 C   0  0  0  0  0  0  0  0  0  0  0  0
   11.5309  -16.7501   12.0441 N   0  0  0  0  0  0  0  0  0  0  0  0
   12.4438  -14.4905   18.9172 C   0  0  0  0  0  0  0  0  0  0  0  0
   12.9545  -13.3400   18.9753 O   0  0  0  0  0  0  0  0  0  0  0  0
   12.9406  -15.4147   19.8785 N   0  0  0  0  0  0  0  0  0  0  0  0
   13.8623  -15.0396   20.9253 C   0  0  1  0  0  0  0  0  0  0  0  0
   13.8335  -16.0336   22.0403 C   0  0  0  0  0  0  0  0  0  0  0  0
   12.6738  -15.9401   22.9661 C   0  0  0  0  0  0  0  0  0  0  0  0
   12.6281  -17.0337   23.9638 C   0  0  0  0  0  0  0  0  0  0  0  0
   13.2187  -16.9626   25.0699 O   0  0  0  0  0  0  0  0  0  0  0  0
   15.2482  -15.0383   20.3836 C   0  0  0  0  0  0  0  0  0  0  0  0
   15.5736  -15.5288   19.1395 O   0  0  0  0  0  0  0  0  0  0  0  0
   11.9151  -18.1919   23.6954 O   0  0  0  0  0  0  0  0  0  0  0  0
   16.1703  -14.5692   21.0885 O   0  0  0  0  0  0  0  0  0  0  0  0
  2  1  1  1
  2  3  1  0
  4  5  2  0
  4  2  1  0
  6  4  1  0
  7  6  1  0
  7  8  1  6
  9 10  1  0
  9  8  1  0
 10 11  1  0
 11 12  1  0
 13  7  1  0
 13 15  1  0
 14 13  2  0
 16 15  1  0
 16 21  1  0
 16 17  1  1
 18 17  1  0
 19 20  2  0
 19 18  1  0
 21 24  2  0
 21 22  1  0
 23 19  1  0
M  END
$$$$
