AKE.pdb
     RDKit          3D

 24 23  0  0  1  0  0  0  0  0999 V2000
    8.1007  -13.1995   18.8697 C   0  0  0  0  0  0  0  0  0  0  0  0
    8.2333  -14.5552   19.5210 C   0  0  2  0  0  0  0  0  0  0  0  0
    6.9158  -15.1740   19.5301 N   0  0  0  0  0  0  0  0  0  0  0  0
    8.7107  -14.4510   20.9229 C   0  0  0  0  0  0  0  0  0  0  0  0
    9.9261  -14.1663   21.1926 O   0  0  0  0  0  0  0  0  0  0  0  0
    7.8748  -14.6543   22.0384 N   0  0  0  0  0  0  0  0  0  0  0  0
    8.2737  -14.6010   23.4076 C   0  0  1  0  0  0  0  0  0  0  0  0
    7.1564  -14.1999   24.3375 C   0  0  0  0  0  0  0  0  0  0  0  0
    7.5207  -13.1384   25.3089 C   0  0  0  0  0  0  0  0  0  0  0  0
    6.3220  -12.8522   26.1859 C   0  0  0  0  0  0  0  0  0  0  0  0
    6.5726  -11.8090   27.2279 C   0  0  0  0  0  0  0  0  0  0  0  0
    5.2984  -11.5827   27.9263 N   0  0  0  0  0  0  0  0  0  0  0  0
    9.0270  -15.7899   23.8668 C   0  0  0  0  0  0  0  0  0  0  0  0
    8.5936  -16.9713   23.8024 O   0  0  0  0  0  0  0  0  0  0  0  0
   10.3290  -15.6600   24.4262 N   0  0  0  0  0  0  0  0  0  0  0  0
   11.1403  -16.7953   24.7992 C   0  0  1  0  0  0  0  0  0  0  0  0
   12.5858  -16.5250   24.5357 C   0  0  0  0  0  0  0  0  0  0  0  0
   13.1382  -17.1023   23.2817 C   0  0  0  0  0  0  0  0  0  0  0  0
   14.5169  -16.6508   22.9839 C   0  0  0  0  0  0  0  0  0  0  0  0
   15.1632  -15.9020   23.7576 O   0  0  0  0  0  0  0  0  0  0  0  0
   11.0057  -17.0374   26.2611 C   0  0  0  0  0  0  0  0  0  0  0  0
   11.5049  -18.1546   26.8912 O   0  0  0  0  0  0  0  0  0  0  0  0
   15.1442  -17.0532   21.8149 O   0  0  0  0  0  0  0  0  0  0  0  0
   10.4097  -16.1871   26.9604 O   0  0  0  0  0  0  0  0  0  0  0  0
  2  1  1  1
  2  3  1  0
  4  5  2  0
  4  2  1  0
  6  4  1  0
  7  6  1  0
  7  8  1  1
  9 10  1  0
  9  8  1  0
 10 11  1  0
 11 12  1  0
 13  7  1  0
 13 15  1  0
 14 13  2  0
 16 15  1  0
 16 21  1  0
 16 17  1  1
 18 17  1  0
 19 20  2  0
 19 18  1  0
 21 24  2  0
 21 22  1  0
 23 19  1  0
M  END
$$$$
