AKE.pdb
     RDKit          3D

 24 23  0  0  1  0  0  0  0  0999 V2000
    7.6304  -18.4812   19.3159 C   0  0  0  0  0  0  0  0  0  0  0  0
    7.6950  -16.9820   19.1493 C   0  0  2  0  0  0  0  0  0  0  0  0
    8.4496  -16.7023   17.9363 N   0  0  0  0  0  0  0  0  0  0  0  0
    8.3842  -16.3279   20.2900 C   0  0  0  0  0  0  0  0  0  0  0  0
    9.6570  -16.2315   20.3318 O   0  0  0  0  0  0  0  0  0  0  0  0
    7.6989  -15.7755   21.3899 N   0  0  0  0  0  0  0  0  0  0  0  0
    8.2982  -15.1702   22.5349 C   0  0  1  0  0  0  0  0  0  0  0  0
    7.3127  -14.4207   23.3959 C   0  0  0  0  0  0  0  0  0  0  0  0
    7.8978  -13.8379   24.6291 C   0  0  0  0  0  0  0  0  0  0  0  0
    6.7990  -13.1498   25.4082 C   0  0  0  0  0  0  0  0  0  0  0  0
    7.2751  -12.4774   26.6564 C   0  0  0  0  0  0  0  0  0  0  0  0
    6.0818  -11.9960   27.3686 N   0  0  0  0  0  0  0  0  0  0  0  0
    9.1876  -16.0713   23.3020 C   0  0  0  0  0  0  0  0  0  0  0  0
    8.8427  -17.2004   23.7425 O   0  0  0  0  0  0  0  0  0  0  0  0
   10.5297  -15.6995   23.5949 N   0  0  0  0  0  0  0  0  0  0  0  0
   11.5075  -16.6292   24.1104 C   0  0  1  0  0  0  0  0  0  0  0  0
   12.8947  -16.1595   23.8153 C   0  0  0  0  0  0  0  0  0  0  0  0
   13.9947  -17.0466   24.2777 C   0  0  0  0  0  0  0  0  0  0  0  0
   15.3436  -16.5317   23.9478 C   0  0  0  0  0  0  0  0  0  0  0  0
   15.6792  -16.2207   22.7782 O   0  0  0  0  0  0  0  0  0  0  0  0
   11.3827  -16.7039   25.5912 C   0  0  0  0  0  0  0  0  0  0  0  0
   11.9383  -17.7115   26.3465 O   0  0  0  0  0  0  0  0  0  0  0  0
   16.2930  -16.3762   24.9459 O   0  0  0  0  0  0  0  0  0  0  0  0
   10.7417  -15.8093   26.1879 O   0  0  0  0  0  0  0  0  0  0  0  0
  2  1  1  1
  2  3  1  0
  4  5  2  0
  4  2  1  0
  6  4  1  0
  7  6  1  0
  7  8  1  1
  9 10  1  0
  9  8  1  0
 10 11  1  0
 11 12  1  0
 13  7  1  0
 13 15  1  0
 14 13  2  0
 16 15  1  0
 16 21  1  0
 16 17  1  1
 18 17  1  0
 19 20  2  0
 19 18  1  0
 21 24  2  0
 21 22  1  0
 23 19  1  0
M  END
$$$$
