AKE.pdb
     RDKit          3D

 24 23  0  0  1  0  0  0  0  0999 V2000
   -4.2794  -26.0650   23.7037 C   0  0  0  0  0  0  0  0  0  0  0  0
   -4.1504  -25.2861   24.9908 C   0  0  2  0  0  0  0  0  0  0  0  0
   -2.7505  -25.3152   25.3888 N   0  0  0  0  0  0  0  0  0  0  0  0
   -4.9594  -25.8842   26.0826 C   0  0  0  0  0  0  0  0  0  0  0  0
   -6.2324  -25.9526   26.0068 O   0  0  0  0  0  0  0  0  0  0  0  0
   -4.3940  -26.4106   27.2607 N   0  0  0  0  0  0  0  0  0  0  0  0
   -5.0910  -27.1269   28.2793 C   0  0  1  0  0  0  0  0  0  0  0  0
   -4.1980  -28.0390   29.0824 C   0  0  0  0  0  0  0  0  0  0  0  0
   -4.9137  -28.8700   30.0824 C   0  0  0  0  0  0  0  0  0  0  0  0
   -3.9117  -29.7706   30.7700 C   0  0  0  0  0  0  0  0  0  0  0  0
   -4.5230  -30.7007   31.7690 C   0  0  0  0  0  0  0  0  0  0  0  0
   -5.1169  -29.8681   32.8259 N   0  0  0  0  0  0  0  0  0  0  0  0
   -5.9797  -26.2858   29.1126 C   0  0  0  0  0  0  0  0  0  0  0  0
   -5.6250  -25.2087   29.6620 O   0  0  0  0  0  0  0  0  0  0  0  0
   -7.3324  -26.6601   29.3480 N   0  0  0  0  0  0  0  0  0  0  0  0
   -8.2473  -25.8532   30.1212 C   0  0  1  0  0  0  0  0  0  0  0  0
   -9.6441  -25.9966   29.6108 C   0  0  0  0  0  0  0  0  0  0  0  0
  -10.6904  -25.2500   30.3582 C   0  0  0  0  0  0  0  0  0  0  0  0
  -12.0521  -25.4338   29.8055 C   0  0  0  0  0  0  0  0  0  0  0  0
  -13.0887  -25.2012   30.4753 O   0  0  0  0  0  0  0  0  0  0  0  0
   -8.2518  -26.3284   31.5312 C   0  0  0  0  0  0  0  0  0  0  0  0
   -8.2717  -25.4798   32.6146 O   0  0  0  0  0  0  0  0  0  0  0  0
  -12.2210  -25.8781   28.5033 O   0  0  0  0  0  0  0  0  0  0  0  0
   -8.2369  -27.5606   31.7519 O   0  0  0  0  0  0  0  0  0  0  0  0
  2  1  1  6
  2  3  1  0
  4  5  2  0
  4  2  1  0
  6  4  1  0
  7  6  1  0
  7  8  1  1
  9 10  1  0
  9  8  1  0
 10 11  1  0
 11 12  1  0
 13  7  1  0
 13 15  1  0
 14 13  2  0
 16 15  1  0
 16 21  1  0
 16 17  1  6
 18 17  1  0
 19 20  2  0
 19 18  1  0
 21 24  2  0
 21 22  1  0
 23 19  1  0
M  END
$$$$
