AKE.pdb
     RDKit          3D

 24 23  0  0  1  0  0  0  0  0999 V2000
   14.5637  -20.3267   17.3735 C   0  0  0  0  0  0  0  0  0  0  0  0
   13.8251  -19.1016   16.8904 C   0  0  2  0  0  0  0  0  0  0  0  0
   14.7728  -18.2700   16.1629 N   0  0  0  0  0  0  0  0  0  0  0  0
   13.2751  -18.3071   18.0176 C   0  0  0  0  0  0  0  0  0  0  0  0
   14.0079  -17.4999   18.6828 O   0  0  0  0  0  0  0  0  0  0  0  0
   11.9300  -18.3829   18.4294 N   0  0  0  0  0  0  0  0  0  0  0  0
   11.3489  -17.6881   19.5321 C   0  0  1  0  0  0  0  0  0  0  0  0
    9.8448  -17.6079   19.4587 C   0  0  0  0  0  0  0  0  0  0  0  0
    9.2269  -16.7488   20.4994 C   0  0  0  0  0  0  0  0  0  0  0  0
    7.7271  -16.7525   20.3028 C   0  0  0  0  0  0  0  0  0  0  0  0
    6.9963  -15.8260   21.2216 C   0  0  0  0  0  0  0  0  0  0  0  0
    5.5762  -15.8744   20.8423 N   0  0  0  0  0  0  0  0  0  0  0  0
   11.8540  -18.1194   20.8552 C   0  0  0  0  0  0  0  0  0  0  0  0
   11.9386  -19.3214   21.2236 O   0  0  0  0  0  0  0  0  0  0  0  0
   12.2879  -17.1664   21.8190 N   0  0  0  0  0  0  0  0  0  0  0  0
   12.9156  -17.5398   23.0651 C   0  0  1  0  0  0  0  0  0  0  0  0
   14.2259  -16.8415   23.2302 C   0  0  0  0  0  0  0  0  0  0  0  0
   14.9909  -17.1750   24.4609 C   0  0  0  0  0  0  0  0  0  0  0  0
   16.2701  -16.4376   24.5761 C   0  0  0  0  0  0  0  0  0  0  0  0
   16.6164  -15.5552   23.7522 O   0  0  0  0  0  0  0  0  0  0  0  0
   12.0521  -17.1115   24.1987 C   0  0  0  0  0  0  0  0  0  0  0  0
   10.9530  -16.2974   24.0458 O   0  0  0  0  0  0  0  0  0  0  0  0
   17.1389  -16.7094   25.6216 O   0  0  0  0  0  0  0  0  0  0  0  0
   12.3326  -17.5072   25.3528 O   0  0  0  0  0  0  0  0  0  0  0  0
  2  1  1  1
  2  3  1  0
  4  5  2  0
  4  2  1  0
  6  4  1  0
  7  6  1  0
  7  8  1  1
  9 10  1  0
  9  8  1  0
 10 11  1  0
 11 12  1  0
 13  7  1  0
 13 15  1  0
 14 13  2  0
 16 15  1  0
 16 21  1  0
 16 17  1  1
 18 17  1  0
 19 20  2  0
 19 18  1  0
 21 24  2  0
 21 22  1  0
 23 19  1  0
M  END
$$$$
