AKE.pdb
     RDKit          3D

 24 23  0  0  1  0  0  0  0  0999 V2000
    7.3911  -18.2602   19.5941 C   0  0  0  0  0  0  0  0  0  0  0  0
    7.4836  -16.7580   19.4734 C   0  0  2  0  0  0  0  0  0  0  0  0
    8.2480  -16.4555   18.2722 N   0  0  0  0  0  0  0  0  0  0  0  0
    8.1802  -16.1517   20.6359 C   0  0  0  0  0  0  0  0  0  0  0  0
    9.4525  -16.0466   20.6687 O   0  0  0  0  0  0  0  0  0  0  0  0
    7.5026  -15.6567   21.7675 N   0  0  0  0  0  0  0  0  0  0  0  0
    8.1078  -15.0660   22.9170 C   0  0  1  0  0  0  0  0  0  0  0  0
    7.1239  -14.3432   23.8022 C   0  0  0  0  0  0  0  0  0  0  0  0
    7.7345  -13.6811   24.9819 C   0  0  0  0  0  0  0  0  0  0  0  0
    6.6424  -12.9929   25.7703 C   0  0  0  0  0  0  0  0  0  0  0  0
    7.1430  -12.2336   26.9576 C   0  0  0  0  0  0  0  0  0  0  0  0
    5.9623  -11.7659   27.6992 N   0  0  0  0  0  0  0  0  0  0  0  0
    9.0151  -15.9715   23.6578 C   0  0  0  0  0  0  0  0  0  0  0  0
    8.6633  -17.0737   24.1569 O   0  0  0  0  0  0  0  0  0  0  0  0
   10.3839  -15.6356   23.8544 N   0  0  0  0  0  0  0  0  0  0  0  0
   11.3396  -16.5462   24.4406 C   0  0  1  0  0  0  0  0  0  0  0  0
   12.7359  -16.0559   24.2352 C   0  0  0  0  0  0  0  0  0  0  0  0
   13.7966  -16.7776   24.9868 C   0  0  0  0  0  0  0  0  0  0  0  0
   15.1558  -16.5610   24.4401 C   0  0  0  0  0  0  0  0  0  0  0  0
   15.3696  -15.8520   23.4258 O   0  0  0  0  0  0  0  0  0  0  0  0
   11.1174  -16.6138   25.9103 C   0  0  0  0  0  0  0  0  0  0  0  0
   11.6581  -17.5932   26.7120 O   0  0  0  0  0  0  0  0  0  0  0  0
   16.2533  -17.1496   25.0490 O   0  0  0  0  0  0  0  0  0  0  0  0
   10.4041  -15.7396   26.4528 O   0  0  0  0  0  0  0  0  0  0  0  0
  2  1  1  1
  2  3  1  0
  4  5  2  0
  4  2  1  0
  6  4  1  0
  7  6  1  0
  7  8  1  1
  9 10  1  0
  9  8  1  0
 10 11  1  0
 11 12  1  0
 13  7  1  0
 13 15  1  0
 14 13  2  0
 16 15  1  0
 16 21  1  0
 16 17  1  1
 18 17  1  0
 19 20  2  0
 19 18  1  0
 21 24  2  0
 21 22  1  0
 23 19  1  0
M  END
$$$$
