AKE.pdb
     RDKit          3D

 24 23  0  0  1  0  0  0  0  0999 V2000
    8.2303  -17.9607   19.6941 C   0  0  0  0  0  0  0  0  0  0  0  0
    8.4124  -16.4619   19.6750 C   0  0  2  0  0  0  0  0  0  0  0  0
    9.4311  -16.1512   18.6829 N   0  0  0  0  0  0  0  0  0  0  0  0
    8.8666  -15.9432   20.9899 C   0  0  0  0  0  0  0  0  0  0  0  0
   10.0892  -16.0228   21.3503 O   0  0  0  0  0  0  0  0  0  0  0  0
    7.9997  -15.3363   21.9198 N   0  0  0  0  0  0  0  0  0  0  0  0
    8.3564  -14.8706   23.2207 C   0  0  1  0  0  0  0  0  0  0  0  0
    7.3005  -13.9972   23.8502 C   0  0  0  0  0  0  0  0  0  0  0  0
    7.6653  -13.4637   25.1863 C   0  0  0  0  0  0  0  0  0  0  0  0
    6.5176  -12.6244   25.7026 C   0  0  0  0  0  0  0  0  0  0  0  0
    6.7504  -12.0591   27.0675 C   0  0  0  0  0  0  0  0  0  0  0  0
    5.5525  -11.2834   27.4226 N   0  0  0  0  0  0  0  0  0  0  0  0
    8.8660  -15.9267   24.1245 C   0  0  0  0  0  0  0  0  0  0  0  0
    8.2195  -16.9611   24.4406 O   0  0  0  0  0  0  0  0  0  0  0  0
   10.1606  -15.8291   24.7073 N   0  0  0  0  0  0  0  0  0  0  0  0
   10.7322  -16.8702   25.5293 C   0  0  1  0  0  0  0  0  0  0  0  0
   12.2239  -16.7866   25.5316 C   0  0  0  0  0  0  0  0  0  0  0  0
   12.9058  -17.2822   24.3067 C   0  0  0  0  0  0  0  0  0  0  0  0
   13.9432  -16.3568   23.7960 C   0  0  0  0  0  0  0  0  0  0  0  0
   14.1509  -16.1876   22.5690 O   0  0  0  0  0  0  0  0  0  0  0  0
   10.2871  -16.6858   26.9371 C   0  0  0  0  0  0  0  0  0  0  0  0
    9.4534  -15.6670   27.3387 O   0  0  0  0  0  0  0  0  0  0  0  0
   14.7306  -15.6366   24.6809 O   0  0  0  0  0  0  0  0  0  0  0  0
   10.6865  -17.4936   27.8061 O   0  0  0  0  0  0  0  0  0  0  0  0
  2  1  1  1
  2  3  1  0
  4  5  2  0
  4  2  1  0
  6  4  1  0
  7  6  1  0
  7  8  1  1
  9 10  1  0
  9  8  1  0
 10 11  1  0
 11 12  1  0
 13  7  1  0
 13 15  1  0
 14 13  2  0
 16 15  1  0
 16 21  1  0
 16 17  1  1
 18 17  1  0
 19 20  2  0
 19 18  1  0
 21 24  2  0
 21 22  1  0
 23 19  1  0
M  END
$$$$
