AKE.pdb
     RDKit          3D

 24 23  0  0  1  0  0  0  0  0999 V2000
    7.0065  -17.3149   17.9684 C   0  0  0  0  0  0  0  0  0  0  0  0
    7.5419  -18.5149   18.7121 C   0  0  2  0  0  0  0  0  0  0  0  0
    7.0909  -19.7087   18.0119 N   0  0  0  0  0  0  0  0  0  0  0  0
    7.0364  -18.5720   20.1069 C   0  0  0  0  0  0  0  0  0  0  0  0
    7.2953  -17.6455   20.9470 O   0  0  0  0  0  0  0  0  0  0  0  0
    6.2488  -19.6316   20.5981 N   0  0  0  0  0  0  0  0  0  0  0  0
    5.6835  -19.7220   21.9053 C   0  0  1  0  0  0  0  0  0  0  0  0
    4.2401  -20.1587   21.9004 C   0  0  0  0  0  0  0  0  0  0  0  0
    3.3791  -19.4135   20.9483 C   0  0  0  0  0  0  0  0  0  0  0  0
    1.9749  -19.9700   21.0276 C   0  0  0  0  0  0  0  0  0  0  0  0
    1.0115  -19.3111   20.0924 C   0  0  0  0  0  0  0  0  0  0  0  0
   -0.2756  -20.0073   20.2385 N   0  0  0  0  0  0  0  0  0  0  0  0
    6.5208  -20.4590   22.8787 C   0  0  0  0  0  0  0  0  0  0  0  0
    6.9642  -21.6237   22.6928 O   0  0  0  0  0  0  0  0  0  0  0  0
    6.8847  -19.8720   24.1231 N   0  0  0  0  0  0  0  0  0  0  0  0
    7.8237  -20.4829   25.0347 C   0  0  1  0  0  0  0  0  0  0  0  0
    9.2301  -20.2027   24.6157 C   0  0  0  0  0  0  0  0  0  0  0  0
   10.2932  -20.8507   25.4287 C   0  0  0  0  0  0  0  0  0  0  0  0
   11.6577  -20.6268   24.8985 C   0  0  0  0  0  0  0  0  0  0  0  0
   12.1713  -19.4835   24.8194 O   0  0  0  0  0  0  0  0  0  0  0  0
    7.6506  -19.8914   26.3890 C   0  0  0  0  0  0  0  0  0  0  0  0
    6.8625  -18.7909   26.6378 O   0  0  0  0  0  0  0  0  0  0  0  0
   12.4213  -21.6998   24.4654 O   0  0  0  0  0  0  0  0  0  0  0  0
    8.2484  -20.4152   27.3563 O   0  0  0  0  0  0  0  0  0  0  0  0
  2  1  1  6
  2  3  1  0
  4  5  2  0
  4  2  1  0
  6  4  1  0
  7  6  1  0
  7  8  1  6
  9 10  1  0
  9  8  1  0
 10 11  1  0
 11 12  1  0
 13  7  1  0
 13 15  1  0
 14 13  2  0
 16 15  1  0
 16 21  1  0
 16 17  1  6
 18 17  1  0
 19 20  2  0
 19 18  1  0
 21 24  2  0
 21 22  1  0
 23 19  1  0
M  END
$$$$
