AKE.pdb
     RDKit          3D

 24 23  0  0  1  0  0  0  0  0999 V2000
    7.8016  -18.4774   19.2588 C   0  0  0  0  0  0  0  0  0  0  0  0
    7.8242  -16.9769   19.0922 C   0  0  2  0  0  0  0  0  0  0  0  0
    8.6484  -16.6715   17.9319 N   0  0  0  0  0  0  0  0  0  0  0  0
    8.4116  -16.2980   20.2747 C   0  0  0  0  0  0  0  0  0  0  0  0
    9.6702  -16.1066   20.3752 O   0  0  0  0  0  0  0  0  0  0  0  0
    7.6392  -15.8234   21.3530 N   0  0  0  0  0  0  0  0  0  0  0  0
    8.1430  -15.2480   22.5578 C   0  0  1  0  0  0  0  0  0  0  0  0
    7.0838  -14.5468   23.3705 C   0  0  0  0  0  0  0  0  0  0  0  0
    7.6062  -13.8023   24.5435 C   0  0  0  0  0  0  0  0  0  0  0  0
    6.4523  -13.1011   25.2252 C   0  0  0  0  0  0  0  0  0  0  0  0
    6.8725  -12.1759   26.3226 C   0  0  0  0  0  0  0  0  0  0  0  0
    5.6448  -11.6202   26.9114 N   0  0  0  0  0  0  0  0  0  0  0  0
    8.9938  -16.1595   23.3560 C   0  0  0  0  0  0  0  0  0  0  0  0
    8.6771  -17.3411   23.6579 O   0  0  0  0  0  0  0  0  0  0  0  0
   10.2619  -15.7368   23.8443 N   0  0  0  0  0  0  0  0  0  0  0  0
   11.2588  -16.6568   24.3402 C   0  0  1  0  0  0  0  0  0  0  0  0
   12.6340  -16.1907   23.9884 C   0  0  0  0  0  0  0  0  0  0  0  0
   13.7553  -17.0065   24.5252 C   0  0  0  0  0  0  0  0  0  0  0  0
   15.0913  -16.4615   24.1917 C   0  0  0  0  0  0  0  0  0  0  0  0
   15.2448  -15.4572   23.4532 O   0  0  0  0  0  0  0  0  0  0  0  0
   11.1866  -16.7069   25.8256 C   0  0  0  0  0  0  0  0  0  0  0  0
   11.8102  -17.6744   26.5802 O   0  0  0  0  0  0  0  0  0  0  0  0
   16.2341  -17.0606   24.6983 O   0  0  0  0  0  0  0  0  0  0  0  0
   10.5276  -15.8287   26.4269 O   0  0  0  0  0  0  0  0  0  0  0  0
  2  1  1  1
  2  3  1  0
  4  5  2  0
  4  2  1  0
  6  4  1  0
  7  6  1  0
  7  8  1  1
  9 10  1  0
  9  8  1  0
 10 11  1  0
 11 12  1  0
 13  7  1  0
 13 15  1  0
 14 13  2  0
 16 15  1  0
 16 21  1  0
 16 17  1  1
 18 17  1  0
 19 20  2  0
 19 18  1  0
 21 24  2  0
 21 22  1  0
 23 19  1  0
M  END
$$$$
