AKE.pdb
     RDKit          3D

 24 23  0  0  1  0  0  0  0  0999 V2000
    8.2456  -17.9932   19.7914 C   0  0  0  0  0  0  0  0  0  0  0  0
    8.4265  -16.4960   19.7165 C   0  0  2  0  0  0  0  0  0  0  0  0
    9.4357  -16.2209   18.7043 N   0  0  0  0  0  0  0  0  0  0  0  0
    8.8926  -15.9301   21.0075 C   0  0  0  0  0  0  0  0  0  0  0  0
   10.1326  -15.8988   21.3114 O   0  0  0  0  0  0  0  0  0  0  0  0
    8.0186  -15.3957   21.9746 N   0  0  0  0  0  0  0  0  0  0  0  0
    8.3910  -14.8972   23.2589 C   0  0  1  0  0  0  0  0  0  0  0  0
    7.3113  -14.0719   23.9126 C   0  0  0  0  0  0  0  0  0  0  0  0
    7.6917  -13.4987   25.2277 C   0  0  0  0  0  0  0  0  0  0  0  0
    6.5014  -12.7583   25.7960 C   0  0  0  0  0  0  0  0  0  0  0  0
    6.7848  -12.0644   27.0902 C   0  0  0  0  0  0  0  0  0  0  0  0
    5.5744  -11.3100   27.4487 N   0  0  0  0  0  0  0  0  0  0  0  0
    8.9821  -15.9151   24.1567 C   0  0  0  0  0  0  0  0  0  0  0  0
    8.4046  -16.9830   24.4942 O   0  0  0  0  0  0  0  0  0  0  0  0
   10.2820  -15.7380   24.7083 N   0  0  0  0  0  0  0  0  0  0  0  0
   10.9505  -16.7553   25.4857 C   0  0  1  0  0  0  0  0  0  0  0  0
   12.4326  -16.6595   25.3241 C   0  0  0  0  0  0  0  0  0  0  0  0
   12.9688  -17.0471   23.9925 C   0  0  0  0  0  0  0  0  0  0  0  0
   14.3095  -16.4840   23.7117 C   0  0  0  0  0  0  0  0  0  0  0  0
   14.9190  -15.7532   24.5312 O   0  0  0  0  0  0  0  0  0  0  0  0
   10.6588  -16.5424   26.9292 C   0  0  0  0  0  0  0  0  0  0  0  0
   11.0860  -17.3965   27.9204 O   0  0  0  0  0  0  0  0  0  0  0  0
   14.9409  -16.7560   22.5079 O   0  0  0  0  0  0  0  0  0  0  0  0
    9.9919  -15.5385   27.2677 O   0  0  0  0  0  0  0  0  0  0  0  0
  2  1  1  1
  2  3  1  0
  4  5  2  0
  4  2  1  0
  6  4  1  0
  7  6  1  0
  7  8  1  1
  9 10  1  0
  9  8  1  0
 10 11  1  0
 11 12  1  0
 13  7  1  0
 13 15  1  0
 14 13  2  0
 16 15  1  0
 16 21  1  0
 16 17  1  1
 18 17  1  0
 19 20  2  0
 19 18  1  0
 21 24  2  0
 21 22  1  0
 23 19  1  0
M  END
$$$$
