TPE.pdb
     RDKit          3D

 24 24  0  0  1  0  0  0  0  0999 V2000
   23.8701  -12.4161  -18.9759 C   0  0  0  0  0  0  0  0  0  0  0  0
   23.1450  -11.4029  -18.1589 C   0  0  1  0  0  0  0  0  0  0  0  0
   22.6301  -10.3436  -18.8872 O   0  0  0  0  0  0  0  0  0  0  0  0
   22.0827  -12.0847  -17.3194 C   0  0  2  0  0  0  0  0  0  0  0  0
   21.1522  -12.7766  -18.1788 N   0  0  0  0  0  0  0  0  0  0  0  0
   21.4273  -11.1493  -16.3794 C   0  0  0  0  0  0  0  0  0  0  0  0
   20.3399  -10.6349  -16.7680 O   0  0  0  0  0  0  0  0  0  0  0  0
   21.9614  -10.8325  -15.1167 N   0  0  0  0  0  0  0  0  0  0  0  0
   23.1534  -11.3889  -14.5334 C   0  0  0  0  0  0  0  0  0  0  0  0
   23.3554  -10.6647  -13.2035 C   0  0  0  0  0  0  0  0  0  0  0  0
   21.9315  -10.3328  -12.8122 C   0  0  0  0  0  0  0  0  0  0  0  0
   21.3941   -9.8723  -14.1789 C   0  0  1  0  0  0  0  0  0  0  0  0
   21.9611   -8.5154  -14.4039 C   0  0  0  0  0  0  0  0  0  0  0  0
   23.0834   -8.3729  -14.9945 O   0  0  0  0  0  0  0  0  0  0  0  0
   21.3108   -7.3400  -13.9919 N   0  0  0  0  0  0  0  0  0  0  0  0
   21.5782   -6.0196  -14.6402 C   0  0  1  0  0  0  0  0  0  0  0  0
   20.3460   -5.6189  -15.3823 C   0  0  0  0  0  0  0  0  0  0  0  0
   20.4136   -4.3692  -16.1473 C   0  0  0  0  0  0  0  0  0  0  0  0
   19.2377   -3.9997  -16.9564 C   0  0  0  0  0  0  0  0  0  0  0  0
   18.3878   -4.8394  -17.3903 O   0  0  0  0  0  0  0  0  0  0  0  0
   22.0223   -5.0877  -13.6437 C   0  0  0  0  0  0  0  0  0  0  0  0
   21.5908   -5.1095  -12.4713 O   0  0  0  0  0  0  0  0  0  0  0  0
   19.0229   -2.6703  -17.2759 O   0  0  0  0  0  0  0  0  0  0  0  0
   22.9814   -4.1138  -13.9555 O   0  0  0  0  0  0  0  0  0  0  0  0
  2  1  1  6
  3  2  1  0
  4  6  1  0
  4  2  1  0
  4  5  1  6
  6  7  2  0
  8 12  1  0
  8  6  1  0
  9  8  1  0
 10  9  1  0
 10 11  1  0
 11 12  1  0
 12 13  1  6
 13 15  1  0
 13 14  2  0
 15 16  1  0
 16 21  1  0
 16 17  1  1
 18 17  1  0
 19 18  1  0
 20 19  2  0
 21 22  2  0
 21 24  1  0
 23 19  1  0
M  END
$$$$
