TPE.pdb
     RDKit          3D

 24 24  0  0  1  0  0  0  0  0999 V2000
   19.5315   -9.5513  -18.2472 C   0  0  0  0  0  0  0  0  0  0  0  0
   18.3798  -10.2238  -17.5829 C   0  0  1  0  0  0  0  0  0  0  0  0
   17.5374  -10.9018  -18.4478 O   0  0  0  0  0  0  0  0  0  0  0  0
   18.8812  -11.1146  -16.4634 C   0  0  2  0  0  0  0  0  0  0  0  0
   17.7984  -11.9292  -15.9668 N   0  0  0  0  0  0  0  0  0  0  0  0
   19.5699  -10.3462  -15.4035 C   0  0  0  0  0  0  0  0  0  0  0  0
   18.8278   -9.7267  -14.5888 O   0  0  0  0  0  0  0  0  0  0  0  0
   20.9708  -10.2913  -15.2842 N   0  0  0  0  0  0  0  0  0  0  0  0
   21.9226  -10.9892  -16.1077 C   0  0  0  0  0  0  0  0  0  0  0  0
   23.3044  -10.5353  -15.6403 C   0  0  0  0  0  0  0  0  0  0  0  0
   23.0531  -10.2328  -14.1788 C   0  0  0  0  0  0  0  0  0  0  0  0
   21.7023   -9.5051  -14.2994 C   0  0  1  0  0  0  0  0  0  0  0  0
   22.0147   -8.1509  -14.8304 C   0  0  0  0  0  0  0  0  0  0  0  0
   22.1437   -7.9622  -16.0860 O   0  0  0  0  0  0  0  0  0  0  0  0
   22.1803   -7.0275  -14.0029 N   0  0  0  0  0  0  0  0  0  0  0  0
   21.9799   -5.6354  -14.5101 C   0  0  1  0  0  0  0  0  0  0  0  0
   20.5447   -5.4941  -14.8970 C   0  0  0  0  0  0  0  0  0  0  0  0
   20.1017   -4.1587  -15.3122 C   0  0  0  0  0  0  0  0  0  0  0  0
   18.7076   -4.0136  -15.7695 C   0  0  0  0  0  0  0  0  0  0  0  0
   17.8850   -4.9800  -15.8433 O   0  0  0  0  0  0  0  0  0  0  0  0
   22.4414   -4.7036  -13.5214 C   0  0  0  0  0  0  0  0  0  0  0  0
   22.4681   -4.9825  -12.3038 O   0  0  0  0  0  0  0  0  0  0  0  0
   18.2419   -2.7657  -16.1455 O   0  0  0  0  0  0  0  0  0  0  0  0
   22.8977   -3.4326  -13.8979 O   0  0  0  0  0  0  0  0  0  0  0  0
  2  1  1  6
  3  2  1  0
  4  6  1  0
  4  2  1  0
  4  5  1  1
  6  7  2  0
  8 12  1  0
  8  6  1  0
  9  8  1  0
 10  9  1  0
 10 11  1  0
 11 12  1  0
 12 13  1  6
 13 15  1  0
 13 14  2  0
 15 16  1  0
 16 21  1  0
 16 17  1  1
 18 17  1  0
 19 18  1  0
 20 19  2  0
 21 22  2  0
 21 24  1  0
 23 19  1  0
M  END
$$$$
