TPE.pdb
     RDKit          3D

 24 24  0  0  1  0  0  0  0  0999 V2000
   19.0737   -9.6265  -18.2450 C   0  0  0  0  0  0  0  0  0  0  0  0
   18.0818  -10.5325  -17.6006 C   0  0  1  0  0  0  0  0  0  0  0  0
   17.3619  -11.3152  -18.4874 O   0  0  0  0  0  0  0  0  0  0  0  0
   18.7641  -11.3647  -16.5328 C   0  0  2  0  0  0  0  0  0  0  0  0
   17.8513  -12.3681  -16.0398 N   0  0  0  0  0  0  0  0  0  0  0  0
   19.3499  -10.5290  -15.4620 C   0  0  0  0  0  0  0  0  0  0  0  0
   18.5310   -9.9458  -14.6956 O   0  0  0  0  0  0  0  0  0  0  0  0
   20.7369  -10.3749  -15.2827 N   0  0  0  0  0  0  0  0  0  0  0  0
   21.7702  -11.0763  -15.9979 C   0  0  0  0  0  0  0  0  0  0  0  0
   23.0963  -10.4978  -15.5072 C   0  0  0  0  0  0  0  0  0  0  0  0
   22.7518  -10.0920  -14.0904 C   0  0  0  0  0  0  0  0  0  0  0  0
   21.3680   -9.4647  -14.3360 C   0  0  1  0  0  0  0  0  0  0  0  0
   21.6260   -8.1419  -14.9662 C   0  0  0  0  0  0  0  0  0  0  0  0
   21.4464   -7.9759  -16.2187 O   0  0  0  0  0  0  0  0  0  0  0  0
   22.0695   -7.0247  -14.2385 N   0  0  0  0  0  0  0  0  0  0  0  0
   21.7403   -5.6275  -14.6563 C   0  0  1  0  0  0  0  0  0  0  0  0
   20.2601   -5.5422  -14.8336 C   0  0  0  0  0  0  0  0  0  0  0  0
   19.7014   -4.2093  -15.0844 C   0  0  0  0  0  0  0  0  0  0  0  0
   18.2415   -4.1034  -15.2611 C   0  0  0  0  0  0  0  0  0  0  0  0
   17.6077   -3.0015  -15.2513 O   0  0  0  0  0  0  0  0  0  0  0  0
   22.2962   -4.7087  -13.7046 C   0  0  0  0  0  0  0  0  0  0  0  0
   22.4242   -4.9975  -12.4957 O   0  0  0  0  0  0  0  0  0  0  0  0
   17.4944   -5.2529  -15.4504 O   0  0  0  0  0  0  0  0  0  0  0  0
   22.7334   -3.4400  -14.1102 O   0  0  0  0  0  0  0  0  0  0  0  0
  2  1  1  6
  3  2  1  0
  4  6  1  0
  4  2  1  0
  4  5  1  1
  6  7  2  0
  8 12  1  0
  8  6  1  0
  9  8  1  0
 10  9  1  0
 10 11  1  0
 11 12  1  0
 12 13  1  6
 13 15  1  0
 13 14  2  0
 15 16  1  0
 16 21  1  0
 16 17  1  1
 18 17  1  0
 19 18  1  0
 20 19  2  0
 21 22  2  0
 21 24  1  0
 23 19  1  0
M  END
$$$$
