TPE.pdb
     RDKit          3D

 24 24  0  0  1  0  0  0  0  0999 V2000
   19.2539  -10.5302  -18.2695 C   0  0  0  0  0  0  0  0  0  0  0  0
   18.2798  -11.3749  -17.5227 C   0  0  1  0  0  0  0  0  0  0  0  0
   17.5843  -12.2770  -18.3100 O   0  0  0  0  0  0  0  0  0  0  0  0
   18.9751  -12.0541  -16.3593 C   0  0  2  0  0  0  0  0  0  0  0  0
   18.0877  -13.0206  -15.7583 N   0  0  0  0  0  0  0  0  0  0  0  0
   19.5236  -11.0804  -15.3901 C   0  0  0  0  0  0  0  0  0  0  0  0
   18.6806  -10.4636  -14.6781 O   0  0  0  0  0  0  0  0  0  0  0  0
   20.9017  -10.8354  -15.2468 N   0  0  0  0  0  0  0  0  0  0  0  0
   21.9613  -11.4881  -15.9694 C   0  0  0  0  0  0  0  0  0  0  0  0
   23.2586  -10.8158  -15.5234 C   0  0  0  0  0  0  0  0  0  0  0  0
   22.9202  -10.3975  -14.1088 C   0  0  0  0  0  0  0  0  0  0  0  0
   21.4945   -9.8643  -14.3365 C   0  0  1  0  0  0  0  0  0  0  0  0
   21.6546   -8.5440  -15.0032 C   0  0  0  0  0  0  0  0  0  0  0  0
   21.9472   -8.4766  -16.2435 O   0  0  0  0  0  0  0  0  0  0  0  0
   21.4954   -7.3237  -14.3250 N   0  0  0  0  0  0  0  0  0  0  0  0
   21.4790   -6.0144  -15.0465 C   0  0  1  0  0  0  0  0  0  0  0  0
   20.0656   -5.5346  -15.0869 C   0  0  0  0  0  0  0  0  0  0  0  0
   19.8244   -4.2475  -15.7481 C   0  0  0  0  0  0  0  0  0  0  0  0
   18.4264   -3.7970  -15.8752 C   0  0  0  0  0  0  0  0  0  0  0  0
   17.4279   -4.4726  -15.4723 O   0  0  0  0  0  0  0  0  0  0  0  0
   22.4107   -5.1207  -14.4204 C   0  0  0  0  0  0  0  0  0  0  0  0
   22.6956   -5.1981  -13.2064 O   0  0  0  0  0  0  0  0  0  0  0  0
   18.1574   -2.5729  -16.4625 O   0  0  0  0  0  0  0  0  0  0  0  0
   23.0526   -4.1226  -15.1669 O   0  0  0  0  0  0  0  0  0  0  0  0
  2  1  1  6
  3  2  1  0
  4  6  1  0
  4  2  1  0
  4  5  1  1
  6  7  2  0
  8 12  1  0
  8  6  1  0
  9  8  1  0
 10  9  1  0
 10 11  1  0
 11 12  1  0
 12 13  1  6
 13 15  1  0
 13 14  2  0
 15 16  1  0
 16 21  1  0
 16 17  1  1
 18 17  1  0
 19 18  1  0
 20 19  2  0
 21 22  2  0
 21 24  1  0
 23 19  1  0
M  END
$$$$
