TPE.pdb
     RDKit          3D

 24 24  0  0  1  0  0  0  0  0999 V2000
   20.9995  -11.2188  -18.9189 C   0  0  0  0  0  0  0  0  0  0  0  0
   19.8179  -11.9884  -18.4378 C   0  0  1  0  0  0  0  0  0  0  0  0
   19.3271  -12.9101  -19.3471 O   0  0  0  0  0  0  0  0  0  0  0  0
   20.1299  -12.6237  -17.0971 C   0  0  2  0  0  0  0  0  0  0  0  0
   19.0691  -13.5302  -16.7288 N   0  0  0  0  0  0  0  0  0  0  0  0
   20.4266  -11.6154  -16.0562 C   0  0  0  0  0  0  0  0  0  0  0  0
   19.4420  -10.9515  -15.6229 O   0  0  0  0  0  0  0  0  0  0  0  0
   21.7224  -11.3879  -15.5571 N   0  0  0  0  0  0  0  0  0  0  0  0
   22.9223  -12.0711  -15.9627 C   0  0  0  0  0  0  0  0  0  0  0  0
   24.0685  -11.4090  -15.2001 C   0  0  0  0  0  0  0  0  0  0  0  0
   23.3763  -10.9564  -13.9325 C   0  0  0  0  0  0  0  0  0  0  0  0
   22.0724  -10.4070  -14.5381 C   0  0  1  0  0  0  0  0  0  0  0  0
   22.4292   -9.1033  -15.1598 C   0  0  0  0  0  0  0  0  0  0  0  0
   22.6537   -9.0242  -16.4136 O   0  0  0  0  0  0  0  0  0  0  0  0
   22.5358   -7.9116  -14.4231 N   0  0  0  0  0  0  0  0  0  0  0  0
   22.1324   -6.5901  -14.9942 C   0  0  1  0  0  0  0  0  0  0  0  0
   20.7212   -6.7103  -15.4671 C   0  0  0  0  0  0  0  0  0  0  0  0
   20.0669   -5.4749  -15.9114 C   0  0  0  0  0  0  0  0  0  0  0  0
   18.6865   -5.5781  -16.4189 C   0  0  0  0  0  0  0  0  0  0  0  0
   18.3861   -5.5672  -17.6540 O   0  0  0  0  0  0  0  0  0  0  0  0
   22.3651   -5.5649  -14.0177 C   0  0  0  0  0  0  0  0  0  0  0  0
   22.2093   -5.7626  -12.7938 O   0  0  0  0  0  0  0  0  0  0  0  0
   17.6392   -5.6948  -15.5216 O   0  0  0  0  0  0  0  0  0  0  0  0
   22.7949   -4.2899  -14.4114 O   0  0  0  0  0  0  0  0  0  0  0  0
  2  1  1  6
  3  2  1  0
  4  6  1  0
  4  2  1  0
  4  5  1  1
  6  7  2  0
  8 12  1  0
  8  6  1  0
  9  8  1  0
 10  9  1  0
 10 11  1  0
 11 12  1  0
 12 13  1  6
 13 15  1  0
 13 14  2  0
 15 16  1  0
 16 21  1  0
 16 17  1  1
 18 17  1  0
 19 18  1  0
 20 19  2  0
 21 22  2  0
 21 24  1  0
 23 19  1  0
M  END
$$$$
