TPE.pdb
     RDKit          3D

 24 24  0  0  1  0  0  0  0  0999 V2000
   19.6477   -9.7379  -18.5403 C   0  0  0  0  0  0  0  0  0  0  0  0
   18.6344  -10.6330  -17.9142 C   0  0  1  0  0  0  0  0  0  0  0  0
   17.9160  -11.4013  -18.8148 O   0  0  0  0  0  0  0  0  0  0  0  0
   19.2901  -11.4799  -16.8413 C   0  0  2  0  0  0  0  0  0  0  0  0
   18.3676  -12.4934  -16.3889 N   0  0  0  0  0  0  0  0  0  0  0  0
   19.8439  -10.6593  -15.7421 C   0  0  0  0  0  0  0  0  0  0  0  0
   19.0029  -10.0723  -15.0030 O   0  0  0  0  0  0  0  0  0  0  0  0
   21.2247  -10.5229  -15.5086 N   0  0  0  0  0  0  0  0  0  0  0  0
   22.2781  -11.2046  -16.2135 C   0  0  0  0  0  0  0  0  0  0  0  0
   23.5897  -10.6556  -15.6548 C   0  0  0  0  0  0  0  0  0  0  0  0
   23.1980  -10.3013  -14.2365 C   0  0  0  0  0  0  0  0  0  0  0  0
   21.8278   -9.6543  -14.5061 C   0  0  1  0  0  0  0  0  0  0  0  0
   22.1164   -8.3106  -15.0758 C   0  0  0  0  0  0  0  0  0  0  0  0
   22.1449   -8.1361  -16.3396 O   0  0  0  0  0  0  0  0  0  0  0  0
   22.3665   -7.1821  -14.2769 N   0  0  0  0  0  0  0  0  0  0  0  0
   22.0392   -5.7982  -14.7387 C   0  0  1  0  0  0  0  0  0  0  0  0
   20.6003   -5.7796  -15.1370 C   0  0  0  0  0  0  0  0  0  0  0  0
   20.0285   -4.4740  -15.4834 C   0  0  0  0  0  0  0  0  0  0  0  0
   18.6413   -4.4470  -15.9821 C   0  0  0  0  0  0  0  0  0  0  0  0
   17.8987   -5.4759  -16.0582 O   0  0  0  0  0  0  0  0  0  0  0  0
   22.4023   -4.8622  -13.7136 C   0  0  0  0  0  0  0  0  0  0  0  0
   22.3152   -5.1379  -12.4981 O   0  0  0  0  0  0  0  0  0  0  0  0
   18.0913   -3.2467  -16.3973 O   0  0  0  0  0  0  0  0  0  0  0  0
   22.8875   -3.5904  -14.0491 O   0  0  0  0  0  0  0  0  0  0  0  0
  2  1  1  6
  3  2  1  0
  4  6  1  0
  4  2  1  0
  4  5  1  1
  6  7  2  0
  8 12  1  0
  8  6  1  0
  9  8  1  0
 10  9  1  0
 10 11  1  0
 11 12  1  0
 12 13  1  6
 13 15  1  0
 13 14  2  0
 15 16  1  0
 16 21  1  0
 16 17  1  1
 18 17  1  0
 19 18  1  0
 20 19  2  0
 21 22  2  0
 21 24  1  0
 23 19  1  0
M  END
$$$$
