TPE.pdb
     RDKit          3D

 24 24  0  0  1  0  0  0  0  0999 V2000
   13.9829  -12.3217    6.3965 C   0  0  0  0  0  0  0  0  0  0  0  0
   12.8118  -12.4266    5.4814 C   0  0  1  0  0  0  0  0  0  0  0  0
   11.9126  -11.3783    5.5813 O   0  0  0  0  0  0  0  0  0  0  0  0
   13.2895  -12.6316    4.0573 C   0  0  2  0  0  0  0  0  0  0  0  0
   12.1644  -12.5852    3.1545 N   0  0  0  0  0  0  0  0  0  0  0  0
   14.1065  -13.8562    3.9126 C   0  0  0  0  0  0  0  0  0  0  0  0
   13.4985  -14.8916    3.5171 O   0  0  0  0  0  0  0  0  0  0  0  0
   15.4852  -13.8949    4.1912 N   0  0  0  0  0  0  0  0  0  0  0  0
   16.2849  -12.8031    4.6806 C   0  0  0  0  0  0  0  0  0  0  0  0
   17.6865  -13.3683    4.9045 C   0  0  0  0  0  0  0  0  0  0  0  0
   17.7502  -14.4614    3.8597 C   0  0  0  0  0  0  0  0  0  0  0  0
   16.3438  -15.0616    4.0350 C   0  0  1  0  0  0  0  0  0  0  0  0
   16.3927  -15.8542    5.2931 C   0  0  0  0  0  0  0  0  0  0  0  0
   16.2559  -15.2807    6.4249 O   0  0  0  0  0  0  0  0  0  0  0  0
   16.5857  -17.2459    5.3099 N   0  0  0  0  0  0  0  0  0  0  0  0
   16.4353  -18.0500    6.5613 C   0  0  1  0  0  0  0  0  0  0  0  0
   16.1226  -19.4551    6.1647 C   0  0  0  0  0  0  0  0  0  0  0  0
   17.2498  -20.3924    6.1127 C   0  0  0  0  0  0  0  0  0  0  0  0
   16.9852  -21.7506    5.6039 C   0  0  0  0  0  0  0  0  0  0  0  0
   15.8529  -22.1341    5.1718 O   0  0  0  0  0  0  0  0  0  0  0  0
   17.6111  -17.8893    7.3677 C   0  0  0  0  0  0  0  0  0  0  0  0
   18.6933  -17.4819    6.8945 O   0  0  0  0  0  0  0  0  0  0  0  0
   18.0099  -22.6808    5.5840 O   0  0  0  0  0  0  0  0  0  0  0  0
   17.5793  -18.1768    8.7395 O   0  0  0  0  0  0  0  0  0  0  0  0
  2  1  1  1
  3  2  1  0
  4  6  1  0
  4  2  1  0
  4  5  1  6
  6  7  2  0
  8 12  1  0
  8  6  1  0
  9  8  1  0
 10  9  1  0
 10 11  1  0
 11 12  1  0
 12 13  1  1
 13 15  1  0
 13 14  2  0
 15 16  1  0
 16 21  1  0
 16 17  1  6
 18 17  1  0
 19 18  1  0
 20 19  2  0
 21 22  2  0
 21 24  1  0
 23 19  1  0
M  END
$$$$
