TPE.pdb
     RDKit          3D

 24 24  0  0  1  0  0  0  0  0999 V2000
   18.8664  -12.6151  -18.4210 C   0  0  0  0  0  0  0  0  0  0  0  0
   19.4355  -11.5360  -17.5657 C   0  0  1  0  0  0  0  0  0  0  0  0
   18.6735  -10.3806  -17.5207 O   0  0  0  0  0  0  0  0  0  0  0  0
   19.7270  -12.0785  -16.1804 C   0  0  2  0  0  0  0  0  0  0  0  0
   18.5151  -12.6019  -15.5970 N   0  0  0  0  0  0  0  0  0  0  0  0
   20.4081  -11.0843  -15.3226 C   0  0  0  0  0  0  0  0  0  0  0  0
   19.6785  -10.4621  -14.4987 O   0  0  0  0  0  0  0  0  0  0  0  0
   21.7892  -10.8261  -15.3972 N   0  0  0  0  0  0  0  0  0  0  0  0
   22.7415  -11.5227  -16.2212 C   0  0  0  0  0  0  0  0  0  0  0  0
   24.0810  -10.8181  -16.0135 C   0  0  0  0  0  0  0  0  0  0  0  0
   23.9453  -10.3068  -14.5954 C   0  0  0  0  0  0  0  0  0  0  0  0
   22.4950   -9.7944  -14.6485 C   0  0  1  0  0  0  0  0  0  0  0  0
   22.5404   -8.5213  -15.4170 C   0  0  0  0  0  0  0  0  0  0  0  0
   22.4786   -8.5323  -16.6916 O   0  0  0  0  0  0  0  0  0  0  0  0
   22.6492   -7.2630  -14.8011 N   0  0  0  0  0  0  0  0  0  0  0  0
   22.3975   -5.9926  -15.5481 C   0  0  1  0  0  0  0  0  0  0  0  0
   21.4913   -5.1469  -14.7155 C   0  0  0  0  0  0  0  0  0  0  0  0
   21.1909   -3.8039  -15.2234 C   0  0  0  0  0  0  0  0  0  0  0  0
   20.2868   -2.9579  -14.4231 C   0  0  0  0  0  0  0  0  0  0  0  0
   19.7557   -3.3302  -13.3298 O   0  0  0  0  0  0  0  0  0  0  0  0
   23.6545   -5.3904  -15.8888 C   0  0  0  0  0  0  0  0  0  0  0  0
   24.6785   -5.5443  -15.1896 O   0  0  0  0  0  0  0  0  0  0  0  0
   19.9822   -1.6818  -14.8637 O   0  0  0  0  0  0  0  0  0  0  0  0
   23.7794   -4.6069  -17.0446 O   0  0  0  0  0  0  0  0  0  0  0  0
  2  1  1  6
  3  2  1  0
  4  6  1  0
  4  2  1  0
  4  5  1  1
  6  7  2  0
  8 12  1  0
  8  6  1  0
  9  8  1  0
 10  9  1  0
 10 11  1  0
 11 12  1  0
 12 13  1  6
 13 15  1  0
 13 14  2  0
 15 16  1  0
 16 21  1  0
 16 17  1  1
 18 17  1  0
 19 18  1  0
 20 19  2  0
 21 22  2  0
 21 24  1  0
 23 19  1  0
M  END
$$$$
