TPE.pdb
     RDKit          3D

 24 24  0  0  1  0  0  0  0  0999 V2000
   24.9184  -36.6777   -6.2609 C   0  0  0  0  0  0  0  0  0  0  0  0
   25.9737  -36.2085   -7.2022 C   0  0  1  0  0  0  0  0  0  0  0  0
   25.8283  -36.6696   -8.4997 O   0  0  0  0  0  0  0  0  0  0  0  0
   26.0781  -34.6972   -7.1447 C   0  0  2  0  0  0  0  0  0  0  0  0
   26.9262  -34.2263   -8.2134 N   0  0  0  0  0  0  0  0  0  0  0  0
   26.4964  -34.2161   -5.8098 C   0  0  0  0  0  0  0  0  0  0  0  0
   27.7405  -34.1952   -5.5866 O   0  0  0  0  0  0  0  0  0  0  0  0
   25.5824  -33.7980   -4.8251 N   0  0  0  0  0  0  0  0  0  0  0  0
   24.1492  -33.7690   -4.9522 C   0  0  0  0  0  0  0  0  0  0  0  0
   23.6096  -33.3263   -3.5933 C   0  0  0  0  0  0  0  0  0  0  0  0
   24.7359  -32.4541   -3.0820 C   0  0  0  0  0  0  0  0  0  0  0  0
   25.9369  -33.3241   -3.4936 C   0  0  1  0  0  0  0  0  0  0  0  0
   25.9749  -34.4517   -2.5240 C   0  0  0  0  0  0  0  0  0  0  0  0
   25.2566  -35.4899   -2.7104 O   0  0  0  0  0  0  0  0  0  0  0  0
   26.7845  -34.4422   -1.3756 N   0  0  0  0  0  0  0  0  0  0  0  0
   26.8284  -35.5990   -0.4295 C   0  0  1  0  0  0  0  0  0  0  0  0
   28.2338  -35.7371    0.0556 C   0  0  0  0  0  0  0  0  0  0  0  0
   28.4845  -36.7709    1.0657 C   0  0  0  0  0  0  0  0  0  0  0  0
   29.8881  -37.0626    1.4099 C   0  0  0  0  0  0  0  0  0  0  0  0
   30.8829  -36.5991    0.7686 O   0  0  0  0  0  0  0  0  0  0  0  0
   25.8436  -35.4056    0.5960 C   0  0  0  0  0  0  0  0  0  0  0  0
   25.4043  -34.2744    0.8933 O   0  0  0  0  0  0  0  0  0  0  0  0
   30.1670  -37.8847    2.4879 O   0  0  0  0  0  0  0  0  0  0  0  0
   25.3239  -36.5005    1.3006 O   0  0  0  0  0  0  0  0  0  0  0  0
  2  1  1  1
  3  2  1  0
  4  6  1  0
  4  2  1  0
  4  5  1  6
  6  7  2  0
  8 12  1  0
  8  6  1  0
  9  8  1  0
 10  9  1  0
 10 11  1  0
 11 12  1  0
 12 13  1  1
 13 15  1  0
 13 14  2  0
 15 16  1  0
 16 21  1  0
 16 17  1  1
 18 17  1  0
 19 18  1  0
 20 19  2  0
 21 22  2  0
 21 24  1  0
 23 19  1  0
M  END
$$$$
