TPE.pdb
     RDKit          3D

 24 24  0  0  1  0  0  0  0  0999 V2000
   17.1897   -8.9395  -16.6401 C   0  0  0  0  0  0  0  0  0  0  0  0
   16.8528  -10.3380  -16.2520 C   0  0  1  0  0  0  0  0  0  0  0  0
   15.8637  -10.9231  -17.0246 O   0  0  0  0  0  0  0  0  0  0  0  0
   18.1141  -11.1781  -16.2124 C   0  0  2  0  0  0  0  0  0  0  0  0
   17.7692  -12.5662  -16.0194 N   0  0  0  0  0  0  0  0  0  0  0  0
   19.0906  -10.6741  -15.2221 C   0  0  0  0  0  0  0  0  0  0  0  0
   18.8056  -10.8681  -14.0058 O   0  0  0  0  0  0  0  0  0  0  0  0
   20.2786  -10.0134  -15.5853 N   0  0  0  0  0  0  0  0  0  0  0  0
   20.7694   -9.8207  -16.9243 C   0  0  0  0  0  0  0  0  0  0  0  0
   22.0369   -8.9775  -16.7965 C   0  0  0  0  0  0  0  0  0  0  0  0
   22.5483   -9.3916  -15.4335 C   0  0  0  0  0  0  0  0  0  0  0  0
   21.2197   -9.4011  -14.6567 C   0  0  1  0  0  0  0  0  0  0  0  0
   20.8755   -7.9731  -14.4201 C   0  0  0  0  0  0  0  0  0  0  0  0
   20.3407   -7.2747  -15.3447 O   0  0  0  0  0  0  0  0  0  0  0  0
   21.1110   -7.3253  -13.1957 N   0  0  0  0  0  0  0  0  0  0  0  0
   20.4591   -6.0248  -12.8510 C   0  0  1  0  0  0  0  0  0  0  0  0
   19.6922   -6.2215  -11.5851 C   0  0  0  0  0  0  0  0  0  0  0  0
   19.0647   -5.0307  -11.0020 C   0  0  0  0  0  0  0  0  0  0  0  0
   18.2956   -5.2050   -9.7563 C   0  0  0  0  0  0  0  0  0  0  0  0
   18.1926   -6.3119   -9.1398 O   0  0  0  0  0  0  0  0  0  0  0  0
   21.4575   -4.9952  -12.8076 C   0  0  0  0  0  0  0  0  0  0  0  0
   22.6503   -5.2350  -12.5235 O   0  0  0  0  0  0  0  0  0  0  0  0
   17.6390   -4.1186   -9.2050 O   0  0  0  0  0  0  0  0  0  0  0  0
   21.1233   -3.6655  -13.1007 O   0  0  0  0  0  0  0  0  0  0  0  0
  2  1  1  6
  3  2  1  0
  4  6  1  0
  4  2  1  0
  4  5  1  1
  6  7  2  0
  8 12  1  0
  8  6  1  0
  9  8  1  0
 10  9  1  0
 10 11  1  0
 11 12  1  0
 12 13  1  6
 13 15  1  0
 13 14  2  0
 15 16  1  0
 16 21  1  0
 16 17  1  1
 18 17  1  0
 19 18  1  0
 20 19  2  0
 21 22  2  0
 21 24  1  0
 23 19  1  0
M  END
$$$$
