TPE.pdb
     RDKit          3D

 24 24  0  0  1  0  0  0  0  0999 V2000
   16.6537  -12.8373  -15.4778 C   0  0  0  0  0  0  0  0  0  0  0  0
   17.2576  -11.5325  -15.0869 C   0  0  1  0  0  0  0  0  0  0  0  0
   18.0940  -10.9806  -16.0426 O   0  0  0  0  0  0  0  0  0  0  0  0
   16.1673  -10.5689  -14.6615 C   0  0  2  0  0  0  0  0  0  0  0  0
   15.1888  -10.4442  -15.7150 N   0  0  0  0  0  0  0  0  0  0  0  0
   16.7136   -9.2695  -14.2127 C   0  0  0  0  0  0  0  0  0  0  0  0
   16.8381   -8.3778  -15.1001 O   0  0  0  0  0  0  0  0  0  0  0  0
   17.0811   -9.0124  -12.8790 N   0  0  0  0  0  0  0  0  0  0  0  0
   16.9876   -9.9345  -11.7781 C   0  0  0  0  0  0  0  0  0  0  0  0
   17.5868   -9.2176  -10.5694 C   0  0  0  0  0  0  0  0  0  0  0  0
   17.2799   -7.7695  -10.8848 C   0  0  0  0  0  0  0  0  0  0  0  0
   17.6300   -7.7569  -12.3835 C   0  0  1  0  0  0  0  0  0  0  0  0
   19.1160   -7.7649  -12.4551 C   0  0  0  0  0  0  0  0  0  0  0  0
   19.7522   -8.8648  -12.5738 O   0  0  0  0  0  0  0  0  0  0  0  0
   19.8878   -6.5920  -12.3997 N   0  0  0  0  0  0  0  0  0  0  0  0
   21.0516   -6.3675  -13.3109 C   0  0  1  0  0  0  0  0  0  0  0  0
   20.5830   -6.5905  -14.7110 C   0  0  0  0  0  0  0  0  0  0  0  0
   21.5445   -6.3057  -15.7817 C   0  0  0  0  0  0  0  0  0  0  0  0
   21.1199   -6.5706  -17.1686 C   0  0  0  0  0  0  0  0  0  0  0  0
   20.6828   -5.6736  -17.9562 O   0  0  0  0  0  0  0  0  0  0  0  0
   21.6087   -5.0709  -13.0516 C   0  0  0  0  0  0  0  0  0  0  0  0
   20.8938   -4.0707  -12.8290 O   0  0  0  0  0  0  0  0  0  0  0  0
   21.1908   -7.8598  -17.6668 O   0  0  0  0  0  0  0  0  0  0  0  0
   22.9979   -4.8842  -13.0262 O   0  0  0  0  0  0  0  0  0  0  0  0
  2  1  1  6
  3  2  1  0
  4  6  1  0
  4  2  1  0
  4  5  1  6
  6  7  2  0
  8 12  1  0
  8  6  1  0
  9  8  1  0
 10  9  1  0
 10 11  1  0
 11 12  1  0
 12 13  1  1
 13 15  1  0
 13 14  2  0
 15 16  1  0
 16 21  1  0
 16 17  1  6
 18 17  1  0
 19 18  1  0
 20 19  2  0
 21 22  2  0
 21 24  1  0
 23 19  1  0
M  END
$$$$
