TPE.pdb
     RDKit          3D

 24 24  0  0  1  0  0  0  0  0999 V2000
   16.6452  -12.9329  -14.3829 C   0  0  0  0  0  0  0  0  0  0  0  0
   17.2298  -11.5805  -14.1606 C   0  0  1  0  0  0  0  0  0  0  0  0
   18.1711  -11.2028  -15.1032 O   0  0  0  0  0  0  0  0  0  0  0  0
   16.1196  -10.5571  -14.0246 C   0  0  2  0  0  0  0  0  0  0  0  0
   15.2639  -10.6092  -15.1856 N   0  0  0  0  0  0  0  0  0  0  0  0
   16.6403   -9.2019  -13.7410 C   0  0  0  0  0  0  0  0  0  0  0  0
   16.8237   -8.4517  -14.7418 O   0  0  0  0  0  0  0  0  0  0  0  0
   16.9231   -8.7465  -12.4400 N   0  0  0  0  0  0  0  0  0  0  0  0
   16.7396   -9.4882  -11.2205 C   0  0  0  0  0  0  0  0  0  0  0  0
   17.2703   -8.5994  -10.0970 C   0  0  0  0  0  0  0  0  0  0  0  0
   17.0120   -7.2143  -10.6496 C   0  0  0  0  0  0  0  0  0  0  0  0
   17.4611   -7.4344  -12.1051 C   0  0  1  0  0  0  0  0  0  0  0  0
   18.9481   -7.4654  -12.0728 C   0  0  0  0  0  0  0  0  0  0  0  0
   19.5695   -8.5719  -11.9379 O   0  0  0  0  0  0  0  0  0  0  0  0
   19.7370   -6.3083  -12.1878 N   0  0  0  0  0  0  0  0  0  0  0  0
   21.0277   -6.3031  -12.9422 C   0  0  1  0  0  0  0  0  0  0  0  0
   20.7665   -6.8786  -14.2951 C   0  0  0  0  0  0  0  0  0  0  0  0
   21.8662   -6.8128  -15.2636 C   0  0  0  0  0  0  0  0  0  0  0  0
   21.6016   -7.2971  -16.6307 C   0  0  0  0  0  0  0  0  0  0  0  0
   20.8404   -8.2800  -16.8961 O   0  0  0  0  0  0  0  0  0  0  0  0
   21.5702   -4.9748  -12.9370 C   0  0  0  0  0  0  0  0  0  0  0  0
   20.8473   -3.9593  -13.0223 O   0  0  0  0  0  0  0  0  0  0  0  0
   22.2030   -6.6641  -17.7046 O   0  0  0  0  0  0  0  0  0  0  0  0
   22.9522   -4.7697  -12.8206 O   0  0  0  0  0  0  0  0  0  0  0  0
  2  1  1  6
  3  2  1  0
  4  6  1  0
  4  2  1  0
  4  5  1  6
  6  7  2  0
  8 12  1  0
  8  6  1  0
  9  8  1  0
 10  9  1  0
 10 11  1  0
 11 12  1  0
 12 13  1  1
 13 15  1  0
 13 14  2  0
 15 16  1  0
 16 21  1  0
 16 17  1  6
 18 17  1  0
 19 18  1  0
 20 19  2  0
 21 22  2  0
 21 24  1  0
 23 19  1  0
M  END
$$$$
