TPE.pdb
     RDKit          3D

 24 24  0  0  1  0  0  0  0  0999 V2000
   13.2338   -7.0522   -9.9650 C   0  0  0  0  0  0  0  0  0  0  0  0
   14.6486   -6.8252  -10.3733 C   0  0  1  0  0  0  0  0  0  0  0  0
   14.9941   -5.4924  -10.5207 O   0  0  0  0  0  0  0  0  0  0  0  0
   15.5802   -7.5520   -9.4234 C   0  0  2  0  0  0  0  0  0  0  0  0
   15.4051   -7.0428   -8.0844 N   0  0  0  0  0  0  0  0  0  0  0  0
   16.9856   -7.5182   -9.8838 C   0  0  0  0  0  0  0  0  0  0  0  0
   17.7374   -6.6687   -9.3258 O   0  0  0  0  0  0  0  0  0  0  0  0
   17.4850   -8.3728  -10.8838 N   0  0  0  0  0  0  0  0  0  0  0  0
   16.7271   -9.3407  -11.6319 C   0  0  0  0  0  0  0  0  0  0  0  0
   17.6939   -9.9463  -12.6480 C   0  0  0  0  0  0  0  0  0  0  0  0
   19.0167   -9.8353  -11.9211 C   0  0  0  0  0  0  0  0  0  0  0  0
   18.8682   -8.4180  -11.3397 C   0  0  1  0  0  0  0  0  0  0  0  0
   19.0798   -7.4855  -12.4795 C   0  0  0  0  0  0  0  0  0  0  0  0
   18.1189   -7.2006  -13.2694 O   0  0  0  0  0  0  0  0  0  0  0  0
   20.3180   -6.8771  -12.7463 N   0  0  0  0  0  0  0  0  0  0  0  0
   20.4179   -5.5687  -13.4627 C   0  0  1  0  0  0  0  0  0  0  0  0
   19.6106   -4.5699  -12.7010 C   0  0  0  0  0  0  0  0  0  0  0  0
   19.6529   -3.1840  -13.1800 C   0  0  0  0  0  0  0  0  0  0  0  0
   18.7024   -2.7985  -14.2390 C   0  0  0  0  0  0  0  0  0  0  0  0
   17.4725   -3.1199  -14.2343 O   0  0  0  0  0  0  0  0  0  0  0  0
   21.8019   -5.2320  -13.6363 C   0  0  0  0  0  0  0  0  0  0  0  0
   22.6565   -5.4481  -12.7508 O   0  0  0  0  0  0  0  0  0  0  0  0
   19.1475   -2.0439  -15.3103 O   0  0  0  0  0  0  0  0  0  0  0  0
   22.2498   -4.6517  -14.8313 O   0  0  0  0  0  0  0  0  0  0  0  0
  2  1  1  1
  3  2  1  0
  4  6  1  0
  4  2  1  0
  4  5  1  1
  6  7  2  0
  8 12  1  0
  8  6  1  0
  9  8  1  0
 10  9  1  0
 10 11  1  0
 11 12  1  0
 12 13  1  6
 13 15  1  0
 13 14  2  0
 15 16  1  0
 16 21  1  0
 16 17  1  1
 18 17  1  0
 19 18  1  0
 20 19  2  0
 21 22  2  0
 21 24  1  0
 23 19  1  0
M  END
$$$$
