SGY.pdb
     RDKit          3D

 23 23  0  0  1  0  0  0  0  0999 V2000
   26.3053  -18.0511  -19.5637 O   0  0  0  0  0  0  0  0  0  0  0  0
   25.0563  -18.2970  -18.9930 C   0  0  0  0  0  0  0  0  0  0  0  0
   25.2333  -18.4060  -17.4915 C   0  0  2  0  0  0  0  0  0  0  0  0
   26.2327  -17.5112  -16.9911 N   0  0  0  0  0  0  0  0  0  0  0  0
   25.6775  -19.8123  -17.2155 C   0  0  0  0  0  0  0  0  0  0  0  0
   24.9002  -20.7846  -17.3668 O   0  0  0  0  0  0  0  0  0  0  0  0
   27.0002  -20.0819  -16.7723 N   0  0  0  0  0  0  0  0  0  0  0  0
   27.4018  -21.4256  -16.4616 C   0  0  0  0  0  0  0  0  0  0  0  0
   27.2261  -21.6266  -14.9855 C   0  0  0  0  0  0  0  0  0  0  0  0
   28.0860  -22.2128  -14.2717 O   0  0  0  0  0  0  0  0  0  0  0  0
   25.5040  -20.6092   -6.5699 O   0  0  0  0  0  0  0  0  0  0  0  0
   25.7705  -20.5341   -7.9364 C   0  0  0  0  0  0  0  0  0  0  0  0
   24.7886  -20.3131   -8.8794 C   0  0  0  0  0  0  0  0  0  0  0  0
   25.1146  -20.2491  -10.2151 C   0  0  0  0  0  0  0  0  0  0  0  0
   26.4252  -20.4017  -10.6635 C   0  0  0  0  0  0  0  0  0  0  0  0
   26.7368  -20.3437  -12.1019 C   0  0  0  0  0  0  0  0  0  0  0  0
   25.8804  -21.2996  -12.8647 C   0  0  2  0  0  0  0  0  0  0  0  0
   26.0666  -21.1608  -14.3064 N   0  0  0  0  0  0  0  0  0  0  0  0
   24.4450  -21.1988  -12.5579 C   0  0  0  0  0  0  0  0  0  0  0  0
   23.7561  -21.9536  -11.6266 O   0  0  0  0  0  0  0  0  0  0  0  0
   27.3913  -20.6219   -9.7040 C   0  0  0  0  0  0  0  0  0  0  0  0
   27.0615  -20.6840   -8.3842 C   0  0  0  0  0  0  0  0  0  0  0  0
   23.7310  -20.3517  -13.1855 O   0  0  0  0  0  0  0  0  0  0  0  0
  2  3  1  0
  2  1  1  0
  3  4  1  6
  5  7  1  0
  5  3  1  0
  6  5  2  0
  8  7  1  0
  9 18  1  0
  9  8  1  0
 10  9  2  0
 12 11  1  0
 12 22  2  0
 13 12  1  0
 14 13  2  0
 14 15  1  0
 15 21  2  0
 16 15  1  0
 17 16  1  1
 17 18  1  0
 19 20  1  0
 19 17  1  0
 21 22  1  0
 23 19  2  0
M  END
$$$$
