SGY.pdb
     RDKit          3D

 23 23  0  0  1  0  0  0  0  0999 V2000
   25.3221  -20.5505  -18.5285 O   0  0  0  0  0  0  0  0  0  0  0  0
   25.0773  -19.6357  -17.5040 C   0  0  0  0  0  0  0  0  0  0  0  0
   26.3888  -18.9682  -17.1400 C   0  0  2  0  0  0  0  0  0  0  0  0
   27.1018  -18.4980  -18.2891 N   0  0  0  0  0  0  0  0  0  0  0  0
   27.2244  -20.0124  -16.4600 C   0  0  0  0  0  0  0  0  0  0  0  0
   28.3614  -20.3210  -16.8896 O   0  0  0  0  0  0  0  0  0  0  0  0
   26.7464  -20.6843  -15.3030 N   0  0  0  0  0  0  0  0  0  0  0  0
   27.5527  -20.7483  -14.1159 C   0  0  0  0  0  0  0  0  0  0  0  0
   26.7361  -20.2115  -12.9779 C   0  0  0  0  0  0  0  0  0  0  0  0
   26.3892  -19.0005  -12.9013 O   0  0  0  0  0  0  0  0  0  0  0  0
   21.5422  -19.9383  -15.7360 O   0  0  0  0  0  0  0  0  0  0  0  0
   22.1611  -20.2078  -14.5160 C   0  0  0  0  0  0  0  0  0  0  0  0
   22.1737  -19.3103  -13.4688 C   0  0  0  0  0  0  0  0  0  0  0  0
   22.8019  -19.6347  -12.2878 C   0  0  0  0  0  0  0  0  0  0  0  0
   23.4397  -20.8599  -12.1028 C   0  0  0  0  0  0  0  0  0  0  0  0
   24.1165  -21.1681  -10.8314 C   0  0  0  0  0  0  0  0  0  0  0  0
   25.4845  -20.5708  -10.8053 C   0  0  2  0  0  0  0  0  0  0  0  0
   26.3055  -21.0507  -11.9135 N   0  0  0  0  0  0  0  0  0  0  0  0
   26.2121  -20.7871   -9.5449 C   0  0  0  0  0  0  0  0  0  0  0  0
   27.4207  -21.4437   -9.4043 O   0  0  0  0  0  0  0  0  0  0  0  0
   23.4153  -21.7423  -13.1626 C   0  0  0  0  0  0  0  0  0  0  0  0
   22.7918  -21.4148  -14.3282 C   0  0  0  0  0  0  0  0  0  0  0  0
   25.7190  -20.3468   -8.4567 O   0  0  0  0  0  0  0  0  0  0  0  0
  2  3  1  0
  2  1  1  0
  3  4  1  6
  5  7  1  0
  5  3  1  0
  6  5  2  0
  8  7  1  0
  9 18  1  0
  9  8  1  0
 10  9  2  0
 12 11  1  0
 12 22  2  0
 13 12  1  0
 14 13  2  0
 14 15  1  0
 15 21  2  0
 16 15  1  0
 17 16  1  1
 17 18  1  0
 19 20  1  0
 19 17  1  0
 21 22  1  0
 23 19  2  0
M  END
$$$$
