SGY.pdb
     RDKit          3D

 23 23  0  0  1  0  0  0  0  0999 V2000
   17.2783  -22.7051  -15.5513 O   0  0  0  0  0  0  0  0  0  0  0  0
   18.1580  -21.6468  -15.3221 C   0  0  0  0  0  0  0  0  0  0  0  0
   19.5667  -22.2037  -15.2667 C   0  0  2  0  0  0  0  0  0  0  0  0
   19.7123  -23.2290  -14.2780 N   0  0  0  0  0  0  0  0  0  0  0  0
   20.4634  -21.0594  -14.8961 C   0  0  0  0  0  0  0  0  0  0  0  0
   20.7527  -20.8167  -13.7003 O   0  0  0  0  0  0  0  0  0  0  0  0
   21.0126  -20.2139  -15.8972 N   0  0  0  0  0  0  0  0  0  0  0  0
   21.8332  -19.0933  -15.5307 C   0  0  0  0  0  0  0  0  0  0  0  0
   23.2485  -19.5779  -15.4219 C   0  0  0  0  0  0  0  0  0  0  0  0
   24.0169  -19.6636  -16.4193 O   0  0  0  0  0  0  0  0  0  0  0  0
   22.7847  -21.4707   -8.2316 O   0  0  0  0  0  0  0  0  0  0  0  0
   23.5499  -21.0606   -9.3227 C   0  0  0  0  0  0  0  0  0  0  0  0
   24.9240  -21.1739   -9.3580 C   0  0  0  0  0  0  0  0  0  0  0  0
   25.6243  -20.7509  -10.4648 C   0  0  0  0  0  0  0  0  0  0  0  0
   24.9878  -20.2007  -11.5758 C   0  0  0  0  0  0  0  0  0  0  0  0
   25.7695  -19.7431  -12.7372 C   0  0  0  0  0  0  0  0  0  0  0  0
   25.2140  -20.3099  -14.0017 C   0  0  2  0  0  0  0  0  0  0  0  0
   23.8040  -19.9707  -14.1730 N   0  0  0  0  0  0  0  0  0  0  0  0
   25.3722  -21.7672  -14.1288 C   0  0  0  0  0  0  0  0  0  0  0  0
   26.5698  -22.4511  -14.2265 O   0  0  0  0  0  0  0  0  0  0  0  0
   23.6136  -20.0966  -11.5194 C   0  0  0  0  0  0  0  0  0  0  0  0
   22.9270  -20.5172  -10.4211 C   0  0  0  0  0  0  0  0  0  0  0  0
   24.3362  -22.5069  -14.1571 O   0  0  0  0  0  0  0  0  0  0  0  0
  2  3  1  0
  2  1  1  0
  3  4  1  1
  5  7  1  0
  5  3  1  0
  6  5  2  0
  8  7  1  0
  9 18  1  0
  9  8  1  0
 10  9  2  0
 12 11  1  0
 12 22  2  0
 13 12  1  0
 14 13  2  0
 14 15  1  0
 15 21  2  0
 16 15  1  0
 17 16  1  1
 17 18  1  0
 19 20  1  0
 19 17  1  0
 21 22  1  0
 23 19  2  0
M  END
$$$$
