SGY.pdb
     RDKit          3D

 23 23  0  0  1  0  0  0  0  0999 V2000
   23.9079  -20.3365  -19.7981 O   0  0  0  0  0  0  0  0  0  0  0  0
   23.1228  -21.3606  -19.2678 C   0  0  0  0  0  0  0  0  0  0  0  0
   24.0413  -22.3707  -18.6092 C   0  0  2  0  0  0  0  0  0  0  0  0
   23.3397  -23.5306  -18.1484 N   0  0  0  0  0  0  0  0  0  0  0  0
   24.6493  -21.6837  -17.4220 C   0  0  0  0  0  0  0  0  0  0  0  0
   23.9374  -21.1104  -16.5634 O   0  0  0  0  0  0  0  0  0  0  0  0
   26.0579  -21.6640  -17.2375 N   0  0  0  0  0  0  0  0  0  0  0  0
   26.6341  -20.9660  -16.1221 C   0  0  0  0  0  0  0  0  0  0  0  0
   26.1755  -21.6488  -14.8678 C   0  0  0  0  0  0  0  0  0  0  0  0
   26.7601  -22.6606  -14.3913 O   0  0  0  0  0  0  0  0  0  0  0  0
   25.9164  -20.5987   -6.4158 O   0  0  0  0  0  0  0  0  0  0  0  0
   26.0072  -20.5503   -7.8063 C   0  0  0  0  0  0  0  0  0  0  0  0
   27.1211  -20.0770   -8.4675 C   0  0  0  0  0  0  0  0  0  0  0  0
   27.1508  -20.0544   -9.8435 C   0  0  0  0  0  0  0  0  0  0  0  0
   26.0776  -20.5001  -10.6127 C   0  0  0  0  0  0  0  0  0  0  0  0
   26.1364  -20.4466  -12.0835 C   0  0  0  0  0  0  0  0  0  0  0  0
   24.9825  -21.1801  -12.6831 C   0  0  2  0  0  0  0  0  0  0  0  0
   25.0438  -21.1847  -14.1421 N   0  0  0  0  0  0  0  0  0  0  0  0
   23.6653  -20.6767  -12.2633 C   0  0  0  0  0  0  0  0  0  0  0  0
   22.8329  -21.2570  -11.3241 O   0  0  0  0  0  0  0  0  0  0  0  0
   24.9739  -20.9691   -9.9314 C   0  0  0  0  0  0  0  0  0  0  0  0
   24.9514  -20.9886   -8.5699 C   0  0  0  0  0  0  0  0  0  0  0  0
   23.2086  -19.6106  -12.7886 O   0  0  0  0  0  0  0  0  0  0  0  0
  2  3  1  0
  2  1  1  0
  3  4  1  1
  5  7  1  0
  5  3  1  0
  6  5  2  0
  8  7  1  0
  9 18  1  0
  9  8  1  0
 10  9  2  0
 12 11  1  0
 12 22  2  0
 13 12  1  0
 14 13  2  0
 14 15  1  0
 15 21  2  0
 16 15  1  0
 17 16  1  1
 17 18  1  0
 19 20  1  0
 19 17  1  0
 21 22  1  0
 23 19  2  0
M  END
$$$$
