SGY.pdb
     RDKit          3D

 23 23  0  0  1  0  0  0  0  0999 V2000
   25.3126  -21.8001  -16.9418 O   0  0  0  0  0  0  0  0  0  0  0  0
   26.0323  -21.0081  -17.8369 C   0  0  0  0  0  0  0  0  0  0  0  0
   27.4605  -20.9070  -17.3392 C   0  0  2  0  0  0  0  0  0  0  0  0
   28.0395  -22.1887  -17.0710 N   0  0  0  0  0  0  0  0  0  0  0  0
   27.4108  -20.1330  -16.0549 C   0  0  0  0  0  0  0  0  0  0  0  0
   26.8273  -19.0255  -15.9817 O   0  0  0  0  0  0  0  0  0  0  0  0
   28.0279  -20.6379  -14.8789 N   0  0  0  0  0  0  0  0  0  0  0  0
   27.9007  -19.9340  -13.6332 C   0  0  0  0  0  0  0  0  0  0  0  0
   26.8183  -20.6019  -12.8380 C   0  0  0  0  0  0  0  0  0  0  0  0
   25.8319  -21.1744  -13.3781 O   0  0  0  0  0  0  0  0  0  0  0  0
   28.5518  -18.2176   -5.7894 O   0  0  0  0  0  0  0  0  0  0  0  0
   28.0901  -19.1689   -6.6982 C   0  0  0  0  0  0  0  0  0  0  0  0
   28.9326  -19.8994   -7.5098 C   0  0  0  0  0  0  0  0  0  0  0  0
   28.4161  -20.8252   -8.3877 C   0  0  0  0  0  0  0  0  0  0  0  0
   27.0464  -21.0598   -8.4923 C   0  0  0  0  0  0  0  0  0  0  0  0
   26.5262  -22.0465   -9.4542 C   0  0  0  0  0  0  0  0  0  0  0  0
   25.8785  -21.3617  -10.6120 C   0  0  2  0  0  0  0  0  0  0  0  0
   26.8489  -20.6244  -11.4163 N   0  0  0  0  0  0  0  0  0  0  0  0
   24.7820  -20.4546  -10.2384 C   0  0  0  0  0  0  0  0  0  0  0  0
   23.5005  -20.8299   -9.8801 O   0  0  0  0  0  0  0  0  0  0  0  0
   26.2220  -20.3185   -7.6717 C   0  0  0  0  0  0  0  0  0  0  0  0
   26.7399  -19.4043   -6.8055 C   0  0  0  0  0  0  0  0  0  0  0  0
   24.9870  -19.1979  -10.2321 O   0  0  0  0  0  0  0  0  0  0  0  0
  2  3  1  0
  2  1  1  0
  3  4  1  1
  5  7  1  0
  5  3  1  0
  6  5  2  0
  8  7  1  0
  9 18  1  0
  9  8  1  0
 10  9  2  0
 12 11  1  0
 12 22  2  0
 13 12  1  0
 14 13  2  0
 14 15  1  0
 15 21  2  0
 16 15  1  0
 17 16  1  1
 17 18  1  0
 19 20  1  0
 19 17  1  0
 21 22  1  0
 23 19  2  0
M  END
$$$$
