SGY.pdb
     RDKit          3D

 23 23  0  0  1  0  0  0  0  0999 V2000
   25.0696  -21.0267  -16.6463 O   0  0  0  0  0  0  0  0  0  0  0  0
   26.0126  -20.0289  -16.3985 C   0  0  0  0  0  0  0  0  0  0  0  0
   27.2479  -20.6790  -15.8075 C   0  0  2  0  0  0  0  0  0  0  0  0
   27.7704  -21.7203  -16.6397 N   0  0  0  0  0  0  0  0  0  0  0  0
   26.8272  -21.2848  -14.5009 C   0  0  0  0  0  0  0  0  0  0  0  0
   26.7025  -22.5252  -14.3659 O   0  0  0  0  0  0  0  0  0  0  0  0
   26.5569  -20.4633  -13.3737 N   0  0  0  0  0  0  0  0  0  0  0  0
   26.1942  -21.0539  -12.1155 C   0  0  0  0  0  0  0  0  0  0  0  0
   24.6976  -21.0374  -12.0161 C   0  0  0  0  0  0  0  0  0  0  0  0
   24.0835  -21.3170  -10.9497 O   0  0  0  0  0  0  0  0  0  0  0  0
   23.5714  -18.1867  -18.8186 O   0  0  0  0  0  0  0  0  0  0  0  0
   23.2053  -18.4139  -17.4926 C   0  0  0  0  0  0  0  0  0  0  0  0
   23.8869  -17.8696  -16.4243 C   0  0  0  0  0  0  0  0  0  0  0  0
   23.4765  -18.1310  -15.1367 C   0  0  0  0  0  0  0  0  0  0  0  0
   22.3762  -18.9411  -14.8623 C   0  0  0  0  0  0  0  0  0  0  0  0
   21.9741  -19.2134  -13.4718 C   0  0  0  0  0  0  0  0  0  0  0  0
   22.4320  -20.5697  -13.0477 C   0  0  2  0  0  0  0  0  0  0  0  0
   23.8838  -20.7016  -13.1331 N   0  0  0  0  0  0  0  0  0  0  0  0
   21.8086  -21.6755  -13.7914 C   0  0  0  0  0  0  0  0  0  0  0  0
   20.4595  -21.9761  -13.8251 O   0  0  0  0  0  0  0  0  0  0  0  0
   21.7093  -19.4752  -15.9451 C   0  0  0  0  0  0  0  0  0  0  0  0
   22.1208  -19.2123  -17.2163 C   0  0  0  0  0  0  0  0  0  0  0  0
   22.5421  -22.4549  -14.4812 O   0  0  0  0  0  0  0  0  0  0  0  0
  2  3  1  0
  2  1  1  0
  3  4  1  6
  5  7  1  0
  5  3  1  0
  6  5  2  0
  8  7  1  0
  9 18  1  0
  9  8  1  0
 10  9  2  0
 12 11  1  0
 12 22  2  0
 13 12  1  0
 14 13  2  0
 14 15  1  0
 15 21  2  0
 16 15  1  0
 17 16  1  6
 17 18  1  0
 19 20  1  0
 19 17  1  0
 21 22  1  0
 23 19  2  0
M  END
$$$$
