SGY.pdb
     RDKit          3D

 23 23  0  0  1  0  0  0  0  0999 V2000
   20.0676   -8.3822  -17.1592 O   0  0  0  0  0  0  0  0  0  0  0  0
   19.0391   -9.1811  -17.6594 C   0  0  0  0  0  0  0  0  0  0  0  0
   17.7296   -8.6912  -17.0738 C   0  0  2  0  0  0  0  0  0  0  0  0
   17.5358   -7.2855  -17.2645 N   0  0  0  0  0  0  0  0  0  0  0  0
   17.7932   -8.9637  -15.5998 C   0  0  0  0  0  0  0  0  0  0  0  0
   17.9016  -10.1312  -15.1553 O   0  0  0  0  0  0  0  0  0  0  0  0
   17.7319   -7.8986  -14.6616 N   0  0  0  0  0  0  0  0  0  0  0  0
   17.7328   -8.1726  -13.2515 C   0  0  0  0  0  0  0  0  0  0  0  0
   17.3444   -6.9109  -12.5393 C   0  0  0  0  0  0  0  0  0  0  0  0
   17.2433   -5.8000  -13.1295 O   0  0  0  0  0  0  0  0  0  0  0  0
   12.1346   -9.6630   -8.5118 O   0  0  0  0  0  0  0  0  0  0  0  0
   12.8908   -8.6212   -9.0475 C   0  0  0  0  0  0  0  0  0  0  0  0
   13.1023   -8.4695  -10.4019 C   0  0  0  0  0  0  0  0  0  0  0  0
   13.8588   -7.4192  -10.8701 C   0  0  0  0  0  0  0  0  0  0  0  0
   14.4323   -6.4821  -10.0128 C   0  0  0  0  0  0  0  0  0  0  0  0
   15.2499   -5.3795  -10.5466 C   0  0  0  0  0  0  0  0  0  0  0  0
   16.7040   -5.6907  -10.4140 C   0  0  2  0  0  0  0  0  0  0  0  0
   17.0667   -6.9020  -11.1445 N   0  0  0  0  0  0  0  0  0  0  0  0
   17.1687   -5.8157   -9.0236 C   0  0  0  0  0  0  0  0  0  0  0  0
   17.1623   -4.8152   -8.0695 O   0  0  0  0  0  0  0  0  0  0  0  0
   14.2084   -6.6527   -8.6625 C   0  0  0  0  0  0  0  0  0  0  0  0
   13.4588   -7.6941   -8.2062 C   0  0  0  0  0  0  0  0  0  0  0  0
   17.6291   -6.9313   -8.6178 O   0  0  0  0  0  0  0  0  0  0  0  0
  2  3  1  0
  2  1  1  0
  3  4  1  1
  5  7  1  0
  5  3  1  0
  6  5  2  0
  8  7  1  0
  9 18  1  0
  9  8  1  0
 10  9  2  0
 12 11  1  0
 12 22  2  0
 13 12  1  0
 14 13  2  0
 14 15  1  0
 15 21  2  0
 16 15  1  0
 17 16  1  1
 17 18  1  0
 19 20  1  0
 19 17  1  0
 21 22  1  0
 23 19  2  0
M  END
$$$$
