SGY.pdb
     RDKit          3D

 23 23  0  0  1  0  0  0  0  0999 V2000
   27.7434  -22.6962  -18.7343 O   0  0  0  0  0  0  0  0  0  0  0  0
   28.4107  -22.2156  -17.6073 C   0  0  0  0  0  0  0  0  0  0  0  0
   27.6228  -22.6246  -16.3785 C   0  0  2  0  0  0  0  0  0  0  0  0
   27.1551  -23.9759  -16.4521 N   0  0  0  0  0  0  0  0  0  0  0  0
   26.4312  -21.7152  -16.3138 C   0  0  0  0  0  0  0  0  0  0  0  0
   26.5628  -20.4715  -16.2216 O   0  0  0  0  0  0  0  0  0  0  0  0
   25.1126  -22.2425  -16.3555 N   0  0  0  0  0  0  0  0  0  0  0  0
   23.9783  -21.3729  -16.2124 C   0  0  0  0  0  0  0  0  0  0  0  0
   23.4124  -21.5802  -14.8388 C   0  0  0  0  0  0  0  0  0  0  0  0
   23.6479  -22.6143  -14.1549 O   0  0  0  0  0  0  0  0  0  0  0  0
   27.9797  -21.0479  -10.3698 O   0  0  0  0  0  0  0  0  0  0  0  0
   26.7025  -20.6964  -10.8050 C   0  0  0  0  0  0  0  0  0  0  0  0
   26.4387  -20.2818  -12.0936 C   0  0  0  0  0  0  0  0  0  0  0  0
   25.1556  -19.9480  -12.4634 C   0  0  0  0  0  0  0  0  0  0  0  0
   24.0887  -20.0131  -11.5693 C   0  0  0  0  0  0  0  0  0  0  0  0
   22.7306  -19.6328  -11.9939 C   0  0  0  0  0  0  0  0  0  0  0  0
   22.1254  -20.7024  -12.8416 C   0  0  2  0  0  0  0  0  0  0  0  0
   22.5705  -20.6095  -14.2292 N   0  0  0  0  0  0  0  0  0  0  0  0
   20.6547  -20.7326  -12.8141 C   0  0  0  0  0  0  0  0  0  0  0  0
   19.8697  -21.2851  -11.8190 O   0  0  0  0  0  0  0  0  0  0  0  0
   24.3747  -20.4299  -10.2860 C   0  0  0  0  0  0  0  0  0  0  0  0
   25.6465  -20.7588   -9.9270 C   0  0  0  0  0  0  0  0  0  0  0  0
   20.0021  -20.2143  -13.7767 O   0  0  0  0  0  0  0  0  0  0  0  0
  2  3  1  0
  2  1  1  0
  3  4  1  6
  5  7  1  0
  5  3  1  0
  6  5  2  0
  8  7  1  0
  9 18  1  0
  9  8  1  0
 10  9  2  0
 12 11  1  0
 12 22  2  0
 13 12  1  0
 14 13  2  0
 14 15  1  0
 15 21  2  0
 16 15  1  0
 17 16  1  1
 17 18  1  0
 19 20  1  0
 19 17  1  0
 21 22  1  0
 23 19  2  0
M  END
$$$$
