SGY.pdb
     RDKit          3D

 23 23  0  0  1  0  0  0  0  0999 V2000
   25.0424  -25.6594  -15.4502 O   0  0  0  0  0  0  0  0  0  0  0  0
   24.4014  -24.5811  -14.8397 C   0  0  0  0  0  0  0  0  0  0  0  0
   23.4592  -23.9554  -15.8488 C   0  0  2  0  0  0  0  0  0  0  0  0
   24.0508  -23.8300  -17.1466 N   0  0  0  0  0  0  0  0  0  0  0  0
   23.1411  -22.5804  -15.3398 C   0  0  0  0  0  0  0  0  0  0  0  0
   22.6073  -22.4061  -14.2185 O   0  0  0  0  0  0  0  0  0  0  0  0
   23.4382  -21.4309  -16.1200 N   0  0  0  0  0  0  0  0  0  0  0  0
   23.1516  -20.1170  -15.6150 C   0  0  0  0  0  0  0  0  0  0  0  0
   24.4225  -19.5564  -15.0489 C   0  0  0  0  0  0  0  0  0  0  0  0
   24.4910  -18.4025  -14.5425 O   0  0  0  0  0  0  0  0  0  0  0  0
   23.6447  -20.9152   -9.0143 O   0  0  0  0  0  0  0  0  0  0  0  0
   24.5175  -20.8995  -10.1015 C   0  0  0  0  0  0  0  0  0  0  0  0
   24.1825  -21.4112  -11.3376 C   0  0  0  0  0  0  0  0  0  0  0  0
   25.0883  -21.3664  -12.3730 C   0  0  0  0  0  0  0  0  0  0  0  0
   26.3581  -20.8129  -12.2201 C   0  0  0  0  0  0  0  0  0  0  0  0
   27.3088  -20.7960  -13.3449 C   0  0  0  0  0  0  0  0  0  0  0  0
   26.8546  -19.8463  -14.4035 C   0  0  2  0  0  0  0  0  0  0  0  0
   25.6309  -20.3064  -15.0540 N   0  0  0  0  0  0  0  0  0  0  0  0
   27.8659  -19.5657  -15.4348 C   0  0  0  0  0  0  0  0  0  0  0  0
   29.0956  -18.9683  -15.2287 O   0  0  0  0  0  0  0  0  0  0  0  0
   26.6724  -20.3071  -10.9760 C   0  0  0  0  0  0  0  0  0  0  0  0
   25.7712  -20.3547   -9.9560 C   0  0  0  0  0  0  0  0  0  0  0  0
   27.6283  -19.8847  -16.6444 O   0  0  0  0  0  0  0  0  0  0  0  0
  2  3  1  0
  2  1  1  0
  3  4  1  6
  5  7  1  0
  5  3  1  0
  6  5  2  0
  8  7  1  0
  9 18  1  0
  9  8  1  0
 10  9  2  0
 12 11  1  0
 12 22  2  0
 13 12  1  0
 14 13  2  0
 14 15  1  0
 15 21  2  0
 16 15  1  0
 17 16  1  1
 17 18  1  0
 19 20  1  0
 19 17  1  0
 21 22  1  0
 23 19  2  0
M  END
$$$$
