SGY.pdb
     RDKit          3D

 23 23  0  0  1  0  0  0  0  0999 V2000
   22.1892  -11.8033  -17.4170 O   0  0  0  0  0  0  0  0  0  0  0  0
   22.0220  -11.6825  -16.0372 C   0  0  0  0  0  0  0  0  0  0  0  0
   21.1136  -10.4986  -15.7708 C   0  0  2  0  0  0  0  0  0  0  0  0
   20.0065  -10.4425  -16.6769 N   0  0  0  0  0  0  0  0  0  0  0  0
   21.9484   -9.2677  -15.9681 C   0  0  0  0  0  0  0  0  0  0  0  0
   22.8613   -8.9616  -15.1647 O   0  0  0  0  0  0  0  0  0  0  0  0
   21.7253   -8.4098  -17.0784 N   0  0  0  0  0  0  0  0  0  0  0  0
   22.5222   -7.2275  -17.2537 C   0  0  0  0  0  0  0  0  0  0  0  0
   21.7443   -6.0658  -16.7104 C   0  0  0  0  0  0  0  0  0  0  0  0
   20.7859   -5.5359  -17.3376 O   0  0  0  0  0  0  0  0  0  0  0  0
   18.5451   -7.4508   -9.8537 O   0  0  0  0  0  0  0  0  0  0  0  0
   18.8419   -6.7872  -11.0435 C   0  0  0  0  0  0  0  0  0  0  0  0
   18.6596   -5.4302  -11.2091 C   0  0  0  0  0  0  0  0  0  0  0  0
   18.9716   -4.8321  -12.4089 C   0  0  0  0  0  0  0  0  0  0  0  0
   19.4752   -5.5576  -13.4869 C   0  0  0  0  0  0  0  0  0  0  0  0
   19.7832   -4.8884  -14.7624 C   0  0  0  0  0  0  0  0  0  0  0  0
   21.2179   -4.4782  -14.8083 C   0  0  2  0  0  0  0  0  0  0  0  0
   22.0510   -5.4948  -15.4445 N   0  0  0  0  0  0  0  0  0  0  0  0
   21.7915   -4.1459  -13.4948 C   0  0  0  0  0  0  0  0  0  0  0  0
   21.4935   -3.0303  -12.7344 O   0  0  0  0  0  0  0  0  0  0  0  0
   19.6495   -6.9130  -13.2998 C   0  0  0  0  0  0  0  0  0  0  0  0
   19.3388   -7.4981  -12.1100 C   0  0  0  0  0  0  0  0  0  0  0  0
   22.6474   -4.9301  -12.9716 O   0  0  0  0  0  0  0  0  0  0  0  0
  2  3  1  0
  2  1  1  0
  3  4  1  6
  5  7  1  0
  5  3  1  0
  6  5  2  0
  8  7  1  0
  9 18  1  0
  9  8  1  0
 10  9  2  0
 12 11  1  0
 12 22  2  0
 13 12  1  0
 14 13  2  0
 14 15  1  0
 15 21  2  0
 16 15  1  0
 17 16  1  1
 17 18  1  0
 19 20  1  0
 19 17  1  0
 21 22  1  0
 23 19  2  0
M  END
$$$$
