SGY.pdb
     RDKit          3D

 23 23  0  0  1  0  0  0  0  0999 V2000
   27.8244  -19.2674  -18.1080 O   0  0  0  0  0  0  0  0  0  0  0  0
   28.8652  -19.8529  -17.3868 C   0  0  0  0  0  0  0  0  0  0  0  0
   28.2784  -20.9289  -16.4947 C   0  0  2  0  0  0  0  0  0  0  0  0
   27.3794  -21.7935  -17.1977 N   0  0  0  0  0  0  0  0  0  0  0  0
   27.5081  -20.2189  -15.4207 C   0  0  0  0  0  0  0  0  0  0  0  0
   26.3451  -19.7952  -15.6221 O   0  0  0  0  0  0  0  0  0  0  0  0
   28.0797  -20.0062  -14.1375 N   0  0  0  0  0  0  0  0  0  0  0  0
   27.3472  -19.2975  -13.1252 C   0  0  0  0  0  0  0  0  0  0  0  0
   26.4832  -20.2900  -12.4053 C   0  0  0  0  0  0  0  0  0  0  0  0
   26.4449  -21.5119  -12.7184 O   0  0  0  0  0  0  0  0  0  0  0  0
   30.0371  -20.0514   -7.1069 O   0  0  0  0  0  0  0  0  0  0  0  0
   28.7500  -20.2042   -7.6208 C   0  0  0  0  0  0  0  0  0  0  0  0
   28.3987  -21.2372   -8.4643 C   0  0  0  0  0  0  0  0  0  0  0  0
   27.1104  -21.3344   -8.9391 C   0  0  0  0  0  0  0  0  0  0  0  0
   26.1247  -20.4114   -8.5947 C   0  0  0  0  0  0  0  0  0  0  0  0
   24.7598  -20.5361   -9.1340 C   0  0  0  0  0  0  0  0  0  0  0  0
   24.7971  -20.8366  -10.5959 C   0  0  2  0  0  0  0  0  0  0  0  0
   25.6523  -19.8996  -11.3190 N   0  0  0  0  0  0  0  0  0  0  0  0
   23.4738  -20.8669  -11.2383 C   0  0  0  0  0  0  0  0  0  0  0  0
   22.4674  -21.7812  -10.9878 O   0  0  0  0  0  0  0  0  0  0  0  0
   26.4975  -19.3865   -7.7503 C   0  0  0  0  0  0  0  0  0  0  0  0
   27.7739  -19.2965   -7.2842 C   0  0  0  0  0  0  0  0  0  0  0  0
   23.1854  -19.9888  -12.1141 O   0  0  0  0  0  0  0  0  0  0  0  0
  2  3  1  0
  2  1  1  0
  3  4  1  6
  5  7  1  0
  5  3  1  0
  6  5  2  0
  8  7  1  0
  9 18  1  0
  9  8  1  0
 10  9  2  0
 12 11  1  0
 12 22  2  0
 13 12  1  0
 14 13  2  0
 14 15  1  0
 15 21  2  0
 16 15  1  0
 17 16  1  1
 17 18  1  0
 19 20  1  0
 19 17  1  0
 21 22  1  0
 23 19  2  0
M  END
$$$$
