VAI.pdb
     RDKit          3D

 21 20  0  0  1  0  0  0  0  0999 V2000
   20.9483  -19.7192  -18.0644 C   0  0  0  0  0  0  0  0  0  0  0  0
   22.4645  -19.9211  -18.0888 C   0  0  2  0  0  0  0  0  0  0  0  0
   22.8322  -20.3303  -19.4789 C   0  0  0  0  0  0  0  0  0  0  0  0
   22.7996  -20.9661  -17.0364 C   0  0  2  0  0  0  0  0  0  0  0  0
   21.6667  -21.9091  -17.0564 N   0  0  0  0  0  0  0  0  0  0  0  0
   22.8814  -20.3942  -15.6730 C   0  0  0  0  0  0  0  0  0  0  0  0
   23.8055  -19.5748  -15.4148 O   0  0  0  0  0  0  0  0  0  0  0  0
   20.9130  -20.2573  -12.4557 C   0  0  0  0  0  0  0  0  0  0  0  0
   22.1854  -20.1348  -13.2649 C   0  0  2  0  0  0  0  0  0  0  0  0
   21.9895  -20.6955  -14.6097 N   0  0  0  0  0  0  0  0  0  0  0  0
   23.2510  -20.8898  -12.5826 C   0  0  0  0  0  0  0  0  0  0  0  0
   23.3571  -22.1325  -12.7264 O   0  0  0  0  0  0  0  0  0  0  0  0
   28.2948  -20.5059  -13.4687 C   0  0  0  0  0  0  0  0  0  0  0  0
   26.9033  -20.8724  -13.0445 C   0  0  0  0  0  0  0  0  0  0  0  0
   26.6233  -20.6626  -11.5989 C   0  0  2  0  0  0  0  0  0  0  0  0
   27.5914  -21.5264  -10.7910 C   0  0  0  0  0  0  0  0  0  0  0  0
   25.2419  -20.9849  -11.1363 C   0  0  2  0  0  0  0  0  0  0  0  0
   24.1877  -20.2350  -11.7436 N   0  0  0  0  0  0  0  0  0  0  0  0
   25.2116  -20.6941   -9.6572 C   0  0  0  0  0  0  0  0  0  0  0  0
   24.9737  -19.3996   -9.2531 O   0  0  0  0  0  0  0  0  0  0  0  0
   25.3932  -21.5810   -8.8140 O   0  0  0  0  0  0  0  0  0  0  0  0
  2  4  1  0
  2  1  1  6
  3  2  1  0
  4  5  1  1
  6  4  1  0
  7  6  2  0
  9  8  1  1
  9 11  1  0
  9 10  1  0
 10  6  1  0
 11 18  1  0
 12 11  2  0
 14 13  1  0
 15 17  1  0
 15 14  1  0
 15 16  1  1
 17 18  1  6
 19 20  1  0
 19 17  1  0
 21 19  2  0
M  END
$$$$
