VAI.pdb
     RDKit          3D

 21 20  0  0  1  0  0  0  0  0999 V2000
   19.8581  -13.2341  -16.8468 C   0  0  0  0  0  0  0  0  0  0  0  0
   19.1263  -12.3136  -17.8252 C   0  0  2  0  0  0  0  0  0  0  0  0
   18.8302  -13.1183  -19.0498 C   0  0  0  0  0  0  0  0  0  0  0  0
   20.0294  -11.1181  -18.0844 C   0  0  2  0  0  0  0  0  0  0  0  0
   21.1811  -11.6602  -18.8280 N   0  0  0  0  0  0  0  0  0  0  0  0
   20.5474  -10.5152  -16.8352 C   0  0  0  0  0  0  0  0  0  0  0  0
   19.7308   -9.9721  -16.0413 O   0  0  0  0  0  0  0  0  0  0  0  0
   23.7275  -10.3836  -14.8074 C   0  0  0  0  0  0  0  0  0  0  0  0
   22.3362   -9.9099  -15.1664 C   0  0  2  0  0  0  0  0  0  0  0  0
   21.9132  -10.4964  -16.4465 N   0  0  0  0  0  0  0  0  0  0  0  0
   22.3582   -8.4424  -15.2968 C   0  0  0  0  0  0  0  0  0  0  0  0
   22.7751   -7.8925  -16.3457 O   0  0  0  0  0  0  0  0  0  0  0  0
   19.3649   -3.4768  -15.4033 C   0  0  0  0  0  0  0  0  0  0  0  0
   20.6364   -4.0677  -14.8696 C   0  0  0  0  0  0  0  0  0  0  0  0
   20.6650   -5.5546  -14.8490 C   0  0  2  0  0  0  0  0  0  0  0  0
   19.5546   -6.0443  -13.9199 C   0  0  0  0  0  0  0  0  0  0  0  0
   21.9384   -6.1883  -14.3985 C   0  0  2  0  0  0  0  0  0  0  0  0
   21.9094   -7.6086  -14.2418 N   0  0  0  0  0  0  0  0  0  0  0  0
   22.2565   -5.5898  -13.0518 C   0  0  0  0  0  0  0  0  0  0  0  0
   22.7194   -4.2938  -13.0084 O   0  0  0  0  0  0  0  0  0  0  0  0
   22.1121   -6.2296  -12.0028 O   0  0  0  0  0  0  0  0  0  0  0  0
  2  4  1  0
  2  1  1  1
  3  2  1  0
  4  5  1  6
  6  4  1  0
  7  6  2  0
  9  8  1  6
  9 11  1  0
  9 10  1  0
 10  6  1  0
 11 18  1  0
 12 11  2  0
 14 13  1  0
 15 17  1  0
 15 14  1  0
 15 16  1  1
 17 18  1  1
 19 20  1  0
 19 17  1  0
 21 19  2  0
M  END
$$$$
