VAI.pdb
     RDKit          3D

 21 20  0  0  1  0  0  0  0  0999 V2000
   26.7902  -26.1707  -16.0086 C   0  0  0  0  0  0  0  0  0  0  0  0
   26.4903  -25.8681  -17.4777 C   0  0  2  0  0  0  0  0  0  0  0  0
   26.8209  -27.0998  -18.2578 C   0  0  0  0  0  0  0  0  0  0  0  0
   27.3211  -24.6564  -17.8697 C   0  0  2  0  0  0  0  0  0  0  0  0
   28.7205  -25.0594  -17.6408 N   0  0  0  0  0  0  0  0  0  0  0  0
   27.0490  -23.4793  -17.0136 C   0  0  0  0  0  0  0  0  0  0  0  0
   27.7532  -23.3061  -15.9810 O   0  0  0  0  0  0  0  0  0  0  0  0
   25.0550  -20.2732  -17.1233 C   0  0  0  0  0  0  0  0  0  0  0  0
   25.9242  -21.3005  -16.4318 C   0  0  2  0  0  0  0  0  0  0  0  0
   26.0427  -22.5084  -17.2615 N   0  0  0  0  0  0  0  0  0  0  0  0
   25.2956  -21.6613  -15.1490 C   0  0  0  0  0  0  0  0  0  0  0  0
   24.4521  -22.5886  -15.0802 O   0  0  0  0  0  0  0  0  0  0  0  0
   25.6042  -20.6521   -8.9767 C   0  0  0  0  0  0  0  0  0  0  0  0
   24.8997  -21.1324  -10.2110 C   0  0  0  0  0  0  0  0  0  0  0  0
   25.6312  -20.8729  -11.4797 C   0  0  2  0  0  0  0  0  0  0  0  0
   25.8929  -19.3708  -11.5856 C   0  0  0  0  0  0  0  0  0  0  0  0
   24.9514  -21.2993  -12.7376 C   0  0  2  0  0  0  0  0  0  0  0  0
   25.6250  -20.9718  -13.9548 N   0  0  0  0  0  0  0  0  0  0  0  0
   23.6160  -20.5997  -12.7558 C   0  0  0  0  0  0  0  0  0  0  0  0
   22.5742  -21.1677  -12.0575 O   0  0  0  0  0  0  0  0  0  0  0  0
   23.4412  -19.5433  -13.3753 O   0  0  0  0  0  0  0  0  0  0  0  0
  2  4  1  0
  2  1  1  1
  3  2  1  0
  4  5  1  1
  6  4  1  0
  7  6  2  0
  9  8  1  6
  9 11  1  0
  9 10  1  0
 10  6  1  0
 11 18  1  0
 12 11  2  0
 14 13  1  0
 15 17  1  0
 15 14  1  0
 15 16  1  6
 17 18  1  6
 19 20  1  0
 19 17  1  0
 21 19  2  0
M  END
$$$$
