VAI.pdb
     RDKit          3D

 21 20  0  0  1  0  0  0  0  0999 V2000
   19.0354  -15.3738  -16.1198 C   0  0  0  0  0  0  0  0  0  0  0  0
   17.5198  -15.1675  -16.1336 C   0  0  2  0  0  0  0  0  0  0  0  0
   16.9183  -16.3634  -16.7993 C   0  0  0  0  0  0  0  0  0  0  0  0
   17.2468  -13.8615  -16.8629 C   0  0  2  0  0  0  0  0  0  0  0  0
   17.6917  -14.0947  -18.2489 N   0  0  0  0  0  0  0  0  0  0  0  0
   18.0382  -12.7324  -16.3232 C   0  0  0  0  0  0  0  0  0  0  0  0
   17.7635  -12.2968  -15.1713 O   0  0  0  0  0  0  0  0  0  0  0  0
   21.1874  -10.8043  -16.9567 C   0  0  0  0  0  0  0  0  0  0  0  0
   19.7700  -10.9052  -16.4375 C   0  0  2  0  0  0  0  0  0  0  0  0
   19.1025  -12.0856  -17.0056 N   0  0  0  0  0  0  0  0  0  0  0  0
   19.0327   -9.6964  -16.8451 C   0  0  0  0  0  0  0  0  0  0  0  0
   18.5947   -9.5696  -18.0149 O   0  0  0  0  0  0  0  0  0  0  0  0
   14.4358   -6.2174  -16.0262 C   0  0  0  0  0  0  0  0  0  0  0  0
   15.9105   -6.1718  -16.2980 C   0  0  0  0  0  0  0  0  0  0  0  0
   16.6391   -7.4242  -15.9621 C   0  0  2  0  0  0  0  0  0  0  0  0
   16.5647   -7.6331  -14.4498 C   0  0  0  0  0  0  0  0  0  0  0  0
   18.0781   -7.4806  -16.3522 C   0  0  2  0  0  0  0  0  0  0  0  0
   18.7963   -8.6412  -15.9284 N   0  0  0  0  0  0  0  0  0  0  0  0
   18.7367   -6.2824  -15.7169 C   0  0  0  0  0  0  0  0  0  0  0  0
   18.5320   -5.0472  -16.2896 O   0  0  0  0  0  0  0  0  0  0  0  0
   19.4454   -6.3858  -14.7081 O   0  0  0  0  0  0  0  0  0  0  0  0
  2  4  1  0
  2  1  1  6
  3  2  1  0
  4  5  1  6
  6  4  1  0
  7  6  2  0
  9  8  1  6
  9 11  1  0
  9 10  1  0
 10  6  1  0
 11 18  1  0
 12 11  2  0
 14 13  1  0
 15 17  1  0
 15 14  1  0
 15 16  1  1
 17 18  1  1
 19 20  1  0
 19 17  1  0
 21 19  2  0
M  END
$$$$
