VAI.pdb
     RDKit          3D

 21 20  0  0  1  0  0  0  0  0999 V2000
   15.5959  -14.6732  -16.2296 C   0  0  0  0  0  0  0  0  0  0  0  0
   16.7247  -13.6408  -16.2201 C   0  0  2  0  0  0  0  0  0  0  0  0
   16.2771  -12.5063  -15.3556 C   0  0  0  0  0  0  0  0  0  0  0  0
   16.9858  -13.2415  -17.6639 C   0  0  2  0  0  0  0  0  0  0  0  0
   17.4948  -14.4625  -18.3145 N   0  0  0  0  0  0  0  0  0  0  0  0
   18.0319  -12.2006  -17.7857 C   0  0  0  0  0  0  0  0  0  0  0  0
   19.2292  -12.5141  -17.5403 O   0  0  0  0  0  0  0  0  0  0  0  0
   18.4249   -8.6056  -18.9061 C   0  0  0  0  0  0  0  0  0  0  0  0
   18.8924   -9.8731  -18.2250 C   0  0  2  0  0  0  0  0  0  0  0  0
   17.7972  -10.8520  -18.1638 N   0  0  0  0  0  0  0  0  0  0  0  0
   19.3144   -9.5412  -16.8529 C   0  0  0  0  0  0  0  0  0  0  0  0
   18.4894   -9.5329  -15.9066 O   0  0  0  0  0  0  0  0  0  0  0  0
   23.7939  -11.5198  -14.5951 C   0  0  0  0  0  0  0  0  0  0  0  0
   22.4208  -10.9761  -14.8590 C   0  0  0  0  0  0  0  0  0  0  0  0
   22.3057   -9.4991  -14.7266 C   0  0  2  0  0  0  0  0  0  0  0  0
   22.4419   -9.1366  -13.2481 C   0  0  0  0  0  0  0  0  0  0  0  0
   21.0407   -8.8841  -15.2243 C   0  0  2  0  0  0  0  0  0  0  0  0
   20.6645   -9.2216  -16.5611 N   0  0  0  0  0  0  0  0  0  0  0  0
   21.2468   -7.3914  -15.1742 C   0  0  0  0  0  0  0  0  0  0  0  0
   21.3511   -6.7085  -16.3652 O   0  0  0  0  0  0  0  0  0  0  0  0
   21.3227   -6.7788  -14.1021 O   0  0  0  0  0  0  0  0  0  0  0  0
  2  4  1  0
  2  1  1  6
  3  2  1  0
  4  5  1  6
  6  4  1  0
  7  6  2  0
  9  8  1  1
  9 11  1  0
  9 10  1  0
 10  6  1  0
 11 18  1  0
 12 11  2  0
 14 13  1  0
 15 17  1  0
 15 14  1  0
 15 16  1  1
 17 18  1  6
 19 20  1  0
 19 17  1  0
 21 19  2  0
M  END
$$$$
