VAI.pdb
     RDKit          3D

 21 20  0  0  1  0  0  0  0  0999 V2000
   16.2698  -26.4551   -5.8742 C   0  0  0  0  0  0  0  0  0  0  0  0
   16.5770  -25.1674   -6.6406 C   0  0  2  0  0  0  0  0  0  0  0  0
   15.4347  -24.9275   -7.5749 C   0  0  0  0  0  0  0  0  0  0  0  0
   17.9098  -25.3661   -7.3449 C   0  0  2  0  0  0  0  0  0  0  0  0
   18.8814  -25.6184   -6.2653 N   0  0  0  0  0  0  0  0  0  0  0  0
   18.3544  -24.1557   -8.0728 C   0  0  0  0  0  0  0  0  0  0  0  0
   17.6302  -23.7098   -9.0049 O   0  0  0  0  0  0  0  0  0  0  0  0
   21.1574  -21.6026   -7.9977 C   0  0  0  0  0  0  0  0  0  0  0  0
   19.9148  -22.2422   -8.5772 C   0  0  2  0  0  0  0  0  0  0  0  0
   19.5508  -23.4391   -7.8049 N   0  0  0  0  0  0  0  0  0  0  0  0
   20.1950  -22.6378   -9.9686 C   0  0  0  0  0  0  0  0  0  0  0  0
   20.5167  -23.8175  -10.2533 O   0  0  0  0  0  0  0  0  0  0  0  0
   18.5237  -22.1952  -15.7307 C   0  0  0  0  0  0  0  0  0  0  0  0
   19.6788  -22.2680  -14.7763 C   0  0  0  0  0  0  0  0  0  0  0  0
   19.3434  -21.9082  -13.3727 C   0  0  2  0  0  0  0  0  0  0  0  0
   18.9394  -20.4345  -13.3373 C   0  0  0  0  0  0  0  0  0  0  0  0
   20.4230  -22.1014  -12.3612 C   0  0  2  0  0  0  0  0  0  0  0  0
   20.1096  -21.6979  -11.0265 N   0  0  0  0  0  0  0  0  0  0  0  0
   21.5916  -21.2689  -12.8242 C   0  0  0  0  0  0  0  0  0  0  0  0
   21.8986  -20.1280  -12.1172 O   0  0  0  0  0  0  0  0  0  0  0  0
   22.2684  -21.5854  -13.8102 O   0  0  0  0  0  0  0  0  0  0  0  0
  2  4  1  0
  2  1  1  6
  3  2  1  0
  4  5  1  1
  6  4  1  0
  7  6  2  0
  9  8  1  1
  9 11  1  0
  9 10  1  0
 10  6  1  0
 11 18  1  0
 12 11  2  0
 14 13  1  0
 15 17  1  0
 15 14  1  0
 15 16  1  6
 17 18  1  1
 19 20  1  0
 19 17  1  0
 21 19  2  0
M  END
$$$$
