VAI.pdb
     RDKit          3D

 21 20  0  0  1  0  0  0  0  0999 V2000
   17.4189  -15.8401  -17.4140 C   0  0  0  0  0  0  0  0  0  0  0  0
   18.2479  -14.5689  -17.2225 C   0  0  2  0  0  0  0  0  0  0  0  0
   17.4644  -13.6624  -16.3284 C   0  0  0  0  0  0  0  0  0  0  0  0
   18.5106  -13.9869  -18.6024 C   0  0  2  0  0  0  0  0  0  0  0  0
   19.3537  -14.9843  -19.2863 N   0  0  0  0  0  0  0  0  0  0  0  0
   19.2726  -12.7184  -18.5490 C   0  0  0  0  0  0  0  0  0  0  0  0
   20.4999  -12.7614  -18.2589 O   0  0  0  0  0  0  0  0  0  0  0  0
   18.8247   -9.0362  -19.2968 C   0  0  0  0  0  0  0  0  0  0  0  0
   19.5514  -10.2180  -18.6933 C   0  0  2  0  0  0  0  0  0  0  0  0
   18.7285  -11.4314  -18.8024 N   0  0  0  0  0  0  0  0  0  0  0  0
   19.8035   -9.9375  -17.2690 C   0  0  0  0  0  0  0  0  0  0  0  0
   18.9534  -10.2286  -16.3921 O   0  0  0  0  0  0  0  0  0  0  0  0
   24.0371  -11.5720  -14.6152 C   0  0  0  0  0  0  0  0  0  0  0  0
   22.6799  -11.0860  -15.0303 C   0  0  0  0  0  0  0  0  0  0  0  0
   22.4713   -9.6225  -14.8659 C   0  0  2  0  0  0  0  0  0  0  0  0
   22.4526   -9.3043  -13.3710 C   0  0  0  0  0  0  0  0  0  0  0  0
   21.2244   -9.0584  -15.4600 C   0  0  2  0  0  0  0  0  0  0  0  0
   21.0133   -9.3308  -16.8470 N   0  0  0  0  0  0  0  0  0  0  0  0
   21.3183   -7.5621  -15.3008 C   0  0  0  0  0  0  0  0  0  0  0  0
   21.0835   -7.0241  -14.0554 O   0  0  0  0  0  0  0  0  0  0  0  0
   21.5975   -6.8210  -16.2512 O   0  0  0  0  0  0  0  0  0  0  0  0
  2  4  1  0
  2  1  1  6
  3  2  1  0
  4  5  1  6
  6  4  1  0
  7  6  2  0
  9  8  1  1
  9 11  1  0
  9 10  1  0
 10  6  1  0
 11 18  1  0
 12 11  2  0
 14 13  1  0
 15 17  1  0
 15 14  1  0
 15 16  1  1
 17 18  1  6
 19 20  1  0
 19 17  1  0
 21 19  2  0
M  END
$$$$
