VAI.pdb
     RDKit          3D

 21 20  0  0  1  0  0  0  0  0999 V2000
   13.1294  -10.6452  -13.0979 C   0  0  0  0  0  0  0  0  0  0  0  0
   13.7722  -11.0013  -14.4396 C   0  0  2  0  0  0  0  0  0  0  0  0
   12.8795  -11.9990  -15.1050 C   0  0  0  0  0  0  0  0  0  0  0  0
   15.1674  -11.5304  -14.1474 C   0  0  2  0  0  0  0  0  0  0  0  0
   14.9599  -12.8907  -13.6186 N   0  0  0  0  0  0  0  0  0  0  0  0
   15.8659  -10.7465  -13.1032 C   0  0  0  0  0  0  0  0  0  0  0  0
   15.6037  -10.9831  -11.8919 O   0  0  0  0  0  0  0  0  0  0  0  0
   18.5789   -8.1286  -12.7620 C   0  0  0  0  0  0  0  0  0  0  0  0
   17.3994   -8.9327  -12.2610 C   0  0  2  0  0  0  0  0  0  0  0  0
   16.8259   -9.7306  -13.3546 N   0  0  0  0  0  0  0  0  0  0  0  0
   16.3739   -8.0009  -11.7601 C   0  0  0  0  0  0  0  0  0  0  0  0
   15.5677   -7.4436  -12.5447 O   0  0  0  0  0  0  0  0  0  0  0  0
   12.1040   -6.6803   -7.8255 C   0  0  0  0  0  0  0  0  0  0  0  0
   13.3074   -6.1451   -8.5437 C   0  0  0  0  0  0  0  0  0  0  0  0
   14.2046   -7.1888   -9.1076 C   0  0  2  0  0  0  0  0  0  0  0  0
   14.7845   -8.0011   -7.9500 C   0  0  0  0  0  0  0  0  0  0  0  0
   15.3491   -6.7054   -9.9337 C   0  0  2  0  0  0  0  0  0  0  0  0
   16.2675   -7.7065  -10.3774 N   0  0  0  0  0  0  0  0  0  0  0  0
   16.1163   -5.7370   -9.0696 C   0  0  0  0  0  0  0  0  0  0  0  0
   15.5599   -4.5017   -8.8244 O   0  0  0  0  0  0  0  0  0  0  0  0
   17.2172   -6.0258   -8.5849 O   0  0  0  0  0  0  0  0  0  0  0  0
  2  4  1  0
  2  1  1  1
  3  2  1  0
  4  5  1  1
  6  4  1  0
  7  6  2  0
  9  8  1  6
  9 11  1  0
  9 10  1  0
 10  6  1  0
 11 18  1  0
 12 11  2  0
 14 13  1  0
 15 17  1  0
 15 14  1  0
 15 16  1  1
 17 18  1  1
 19 20  1  0
 19 17  1  0
 21 19  2  0
M  END
$$$$
