VAI.pdb
     RDKit          3D

 21 20  0  0  1  0  0  0  0  0999 V2000
   16.6899  -11.6269  -17.4772 C   0  0  0  0  0  0  0  0  0  0  0  0
   17.9972  -12.1868  -16.9136 C   0  0  2  0  0  0  0  0  0  0  0  0
   17.7484  -13.6187  -16.5628 C   0  0  0  0  0  0  0  0  0  0  0  0
   18.3828  -11.3249  -15.7218 C   0  0  2  0  0  0  0  0  0  0  0  0
   17.3369  -11.5733  -14.7130 N   0  0  0  0  0  0  0  0  0  0  0  0
   18.3656   -9.8782  -16.0369 C   0  0  0  0  0  0  0  0  0  0  0  0
   19.2101   -9.4278  -16.8591 O   0  0  0  0  0  0  0  0  0  0  0  0
   16.3734   -6.7543  -15.2544 C   0  0  0  0  0  0  0  0  0  0  0  0
   17.5964   -7.4959  -15.7474 C   0  0  2  0  0  0  0  0  0  0  0  0
   17.4604   -8.9355  -15.4815 N   0  0  0  0  0  0  0  0  0  0  0  0
   18.7770   -6.9862  -15.0280 C   0  0  0  0  0  0  0  0  0  0  0  0
   19.1218   -7.4737  -13.9236 O   0  0  0  0  0  0  0  0  0  0  0  0
   24.5157   -6.0363  -16.1096 C   0  0  0  0  0  0  0  0  0  0  0  0
   23.3453   -5.5646  -15.2983 C   0  0  0  0  0  0  0  0  0  0  0  0
   22.0219   -6.0216  -15.8004 C   0  0  2  0  0  0  0  0  0  0  0  0
   21.8218   -5.4610  -17.2082 C   0  0  0  0  0  0  0  0  0  0  0  0
   20.8325   -5.6307  -14.9889 C   0  0  2  0  0  0  0  0  0  0  0  0
   19.5580   -5.9305  -15.5620 N   0  0  0  0  0  0  0  0  0  0  0  0
   20.9111   -4.1352  -14.8148 C   0  0  0  0  0  0  0  0  0  0  0  0
   21.8050   -3.6330  -13.8958 O   0  0  0  0  0  0  0  0  0  0  0  0
   20.2002   -3.3637  -15.4704 O   0  0  0  0  0  0  0  0  0  0  0  0
  2  4  1  0
  2  1  1  1
  3  2  1  0
  4  5  1  1
  6  4  1  0
  7  6  2  0
  9  8  1  1
  9 11  1  0
  9 10  1  0
 10  6  1  0
 11 18  1  0
 12 11  2  0
 14 13  1  0
 15 17  1  0
 15 14  1  0
 15 16  1  6
 17 18  1  6
 19 20  1  0
 19 17  1  0
 21 19  2  0
M  END
$$$$
