VAI.pdb
     RDKit          3D

 21 20  0  0  1  0  0  0  0  0999 V2000
   26.0490  -17.8767  -16.0018 C   0  0  0  0  0  0  0  0  0  0  0  0
   27.4717  -17.6917  -15.4707 C   0  0  2  0  0  0  0  0  0  0  0  0
   28.3747  -17.5853  -16.6575 C   0  0  0  0  0  0  0  0  0  0  0  0
   27.7792  -18.8812  -14.5749 C   0  0  2  0  0  0  0  0  0  0  0  0
   27.6072  -20.0656  -15.4356 N   0  0  0  0  0  0  0  0  0  0  0  0
   26.8270  -19.0055  -13.4477 C   0  0  0  0  0  0  0  0  0  0  0  0
   26.8291  -18.1161  -12.5528 O   0  0  0  0  0  0  0  0  0  0  0  0
   23.8270  -21.0347  -12.4021 C   0  0  0  0  0  0  0  0  0  0  0  0
   24.9990  -20.1209  -12.1191 C   0  0  2  0  0  0  0  0  0  0  0  0
   25.8920  -20.0620  -13.2856 N   0  0  0  0  0  0  0  0  0  0  0  0
   25.7481  -20.6590  -10.9701 C   0  0  0  0  0  0  0  0  0  0  0  0
   26.6136  -21.5553  -11.1247 O   0  0  0  0  0  0  0  0  0  0  0  0
   28.9198  -19.6349   -6.0511 C   0  0  0  0  0  0  0  0  0  0  0  0
   27.9031  -20.5275   -6.6993 C   0  0  0  0  0  0  0  0  0  0  0  0
   27.1942  -19.9176   -7.8559 C   0  0  2  0  0  0  0  0  0  0  0  0
   26.4631  -18.6675   -7.3671 C   0  0  0  0  0  0  0  0  0  0  0  0
   26.1938  -20.7790   -8.5512 C   0  0  2  0  0  0  0  0  0  0  0  0
   25.5135  -20.1806   -9.6564 N   0  0  0  0  0  0  0  0  0  0  0  0
   25.1547  -21.1389   -7.5198 C   0  0  0  0  0  0  0  0  0  0  0  0
   25.5117  -22.0053   -6.5111 O   0  0  0  0  0  0  0  0  0  0  0  0
   24.0071  -20.6786   -7.5615 O   0  0  0  0  0  0  0  0  0  0  0  0
  2  4  1  0
  2  1  1  6
  3  2  1  0
  4  5  1  6
  6  4  1  0
  7  6  2  0
  9  8  1  6
  9 11  1  0
  9 10  1  0
 10  6  1  0
 11 18  1  0
 12 11  2  0
 14 13  1  0
 15 17  1  0
 15 14  1  0
 15 16  1  1
 17 18  1  6
 19 20  1  0
 19 17  1  0
 21 19  2  0
M  END
$$$$
