VAI.pdb
     RDKit          3D

 21 20  0  0  1  0  0  0  0  0999 V2000
   15.9356  -14.9533  -16.0045 C   0  0  0  0  0  0  0  0  0  0  0  0
   16.4466  -13.5969  -16.4934 C   0  0  2  0  0  0  0  0  0  0  0  0
   17.6842  -13.8538  -17.2917 C   0  0  0  0  0  0  0  0  0  0  0  0
   16.6816  -12.7317  -15.2653 C   0  0  2  0  0  0  0  0  0  0  0  0
   15.3610  -12.6114  -14.6212 N   0  0  0  0  0  0  0  0  0  0  0  0
   17.1367  -11.3656  -15.6106 C   0  0  0  0  0  0  0  0  0  0  0  0
   18.2924  -11.2171  -16.0947 O   0  0  0  0  0  0  0  0  0  0  0  0
   15.7904   -7.8228  -15.7248 C   0  0  0  0  0  0  0  0  0  0  0  0
   16.8632   -8.8763  -15.8921 C   0  0  2  0  0  0  0  0  0  0  0  0
   16.3670  -10.1844  -15.4403 N   0  0  0  0  0  0  0  0  0  0  0  0
   18.0267   -8.4969  -15.0716 C   0  0  0  0  0  0  0  0  0  0  0  0
   18.0897   -8.8059  -13.8564 O   0  0  0  0  0  0  0  0  0  0  0  0
   23.9057   -8.9808  -14.9871 C   0  0  0  0  0  0  0  0  0  0  0  0
   22.7748   -8.0707  -14.6084 C   0  0  0  0  0  0  0  0  0  0  0  0
   21.5089   -8.3179  -15.3492 C   0  0  2  0  0  0  0  0  0  0  0  0
   21.7265   -7.9381  -16.8136 C   0  0  0  0  0  0  0  0  0  0  0  0
   20.3037   -7.5809  -14.8693 C   0  0  2  0  0  0  0  0  0  0  0  0
   19.1092   -7.7718  -15.6305 N   0  0  0  0  0  0  0  0  0  0  0  0
   20.6510   -6.1151  -14.9302 C   0  0  0  0  0  0  0  0  0  0  0  0
   20.0350   -5.3395  -15.8866 O   0  0  0  0  0  0  0  0  0  0  0  0
   21.4649   -5.6044  -14.1510 O   0  0  0  0  0  0  0  0  0  0  0  0
  2  4  1  0
  2  1  1  1
  3  2  1  0
  4  5  1  6
  6  4  1  0
  7  6  2  0
  9  8  1  1
  9 11  1  0
  9 10  1  0
 10  6  1  0
 11 18  1  0
 12 11  2  0
 14 13  1  0
 15 17  1  0
 15 14  1  0
 15 16  1  6
 17 18  1  6
 19 20  1  0
 19 17  1  0
 21 19  2  0
M  END
$$$$
