VAI.pdb
     RDKit          3D

 21 20  0  0  1  0  0  0  0  0999 V2000
   26.9604  -17.6741  -13.8118 C   0  0  0  0  0  0  0  0  0  0  0  0
   26.6005  -19.0289  -14.4242 C   0  0  2  0  0  0  0  0  0  0  0  0
   26.7376  -18.8929  -15.9067 C   0  0  0  0  0  0  0  0  0  0  0  0
   25.1900  -19.3709  -13.9708 C   0  0  2  0  0  0  0  0  0  0  0  0
   24.3220  -18.3823  -14.6359 N   0  0  0  0  0  0  0  0  0  0  0  0
   25.0086  -19.2140  -12.5097 C   0  0  0  0  0  0  0  0  0  0  0  0
   24.9620  -18.0490  -12.0272 O   0  0  0  0  0  0  0  0  0  0  0  0
   23.7314  -21.0060   -9.5483 C   0  0  0  0  0  0  0  0  0  0  0  0
   24.7302  -20.0388  -10.1447 C   0  0  2  0  0  0  0  0  0  0  0  0
   24.8792  -20.2852  -11.5864 N   0  0  0  0  0  0  0  0  0  0  0  0
   26.0329  -20.2434   -9.4875 C   0  0  0  0  0  0  0  0  0  0  0  0
   26.9489  -20.8887  -10.0538 O   0  0  0  0  0  0  0  0  0  0  0  0
   29.3410  -18.6653   -4.3904 C   0  0  0  0  0  0  0  0  0  0  0  0
   29.1294  -19.4369   -5.6594 C   0  0  0  0  0  0  0  0  0  0  0  0
   27.8153  -19.1992   -6.3145 C   0  0  2  0  0  0  0  0  0  0  0  0
   26.7107  -19.5516   -5.3186 C   0  0  0  0  0  0  0  0  0  0  0  0
   27.5498  -19.9641   -7.5677 C   0  0  2  0  0  0  0  0  0  0  0  0
   26.2902  -19.7175   -8.1963 N   0  0  0  0  0  0  0  0  0  0  0  0
   27.5905  -21.4232   -7.1904 C   0  0  0  0  0  0  0  0  0  0  0  0
   28.8206  -22.0289   -7.0651 O   0  0  0  0  0  0  0  0  0  0  0  0
   26.5578  -22.0756   -6.9947 O   0  0  0  0  0  0  0  0  0  0  0  0
  2  4  1  0
  2  1  1  1
  3  2  1  0
  4  5  1  6
  6  4  1  0
  7  6  2  0
  9  8  1  1
  9 11  1  0
  9 10  1  0
 10  6  1  0
 11 18  1  0
 12 11  2  0
 14 13  1  0
 15 17  1  0
 15 14  1  0
 15 16  1  1
 17 18  1  1
 19 20  1  0
 19 17  1  0
 21 19  2  0
M  END
$$$$
