VAI.pdb
     RDKit          3D

 21 20  0  0  1  0  0  0  0  0999 V2000
   27.5022  -26.8384  -15.6714 C   0  0  0  0  0  0  0  0  0  0  0  0
   26.9127  -26.3103  -16.9804 C   0  0  2  0  0  0  0  0  0  0  0  0
   27.0609  -24.8227  -16.9620 C   0  0  0  0  0  0  0  0  0  0  0  0
   25.4677  -26.7786  -17.0482 C   0  0  2  0  0  0  0  0  0  0  0  0
   25.0475  -26.5294  -18.4390 N   0  0  0  0  0  0  0  0  0  0  0  0
   24.5741  -25.9960  -16.1640 C   0  0  0  0  0  0  0  0  0  0  0  0
   24.7683  -26.0370  -14.9179 O   0  0  0  0  0  0  0  0  0  0  0  0
   22.0772  -23.2129  -16.3166 C   0  0  0  0  0  0  0  0  0  0  0  0
   22.6505  -24.4486  -15.6582 C   0  0  2  0  0  0  0  0  0  0  0  0
   23.4956  -25.1862  -16.6086 N   0  0  0  0  0  0  0  0  0  0  0  0
   21.5368  -25.3158  -15.2357 C   0  0  0  0  0  0  0  0  0  0  0  0
   21.1600  -26.2782  -15.9485 O   0  0  0  0  0  0  0  0  0  0  0  0
   20.9480  -27.8395  -10.4870 C   0  0  0  0  0  0  0  0  0  0  0  0
   20.9401  -27.3532  -11.9061 C   0  0  0  0  0  0  0  0  0  0  0  0
   19.7960  -26.4665  -12.2485 C   0  0  2  0  0  0  0  0  0  0  0  0
   18.5001  -27.2462  -12.0270 C   0  0  0  0  0  0  0  0  0  0  0  0
   19.7643  -25.9305  -13.6405 C   0  0  2  0  0  0  0  0  0  0  0  0
   20.8581  -25.0889  -14.0119 N   0  0  0  0  0  0  0  0  0  0  0  0
   18.5037  -25.1110  -13.7505 C   0  0  0  0  0  0  0  0  0  0  0  0
   17.3237  -25.7655  -14.0243 O   0  0  0  0  0  0  0  0  0  0  0  0
   18.5087  -23.8828  -13.6022 O   0  0  0  0  0  0  0  0  0  0  0  0
  2  4  1  0
  2  1  1  1
  3  2  1  0
  4  5  1  6
  6  4  1  0
  7  6  2  0
  9  8  1  6
  9 11  1  0
  9 10  1  0
 10  6  1  0
 11 18  1  0
 12 11  2  0
 14 13  1  0
 15 17  1  0
 15 14  1  0
 15 16  1  6
 17 18  1  1
 19 20  1  0
 19 17  1  0
 21 19  2  0
M  END
$$$$
