GPR.pdb
     RDKit          3D

 23 23  0  0  1  0  0  0  0  0999 V2000
    6.6585  -18.0821   18.4554 N   0  0  0  0  0  0  0  0  0  0  0  0
    6.4310  -16.6678   18.7869 C   0  0  0  0  0  0  0  0  0  0  0  0
    7.6551  -16.1128   19.3970 C   0  0  0  0  0  0  0  0  0  0  0  0
    8.6647  -16.8344   19.5898 O   0  0  0  0  0  0  0  0  0  0  0  0
    7.6955  -14.7517   19.7710 N   0  0  0  0  0  0  0  0  0  0  0  0
    6.6645  -13.7330   19.5302 C   0  0  0  0  0  0  0  0  0  0  0  0
    7.4912  -12.4942   19.2661 C   0  0  0  0  0  0  0  0  0  0  0  0
    8.6258  -12.6252   20.2236 C   0  0  0  0  0  0  0  0  0  0  0  0
    8.7602  -14.0994   20.4602 C   0  0  1  0  0  0  0  0  0  0  0  0
    8.7170  -14.3142   21.9283 C   0  0  0  0  0  0  0  0  0  0  0  0
    7.8245  -13.8326   22.6488 O   0  0  0  0  0  0  0  0  0  0  0  0
    8.2040  -20.8025   27.3908 N   0  0  0  0  0  0  0  0  0  0  0  0
    7.5921  -19.6145   26.9248 C   0  0  0  0  0  0  0  0  0  0  0  0
    7.3318  -18.6413   27.7513 N   0  0  0  0  0  0  0  0  0  0  0  0
    7.2328  -19.4081   25.5652 N   0  0  0  0  0  0  0  0  0  0  0  0
    6.8957  -18.0702   25.1219 C   0  0  0  0  0  0  0  0  0  0  0  0
    8.1711  -17.2544   25.1322 C   0  0  0  0  0  0  0  0  0  0  0  0
    8.3691  -16.4927   23.8519 C   0  0  0  0  0  0  0  0  0  0  0  0
    9.6398  -15.6753   23.8316 C   0  0  2  0  0  0  0  0  0  0  0  0
    9.7490  -15.1035   22.4970 N   0  0  0  0  0  0  0  0  0  0  0  0
   10.8397  -16.4848   24.0788 C   0  0  0  0  0  0  0  0  0  0  0  0
   11.3970  -17.1151   23.1616 O   0  0  0  0  0  0  0  0  0  0  0  0
   11.3635  -16.5509   25.3512 O   0  0  0  0  0  0  0  0  0  0  0  0
  2  1  1  0
  3  2  1  0
  4  3  2  0
  5  9  1  0
  5  3  1  0
  6  5  1  0
  7  6  1  0
  7  8  1  0
  8  9  1  0
  9 10  1  1
 10 11  2  0
 10 20  1  0
 13 12  1  0
 13 14  2  0
 15 13  1  0
 16 15  1  0
 16 17  1  0
 18 17  1  0
 19 18  1  6
 20 19  1  0
 21 19  1  0
 21 23  1  0
 22 21  2  0
M  END
$$$$
