GPR.pdb
     RDKit          3D

 23 23  0  0  1  0  0  0  0  0999 V2000
    6.2194  -18.1076   18.6396 N   0  0  0  0  0  0  0  0  0  0  0  0
    6.1793  -16.6887   19.0230 C   0  0  0  0  0  0  0  0  0  0  0  0
    7.5491  -16.2340   19.3323 C   0  0  0  0  0  0  0  0  0  0  0  0
    8.5109  -17.0415   19.3408 O   0  0  0  0  0  0  0  0  0  0  0  0
    7.7856  -14.8726   19.6235 N   0  0  0  0  0  0  0  0  0  0  0  0
    6.7982  -13.7850   19.6502 C   0  0  0  0  0  0  0  0  0  0  0  0
    7.5914  -12.6164   19.1089 C   0  0  0  0  0  0  0  0  0  0  0  0
    8.9444  -12.8128   19.7022 C   0  0  0  0  0  0  0  0  0  0  0  0
    9.0452  -14.2880   19.9489 C   0  0  1  0  0  0  0  0  0  0  0  0
    9.4172  -14.4703   21.3742 C   0  0  0  0  0  0  0  0  0  0  0  0
    8.6526  -14.1711   22.3088 O   0  0  0  0  0  0  0  0  0  0  0  0
    6.2962  -17.1742   26.2531 N   0  0  0  0  0  0  0  0  0  0  0  0
    7.1202  -17.9931   25.4447 C   0  0  0  0  0  0  0  0  0  0  0  0
    6.6329  -18.5721   24.3839 N   0  0  0  0  0  0  0  0  0  0  0  0
    8.4931  -18.2306   25.7255 N   0  0  0  0  0  0  0  0  0  0  0  0
    9.4566  -17.1800   25.4639 C   0  0  0  0  0  0  0  0  0  0  0  0
   10.3123  -17.6296   24.2986 C   0  0  0  0  0  0  0  0  0  0  0  0
   10.0646  -16.8116   23.0625 C   0  0  0  0  0  0  0  0  0  0  0  0
   11.0209  -15.6517   22.9102 C   0  0  2  0  0  0  0  0  0  0  0  0
   10.7014  -15.0087   21.6436 N   0  0  0  0  0  0  0  0  0  0  0  0
   12.4258  -16.0765   22.8626 C   0  0  0  0  0  0  0  0  0  0  0  0
   13.2180  -15.8012   23.7823 O   0  0  0  0  0  0  0  0  0  0  0  0
   12.8812  -16.7951   21.7792 O   0  0  0  0  0  0  0  0  0  0  0  0
  2  1  1  0
  3  2  1  0
  4  3  2  0
  5  9  1  0
  5  3  1  0
  6  5  1  0
  7  6  1  0
  7  8  1  0
  8  9  1  0
  9 10  1  1
 10 11  2  0
 10 20  1  0
 13 12  1  0
 13 14  2  0
 15 13  1  0
 16 15  1  0
 16 17  1  0
 18 17  1  0
 19 18  1  6
 20 19  1  0
 21 19  1  0
 21 23  1  0
 22 21  2  0
M  END
$$$$
