GPR.pdb
     RDKit          3D

 23 23  0  0  1  0  0  0  0  0999 V2000
    9.8258  -16.6496   16.0888 N   0  0  0  0  0  0  0  0  0  0  0  0
    8.7807  -15.8985   16.7998 C   0  0  0  0  0  0  0  0  0  0  0  0
    9.2584  -15.5765   18.1588 C   0  0  0  0  0  0  0  0  0  0  0  0
   10.2936  -16.1146   18.6236 O   0  0  0  0  0  0  0  0  0  0  0  0
    8.5441  -14.6510   18.9508 N   0  0  0  0  0  0  0  0  0  0  0  0
    7.3824  -13.8469   18.5477 C   0  0  0  0  0  0  0  0  0  0  0  0
    7.6162  -12.5491   19.2886 C   0  0  0  0  0  0  0  0  0  0  0  0
    8.1747  -12.9938   20.5968 C   0  0  0  0  0  0  0  0  0  0  0  0
    8.8207  -14.3157   20.3092 C   0  0  1  0  0  0  0  0  0  0  0  0
    8.2617  -15.2964   21.2730 C   0  0  0  0  0  0  0  0  0  0  0  0
    7.2952  -16.0295   20.9968 O   0  0  0  0  0  0  0  0  0  0  0  0
   10.3348  -16.3372   29.5262 N   0  0  0  0  0  0  0  0  0  0  0  0
   10.0124  -15.0070   29.1663 C   0  0  0  0  0  0  0  0  0  0  0  0
    9.7264  -14.1284   30.0851 N   0  0  0  0  0  0  0  0  0  0  0  0
    9.9815  -14.5529   27.8198 N   0  0  0  0  0  0  0  0  0  0  0  0
   10.3935  -15.4553   26.7634 C   0  0  0  0  0  0  0  0  0  0  0  0
    9.2898  -15.4743   25.7273 C   0  0  0  0  0  0  0  0  0  0  0  0
    9.6064  -16.3867   24.5758 C   0  0  0  0  0  0  0  0  0  0  0  0
    8.5316  -16.4063   23.5140 C   0  0  2  0  0  0  0  0  0  0  0  0
    8.8779  -15.3733   22.5480 N   0  0  0  0  0  0  0  0  0  0  0  0
    7.1990  -16.0997   24.0491 C   0  0  0  0  0  0  0  0  0  0  0  0
    6.7156  -14.9556   23.9691 O   0  0  0  0  0  0  0  0  0  0  0  0
    6.4645  -17.0963   24.6534 O   0  0  0  0  0  0  0  0  0  0  0  0
  2  1  1  0
  3  2  1  0
  4  3  2  0
  5  9  1  0
  5  3  1  0
  6  5  1  0
  7  6  1  0
  7  8  1  0
  8  9  1  0
  9 10  1  1
 10 11  2  0
 10 20  1  0
 13 12  1  0
 13 14  2  0
 15 13  1  0
 16 15  1  0
 16 17  1  0
 18 17  1  0
 19 18  1  1
 20 19  1  0
 21 19  1  0
 21 23  1  0
 22 21  2  0
M  END
$$$$
