GPR.pdb
     RDKit          3D

 23 23  0  0  1  0  0  0  0  0999 V2000
    8.0344  -12.1505   18.1516 N   0  0  0  0  0  0  0  0  0  0  0  0
    8.6452  -13.4794   18.0006 C   0  0  0  0  0  0  0  0  0  0  0  0
    8.3246  -14.2951   19.1883 C   0  0  0  0  0  0  0  0  0  0  0  0
    7.7570  -13.7866   20.1867 O   0  0  0  0  0  0  0  0  0  0  0  0
    8.6594  -15.6668   19.2065 N   0  0  0  0  0  0  0  0  0  0  0  0
    9.3493  -16.4271   18.1555 C   0  0  0  0  0  0  0  0  0  0  0  0
    8.6661  -17.7744   18.2314 C   0  0  0  0  0  0  0  0  0  0  0  0
    8.4524  -17.9717   19.6931 C   0  0  0  0  0  0  0  0  0  0  0  0
    8.3851  -16.5862   20.2618 C   0  0  1  0  0  0  0  0  0  0  0  0
    9.3770  -16.5154   21.3638 C   0  0  0  0  0  0  0  0  0  0  0  0
   10.5888  -16.3198   21.1616 O   0  0  0  0  0  0  0  0  0  0  0  0
    5.3034  -12.9342   27.4656 N   0  0  0  0  0  0  0  0  0  0  0  0
    6.2084  -12.1915   26.6704 C   0  0  0  0  0  0  0  0  0  0  0  0
    6.1352  -10.8911   26.6319 N   0  0  0  0  0  0  0  0  0  0  0  0
    7.2281  -12.7951   25.8856 N   0  0  0  0  0  0  0  0  0  0  0  0
    7.3532  -14.2389   25.8844 C   0  0  0  0  0  0  0  0  0  0  0  0
    8.5989  -14.5854   25.0968 C   0  0  0  0  0  0  0  0  0  0  0  0
    8.8062  -16.0697   24.9845 C   0  0  0  0  0  0  0  0  0  0  0  0
    9.7285  -16.4619   23.8538 C   0  0  2  0  0  0  0  0  0  0  0  0
    8.8887  -16.6816   22.6849 N   0  0  0  0  0  0  0  0  0  0  0  0
   10.4635  -17.7037   24.1253 C   0  0  0  0  0  0  0  0  0  0  0  0
    9.9834  -18.8166   23.8419 O   0  0  0  0  0  0  0  0  0  0  0  0
   11.7113  -17.6410   24.7057 O   0  0  0  0  0  0  0  0  0  0  0  0
  2  1  1  0
  3  2  1  0
  4  3  2  0
  5  9  1  0
  5  3  1  0
  6  5  1  0
  7  6  1  0
  7  8  1  0
  8  9  1  0
  9 10  1  1
 10 11  2  0
 10 20  1  0
 13 12  1  0
 13 14  2  0
 15 13  1  0
 16 15  1  0
 16 17  1  0
 18 17  1  0
 19 18  1  1
 20 19  1  0
 21 19  1  0
 21 23  1  0
 22 21  2  0
M  END
$$$$
