GPR.pdb
     RDKit          3D

 23 23  0  0  1  0  0  0  0  0999 V2000
    6.8315  -13.7281   21.2627 N   0  0  0  0  0  0  0  0  0  0  0  0
    6.3095  -13.2580   22.5544 C   0  0  0  0  0  0  0  0  0  0  0  0
    7.2831  -13.5833   23.6150 C   0  0  0  0  0  0  0  0  0  0  0  0
    8.3426  -14.2038   23.3506 O   0  0  0  0  0  0  0  0  0  0  0  0
    7.0233  -13.1935   24.9472 N   0  0  0  0  0  0  0  0  0  0  0  0
    5.8651  -12.4368   25.4417 C   0  0  0  0  0  0  0  0  0  0  0  0
    6.4789  -11.5818   26.5280 C   0  0  0  0  0  0  0  0  0  0  0  0
    7.4795  -12.4891   27.1580 C   0  0  0  0  0  0  0  0  0  0  0  0
    7.8485  -13.4621   26.0790 C   0  0  1  0  0  0  0  0  0  0  0  0
    7.6489  -14.8257   26.6304 C   0  0  0  0  0  0  0  0  0  0  0  0
    6.5231  -15.3424   26.7459 O   0  0  0  0  0  0  0  0  0  0  0  0
   10.7105  -16.6848   21.5579 N   0  0  0  0  0  0  0  0  0  0  0  0
   11.4531  -17.7758   22.0690 C   0  0  0  0  0  0  0  0  0  0  0  0
   12.6688  -17.9953   21.6544 N   0  0  0  0  0  0  0  0  0  0  0  0
   10.9396  -18.6772   23.0407 N   0  0  0  0  0  0  0  0  0  0  0  0
    9.6450  -18.4090   23.6343 C   0  0  0  0  0  0  0  0  0  0  0  0
    9.8893  -17.7848   24.9918 C   0  0  0  0  0  0  0  0  0  0  0  0
    8.6103  -17.5266   25.7375 C   0  0  0  0  0  0  0  0  0  0  0  0
    8.8284  -16.9897   27.1329 C   0  0  2  0  0  0  0  0  0  0  0  0
    8.8084  -15.5374   27.0310 N   0  0  0  0  0  0  0  0  0  0  0  0
   10.1237  -17.3878   27.6985 C   0  0  0  0  0  0  0  0  0  0  0  0
   11.1446  -16.6956   27.5313 O   0  0  0  0  0  0  0  0  0  0  0  0
   10.2160  -18.5511   28.4306 O   0  0  0  0  0  0  0  0  0  0  0  0
  2  1  1  0
  3  2  1  0
  4  3  2  0
  5  9  1  0
  5  3  1  0
  6  5  1  0
  7  6  1  0
  7  8  1  0
  8  9  1  0
  9 10  1  1
 10 11  2  0
 10 20  1  0
 13 12  1  0
 13 14  2  0
 15 13  1  0
 16 15  1  0
 16 17  1  0
 18 17  1  0
 19 18  1  6
 20 19  1  0
 21 19  1  0
 21 23  1  0
 22 21  2  0
M  END
$$$$
