GPR.pdb
     RDKit          3D

 23 23  0  0  1  0  0  0  0  0999 V2000
    7.7388  -12.0746   18.8550 N   0  0  0  0  0  0  0  0  0  0  0  0
    8.3622  -13.3733   18.5605 C   0  0  0  0  0  0  0  0  0  0  0  0
    8.0407  -14.3197   19.6466 C   0  0  0  0  0  0  0  0  0  0  0  0
    7.4130  -13.9425   20.6669 O   0  0  0  0  0  0  0  0  0  0  0  0
    8.4432  -15.6692   19.5411 N   0  0  0  0  0  0  0  0  0  0  0  0
    9.2447  -16.2762   18.4697 C   0  0  0  0  0  0  0  0  0  0  0  0
    8.6277  -17.6516   18.3457 C   0  0  0  0  0  0  0  0  0  0  0  0
    8.3202  -18.0209   19.7565 C   0  0  0  0  0  0  0  0  0  0  0  0
    8.1415  -16.7123   20.4657 C   0  0  1  0  0  0  0  0  0  0  0  0
    9.0469  -16.7231   21.6419 C   0  0  0  0  0  0  0  0  0  0  0  0
   10.2786  -16.5816   21.5392 O   0  0  0  0  0  0  0  0  0  0  0  0
    7.7009  -11.0950   27.1407 N   0  0  0  0  0  0  0  0  0  0  0  0
    6.5987  -11.9074   26.7828 C   0  0  0  0  0  0  0  0  0  0  0  0
    5.4690  -11.8019   27.4235 N   0  0  0  0  0  0  0  0  0  0  0  0
    6.6473  -12.8625   25.7314 N   0  0  0  0  0  0  0  0  0  0  0  0
    6.9430  -14.2450   26.0500 C   0  0  0  0  0  0  0  0  0  0  0  0
    7.7866  -14.7998   24.9218 C   0  0  0  0  0  0  0  0  0  0  0  0
    8.2274  -16.2126   25.1831 C   0  0  0  0  0  0  0  0  0  0  0  0
    9.2000  -16.7369   24.1525 C   0  0  2  0  0  0  0  0  0  0  0  0
    8.4502  -16.9044   22.9157 N   0  0  0  0  0  0  0  0  0  0  0  0
    9.7685  -18.0401   24.5194 C   0  0  0  0  0  0  0  0  0  0  0  0
    9.2476  -19.1049   24.1395 O   0  0  0  0  0  0  0  0  0  0  0  0
   10.9022  -18.0906   25.3003 O   0  0  0  0  0  0  0  0  0  0  0  0
  2  1  1  0
  3  2  1  0
  4  3  2  0
  5  9  1  0
  5  3  1  0
  6  5  1  0
  7  6  1  0
  7  8  1  0
  8  9  1  0
  9 10  1  1
 10 11  2  0
 10 20  1  0
 13 12  1  0
 13 14  2  0
 15 13  1  0
 16 15  1  0
 16 17  1  0
 18 17  1  0
 19 18  1  1
 20 19  1  0
 21 19  1  0
 21 23  1  0
 22 21  2  0
M  END
$$$$
