GPR.pdb
     RDKit          3D

 23 23  0  0  1  0  0  0  0  0999 V2000
    4.1849  -17.6798   21.6965 N   0  0  0  0  0  0  0  0  0  0  0  0
    4.7471  -16.3222   21.6448 C   0  0  0  0  0  0  0  0  0  0  0  0
    6.1863  -16.4081   21.3283 C   0  0  0  0  0  0  0  0  0  0  0  0
    6.8277  -17.4703   21.5222 O   0  0  0  0  0  0  0  0  0  0  0  0
    6.8552  -15.2822   20.8001 N   0  0  0  0  0  0  0  0  0  0  0  0
    6.2565  -14.0051   20.3887 C   0  0  0  0  0  0  0  0  0  0  0  0
    7.0965  -13.6274   19.1888 C   0  0  0  0  0  0  0  0  0  0  0  0
    8.4687  -14.0599   19.5776 C   0  0  0  0  0  0  0  0  0  0  0  0
    8.2568  -15.1715   20.5608 C   0  0  1  0  0  0  0  0  0  0  0  0
    9.0275  -14.8299   21.7825 C   0  0  0  0  0  0  0  0  0  0  0  0
    8.6238  -14.0017   22.6185 O   0  0  0  0  0  0  0  0  0  0  0  0
    9.9232  -17.0868   29.7873 N   0  0  0  0  0  0  0  0  0  0  0  0
   10.3511  -15.8275   29.3035 C   0  0  0  0  0  0  0  0  0  0  0  0
   10.2097  -14.7592   30.0362 N   0  0  0  0  0  0  0  0  0  0  0  0
   10.9474  -15.6485   28.0258 N   0  0  0  0  0  0  0  0  0  0  0  0
   10.1413  -15.8513   26.8386 C   0  0  0  0  0  0  0  0  0  0  0  0
   11.0388  -15.6343   25.6388 C   0  0  0  0  0  0  0  0  0  0  0  0
   10.2835  -15.7138   24.3420 C   0  0  0  0  0  0  0  0  0  0  0  0
   11.0943  -15.2661   23.1481 C   0  0  2  0  0  0  0  0  0  0  0  0
   10.2673  -15.4923   21.9713 N   0  0  0  0  0  0  0  0  0  0  0  0
   12.3360  -16.0329   22.9852 C   0  0  0  0  0  0  0  0  0  0  0  0
   12.3601  -17.0994   22.3439 O   0  0  0  0  0  0  0  0  0  0  0  0
   13.5014  -15.5660   23.5522 O   0  0  0  0  0  0  0  0  0  0  0  0
  2  1  1  0
  3  2  1  0
  4  3  2  0
  5  9  1  0
  5  3  1  0
  6  5  1  0
  7  6  1  0
  7  8  1  0
  8  9  1  0
  9 10  1  1
 10 11  2  0
 10 20  1  0
 13 12  1  0
 13 14  2  0
 15 13  1  0
 16 15  1  0
 16 17  1  0
 18 17  1  0
 19 18  1  1
 20 19  1  0
 21 19  1  0
 21 23  1  0
 22 21  2  0
M  END
$$$$
