GPR.pdb
     RDKit          3D

 23 23  0  0  1  0  0  0  0  0999 V2000
    6.9929  -18.2864   18.4404 N   0  0  0  0  0  0  0  0  0  0  0  0
    6.6817  -16.9353   18.9299 C   0  0  0  0  0  0  0  0  0  0  0  0
    7.9308  -16.2809   19.3659 C   0  0  0  0  0  0  0  0  0  0  0  0
    8.9982  -16.9339   19.4737 O   0  0  0  0  0  0  0  0  0  0  0  0
    7.9300  -14.9013   19.6672 N   0  0  0  0  0  0  0  0  0  0  0  0
    6.8193  -13.9549   19.4954 C   0  0  0  0  0  0  0  0  0  0  0  0
    7.5360  -12.6891   19.0808 C   0  0  0  0  0  0  0  0  0  0  0  0
    8.7744  -12.7058   19.9098 C   0  0  0  0  0  0  0  0  0  0  0  0
    9.0226  -14.1555   20.2001 C   0  0  1  0  0  0  0  0  0  0  0  0
    9.1535  -14.2921   21.6724 C   0  0  0  0  0  0  0  0  0  0  0  0
    8.3911  -13.7151   22.4682 O   0  0  0  0  0  0  0  0  0  0  0  0
    5.5095  -12.7088   25.5402 N   0  0  0  0  0  0  0  0  0  0  0  0
    6.4937  -12.9057   26.5380 C   0  0  0  0  0  0  0  0  0  0  0  0
    6.4825  -12.1851   27.6236 N   0  0  0  0  0  0  0  0  0  0  0  0
    7.5281  -13.8742   26.4277 N   0  0  0  0  0  0  0  0  0  0  0  0
    7.9698  -14.2848   25.1099 C   0  0  0  0  0  0  0  0  0  0  0  0
    8.4400  -15.7200   25.2162 C   0  0  0  0  0  0  0  0  0  0  0  0
    9.0607  -16.2110   23.9386 C   0  0  0  0  0  0  0  0  0  0  0  0
   10.3227  -15.4701   23.5624 C   0  0  2  0  0  0  0  0  0  0  0  0
   10.1992  -15.1201   22.1545 N   0  0  0  0  0  0  0  0  0  0  0  0
   11.5311  -16.2887   23.7229 C   0  0  0  0  0  0  0  0  0  0  0  0
   12.2962  -16.1324   24.6921 O   0  0  0  0  0  0  0  0  0  0  0  0
   11.8285  -17.2515   22.7835 O   0  0  0  0  0  0  0  0  0  0  0  0
  2  1  1  0
  3  2  1  0
  4  3  2  0
  5  9  1  0
  5  3  1  0
  6  5  1  0
  7  6  1  0
  7  8  1  0
  8  9  1  0
  9 10  1  1
 10 11  2  0
 10 20  1  0
 13 12  1  0
 13 14  2  0
 15 13  1  0
 16 15  1  0
 16 17  1  0
 18 17  1  0
 19 18  1  6
 20 19  1  0
 21 19  1  0
 21 23  1  0
 22 21  2  0
M  END
$$$$
