GPR.pdb
     RDKit          3D

 23 23  0  0  1  0  0  0  0  0999 V2000
    4.9255  -18.1769   27.1027 N   0  0  0  0  0  0  0  0  0  0  0  0
    5.5267  -16.9128   27.5526 C   0  0  0  0  0  0  0  0  0  0  0  0
    6.2017  -16.2665   26.4101 C   0  0  0  0  0  0  0  0  0  0  0  0
    6.0502  -16.7001   25.2412 O   0  0  0  0  0  0  0  0  0  0  0  0
    7.0307  -15.1447   26.6302 N   0  0  0  0  0  0  0  0  0  0  0  0
    7.2721  -14.4546   27.9046 C   0  0  0  0  0  0  0  0  0  0  0  0
    7.3872  -13.0099   27.4719 C   0  0  0  0  0  0  0  0  0  0  0  0
    8.1179  -13.0944   26.1758 C   0  0  0  0  0  0  0  0  0  0  0  0
    7.7985  -14.4589   25.6432 C   0  0  1  0  0  0  0  0  0  0  0  0
    9.0900  -15.1277   25.3465 C   0  0  0  0  0  0  0  0  0  0  0  0
    9.7463  -15.7302   26.2149 O   0  0  0  0  0  0  0  0  0  0  0  0
    7.8186  -12.2777   19.1439 N   0  0  0  0  0  0  0  0  0  0  0  0
    7.4817  -13.6394   18.9562 C   0  0  0  0  0  0  0  0  0  0  0  0
    6.6239  -13.9837   18.0379 N   0  0  0  0  0  0  0  0  0  0  0  0
    8.0406  -14.6913   19.7317 N   0  0  0  0  0  0  0  0  0  0  0  0
    9.2434  -14.4372   20.4991 C   0  0  0  0  0  0  0  0  0  0  0  0
    9.5839  -15.7109   21.2432 C   0  0  0  0  0  0  0  0  0  0  0  0
   10.8344  -15.5722   22.0652 C   0  0  0  0  0  0  0  0  0  0  0  0
   10.6338  -15.9144   23.5232 C   0  0  2  0  0  0  0  0  0  0  0  0
    9.5633  -15.0567   24.0115 N   0  0  0  0  0  0  0  0  0  0  0  0
   11.8290  -15.6572   24.3365 C   0  0  0  0  0  0  0  0  0  0  0  0
   12.7777  -16.4624   24.3677 O   0  0  0  0  0  0  0  0  0  0  0  0
   11.9067  -14.5017   25.0824 O   0  0  0  0  0  0  0  0  0  0  0  0
  2  1  1  0
  3  2  1  0
  4  3  2  0
  5  9  1  0
  5  3  1  0
  6  5  1  0
  7  6  1  0
  7  8  1  0
  8  9  1  0
  9 10  1  1
 10 11  2  0
 10 20  1  0
 13 12  1  0
 13 14  2  0
 15 13  1  0
 16 15  1  0
 16 17  1  0
 18 17  1  0
 19 18  1  6
 20 19  1  0
 21 19  1  0
 21 23  1  0
 22 21  2  0
M  END
$$$$
