GPR.pdb
     RDKit          3D

 23 23  0  0  1  0  0  0  0  0999 V2000
    7.9666  -11.9206   18.6223 N   0  0  0  0  0  0  0  0  0  0  0  0
    8.4792  -13.2713   18.3492 C   0  0  0  0  0  0  0  0  0  0  0  0
    8.1613  -14.1481   19.4932 C   0  0  0  0  0  0  0  0  0  0  0  0
    7.6564  -13.6808   20.5440 O   0  0  0  0  0  0  0  0  0  0  0  0
    8.4272  -15.5324   19.4093 N   0  0  0  0  0  0  0  0  0  0  0  0
    8.9654  -16.2655   18.2554 C   0  0  0  0  0  0  0  0  0  0  0  0
    8.2274  -17.5832   18.3381 C   0  0  0  0  0  0  0  0  0  0  0  0
    8.1571  -17.8485   19.8030 C   0  0  0  0  0  0  0  0  0  0  0  0
    8.2185  -16.4937   20.4420 C   0  0  1  0  0  0  0  0  0  0  0  0
    9.3218  -16.5261   21.4345 C   0  0  0  0  0  0  0  0  0  0  0  0
   10.5180  -16.4233   21.1086 O   0  0  0  0  0  0  0  0  0  0  0  0
    5.1446  -13.1319   26.9958 N   0  0  0  0  0  0  0  0  0  0  0  0
    6.1546  -12.3373   26.4029 C   0  0  0  0  0  0  0  0  0  0  0  0
    6.0602  -11.0377   26.4150 N   0  0  0  0  0  0  0  0  0  0  0  0
    7.3056  -12.8860   25.7751 N   0  0  0  0  0  0  0  0  0  0  0  0
    7.5234  -14.3176   25.8328 C   0  0  0  0  0  0  0  0  0  0  0  0
    8.8014  -14.6126   25.0766 C   0  0  0  0  0  0  0  0  0  0  0  0
    9.1467  -16.0751   25.0924 C   0  0  0  0  0  0  0  0  0  0  0  0
    9.9254  -16.5198   23.8763 C   0  0  2  0  0  0  0  0  0  0  0  0
    8.9612  -16.6816   22.7973 N   0  0  0  0  0  0  0  0  0  0  0  0
   10.6042  -17.8065   24.0759 C   0  0  0  0  0  0  0  0  0  0  0  0
   11.6303  -17.8968   24.7746 O   0  0  0  0  0  0  0  0  0  0  0  0
   10.0984  -18.9405   23.4793 O   0  0  0  0  0  0  0  0  0  0  0  0
  2  1  1  0
  3  2  1  0
  4  3  2  0
  5  9  1  0
  5  3  1  0
  6  5  1  0
  7  6  1  0
  7  8  1  0
  8  9  1  0
  9 10  1  1
 10 11  2  0
 10 20  1  0
 13 12  1  0
 13 14  2  0
 15 13  1  0
 16 15  1  0
 16 17  1  0
 18 17  1  0
 19 18  1  1
 20 19  1  0
 21 19  1  0
 21 23  1  0
 22 21  2  0
M  END
$$$$
