VGK.pdb
     RDKit          3D

 21 20  0  0  1  0  0  0  0  0999 V2000
    8.5658  -12.8186   20.2066 C   0  0  0  0  0  0  0  0  0  0  0  0
    8.0543  -13.7938   19.1814 C   0  0  2  0  0  0  0  0  0  0  0  0
    6.7315  -13.3649   18.5948 C   0  0  0  0  0  0  0  0  0  0  0  0
    7.9391  -15.1536   19.8796 C   0  0  2  0  0  0  0  0  0  0  0  0
    6.9734  -14.9767   20.9434 N   0  0  0  0  0  0  0  0  0  0  0  0
    9.2783  -15.4684   20.4344 C   0  0  0  0  0  0  0  0  0  0  0  0
   10.1391  -16.0955   19.7876 O   0  0  0  0  0  0  0  0  0  0  0  0
    9.5921  -15.0387   21.7542 N   0  0  0  0  0  0  0  0  0  0  0  0
   10.8741  -15.2884   22.3623 C   0  0  0  0  0  0  0  0  0  0  0  0
   10.6855  -15.6875   23.7738 C   0  0  0  0  0  0  0  0  0  0  0  0
   11.6860  -15.8275   24.5055 O   0  0  0  0  0  0  0  0  0  0  0  0
    9.4133  -15.9183   24.3320 N   0  0  0  0  0  0  0  0  0  0  0  0
    9.3091  -16.0677   25.7662 C   0  0  1  0  0  0  0  0  0  0  0  0
    7.9437  -15.5064   26.1232 C   0  0  0  0  0  0  0  0  0  0  0  0
    7.9218  -14.0464   26.3921 C   0  0  0  0  0  0  0  0  0  0  0  0
    6.6035  -13.4433   26.7132 C   0  0  0  0  0  0  0  0  0  0  0  0
    6.7190  -12.0053   27.1143 C   0  0  0  0  0  0  0  0  0  0  0  0
    5.4987  -11.3648   27.4739 N   0  0  0  0  0  0  0  0  0  0  0  0
    9.3317  -17.5039   26.1475 C   0  0  0  0  0  0  0  0  0  0  0  0
    9.3124  -18.3999   25.2742 O   0  0  0  0  0  0  0  0  0  0  0  0
    9.3746  -17.8826   27.4786 O   0  0  0  0  0  0  0  0  0  0  0  0
  2  4  1  0
  2  1  1  1
  3  2  1  0
  4  6  1  0
  4  5  1  1
  6  7  2  0
  8  6  1  0
  8  9  1  0
  9 10  1  0
 10 12  1  0
 10 11  2  0
 12 13  1  0
 13 19  1  0
 13 14  1  6
 14 15  1  0
 15 16  1  0
 16 17  1  0
 17 18  1  0
 19 21  1  0
 20 19  2  0
M  END
$$$$
