VGK.pdb
     RDKit          3D

 21 20  0  0  1  0  0  0  0  0999 V2000
    8.3615  -20.0805   20.9151 C   0  0  0  0  0  0  0  0  0  0  0  0
    7.1303  -19.4679   21.5257 C   0  0  2  0  0  0  0  0  0  0  0  0
    6.0344  -20.4829   21.7419 C   0  0  0  0  0  0  0  0  0  0  0  0
    6.6751  -18.3494   20.5817 C   0  0  2  0  0  0  0  0  0  0  0  0
    6.2870  -19.0000   19.3481 N   0  0  0  0  0  0  0  0  0  0  0  0
    7.8466  -17.4664   20.3625 C   0  0  0  0  0  0  0  0  0  0  0  0
    8.4544  -17.4200   19.2757 O   0  0  0  0  0  0  0  0  0  0  0  0
    8.2934  -16.6415   21.4324 N   0  0  0  0  0  0  0  0  0  0  0  0
    9.4424  -15.7804   21.3146 C   0  0  0  0  0  0  0  0  0  0  0  0
    9.6929  -15.1060   22.6066 C   0  0  0  0  0  0  0  0  0  0  0  0
   10.6648  -14.3309   22.7102 O   0  0  0  0  0  0  0  0  0  0  0  0
    8.8737  -15.3031   23.7351 N   0  0  0  0  0  0  0  0  0  0  0  0
    9.4607  -15.1435   25.0466 C   0  0  1  0  0  0  0  0  0  0  0  0
    8.3129  -14.7121   25.9428 C   0  0  0  0  0  0  0  0  0  0  0  0
    7.8243  -13.3301   25.7069 C   0  0  0  0  0  0  0  0  0  0  0  0
    6.6735  -12.8763   26.5281 C   0  0  0  0  0  0  0  0  0  0  0  0
    6.2684  -11.4702   26.2107 C   0  0  0  0  0  0  0  0  0  0  0  0
    5.1635  -10.9635   26.9532 N   0  0  0  0  0  0  0  0  0  0  0  0
    9.9780  -16.4418   25.5520 C   0  0  0  0  0  0  0  0  0  0  0  0
    9.5283  -17.5251   25.1158 O   0  0  0  0  0  0  0  0  0  0  0  0
   10.9697  -16.4816   26.5173 O   0  0  0  0  0  0  0  0  0  0  0  0
  2  4  1  0
  2  1  1  6
  3  2  1  0
  4  6  1  0
  4  5  1  6
  6  7  2  0
  8  6  1  0
  8  9  1  0
  9 10  1  0
 10 12  1  0
 10 11  2  0
 12 13  1  0
 13 19  1  0
 13 14  1  1
 14 15  1  0
 15 16  1  0
 16 17  1  0
 17 18  1  0
 19 21  1  0
 20 19  2  0
M  END
$$$$
