VGK.pdb
     RDKit          3D

 21 20  0  0  1  0  0  0  0  0999 V2000
    9.5300  -13.8640   19.6644 C   0  0  0  0  0  0  0  0  0  0  0  0
    8.1091  -13.6608   19.2132 C   0  0  2  0  0  0  0  0  0  0  0  0
    7.6831  -12.2155   19.3003 C   0  0  0  0  0  0  0  0  0  0  0  0
    7.2302  -14.5545   20.0954 C   0  0  2  0  0  0  0  0  0  0  0  0
    6.7925  -13.7233   21.1968 N   0  0  0  0  0  0  0  0  0  0  0  0
    8.0910  -15.6598   20.5828 C   0  0  0  0  0  0  0  0  0  0  0  0
    8.3775  -16.6452   19.8760 O   0  0  0  0  0  0  0  0  0  0  0  0
    8.6092  -15.5929   21.9064 N   0  0  0  0  0  0  0  0  0  0  0  0
    9.4317  -16.6349   22.4663 C   0  0  0  0  0  0  0  0  0  0  0  0
    9.8632  -16.2503   23.8275 C   0  0  0  0  0  0  0  0  0  0  0  0
   10.9457  -15.6482   23.9753 O   0  0  0  0  0  0  0  0  0  0  0  0
    9.0975  -16.5372   24.9741 N   0  0  0  0  0  0  0  0  0  0  0  0
    9.6078  -16.1241   26.2622 C   0  0  1  0  0  0  0  0  0  0  0  0
    8.4606  -15.3774   26.9201 C   0  0  0  0  0  0  0  0  0  0  0  0
    8.0514  -14.1296   26.2274 C   0  0  0  0  0  0  0  0  0  0  0  0
    6.9456  -13.3527   26.8424 C   0  0  0  0  0  0  0  0  0  0  0  0
    6.5956  -12.1341   26.0458 C   0  0  0  0  0  0  0  0  0  0  0  0
    5.5139  -11.3567   26.5500 N   0  0  0  0  0  0  0  0  0  0  0  0
    9.9311  -17.3064   27.1026 C   0  0  0  0  0  0  0  0  0  0  0  0
    9.5540  -18.4523   26.7701 O   0  0  0  0  0  0  0  0  0  0  0  0
   10.6574  -17.1660   28.2731 O   0  0  0  0  0  0  0  0  0  0  0  0
  2  4  1  0
  2  1  1  1
  3  2  1  0
  4  6  1  0
  4  5  1  1
  6  7  2  0
  8  6  1  0
  8  9  1  0
  9 10  1  0
 10 12  1  0
 10 11  2  0
 12 13  1  0
 13 19  1  0
 13 14  1  1
 14 15  1  0
 15 16  1  0
 16 17  1  0
 17 18  1  0
 19 21  1  0
 20 19  2  0
M  END
$$$$
