VGK.pdb
     RDKit          3D

 21 20  0  0  1  0  0  0  0  0999 V2000
    6.0885  -12.2503   27.1479 C   0  0  0  0  0  0  0  0  0  0  0  0
    7.0541  -12.6680   26.0722 C   0  0  2  0  0  0  0  0  0  0  0  0
    7.5654  -11.4925   25.2756 C   0  0  0  0  0  0  0  0  0  0  0  0
    6.3161  -13.6691   25.1763 C   0  0  2  0  0  0  0  0  0  0  0  0
    6.2086  -14.8909   25.9454 N   0  0  0  0  0  0  0  0  0  0  0  0
    7.1617  -13.8784   23.9756 C   0  0  0  0  0  0  0  0  0  0  0  0
    7.3786  -12.9749   23.1454 O   0  0  0  0  0  0  0  0  0  0  0  0
    7.7470  -15.1579   23.7636 N   0  0  0  0  0  0  0  0  0  0  0  0
    8.5518  -15.4558   22.6063 C   0  0  0  0  0  0  0  0  0  0  0  0
    9.9675  -15.5994   23.0088 C   0  0  0  0  0  0  0  0  0  0  0  0
   10.8320  -15.8002   22.1322 O   0  0  0  0  0  0  0  0  0  0  0  0
   10.3852  -15.5183   24.3513 N   0  0  0  0  0  0  0  0  0  0  0  0
   11.1795  -16.5994   24.8903 C   0  0  1  0  0  0  0  0  0  0  0  0
   10.4393  -17.0489   26.1380 C   0  0  0  0  0  0  0  0  0  0  0  0
   11.0131  -18.2446   26.8053 C   0  0  0  0  0  0  0  0  0  0  0  0
   11.3354  -18.1169   28.2491 C   0  0  0  0  0  0  0  0  0  0  0  0
   11.8835  -19.3864   28.8235 C   0  0  0  0  0  0  0  0  0  0  0  0
   12.1696  -19.3598   30.2186 N   0  0  0  0  0  0  0  0  0  0  0  0
   11.2223  -17.7429   23.9420 C   0  0  0  0  0  0  0  0  0  0  0  0
   10.1689  -18.2176   23.4614 O   0  0  0  0  0  0  0  0  0  0  0  0
   12.4296  -18.3088   23.5690 O   0  0  0  0  0  0  0  0  0  0  0  0
  2  4  1  0
  2  1  1  1
  3  2  1  0
  4  6  1  0
  4  5  1  1
  6  7  2  0
  8  6  1  0
  8  9  1  0
  9 10  1  0
 10 12  1  0
 10 11  2  0
 12 13  1  0
 13 19  1  0
 13 14  1  1
 14 15  1  0
 15 16  1  0
 16 17  1  0
 17 18  1  0
 19 21  1  0
 20 19  2  0
M  END
$$$$
