VGK.pdb
     RDKit          3D

 21 20  0  0  1  0  0  0  0  0999 V2000
    7.0525  -14.2744   19.5258 C   0  0  0  0  0  0  0  0  0  0  0  0
    8.0006  -13.1067   19.4906 C   0  0  2  0  0  0  0  0  0  0  0  0
    7.8004  -12.2449   18.2677 C   0  0  0  0  0  0  0  0  0  0  0  0
    9.4196  -13.6842   19.5386 C   0  0  2  0  0  0  0  0  0  0  0  0
    9.5213  -14.5899   18.4139 N   0  0  0  0  0  0  0  0  0  0  0  0
    9.5416  -14.4229   20.8191 C   0  0  0  0  0  0  0  0  0  0  0  0
    9.4010  -13.8687   21.9263 O   0  0  0  0  0  0  0  0  0  0  0  0
    9.8298  -15.8159   20.7825 N   0  0  0  0  0  0  0  0  0  0  0  0
    9.9325  -16.6140   21.9775 C   0  0  0  0  0  0  0  0  0  0  0  0
   11.2148  -16.3293   22.6568 C   0  0  0  0  0  0  0  0  0  0  0  0
   12.0058  -15.5113   22.1457 O   0  0  0  0  0  0  0  0  0  0  0  0
   11.5845  -16.9478   23.8669 N   0  0  0  0  0  0  0  0  0  0  0  0
   12.8826  -16.6433   24.4257 C   0  0  1  0  0  0  0  0  0  0  0  0
   12.8630  -17.2451   25.8201 C   0  0  0  0  0  0  0  0  0  0  0  0
   13.1305  -18.7046   25.8720 C   0  0  0  0  0  0  0  0  0  0  0  0
   13.0910  -19.3465   27.2103 C   0  0  0  0  0  0  0  0  0  0  0  0
   13.4165  -20.8068   27.1500 C   0  0  0  0  0  0  0  0  0  0  0  0
   13.4806  -21.4773   28.4050 N   0  0  0  0  0  0  0  0  0  0  0  0
   13.9586  -17.3127   23.6493 C   0  0  0  0  0  0  0  0  0  0  0  0
   13.6846  -18.1751   22.7850 O   0  0  0  0  0  0  0  0  0  0  0  0
   15.2892  -16.9966   23.8654 O   0  0  0  0  0  0  0  0  0  0  0  0
  2  4  1  0
  2  1  1  6
  3  2  1  0
  4  6  1  0
  4  5  1  6
  6  7  2  0
  8  6  1  0
  8  9  1  0
  9 10  1  0
 10 12  1  0
 10 11  2  0
 12 13  1  0
 13 19  1  0
 13 14  1  1
 14 15  1  0
 15 16  1  0
 16 17  1  0
 17 18  1  0
 19 21  1  0
 20 19  2  0
M  END
$$$$
