VGK.pdb
     RDKit          3D

 21 20  0  0  1  0  0  0  0  0999 V2000
    8.5510  -13.5644   16.6644 C   0  0  0  0  0  0  0  0  0  0  0  0
    8.0296  -14.1464   17.9502 C   0  0  2  0  0  0  0  0  0  0  0  0
    7.0878  -13.2063   18.6624 C   0  0  0  0  0  0  0  0  0  0  0  0
    9.2503  -14.4743   18.8173 C   0  0  2  0  0  0  0  0  0  0  0  0
    9.9845  -15.4980   18.1041 N   0  0  0  0  0  0  0  0  0  0  0  0
    8.7357  -14.9997   20.1055 C   0  0  0  0  0  0  0  0  0  0  0  0
    8.1022  -14.2909   20.9110 O   0  0  0  0  0  0  0  0  0  0  0  0
    8.9741  -16.3635   20.4341 N   0  0  0  0  0  0  0  0  0  0  0  0
    8.4120  -16.9841   21.6066 C   0  0  0  0  0  0  0  0  0  0  0  0
    8.8323  -16.2393   22.8131 C   0  0  0  0  0  0  0  0  0  0  0  0
   10.0123  -15.8454   22.9049 O   0  0  0  0  0  0  0  0  0  0  0  0
    7.9493  -15.9533   23.8724 N   0  0  0  0  0  0  0  0  0  0  0  0
    8.3811  -15.0282   24.8961 C   0  0  1  0  0  0  0  0  0  0  0  0
    7.1333  -14.2503   25.2766 C   0  0  0  0  0  0  0  0  0  0  0  0
    7.3574  -13.1515   26.2496 C   0  0  0  0  0  0  0  0  0  0  0  0
    6.1581  -12.4039   26.7049 C   0  0  0  0  0  0  0  0  0  0  0  0
    6.4930  -11.3575   27.7222 C   0  0  0  0  0  0  0  0  0  0  0  0
    5.3915  -10.6012   28.2156 N   0  0  0  0  0  0  0  0  0  0  0  0
    8.8535  -15.7603   26.1000 C   0  0  0  0  0  0  0  0  0  0  0  0
    8.4751  -16.9310   26.3285 O   0  0  0  0  0  0  0  0  0  0  0  0
    9.7233  -15.1627   26.9963 O   0  0  0  0  0  0  0  0  0  0  0  0
  2  4  1  0
  2  1  1  6
  3  2  1  0
  4  6  1  0
  4  5  1  6
  6  7  2  0
  8  6  1  0
  8  9  1  0
  9 10  1  0
 10 12  1  0
 10 11  2  0
 12 13  1  0
 13 19  1  0
 13 14  1  1
 14 15  1  0
 15 16  1  0
 16 17  1  0
 17 18  1  0
 19 21  1  0
 20 19  2  0
M  END
$$$$
