VGK.pdb
     RDKit          3D

 21 20  0  0  1  0  0  0  0  0999 V2000
    8.6252  -13.8823   18.8728 C   0  0  0  0  0  0  0  0  0  0  0  0
    7.3477  -13.9451   19.6651 C   0  0  2  0  0  0  0  0  0  0  0  0
    7.1112  -12.6894   20.4683 C   0  0  0  0  0  0  0  0  0  0  0  0
    7.4472  -15.1762   20.5727 C   0  0  2  0  0  0  0  0  0  0  0  0
    6.1366  -15.3444   21.1642 N   0  0  0  0  0  0  0  0  0  0  0  0
    8.4561  -14.8638   21.6143 C   0  0  0  0  0  0  0  0  0  0  0  0
    9.6815  -14.9449   21.4033 O   0  0  0  0  0  0  0  0  0  0  0  0
    8.0087  -14.4565   22.9022 N   0  0  0  0  0  0  0  0  0  0  0  0
    8.9210  -14.0913   23.9558 C   0  0  0  0  0  0  0  0  0  0  0  0
    9.3105  -15.2980   24.7168 C   0  0  0  0  0  0  0  0  0  0  0  0
   10.3056  -15.2492   25.4674 O   0  0  0  0  0  0  0  0  0  0  0  0
    8.5996  -16.5106   24.6294 N   0  0  0  0  0  0  0  0  0  0  0  0
    9.0356  -17.6229   25.4436 C   0  0  1  0  0  0  0  0  0  0  0  0
    7.8786  -18.6064   25.4202 C   0  0  0  0  0  0  0  0  0  0  0  0
    7.7088  -19.3975   26.6650 C   0  0  0  0  0  0  0  0  0  0  0  0
    6.6994  -20.4860   26.6355 C   0  0  0  0  0  0  0  0  0  0  0  0
    6.5570  -21.1652   27.9624 C   0  0  0  0  0  0  0  0  0  0  0  0
    5.5643  -22.1843   28.0309 N   0  0  0  0  0  0  0  0  0  0  0  0
   10.2181  -18.2869   24.8357 C   0  0  0  0  0  0  0  0  0  0  0  0
   10.3370  -18.3733   23.5930 O   0  0  0  0  0  0  0  0  0  0  0  0
   11.2151  -18.8250   25.6315 O   0  0  0  0  0  0  0  0  0  0  0  0
  2  4  1  0
  2  1  1  1
  3  2  1  0
  4  6  1  0
  4  5  1  1
  6  7  2  0
  8  6  1  0
  8  9  1  0
  9 10  1  0
 10 12  1  0
 10 11  2  0
 12 13  1  0
 13 19  1  0
 13 14  1  6
 14 15  1  0
 15 16  1  0
 16 17  1  0
 17 18  1  0
 19 21  1  0
 20 19  2  0
M  END
$$$$
