VGK.pdb
     RDKit          3D

 21 20  0  0  1  0  0  0  0  0999 V2000
    8.2937  -12.9185   26.2836 C   0  0  0  0  0  0  0  0  0  0  0  0
    6.9451  -12.4505   25.8082 C   0  0  2  0  0  0  0  0  0  0  0  0
    6.0390  -12.0633   26.9515 C   0  0  0  0  0  0  0  0  0  0  0  0
    6.3431  -13.5933   24.9830 C   0  0  2  0  0  0  0  0  0  0  0  0
    6.3132  -14.7462   25.8580 N   0  0  0  0  0  0  0  0  0  0  0  0
    7.2575  -13.8274   23.8388 C   0  0  0  0  0  0  0  0  0  0  0  0
    7.6942  -12.8991   23.1316 O   0  0  0  0  0  0  0  0  0  0  0  0
    7.6510  -15.1612   23.5370 N   0  0  0  0  0  0  0  0  0  0  0  0
    8.5755  -15.4714   22.4765 C   0  0  0  0  0  0  0  0  0  0  0  0
    9.8381  -15.9834   23.0515 C   0  0  0  0  0  0  0  0  0  0  0  0
   10.8356  -16.1103   22.3133 O   0  0  0  0  0  0  0  0  0  0  0  0
    9.9636  -16.3369   24.4090 N   0  0  0  0  0  0  0  0  0  0  0  0
   11.2386  -16.8346   24.8744 C   0  0  1  0  0  0  0  0  0  0  0  0
   11.1427  -16.8095   26.3899 C   0  0  0  0  0  0  0  0  0  0  0  0
   10.7642  -15.4953   26.9679 C   0  0  0  0  0  0  0  0  0  0  0  0
   10.5595  -15.4431   28.4377 C   0  0  0  0  0  0  0  0  0  0  0  0
   10.2314  -14.0630   28.9170 C   0  0  0  0  0  0  0  0  0  0  0  0
    9.9012  -13.9514   30.2980 N   0  0  0  0  0  0  0  0  0  0  0  0
   11.4394  -18.2441   24.4480 C   0  0  0  0  0  0  0  0  0  0  0  0
   10.4899  -18.9164   23.9872 O   0  0  0  0  0  0  0  0  0  0  0  0
   12.6825  -18.8450   24.5514 O   0  0  0  0  0  0  0  0  0  0  0  0
  2  4  1  0
  2  1  1  1
  3  2  1  0
  4  6  1  0
  4  5  1  1
  6  7  2  0
  8  6  1  0
  8  9  1  0
  9 10  1  0
 10 12  1  0
 10 11  2  0
 12 13  1  0
 13 19  1  0
 13 14  1  1
 14 15  1  0
 15 16  1  0
 16 17  1  0
 17 18  1  0
 19 21  1  0
 20 19  2  0
M  END
$$$$
