VGK.pdb
     RDKit          3D

 21 20  0  0  1  0  0  0  0  0999 V2000
    7.8887  -20.1072   19.2060 C   0  0  0  0  0  0  0  0  0  0  0  0
    9.1544  -19.2955   19.1536 C   0  0  2  0  0  0  0  0  0  0  0  0
    9.7654  -19.1010   20.5199 C   0  0  0  0  0  0  0  0  0  0  0  0
    8.7951  -17.9525   18.5080 C   0  0  2  0  0  0  0  0  0  0  0  0
   10.0470  -17.2492   18.3241 N   0  0  0  0  0  0  0  0  0  0  0  0
    7.9250  -17.2311   19.4687 C   0  0  0  0  0  0  0  0  0  0  0  0
    6.7178  -17.5041   19.6121 O   0  0  0  0  0  0  0  0  0  0  0  0
    8.4893  -16.1887   20.2560 N   0  0  0  0  0  0  0  0  0  0  0  0
    7.7140  -15.4354   21.2084 C   0  0  0  0  0  0  0  0  0  0  0  0
    8.5099  -15.2168   22.4355 C   0  0  0  0  0  0  0  0  0  0  0  0
    9.7477  -15.0914   22.3438 O   0  0  0  0  0  0  0  0  0  0  0  0
    7.9250  -15.1434   23.7145 N   0  0  0  0  0  0  0  0  0  0  0  0
    8.7747  -14.8311   24.8417 C   0  0  1  0  0  0  0  0  0  0  0  0
    7.8342  -14.2998   25.9094 C   0  0  0  0  0  0  0  0  0  0  0  0
    7.4810  -12.8645   25.7695 C   0  0  0  0  0  0  0  0  0  0  0  0
    6.5860  -12.2900   26.8057 C   0  0  0  0  0  0  0  0  0  0  0  0
    6.3008  -10.8392   26.5693 C   0  0  0  0  0  0  0  0  0  0  0  0
    5.4122  -10.2255   27.4980 N   0  0  0  0  0  0  0  0  0  0  0  0
    9.4223  -16.0610   25.3677 C   0  0  0  0  0  0  0  0  0  0  0  0
    8.9395  -17.1911   25.1322 O   0  0  0  0  0  0  0  0  0  0  0  0
   10.5752  -15.9834   26.1306 O   0  0  0  0  0  0  0  0  0  0  0  0
  2  4  1  0
  2  1  1  1
  3  2  1  0
  4  6  1  0
  4  5  1  1
  6  7  2  0
  8  6  1  0
  8  9  1  0
  9 10  1  0
 10 12  1  0
 10 11  2  0
 12 13  1  0
 13 19  1  0
 13 14  1  1
 14 15  1  0
 15 16  1  0
 16 17  1  0
 17 18  1  0
 19 21  1  0
 20 19  2  0
M  END
$$$$
