VGK.pdb
     RDKit          3D

 21 20  0  0  1  0  0  0  0  0999 V2000
    6.8696  -13.8670   20.3028 C   0  0  0  0  0  0  0  0  0  0  0  0
    8.2145  -13.2836   19.9641 C   0  0  2  0  0  0  0  0  0  0  0  0
    8.0991  -11.9644   19.2401 C   0  0  0  0  0  0  0  0  0  0  0  0
    8.9488  -14.3244   19.1114 C   0  0  2  0  0  0  0  0  0  0  0  0
    8.1790  -14.4584   17.8927 N   0  0  0  0  0  0  0  0  0  0  0  0
    8.9408  -15.5939   19.8785 C   0  0  0  0  0  0  0  0  0  0  0  0
    8.2176  -16.5592   19.5658 O   0  0  0  0  0  0  0  0  0  0  0  0
    9.7902  -15.7145   21.0138 N   0  0  0  0  0  0  0  0  0  0  0  0
    9.7857  -16.8804   21.8601 C   0  0  0  0  0  0  0  0  0  0  0  0
   10.7959  -16.7230   22.9287 C   0  0  0  0  0  0  0  0  0  0  0  0
   11.7782  -15.9794   22.7328 O   0  0  0  0  0  0  0  0  0  0  0  0
   10.6955  -17.3826   24.1689 N   0  0  0  0  0  0  0  0  0  0  0  0
   11.4328  -16.8495   25.2924 C   0  0  1  0  0  0  0  0  0  0  0  0
   10.3742  -16.3168   26.2422 C   0  0  0  0  0  0  0  0  0  0  0  0
   10.0524  -14.8775   26.0717 C   0  0  0  0  0  0  0  0  0  0  0  0
    9.0101  -14.3128   26.9658 C   0  0  0  0  0  0  0  0  0  0  0  0
    8.6685  -12.8972   26.6173 C   0  0  0  0  0  0  0  0  0  0  0  0
    7.6114  -12.3134   27.3726 N   0  0  0  0  0  0  0  0  0  0  0  0
   12.1785  -17.9287   25.9908 C   0  0  0  0  0  0  0  0  0  0  0  0
   11.7878  -19.1163   25.9379 O   0  0  0  0  0  0  0  0  0  0  0  0
   13.3230  -17.6438   26.7162 O   0  0  0  0  0  0  0  0  0  0  0  0
  2  4  1  0
  2  1  1  6
  3  2  1  0
  4  6  1  0
  4  5  1  6
  6  7  2  0
  8  6  1  0
  8  9  1  0
  9 10  1  0
 10 12  1  0
 10 11  2  0
 12 13  1  0
 13 19  1  0
 13 14  1  1
 14 15  1  0
 15 16  1  0
 16 17  1  0
 17 18  1  0
 19 21  1  0
 20 19  2  0
M  END
$$$$
