EQK.pdb
     RDKit          3D

 28 27  0  0  1  0  0  0  0  0999 V2000
   22.5524  -21.6617  -14.7222 N   0  0  0  0  0  0  0  0  0  0  0  0
   22.7734  -20.3160  -14.2179 C   0  0  1  0  0  0  0  0  0  0  0  0
   22.5614  -19.3676  -15.3507 C   0  0  0  0  0  0  0  0  0  0  0  0
   23.2243  -19.8645  -16.6024 C   0  0  0  0  0  0  0  0  0  0  0  0
   24.0083  -18.8498  -17.3112 C   0  0  0  0  0  0  0  0  0  0  0  0
   24.1014  -17.6477  -16.9653 O   0  0  0  0  0  0  0  0  0  0  0  0
   21.8256  -20.0219  -13.0877 C   0  0  0  0  0  0  0  0  0  0  0  0
   21.7455  -18.8532  -12.6913 O   0  0  0  0  0  0  0  0  0  0  0  0
   24.7286  -19.1856  -18.4672 O   0  0  0  0  0  0  0  0  0  0  0  0
   16.8446  -18.4530  -12.9011 N   0  0  0  0  0  0  0  0  0  0  0  0
   17.0050  -19.8050  -13.3561 C   0  0  0  0  0  0  0  0  0  0  0  0
   16.1231  -20.2201  -14.1436 O   0  0  0  0  0  0  0  0  0  0  0  0
   18.1608  -20.6105  -12.8887 C   0  0  0  0  0  0  0  0  0  0  0  0
   19.0481  -19.9354  -11.9210 C   0  0  0  0  0  0  0  0  0  0  0  0
   20.1413  -20.8277  -11.3944 C   0  0  2  0  0  0  0  0  0  0  0  0
   21.0773  -21.0628  -12.5307 N   0  0  0  0  0  0  0  0  0  0  0  0
   19.5968  -22.1393  -10.9693 C   0  0  0  0  0  0  0  0  0  0  0  0
   19.4654  -23.0800  -11.8390 O   0  0  0  0  0  0  0  0  0  0  0  0
   19.2006  -22.4769   -9.6722 N   0  0  0  0  0  0  0  0  0  0  0  0
   18.7290  -23.8227   -9.3224 C   0  0  1  0  0  0  0  0  0  0  0  0
   18.5824  -23.9045   -7.8101 C   0  0  0  0  0  0  0  0  0  0  0  0
   18.2207  -25.2808   -7.4036 C   0  0  0  0  0  0  0  0  0  0  0  0
   18.1846  -25.5127   -5.9078 C   0  0  0  0  0  0  0  0  0  0  0  0
   17.7844  -26.8753   -5.4838 C   0  0  0  0  0  0  0  0  0  0  0  0
   17.6499  -27.0927   -4.0774 N   0  0  0  0  0  0  0  0  0  0  0  0
   17.5174  -24.1670  -10.0526 C   0  0  0  0  0  0  0  0  0  0  0  0
   17.3298  -25.4801  -10.5295 O   0  0  0  0  0  0  0  0  0  0  0  0
   16.5849  -23.3832  -10.3114 O   0  0  0  0  0  0  0  0  0  0  0  0
  2  3  1  0
  2  1  1  6
  2  7  1  0
  3  4  1  0
  4  5  1  0
  5  6  2  0
  7 16  1  0
  8  7  2  0
  9  5  1  0
 11 10  1  0
 12 11  2  0
 13 11  1  0
 14 13  1  0
 15 14  1  6
 16 15  1  0
 17 19  1  0
 17 15  1  0
 18 17  2  0
 20 19  1  0
 20 26  1  0
 21 22  1  0
 20 21  1  1
 22 23  1  0
 24 23  1  0
 24 25  1  0
 26 27  1  0
 28 26  2  0
M  END
$$$$
