EQK.pdb
     RDKit          3D

 28 27  0  0  1  0  0  0  0  0999 V2000
   28.3967  -20.7910  -17.9921 N   0  0  0  0  0  0  0  0  0  0  0  0
   28.1172  -19.8901  -16.8856 C   0  0  1  0  0  0  0  0  0  0  0  0
   26.9376  -19.0584  -17.2660 C   0  0  0  0  0  0  0  0  0  0  0  0
   27.2992  -18.0626  -18.3293 C   0  0  0  0  0  0  0  0  0  0  0  0
   26.8021  -16.7074  -18.0782 C   0  0  0  0  0  0  0  0  0  0  0  0
   25.6224  -16.3303  -18.2770 O   0  0  0  0  0  0  0  0  0  0  0  0
   27.8386  -20.6750  -15.6332 C   0  0  0  0  0  0  0  0  0  0  0  0
   26.9913  -21.5739  -15.6924 O   0  0  0  0  0  0  0  0  0  0  0  0
   27.6597  -15.7154  -17.5798 O   0  0  0  0  0  0  0  0  0  0  0  0
   31.8458  -20.9493  -10.7281 N   0  0  0  0  0  0  0  0  0  0  0  0
   30.6414  -21.5154  -10.1897 C   0  0  0  0  0  0  0  0  0  0  0  0
   30.7295  -21.9701   -9.0254 O   0  0  0  0  0  0  0  0  0  0  0  0
   29.4026  -21.5329  -11.0072 C   0  0  0  0  0  0  0  0  0  0  0  0
   29.5415  -20.9875  -12.3720 C   0  0  0  0  0  0  0  0  0  0  0  0
   28.2815  -21.1025  -13.1890 C   0  0  2  0  0  0  0  0  0  0  0  0
   28.5356  -20.3681  -14.4612 N   0  0  0  0  0  0  0  0  0  0  0  0
   27.1422  -20.4491  -12.5016 C   0  0  0  0  0  0  0  0  0  0  0  0
   26.7665  -19.2761  -12.8779 O   0  0  0  0  0  0  0  0  0  0  0  0
   26.4006  -20.9960  -11.4507 N   0  0  0  0  0  0  0  0  0  0  0  0
   25.1051  -20.4437  -11.0354 C   0  0  1  0  0  0  0  0  0  0  0  0
   24.0718  -20.7858  -12.0986 C   0  0  0  0  0  0  0  0  0  0  0  0
   22.7331  -20.3096  -11.6847 C   0  0  0  0  0  0  0  0  0  0  0  0
   21.6126  -20.6505  -12.6444 C   0  0  0  0  0  0  0  0  0  0  0  0
   20.2739  -20.1373  -12.2689 C   0  0  0  0  0  0  0  0  0  0  0  0
   19.2290  -20.3176  -13.2276 N   0  0  0  0  0  0  0  0  0  0  0  0
   24.7437  -20.8868   -9.6965 C   0  0  0  0  0  0  0  0  0  0  0  0
   25.2011  -22.1310   -9.2172 O   0  0  0  0  0  0  0  0  0  0  0  0
   24.0383  -20.2490   -8.8924 O   0  0  0  0  0  0  0  0  0  0  0  0
  2  3  1  0
  2  1  1  6
  2  7  1  0
  3  4  1  0
  4  5  1  0
  5  6  2  0
  7 16  1  0
  8  7  2  0
  9  5  1  0
 11 10  1  0
 12 11  2  0
 13 11  1  0
 14 13  1  0
 15 14  1  1
 16 15  1  0
 17 19  1  0
 17 15  1  0
 18 17  2  0
 20 19  1  0
 20 26  1  0
 21 22  1  0
 20 21  1  6
 22 23  1  0
 24 23  1  0
 24 25  1  0
 26 27  1  0
 28 26  2  0
M  END
$$$$
