EQK.pdb
     RDKit          3D

 28 27  0  0  1  0  0  0  0  0999 V2000
   20.4634  -18.4924  -20.5107 N   0  0  0  0  0  0  0  0  0  0  0  0
   20.1152  -18.2296  -19.1237 C   0  0  1  0  0  0  0  0  0  0  0  0
   18.6272  -18.2705  -19.0150 C   0  0  0  0  0  0  0  0  0  0  0  0
   18.0904  -19.6034  -19.4489 C   0  0  0  0  0  0  0  0  0  0  0  0
   16.6283  -19.6959  -19.4362 C   0  0  0  0  0  0  0  0  0  0  0  0
   15.8580  -18.7915  -19.0336 O   0  0  0  0  0  0  0  0  0  0  0  0
   20.7471  -19.2569  -18.2250 C   0  0  0  0  0  0  0  0  0  0  0  0
   20.9828  -20.3733  -18.7017 O   0  0  0  0  0  0  0  0  0  0  0  0
   15.9841  -20.8548  -19.8945 O   0  0  0  0  0  0  0  0  0  0  0  0
   24.8329  -16.9712  -16.0695 N   0  0  0  0  0  0  0  0  0  0  0  0
   25.1902  -18.3284  -16.3713 C   0  0  0  0  0  0  0  0  0  0  0  0
   26.2803  -18.4816  -16.9697 O   0  0  0  0  0  0  0  0  0  0  0  0
   24.2857  -19.4367  -15.9754 C   0  0  0  0  0  0  0  0  0  0  0  0
   22.9645  -19.0194  -15.4659 C   0  0  0  0  0  0  0  0  0  0  0  0
   21.8279  -19.8357  -16.0228 C   0  0  2  0  0  0  0  0  0  0  0  0
   21.0432  -18.9215  -16.9008 N   0  0  0  0  0  0  0  0  0  0  0  0
   20.9346  -20.3099  -14.9389 C   0  0  0  0  0  0  0  0  0  0  0  0
   19.9877  -19.5437  -14.5208 O   0  0  0  0  0  0  0  0  0  0  0  0
   21.0120  -21.5517  -14.3022 N   0  0  0  0  0  0  0  0  0  0  0  0
   20.0518  -21.9645  -13.2709 C   0  0  1  0  0  0  0  0  0  0  0  0
   20.3000  -23.4284  -12.9389 C   0  0  0  0  0  0  0  0  0  0  0  0
   19.2185  -23.9485  -12.0728 C   0  0  0  0  0  0  0  0  0  0  0  0
   19.3822  -25.3931  -11.6501 C   0  0  0  0  0  0  0  0  0  0  0  0
   18.2004  -26.0037  -10.9967 C   0  0  0  0  0  0  0  0  0  0  0  0
   18.2853  -27.3991  -10.6987 N   0  0  0  0  0  0  0  0  0  0  0  0
   20.1012  -21.0803  -12.1152 C   0  0  0  0  0  0  0  0  0  0  0  0
   18.9203  -20.7758  -11.4084 O   0  0  0  0  0  0  0  0  0  0  0  0
   21.1289  -20.5396  -11.6652 O   0  0  0  0  0  0  0  0  0  0  0  0
  2  3  1  0
  2  1  1  6
  2  7  1  0
  3  4  1  0
  4  5  1  0
  5  6  2  0
  7 16  1  0
  8  7  2  0
  9  5  1  0
 11 10  1  0
 12 11  2  0
 13 11  1  0
 14 13  1  0
 15 14  1  1
 16 15  1  0
 17 19  1  0
 17 15  1  0
 18 17  2  0
 20 19  1  0
 20 26  1  0
 21 22  1  0
 20 21  1  1
 22 23  1  0
 24 23  1  0
 24 25  1  0
 26 27  1  0
 28 26  2  0
M  END
$$$$
