EQK.pdb
     RDKit          3D

 28 27  0  0  1  0  0  0  0  0999 V2000
   26.2475  -12.9587  -21.5717 N   0  0  0  0  0  0  0  0  0  0  0  0
   25.7533  -13.3660  -20.2663 C   0  0  1  0  0  0  0  0  0  0  0  0
   26.5116  -14.5841  -19.8551 C   0  0  0  0  0  0  0  0  0  0  0  0
   26.2527  -15.7247  -20.7958 C   0  0  0  0  0  0  0  0  0  0  0  0
   27.0258  -16.9340  -20.5019 C   0  0  0  0  0  0  0  0  0  0  0  0
   28.2740  -17.0233  -20.5882 O   0  0  0  0  0  0  0  0  0  0  0  0
   25.9408  -12.2555  -19.2694 C   0  0  0  0  0  0  0  0  0  0  0  0
   25.4852  -12.4189  -18.1314 O   0  0  0  0  0  0  0  0  0  0  0  0
   26.3802  -18.1094  -20.0899 O   0  0  0  0  0  0  0  0  0  0  0  0
   30.2940   -7.7095  -20.1675 N   0  0  0  0  0  0  0  0  0  0  0  0
   29.8258   -7.4915  -18.8282 C   0  0  0  0  0  0  0  0  0  0  0  0
   30.4795   -6.6622  -18.1537 O   0  0  0  0  0  0  0  0  0  0  0  0
   28.6388   -8.2306  -18.3301 C   0  0  0  0  0  0  0  0  0  0  0  0
   28.1103   -9.2619  -19.2446 C   0  0  0  0  0  0  0  0  0  0  0  0
   26.9410  -10.0201  -18.6732 C   0  0  2  0  0  0  0  0  0  0  0  0
   26.6137  -11.0928  -19.6553 N   0  0  0  0  0  0  0  0  0  0  0  0
   25.7539   -9.1422  -18.5398 C   0  0  0  0  0  0  0  0  0  0  0  0
   24.9844   -8.9623  -19.5567 O   0  0  0  0  0  0  0  0  0  0  0  0
   25.3641   -8.4674  -17.3796 N   0  0  0  0  0  0  0  0  0  0  0  0
   24.1174   -7.6955  -17.3037 C   0  0  1  0  0  0  0  0  0  0  0  0
   22.9455   -8.6592  -17.4187 C   0  0  0  0  0  0  0  0  0  0  0  0
   21.6651   -7.9206  -17.3464 C   0  0  0  0  0  0  0  0  0  0  0  0
   20.4263   -8.7840  -17.4594 C   0  0  0  0  0  0  0  0  0  0  0  0
   19.1373   -8.0526  -17.4536 C   0  0  0  0  0  0  0  0  0  0  0  0
   17.9580   -8.8356  -17.6519 N   0  0  0  0  0  0  0  0  0  0  0  0
   24.0812   -6.8615  -16.1108 C   0  0  0  0  0  0  0  0  0  0  0  0
   22.9936   -5.9926  -15.8898 O   0  0  0  0  0  0  0  0  0  0  0  0
   24.9541   -6.8358  -15.2230 O   0  0  0  0  0  0  0  0  0  0  0  0
  2  3  1  0
  2  1  1  6
  2  7  1  0
  3  4  1  0
  4  5  1  0
  5  6  2  0
  7 16  1  0
  8  7  2  0
  9  5  1  0
 11 10  1  0
 12 11  2  0
 13 11  1  0
 14 13  1  0
 15 14  1  6
 16 15  1  0
 17 19  1  0
 17 15  1  0
 18 17  2  0
 20 19  1  0
 20 26  1  0
 21 22  1  0
 20 21  1  1
 22 23  1  0
 24 23  1  0
 24 25  1  0
 26 27  1  0
 28 26  2  0
M  END
$$$$
