EQK.pdb
     RDKit          3D

 28 27  0  0  1  0  0  0  0  0999 V2000
   16.1466  -12.3515  -13.7415 N   0  0  0  0  0  0  0  0  0  0  0  0
   15.9276  -10.9145  -13.7758 C   0  0  1  0  0  0  0  0  0  0  0  0
   14.4735  -10.6726  -13.5422 C   0  0  0  0  0  0  0  0  0  0  0  0
   13.6526  -11.1529  -14.7034 C   0  0  0  0  0  0  0  0  0  0  0  0
   12.2136  -10.9168  -14.5612 C   0  0  0  0  0  0  0  0  0  0  0  0
   11.6736  -10.3674  -13.5713 O   0  0  0  0  0  0  0  0  0  0  0  0
   16.7602  -10.2361  -12.7228 C   0  0  0  0  0  0  0  0  0  0  0  0
   16.9678  -10.8484  -11.6687 O   0  0  0  0  0  0  0  0  0  0  0  0
   11.3239  -11.3117  -15.5714 O   0  0  0  0  0  0  0  0  0  0  0  0
   21.4652   -6.3303  -13.7876 N   0  0  0  0  0  0  0  0  0  0  0  0
   21.3000   -6.2431  -12.3643 C   0  0  0  0  0  0  0  0  0  0  0  0
   22.1905   -5.6077  -11.7533 O   0  0  0  0  0  0  0  0  0  0  0  0
   20.1299   -6.8850  -11.7148 C   0  0  0  0  0  0  0  0  0  0  0  0
   19.2289   -7.6190  -12.6252 C   0  0  0  0  0  0  0  0  0  0  0  0
   18.0323   -8.2107  -11.9276 C   0  0  2  0  0  0  0  0  0  0  0  0
   17.2648   -8.9555  -12.9661 N   0  0  0  0  0  0  0  0  0  0  0  0
   17.1553   -7.1463  -11.3840 C   0  0  0  0  0  0  0  0  0  0  0  0
   16.5572   -6.3453  -12.1958 O   0  0  0  0  0  0  0  0  0  0  0  0
   16.8951   -6.9154  -10.0303 N   0  0  0  0  0  0  0  0  0  0  0  0
   16.0284   -5.8213   -9.5747 C   0  0  1  0  0  0  0  0  0  0  0  0
   15.1261   -6.3491   -8.4691 C   0  0  0  0  0  0  0  0  0  0  0  0
   14.1012   -7.2559   -9.0326 C   0  0  0  0  0  0  0  0  0  0  0  0
   13.1264   -7.8200   -8.0207 C   0  0  0  0  0  0  0  0  0  0  0  0
   12.1735   -8.8261   -8.5461 C   0  0  0  0  0  0  0  0  0  0  0  0
   11.2185   -9.3467   -7.6187 N   0  0  0  0  0  0  0  0  0  0  0  0
   16.8066   -4.6511   -9.1937 C   0  0  0  0  0  0  0  0  0  0  0  0
   18.2147   -4.6941   -9.2401 O   0  0  0  0  0  0  0  0  0  0  0  0
   16.3333   -3.5640   -8.8129 O   0  0  0  0  0  0  0  0  0  0  0  0
  2  3  1  0
  2  1  1  1
  2  7  1  0
  3  4  1  0
  4  5  1  0
  5  6  2  0
  7 16  1  0
  8  7  2  0
  9  5  1  0
 11 10  1  0
 12 11  2  0
 13 11  1  0
 14 13  1  0
 15 14  1  6
 16 15  1  0
 17 19  1  0
 17 15  1  0
 18 17  2  0
 20 19  1  0
 20 26  1  0
 21 22  1  0
 20 21  1  1
 22 23  1  0
 24 23  1  0
 24 25  1  0
 26 27  1  0
 28 26  2  0
M  END
$$$$
