EQK.pdb
     RDKit          3D

 28 27  0  0  1  0  0  0  0  0999 V2000
   23.8945  -21.2492  -12.2303 N   0  0  0  0  0  0  0  0  0  0  0  0
   23.2458  -21.0888  -13.5217 C   0  0  1  0  0  0  0  0  0  0  0  0
   21.7822  -20.9292  -13.2762 C   0  0  0  0  0  0  0  0  0  0  0  0
   21.2013  -22.1648  -12.6526 C   0  0  0  0  0  0  0  0  0  0  0  0
   19.7580  -22.0946  -12.4106 C   0  0  0  0  0  0  0  0  0  0  0  0
   18.9324  -21.5318  -13.1688 O   0  0  0  0  0  0  0  0  0  0  0  0
   23.8033  -19.8899  -14.2385 C   0  0  0  0  0  0  0  0  0  0  0  0
   24.1783  -18.9310  -13.5535 O   0  0  0  0  0  0  0  0  0  0  0  0
   19.1988  -22.6799  -11.2649 O   0  0  0  0  0  0  0  0  0  0  0  0
   27.1439  -21.3837  -16.2090 N   0  0  0  0  0  0  0  0  0  0  0  0
   27.7022  -20.0871  -16.4692 C   0  0  0  0  0  0  0  0  0  0  0  0
   28.8891  -19.9244  -16.1019 O   0  0  0  0  0  0  0  0  0  0  0  0
   26.8778  -19.0465  -17.1331 C   0  0  0  0  0  0  0  0  0  0  0  0
   25.4676  -19.4152  -17.3669 C   0  0  0  0  0  0  0  0  0  0  0  0
   24.5170  -18.7803  -16.3862 C   0  0  2  0  0  0  0  0  0  0  0  0
   23.8786  -19.8981  -15.6342 N   0  0  0  0  0  0  0  0  0  0  0  0
   23.4487  -18.0325  -17.0914 C   0  0  0  0  0  0  0  0  0  0  0  0
   22.4912  -18.6822  -17.6568 O   0  0  0  0  0  0  0  0  0  0  0  0
   23.3656  -16.6421  -17.2067 N   0  0  0  0  0  0  0  0  0  0  0  0
   22.2145  -15.9750  -17.8280 C   0  0  1  0  0  0  0  0  0  0  0  0
   21.9680  -14.6614  -17.1007 C   0  0  0  0  0  0  0  0  0  0  0  0
   20.7923  -13.9700  -17.6752 C   0  0  0  0  0  0  0  0  0  0  0  0
   20.4581  -12.6418  -17.0294 C   0  0  0  0  0  0  0  0  0  0  0  0
   19.2814  -11.9380  -17.5921 C   0  0  0  0  0  0  0  0  0  0  0  0
   18.9136  -10.7072  -16.9652 N   0  0  0  0  0  0  0  0  0  0  0  0
   22.3975  -15.8291  -19.2650 C   0  0  0  0  0  0  0  0  0  0  0  0
   21.3168  -16.0565  -20.1409 O   0  0  0  0  0  0  0  0  0  0  0  0
   23.4617  -15.5084  -19.8269 O   0  0  0  0  0  0  0  0  0  0  0  0
  2  3  1  0
  2  1  1  1
  2  7  1  0
  3  4  1  0
  4  5  1  0
  5  6  2  0
  7 16  1  0
  8  7  2  0
  9  5  1  0
 11 10  1  0
 12 11  2  0
 13 11  1  0
 14 13  1  0
 15 14  1  6
 16 15  1  0
 17 19  1  0
 17 15  1  0
 18 17  2  0
 20 19  1  0
 20 26  1  0
 21 22  1  0
 20 21  1  1
 22 23  1  0
 24 23  1  0
 24 25  1  0
 26 27  1  0
 28 26  2  0
M  END
$$$$
