EQK.pdb
     RDKit          3D

 28 27  0  0  1  0  0  0  0  0999 V2000
   28.0844  -18.9119  -16.7552 N   0  0  0  0  0  0  0  0  0  0  0  0
   27.7967  -18.4795  -15.3972 C   0  0  1  0  0  0  0  0  0  0  0  0
   27.2695  -17.0850  -15.4684 C   0  0  0  0  0  0  0  0  0  0  0  0
   26.1608  -16.9774  -16.4745 C   0  0  0  0  0  0  0  0  0  0  0  0
   25.5816  -15.6366  -16.5902 C   0  0  0  0  0  0  0  0  0  0  0  0
   26.1291  -14.6689  -17.1710 O   0  0  0  0  0  0  0  0  0  0  0  0
   26.7930  -19.4005  -14.7595 C   0  0  0  0  0  0  0  0  0  0  0  0
   26.1039  -20.1072  -15.5045 O   0  0  0  0  0  0  0  0  0  0  0  0
   24.3269  -15.3522  -16.0310 O   0  0  0  0  0  0  0  0  0  0  0  0
   26.4441  -20.1912   -8.4060 N   0  0  0  0  0  0  0  0  0  0  0  0
   25.5212  -21.1570   -8.9316 C   0  0  0  0  0  0  0  0  0  0  0  0
   25.0147  -21.9360   -8.0910 O   0  0  0  0  0  0  0  0  0  0  0  0
   25.2263  -21.1829  -10.3860 C   0  0  0  0  0  0  0  0  0  0  0  0
   26.0424  -20.2695  -11.2101 C   0  0  0  0  0  0  0  0  0  0  0  0
   25.7473  -20.3745  -12.6833 C   0  0  2  0  0  0  0  0  0  0  0  0
   26.6737  -19.4277  -13.3671 N   0  0  0  0  0  0  0  0  0  0  0  0
   24.3578  -19.9500  -12.9775 C   0  0  0  0  0  0  0  0  0  0  0  0
   24.1538  -18.8287  -13.5772 O   0  0  0  0  0  0  0  0  0  0  0  0
   23.2011  -20.6696  -12.6649 N   0  0  0  0  0  0  0  0  0  0  0  0
   21.8804  -20.2945  -13.1856 C   0  0  1  0  0  0  0  0  0  0  0  0
   21.9533  -20.2586  -14.7049 C   0  0  0  0  0  0  0  0  0  0  0  0
   20.6455  -19.8607  -15.2719 C   0  0  0  0  0  0  0  0  0  0  0  0
   20.5915  -19.8304  -16.7847 C   0  0  0  0  0  0  0  0  0  0  0  0
   19.3253  -19.3263  -17.3672 C   0  0  0  0  0  0  0  0  0  0  0  0
   19.2736  -19.2251  -18.7921 N   0  0  0  0  0  0  0  0  0  0  0  0
   20.8373  -21.1667  -12.6649 C   0  0  0  0  0  0  0  0  0  0  0  0
   21.0352  -22.5618  -12.6315 O   0  0  0  0  0  0  0  0  0  0  0  0
   19.7353  -20.7886  -12.2247 O   0  0  0  0  0  0  0  0  0  0  0  0
  2  3  1  0
  2  1  1  6
  2  7  1  0
  3  4  1  0
  4  5  1  0
  5  6  2  0
  7 16  1  0
  8  7  2  0
  9  5  1  0
 11 10  1  0
 12 11  2  0
 13 11  1  0
 14 13  1  0
 15 14  1  1
 16 15  1  0
 17 19  1  0
 17 15  1  0
 18 17  2  0
 20 19  1  0
 20 26  1  0
 21 22  1  0
 20 21  1  6
 22 23  1  0
 24 23  1  0
 24 25  1  0
 26 27  1  0
 28 26  2  0
M  END
$$$$
