EQK.pdb
     RDKit          3D

 28 27  0  0  1  0  0  0  0  0999 V2000
   26.3315  -31.9044   -4.9761 N   0  0  0  0  0  0  0  0  0  0  0  0
   25.8747  -33.2225   -5.3861 C   0  0  1  0  0  0  0  0  0  0  0  0
   25.9774  -33.2946   -6.8734 C   0  0  0  0  0  0  0  0  0  0  0  0
   25.1409  -32.2320   -7.5247 C   0  0  0  0  0  0  0  0  0  0  0  0
   25.3189  -32.1317   -8.9755 C   0  0  0  0  0  0  0  0  0  0  0  0
   26.0547  -32.8829   -9.6593 O   0  0  0  0  0  0  0  0  0  0  0  0
   26.7144  -34.2889   -4.7382 C   0  0  0  0  0  0  0  0  0  0  0  0
   26.3883  -35.4682   -4.9175 O   0  0  0  0  0  0  0  0  0  0  0  0
   24.6448  -31.1440   -9.7090 O   0  0  0  0  0  0  0  0  0  0  0  0
   32.9080  -34.1496   -4.1235 N   0  0  0  0  0  0  0  0  0  0  0  0
   32.0960  -34.6734   -5.1851 C   0  0  0  0  0  0  0  0  0  0  0  0
   32.6982  -34.9241   -6.2550 O   0  0  0  0  0  0  0  0  0  0  0  0
   30.6423  -34.8825   -4.9702 C   0  0  0  0  0  0  0  0  0  0  0  0
   30.1349  -34.4636   -3.6486 C   0  0  0  0  0  0  0  0  0  0  0  0
   28.7319  -34.9371   -3.3734 C   0  0  2  0  0  0  0  0  0  0  0  0
   27.8193  -33.9184   -3.9664 N   0  0  0  0  0  0  0  0  0  0  0  0
   28.4684  -34.9962   -1.9157 C   0  0  0  0  0  0  0  0  0  0  0  0
   28.1556  -33.9169   -1.2865 O   0  0  0  0  0  0  0  0  0  0  0  0
   28.5207  -36.1459   -1.1228 N   0  0  0  0  0  0  0  0  0  0  0  0
   28.1074  -36.1454    0.2861 C   0  0  1  0  0  0  0  0  0  0  0  0
   27.6709  -37.5539    0.6613 C   0  0  0  0  0  0  0  0  0  0  0  0
   27.1054  -37.5683    2.0289 C   0  0  0  0  0  0  0  0  0  0  0  0
   26.5365  -38.9013    2.4672 C   0  0  0  0  0  0  0  0  0  0  0  0
   25.8290  -38.8950    3.7694 C   0  0  0  0  0  0  0  0  0  0  0  0
   25.2271  -40.1263    4.1752 N   0  0  0  0  0  0  0  0  0  0  0  0
   29.1500  -35.6018    1.1449 C   0  0  0  0  0  0  0  0  0  0  0  0
   28.8067  -34.7862    2.2420 O   0  0  0  0  0  0  0  0  0  0  0  0
   30.3724  -35.7928    1.0032 O   0  0  0  0  0  0  0  0  0  0  0  0
  2  3  1  0
  2  1  1  1
  2  7  1  0
  3  4  1  0
  4  5  1  0
  5  6  2  0
  7 16  1  0
  8  7  2  0
  9  5  1  0
 11 10  1  0
 12 11  2  0
 13 11  1  0
 14 13  1  0
 15 14  1  1
 16 15  1  0
 17 19  1  0
 17 15  1  0
 18 17  2  0
 20 19  1  0
 20 26  1  0
 21 22  1  0
 20 21  1  1
 22 23  1  0
 24 23  1  0
 24 25  1  0
 26 27  1  0
 28 26  2  0
M  END
$$$$
