EQK.pdb
     RDKit          3D

 28 27  0  0  1  0  0  0  0  0999 V2000
   12.8355   -9.8717  -10.7515 N   0  0  0  0  0  0  0  0  0  0  0  0
   14.2552   -9.7392  -11.0364 C   0  0  1  0  0  0  0  0  0  0  0  0
   14.5045  -10.3360  -12.3815 C   0  0  0  0  0  0  0  0  0  0  0  0
   14.3399  -11.8276  -12.3495 C   0  0  0  0  0  0  0  0  0  0  0  0
   15.5976  -12.5690  -12.2267 C   0  0  0  0  0  0  0  0  0  0  0  0
   16.7317  -12.0420  -12.1289 O   0  0  0  0  0  0  0  0  0  0  0  0
   14.6582   -8.2903  -11.0094 C   0  0  0  0  0  0  0  0  0  0  0  0
   13.9174   -7.4750  -11.5713 O   0  0  0  0  0  0  0  0  0  0  0  0
   15.5988  -13.9718  -12.2120 O   0  0  0  0  0  0  0  0  0  0  0  0
   13.0940   -5.0844   -6.6825 N   0  0  0  0  0  0  0  0  0  0  0  0
   14.4326   -5.3549   -7.1249 C   0  0  0  0  0  0  0  0  0  0  0  0
   15.3373   -5.1186   -6.2909 O   0  0  0  0  0  0  0  0  0  0  0  0
   14.6674   -5.8792   -8.4936 C   0  0  0  0  0  0  0  0  0  0  0  0
   16.0851   -6.0567   -8.8649 C   0  0  0  0  0  0  0  0  0  0  0  0
   16.2750   -6.4941  -10.2936 C   0  0  2  0  0  0  0  0  0  0  0  0
   15.8385   -7.9180  -10.3599 N   0  0  0  0  0  0  0  0  0  0  0  0
   17.7046   -6.4338  -10.6811 C   0  0  0  0  0  0  0  0  0  0  0  0
   18.5068   -7.3582  -10.2806 O   0  0  0  0  0  0  0  0  0  0  0  0
   18.2950   -5.4433  -11.4709 N   0  0  0  0  0  0  0  0  0  0  0  0
   19.5855   -5.6424  -12.1423 C   0  0  1  0  0  0  0  0  0  0  0  0
   19.5819   -7.0159  -12.7970 C   0  0  0  0  0  0  0  0  0  0  0  0
   20.8865   -7.2789  -13.4443 C   0  0  0  0  0  0  0  0  0  0  0  0
   21.0590   -8.6854  -13.9778 C   0  0  0  0  0  0  0  0  0  0  0  0
   22.4266   -9.0313  -14.4322 C   0  0  0  0  0  0  0  0  0  0  0  0
   22.6798  -10.4119  -14.7020 N   0  0  0  0  0  0  0  0  0  0  0  0
   19.8802   -4.5514  -13.0603 C   0  0  0  0  0  0  0  0  0  0  0  0
   21.2098   -4.1190  -13.2391 O   0  0  0  0  0  0  0  0  0  0  0  0
   19.0380   -3.9313  -13.7364 O   0  0  0  0  0  0  0  0  0  0  0  0
  2  3  1  0
  2  1  1  6
  2  7  1  0
  3  4  1  0
  4  5  1  0
  5  6  2  0
  7 16  1  0
  8  7  2  0
  9  5  1  0
 11 10  1  0
 12 11  2  0
 13 11  1  0
 14 13  1  0
 15 14  1  1
 16 15  1  0
 17 19  1  0
 17 15  1  0
 18 17  2  0
 20 19  1  0
 20 26  1  0
 21 22  1  0
 20 21  1  6
 22 23  1  0
 24 23  1  0
 24 25  1  0
 26 27  1  0
 28 26  2  0
M  END
$$$$
