EQK.pdb
     RDKit          3D

 28 27  0  0  1  0  0  0  0  0999 V2000
   19.9919   -6.0783  -16.0559 N   0  0  0  0  0  0  0  0  0  0  0  0
   21.0253   -6.4953  -15.1219 C   0  0  1  0  0  0  0  0  0  0  0  0
   20.6088   -6.0524  -13.7588 C   0  0  0  0  0  0  0  0  0  0  0  0
   20.4905   -4.5577  -13.6891 C   0  0  0  0  0  0  0  0  0  0  0  0
   21.7682   -3.8605  -13.5219 C   0  0  0  0  0  0  0  0  0  0  0  0
   21.9273   -2.6217  -13.6376 O   0  0  0  0  0  0  0  0  0  0  0  0
   21.1992   -7.9884  -15.1710 C   0  0  0  0  0  0  0  0  0  0  0  0
   22.0235   -8.4987  -14.4032 O   0  0  0  0  0  0  0  0  0  0  0  0
   22.9341   -4.5755  -13.2096 O   0  0  0  0  0  0  0  0  0  0  0  0
   16.6924  -12.0611  -15.7350 N   0  0  0  0  0  0  0  0  0  0  0  0
   17.8416  -12.8912  -15.9609 C   0  0  0  0  0  0  0  0  0  0  0  0
   17.6256  -14.1254  -15.9688 O   0  0  0  0  0  0  0  0  0  0  0  0
   19.1741  -12.2699  -16.1650 C   0  0  0  0  0  0  0  0  0  0  0  0
   19.1969  -10.7951  -16.1040 C   0  0  0  0  0  0  0  0  0  0  0  0
   20.5868  -10.2189  -16.1725 C   0  0  2  0  0  0  0  0  0  0  0  0
   20.4352   -8.7395  -16.0687 N   0  0  0  0  0  0  0  0  0  0  0  0
   21.2241  -10.5247  -17.4755 C   0  0  0  0  0  0  0  0  0  0  0  0
   20.8103   -9.9241  -18.5370 O   0  0  0  0  0  0  0  0  0  0  0  0
   22.2713  -11.4274  -17.6800 N   0  0  0  0  0  0  0  0  0  0  0  0
   22.8310  -11.6893  -19.0120 C   0  0  1  0  0  0  0  0  0  0  0  0
   24.2297  -12.2639  -18.8430 C   0  0  0  0  0  0  0  0  0  0  0  0
   24.8896  -12.4031  -20.1603 C   0  0  0  0  0  0  0  0  0  0  0  0
   26.2890  -12.9791  -20.1123 C   0  0  0  0  0  0  0  0  0  0  0  0
   26.9388  -13.1851  -21.4283 C   0  0  0  0  0  0  0  0  0  0  0  0
   28.1898  -13.8766  -21.4216 N   0  0  0  0  0  0  0  0  0  0  0  0
   21.9416  -12.5243  -19.8067 C   0  0  0  0  0  0  0  0  0  0  0  0
   21.1974  -13.5499  -19.1894 O   0  0  0  0  0  0  0  0  0  0  0  0
   21.7620  -12.4205  -21.0347 O   0  0  0  0  0  0  0  0  0  0  0  0
  2  3  1  0
  2  1  1  6
  2  7  1  0
  3  4  1  0
  4  5  1  0
  5  6  2  0
  7 16  1  0
  8  7  2  0
  9  5  1  0
 11 10  1  0
 12 11  2  0
 13 11  1  0
 14 13  1  0
 15 14  1  6
 16 15  1  0
 17 19  1  0
 17 15  1  0
 18 17  2  0
 20 19  1  0
 20 26  1  0
 21 22  1  0
 20 21  1  1
 22 23  1  0
 24 23  1  0
 24 25  1  0
 26 27  1  0
 28 26  2  0
M  END
$$$$
