EQK.pdb
     RDKit          3D

 28 27  0  0  1  0  0  0  0  0999 V2000
   26.8987  -18.7616  -15.6179 N   0  0  0  0  0  0  0  0  0  0  0  0
   26.1046  -19.7387  -16.3451 C   0  0  1  0  0  0  0  0  0  0  0  0
   27.0486  -20.6497  -17.0568 C   0  0  0  0  0  0  0  0  0  0  0  0
   27.8472  -21.4674  -16.0838 C   0  0  0  0  0  0  0  0  0  0  0  0
   28.7255  -22.4588  -16.7101 C   0  0  0  0  0  0  0  0  0  0  0  0
   28.8326  -22.6394  -17.9467 O   0  0  0  0  0  0  0  0  0  0  0  0
   25.2297  -20.5091  -15.3947 C   0  0  0  0  0  0  0  0  0  0  0  0
   24.5075  -21.3957  -15.8654 O   0  0  0  0  0  0  0  0  0  0  0  0
   29.5292  -23.2966  -15.9225 O   0  0  0  0  0  0  0  0  0  0  0  0
   26.0633  -20.3675   -9.0838 N   0  0  0  0  0  0  0  0  0  0  0  0
   24.8606  -21.1353   -9.2412 C   0  0  0  0  0  0  0  0  0  0  0  0
   24.3966  -21.6371   -8.1911 O   0  0  0  0  0  0  0  0  0  0  0  0
   24.2527  -21.2900  -10.5865 C   0  0  0  0  0  0  0  0  0  0  0  0
   24.9756  -20.6188  -11.6848 C   0  0  0  0  0  0  0  0  0  0  0  0
   24.4224  -20.9451  -13.0471 C   0  0  2  0  0  0  0  0  0  0  0  0
   25.2609  -20.2029  -14.0312 N   0  0  0  0  0  0  0  0  0  0  0  0
   23.0258  -20.4664  -13.1809 C   0  0  0  0  0  0  0  0  0  0  0  0
   22.7790  -19.2057  -13.0892 O   0  0  0  0  0  0  0  0  0  0  0  0
   21.9059  -21.2705  -13.4105 N   0  0  0  0  0  0  0  0  0  0  0  0
   20.5431  -20.7249  -13.4432 C   0  0  1  0  0  0  0  0  0  0  0  0
   19.8912  -21.1337  -14.7559 C   0  0  0  0  0  0  0  0  0  0  0  0
   18.4885  -20.6639  -14.8001 C   0  0  0  0  0  0  0  0  0  0  0  0
   17.7246  -21.0601  -16.0459 C   0  0  0  0  0  0  0  0  0  0  0  0
   16.3559  -20.5031  -16.1582 C   0  0  0  0  0  0  0  0  0  0  0  0
   15.6885  -20.6958  -17.4075 N   0  0  0  0  0  0  0  0  0  0  0  0
   19.7868  -21.1145  -12.2617 C   0  0  0  0  0  0  0  0  0  0  0  0
   18.8769  -20.2110  -11.6764 O   0  0  0  0  0  0  0  0  0  0  0  0
   19.8646  -22.2170  -11.6877 O   0  0  0  0  0  0  0  0  0  0  0  0
  2  3  1  0
  2  1  1  1
  2  7  1  0
  3  4  1  0
  4  5  1  0
  5  6  2  0
  7 16  1  0
  8  7  2  0
  9  5  1  0
 11 10  1  0
 12 11  2  0
 13 11  1  0
 14 13  1  0
 15 14  1  1
 16 15  1  0
 17 19  1  0
 17 15  1  0
 18 17  2  0
 20 19  1  0
 20 26  1  0
 21 22  1  0
 20 21  1  6
 22 23  1  0
 24 23  1  0
 24 25  1  0
 26 27  1  0
 28 26  2  0
M  END
$$$$
