EQK.pdb
     RDKit          3D

 28 27  0  0  1  0  0  0  0  0999 V2000
   21.2345  -13.0491  -15.4307 N   0  0  0  0  0  0  0  0  0  0  0  0
   20.7242  -13.0724  -16.7920 C   0  0  1  0  0  0  0  0  0  0  0  0
   19.7118  -14.1657  -16.8773 C   0  0  0  0  0  0  0  0  0  0  0  0
   20.1191  -15.3453  -16.0433 C   0  0  0  0  0  0  0  0  0  0  0  0
   19.1706  -16.4615  -16.0763 C   0  0  0  0  0  0  0  0  0  0  0  0
   19.2751  -17.4670  -16.8188 O   0  0  0  0  0  0  0  0  0  0  0  0
   20.1100  -11.7443  -17.1401 C   0  0  0  0  0  0  0  0  0  0  0  0
   19.7452  -11.5659  -18.3082 O   0  0  0  0  0  0  0  0  0  0  0  0
   18.0437  -16.4633  -15.2407 O   0  0  0  0  0  0  0  0  0  0  0  0
   15.7050   -9.4168  -13.9805 N   0  0  0  0  0  0  0  0  0  0  0  0
   15.7771   -8.5773  -15.1428 C   0  0  0  0  0  0  0  0  0  0  0  0
   14.7556   -7.8916  -15.3803 O   0  0  0  0  0  0  0  0  0  0  0  0
   17.0087   -8.5653  -15.9712 C   0  0  0  0  0  0  0  0  0  0  0  0
   18.1087   -9.4161  -15.4758 C   0  0  0  0  0  0  0  0  0  0  0  0
   19.2836   -9.4758  -16.4162 C   0  0  2  0  0  0  0  0  0  0  0  0
   19.9733  -10.7698  -16.1474 N   0  0  0  0  0  0  0  0  0  0  0  0
   20.2415   -8.3789  -16.1386 C   0  0  0  0  0  0  0  0  0  0  0  0
   21.4792   -8.6614  -15.9221 O   0  0  0  0  0  0  0  0  0  0  0  0
   19.9311   -7.0170  -16.0906 N   0  0  0  0  0  0  0  0  0  0  0  0
   20.9680   -5.9779  -16.0565 C   0  0  1  0  0  0  0  0  0  0  0  0
   21.9691   -6.2587  -17.1674 C   0  0  0  0  0  0  0  0  0  0  0  0
   23.0466   -5.2443  -17.1553 C   0  0  0  0  0  0  0  0  0  0  0  0
   24.1224   -5.4476  -18.2011 C   0  0  0  0  0  0  0  0  0  0  0  0
   25.1952   -4.4252  -18.2187 C   0  0  0  0  0  0  0  0  0  0  0  0
   26.2118   -4.5834  -19.2110 N   0  0  0  0  0  0  0  0  0  0  0  0
   20.3854   -4.6447  -16.1097 C   0  0  0  0  0  0  0  0  0  0  0  0
   21.0050   -3.5760  -15.4310 O   0  0  0  0  0  0  0  0  0  0  0  0
   19.3461   -4.3366  -16.7229 O   0  0  0  0  0  0  0  0  0  0  0  0
  2  3  1  0
  2  1  1  1
  2  7  1  0
  3  4  1  0
  4  5  1  0
  5  6  2  0
  7 16  1  0
  8  7  2  0
  9  5  1  0
 11 10  1  0
 12 11  2  0
 13 11  1  0
 14 13  1  0
 15 14  1  1
 16 15  1  0
 17 19  1  0
 17 15  1  0
 18 17  2  0
 20 19  1  0
 20 26  1  0
 21 22  1  0
 20 21  1  6
 22 23  1  0
 24 23  1  0
 24 25  1  0
 26 27  1  0
 28 26  2  0
M  END
$$$$
