EQK.pdb
     RDKit          3D

 28 27  0  0  1  0  0  0  0  0999 V2000
   15.8442  -11.1806  -12.7503 N   0  0  0  0  0  0  0  0  0  0  0  0
   15.4372  -10.2433  -13.7847 C   0  0  1  0  0  0  0  0  0  0  0  0
   13.9611  -10.3768  -13.9611 C   0  0  0  0  0  0  0  0  0  0  0  0
   13.5981  -11.7462  -14.4570 C   0  0  0  0  0  0  0  0  0  0  0  0
   12.1567  -12.0034  -14.5117 C   0  0  0  0  0  0  0  0  0  0  0  0
   11.6352  -13.0646  -14.9303 O   0  0  0  0  0  0  0  0  0  0  0  0
   15.8053   -8.8397  -13.3890 C   0  0  0  0  0  0  0  0  0  0  0  0
   15.5921   -7.9355  -14.2052 O   0  0  0  0  0  0  0  0  0  0  0  0
   11.2429  -11.0309  -14.0791 O   0  0  0  0  0  0  0  0  0  0  0  0
   15.3107   -6.8694   -7.6934 N   0  0  0  0  0  0  0  0  0  0  0  0
   14.5049   -6.4238   -8.7947 C   0  0  0  0  0  0  0  0  0  0  0  0
   13.3829   -5.9559   -8.4911 O   0  0  0  0  0  0  0  0  0  0  0  0
   15.0211   -6.5362  -10.1819 C   0  0  0  0  0  0  0  0  0  0  0  0
   16.3986   -7.0537  -10.3007 C   0  0  0  0  0  0  0  0  0  0  0  0
   16.8385   -7.2504  -11.7277 C   0  0  2  0  0  0  0  0  0  0  0  0
   16.3676   -8.6062  -12.1308 N   0  0  0  0  0  0  0  0  0  0  0  0
   18.3168   -7.2272  -11.8350 C   0  0  0  0  0  0  0  0  0  0  0  0
   18.9985   -8.2196  -11.3778 O   0  0  0  0  0  0  0  0  0  0  0  0
   19.0777   -6.2041  -12.4074 N   0  0  0  0  0  0  0  0  0  0  0  0
   20.4286   -6.4336  -12.9350 C   0  0  1  0  0  0  0  0  0  0  0  0
   20.3465   -7.4876  -14.0292 C   0  0  0  0  0  0  0  0  0  0  0  0
   21.6707   -7.6724  -14.6637 C   0  0  0  0  0  0  0  0  0  0  0  0
   21.7213   -8.7496  -15.7265 C   0  0  0  0  0  0  0  0  0  0  0  0
   23.0225   -8.9002  -16.4197 C   0  0  0  0  0  0  0  0  0  0  0  0
   23.1826  -10.0658  -17.2314 N   0  0  0  0  0  0  0  0  0  0  0  0
   21.0511   -5.1880  -13.3603 C   0  0  0  0  0  0  0  0  0  0  0  0
   20.2639   -4.1594  -13.9162 O   0  0  0  0  0  0  0  0  0  0  0  0
   22.2657   -4.9253  -13.2793 O   0  0  0  0  0  0  0  0  0  0  0  0
  2  3  1  0
  2  1  1  1
  2  7  1  0
  3  4  1  0
  4  5  1  0
  5  6  2  0
  7 16  1  0
  8  7  2  0
  9  5  1  0
 11 10  1  0
 12 11  2  0
 13 11  1  0
 14 13  1  0
 15 14  1  1
 16 15  1  0
 17 19  1  0
 17 15  1  0
 18 17  2  0
 20 19  1  0
 20 26  1  0
 21 22  1  0
 20 21  1  6
 22 23  1  0
 24 23  1  0
 24 25  1  0
 26 27  1  0
 28 26  2  0
M  END
$$$$
