EQK.pdb
     RDKit          3D

 28 27  0  0  1  0  0  0  0  0999 V2000
   18.6624  -12.4329  -17.7148 N   0  0  0  0  0  0  0  0  0  0  0  0
   19.4045  -12.0960  -16.5107 C   0  0  1  0  0  0  0  0  0  0  0  0
   20.8586  -12.1752  -16.8382 C   0  0  0  0  0  0  0  0  0  0  0  0
   21.0708  -12.3606  -18.3125 C   0  0  0  0  0  0  0  0  0  0  0  0
   22.4753  -12.5023  -18.7047 C   0  0  0  0  0  0  0  0  0  0  0  0
   23.2649  -11.5462  -18.8937 O   0  0  0  0  0  0  0  0  0  0  0  0
   19.0350  -10.7158  -16.0409 C   0  0  0  0  0  0  0  0  0  0  0  0
   18.7182   -9.8808  -16.8963 O   0  0  0  0  0  0  0  0  0  0  0  0
   23.0357  -13.7737  -18.8987 O   0  0  0  0  0  0  0  0  0  0  0  0
   17.0713   -9.5167  -10.1921 N   0  0  0  0  0  0  0  0  0  0  0  0
   16.2351   -9.7203  -11.3410 C   0  0  0  0  0  0  0  0  0  0  0  0
   15.0534  -10.0588  -11.0981 O   0  0  0  0  0  0  0  0  0  0  0  0
   16.7910   -9.5278  -12.7038 C   0  0  0  0  0  0  0  0  0  0  0  0
   18.2373   -9.2373  -12.7583 C   0  0  0  0  0  0  0  0  0  0  0  0
   18.7554   -9.0598  -14.1614 C   0  0  2  0  0  0  0  0  0  0  0  0
   19.0609  -10.4260  -14.6738 N   0  0  0  0  0  0  0  0  0  0  0  0
   20.0134   -8.2756  -14.1670 C   0  0  0  0  0  0  0  0  0  0  0  0
   21.1154   -8.8526  -14.5004 O   0  0  0  0  0  0  0  0  0  0  0  0
   20.1327   -6.9218  -13.8409 N   0  0  0  0  0  0  0  0  0  0  0  0
   21.3410   -6.1458  -14.1469 C   0  0  1  0  0  0  0  0  0  0  0  0
   21.6915   -6.3566  -15.6124 C   0  0  0  0  0  0  0  0  0  0  0  0
   22.9183   -5.6050  -15.9596 C   0  0  0  0  0  0  0  0  0  0  0  0
   23.4190   -5.8234  -17.3717 C   0  0  0  0  0  0  0  0  0  0  0  0
   24.7243   -5.1974  -17.6889 C   0  0  0  0  0  0  0  0  0  0  0  0
   25.2090   -5.3719  -19.0222 N   0  0  0  0  0  0  0  0  0  0  0  0
   21.1828   -4.7476  -13.7728 C   0  0  0  0  0  0  0  0  0  0  0  0
   22.2807   -4.0243  -13.2646 O   0  0  0  0  0  0  0  0  0  0  0  0
   20.1266   -4.0936  -13.8599 O   0  0  0  0  0  0  0  0  0  0  0  0
  2  3  1  0
  2  1  1  6
  2  7  1  0
  3  4  1  0
  4  5  1  0
  5  6  2  0
  7 16  1  0
  8  7  2  0
  9  5  1  0
 11 10  1  0
 12 11  2  0
 13 11  1  0
 14 13  1  0
 15 14  1  1
 16 15  1  0
 17 19  1  0
 17 15  1  0
 18 17  2  0
 20 19  1  0
 20 26  1  0
 21 22  1  0
 20 21  1  6
 22 23  1  0
 24 23  1  0
 24 25  1  0
 26 27  1  0
 28 26  2  0
M  END
$$$$
