EQK.pdb
     RDKit          3D

 28 27  0  0  1  0  0  0  0  0999 V2000
   24.5805  -32.8960   -4.1539 N   0  0  0  0  0  0  0  0  0  0  0  0
   24.8806  -33.5696   -2.9008 C   0  0  1  0  0  0  0  0  0  0  0  0
   26.3252  -33.3443   -2.6005 C   0  0  0  0  0  0  0  0  0  0  0  0
   27.1993  -34.1576   -3.5102 C   0  0  0  0  0  0  0  0  0  0  0  0
   28.1990  -34.9716   -2.8141 C   0  0  0  0  0  0  0  0  0  0  0  0
   28.2648  -36.2230   -2.8671 O   0  0  0  0  0  0  0  0  0  0  0  0
   24.0127  -33.0281   -1.7982 C   0  0  0  0  0  0  0  0  0  0  0  0
   23.8797  -31.8012   -1.7187 O   0  0  0  0  0  0  0  0  0  0  0  0
   29.1797  -34.3654   -2.0149 O   0  0  0  0  0  0  0  0  0  0  0  0
   20.1849  -30.7973   -0.8952 N   0  0  0  0  0  0  0  0  0  0  0  0
   19.8235  -32.0261   -0.2470 C   0  0  0  0  0  0  0  0  0  0  0  0
   19.0936  -31.9108    0.7649 O   0  0  0  0  0  0  0  0  0  0  0  0
   20.3138  -33.3190   -0.7867 C   0  0  0  0  0  0  0  0  0  0  0  0
   21.2245  -34.0672    0.1023 C   0  0  0  0  0  0  0  0  0  0  0  0
   22.5813  -33.4273    0.2376 C   0  0  2  0  0  0  0  0  0  0  0  0
   23.3939  -33.9153   -0.9130 N   0  0  0  0  0  0  0  0  0  0  0  0
   23.2495  -33.8604    1.4879 C   0  0  0  0  0  0  0  0  0  0  0  0
   23.7730  -35.0355    1.5496 O   0  0  0  0  0  0  0  0  0  0  0  0
   23.3810  -33.0955    2.6503 N   0  0  0  0  0  0  0  0  0  0  0  0
   24.1007  -33.5847    3.8329 C   0  0  1  0  0  0  0  0  0  0  0  0
   24.4063  -32.3992    4.7363 C   0  0  0  0  0  0  0  0  0  0  0  0
   25.8437  -32.0549    4.6622 C   0  0  0  0  0  0  0  0  0  0  0  0
   26.2664  -30.8988    5.5438 C   0  0  0  0  0  0  0  0  0  0  0  0
   27.7058  -30.5497    5.4901 C   0  0  0  0  0  0  0  0  0  0  0  0
   28.1208  -29.4293    6.2748 N   0  0  0  0  0  0  0  0  0  0  0  0
   23.3702  -34.6573    4.4929 C   0  0  0  0  0  0  0  0  0  0  0  0
   24.0527  -35.8090    4.9338 O   0  0  0  0  0  0  0  0  0  0  0  0
   22.1455  -34.6620    4.7191 O   0  0  0  0  0  0  0  0  0  0  0  0
  2  3  1  0
  2  1  1  6
  2  7  1  0
  3  4  1  0
  4  5  1  0
  5  6  2  0
  7 16  1  0
  8  7  2  0
  9  5  1  0
 11 10  1  0
 12 11  2  0
 13 11  1  0
 14 13  1  0
 15 14  1  6
 16 15  1  0
 17 19  1  0
 17 15  1  0
 18 17  2  0
 20 19  1  0
 20 26  1  0
 21 22  1  0
 20 21  1  1
 22 23  1  0
 24 23  1  0
 24 25  1  0
 26 27  1  0
 28 26  2  0
M  END
$$$$
