EQK.pdb
     RDKit          3D

 28 27  0  0  1  0  0  0  0  0999 V2000
   31.2506  -25.0643  -21.6190 N   0  0  0  0  0  0  0  0  0  0  0  0
   32.3989  -25.5850  -20.8948 C   0  0  1  0  0  0  0  0  0  0  0  0
   33.4561  -24.5315  -20.9051 C   0  0  0  0  0  0  0  0  0  0  0  0
   33.9599  -24.2853  -22.2974 C   0  0  0  0  0  0  0  0  0  0  0  0
   35.4178  -24.1831  -22.4002 C   0  0  0  0  0  0  0  0  0  0  0  0
   36.0907  -23.1831  -22.0530 O   0  0  0  0  0  0  0  0  0  0  0  0
   32.0085  -25.9395  -19.4862 C   0  0  0  0  0  0  0  0  0  0  0  0
   32.9116  -26.2310  -18.6934 O   0  0  0  0  0  0  0  0  0  0  0  0
   36.1716  -25.2475  -22.9166 O   0  0  0  0  0  0  0  0  0  0  0  0
   31.1969  -25.9984  -14.3820 N   0  0  0  0  0  0  0  0  0  0  0  0
   32.3691  -25.8126  -15.1895 C   0  0  0  0  0  0  0  0  0  0  0  0
   33.4439  -26.2135  -14.6852 O   0  0  0  0  0  0  0  0  0  0  0  0
   32.2531  -25.1796  -16.5271 C   0  0  0  0  0  0  0  0  0  0  0  0
   30.8744  -24.8924  -16.9699 C   0  0  0  0  0  0  0  0  0  0  0  0
   30.2329  -26.0429  -17.7002 C   0  0  2  0  0  0  0  0  0  0  0  0
   30.6584  -25.9278  -19.1244 N   0  0  0  0  0  0  0  0  0  0  0  0
   28.7546  -25.9428  -17.6534 C   0  0  0  0  0  0  0  0  0  0  0  0
   28.1505  -25.1398  -18.4590 O   0  0  0  0  0  0  0  0  0  0  0  0
   27.9147  -26.6602  -16.7971 N   0  0  0  0  0  0  0  0  0  0  0  0
   26.4599  -26.4622  -16.7794 C   0  0  1  0  0  0  0  0  0  0  0  0
   26.1755  -25.0033  -16.4538 C   0  0  0  0  0  0  0  0  0  0  0  0
   24.7159  -24.7641  -16.4036 C   0  0  0  0  0  0  0  0  0  0  0  0
   24.3160  -23.3235  -16.1645 C   0  0  0  0  0  0  0  0  0  0  0  0
   22.8657  -23.0384  -16.2734 C   0  0  0  0  0  0  0  0  0  0  0  0
   22.4586  -21.6922  -16.0178 N   0  0  0  0  0  0  0  0  0  0  0  0
   25.8466  -26.9213  -18.0175 C   0  0  0  0  0  0  0  0  0  0  0  0
   24.6277  -27.6283  -17.9816 O   0  0  0  0  0  0  0  0  0  0  0  0
   26.3103  -26.7450  -19.1598 O   0  0  0  0  0  0  0  0  0  0  0  0
  2  3  1  0
  2  1  1  6
  2  7  1  0
  3  4  1  0
  4  5  1  0
  5  6  2  0
  7 16  1  0
  8  7  2  0
  9  5  1  0
 11 10  1  0
 12 11  2  0
 13 11  1  0
 14 13  1  0
 15 14  1  1
 16 15  1  0
 17 19  1  0
 17 15  1  0
 18 17  2  0
 20 19  1  0
 20 26  1  0
 21 22  1  0
 20 21  1  6
 22 23  1  0
 24 23  1  0
 24 25  1  0
 26 27  1  0
 28 26  2  0
M  END
$$$$
