MIY.pdb
     RDKit          3D

 29 29  0  0  1  0  0  0  0  0999 V2000
   21.6495  -21.3132   -5.7858 C   0  0  0  0  0  0  0  0  0  0  0  0
   22.7087  -20.8898   -7.1786 S   0  0  0  0  0  0  0  0  0  0  0  0
   24.4637  -20.7331   -6.6626 C   0  0  0  0  0  0  0  0  0  0  0  0
   25.2904  -20.1782   -7.7823 C   0  0  0  0  0  0  0  0  0  0  0  0
   24.8883  -20.7655   -9.0885 C   0  0  2  0  0  0  0  0  0  0  0  0
   24.7766  -22.2112   -9.0585 N   0  0  0  0  0  0  0  0  0  0  0  0
   25.7268  -20.3217  -10.2421 C   0  0  0  0  0  0  0  0  0  0  0  0
   25.7738  -19.0939  -10.5799 O   0  0  0  0  0  0  0  0  0  0  0  0
   30.8068  -21.5626  -10.9824 C   0  0  0  0  0  0  0  0  0  0  0  0
   29.4134  -20.9731  -10.9405 C   0  0  0  0  0  0  0  0  0  0  0  0
   28.6566  -21.2717  -12.2291 C   0  0  2  0  0  0  0  0  0  0  0  0
   29.3974  -20.7398  -13.4332 C   0  0  0  0  0  0  0  0  0  0  0  0
   27.2532  -20.7363  -12.1814 C   0  0  2  0  0  0  0  0  0  0  0  0
   26.5143  -21.1981  -11.0340 N   0  0  0  0  0  0  0  0  0  0  0  0
   26.5388  -21.1201  -13.4267 C   0  0  0  0  0  0  0  0  0  0  0  0
   26.3689  -22.3527  -13.6357 O   0  0  0  0  0  0  0  0  0  0  0  0
   18.3895  -20.8079  -15.9685 O   0  0  0  0  0  0  0  0  0  0  0  0
   19.6768  -20.7658  -15.4787 C   0  0  0  0  0  0  0  0  0  0  0  0
   20.4539  -21.8930  -15.3112 C   0  0  0  0  0  0  0  0  0  0  0  0
   21.7341  -21.8080  -14.8193 C   0  0  0  0  0  0  0  0  0  0  0  0
   22.2998  -20.5854  -14.4701 C   0  0  0  0  0  0  0  0  0  0  0  0
   23.6683  -20.5029  -13.9250 C   0  0  0  0  0  0  0  0  0  0  0  0
   24.7187  -20.3865  -14.9992 C   0  0  2  0  0  0  0  0  0  0  0  0
   26.0427  -20.2066  -14.3817 N   0  0  0  0  0  0  0  0  0  0  0  0
   24.4540  -19.2455  -15.8867 C   0  0  0  0  0  0  0  0  0  0  0  0
   23.7524  -19.3794  -16.9203 O   0  0  0  0  0  0  0  0  0  0  0  0
   21.5288  -19.4610  -14.6354 C   0  0  0  0  0  0  0  0  0  0  0  0
   20.2460  -19.5485  -15.1287 C   0  0  0  0  0  0  0  0  0  0  0  0
   24.9646  -17.9913  -15.6135 O   0  0  0  0  0  0  0  0  0  0  0  0
  1  2  1  0
  3  4  1  0
  3  2  1  0
  5  4  1  0
  5  6  1  1
  7  5  1  0
  8  7  2  0
  9 10  1  0
 10 11  1  0
 11 12  1  6
 11 13  1  0
 13 14  1  1
 14  7  1  0
 15 24  1  0
 15 13  1  0
 16 15  2  0
 18 17  1  0
 19 18  2  0
 20 19  1  0
 21 27  1  0
 21 20  2  0
 23 22  1  1
 22 21  1  0
 23 24  1  0
 23 25  1  0
 25 29  1  0
 26 25  2  0
 27 28  2  0
 28 18  1  0
M  END
$$$$
