MIY.pdb
     RDKit          3D

 29 29  0  0  1  0  0  0  0  0999 V2000
   19.8725  -11.2117  -23.8591 C   0  0  0  0  0  0  0  0  0  0  0  0
   19.5164  -10.3015  -22.3471 S   0  0  0  0  0  0  0  0  0  0  0  0
   19.7152  -11.3637  -20.8628 C   0  0  0  0  0  0  0  0  0  0  0  0
   19.5383  -10.5552  -19.6139 C   0  0  0  0  0  0  0  0  0  0  0  0
   19.7434  -11.3904  -18.4001 C   0  0  2  0  0  0  0  0  0  0  0  0
   18.8013  -12.4878  -18.2919 N   0  0  0  0  0  0  0  0  0  0  0  0
   19.8016  -10.6132  -17.1260 C   0  0  0  0  0  0  0  0  0  0  0  0
   18.7789  -10.5200  -16.3717 O   0  0  0  0  0  0  0  0  0  0  0  0
   22.8600   -9.2995  -12.1302 C   0  0  0  0  0  0  0  0  0  0  0  0
   21.9670   -8.7270  -13.2097 C   0  0  0  0  0  0  0  0  0  0  0  0
   21.8957   -9.6624  -14.4107 C   0  0  2  0  0  0  0  0  0  0  0  0
   23.2676   -9.9088  -14.9930 C   0  0  0  0  0  0  0  0  0  0  0  0
   20.9519   -9.1436  -15.4588 C   0  0  2  0  0  0  0  0  0  0  0  0
   20.9595   -9.9347  -16.6628 N   0  0  0  0  0  0  0  0  0  0  0  0
   21.3018   -7.7356  -15.7807 C   0  0  0  0  0  0  0  0  0  0  0  0
   22.4033   -7.5353  -16.3627 O   0  0  0  0  0  0  0  0  0  0  0  0
   16.1714   -4.5866  -20.3136 O   0  0  0  0  0  0  0  0  0  0  0  0
   17.3502   -4.7980  -19.6321 C   0  0  0  0  0  0  0  0  0  0  0  0
   17.8817   -6.0534  -19.4222 C   0  0  0  0  0  0  0  0  0  0  0  0
   19.0608   -6.2213  -18.7370 C   0  0  0  0  0  0  0  0  0  0  0  0
   19.7671   -5.1361  -18.2270 C   0  0  0  0  0  0  0  0  0  0  0  0
   21.0230   -5.3246  -17.4760 C   0  0  0  0  0  0  0  0  0  0  0  0
   20.8238   -5.2751  -15.9832 C   0  0  2  0  0  0  0  0  0  0  0  0
   20.4922   -6.6187  -15.4818 N   0  0  0  0  0  0  0  0  0  0  0  0
   19.7382   -4.3546  -15.6172 C   0  0  0  0  0  0  0  0  0  0  0  0
   19.8468   -3.1178  -15.8095 O   0  0  0  0  0  0  0  0  0  0  0  0
   19.2407   -3.8847  -18.4340 C   0  0  0  0  0  0  0  0  0  0  0  0
   18.0589   -3.7186  -19.1212 C   0  0  0  0  0  0  0  0  0  0  0  0
   18.5652   -4.8178  -15.0534 O   0  0  0  0  0  0  0  0  0  0  0  0
  1  2  1  0
  3  4  1  0
  3  2  1  0
  5  4  1  0
  5  6  1  1
  7  5  1  0
  8  7  2  0
  9 10  1  0
 10 11  1  0
 11 12  1  6
 11 13  1  0
 13 14  1  6
 14  7  1  0
 15 24  1  0
 15 13  1  0
 16 15  2  0
 18 17  1  0
 19 18  2  0
 20 19  1  0
 21 27  1  0
 21 20  2  0
 23 22  1  6
 22 21  1  0
 23 24  1  0
 23 25  1  0
 25 29  1  0
 26 25  2  0
 27 28  2  0
 28 18  1  0
M  END
$$$$
