MIY.pdb
     RDKit          3D

 29 29  0  0  1  0  0  0  0  0999 V2000
   25.0199  -16.9650  -18.1314 C   0  0  0  0  0  0  0  0  0  0  0  0
   26.6725  -17.3944  -18.7023 S   0  0  0  0  0  0  0  0  0  0  0  0
   27.5008  -18.5547  -17.5453 C   0  0  0  0  0  0  0  0  0  0  0  0
   26.4836  -19.3343  -16.7692 C   0  0  0  0  0  0  0  0  0  0  0  0
   27.1325  -20.1783  -15.7302 C   0  0  2  0  0  0  0  0  0  0  0  0
   28.1680  -21.0455  -16.2586 N   0  0  0  0  0  0  0  0  0  0  0  0
   26.1741  -20.9504  -14.8839 C   0  0  0  0  0  0  0  0  0  0  0  0
   25.7466  -22.0910  -15.2579 O   0  0  0  0  0  0  0  0  0  0  0  0
   25.5024  -20.0167   -9.2819 C   0  0  0  0  0  0  0  0  0  0  0  0
   25.1102  -19.9562  -10.7425 C   0  0  0  0  0  0  0  0  0  0  0  0
   25.1809  -21.3371  -11.3832 C   0  0  2  0  0  0  0  0  0  0  0  0
   26.5529  -21.9465  -11.2170 C   0  0  0  0  0  0  0  0  0  0  0  0
   24.7835  -21.2940  -12.8319 C   0  0  2  0  0  0  0  0  0  0  0  0
   25.6741  -20.4959  -13.6353 N   0  0  0  0  0  0  0  0  0  0  0  0
   23.3979  -20.7688  -12.9454 C   0  0  0  0  0  0  0  0  0  0  0  0
   23.2677  -19.5443  -13.2204 O   0  0  0  0  0  0  0  0  0  0  0  0
   15.7109  -18.7451  -16.1088 O   0  0  0  0  0  0  0  0  0  0  0  0
   16.9596  -19.1721  -15.7126 C   0  0  0  0  0  0  0  0  0  0  0  0
   17.9158  -18.3218  -15.1975 C   0  0  0  0  0  0  0  0  0  0  0  0
   19.1500  -18.7880  -14.8137 C   0  0  0  0  0  0  0  0  0  0  0  0
   19.4876  -20.1333  -14.9278 C   0  0  0  0  0  0  0  0  0  0  0  0
   20.8212  -20.6243  -14.5313 C   0  0  0  0  0  0  0  0  0  0  0  0
   20.8967  -20.9959  -13.0729 C   0  0  2  0  0  0  0  0  0  0  0  0
   22.2296  -21.5408  -12.7678 N   0  0  0  0  0  0  0  0  0  0  0  0
   19.8849  -22.0025  -12.7228 C   0  0  0  0  0  0  0  0  0  0  0  0
   20.1127  -23.2286  -12.8754 O   0  0  0  0  0  0  0  0  0  0  0  0
   18.5381  -20.9827  -15.4404 C   0  0  0  0  0  0  0  0  0  0  0  0
   17.3015  -20.5133  -15.8243 C   0  0  0  0  0  0  0  0  0  0  0  0
   18.6544  -21.6350  -12.2139 O   0  0  0  0  0  0  0  0  0  0  0  0
  1  2  1  0
  3  4  1  0
  3  2  1  0
  5  4  1  0
  5  6  1  6
  7  5  1  0
  8  7  2  0
  9 10  1  0
 10 11  1  0
 11 12  1  6
 11 13  1  0
 13 14  1  6
 14  7  1  0
 15 24  1  0
 15 13  1  0
 16 15  2  0
 18 17  1  0
 19 18  2  0
 20 19  1  0
 21 27  1  0
 21 20  2  0
 23 22  1  6
 22 21  1  0
 23 24  1  0
 23 25  1  0
 25 29  1  0
 26 25  2  0
 27 28  2  0
 28 18  1  0
M  END
$$$$
