MIY.pdb
     RDKit          3D

 29 29  0  0  1  0  0  0  0  0999 V2000
   23.6287  -32.9299  -21.6908 C   0  0  0  0  0  0  0  0  0  0  0  0
   24.5200  -31.8277  -22.8008 S   0  0  0  0  0  0  0  0  0  0  0  0
   26.2998  -31.7291  -22.3607 C   0  0  0  0  0  0  0  0  0  0  0  0
   26.4683  -31.1427  -20.9923 C   0  0  0  0  0  0  0  0  0  0  0  0
   27.9071  -30.9862  -20.6488 C   0  0  2  0  0  0  0  0  0  0  0  0
   28.6809  -32.1962  -20.8503 N   0  0  0  0  0  0  0  0  0  0  0  0
   28.1527  -30.4194  -19.2889 C   0  0  0  0  0  0  0  0  0  0  0  0
   28.4926  -31.1737  -18.3198 O   0  0  0  0  0  0  0  0  0  0  0  0
   31.3962  -26.4214  -18.1548 C   0  0  0  0  0  0  0  0  0  0  0  0
   30.5001  -27.6400  -18.2069 C   0  0  0  0  0  0  0  0  0  0  0  0
   29.1397  -27.3428  -17.5879 C   0  0  2  0  0  0  0  0  0  0  0  0
   29.2834  -26.8284  -16.1749 C   0  0  0  0  0  0  0  0  0  0  0  0
   28.2384  -28.5446  -17.6336 C   0  0  2  0  0  0  0  0  0  0  0  0
   28.0317  -29.0413  -18.9700 N   0  0  0  0  0  0  0  0  0  0  0  0
   26.9304  -28.2008  -17.0175 C   0  0  0  0  0  0  0  0  0  0  0  0
   26.9116  -28.0244  -15.7683 O   0  0  0  0  0  0  0  0  0  0  0  0
   19.8452  -24.4527  -14.0370 O   0  0  0  0  0  0  0  0  0  0  0  0
   21.0089  -24.8954  -14.6272 C   0  0  0  0  0  0  0  0  0  0  0  0
   21.3542  -24.5918  -15.9278 C   0  0  0  0  0  0  0  0  0  0  0  0
   22.5249  -25.0533  -16.4793 C   0  0  0  0  0  0  0  0  0  0  0  0
   23.4098  -25.8442  -15.7524 C   0  0  0  0  0  0  0  0  0  0  0  0
   24.6563  -26.3520  -16.3566 C   0  0  0  0  0  0  0  0  0  0  0  0
   24.4713  -27.6764  -17.0511 C   0  0  2  0  0  0  0  0  0  0  0  0
   25.7199  -28.0600  -17.7296 N   0  0  0  0  0  0  0  0  0  0  0  0
   23.3936  -27.6131  -18.0482 C   0  0  0  0  0  0  0  0  0  0  0  0
   23.6341  -27.3025  -19.2415 O   0  0  0  0  0  0  0  0  0  0  0  0
   23.0691  -26.1486  -14.4574 C   0  0  0  0  0  0  0  0  0  0  0  0
   21.8953  -25.6848  -13.9064 C   0  0  0  0  0  0  0  0  0  0  0  0
   22.0846  -27.8944  -17.7076 O   0  0  0  0  0  0  0  0  0  0  0  0
  1  2  1  0
  3  4  1  0
  3  2  1  0
  5  4  1  0
  5  6  1  1
  7  5  1  0
  8  7  2  0
  9 10  1  0
 10 11  1  0
 11 12  1  1
 11 13  1  0
 13 14  1  6
 14  7  1  0
 15 24  1  0
 15 13  1  0
 16 15  2  0
 18 17  1  0
 19 18  2  0
 20 19  1  0
 21 27  1  0
 21 20  2  0
 23 22  1  6
 22 21  1  0
 23 24  1  0
 23 25  1  0
 25 29  1  0
 26 25  2  0
 27 28  2  0
 28 18  1  0
M  END
$$$$
