MIY.pdb
     RDKit          3D

 29 29  0  0  1  0  0  0  0  0999 V2000
   15.9671  -30.3690   -5.7670 C   0  0  0  0  0  0  0  0  0  0  0  0
   15.4558  -28.6430   -5.7404 S   0  0  0  0  0  0  0  0  0  0  0  0
   16.8737  -27.5292   -5.3938 C   0  0  0  0  0  0  0  0  0  0  0  0
   17.6091  -27.9843   -4.1703 C   0  0  0  0  0  0  0  0  0  0  0  0
   17.2149  -27.1857   -2.9788 C   0  0  2  0  0  0  0  0  0  0  0  0
   17.2901  -25.7537   -3.1965 N   0  0  0  0  0  0  0  0  0  0  0  0
   17.9262  -27.5698   -1.7229 C   0  0  0  0  0  0  0  0  0  0  0  0
   18.0686  -28.7949   -1.4028 O   0  0  0  0  0  0  0  0  0  0  0  0
   22.0458  -24.5116    0.3651 C   0  0  0  0  0  0  0  0  0  0  0  0
   21.1921  -25.6657   -0.1145 C   0  0  0  0  0  0  0  0  0  0  0  0
   20.1190  -26.0124    0.9105 C   0  0  2  0  0  0  0  0  0  0  0  0
   20.7345  -26.4515    2.2181 C   0  0  0  0  0  0  0  0  0  0  0  0
   19.1708  -27.0537    0.3859 C   0  0  2  0  0  0  0  0  0  0  0  0
   18.4839  -26.6366   -0.8099 N   0  0  0  0  0  0  0  0  0  0  0  0
   18.1812  -27.3928    1.4414 C   0  0  0  0  0  0  0  0  0  0  0  0
   17.3609  -26.4926    1.7713 O   0  0  0  0  0  0  0  0  0  0  0  0
   12.4253  -28.3657   -1.0781 O   0  0  0  0  0  0  0  0  0  0  0  0
   13.3591  -28.7640   -0.1465 C   0  0  0  0  0  0  0  0  0  0  0  0
   14.4366  -29.5666   -0.4587 C   0  0  0  0  0  0  0  0  0  0  0  0
   15.3461  -29.9415    0.5006 C   0  0  0  0  0  0  0  0  0  0  0  0
   15.2199  -29.5292    1.8238 C   0  0  0  0  0  0  0  0  0  0  0  0
   16.1897  -29.9506    2.8528 C   0  0  0  0  0  0  0  0  0  0  0  0
   17.1689  -28.8632    3.2124 C   0  0  2  0  0  0  0  0  0  0  0  0
   18.0987  -28.6422    2.0929 N   0  0  0  0  0  0  0  0  0  0  0  0
   17.9468  -29.2161    4.4082 C   0  0  0  0  0  0  0  0  0  0  0  0
   17.3831  -29.3965    5.5164 O   0  0  0  0  0  0  0  0  0  0  0  0
   14.1482  -28.7302    2.1382 C   0  0  0  0  0  0  0  0  0  0  0  0
   13.2379  -28.3555    1.1751 C   0  0  0  0  0  0  0  0  0  0  0  0
   19.3194  -29.3628    4.3529 O   0  0  0  0  0  0  0  0  0  0  0  0
  1  2  1  0
  3  4  1  0
  3  2  1  0
  5  4  1  0
  5  6  1  6
  7  5  1  0
  8  7  2  0
  9 10  1  0
 10 11  1  0
 11 12  1  1
 11 13  1  0
 13 14  1  6
 14  7  1  0
 15 24  1  0
 15 13  1  0
 16 15  2  0
 18 17  1  0
 19 18  2  0
 20 19  1  0
 21 27  1  0
 21 20  2  0
 23 22  1  6
 22 21  1  0
 23 24  1  0
 23 25  1  0
 25 29  1  0
 26 25  2  0
 27 28  2  0
 28 18  1  0
M  END
$$$$
