MIY.pdb
     RDKit          3D

 29 29  0  0  1  0  0  0  0  0999 V2000
   15.9258  -10.4174  -17.8304 C   0  0  0  0  0  0  0  0  0  0  0  0
   16.6163  -11.2399  -19.2753 S   0  0  0  0  0  0  0  0  0  0  0  0
   18.2250  -12.0358  -18.8886 C   0  0  0  0  0  0  0  0  0  0  0  0
   18.8570  -11.3850  -17.6962 C   0  0  0  0  0  0  0  0  0  0  0  0
   20.1489  -12.0365  -17.3508 C   0  0  2  0  0  0  0  0  0  0  0  0
   20.0197  -13.4522  -17.0631 N   0  0  0  0  0  0  0  0  0  0  0  0
   20.9138  -11.3432  -16.2714 C   0  0  0  0  0  0  0  0  0  0  0  0
   20.6152  -11.5181  -15.0452 O   0  0  0  0  0  0  0  0  0  0  0  0
   26.0647  -11.5268  -15.4918 C   0  0  0  0  0  0  0  0  0  0  0  0
   24.5618  -11.3779  -15.3940 C   0  0  0  0  0  0  0  0  0  0  0  0
   24.1534   -9.9116  -15.4696 C   0  0  2  0  0  0  0  0  0  0  0  0
   24.8026   -9.1066  -14.3686 C   0  0  0  0  0  0  0  0  0  0  0  0
   22.6592   -9.7530  -15.4424 C   0  0  2  0  0  0  0  0  0  0  0  0
   21.9996  -10.4603  -16.5103 N   0  0  0  0  0  0  0  0  0  0  0  0
   22.3177   -8.3082  -15.5107 C   0  0  0  0  0  0  0  0  0  0  0  0
   22.4548   -7.7370  -16.6273 O   0  0  0  0  0  0  0  0  0  0  0  0
   17.6633   -7.3762   -9.6791 O   0  0  0  0  0  0  0  0  0  0  0  0
   18.2461   -7.0311  -10.8790 C   0  0  0  0  0  0  0  0  0  0  0  0
   18.2638   -7.8696  -11.9742 C   0  0  0  0  0  0  0  0  0  0  0  0
   18.8559   -7.4871  -13.1536 C   0  0  0  0  0  0  0  0  0  0  0  0
   19.4612   -6.2418  -13.2938 C   0  0  0  0  0  0  0  0  0  0  0  0
   20.1116   -5.8445  -14.5571 C   0  0  0  0  0  0  0  0  0  0  0  0
   21.5971   -6.0973  -14.5537 C   0  0  2  0  0  0  0  0  0  0  0  0
   21.8549   -7.5403  -14.4205 N   0  0  0  0  0  0  0  0  0  0  0  0
   22.2579   -5.3963  -13.4439 C   0  0  0  0  0  0  0  0  0  0  0  0
   22.2663   -4.1414  -13.3854 O   0  0  0  0  0  0  0  0  0  0  0  0
   19.4456   -5.4045  -12.2054 C   0  0  0  0  0  0  0  0  0  0  0  0
   18.8515   -5.7898  -11.0242 C   0  0  0  0  0  0  0  0  0  0  0  0
   22.8879   -6.0922  -12.4304 O   0  0  0  0  0  0  0  0  0  0  0  0
  1  2  1  0
  3  4  1  0
  3  2  1  0
  5  4  1  0
  5  6  1  1
  7  5  1  0
  8  7  2  0
  9 10  1  0
 10 11  1  0
 11 12  1  1
 11 13  1  0
 13 14  1  6
 14  7  1  0
 15 24  1  0
 15 13  1  0
 16 15  2  0
 18 17  1  0
 19 18  2  0
 20 19  1  0
 21 27  1  0
 21 20  2  0
 23 22  1  1
 22 21  1  0
 23 24  1  0
 23 25  1  0
 25 29  1  0
 26 25  2  0
 27 28  2  0
 28 18  1  0
M  END
$$$$
