MIY.pdb
     RDKit          3D

 29 29  0  0  1  0  0  0  0  0999 V2000
  -36.6956  -98.2918   -0.3019 C   0  0  0  0  0  0  0  0  0  0  0  0
  -35.0353  -98.6959   -0.8689 S   0  0  0  0  0  0  0  0  0  0  0  0
  -34.3574 -100.1497    0.0245 C   0  0  0  0  0  0  0  0  0  0  0  0
  -33.4270  -99.7075    1.1125 C   0  0  0  0  0  0  0  0  0  0  0  0
  -32.0519 -100.2284    0.8877 C   0  0  2  0  0  0  0  0  0  0  0  0
  -31.6463 -101.2202    1.8652 N   0  0  0  0  0  0  0  0  0  0  0  0
  -31.0115  -99.1662    0.7460 C   0  0  0  0  0  0  0  0  0  0  0  0
  -31.3403  -97.9607    0.4960 O   0  0  0  0  0  0  0  0  0  0  0  0
  -27.7293  -98.2036    3.4981 C   0  0  0  0  0  0  0  0  0  0  0  0
  -27.0920  -98.1565    2.1261 C   0  0  0  0  0  0  0  0  0  0  0  0
  -28.0389  -97.5349    1.1065 C   0  0  2  0  0  0  0  0  0  0  0  0
  -29.1151  -96.7214    1.7860 C   0  0  0  0  0  0  0  0  0  0  0  0
  -28.6403  -98.5765    0.2055 C   0  0  2  0  0  0  0  0  0  0  0  0
  -29.6169  -99.3998    0.8719 N   0  0  0  0  0  0  0  0  0  0  0  0
  -27.5576  -99.4304   -0.3487 C   0  0  0  0  0  0  0  0  0  0  0  0
  -26.8089 -100.0193    0.4788 O   0  0  0  0  0  0  0  0  0  0  0  0
  -30.9390  -93.8590   -4.9481 O   0  0  0  0  0  0  0  0  0  0  0  0
  -30.1650  -94.9677   -4.6829 C   0  0  0  0  0  0  0  0  0  0  0  0
  -30.4437  -96.2181   -5.1946 C   0  0  0  0  0  0  0  0  0  0  0  0
  -29.6460  -97.2989   -4.9057 C   0  0  0  0  0  0  0  0  0  0  0  0
  -28.5266  -97.1794   -4.0875 C   0  0  0  0  0  0  0  0  0  0  0  0
  -27.6848  -98.3477   -3.7662 C   0  0  0  0  0  0  0  0  0  0  0  0
  -28.3131  -99.2557   -2.7408 C   0  0  2  0  0  0  0  0  0  0  0  0
  -27.3135  -99.6246   -1.7253 N   0  0  0  0  0  0  0  0  0  0  0  0
  -28.8324 -100.4838   -3.3585 C   0  0  0  0  0  0  0  0  0  0  0  0
  -28.6933 -101.5990   -2.7967 O   0  0  0  0  0  0  0  0  0  0  0  0
  -28.2464  -95.9360   -3.5762 C   0  0  0  0  0  0  0  0  0  0  0  0
  -29.0471  -94.8540   -3.8671 C   0  0  0  0  0  0  0  0  0  0  0  0
  -29.4905 -100.4525   -4.5727 O   0  0  0  0  0  0  0  0  0  0  0  0
  1  2  1  0
  3  4  1  0
  3  2  1  0
  5  4  1  0
  5  6  1  1
  7  5  1  0
  8  7  2  0
  9 10  1  0
 10 11  1  0
 11 12  1  1
 11 13  1  0
 13 14  1  1
 14  7  1  0
 15 24  1  0
 15 13  1  0
 16 15  2  0
 18 17  1  0
 19 18  2  0
 20 19  1  0
 21 27  1  0
 21 20  2  0
 23 22  1  6
 22 21  1  0
 23 24  1  0
 23 25  1  0
 25 29  1  0
 26 25  2  0
 27 28  2  0
 28 18  1  0
M  END
$$$$
