MIY.pdb
     RDKit          3D

 29 29  0  0  1  0  0  0  0  0999 V2000
    9.7056  -15.7398  -12.3567 C   0  0  0  0  0  0  0  0  0  0  0  0
   11.0753  -14.7432  -11.7467 S   0  0  0  0  0  0  0  0  0  0  0  0
   12.3816  -14.5473  -13.0220 C   0  0  0  0  0  0  0  0  0  0  0  0
   13.4420  -13.6032  -12.5434 C   0  0  0  0  0  0  0  0  0  0  0  0
   14.5152  -13.4410  -13.5606 C   0  0  2  0  0  0  0  0  0  0  0  0
   15.2275  -14.6719  -13.8456 N   0  0  0  0  0  0  0  0  0  0  0  0
   15.4704  -12.3302  -13.2696 C   0  0  0  0  0  0  0  0  0  0  0  0
   16.4660  -12.5124  -12.4956 O   0  0  0  0  0  0  0  0  0  0  0  0
   18.1501   -9.2900  -16.6658 C   0  0  0  0  0  0  0  0  0  0  0  0
   17.6177  -10.0716  -15.4841 C   0  0  0  0  0  0  0  0  0  0  0  0
   16.7851   -9.1794  -14.5713 C   0  0  2  0  0  0  0  0  0  0  0  0
   17.5823   -7.9867  -14.0984 C   0  0  0  0  0  0  0  0  0  0  0  0
   16.2269   -9.9488  -13.4073 C   0  0  2  0  0  0  0  0  0  0  0  0
   15.3547  -11.0225  -13.8099 N   0  0  0  0  0  0  0  0  0  0  0  0
   15.4957   -9.0178  -12.5088 C   0  0  0  0  0  0  0  0  0  0  0  0
   14.3867   -8.5762  -12.9176 O   0  0  0  0  0  0  0  0  0  0  0  0
   12.1934   -4.3933   -5.8220 O   0  0  0  0  0  0  0  0  0  0  0  0
   12.9277   -5.2714   -6.5891 C   0  0  0  0  0  0  0  0  0  0  0  0
   14.2995   -5.1956   -6.7119 C   0  0  0  0  0  0  0  0  0  0  0  0
   14.9949   -6.0916   -7.4875 C   0  0  0  0  0  0  0  0  0  0  0  0
   14.3477   -7.1105   -8.1802 C   0  0  0  0  0  0  0  0  0  0  0  0
   15.0983   -8.0579   -9.0262 C   0  0  0  0  0  0  0  0  0  0  0  0
   15.2222   -7.5937  -10.4544 C   0  0  2  0  0  0  0  0  0  0  0  0
   15.9547   -8.5990  -11.2414 N   0  0  0  0  0  0  0  0  0  0  0  0
   15.9384   -6.3136  -10.5420 C   0  0  0  0  0  0  0  0  0  0  0  0
   17.1929   -6.2772  -10.6018 O   0  0  0  0  0  0  0  0  0  0  0  0
   12.9819   -7.1887   -8.0604 C   0  0  0  0  0  0  0  0  0  0  0  0
   12.2869   -6.2897   -7.2823 C   0  0  0  0  0  0  0  0  0  0  0  0
   15.2579   -5.1115  -10.5637 O   0  0  0  0  0  0  0  0  0  0  0  0
  1  2  1  0
  3  4  1  0
  3  2  1  0
  5  4  1  0
  5  6  1  1
  7  5  1  0
  8  7  2  0
  9 10  1  0
 10 11  1  0
 11 12  1  1
 11 13  1  0
 13 14  1  6
 14  7  1  0
 15 24  1  0
 15 13  1  0
 16 15  2  0
 18 17  1  0
 19 18  2  0
 20 19  1  0
 21 27  1  0
 21 20  2  0
 23 22  1  1
 22 21  1  0
 23 24  1  0
 23 25  1  0
 25 29  1  0
 26 25  2  0
 27 28  2  0
 28 18  1  0
M  END
$$$$
