MIY.pdb
     RDKit          3D

 29 29  0  0  1  0  0  0  0  0999 V2000
   26.8462  -16.7166  -14.1943 C   0  0  0  0  0  0  0  0  0  0  0  0
   26.4437  -18.2559  -15.0367 S   0  0  0  0  0  0  0  0  0  0  0  0
   25.0548  -18.0310  -16.2164 C   0  0  0  0  0  0  0  0  0  0  0  0
   24.8019  -16.5736  -16.4544 C   0  0  0  0  0  0  0  0  0  0  0  0
   23.6951  -16.3727  -17.4278 C   0  0  2  0  0  0  0  0  0  0  0  0
   23.8370  -17.1694  -18.6315 N   0  0  0  0  0  0  0  0  0  0  0  0
   23.4308  -14.9422  -17.7662 C   0  0  0  0  0  0  0  0  0  0  0  0
   24.1429  -14.3343  -18.6304 O   0  0  0  0  0  0  0  0  0  0  0  0
   19.2543  -10.8202  -19.0331 C   0  0  0  0  0  0  0  0  0  0  0  0
   20.6199  -11.0546  -18.4240 C   0  0  0  0  0  0  0  0  0  0  0  0
   20.8565  -12.5388  -18.1718 C   0  0  2  0  0  0  0  0  0  0  0  0
   19.7390  -13.1381  -17.3510 C   0  0  0  0  0  0  0  0  0  0  0  0
   22.1903  -12.7824  -17.5235 C   0  0  2  0  0  0  0  0  0  0  0  0
   22.4013  -14.1642  -17.1744 N   0  0  0  0  0  0  0  0  0  0  0  0
   22.3080  -11.9339  -16.3091 C   0  0  0  0  0  0  0  0  0  0  0  0
   21.7524  -12.3547  -15.2573 O   0  0  0  0  0  0  0  0  0  0  0  0
   28.5802   -9.6767  -18.2006 O   0  0  0  0  0  0  0  0  0  0  0  0
   27.5746   -9.7929  -17.2658 C   0  0  0  0  0  0  0  0  0  0  0  0
   27.2824  -10.9763  -16.6201 C   0  0  0  0  0  0  0  0  0  0  0  0
   26.2707  -11.0501  -15.6934 C   0  0  0  0  0  0  0  0  0  0  0  0
   25.4997   -9.9383  -15.3674 C   0  0  0  0  0  0  0  0  0  0  0  0
   24.4026  -10.0287  -14.3851 C   0  0  0  0  0  0  0  0  0  0  0  0
   23.0406   -9.9043  -15.0178 C   0  0  2  0  0  0  0  0  0  0  0  0
   22.9930  -10.7009  -16.2546 N   0  0  0  0  0  0  0  0  0  0  0  0
   22.7272   -8.5065  -15.3456 C   0  0  0  0  0  0  0  0  0  0  0  0
   22.6006   -7.6431  -14.4417 O   0  0  0  0  0  0  0  0  0  0  0  0
   25.7877   -8.7585  -16.0085 C   0  0  0  0  0  0  0  0  0  0  0  0
   26.8024   -8.6867  -16.9369 C   0  0  0  0  0  0  0  0  0  0  0  0
   22.5642   -8.0964  -16.6547 O   0  0  0  0  0  0  0  0  0  0  0  0
  1  2  1  0
  3  4  1  0
  3  2  1  0
  5  4  1  0
  5  6  1  6
  7  5  1  0
  8  7  2  0
  9 10  1  0
 10 11  1  0
 11 12  1  1
 11 13  1  0
 13 14  1  1
 14  7  1  0
 15 24  1  0
 15 13  1  0
 16 15  2  0
 18 17  1  0
 19 18  2  0
 20 19  1  0
 21 27  1  0
 21 20  2  0
 23 22  1  6
 22 21  1  0
 23 24  1  0
 23 25  1  0
 25 29  1  0
 26 25  2  0
 27 28  2  0
 28 18  1  0
M  END
$$$$
