MIY.pdb
     RDKit          3D

 29 29  0  0  1  0  0  0  0  0999 V2000
   24.4025  -19.6731  -19.7409 C   0  0  0  0  0  0  0  0  0  0  0  0
   26.1763  -19.7092  -20.0466 S   0  0  0  0  0  0  0  0  0  0  0  0
   26.9629  -21.1683  -19.2570 C   0  0  0  0  0  0  0  0  0  0  0  0
   26.2263  -21.5477  -18.0086 C   0  0  0  0  0  0  0  0  0  0  0  0
   27.1557  -21.6733  -16.8540 C   0  0  2  0  0  0  0  0  0  0  0  0
   28.2091  -22.6471  -17.0676 N   0  0  0  0  0  0  0  0  0  0  0  0
   26.4758  -21.9054  -15.5445 C   0  0  0  0  0  0  0  0  0  0  0  0
   25.8002  -22.9662  -15.3396 O   0  0  0  0  0  0  0  0  0  0  0  0
   28.7545  -20.8930  -10.8071 C   0  0  0  0  0  0  0  0  0  0  0  0
   27.9342  -21.4616  -11.9449 C   0  0  0  0  0  0  0  0  0  0  0  0
   26.5613  -20.8033  -12.0088 C   0  0  2  0  0  0  0  0  0  0  0  0
   25.7666  -21.0746  -10.7531 C   0  0  0  0  0  0  0  0  0  0  0  0
   25.7995  -21.2334  -13.2308 C   0  0  2  0  0  0  0  0  0  0  0  0
   26.5211  -20.9964  -14.4550 N   0  0  0  0  0  0  0  0  0  0  0  0
   24.4948  -20.5231  -13.2711 C   0  0  0  0  0  0  0  0  0  0  0  0
   24.5258  -19.2718  -13.4296 O   0  0  0  0  0  0  0  0  0  0  0  0
   17.2952  -17.5931  -16.7858 O   0  0  0  0  0  0  0  0  0  0  0  0
   18.4490  -18.2152  -16.3613 C   0  0  0  0  0  0  0  0  0  0  0  0
   18.6727  -19.5678  -16.5131 C   0  0  0  0  0  0  0  0  0  0  0  0
   19.8379  -20.1498  -16.0757 C   0  0  0  0  0  0  0  0  0  0  0  0
   20.8393  -19.4025  -15.4628 C   0  0  0  0  0  0  0  0  0  0  0  0
   22.0803  -20.0367  -14.9785 C   0  0  0  0  0  0  0  0  0  0  0  0
   21.9948  -20.4601  -13.5349 C   0  0  2  0  0  0  0  0  0  0  0  0
   23.2358  -21.1489  -13.1451 N   0  0  0  0  0  0  0  0  0  0  0  0
   20.8613  -21.3675  -13.3083 C   0  0  0  0  0  0  0  0  0  0  0  0
   20.9644  -22.5994  -13.5325 O   0  0  0  0  0  0  0  0  0  0  0  0
   20.6199  -18.0555  -15.3098 C   0  0  0  0  0  0  0  0  0  0  0  0
   19.4512  -17.4742  -15.7491 C   0  0  0  0  0  0  0  0  0  0  0  0
   19.6493  -20.8976  -12.8407 O   0  0  0  0  0  0  0  0  0  0  0  0
  1  2  1  0
  3  4  1  0
  3  2  1  0
  5  4  1  0
  5  6  1  6
  7  5  1  0
  8  7  2  0
  9 10  1  0
 10 11  1  0
 11 12  1  1
 11 13  1  0
 13 14  1  6
 14  7  1  0
 15 24  1  0
 15 13  1  0
 16 15  2  0
 18 17  1  0
 19 18  2  0
 20 19  1  0
 21 27  1  0
 21 20  2  0
 23 22  1  6
 22 21  1  0
 23 24  1  0
 23 25  1  0
 25 29  1  0
 26 25  2  0
 27 28  2  0
 28 18  1  0
M  END
$$$$
