WPM.pdb
     RDKit          3D

 30 32  0  0  1  0  0  0  0  0999 V2000
    6.0255  -17.3887   24.5780 N   0  0  0  0  0  0  0  0  0  0  0  0
    6.9167  -16.2964   24.2454 C   0  0  1  0  0  0  0  0  0  0  0  0
    7.4748  -15.6613   25.5108 C   0  0  0  0  0  0  0  0  0  0  0  0
    6.5695  -14.5463   25.8867 C   0  0  0  0  0  0  0  0  0  0  0  0
    5.2742  -14.7480   26.3833 C   0  0  0  0  0  0  0  0  0  0  0  0
    4.7049  -13.5716   26.6705 N   0  0  0  0  0  0  0  0  0  0  0  0
    5.5834  -12.6175   26.3774 C   0  0  0  0  0  0  0  0  0  0  0  0
    5.4746  -11.2446   26.4863 C   0  0  0  0  0  0  0  0  0  0  0  0
    6.5475  -10.4685   26.0977 C   0  0  0  0  0  0  0  0  0  0  0  0
    7.7047  -11.0339   25.6112 C   0  0  0  0  0  0  0  0  0  0  0  0
    7.8176  -12.4223   25.5001 C   0  0  0  0  0  0  0  0  0  0  0  0
    6.7481  -13.1958   25.8887 C   0  0  0  0  0  0  0  0  0  0  0  0
    8.0598  -16.7982   23.3891 C   0  0  0  0  0  0  0  0  0  0  0  0
    8.6880  -17.7509   23.9156 O   0  0  0  0  0  0  0  0  0  0  0  0
    8.3588  -16.2364   22.1438 N   0  0  0  0  0  0  0  0  0  0  0  0
    7.3566  -16.0648   21.0646 C   0  0  0  0  0  0  0  0  0  0  0  0
    7.5457  -14.5601   20.8371 C   0  0  0  0  0  0  0  0  0  0  0  0
    8.9891  -14.2519   21.2897 C   0  0  0  0  0  0  0  0  0  0  0  0
    9.5002  -15.6642   21.4931 C   0  0  1  0  0  0  0  0  0  0  0  0
   10.8057  -15.7733   22.0756 C   0  0  0  0  0  0  0  0  0  0  0  0
   11.5999  -14.7909   21.8291 O   0  0  0  0  0  0  0  0  0  0  0  0
    9.8053  -15.2727   28.1109 C   0  0  0  0  0  0  0  0  0  0  0  0
   11.3002  -14.9011   27.1231 S   0  0  0  0  0  0  0  0  0  0  0  0
   11.3192  -16.0945   25.7234 C   0  0  0  0  0  0  0  0  0  0  0  0
   12.4101  -15.7353   24.7536 C   0  0  0  0  0  0  0  0  0  0  0  0
   12.5310  -16.7409   23.6715 C   0  0  2  0  0  0  0  0  0  0  0  0
   11.3032  -16.8104   22.8617 N   0  0  0  0  0  0  0  0  0  0  0  0
   12.7295  -18.0936   24.2273 C   0  0  0  0  0  0  0  0  0  0  0  0
   11.8572  -18.9765   24.1188 O   0  0  0  0  0  0  0  0  0  0  0  0
   13.8995  -18.4803   24.9096 O   0  0  0  0  0  0  0  0  0  0  0  0
  2  1  1  1
  2  3  1  0
  3  4  1  0
  4 12  1  0
  4  5  2  0
  5  6  1  0
  7  8  2  0
  7  6  1  0
  9  8  1  0
 10  9  2  0
 11 10  1  0
 11 12  2  0
 12  7  1  0
 13 15  1  0
 13  2  1  0
 14 13  2  0
 15 19  1  0
 16 17  1  0
 16 15  1  0
 17 18  1  0
 19 18  1  0
 19 20  1  1
 20 21  2  0
 22 23  1  0
 24 23  1  0
 24 25  1  0
 26 25  1  1
 26 27  1  0
 26 28  1  0
 27 20  1  0
 28 30  1  0
 29 28  2  0
M  END
$$$$
