WPM.pdb
     RDKit          3D

 30 32  0  0  1  0  0  0  0  0999 V2000
    6.0736  -17.9048   24.8784 N   0  0  0  0  0  0  0  0  0  0  0  0
    6.8133  -16.7265   24.4755 C   0  0  1  0  0  0  0  0  0  0  0  0
    7.4505  -16.0590   25.6857 C   0  0  0  0  0  0  0  0  0  0  0  0
    6.5956  -14.9043   26.0595 C   0  0  0  0  0  0  0  0  0  0  0  0
    5.2816  -15.0461   26.5268 C   0  0  0  0  0  0  0  0  0  0  0  0
    4.7671  -13.8460   26.8197 N   0  0  0  0  0  0  0  0  0  0  0  0
    5.6991  -12.9343   26.5586 C   0  0  0  0  0  0  0  0  0  0  0  0
    5.6583  -11.5593   26.6855 C   0  0  0  0  0  0  0  0  0  0  0  0
    6.7773  -10.8340   26.3304 C   0  0  0  0  0  0  0  0  0  0  0  0
    7.9141  -11.4513   25.8591 C   0  0  0  0  0  0  0  0  0  0  0  0
    7.9583  -12.8420   25.7298 C   0  0  0  0  0  0  0  0  0  0  0  0
    6.8428  -13.5649   26.0851 C   0  0  0  0  0  0  0  0  0  0  0  0
    7.8929  -17.1025   23.4830 C   0  0  0  0  0  0  0  0  0  0  0  0
    8.4697  -18.1820   23.7684 O   0  0  0  0  0  0  0  0  0  0  0  0
    8.1920  -16.3071   22.3723 N   0  0  0  0  0  0  0  0  0  0  0  0
    7.1871  -15.9169   21.3541 C   0  0  0  0  0  0  0  0  0  0  0  0
    7.3885  -14.3985   21.4286 C   0  0  0  0  0  0  0  0  0  0  0  0
    8.8363  -14.1976   21.9254 C   0  0  0  0  0  0  0  0  0  0  0  0
    9.3358  -15.6262   21.8417 C   0  0  1  0  0  0  0  0  0  0  0  0
   10.6425  -15.8589   22.3838 C   0  0  0  0  0  0  0  0  0  0  0  0
   11.6209  -15.5753   21.5970 O   0  0  0  0  0  0  0  0  0  0  0  0
    9.6890  -15.2725   28.3361 C   0  0  0  0  0  0  0  0  0  0  0  0
   11.2603  -14.4888   27.8209 S   0  0  0  0  0  0  0  0  0  0  0  0
   11.4102  -14.7478   26.0059 C   0  0  0  0  0  0  0  0  0  0  0  0
   12.1915  -16.0012   25.7262 C   0  0  0  0  0  0  0  0  0  0  0  0
   12.2945  -16.2666   24.2717 C   0  0  2  0  0  0  0  0  0  0  0  0
   10.9649  -16.3547   23.6452 N   0  0  0  0  0  0  0  0  0  0  0  0
   12.9518  -17.5631   24.0165 C   0  0  0  0  0  0  0  0  0  0  0  0
   12.3030  -18.5602   23.6464 O   0  0  0  0  0  0  0  0  0  0  0  0
   14.3371  -17.7661   24.1699 O   0  0  0  0  0  0  0  0  0  0  0  0
  2  1  1  1
  2  3  1  0
  3  4  1  0
  4 12  1  0
  4  5  2  0
  5  6  1  0
  7  8  2  0
  7  6  1  0
  9  8  1  0
 10  9  2  0
 11 10  1  0
 11 12  2  0
 12  7  1  0
 13 15  1  0
 13  2  1  0
 14 13  2  0
 15 19  1  0
 16 17  1  0
 16 15  1  0
 17 18  1  0
 19 18  1  0
 19 20  1  1
 20 21  2  0
 22 23  1  0
 24 23  1  0
 24 25  1  0
 26 25  1  1
 26 27  1  0
 26 28  1  0
 27 20  1  0
 28 30  1  0
 29 28  2  0
M  END
$$$$
