WPM.pdb
     RDKit          3D

 30 32  0  0  1  0  0  0  0  0999 V2000
    6.2933  -18.0732   25.1621 N   0  0  0  0  0  0  0  0  0  0  0  0
    6.8705  -16.8629   24.6147 C   0  0  1  0  0  0  0  0  0  0  0  0
    7.5876  -16.0764   25.7026 C   0  0  0  0  0  0  0  0  0  0  0  0
    6.7215  -14.9268   26.0661 C   0  0  0  0  0  0  0  0  0  0  0  0
    5.4201  -15.0783   26.5648 C   0  0  0  0  0  0  0  0  0  0  0  0
    4.8918  -13.8798   26.8391 N   0  0  0  0  0  0  0  0  0  0  0  0
    5.8026  -12.9599   26.5357 C   0  0  0  0  0  0  0  0  0  0  0  0
    5.7414  -11.5829   26.6296 C   0  0  0  0  0  0  0  0  0  0  0  0
    6.8404  -10.8486   26.2328 C   0  0  0  0  0  0  0  0  0  0  0  0
    7.9772  -11.4589   25.7526 C   0  0  0  0  0  0  0  0  0  0  0  0
    8.0421  -12.8515   25.6567 C   0  0  0  0  0  0  0  0  0  0  0  0
    6.9466  -13.5833   26.0535 C   0  0  0  0  0  0  0  0  0  0  0  0
    7.8509  -17.2045   23.5129 C   0  0  0  0  0  0  0  0  0  0  0  0
    8.4794  -18.2717   23.7267 O   0  0  0  0  0  0  0  0  0  0  0  0
    8.0154  -16.3936   22.3855 N   0  0  0  0  0  0  0  0  0  0  0  0
    6.8817  -15.8509   21.5988 C   0  0  0  0  0  0  0  0  0  0  0  0
    7.2649  -14.3677   21.6702 C   0  0  0  0  0  0  0  0  0  0  0  0
    8.7952  -14.3456   21.8729 C   0  0  0  0  0  0  0  0  0  0  0  0
    9.1031  -15.8136   21.6548 C   0  0  1  0  0  0  0  0  0  0  0  0
   10.4556  -16.2094   21.9190 C   0  0  0  0  0  0  0  0  0  0  0  0
   11.2914  -15.9733   20.9690 O   0  0  0  0  0  0  0  0  0  0  0  0
    9.8233  -15.6363   28.7437 C   0  0  0  0  0  0  0  0  0  0  0  0
   10.9064  -14.8494   27.4961 S   0  0  0  0  0  0  0  0  0  0  0  0
   11.0235  -16.0213   26.0830 C   0  0  0  0  0  0  0  0  0  0  0  0
   11.6234  -15.3322   24.8894 C   0  0  0  0  0  0  0  0  0  0  0  0
   12.0812  -16.3061   23.8703 C   0  0  2  0  0  0  0  0  0  0  0  0
   10.9559  -16.8159   23.0691 N   0  0  0  0  0  0  0  0  0  0  0  0
   12.6960  -17.4871   24.5068 C   0  0  0  0  0  0  0  0  0  0  0  0
   13.7915  -17.4131   25.0954 O   0  0  0  0  0  0  0  0  0  0  0  0
   12.1004  -18.7634   24.4963 O   0  0  0  0  0  0  0  0  0  0  0  0
  2  1  1  1
  2  3  1  0
  3  4  1  0
  4 12  1  0
  4  5  2  0
  5  6  1  0
  7  8  2  0
  7  6  1  0
  9  8  1  0
 10  9  2  0
 11 10  1  0
 11 12  2  0
 12  7  1  0
 13 15  1  0
 13  2  1  0
 14 13  2  0
 15 19  1  0
 16 17  1  0
 16 15  1  0
 17 18  1  0
 19 18  1  0
 19 20  1  1
 20 21  2  0
 22 23  1  0
 24 23  1  0
 24 25  1  0
 26 25  1  1
 26 27  1  0
 26 28  1  0
 27 20  1  0
 28 30  1  0
 29 28  2  0
M  END
$$$$
