WPM.pdb
     RDKit          3D

 30 32  0  0  1  0  0  0  0  0999 V2000
    6.5113  -18.0425   25.1971 N   0  0  0  0  0  0  0  0  0  0  0  0
    6.3416  -17.3668   23.9273 C   0  0  1  0  0  0  0  0  0  0  0  0
    5.7571  -15.9775   24.1382 C   0  0  0  0  0  0  0  0  0  0  0  0
    6.3714  -15.4173   25.3682 C   0  0  0  0  0  0  0  0  0  0  0  0
    6.9614  -16.2146   26.3588 C   0  0  0  0  0  0  0  0  0  0  0  0
    7.4635  -15.4428   27.3298 N   0  0  0  0  0  0  0  0  0  0  0  0
    7.2194  -14.1770   27.0040 C   0  0  0  0  0  0  0  0  0  0  0  0
    7.5273  -13.0103   27.6768 C   0  0  0  0  0  0  0  0  0  0  0  0
    7.1453  -11.8089   27.1156 C   0  0  0  0  0  0  0  0  0  0  0  0
    6.4729  -11.7578   25.9153 C   0  0  0  0  0  0  0  0  0  0  0  0
    6.1604  -12.9363   25.2324 C   0  0  0  0  0  0  0  0  0  0  0  0
    6.5424  -14.1340   25.7917 C   0  0  0  0  0  0  0  0  0  0  0  0
    7.6734  -17.2488   23.2172 C   0  0  0  0  0  0  0  0  0  0  0  0
    8.5277  -18.0714   23.6332 O   0  0  0  0  0  0  0  0  0  0  0  0
    7.8964  -16.3094   22.2055 N   0  0  0  0  0  0  0  0  0  0  0  0
    6.8282  -15.8096   21.3067 C   0  0  0  0  0  0  0  0  0  0  0  0
    7.0153  -14.3102   21.5686 C   0  0  0  0  0  0  0  0  0  0  0  0
    8.4875  -14.1473   22.0038 C   0  0  0  0  0  0  0  0  0  0  0  0
    8.9984  -15.5426   21.7044 C   0  0  1  0  0  0  0  0  0  0  0  0
   10.3377  -15.8182   22.1355 C   0  0  0  0  0  0  0  0  0  0  0  0
   11.2430  -15.6867   21.2301 O   0  0  0  0  0  0  0  0  0  0  0  0
   10.9185  -13.8535   28.3327 C   0  0  0  0  0  0  0  0  0  0  0  0
   10.0875  -15.3810   27.7629 S   0  0  0  0  0  0  0  0  0  0  0  0
   11.1417  -16.0922   26.4338 C   0  0  0  0  0  0  0  0  0  0  0  0
   11.4765  -15.0349   25.4192 C   0  0  0  0  0  0  0  0  0  0  0  0
   11.9013  -15.6306   24.1303 C   0  0  2  0  0  0  0  0  0  0  0  0
   10.7600  -16.2113   23.4036 N   0  0  0  0  0  0  0  0  0  0  0  0
   12.8518  -16.7384   24.3481 C   0  0  0  0  0  0  0  0  0  0  0  0
   13.9561  -16.5510   24.8934 O   0  0  0  0  0  0  0  0  0  0  0  0
   12.5856  -18.0667   23.9624 O   0  0  0  0  0  0  0  0  0  0  0  0
  2  1  1  1
  2  3  1  0
  3  4  1  0
  4 12  1  0
  4  5  2  0
  5  6  1  0
  7  8  2  0
  7  6  1  0
  9  8  1  0
 10  9  2  0
 11 10  1  0
 11 12  2  0
 12  7  1  0
 13 15  1  0
 13  2  1  0
 14 13  2  0
 15 19  1  0
 16 17  1  0
 16 15  1  0
 17 18  1  0
 19 18  1  0
 19 20  1  1
 20 21  2  0
 22 23  1  0
 24 23  1  0
 24 25  1  0
 26 25  1  1
 26 27  1  0
 26 28  1  0
 27 20  1  0
 28 30  1  0
 29 28  2  0
M  END
$$$$
