WPM.pdb
     RDKit          3D

 30 32  0  0  1  0  0  0  0  0999 V2000
    5.2308  -17.8532   23.6271 N   0  0  0  0  0  0  0  0  0  0  0  0
    6.0787  -16.8329   24.2084 C   0  0  1  0  0  0  0  0  0  0  0  0
    6.1898  -17.0280   25.7137 C   0  0  0  0  0  0  0  0  0  0  0  0
    6.9268  -15.8613   26.2612 C   0  0  0  0  0  0  0  0  0  0  0  0
    8.1607  -15.9761   26.9165 C   0  0  0  0  0  0  0  0  0  0  0  0
    8.6070  -14.7648   27.2692 N   0  0  0  0  0  0  0  0  0  0  0  0
    7.7074  -13.8721   26.8671 C   0  0  0  0  0  0  0  0  0  0  0  0
    7.6990  -12.4969   26.9986 C   0  0  0  0  0  0  0  0  0  0  0  0
    6.6229  -11.7960   26.4936 C   0  0  0  0  0  0  0  0  0  0  0  0
    5.5755  -12.4374   25.8714 C   0  0  0  0  0  0  0  0  0  0  0  0
    5.5814  -13.8283   25.7368 C   0  0  0  0  0  0  0  0  0  0  0  0
    6.6550  -14.5267   26.2395 C   0  0  0  0  0  0  0  0  0  0  0  0
    7.4601  -16.8888   23.5914 C   0  0  0  0  0  0  0  0  0  0  0  0
    8.1989  -17.7592   24.1167 O   0  0  0  0  0  0  0  0  0  0  0  0
    7.8421  -16.0438   22.5447 N   0  0  0  0  0  0  0  0  0  0  0  0
    6.8776  -15.4166   21.6092 C   0  0  0  0  0  0  0  0  0  0  0  0
    7.3049  -13.9577   21.8107 C   0  0  0  0  0  0  0  0  0  0  0  0
    8.7803  -14.0178   22.2614 C   0  0  0  0  0  0  0  0  0  0  0  0
    9.0588  -15.4895   22.0290 C   0  0  1  0  0  0  0  0  0  0  0  0
   10.3314  -15.9604   22.4920 C   0  0  0  0  0  0  0  0  0  0  0  0
   11.3364  -15.6377   21.7553 O   0  0  0  0  0  0  0  0  0  0  0  0
   10.8191  -13.9034   28.9307 C   0  0  0  0  0  0  0  0  0  0  0  0
   11.5732  -13.7552   27.2700 S   0  0  0  0  0  0  0  0  0  0  0  0
   11.2901  -15.3594   26.4156 C   0  0  0  0  0  0  0  0  0  0  0  0
   12.0097  -15.3754   25.0959 C   0  0  0  0  0  0  0  0  0  0  0  0
   11.8479  -16.6751   24.4021 C   0  0  2  0  0  0  0  0  0  0  0  0
   10.5954  -16.7204   23.6293 N   0  0  0  0  0  0  0  0  0  0  0  0
   11.7689  -17.7852   25.3714 C   0  0  0  0  0  0  0  0  0  0  0  0
   10.6854  -18.3373   25.6420 O   0  0  0  0  0  0  0  0  0  0  0  0
   12.8929  -18.2940   26.0507 O   0  0  0  0  0  0  0  0  0  0  0  0
  2  1  1  6
  2  3  1  0
  3  4  1  0
  4 12  1  0
  4  5  2  0
  5  6  1  0
  7  8  2  0
  7  6  1  0
  9  8  1  0
 10  9  2  0
 11 10  1  0
 11 12  2  0
 12  7  1  0
 13 15  1  0
 13  2  1  0
 14 13  2  0
 15 19  1  0
 16 17  1  0
 16 15  1  0
 17 18  1  0
 19 18  1  0
 19 20  1  1
 20 21  2  0
 22 23  1  0
 24 23  1  0
 24 25  1  0
 26 25  1  1
 26 27  1  0
 26 28  1  0
 27 20  1  0
 28 30  1  0
 29 28  2  0
M  END
$$$$
