WPM.pdb
     RDKit          3D

 30 32  0  0  1  0  0  0  0  0999 V2000
    6.0350  -17.8953   24.6772 N   0  0  0  0  0  0  0  0  0  0  0  0
    6.7170  -16.6676   24.3232 C   0  0  1  0  0  0  0  0  0  0  0  0
    7.2973  -16.0048   25.5643 C   0  0  0  0  0  0  0  0  0  0  0  0
    6.3474  -14.9463   25.9899 C   0  0  0  0  0  0  0  0  0  0  0  0
    5.1079  -15.2253   26.5824 C   0  0  0  0  0  0  0  0  0  0  0  0
    4.4817  -14.0845   26.8943 N   0  0  0  0  0  0  0  0  0  0  0  0
    5.2697  -13.0793   26.5250 C   0  0  0  0  0  0  0  0  0  0  0  0
    5.0756  -11.7150   26.6228 C   0  0  0  0  0  0  0  0  0  0  0  0
    6.0623  -10.8760   26.1466 C   0  0  0  0  0  0  0  0  0  0  0  0
    7.2175  -11.3714   25.5847 C   0  0  0  0  0  0  0  0  0  0  0  0
    7.4166  -12.7509   25.4846 C   0  0  0  0  0  0  0  0  0  0  0  0
    6.4330  -13.5871   25.9606 C   0  0  0  0  0  0  0  0  0  0  0  0
    7.8315  -16.9549   23.3398 C   0  0  0  0  0  0  0  0  0  0  0  0
    8.4196  -18.0423   23.5661 O   0  0  0  0  0  0  0  0  0  0  0  0
    8.1479  -16.0784   22.2970 N   0  0  0  0  0  0  0  0  0  0  0  0
    7.1352  -15.5039   21.3789 C   0  0  0  0  0  0  0  0  0  0  0  0
    7.4739  -14.0231   21.5896 C   0  0  0  0  0  0  0  0  0  0  0  0
    8.9555  -13.9957   22.0228 C   0  0  0  0  0  0  0  0  0  0  0  0
    9.3217  -15.4451   21.7728 C   0  0  1  0  0  0  0  0  0  0  0  0
   10.6265  -15.8404   22.2165 C   0  0  0  0  0  0  0  0  0  0  0  0
   11.5586  -15.7423   21.3344 O   0  0  0  0  0  0  0  0  0  0  0  0
   11.0041  -15.0323   28.9240 C   0  0  0  0  0  0  0  0  0  0  0  0
   12.2881  -14.8363   27.6350 S   0  0  0  0  0  0  0  0  0  0  0  0
   11.7416  -15.8326   26.1885 C   0  0  0  0  0  0  0  0  0  0  0  0
   12.7354  -15.7038   25.0679 C   0  0  0  0  0  0  0  0  0  0  0  0
   12.3728  -16.5628   23.9159 C   0  0  2  0  0  0  0  0  0  0  0  0
   10.9899  -16.3160   23.4746 N   0  0  0  0  0  0  0  0  0  0  0  0
   12.4348  -17.9913   24.2818 C   0  0  0  0  0  0  0  0  0  0  0  0
   11.4045  -18.6862   24.3690 O   0  0  0  0  0  0  0  0  0  0  0  0
   13.6422  -18.6631   24.5549 O   0  0  0  0  0  0  0  0  0  0  0  0
  2  1  1  1
  2  3  1  0
  3  4  1  0
  4 12  1  0
  4  5  2  0
  5  6  1  0
  7  8  2  0
  7  6  1  0
  9  8  1  0
 10  9  2  0
 11 10  1  0
 11 12  2  0
 12  7  1  0
 13 15  1  0
 13  2  1  0
 14 13  2  0
 15 19  1  0
 16 17  1  0
 16 15  1  0
 17 18  1  0
 19 18  1  0
 19 20  1  1
 20 21  2  0
 22 23  1  0
 24 23  1  0
 24 25  1  0
 26 25  1  1
 26 27  1  0
 26 28  1  0
 27 20  1  0
 28 30  1  0
 29 28  2  0
M  END
$$$$
