WPM.pdb
     RDKit          3D

 30 32  0  0  1  0  0  0  0  0999 V2000
   10.0385  -16.2910   22.4336 N   0  0  0  0  0  0  0  0  0  0  0  0
    9.4489  -15.5394   23.5223 C   0  0  1  0  0  0  0  0  0  0  0  0
    7.9410  -15.4376   23.3428 C   0  0  0  0  0  0  0  0  0  0  0  0
    7.5299  -14.0815   23.7853 C   0  0  0  0  0  0  0  0  0  0  0  0
    7.7171  -12.9331   23.0033 C   0  0  0  0  0  0  0  0  0  0  0  0
    7.2207  -11.8627   23.6345 N   0  0  0  0  0  0  0  0  0  0  0  0
    6.7206  -12.2762   24.7950 C   0  0  0  0  0  0  0  0  0  0  0  0
    6.1076  -11.5600   25.8049 C   0  0  0  0  0  0  0  0  0  0  0  0
    5.6825  -12.2408   26.9274 C   0  0  0  0  0  0  0  0  0  0  0  0
    5.8582  -13.6006   27.0527 C   0  0  0  0  0  0  0  0  0  0  0  0
    6.4777  -14.3276   26.0327 C   0  0  0  0  0  0  0  0  0  0  0  0
    6.9004  -13.6486   24.9132 C   0  0  0  0  0  0  0  0  0  0  0  0
    9.7530  -16.2110   24.8445 C   0  0  0  0  0  0  0  0  0  0  0  0
    9.4328  -17.4261   24.8647 O   0  0  0  0  0  0  0  0  0  0  0  0
   10.3320  -15.5203   25.9139 N   0  0  0  0  0  0  0  0  0  0  0  0
   10.8398  -14.1312   25.8085 C   0  0  0  0  0  0  0  0  0  0  0  0
   10.0319  -13.5222   26.9609 C   0  0  0  0  0  0  0  0  0  0  0  0
    9.7311  -14.6946   27.9194 C   0  0  0  0  0  0  0  0  0  0  0  0
   10.6083  -15.7635   27.2988 C   0  0  1  0  0  0  0  0  0  0  0  0
   10.4691  -17.0786   27.8528 C   0  0  0  0  0  0  0  0  0  0  0  0
    9.2689  -17.4131   28.1758 O   0  0  0  0  0  0  0  0  0  0  0  0
   13.5725  -22.6959   25.6514 C   0  0  0  0  0  0  0  0  0  0  0  0
   14.3049  -21.2844   26.5569 S   0  0  0  0  0  0  0  0  0  0  0  0
   12.9389  -20.0942   26.8752 C   0  0  0  0  0  0  0  0  0  0  0  0
   12.4342  -20.2521   28.2823 C   0  0  0  0  0  0  0  0  0  0  0  0
   11.2487  -19.3993   28.5355 C   0  0  2  0  0  0  0  0  0  0  0  0
   11.4734  -18.0168   28.0813 N   0  0  0  0  0  0  0  0  0  0  0  0
   10.9599  -19.3116   29.9801 C   0  0  0  0  0  0  0  0  0  0  0  0
   11.3049  -18.3223   30.6541 O   0  0  0  0  0  0  0  0  0  0  0  0
   10.2846  -20.3222   30.6917 O   0  0  0  0  0  0  0  0  0  0  0  0
  2  1  1  6
  2  3  1  0
  3  4  1  0
  4 12  1  0
  4  5  2  0
  5  6  1  0
  7  8  2  0
  7  6  1  0
  9  8  1  0
 10  9  2  0
 11 10  1  0
 11 12  2  0
 12  7  1  0
 13 15  1  0
 13  2  1  0
 14 13  2  0
 15 19  1  0
 16 17  1  0
 16 15  1  0
 17 18  1  0
 19 18  1  0
 19 20  1  1
 20 21  2  0
 22 23  1  0
 24 23  1  0
 24 25  1  0
 26 25  1  1
 26 27  1  0
 26 28  1  0
 27 20  1  0
 28 30  1  0
 29 28  2  0
M  END
$$$$
