WPM.pdb
     RDKit          3D

 30 32  0  0  1  0  0  0  0  0999 V2000
    6.2141  -17.4364   24.6065 N   0  0  0  0  0  0  0  0  0  0  0  0
    7.0650  -16.3800   24.0988 C   0  0  1  0  0  0  0  0  0  0  0  0
    7.7369  -15.6404   25.2467 C   0  0  0  0  0  0  0  0  0  0  0  0
    6.7422  -14.6931   25.8097 C   0  0  0  0  0  0  0  0  0  0  0  0
    5.5404  -15.1085   26.4000 C   0  0  0  0  0  0  0  0  0  0  0  0
    4.8602  -14.0478   26.8507 N   0  0  0  0  0  0  0  0  0  0  0  0
    5.5771  -12.9629   26.5731 C   0  0  0  0  0  0  0  0  0  0  0  0
    5.3084  -11.6313   26.8243 C   0  0  0  0  0  0  0  0  0  0  0  0
    6.2296  -10.6879   26.4172 C   0  0  0  0  0  0  0  0  0  0  0  0
    7.3925  -11.0493   25.7749 C   0  0  0  0  0  0  0  0  0  0  0  0
    7.6670  -12.3955   25.5197 C   0  0  0  0  0  0  0  0  0  0  0  0
    6.7488  -13.3359   25.9267 C   0  0  0  0  0  0  0  0  0  0  0  0
    8.1247  -16.9576   23.1849 C   0  0  0  0  0  0  0  0  0  0  0  0
    8.7174  -17.9479   23.6825 O   0  0  0  0  0  0  0  0  0  0  0  0
    8.3912  -16.4199   21.9217 N   0  0  0  0  0  0  0  0  0  0  0  0
    7.4111  -16.4265   20.8091 C   0  0  0  0  0  0  0  0  0  0  0  0
    7.4171  -14.9219   20.5126 C   0  0  0  0  0  0  0  0  0  0  0  0
    8.7949  -14.4126   20.9875 C   0  0  0  0  0  0  0  0  0  0  0  0
    9.4724  -15.7378   21.2740 C   0  0  1  0  0  0  0  0  0  0  0  0
   10.7616  -15.6535   21.8957 C   0  0  0  0  0  0  0  0  0  0  0  0
   11.1995  -14.4589   22.0899 O   0  0  0  0  0  0  0  0  0  0  0  0
   11.0227  -13.9936   28.0044 C   0  0  0  0  0  0  0  0  0  0  0  0
   10.5194  -15.4027   26.9509 S   0  0  0  0  0  0  0  0  0  0  0  0
   11.8489  -15.6292   25.7001 C   0  0  0  0  0  0  0  0  0  0  0  0
   11.4737  -16.7235   24.7403 C   0  0  0  0  0  0  0  0  0  0  0  0
   12.3588  -16.7337   23.5515 C   0  0  2  0  0  0  0  0  0  0  0  0
   11.5814  -16.7044   22.3014 N   0  0  0  0  0  0  0  0  0  0  0  0
   13.1630  -17.9702   23.5022 C   0  0  0  0  0  0  0  0  0  0  0  0
   14.1244  -18.1526   24.2732 O   0  0  0  0  0  0  0  0  0  0  0  0
   12.9078  -19.0175   22.5956 O   0  0  0  0  0  0  0  0  0  0  0  0
  2  1  1  1
  2  3  1  0
  3  4  1  0
  4 12  1  0
  4  5  2  0
  5  6  1  0
  7  8  2  0
  7  6  1  0
  9  8  1  0
 10  9  2  0
 11 10  1  0
 11 12  2  0
 12  7  1  0
 13 15  1  0
 13  2  1  0
 14 13  2  0
 15 19  1  0
 16 17  1  0
 16 15  1  0
 17 18  1  0
 19 18  1  0
 19 20  1  1
 20 21  2  0
 22 23  1  0
 24 23  1  0
 24 25  1  0
 26 25  1  1
 26 27  1  0
 26 28  1  0
 27 20  1  0
 28 30  1  0
 29 28  2  0
M  END
$$$$
