WPM.pdb
     RDKit          3D

 30 32  0  0  1  0  0  0  0  0999 V2000
    6.3744  -17.7003   24.7123 N   0  0  0  0  0  0  0  0  0  0  0  0
    7.1019  -16.5359   24.2513 C   0  0  1  0  0  0  0  0  0  0  0  0
    7.7190  -15.7940   25.4282 C   0  0  0  0  0  0  0  0  0  0  0  0
    6.7106  -14.8222   25.9209 C   0  0  0  0  0  0  0  0  0  0  0  0
    5.3903  -15.1803   26.2270 C   0  0  0  0  0  0  0  0  0  0  0  0
    4.7199  -14.1150   26.6813 N   0  0  0  0  0  0  0  0  0  0  0  0
    5.5572  -13.0822   26.6795 C   0  0  0  0  0  0  0  0  0  0  0  0
    5.3482  -11.7673   27.0482 C   0  0  0  0  0  0  0  0  0  0  0  0
    6.3994  -10.8800   26.9385 C   0  0  0  0  0  0  0  0  0  0  0  0
    7.6323  -11.2803   26.4744 C   0  0  0  0  0  0  0  0  0  0  0  0
    7.8466  -12.6096   26.1009 C   0  0  0  0  0  0  0  0  0  0  0  0
    6.7986  -13.4943   26.2115 C   0  0  0  0  0  0  0  0  0  0  0  0
    8.1955  -16.9508   23.2901 C   0  0  0  0  0  0  0  0  0  0  0  0
    8.8359  -17.9598   23.6791 O   0  0  0  0  0  0  0  0  0  0  0  0
    8.4409  -16.2599   22.0992 N   0  0  0  0  0  0  0  0  0  0  0  0
    7.3997  -16.0050   21.0747 C   0  0  0  0  0  0  0  0  0  0  0  0
    7.5498  -14.4810   20.9946 C   0  0  0  0  0  0  0  0  0  0  0  0
    9.0010  -14.1853   21.4308 C   0  0  0  0  0  0  0  0  0  0  0  0
    9.5477  -15.5982   21.4743 C   0  0  1  0  0  0  0  0  0  0  0  0
   10.8740  -15.7339   22.0018 C   0  0  0  0  0  0  0  0  0  0  0  0
   11.6925  -14.7957   21.6752 O   0  0  0  0  0  0  0  0  0  0  0  0
   11.2647  -12.9344   26.3044 C   0  0  0  0  0  0  0  0  0  0  0  0
   12.0404  -14.2572   27.3030 S   0  0  0  0  0  0  0  0  0  0  0  0
   12.7014  -15.4972   26.1159 C   0  0  0  0  0  0  0  0  0  0  0  0
   11.7704  -15.6375   24.9441 C   0  0  0  0  0  0  0  0  0  0  0  0
   12.3129  -16.5661   23.9244 C   0  0  2  0  0  0  0  0  0  0  0  0
   11.3680  -16.7547   22.8110 N   0  0  0  0  0  0  0  0  0  0  0  0
   12.5394  -17.9069   24.4980 C   0  0  0  0  0  0  0  0  0  0  0  0
   13.6000  -18.1928   25.0858 O   0  0  0  0  0  0  0  0  0  0  0  0
   11.5900  -18.9447   24.4248 O   0  0  0  0  0  0  0  0  0  0  0  0
  2  1  1  1
  2  3  1  0
  3  4  1  0
  4 12  1  0
  4  5  2  0
  5  6  1  0
  7  8  2  0
  7  6  1  0
  9  8  1  0
 10  9  2  0
 11 10  1  0
 11 12  2  0
 12  7  1  0
 13 15  1  0
 13  2  1  0
 14 13  2  0
 15 19  1  0
 16 17  1  0
 16 15  1  0
 17 18  1  0
 19 18  1  0
 19 20  1  1
 20 21  2  0
 22 23  1  0
 24 23  1  0
 24 25  1  0
 26 25  1  1
 26 27  1  0
 26 28  1  0
 27 20  1  0
 28 30  1  0
 29 28  2  0
M  END
$$$$
