WPM.pdb
     RDKit          3D

 30 32  0  0  1  0  0  0  0  0999 V2000
    6.4663  -17.1666   25.0354 N   0  0  0  0  0  0  0  0  0  0  0  0
    7.2537  -16.2004   24.2976 C   0  0  1  0  0  0  0  0  0  0  0  0
    8.0226  -15.2999   25.2537 C   0  0  0  0  0  0  0  0  0  0  0  0
    7.0368  -14.4123   25.9203 C   0  0  0  0  0  0  0  0  0  0  0  0
    5.7879  -14.8609   26.3723 C   0  0  0  0  0  0  0  0  0  0  0  0
    5.1269  -13.8584   26.9628 N   0  0  0  0  0  0  0  0  0  0  0  0
    5.9013  -12.7791   26.9086 C   0  0  0  0  0  0  0  0  0  0  0  0
    5.6730  -11.4966   27.3689 C   0  0  0  0  0  0  0  0  0  0  0  0
    6.6529  -10.5450   27.1731 C   0  0  0  0  0  0  0  0  0  0  0  0
    7.8346  -10.8507   26.5362 C   0  0  0  0  0  0  0  0  0  0  0  0
    8.0685  -12.1470   26.0699 C   0  0  0  0  0  0  0  0  0  0  0  0
    7.0916  -13.0959   26.2662 C   0  0  0  0  0  0  0  0  0  0  0  0
    8.2289  -16.9111   23.3834 C   0  0  0  0  0  0  0  0  0  0  0  0
    8.7755  -17.9052   23.9242 O   0  0  0  0  0  0  0  0  0  0  0  0
    8.4727  -16.4792   22.0759 N   0  0  0  0  0  0  0  0  0  0  0  0
    7.3992  -16.2489   21.0794 C   0  0  0  0  0  0  0  0  0  0  0  0
    7.7532  -14.8015   20.7171 C   0  0  0  0  0  0  0  0  0  0  0  0
    9.2614  -14.6583   21.0142 C   0  0  0  0  0  0  0  0  0  0  0  0
    9.6078  -16.1092   21.2833 C   0  0  1  0  0  0  0  0  0  0  0  0
   10.9399  -16.3514   21.7548 C   0  0  0  0  0  0  0  0  0  0  0  0
   11.5039  -17.4087   21.2850 O   0  0  0  0  0  0  0  0  0  0  0  0
   11.4549  -13.5702   27.2955 C   0  0  0  0  0  0  0  0  0  0  0  0
   10.9536  -15.3214   27.4708 S   0  0  0  0  0  0  0  0  0  0  0  0
   11.9985  -16.2895   26.3069 C   0  0  0  0  0  0  0  0  0  0  0  0
   11.3495  -16.3421   24.9521 C   0  0  0  0  0  0  0  0  0  0  0  0
   12.3310  -16.1035   23.8674 C   0  0  2  0  0  0  0  0  0  0  0  0
   11.6771  -15.5845   22.6545 N   0  0  0  0  0  0  0  0  0  0  0  0
   12.9923  -17.3608   23.4674 C   0  0  0  0  0  0  0  0  0  0  0  0
   14.0331  -17.7555   24.0270 O   0  0  0  0  0  0  0  0  0  0  0  0
   12.5046  -18.1932   22.4413 O   0  0  0  0  0  0  0  0  0  0  0  0
  2  1  1  1
  2  3  1  0
  3  4  1  0
  4 12  1  0
  4  5  2  0
  5  6  1  0
  7  8  2  0
  7  6  1  0
  9  8  1  0
 10  9  2  0
 11 10  1  0
 11 12  2  0
 12  7  1  0
 13 15  1  0
 13  2  1  0
 14 13  2  0
 15 19  1  0
 16 17  1  0
 16 15  1  0
 17 18  1  0
 19 18  1  0
 19 20  1  1
 20 21  2  0
 22 23  1  0
 24 23  1  0
 24 25  1  0
 26 25  1  1
 26 27  1  0
 26 28  1  0
 27 20  1  0
 28 30  1  0
 29 28  2  0
M  END
$$$$
