WPM.pdb
     RDKit          3D

 30 32  0  0  1  0  0  0  0  0999 V2000
    6.5792  -18.3115   24.7263 N   0  0  0  0  0  0  0  0  0  0  0  0
    7.0607  -16.9765   24.4370 C   0  0  1  0  0  0  0  0  0  0  0  0
    7.6366  -16.3354   25.6915 C   0  0  0  0  0  0  0  0  0  0  0  0
    6.8725  -15.0882   25.9457 C   0  0  0  0  0  0  0  0  0  0  0  0
    5.4889  -15.0723   26.1708 C   0  0  0  0  0  0  0  0  0  0  0  0
    5.0771  -13.8211   26.4066 N   0  0  0  0  0  0  0  0  0  0  0  0
    6.1424  -13.0282   26.3415 C   0  0  0  0  0  0  0  0  0  0  0  0
    6.2437  -11.6598   26.5024 C   0  0  0  0  0  0  0  0  0  0  0  0
    7.4863  -11.0739   26.3718 C   0  0  0  0  0  0  0  0  0  0  0  0
    8.6070  -11.8214   26.0879 C   0  0  0  0  0  0  0  0  0  0  0  0
    8.5077  -13.2056   25.9248 C   0  0  0  0  0  0  0  0  0  0  0  0
    7.2688  -13.7896   26.0563 C   0  0  0  0  0  0  0  0  0  0  0  0
    8.1278  -17.0278   23.3643 C   0  0  0  0  0  0  0  0  0  0  0  0
    9.0763  -17.8011   23.6501 O   0  0  0  0  0  0  0  0  0  0  0  0
    8.0358  -16.2785   22.1871 N   0  0  0  0  0  0  0  0  0  0  0  0
    6.7538  -15.9973   21.4972 C   0  0  0  0  0  0  0  0  0  0  0  0
    6.8669  -14.4685   21.4547 C   0  0  0  0  0  0  0  0  0  0  0  0
    8.3800  -14.1648   21.4950 C   0  0  0  0  0  0  0  0  0  0  0  0
    8.9269  -15.5674   21.3189 C   0  0  1  0  0  0  0  0  0  0  0  0
   10.3475  -15.7012   21.4595 C   0  0  0  0  0  0  0  0  0  0  0  0
   11.0481  -14.9984   20.6398 O   0  0  0  0  0  0  0  0  0  0  0  0
   11.1014  -15.0006   28.8777 C   0  0  0  0  0  0  0  0  0  0  0  0
   10.2163  -15.6434   27.4107 S   0  0  0  0  0  0  0  0  0  0  0  0
   11.4330  -15.6764   26.0315 C   0  0  0  0  0  0  0  0  0  0  0  0
   10.7408  -16.0140   24.7406 C   0  0  0  0  0  0  0  0  0  0  0  0
   11.6851  -16.0110   23.5983 C   0  0  2  0  0  0  0  0  0  0  0  0
   11.0417  -16.4986   22.3668 N   0  0  0  0  0  0  0  0  0  0  0  0
   12.8219  -16.9177   23.8503 C   0  0  0  0  0  0  0  0  0  0  0  0
   12.8995  -18.0330   23.3004 O   0  0  0  0  0  0  0  0  0  0  0  0
   13.8851  -16.5953   24.7161 O   0  0  0  0  0  0  0  0  0  0  0  0
  2  1  1  1
  2  3  1  0
  3  4  1  0
  4 12  1  0
  4  5  2  0
  5  6  1  0
  7  8  2  0
  7  6  1  0
  9  8  1  0
 10  9  2  0
 11 10  1  0
 11 12  2  0
 12  7  1  0
 13 15  1  0
 13  2  1  0
 14 13  2  0
 15 19  1  0
 16 17  1  0
 16 15  1  0
 17 18  1  0
 19 18  1  0
 19 20  1  1
 20 21  2  0
 22 23  1  0
 24 23  1  0
 24 25  1  0
 26 25  1  1
 26 27  1  0
 26 28  1  0
 27 20  1  0
 28 30  1  0
 29 28  2  0
M  END
$$$$
