WPM.pdb
     RDKit          3D

 30 32  0  0  1  0  0  0  0  0999 V2000
    6.3315  -17.5030   25.0016 N   0  0  0  0  0  0  0  0  0  0  0  0
    6.9295  -16.4239   24.2428 C   0  0  1  0  0  0  0  0  0  0  0  0
    7.6915  -15.4835   25.1656 C   0  0  0  0  0  0  0  0  0  0  0  0
    6.7031  -14.5571   25.7730 C   0  0  0  0  0  0  0  0  0  0  0  0
    5.4154  -14.9576   26.1560 C   0  0  0  0  0  0  0  0  0  0  0  0
    4.7596  -13.9286   26.7052 N   0  0  0  0  0  0  0  0  0  0  0  0
    5.5749  -12.8784   26.6907 C   0  0  0  0  0  0  0  0  0  0  0  0
    5.3682  -11.5860   27.1331 C   0  0  0  0  0  0  0  0  0  0  0  0
    6.3918  -10.6716   26.9893 C   0  0  0  0  0  0  0  0  0  0  0  0
    7.5951  -11.0235   26.4205 C   0  0  0  0  0  0  0  0  0  0  0  0
    7.8070  -12.3300   25.9723 C   0  0  0  0  0  0  0  0  0  0  0  0
    6.7867  -13.2417   26.1169 C   0  0  0  0  0  0  0  0  0  0  0  0
    7.8759  -16.9809   23.2008 C   0  0  0  0  0  0  0  0  0  0  0  0
    8.2883  -18.1354   23.4773 O   0  0  0  0  0  0  0  0  0  0  0  0
    8.2335  -16.2579   22.0583 N   0  0  0  0  0  0  0  0  0  0  0  0
    7.2468  -15.7240   21.0889 C   0  0  0  0  0  0  0  0  0  0  0  0
    7.6922  -14.2569   21.1193 C   0  0  0  0  0  0  0  0  0  0  0  0
    9.1799  -14.2852   21.5311 C   0  0  0  0  0  0  0  0  0  0  0  0
    9.4389  -15.7765   21.4510 C   0  0  1  0  0  0  0  0  0  0  0  0
   10.7208  -16.2095   21.9252 C   0  0  0  0  0  0  0  0  0  0  0  0
   11.6961  -16.0375   21.1031 O   0  0  0  0  0  0  0  0  0  0  0  0
   12.2465  -13.6773   27.7268 C   0  0  0  0  0  0  0  0  0  0  0  0
   10.7055  -14.5939   27.3608 S   0  0  0  0  0  0  0  0  0  0  0  0
   11.1574  -15.9444   26.1966 C   0  0  0  0  0  0  0  0  0  0  0  0
   11.8195  -15.3724   24.9744 C   0  0  0  0  0  0  0  0  0  0  0  0
   12.1728  -16.4312   23.9993 C   0  0  2  0  0  0  0  0  0  0  0  0
   11.0215  -16.7912   23.1549 N   0  0  0  0  0  0  0  0  0  0  0  0
   12.5755  -17.6719   24.6895 C   0  0  0  0  0  0  0  0  0  0  0  0
   11.8243  -18.6648   24.7349 O   0  0  0  0  0  0  0  0  0  0  0  0
   13.8172  -17.8232   25.3368 O   0  0  0  0  0  0  0  0  0  0  0  0
  2  1  1  1
  2  3  1  0
  3  4  1  0
  4 12  1  0
  4  5  2  0
  5  6  1  0
  7  8  2  0
  7  6  1  0
  9  8  1  0
 10  9  2  0
 11 10  1  0
 11 12  2  0
 12  7  1  0
 13 15  1  0
 13  2  1  0
 14 13  2  0
 15 19  1  0
 16 17  1  0
 16 15  1  0
 17 18  1  0
 19 18  1  0
 19 20  1  1
 20 21  2  0
 22 23  1  0
 24 23  1  0
 24 25  1  0
 26 25  1  1
 26 27  1  0
 26 28  1  0
 27 20  1  0
 28 30  1  0
 29 28  2  0
M  END
$$$$
