WPM.pdb
     RDKit          3D

 30 32  0  0  1  0  0  0  0  0999 V2000
   11.0800  -17.4503   18.9291 N   0  0  0  0  0  0  0  0  0  0  0  0
    9.8039  -17.6541   19.5833 C   0  0  1  0  0  0  0  0  0  0  0  0
    9.6962  -19.0792   20.1066 C   0  0  0  0  0  0  0  0  0  0  0  0
    8.3201  -19.2575   20.6343 C   0  0  0  0  0  0  0  0  0  0  0  0
    7.2064  -19.4662   19.8088 C   0  0  0  0  0  0  0  0  0  0  0  0
    6.1072  -19.6297   20.5544 N   0  0  0  0  0  0  0  0  0  0  0  0
    6.4689  -19.5337   21.8303 C   0  0  0  0  0  0  0  0  0  0  0  0
    5.7073  -19.6217   22.9795 C   0  0  0  0  0  0  0  0  0  0  0  0
    6.3382  -19.4733   24.1978 C   0  0  0  0  0  0  0  0  0  0  0  0
    7.6928  -19.2423   24.2822 C   0  0  0  0  0  0  0  0  0  0  0  0
    8.4657  -19.1530   23.1215 C   0  0  0  0  0  0  0  0  0  0  0  0
    7.8365  -19.3022   21.9070 C   0  0  0  0  0  0  0  0  0  0  0  0
    9.6468  -16.6832   20.7341 C   0  0  0  0  0  0  0  0  0  0  0  0
   10.3645  -16.9731   21.7242 O   0  0  0  0  0  0  0  0  0  0  0  0
    8.7825  -15.5857   20.6689 N   0  0  0  0  0  0  0  0  0  0  0  0
    8.4655  -14.8710   19.4090 C   0  0  0  0  0  0  0  0  0  0  0  0
    6.9381  -14.9899   19.4765 C   0  0  0  0  0  0  0  0  0  0  0  0
    6.6003  -15.1293   20.9765 C   0  0  0  0  0  0  0  0  0  0  0  0
    7.9623  -14.8358   21.5734 C   0  0  1  0  0  0  0  0  0  0  0  0
    8.0723  -15.0260   22.9902 C   0  0  0  0  0  0  0  0  0  0  0  0
    8.0357  -16.2511   23.3833 O   0  0  0  0  0  0  0  0  0  0  0  0
    5.7769  -11.2809   28.3066 C   0  0  0  0  0  0  0  0  0  0  0  0
    6.7856  -10.7567   26.8726 S   0  0  0  0  0  0  0  0  0  0  0  0
    6.9552  -12.2265   25.7797 C   0  0  0  0  0  0  0  0  0  0  0  0
    8.1430  -13.0470   26.1986 C   0  0  0  0  0  0  0  0  0  0  0  0
    8.2380  -14.3056   25.4219 C   0  0  2  0  0  0  0  0  0  0  0  0
    8.2069  -14.0474   23.9726 N   0  0  0  0  0  0  0  0  0  0  0  0
    7.0888  -15.1879   25.7032 C   0  0  0  0  0  0  0  0  0  0  0  0
    6.0811  -15.1979   24.9707 O   0  0  0  0  0  0  0  0  0  0  0  0
    7.0467  -16.0688   26.8014 O   0  0  0  0  0  0  0  0  0  0  0  0
  2  1  1  1
  2  3  1  0
  3  4  1  0
  4 12  1  0
  4  5  2  0
  5  6  1  0
  7  8  2  0
  7  6  1  0
  9  8  1  0
 10  9  2  0
 11 10  1  0
 11 12  2  0
 12  7  1  0
 13 15  1  0
 13  2  1  0
 14 13  2  0
 15 19  1  0
 16 17  1  0
 16 15  1  0
 17 18  1  0
 19 18  1  0
 19 20  1  1
 20 21  2  0
 22 23  1  0
 24 23  1  0
 24 25  1  0
 26 25  1  1
 26 27  1  0
 26 28  1  0
 27 20  1  0
 28 30  1  0
 29 28  2  0
M  END
$$$$
