WPM.pdb
     RDKit          3D

 30 32  0  0  1  0  0  0  0  0999 V2000
    6.1586  -17.9035   25.1263 N   0  0  0  0  0  0  0  0  0  0  0  0
    6.3040  -17.0782   23.9450 C   0  0  1  0  0  0  0  0  0  0  0  0
    5.8384  -15.6572   24.2284 C   0  0  0  0  0  0  0  0  0  0  0  0
    6.4706  -15.2263   25.5006 C   0  0  0  0  0  0  0  0  0  0  0  0
    7.1324  -16.1114   26.3631 C   0  0  0  0  0  0  0  0  0  0  0  0
    7.6336  -15.4437   27.4089 N   0  0  0  0  0  0  0  0  0  0  0  0
    7.3198  -14.1609   27.2548 C   0  0  0  0  0  0  0  0  0  0  0  0
    7.5980  -13.0742   28.0613 C   0  0  0  0  0  0  0  0  0  0  0  0
    7.1409  -11.8324   27.6698 C   0  0  0  0  0  0  0  0  0  0  0  0
    6.4236  -11.6644   26.5067 C   0  0  0  0  0  0  0  0  0  0  0  0
    6.1409  -12.7617   25.6889 C   0  0  0  0  0  0  0  0  0  0  0  0
    6.5977  -13.9996   26.0790 C   0  0  0  0  0  0  0  0  0  0  0  0
    7.7511  -17.0534   23.5009 C   0  0  0  0  0  0  0  0  0  0  0  0
    8.5142  -17.6850   24.2742 O   0  0  0  0  0  0  0  0  0  0  0  0
    8.1625  -16.3862   22.3427 N   0  0  0  0  0  0  0  0  0  0  0  0
    7.3612  -16.3473   21.0956 C   0  0  0  0  0  0  0  0  0  0  0  0
    7.3025  -14.8240   20.9289 C   0  0  0  0  0  0  0  0  0  0  0  0
    8.5543  -14.2808   21.6510 C   0  0  0  0  0  0  0  0  0  0  0  0
    9.2756  -15.5848   21.9279 C   0  0  1  0  0  0  0  0  0  0  0  0
   10.4489  -15.4828   22.7457 C   0  0  0  0  0  0  0  0  0  0  0  0
   10.5564  -14.3894   23.4163 O   0  0  0  0  0  0  0  0  0  0  0  0
   10.4812  -13.4862   27.2258 C   0  0  0  0  0  0  0  0  0  0  0  0
   11.6176  -14.8699   27.6034 S   0  0  0  0  0  0  0  0  0  0  0  0
   12.5958  -15.1823   26.0772 C   0  0  0  0  0  0  0  0  0  0  0  0
   11.9636  -16.2857   25.2757 C   0  0  0  0  0  0  0  0  0  0  0  0
   12.5311  -16.3611   23.9086 C   0  0  2  0  0  0  0  0  0  0  0  0
   11.4711  -16.4186   22.8882 N   0  0  0  0  0  0  0  0  0  0  0  0
   13.3303  -17.5896   23.7354 C   0  0  0  0  0  0  0  0  0  0  0  0
   12.7904  -18.6961   23.5453 O   0  0  0  0  0  0  0  0  0  0  0  0
   14.7383  -17.6022   23.7716 O   0  0  0  0  0  0  0  0  0  0  0  0
  2  1  1  1
  2  3  1  0
  3  4  1  0
  4 12  1  0
  4  5  2  0
  5  6  1  0
  7  8  2  0
  7  6  1  0
  9  8  1  0
 10  9  2  0
 11 10  1  0
 11 12  2  0
 12  7  1  0
 13 15  1  0
 13  2  1  0
 14 13  2  0
 15 19  1  0
 16 17  1  0
 16 15  1  0
 17 18  1  0
 19 18  1  0
 19 20  1  1
 20 21  2  0
 22 23  1  0
 24 23  1  0
 24 25  1  0
 26 25  1  1
 26 27  1  0
 26 28  1  0
 27 20  1  0
 28 30  1  0
 29 28  2  0
M  END
$$$$
