SLD.pdb
     RDKit          3D

 23 22  0  0  1  0  0  0  0  0999 V2000
   19.1852  -11.4779  -19.7875 O   0  0  0  0  0  0  0  0  0  0  0  0
   19.5381  -10.7914  -18.6499 C   0  0  0  0  0  0  0  0  0  0  0  0
   20.6731  -11.4900  -17.8937 C   0  0  2  0  0  0  0  0  0  0  0  0
   20.0853  -12.6388  -17.2286 N   0  0  0  0  0  0  0  0  0  0  0  0
   21.2759  -10.5816  -16.8903 C   0  0  0  0  0  0  0  0  0  0  0  0
   20.7059  -10.2964  -15.7971 O   0  0  0  0  0  0  0  0  0  0  0  0
   25.0368  -10.3049  -14.1842 C   0  0  0  0  0  0  0  0  0  0  0  0
   25.2049  -10.2247  -15.6718 C   0  0  2  0  0  0  0  0  0  0  0  0
   26.6936  -10.1870  -15.9554 C   0  0  0  0  0  0  0  0  0  0  0  0
   24.6032   -8.9876  -16.2697 C   0  0  0  0  0  0  0  0  0  0  0  0
   23.0855   -8.9885  -16.2105 C   0  0  2  0  0  0  0  0  0  0  0  0
   22.5453   -9.9895  -17.1340 N   0  0  0  0  0  0  0  0  0  0  0  0
   22.6320   -7.6401  -16.6907 C   0  0  0  0  0  0  0  0  0  0  0  0
   22.7232   -7.3192  -17.9026 O   0  0  0  0  0  0  0  0  0  0  0  0
   22.0847   -6.6803  -15.8007 N   0  0  0  0  0  0  0  0  0  0  0  0
   21.5472   -5.4263  -16.2594 C   0  0  1  0  0  0  0  0  0  0  0  0
   20.0466   -5.4811  -16.4205 C   0  0  0  0  0  0  0  0  0  0  0  0
   19.4613   -4.2074  -16.8642 C   0  0  0  0  0  0  0  0  0  0  0  0
   19.8088   -3.6788  -17.9421 O   0  0  0  0  0  0  0  0  0  0  0  0
   21.9760   -4.2917  -15.3789 C   0  0  0  0  0  0  0  0  0  0  0  0
   22.3875   -4.4984  -14.2231 O   0  0  0  0  0  0  0  0  0  0  0  0
   18.5098   -3.5683  -16.0902 O   0  0  0  0  0  0  0  0  0  0  0  0
   21.9315   -2.9791  -15.8131 O   0  0  0  0  0  0  0  0  0  0  0  0
  2  1  1  0
  3  4  1  1
  3  2  1  0
  5  3  1  0
  6  5  2  0
  8  7  1  1
  8 10  1  0
  9  8  1  0
 11 10  1  6
 11 13  1  0
 11 12  1  0
 12  5  1  0
 13 15  1  0
 14 13  2  0
 15 16  1  0
 16 17  1  1
 16 20  1  0
 18 17  1  0
 19 18  2  0
 20 21  2  0
 20 23  1  0
 22 18  1  0
M  END
$$$$
