SLD.pdb
     RDKit          3D

 23 22  0  0  1  0  0  0  0  0999 V2000
   26.4462  -16.8719  -16.6859 O   0  0  0  0  0  0  0  0  0  0  0  0
   25.7118  -17.9437  -16.2366 C   0  0  0  0  0  0  0  0  0  0  0  0
   26.5412  -18.8623  -15.3331 C   0  0  2  0  0  0  0  0  0  0  0  0
   27.5413  -19.4871  -16.1800 N   0  0  0  0  0  0  0  0  0  0  0  0
   25.6877  -19.9017  -14.7116 C   0  0  0  0  0  0  0  0  0  0  0  0
   25.4197  -20.9980  -15.2840 O   0  0  0  0  0  0  0  0  0  0  0  0
   26.6854  -21.9153  -11.1398 C   0  0  0  0  0  0  0  0  0  0  0  0
   25.9639  -20.6407  -10.8189 C   0  0  2  0  0  0  0  0  0  0  0  0
   25.9825  -20.4800   -9.3117 C   0  0  0  0  0  0  0  0  0  0  0  0
   24.5277  -20.6485  -11.2513 C   0  0  0  0  0  0  0  0  0  0  0  0
   24.3715  -20.7546  -12.7584 C   0  0  2  0  0  0  0  0  0  0  0  0
   25.1313  -19.6910  -13.4203 N   0  0  0  0  0  0  0  0  0  0  0  0
   22.9186  -20.5268  -13.0608 C   0  0  0  0  0  0  0  0  0  0  0  0
   22.3364  -19.4761  -12.6908 O   0  0  0  0  0  0  0  0  0  0  0  0
   22.1496  -21.4829  -13.7733 N   0  0  0  0  0  0  0  0  0  0  0  0
   20.7685  -21.2593  -14.1118 C   0  0  1  0  0  0  0  0  0  0  0  0
   20.5297  -21.3566  -15.5998 C   0  0  0  0  0  0  0  0  0  0  0  0
   20.8365  -20.1130  -16.3217 C   0  0  0  0  0  0  0  0  0  0  0  0
   20.3704  -19.0165  -15.9443 O   0  0  0  0  0  0  0  0  0  0  0  0
   19.8610  -22.1666  -13.3374 C   0  0  0  0  0  0  0  0  0  0  0  0
   20.2702  -23.2543  -12.8930 O   0  0  0  0  0  0  0  0  0  0  0  0
   21.6517  -20.1364  -17.4388 O   0  0  0  0  0  0  0  0  0  0  0  0
   18.5419  -21.8332  -13.0879 O   0  0  0  0  0  0  0  0  0  0  0  0
  2  1  1  0
  3  4  1  6
  3  2  1  0
  5  3  1  0
  6  5  2  0
  8  7  1  1
  8 10  1  0
  9  8  1  0
 11 10  1  1
 11 13  1  0
 11 12  1  0
 12  5  1  0
 13 15  1  0
 14 13  2  0
 15 16  1  0
 16 17  1  6
 16 20  1  0
 18 17  1  0
 19 18  2  0
 20 21  2  0
 20 23  1  0
 22 18  1  0
M  END
$$$$
