SLD.pdb
     RDKit          3D

 23 22  0  0  1  0  0  0  0  0999 V2000
   18.5137  -12.2786  -19.4077 O   0  0  0  0  0  0  0  0  0  0  0  0
   19.2557  -11.6083  -18.4642 C   0  0  0  0  0  0  0  0  0  0  0  0
   20.3674  -12.4893  -17.8846 C   0  0  2  0  0  0  0  0  0  0  0  0
   19.7137  -13.6068  -17.2278 N   0  0  0  0  0  0  0  0  0  0  0  0
   21.1808  -11.7344  -16.9028 C   0  0  0  0  0  0  0  0  0  0  0  0
   20.7692  -11.4664  -15.7366 O   0  0  0  0  0  0  0  0  0  0  0  0
   27.0076   -9.5902  -16.1729 C   0  0  0  0  0  0  0  0  0  0  0  0
   25.5573   -9.6090  -15.7934 C   0  0  2  0  0  0  0  0  0  0  0  0
   25.4658  -10.1810  -14.3925 C   0  0  0  0  0  0  0  0  0  0  0  0
   24.7227  -10.4772  -16.6875 C   0  0  0  0  0  0  0  0  0  0  0  0
   23.2483  -10.4438  -16.3243 C   0  0  2  0  0  0  0  0  0  0  0  0
   22.4811  -11.2782  -17.2527 N   0  0  0  0  0  0  0  0  0  0  0  0
   22.7888   -9.0260  -16.5066 C   0  0  0  0  0  0  0  0  0  0  0  0
   22.8423   -8.4667  -17.6309 O   0  0  0  0  0  0  0  0  0  0  0  0
   22.2780   -8.2658  -15.4230 N   0  0  0  0  0  0  0  0  0  0  0  0
   21.8759   -6.8917  -15.5711 C   0  0  1  0  0  0  0  0  0  0  0  0
   20.4185   -6.6906  -15.2303 C   0  0  0  0  0  0  0  0  0  0  0  0
   19.9585   -5.3087  -15.4307 C   0  0  0  0  0  0  0  0  0  0  0  0
   20.5873   -4.5203  -16.1690 O   0  0  0  0  0  0  0  0  0  0  0  0
   22.7667   -5.9732  -14.7905 C   0  0  0  0  0  0  0  0  0  0  0  0
   22.5638   -4.7458  -14.7739 O   0  0  0  0  0  0  0  0  0  0  0  0
   18.8139   -4.8549  -14.8007 O   0  0  0  0  0  0  0  0  0  0  0  0
   23.8421   -6.4501  -14.0628 O   0  0  0  0  0  0  0  0  0  0  0  0
  2  1  1  0
  3  4  1  1
  3  2  1  0
  5  3  1  0
  6  5  2  0
  8  7  1  6
  8 10  1  0
  9  8  1  0
 11 10  1  6
 11 13  1  0
 11 12  1  0
 12  5  1  0
 13 15  1  0
 14 13  2  0
 15 16  1  0
 16 17  1  1
 16 20  1  0
 18 17  1  0
 19 18  2  0
 20 21  2  0
 20 23  1  0
 22 18  1  0
M  END
$$$$
