SLD.pdb
     RDKit          3D

 23 22  0  0  1  0  0  0  0  0999 V2000
   19.6176  -13.0898  -19.5939 O   0  0  0  0  0  0  0  0  0  0  0  0
   19.7739  -12.0769  -18.6776 C   0  0  0  0  0  0  0  0  0  0  0  0
   20.6908  -12.4921  -17.5223 C   0  0  2  0  0  0  0  0  0  0  0  0
   19.9243  -13.3994  -16.6876 N   0  0  0  0  0  0  0  0  0  0  0  0
   21.1090  -11.3118  -16.7303 C   0  0  0  0  0  0  0  0  0  0  0  0
   20.3789  -10.7964  -15.8345 O   0  0  0  0  0  0  0  0  0  0  0  0
   26.4788   -9.7987  -15.1949 C   0  0  0  0  0  0  0  0  0  0  0  0
   25.0026   -9.6027  -15.0203 C   0  0  2  0  0  0  0  0  0  0  0  0
   24.4406  -10.8931  -14.4571 C   0  0  0  0  0  0  0  0  0  0  0  0
   24.2857   -9.3261  -16.3084 C   0  0  0  0  0  0  0  0  0  0  0  0
   22.7845   -9.5276  -16.1969 C   0  0  2  0  0  0  0  0  0  0  0  0
   22.3761  -10.7093  -16.9607 N   0  0  0  0  0  0  0  0  0  0  0  0
   22.1378   -8.3321  -16.8348 C   0  0  0  0  0  0  0  0  0  0  0  0
   21.8524   -8.3256  -18.0589 O   0  0  0  0  0  0  0  0  0  0  0  0
   21.8242   -7.1691  -16.0852 N   0  0  0  0  0  0  0  0  0  0  0  0
   21.0949   -6.0645  -16.6507 C   0  0  1  0  0  0  0  0  0  0  0  0
   19.7745   -6.5023  -17.2385 C   0  0  0  0  0  0  0  0  0  0  0  0
   18.9496   -5.3830  -17.7164 C   0  0  0  0  0  0  0  0  0  0  0  0
   19.1504   -4.8661  -18.8364 O   0  0  0  0  0  0  0  0  0  0  0  0
   20.9267   -4.9538  -15.6585 C   0  0  0  0  0  0  0  0  0  0  0  0
   20.8801   -5.1878  -14.4374 O   0  0  0  0  0  0  0  0  0  0  0  0
   17.9305   -4.8797  -16.9283 O   0  0  0  0  0  0  0  0  0  0  0  0
   20.8172   -3.6340  -16.0580 O   0  0  0  0  0  0  0  0  0  0  0  0
  2  1  1  0
  3  4  1  1
  3  2  1  0
  5  3  1  0
  6  5  2  0
  8  7  1  6
  8 10  1  0
  9  8  1  0
 11 10  1  6
 11 13  1  0
 11 12  1  0
 12  5  1  0
 13 15  1  0
 14 13  2  0
 15 16  1  0
 16 17  1  1
 16 20  1  0
 18 17  1  0
 19 18  2  0
 20 21  2  0
 20 23  1  0
 22 18  1  0
M  END
$$$$
