SLD.pdb
     RDKit          3D

 23 22  0  0  1  0  0  0  0  0999 V2000
   26.2035  -18.2705  -16.7570 O   0  0  0  0  0  0  0  0  0  0  0  0
   27.0872  -19.1268  -17.3701 C   0  0  0  0  0  0  0  0  0  0  0  0
   27.9614  -19.8662  -16.3518 C   0  0  2  0  0  0  0  0  0  0  0  0
   28.7640  -20.8146  -17.1027 N   0  0  0  0  0  0  0  0  0  0  0  0
   27.1252  -20.5864  -15.3632 C   0  0  0  0  0  0  0  0  0  0  0  0
   26.5733  -21.6970  -15.6149 O   0  0  0  0  0  0  0  0  0  0  0  0
   25.4367  -20.1917   -9.3498 C   0  0  0  0  0  0  0  0  0  0  0  0
   25.3157  -20.7969  -10.7162 C   0  0  2  0  0  0  0  0  0  0  0  0
   25.6936  -22.2600  -10.5957 C   0  0  0  0  0  0  0  0  0  0  0  0
   26.2394  -20.1767  -11.7222 C   0  0  0  0  0  0  0  0  0  0  0  0
   25.9856  -20.6754  -13.1342 C   0  0  2  0  0  0  0  0  0  0  0  0
   26.9140  -20.0353  -14.0696 N   0  0  0  0  0  0  0  0  0  0  0  0
   24.5979  -20.2385  -13.5056 C   0  0  0  0  0  0  0  0  0  0  0  0
   24.3318  -19.0265  -13.7063 O   0  0  0  0  0  0  0  0  0  0  0  0
   23.5380  -21.1713  -13.6449 N   0  0  0  0  0  0  0  0  0  0  0  0
   22.2184  -20.7773  -14.0634 C   0  0  1  0  0  0  0  0  0  0  0  0
   21.9031  -21.2566  -15.4603 C   0  0  0  0  0  0  0  0  0  0  0  0
   20.5584  -20.8766  -15.9173 C   0  0  0  0  0  0  0  0  0  0  0  0
   19.5603  -21.0273  -15.1803 O   0  0  0  0  0  0  0  0  0  0  0  0
   21.1784  -21.2086  -13.0741 C   0  0  0  0  0  0  0  0  0  0  0  0
   20.3371  -20.4028  -12.6371 O   0  0  0  0  0  0  0  0  0  0  0  0
   20.3743  -20.3424  -17.1797 O   0  0  0  0  0  0  0  0  0  0  0  0
   21.1131  -22.5103  -12.6106 O   0  0  0  0  0  0  0  0  0  0  0  0
  2  1  1  0
  3  4  1  6
  3  2  1  0
  5  3  1  0
  6  5  2  0
  8  7  1  1
  8 10  1  0
  9  8  1  0
 11 10  1  1
 11 13  1  0
 11 12  1  0
 12  5  1  0
 13 15  1  0
 14 13  2  0
 15 16  1  0
 16 17  1  6
 16 20  1  0
 18 17  1  0
 19 18  2  0
 20 21  2  0
 20 23  1  0
 22 18  1  0
M  END
$$$$
