SLD.pdb
     RDKit          3D

 23 22  0  0  1  0  0  0  0  0999 V2000
   16.4011   -9.2040  -19.7108 O   0  0  0  0  0  0  0  0  0  0  0  0
   16.8070   -9.0534  -18.4060 C   0  0  0  0  0  0  0  0  0  0  0  0
   17.4380  -10.3367  -17.8555 C   0  0  2  0  0  0  0  0  0  0  0  0
   16.3432  -11.1894  -17.4290 N   0  0  0  0  0  0  0  0  0  0  0  0
   18.3214  -10.0383  -16.7041 C   0  0  0  0  0  0  0  0  0  0  0  0
   17.8818   -9.8840  -15.5275 O   0  0  0  0  0  0  0  0  0  0  0  0
   24.2229  -10.4109  -14.8886 C   0  0  0  0  0  0  0  0  0  0  0  0
   22.8882   -9.7321  -14.8125 C   0  0  2  0  0  0  0  0  0  0  0  0
   22.2859  -10.0731  -13.4638 C   0  0  0  0  0  0  0  0  0  0  0  0
   21.9259  -10.1988  -15.8642 C   0  0  0  0  0  0  0  0  0  0  0  0
   20.5869   -9.4859  -15.7891 C   0  0  2  0  0  0  0  0  0  0  0  0
   19.7250   -9.9139  -16.8939 N   0  0  0  0  0  0  0  0  0  0  0  0
   20.8640   -8.0219  -15.9738 C   0  0  0  0  0  0  0  0  0  0  0  0
   21.3957   -7.5908  -17.0281 O   0  0  0  0  0  0  0  0  0  0  0  0
   20.5378   -7.0720  -14.9717 N   0  0  0  0  0  0  0  0  0  0  0  0
   20.8440   -5.6725  -15.1113 C   0  0  1  0  0  0  0  0  0  0  0  0
   19.6027   -4.8147  -15.0498 C   0  0  0  0  0  0  0  0  0  0  0  0
   19.8768   -3.3801  -15.2186 C   0  0  0  0  0  0  0  0  0  0  0  0
   21.0325   -2.9680  -15.4566 O   0  0  0  0  0  0  0  0  0  0  0  0
   21.8774   -5.2362  -14.1172 C   0  0  0  0  0  0  0  0  0  0  0  0
   22.3318   -4.0781  -14.1325 O   0  0  0  0  0  0  0  0  0  0  0  0
   18.8528   -2.4561  -15.1157 O   0  0  0  0  0  0  0  0  0  0  0  0
   22.3638   -6.0977  -13.1503 O   0  0  0  0  0  0  0  0  0  0  0  0
  2  1  1  0
  3  4  1  1
  3  2  1  0
  5  3  1  0
  6  5  2  0
  8  7  1  6
  8 10  1  0
  9  8  1  0
 11 10  1  6
 11 13  1  0
 11 12  1  0
 12  5  1  0
 13 15  1  0
 14 13  2  0
 15 16  1  0
 16 17  1  1
 16 20  1  0
 18 17  1  0
 19 18  2  0
 20 21  2  0
 20 23  1  0
 22 18  1  0
M  END
$$$$
