SLD.pdb
     RDKit          3D

 23 22  0  0  1  0  0  0  0  0999 V2000
   19.8803  -12.1974  -19.0322 O   0  0  0  0  0  0  0  0  0  0  0  0
   20.3575  -11.5847  -17.8977 C   0  0  0  0  0  0  0  0  0  0  0  0
   21.7232  -12.1420  -17.4826 C   0  0  2  0  0  0  0  0  0  0  0  0
   21.5008  -13.5097  -17.0493 N   0  0  0  0  0  0  0  0  0  0  0  0
   22.3005  -11.3498  -16.3715 C   0  0  0  0  0  0  0  0  0  0  0  0
   21.8354  -11.3826  -15.1951 O   0  0  0  0  0  0  0  0  0  0  0  0
   26.4231  -11.5841  -15.0575 C   0  0  0  0  0  0  0  0  0  0  0  0
   26.2409  -10.6127  -16.1849 C   0  0  2  0  0  0  0  0  0  0  0  0
   27.6205  -10.1412  -16.6005 C   0  0  0  0  0  0  0  0  0  0  0  0
   25.4498   -9.3985  -15.7981 C   0  0  0  0  0  0  0  0  0  0  0  0
   23.9934   -9.7176  -15.5085 C   0  0  2  0  0  0  0  0  0  0  0  0
   23.4233  -10.5085  -16.6021 N   0  0  0  0  0  0  0  0  0  0  0  0
   23.2617   -8.4070  -15.4701 C   0  0  0  0  0  0  0  0  0  0  0  0
   23.5078   -7.5530  -14.5813 O   0  0  0  0  0  0  0  0  0  0  0  0
   22.2694   -8.0821  -16.4307 N   0  0  0  0  0  0  0  0  0  0  0  0
   21.5479   -6.8370  -16.3984 C   0  0  1  0  0  0  0  0  0  0  0  0
   21.2810   -6.3037  -17.7858 C   0  0  0  0  0  0  0  0  0  0  0  0
   20.5323   -5.0383  -17.7897 C   0  0  0  0  0  0  0  0  0  0  0  0
   20.5345   -4.2847  -16.7926 O   0  0  0  0  0  0  0  0  0  0  0  0
   20.2909   -6.9532  -15.5904 C   0  0  0  0  0  0  0  0  0  0  0  0
   19.6396   -8.0130  -15.5685 O   0  0  0  0  0  0  0  0  0  0  0  0
   19.8077   -4.6584  -18.9048 O   0  0  0  0  0  0  0  0  0  0  0  0
   19.8083   -5.8944  -14.8425 O   0  0  0  0  0  0  0  0  0  0  0  0
  2  1  1  0
  3  4  1  1
  3  2  1  0
  5  3  1  0
  6  5  2  0
  8  7  1  1
  8 10  1  0
  9  8  1  0
 11 10  1  6
 11 13  1  0
 11 12  1  0
 12  5  1  0
 13 15  1  0
 14 13  2  0
 15 16  1  0
 16 17  1  6
 16 20  1  0
 18 17  1  0
 19 18  2  0
 20 21  2  0
 20 23  1  0
 22 18  1  0
M  END
$$$$
