SLD.pdb
     RDKit          3D

 23 22  0  0  1  0  0  0  0  0999 V2000
   44.7045   -9.8526   -5.4752 O   0  0  0  0  0  0  0  0  0  0  0  0
   43.9621   -9.5547   -6.5933 C   0  0  0  0  0  0  0  0  0  0  0  0
   43.1904  -10.7757   -7.1050 C   0  0  2  0  0  0  0  0  0  0  0  0
   44.1191  -11.5476   -7.9108 N   0  0  0  0  0  0  0  0  0  0  0  0
   42.0328  -10.3599   -7.9309 C   0  0  0  0  0  0  0  0  0  0  0  0
   42.1112  -10.1935   -9.1829 O   0  0  0  0  0  0  0  0  0  0  0  0
   37.8072  -12.2349   -8.8081 C   0  0  0  0  0  0  0  0  0  0  0  0
   38.0886  -11.6972   -7.4371 C   0  0  2  0  0  0  0  0  0  0  0  0
   36.8646  -11.9715   -6.5859 C   0  0  0  0  0  0  0  0  0  0  0  0
   38.3245  -10.2161   -7.4191 C   0  0  0  0  0  0  0  0  0  0  0  0
   39.5967   -9.8179   -8.1470 C   0  0  2  0  0  0  0  0  0  0  0  0
   40.7677  -10.1304   -7.3238 N   0  0  0  0  0  0  0  0  0  0  0  0
   39.5500   -8.3269   -8.3180 C   0  0  0  0  0  0  0  0  0  0  0  0
   39.8555   -7.5562   -7.3731 O   0  0  0  0  0  0  0  0  0  0  0  0
   39.1621   -7.7320   -9.5462 N   0  0  0  0  0  0  0  0  0  0  0  0
   39.1247   -6.3049   -9.7302 C   0  0  1  0  0  0  0  0  0  0  0  0
   38.5948   -5.9256  -11.0926 C   0  0  0  0  0  0  0  0  0  0  0  0
   38.5909   -4.4753  -11.3332 C   0  0  0  0  0  0  0  0  0  0  0  0
   39.4641   -3.7358  -10.8305 O   0  0  0  0  0  0  0  0  0  0  0  0
   38.3685   -5.6299   -8.6261 C   0  0  0  0  0  0  0  0  0  0  0  0
   38.8308   -4.6267   -8.0537 O   0  0  0  0  0  0  0  0  0  0  0  0
   37.6134   -3.9009  -12.1254 O   0  0  0  0  0  0  0  0  0  0  0  0
   37.1356   -6.0924   -8.2026 O   0  0  0  0  0  0  0  0  0  0  0  0
  2  1  1  0
  3  4  1  6
  3  2  1  0
  5  3  1  0
  6  5  2  0
  8  7  1  6
  8 10  1  0
  9  8  1  0
 11 10  1  1
 11 13  1  0
 11 12  1  0
 12  5  1  0
 13 15  1  0
 14 13  2  0
 15 16  1  0
 16 17  1  6
 16 20  1  0
 18 17  1  0
 19 18  2  0
 20 21  2  0
 20 23  1  0
 22 18  1  0
M  END
$$$$
