SLD.pdb
     RDKit          3D

 23 22  0  0  1  0  0  0  0  0999 V2000
   17.5032  -25.5314   -1.3529 O   0  0  0  0  0  0  0  0  0  0  0  0
   17.8439  -26.8622   -1.2985 C   0  0  0  0  0  0  0  0  0  0  0  0
   18.8064  -27.2490   -2.4263 C   0  0  2  0  0  0  0  0  0  0  0  0
   18.0163  -27.3204   -3.6421 N   0  0  0  0  0  0  0  0  0  0  0  0
   19.4344  -28.5635   -2.1563 C   0  0  0  0  0  0  0  0  0  0  0  0
   18.8093  -29.6571   -2.2771 O   0  0  0  0  0  0  0  0  0  0  0  0
   23.3241  -31.0730   -3.5531 C   0  0  0  0  0  0  0  0  0  0  0  0
   23.5245  -29.7848   -2.8125 C   0  0  2  0  0  0  0  0  0  0  0  0
   25.0188  -29.5836   -2.6552 C   0  0  0  0  0  0  0  0  0  0  0  0
   22.9261  -29.7934   -1.4372 C   0  0  0  0  0  0  0  0  0  0  0  0
   21.4136  -29.9313   -1.4587 C   0  0  2  0  0  0  0  0  0  0  0  0
   20.7929  -28.6349   -1.7431 N   0  0  0  0  0  0  0  0  0  0  0  0
   20.9956  -30.3381   -0.0752 C   0  0  0  0  0  0  0  0  0  0  0  0
   20.8334  -29.4822    0.8309 O   0  0  0  0  0  0  0  0  0  0  0  0
   20.7674  -31.6972    0.2622 N   0  0  0  0  0  0  0  0  0  0  0  0
   20.4315  -32.1105    1.5994 C   0  0  1  0  0  0  0  0  0  0  0  0
   18.9399  -32.2538    1.7875 C   0  0  0  0  0  0  0  0  0  0  0  0
   18.5639  -32.7172    3.1312 C   0  0  0  0  0  0  0  0  0  0  0  0
   19.4252  -32.8777    4.0225 O   0  0  0  0  0  0  0  0  0  0  0  0
   21.1685  -33.3560    1.9892 C   0  0  0  0  0  0  0  0  0  0  0  0
   21.3073  -34.2957    1.1857 O   0  0  0  0  0  0  0  0  0  0  0  0
   17.2411  -32.9854    3.4332 O   0  0  0  0  0  0  0  0  0  0  0  0
   21.7196  -33.5092    3.2487 O   0  0  0  0  0  0  0  0  0  0  0  0
  2  1  1  0
  3  4  1  6
  3  2  1  0
  5  3  1  0
  6  5  2  0
  8  7  1  1
  8 10  1  0
  9  8  1  0
 11 10  1  1
 11 13  1  0
 11 12  1  0
 12  5  1  0
 13 15  1  0
 14 13  2  0
 15 16  1  0
 16 17  1  6
 16 20  1  0
 18 17  1  0
 19 18  2  0
 20 21  2  0
 20 23  1  0
 22 18  1  0
M  END
$$$$
